AV-unprocessed.smi:2391|AV-procd|sdf|9483|dock7
  -GOLD-   2272013113D 1   1.00000     0.00000
 Structure written by MMmdl.
 35 36  0  0  0  0  0  0  0  0  1 V2000
  150.9169  141.0517  158.9375 O   0  0  0  0  0  0  0  0  0  0  0  0
  151.9720  141.1019  158.2987 C   0  0  0  0  0  0  0  0  0  0  0  0
  152.4817  140.1835  157.3879 N   0  0  0  0  0  0  0  0  0  0  0  0
  151.7997  139.7600  156.3635 C   0  0  0  0  0  0  0  0  0  0  0  0
  152.3749  138.8072  155.4294 C   0  0  0  0  0  0  0  0  0  0  0  0
  151.6768  138.3601  154.3599 C   0  0  0  0  0  0  0  0  0  0  0  0
  150.3285  138.8524  154.1585 C   0  0  0  0  0  0  0  0  0  0  0  0
  149.7768  139.6972  154.9639 N   0  0  0  0  0  0  0  0  0  0  0  0
  150.4809  140.1359  156.0272 N   0  0  0  0  0  0  0  0  0  0  0  0
  152.8184  142.1364  158.4175 N   0  0  0  0  0  0  0  0  0  0  0  0
  152.6493  143.3140  159.2733 C   0  0  2  0  0  0  0  0  0  0  0  0
  152.5121  142.8596  160.7499 C   0  0  0  0  0  0  0  0  0  0  0  0
  152.4975  143.9912  161.7838 C   0  0  0  0  0  0  0  0  0  0  0  0
  152.8234  143.3150  163.1180 C   0  0  0  0  0  0  0  0  0  0  0  0
  153.6437  142.0651  162.7731 C   0  0  0  0  0  0  0  0  0  0  0  0
  153.6647  141.9718  161.2429 C   0  0  0  0  0  0  0  0  0  0  0  0
  151.4483  144.1376  158.7540 C   0  0  0  0  0  0  0  0  0  0  0  0
  151.5683  144.3314  157.4399 F   0  0  0  0  0  0  0  0  0  0  0  0
  150.3020  143.4977  158.9885 F   0  0  0  0  0  0  0  0  0  0  0  0
  151.4018  145.3353  159.3359 F   0  0  0  0  0  0  0  0  0  0  0  0
  153.3780  138.4294  155.5640 H   0  0  0  0  0  0  0  0  0  0  0  0
  152.1034  137.6518  153.6653 H   0  0  0  0  0  0  0  0  0  0  0  0
  149.8110  138.4626  153.2820 H   0  0  0  0  0  0  0  0  0  0  0  0
  153.6642  142.1060  157.8668 H   0  0  0  0  0  0  0  0  0  0  0  0
  153.5313  143.9522  159.1998 H   0  0  0  0  0  0  0  0  0  0  0  0
  151.5857  142.2933  160.8607 H   0  0  0  0  0  0  0  0  0  0  0  0
  153.2714  144.7230  161.5468 H   0  0  0  0  0  0  0  0  0  0  0  0
  151.5426  144.5160  161.8221 H   0  0  0  0  0  0  0  0  0  0  0  0
  153.3578  143.9858  163.7913 H   0  0  0  0  0  0  0  0  0  0  0  0
  151.9000  143.0192  163.6177 H   0  0  0  0  0  0  0  0  0  0  0  0
  154.6564  142.1257  163.1732 H   0  0  0  0  0  0  0  0  0  0  0  0
  153.1755  141.1800  163.2055 H   0  0  0  0  0  0  0  0  0  0  0  0
  153.5765  140.9425  160.8938 H   0  0  0  0  0  0  0  0  0  0  0  0
  154.6146  142.3610  160.8733 H   0  0  0  0  0  0  0  0  0  0  0  0
  150.0102  140.7943  156.6316 H   0  0  0  0  0  0  0  0  0  0  0  0
  1  2  2  0  0  0  0
  2  3  1  0  0  0  0
  2 10  1  0  0  0  0
  3  4  2  0  0  0  0
  4  9  1  0  0  0  0
  4  5  1  0  0  0  0
  5  6  2  0  0  0  0
  5 21  1  0  0  0  0
  6  7  1  0  0  0  0
  6 22  1  0  0  0  0
  7  8  2  0  0  0  0
  7 23  1  0  0  0  0
  8  9  1  0  0  0  0
  9 35  1  0  0  0  0
 10 11  1  0  0  0  0
 10 24  1  0  0  0  0
 11 12  1  0  0  0  0
 11 17  1  0  0  0  0
 11 25  1  0  0  0  0
 12 16  1  0  0  0  0
 12 13  1  0  0  0  0
 12 26  1  0  0  0  0
 13 14  1  0  0  0  0
 13 27  1  0  0  0  0
 13 28  1  0  0  0  0
 14 15  1  0  0  0  0
 14 29  1  0  0  0  0
 14 30  1  0  0  0  0
 15 16  1  0  0  0  0
 15 31  1  0  0  0  0
 15 32  1  0  0  0  0
 16 33  1  0  0  0  0
 16 34  1  0  0  0  0
 17 18  1  0  0  0  0
 17 19  1  0  0  0  0
 17 20  1  0  0  0  0
M  END
> <s_m_source_file>
AV-unprocessed.smi

> <i_m_source_file_index>
2391

> <i_lp_mmshare_version>
43012

> <i_f3d_flags>
0

> <s_epik_input>
W0NIMl0xW0NIMl1bQ0gyXVtDSDJdW0NIXTFbQ0BIXShDKEYpKEYpRilbTkhdQyg9TylbTkhdYzJbY0hdW2NIXVtjSF1ubjI=

> <s_epik_cmdline>
J2VwaWtfcHl0aG9uJywgJy1waCcsICc3LjAnLCAnLXRuJywgJzgnLCAnLW1hJywgJzIwMCcsICctbWV0YWxfYmluZGluZycsICctaW1hZScsICc8aW5maWxlLm1hZT4nLCAnLW9tYWUnLCAnPG91dGZpbGUubWFlPic=

> <r_epik_Ionization_Penalty>
0.0611197

> <r_epik_Ionization_Penalty_Charging>
0.0611196

> <r_epik_Ionization_Penalty_Neutral>
6.50554e-08

> <r_epik_State_Penalty>
2.29873

> <r_epik_Charging_Adjusted_Penalty>
2.35985

> <i_epik_Tot_Q>
0

> <i_epik_Tot_abs_Q>
0

> <r_epik_Metal_State_Penalty>
2.32932

> <b_epik_Metal_Only>
0

> <s_lp_Force_Field>
OPLS_2005

> <r_lp_Energy>
49.9712

> <b_lp_Chiralities_Consistent>
1

> <s_lp_Variant>
AV-unprocessed.smi:2391-3

> <Gold.Version>
5.8.1

> <Gold.Id.Protein>
6NUR|6NUR_protein|mol2

> <Gold.PLP.Fitness>
52.3505

> <Gold.PLP.PLP>
-46.8507

> <Gold.PLP.part.hbond>
-1.0000

> <Gold.PLP.part.metal>
0.0000

> <Gold.PLP.part.buried>
0.6820

> <Gold.PLP.part.nonpolar>
-44.9399

> <Gold.PLP.part.repulsive>
0.2322

> <Gold.PLP.ligand.clash>
0.0016

> <Gold.PLP.ligand.torsion>
0.6783

> <Gold.PLP.Chemscore.Hbond>
1.0000

> <Gold.PLP.Chemscore.CHOScore>
1.1903

> <Gold.PLP.Chemscore.Metal>
0.0000

> <Gold.Chemscore.Hbonds>
donor molecule, donor type, donor heavy atom, donor atom, acceptor molecule, acceptor atom, score
      P1  H  7997  8008       L1     3  0.93
      L1  C     7    23       P1  7948  0.48
      L1  C     7    23       P1  7957  0.56

> <Gold.PLP.Chemscore.Internal.Correction>
0.2871

> <Gold.Rescore>
     Score         DG    S(hbond)    S(metal)    S(lipo)     H(rot)  DE(clash)    DE(int)     intcor
     11.07     -15.97       0.53        0.00     103.81       1.33       1.09       3.81       ----

> <Gold.Chemscore.Fitness>
11.0742

> <Gold.Chemscore.DG>
-15.9739

> <Gold.Chemscore.ZeroCoef>
-5.4800

> <Gold.Chemscore.Hbond>
0.5252

> <Gold.Chemscore.Metal>
0.0000

> <Gold.Chemscore.Lipo>
103.8077

> <Gold.Chemscore.Internal_Hbond>
0.0000

> <Gold.Chemscore.DEClash>
1.0929

> <Gold.Chemscore.DEInternal>
3.8068

> <Gold.Chemscore.Rot>
1.3304

> <Gold.Chemscore.Internal.Correction>
   9.000000E+99

> <Gold.Chemscore.Hbonds>
donor molecule, donor type, donor heavy atom, donor atom, acceptor molecule, acceptor atom, score
      P1  H  7997  8008       L1     3  0.19

> <Gold.Chemscore.Hbond.Weighted>
-1.7541

> <Gold.Chemscore.Metal.Weighted>
-0.0000

> <Gold.Chemscore.Lipo.Weighted>
-12.1455

> <Gold.Chemscore.Internal_Hbond.Weighted>
0.0000

> <Gold.Chemscore.DEClash.Weighted>
1.0929

> <Gold.Chemscore.DEInternal.Weighted>
3.8068

> <Gold.Chemscore.Rot.Weighted>
3.4057

> <Gold.Chemscore.Internal.Correction.Weighted>
   9.000000E+99

> <Gold.Protein.RotatedTorsions>
[ 6907 6896 6895 6894 ] final -166.24 input  -60.11 | X-H torsion
[ 7974 7965 7964 7962 ] final  -86.91 input  175.53 | X-H torsion
[ 8008 7997 7996 7995 ] final  -56.60 input   59.86 | X-H torsion
[ 10167 10162 10161 10158 ] final  -72.53 input  -65.29 | X-H torsion
[ 10718 10713 10712 10709 ] final  -60.83 input   66.30 | X-H torsion
[ 10763 10752 10751 10750 ] final  114.98 input  -60.55 | X-H torsion
[ 11005 11000 10999 10996 ] final   77.62 input  -57.11 | X-H torsion

> <Gold.Protein.ActiveResidues>
 VAL166  LYS551  ARG553  GLY616  TRP617  ASP618  TYR619  PRO620  LYS621  CYS622 
 ASP623  PHE694  ASN695  SER759  ASP760  ASP761  ALA762  ILE779  LEU786  VAL792 
 PHE793  MET794  SER795  GLU796  ALA797  LYS798  CYS799  TRP800  GLU811  SER814 

> <Gold.Protein.RotatedAtoms>
  151.4404  133.3645  159.2780 H   0  0  0  0  0  0  0  0  0  0  0  0  # atno 6907 bound_to 6896
  150.9161  134.8580  159.7469 H   0  0  0  0  0  0  0  0  0  0  0  0  # atno 6908 bound_to 6896
  152.4958  134.4338  159.9573 H   0  0  0  0  0  0  0  0  0  0  0  0  # atno 6909 bound_to 6896
  145.4735  140.9559  143.1904 H   0  0  0  0  0  0  0  0  0  0  0  0  # atno 7974 bound_to 7965
  154.4236  140.1126  156.5663 H   0  0  0  0  0  0  0  0  0  0  0  0  # atno 8008 bound_to 7997
  155.6259  140.3495  155.4648 H   0  0  0  0  0  0  0  0  0  0  0  0  # atno 8009 bound_to 7997
  155.9987  140.1194  157.0558 H   0  0  0  0  0  0  0  0  0  0  0  0  # atno 8010 bound_to 7997
  140.5184  143.2335  151.7472 H   0  0  0  0  0  0  0  0  0  0  0  0  # atno 10167 bound_to 10162
  156.0963  130.4192  150.0909 H   0  0  0  0  0  0  0  0  0  0  0  0  # atno 10718 bound_to 10713
  153.5154  135.3609  155.2607 H   0  0  0  0  0  0  0  0  0  0  0  0  # atno 10763 bound_to 10752
  154.8739  135.4033  154.3320 H   0  0  0  0  0  0  0  0  0  0  0  0  # atno 10764 bound_to 10752
  153.3981  135.7074  153.6513 H   0  0  0  0  0  0  0  0  0  0  0  0  # atno 10765 bound_to 10752
  139.9247  134.7697  156.1544 H   0  0  0  0  0  0  0  0  0  0  0  0  # atno 11005 bound_to 11000
  144.7931  139.6288  143.7104 LP  0  0  0  0  0  0  0  0  0  0  0  0  # atno 17320 bound_to 7965
  146.2383  139.5949  142.9509 LP  0  0  0  0  0  0  0  0  0  0  0  0  # atno 17321 bound_to 7965
  139.4916  144.4290  151.9893 LP  0  0  0  0  0  0  0  0  0  0  0  0  # atno 17342 bound_to 10162
  140.3385  144.3231  150.5972 LP  0  0  0  0  0  0  0  0  0  0  0  0  # atno 17343 bound_to 10162
  156.8907  130.9587  151.3588 LP  0  0  0  0  0  0  0  0  0  0  0  0  # atno 17370 bound_to 10713
  157.6125  130.8593  149.8974 LP  0  0  0  0  0  0  0  0  0  0  0  0  # atno 17371 bound_to 10713
  141.0795  133.6760  156.2307 LP  0  0  0  0  0  0  0  0  0  0  0  0  # atno 17394 bound_to 11000
  140.6371  134.5204  157.5566 LP  0  0  0  0  0  0  0  0  0  0  0  0  # atno 17395 bound_to 11000

$$$$
