AV-unprocessed.smi:3185|AV-procd|sdf|12166|dock10
  -GOLD-   2272018 03D 1   1.00000     0.00000
 Structure written by MMmdl.
 38 39  0  0  0  0  0  0  0  0  2 V2000
  150.7518  131.9990  155.6841 N   0  0  0  0  0  0  0  0  0  0  0  0
  149.9345  131.9508  154.8675 C   0  0  0  0  0  0  0  0  0  0  0  0
  148.8960  131.8896  153.8282 C   0  0  0  0  0  0  0  0  0  0  0  0
  148.5714  133.2666  153.2381 C   0  0  0  0  0  0  0  0  0  0  0  0
  147.2848  133.2538  152.4043 C   0  0  0  0  0  0  0  0  0  0  0  0
  146.9350  134.6177  151.9556 N   0  3  0  0  0  0  0  0  0  0  0  0
  145.7675  135.2367  152.6269 C   0  0  1  0  0  0  0  0  0  0  0  0
  145.3847  136.6002  151.9979 C   0  0  0  0  0  0  0  0  0  0  0  0
  144.1281  137.1999  152.6490 C   0  0  0  0  0  0  0  0  0  0  0  0
  142.9516  136.2137  152.6299 C   0  0  0  0  0  0  0  0  0  0  0  0
  143.3325  134.8961  153.3232 C   0  0  0  0  0  0  0  0  0  0  0  0
  144.5772  134.2351  152.6949 C   0  0  1  0  0  0  0  0  0  0  0  0
  144.2458  133.5649  151.4349 N   0  0  0  0  0  0  0  0  0  0  0  0
  144.6229  133.9515  150.1641 C   0  0  0  0  0  0  0  0  0  0  0  0
  144.1340  133.0281  149.2854 C   0  0  0  0  0  0  0  0  0  0  0  0
  143.4764  132.0849  150.1210 C   0  0  0  0  0  0  0  0  0  0  0  0
  143.5512  132.4046  151.4021 N   0  0  0  0  0  0  0  0  0  0  0  0
  149.2442  131.2119  153.0482 H   0  0  0  0  0  0  0  0  0  0  0  0
  148.0058  131.4437  154.2726 H   0  0  0  0  0  0  0  0  0  0  0  0
  148.4761  133.9919  154.0474 H   0  0  0  0  0  0  0  0  0  0  0  0
  149.4066  133.5995  152.6200 H   0  0  0  0  0  0  0  0  0  0  0  0
  147.4148  132.6078  151.5349 H   0  0  0  0  0  0  0  0  0  0  0  0
  146.4715  132.8383  152.9991 H   0  0  0  0  0  0  0  0  0  0  0  0
  147.7340  135.2242  152.0782 H   0  0  0  0  0  0  0  0  0  0  0  0
  146.0615  135.4312  153.6597 H   0  0  0  0  0  0  0  0  0  0  0  0
  146.2017  137.3119  152.1140 H   0  0  0  0  0  0  0  0  0  0  0  0
  145.2284  136.5067  150.9242 H   0  0  0  0  0  0  0  0  0  0  0  0
  144.3503  137.4784  153.6799 H   0  0  0  0  0  0  0  0  0  0  0  0
  143.8490  138.1206  152.1357 H   0  0  0  0  0  0  0  0  0  0  0  0
  142.0916  136.6583  153.1316 H   0  0  0  0  0  0  0  0  0  0  0  0
  142.6408  136.0241  151.6022 H   0  0  0  0  0  0  0  0  0  0  0  0
  143.5292  135.0974  154.3771 H   0  0  0  0  0  0  0  0  0  0  0  0
  142.4876  134.2068  153.3032 H   0  0  0  0  0  0  0  0  0  0  0  0
  144.8826  133.4362  153.3729 H   0  0  0  0  0  0  0  0  0  0  0  0
  145.2040  134.8454  149.9905 H   0  0  0  0  0  0  0  0  0  0  0  0
  144.2386  133.0223  148.2105 H   0  0  0  0  0  0  0  0  0  0  0  0
  142.9543  131.1826  149.8379 H   0  0  0  0  0  0  0  0  0  0  0  0
  146.7249  134.5655  150.9692 H   0  0  0  0  0  0  0  0  0  0  0  0
  1  2  3  0  0  0  0
  2  3  1  0  0  0  0
  3  4  1  0  0  0  0
  3 18  1  0  0  0  0
  3 19  1  0  0  0  0
  4  5  1  0  0  0  0
  4 20  1  0  0  0  0
  4 21  1  0  0  0  0
  5  6  1  0  0  0  0
  5 22  1  0  0  0  0
  5 23  1  0  0  0  0
  6  7  1  0  0  0  0
  6 24  1  0  0  0  0
  6 38  1  0  0  0  0
  7 12  1  0  0  0  0
  7  8  1  0  0  0  0
  7 25  1  0  0  0  0
  8  9  1  0  0  0  0
  8 26  1  0  0  0  0
  8 27  1  0  0  0  0
  9 10  1  0  0  0  0
  9 28  1  0  0  0  0
  9 29  1  0  0  0  0
 10 11  1  0  0  0  0
 10 30  1  0  0  0  0
 10 31  1  0  0  0  0
 11 12  1  0  0  0  0
 11 32  1  0  0  0  0
 11 33  1  0  0  0  0
 12 13  1  0  0  0  0
 12 34  1  0  0  0  0
 13 17  1  0  0  0  0
 13 14  1  0  0  0  0
 14 15  2  0  0  0  0
 14 35  1  0  0  0  0
 15 16  1  0  0  0  0
 15 36  1  0  0  0  0
 16 17  2  0  0  0  0
 16 37  1  0  0  0  0
M  CHG  1   6   1
M  END
> <s_m_source_file>
AV-unprocessed.smi

> <i_m_source_file_index>
3185

> <i_lp_mmshare_version>
43012

> <i_f3d_flags>
0

> <s_epik_input>
TiNDW0NIMl1bQ0gyXVtDSDJdW05IXVtDQEBIXTFbQ0gyXVtDSDJdW0NIMl1bQ0gyXVtDQEhdMW4yW2NIXVtjSF1bY0hdbjI=

> <s_epik_cmdline>
J2VwaWtfcHl0aG9uJywgJy1waCcsICc3LjAnLCAnLXRuJywgJzgnLCAnLW1hJywgJzIwMCcsICctbWV0YWxfYmluZGluZycsICctaW1hZScsICc8aW5maWxlLm1hZT4nLCAnLW9tYWUnLCAnPG91dGZpbGUubWFlPic=

> <r_lp_tautomer_probability>
1

> <r_epik_Ionization_Penalty>
0.0143465

> <r_epik_Ionization_Penalty_Charging>
0.0143338

> <r_epik_Ionization_Penalty_Neutral>
1.27047e-05

> <r_epik_State_Penalty>
0.0112058

> <r_epik_Charging_Adjusted_Penalty>
0.0255397

> <i_epik_Tot_Q>
1

> <i_epik_Tot_abs_Q>
1

> <r_epik_Metal_State_Penalty>
0.0112253

> <b_epik_Metal_Only>
0

> <s_lp_Force_Field>
OPLS_2005

> <r_lp_Energy>
18.1439

> <b_lp_Chiralities_Consistent>
1

> <s_lp_Variant>
AV-unprocessed.smi:3185-2

> <Gold.Version>
5.8.1

> <Gold.Id.Protein>
6NUR|6NUR_protein|mol2

> <Gold.PLP.Fitness>
39.9046

> <Gold.PLP.PLP>
-30.6512

> <Gold.PLP.part.hbond>
-1.0000

> <Gold.PLP.part.metal>
0.0000

> <Gold.PLP.part.buried>
-0.1890

> <Gold.PLP.part.nonpolar>
-29.0628

> <Gold.PLP.part.repulsive>
0.2831

> <Gold.PLP.ligand.clash>
0.0028

> <Gold.PLP.ligand.torsion>
0.8295

> <Gold.PLP.Chemscore.Hbond>
2.0000

> <Gold.PLP.Chemscore.CHOScore>
1.5957

> <Gold.PLP.Chemscore.Metal>
0.0000

> <Gold.Chemscore.Hbonds>
donor molecule, donor type, donor heavy atom, donor atom, acceptor molecule, acceptor atom, score
      L1  H     6    24       P1  7948  2.00
      L1  C    14    35       P1  7921  0.60
      L1  C    16    37       P1 10952  1.00

> <Gold.PLP.Chemscore.Internal.Correction>
0.1280

> <Gold.Rescore>
     Score         DG    S(hbond)    S(metal)    S(lipo)     H(rot)  DE(clash)    DE(int)     intcor
     10.41     -12.33       0.95        0.00      72.60       1.88       0.02       1.90       ----

> <Gold.Chemscore.Fitness>
10.4100

> <Gold.Chemscore.DG>
-12.3339

> <Gold.Chemscore.ZeroCoef>
-5.4800

> <Gold.Chemscore.Hbond>
0.9476

> <Gold.Chemscore.Metal>
0.0000

> <Gold.Chemscore.Lipo>
72.5960

> <Gold.Chemscore.Internal_Hbond>
0.0000

> <Gold.Chemscore.DEClash>
0.0216

> <Gold.Chemscore.DEInternal>
1.9023

> <Gold.Chemscore.Rot>
1.8769

> <Gold.Chemscore.Internal.Correction>
   9.000000E+99

> <Gold.Chemscore.Hbonds>
donor molecule, donor type, donor heavy atom, donor atom, acceptor molecule, acceptor atom, score
      L1  H     6    24       P1  7948  0.92

> <Gold.Chemscore.Hbond.Weighted>
-3.1651

> <Gold.Chemscore.Metal.Weighted>
-0.0000

> <Gold.Chemscore.Lipo.Weighted>
-8.4937

> <Gold.Chemscore.Internal_Hbond.Weighted>
0.0000

> <Gold.Chemscore.DEClash.Weighted>
0.0216

> <Gold.Chemscore.DEInternal.Weighted>
1.9023

> <Gold.Chemscore.Rot.Weighted>
4.8049

> <Gold.Chemscore.Internal.Correction.Weighted>
   9.000000E+99

> <Gold.Protein.RotatedTorsions>
[ 6907 6896 6895 6894 ] final   69.73 input  -60.11 | X-H torsion
[ 7974 7965 7964 7962 ] final   44.29 input  175.53 | X-H torsion
[ 8008 7997 7996 7995 ] final -161.43 input   59.86 | X-H torsion
[ 10167 10162 10161 10158 ] final    0.35 input  -65.29 | X-H torsion
[ 10718 10713 10712 10709 ] final   10.21 input   66.30 | X-H torsion
[ 10763 10752 10751 10750 ] final  144.88 input  -60.55 | X-H torsion
[ 11005 11000 10999 10996 ] final -178.46 input  -57.11 | X-H torsion

> <Gold.Protein.ActiveResidues>
 VAL166  LYS551  ARG553  GLY616  TRP617  ASP618  TYR619  PRO620  LYS621  CYS622 
 ASP623  PHE694  ASN695  SER759  ASP760  ASP761  ALA762  ILE779  LEU786  VAL792 
 PHE793  MET794  SER795  GLU796  ALA797  LYS798  CYS799  TRP800  GLU811  SER814 

> <Gold.Protein.RotatedAtoms>
  152.4705  134.4973  159.9713 H   0  0  0  0  0  0  0  0  0  0  0  0  # atno 6907 bound_to 6896
  151.5001  133.3500  159.2875 H   0  0  0  0  0  0  0  0  0  0  0  0  # atno 6908 bound_to 6896
  150.8712  134.8113  159.7217 H   0  0  0  0  0  0  0  0  0  0  0  0  # atno 6909 bound_to 6896
  146.0581  139.5091  142.9675 H   0  0  0  0  0  0  0  0  0  0  0  0  # atno 7974 bound_to 7965
  155.7920  140.0879  157.2003 H   0  0  0  0  0  0  0  0  0  0  0  0  # atno 8008 bound_to 7997
  154.3985  140.1488  156.3232 H   0  0  0  0  0  0  0  0  0  0  0  0  # atno 8009 bound_to 7997
  155.8549  140.3433  155.5720 H   0  0  0  0  0  0  0  0  0  0  0  0  # atno 8010 bound_to 7997
  140.6733  143.6988  150.7968 H   0  0  0  0  0  0  0  0  0  0  0  0  # atno 10167 bound_to 10162
  156.9777  130.5993  149.5674 H   0  0  0  0  0  0  0  0  0  0  0  0  # atno 10718 bound_to 10713
  153.9961  135.2927  155.3407 H   0  0  0  0  0  0  0  0  0  0  0  0  # atno 10763 bound_to 10752
  154.7186  135.5119  153.8780 H   0  0  0  0  0  0  0  0  0  0  0  0  # atno 10764 bound_to 10752
  153.0787  135.6672  154.0208 H   0  0  0  0  0  0  0  0  0  0  0  0  # atno 10765 bound_to 10752
  140.4295  134.6532  157.4704 H   0  0  0  0  0  0  0  0  0  0  0  0  # atno 11005 bound_to 11000
  145.6608  141.0241  143.1710 LP  0  0  0  0  0  0  0  0  0  0  0  0  # atno 17320 bound_to 7965
  144.7159  139.8198  143.7399 LP  0  0  0  0  0  0  0  0  0  0  0  0  # atno 17321 bound_to 7965
  140.0677  143.5092  152.2596 LP  0  0  0  0  0  0  0  0  0  0  0  0  # atno 17342 bound_to 10162
  139.6012  144.7583  151.3168 LP  0  0  0  0  0  0  0  0  0  0  0  0  # atno 17343 bound_to 10162
  156.0257  130.5351  150.8399 LP  0  0  0  0  0  0  0  0  0  0  0  0  # atno 17370 bound_to 10713
  157.5548  131.0944  150.9644 LP  0  0  0  0  0  0  0  0  0  0  0  0  # atno 17371 bound_to 10713
  140.0144  134.6641  155.9332 LP  0  0  0  0  0  0  0  0  0  0  0  0  # atno 17394 bound_to 11000
  141.1751  133.6540  156.4799 LP  0  0  0  0  0  0  0  0  0  0  0  0  # atno 17395 bound_to 11000

$$$$
