AV-unprocessed.smi:253|AV-procd|sdf|1944|dock6
  -GOLD-   2262021 73D 1   1.00000     0.00000
 Structure written by MMmdl.
 52 54  0  0  0  0  0  0  0  0  1 V2000
  150.7204  142.6549  157.2943 C   0  0  0  0  0  0  0  0  0  0  0  0
  150.5370  141.1751  157.6541 C   0  0  0  0  0  0  0  0  0  0  0  0
  149.8787  140.4424  156.5799 N   0  0  0  0  0  0  0  0  0  0  0  0
  150.4677  140.0310  155.4441 C   0  0  0  0  0  0  0  0  0  0  0  0
  151.6541  140.2416  155.1947 O   0  0  0  0  0  0  0  0  0  0  0  0
  149.6139  139.2709  154.4174 C   0  0  0  0  0  0  0  0  0  0  0  0
  148.2313  139.7585  154.3082 N   0  0  0  0  0  0  0  0  0  0  0  0
  147.9898  140.9925  153.5594 C   0  0  0  0  0  0  0  0  0  0  0  0
  146.9914  141.9398  154.2456 C   0  0  0  0  0  0  0  0  0  0  0  0
  147.2803  138.7905  154.3413 C   0  0  0  0  0  0  0  0  0  0  0  0
  146.9385  138.3017  155.5610 N   0  0  0  0  0  0  0  0  0  0  0  0
  146.0097  137.3481  155.6700 C   0  0  0  0  0  0  0  0  0  0  0  0
  145.3152  136.7466  154.7031 N   0  0  0  0  0  0  0  0  0  0  0  0
  145.6658  137.2205  153.4734 C   0  0  0  0  0  0  0  0  0  0  0  0
  146.6310  138.2321  153.2015 C   0  0  0  0  0  0  0  0  0  0  0  0
  146.7221  138.4336  151.8285 N   0  0  0  0  0  0  0  0  0  0  0  0
  145.8561  137.5996  151.3215 C   0  0  0  0  0  0  0  0  0  0  0  0
  145.1812  136.8270  152.2383 N   0  0  0  0  0  0  0  0  0  0  0  0
  144.1726  135.8176  151.9532 C   0  0  0  0  0  0  0  0  0  0  0  0
  144.6804  134.6576  151.0613 C   0  0  0  0  0  0  0  0  0  0  0  0
  144.6817  135.1167  149.7202 O   0  0  0  0  0  0  0  0  0  0  0  0
  146.1129  134.2085  151.4246 C   0  0  0  0  0  0  0  0  0  0  0  0
  146.5264  132.9290  150.6759 C   0  0  0  0  0  0  0  0  0  0  0  0
  145.5797  131.8944  150.9139 O   0  0  0  0  0  0  0  0  0  0  0  0
  144.2825  132.2130  150.4255 C   0  0  0  0  0  0  0  0  0  0  0  0
  143.7310  133.4469  151.1617 C   0  0  0  0  0  0  0  0  0  0  0  0
  151.1790  143.1997  158.1195 H   0  0  0  0  0  0  0  0  0  0  0  0
  149.7632  143.1283  157.0743 H   0  0  0  0  0  0  0  0  0  0  0  0
  151.3627  142.7741  156.4214 H   0  0  0  0  0  0  0  0  0  0  0  0
  151.4991  140.7187  157.8913 H   0  0  0  0  0  0  0  0  0  0  0  0
  149.9228  141.0873  158.5503 H   0  0  0  0  0  0  0  0  0  0  0  0
  148.9009  140.2234  156.7083 H   0  0  0  0  0  0  0  0  0  0  0  0
  150.1032  139.3474  153.4454 H   0  0  0  0  0  0  0  0  0  0  0  0
  149.6337  138.2095  154.6727 H   0  0  0  0  0  0  0  0  0  0  0  0
  148.9393  141.5191  153.4552 H   0  0  0  0  0  0  0  0  0  0  0  0
  147.6670  140.7602  152.5449 H   0  0  0  0  0  0  0  0  0  0  0  0
  146.9028  142.8718  153.6876 H   0  0  0  0  0  0  0  0  0  0  0  0
  147.3207  142.1890  155.2547 H   0  0  0  0  0  0  0  0  0  0  0  0
  145.9933  141.5084  154.3163 H   0  0  0  0  0  0  0  0  0  0  0  0
  145.7924  137.0199  156.6757 H   0  0  0  0  0  0  0  0  0  0  0  0
  145.6900  137.5183  150.2571 H   0  0  0  0  0  0  0  0  0  0  0  0
  143.8088  135.4260  152.9040 H   0  0  0  0  0  0  0  0  0  0  0  0
  143.3197  136.3109  151.4847 H   0  0  0  0  0  0  0  0  0  0  0  0
  145.3586  134.6577  149.2468 H   0  0  0  0  0  0  0  0  0  0  0  0
  146.8343  135.0006  151.2202 H   0  0  0  0  0  0  0  0  0  0  0  0
  146.1670  134.0144  152.4965 H   0  0  0  0  0  0  0  0  0  0  0  0
  146.6197  133.1126  149.6046 H   0  0  0  0  0  0  0  0  0  0  0  0
  147.5043  132.5955  151.0234 H   0  0  0  0  0  0  0  0  0  0  0  0
  144.3173  132.3794  149.3479 H   0  0  0  0  0  0  0  0  0  0  0  0
  143.6269  131.3578  150.5906 H   0  0  0  0  0  0  0  0  0  0  0  0
  143.5909  133.1856  152.2114 H   0  0  0  0  0  0  0  0  0  0  0  0
  142.7426  133.7015  150.7768 H   0  0  0  0  0  0  0  0  0  0  0  0
  1  2  1  0  0  0  0
  1 27  1  0  0  0  0
  1 28  1  0  0  0  0
  1 29  1  0  0  0  0
  2  3  1  0  0  0  0
  2 30  1  0  0  0  0
  2 31  1  0  0  0  0
  3  4  1  0  0  0  0
  3 32  1  0  0  0  0
  4  5  2  0  0  0  0
  4  6  1  0  0  0  0
  6  7  1  0  0  0  0
  6 33  1  0  0  0  0
  6 34  1  0  0  0  0
  7  8  1  0  0  0  0
  7 10  1  0  0  0  0
  8  9  1  0  0  0  0
  8 35  1  0  0  0  0
  8 36  1  0  0  0  0
  9 37  1  0  0  0  0
  9 38  1  0  0  0  0
  9 39  1  0  0  0  0
 10 15  1  0  0  0  0
 10 11  2  0  0  0  0
 11 12  1  0  0  0  0
 12 13  2  0  0  0  0
 12 40  1  0  0  0  0
 13 14  1  0  0  0  0
 14 18  1  0  0  0  0
 14 15  2  0  0  0  0
 15 16  1  0  0  0  0
 16 17  2  0  0  0  0
 17 18  1  0  0  0  0
 17 41  1  0  0  0  0
 18 19  1  0  0  0  0
 19 20  1  0  0  0  0
 19 42  1  0  0  0  0
 19 43  1  0  0  0  0
 20 26  1  0  0  0  0
 20 21  1  0  0  0  0
 20 22  1  0  0  0  0
 21 44  1  0  0  0  0
 22 23  1  0  0  0  0
 22 45  1  0  0  0  0
 22 46  1  0  0  0  0
 23 24  1  0  0  0  0
 23 47  1  0  0  0  0
 23 48  1  0  0  0  0
 24 25  1  0  0  0  0
 25 26  1  0  0  0  0
 25 49  1  0  0  0  0
 25 50  1  0  0  0  0
 26 51  1  0  0  0  0
 26 52  1  0  0  0  0
M  END
> <s_m_source_file>
AV-unprocessed.smi

> <i_m_source_file_index>
253

> <i_lp_mmshare_version>
43012

> <i_f3d_flags>
0

> <s_epik_input>
W0NIM11bQ0gyXVtOSF1DKD1PKVtDSDJdTihbQ0gyXVtDSDNdKWMobltjSF1uMSljKGMxMiluW2NIXW4yW0NIMl1DMyhbT0hdKVtDSDJdW0NIMl1PW0NIMl1bQ0gyXTM=

> <s_epik_cmdline>
J2VwaWtfcHl0aG9uJywgJy1waCcsICc3LjAnLCAnLXRuJywgJzgnLCAnLW1hJywgJzIwMCcsICctbWV0YWxfYmluZGluZycsICctaW1hZScsICc8aW5maWxlLm1hZT4nLCAnLW9tYWUnLCAnPG91dGZpbGUubWFlPic=

> <r_lp_tautomer_probability>
1

> <r_epik_Ionization_Penalty>
0.000710585

> <r_epik_Ionization_Penalty_Charging>
0

> <r_epik_Ionization_Penalty_Neutral>
0.000710585

> <r_epik_State_Penalty>
0.000343566

> <r_epik_Charging_Adjusted_Penalty>
0.000343566

> <i_epik_Tot_Q>
0

> <i_epik_Tot_abs_Q>
0

> <r_epik_Metal_State_Penalty>
-0

> <b_epik_Metal_Only>
0

> <s_lp_Force_Field>
OPLS_2005

> <r_lp_Energy>
18.5015

> <b_lp_Chiralities_Consistent>
1

> <s_lp_Variant>
AV-unprocessed.smi:253-1

> <Gold.Version>
5.8.1

> <Gold.Id.Protein>
6NUR|6NUR_protein|mol2

> <Gold.PLP.Fitness>
45.5363

> <Gold.PLP.PLP>
-41.3590

> <Gold.PLP.part.hbond>
-2.3012

> <Gold.PLP.part.metal>
0.0000

> <Gold.PLP.part.buried>
-4.1442

> <Gold.PLP.part.nonpolar>
-37.2795

> <Gold.PLP.part.repulsive>
0.5689

> <Gold.PLP.ligand.clash>
0.0000

> <Gold.PLP.ligand.torsion>
2.2506

> <Gold.PLP.Chemscore.Hbond>
1.8080

> <Gold.PLP.Chemscore.CHOScore>
0.7607

> <Gold.PLP.Chemscore.Metal>
0.0000

> <Gold.Chemscore.Hbonds>
donor molecule, donor type, donor heavy atom, donor atom, acceptor molecule, acceptor atom, score
      L1  H    21    44       P1  7921  0.72
      P1  H  7989  7998       L1     5  0.91
      L1  C    17    41       P1 10171  0.56

> <Gold.PLP.Chemscore.Internal.Correction>
0.9724

> <Gold.Rescore>
     Score         DG    S(hbond)    S(metal)    S(lipo)     H(rot)  DE(clash)    DE(int)     intcor
      9.48     -12.48       1.72        0.00      76.74       3.01       1.20       1.80       ----

> <Gold.Chemscore.Fitness>
9.4800

> <Gold.Chemscore.DG>
-12.4823

> <Gold.Chemscore.ZeroCoef>
-5.4800

> <Gold.Chemscore.Hbond>
1.7172

> <Gold.Chemscore.Metal>
0.0000

> <Gold.Chemscore.Lipo>
76.7428

> <Gold.Chemscore.Internal_Hbond>
0.0000

> <Gold.Chemscore.DEClash>
1.1990

> <Gold.Chemscore.DEInternal>
1.8033

> <Gold.Chemscore.Rot>
3.0125

> <Gold.Chemscore.Internal.Correction>
   9.000000E+99

> <Gold.Chemscore.Hbonds>
donor molecule, donor type, donor heavy atom, donor atom, acceptor molecule, acceptor atom, score
      L1  H    21    44       P1  7921  0.72
      P1  H  7989  7998       L1     5  0.45

> <Gold.Chemscore.Hbond.Weighted>
-5.7354

> <Gold.Chemscore.Metal.Weighted>
-0.0000

> <Gold.Chemscore.Lipo.Weighted>
-8.9789

> <Gold.Chemscore.Internal_Hbond.Weighted>
0.0000

> <Gold.Chemscore.DEClash.Weighted>
1.1990

> <Gold.Chemscore.DEInternal.Weighted>
1.8033

> <Gold.Chemscore.Rot.Weighted>
7.7120

> <Gold.Chemscore.Internal.Correction.Weighted>
   9.000000E+99

> <Gold.Protein.RotatedTorsions>
[ 6907 6896 6895 6894 ] final  -17.56 input  -60.11 | X-H torsion
[ 7974 7965 7964 7962 ] final  -29.92 input  175.53 | X-H torsion
[ 8008 7997 7996 7995 ] final  177.72 input   59.86 | X-H torsion
[ 10167 10162 10161 10158 ] final  144.22 input  -65.29 | X-H torsion
[ 10718 10713 10712 10709 ] final  140.70 input   66.30 | X-H torsion
[ 10763 10752 10751 10750 ] final   41.17 input  -60.55 | X-H torsion
[ 11005 11000 10999 10996 ] final  154.09 input  -57.11 | X-H torsion

> <Gold.Protein.ActiveResidues>
 VAL166  LYS551  ARG553  GLY616  TRP617  ASP618  TYR619  PRO620  LYS621  CYS622 
 ASP623  PHE694  ASN695  SER759  ASP760  ASP761  ALA762  ILE779  LEU786  VAL792 
 PHE793  MET794  SER795  GLU796  ALA797  LYS798  CYS799  TRP800  GLU811  SER814 

> <Gold.Protein.RotatedAtoms>
  151.2915  135.0743  159.9205 H   0  0  0  0  0  0  0  0  0  0  0  0  # atno 6907 bound_to 6896
  152.5315  133.9926  159.7868 H   0  0  0  0  0  0  0  0  0  0  0  0  # atno 6908 bound_to 6896
  151.0197  133.5837  159.2703 H   0  0  0  0  0  0  0  0  0  0  0  0  # atno 6909 bound_to 6896
  146.1181  140.5474  142.8747 H   0  0  0  0  0  0  0  0  0  0  0  0  # atno 7974 bound_to 7965
  156.0626  140.1351  156.9923 H   0  0  0  0  0  0  0  0  0  0  0  0  # atno 8008 bound_to 7997
  154.4489  140.0988  156.6610 H   0  0  0  0  0  0  0  0  0  0  0  0  # atno 8009 bound_to 7997
  155.5354  140.3459  155.4437 H   0  0  0  0  0  0  0  0  0  0  0  0  # atno 8010 bound_to 7997
  139.4952  144.5987  151.6528 H   0  0  0  0  0  0  0  0  0  0  0  0  # atno 10167 bound_to 10162
  157.4004  131.1016  151.0558 H   0  0  0  0  0  0  0  0  0  0  0  0  # atno 10718 bound_to 10713
  152.9915  135.6170  154.2744 H   0  0  0  0  0  0  0  0  0  0  0  0  # atno 10763 bound_to 10752
  154.2476  135.2786  155.2831 H   0  0  0  0  0  0  0  0  0  0  0  0  # atno 10764 bound_to 10752
  154.5316  135.5786  153.6821 H   0  0  0  0  0  0  0  0  0  0  0  0  # atno 10765 bound_to 10752
  140.1458  134.8708  157.2390 H   0  0  0  0  0  0  0  0  0  0  0  0  # atno 11005 bound_to 11000
  144.7572  140.5335  143.6761 LP  0  0  0  0  0  0  0  0  0  0  0  0  # atno 17320 bound_to 7965
  145.5523  139.1477  143.3387 LP  0  0  0  0  0  0  0  0  0  0  0  0  # atno 17321 bound_to 7965
  140.5631  144.0235  150.6179 LP  0  0  0  0  0  0  0  0  0  0  0  0  # atno 17342 bound_to 10162
  140.3328  143.3067  152.0670 LP  0  0  0  0  0  0  0  0  0  0  0  0  # atno 17343 bound_to 10162
  157.1559  130.6204  149.5596 LP  0  0  0  0  0  0  0  0  0  0  0  0  # atno 17370 bound_to 10713
  155.9821  130.4833  150.6866 LP  0  0  0  0  0  0  0  0  0  0  0  0  # atno 17371 bound_to 10713
  140.2666  134.3509  155.7388 LP  0  0  0  0  0  0  0  0  0  0  0  0  # atno 17394 bound_to 11000
  141.2192  133.7399  156.9160 LP  0  0  0  0  0  0  0  0  0  0  0  0  # atno 17395 bound_to 11000

$$$$
