AV-unprocessed.smi:2098|AV-procd|sdf|8565|dock6
  -GOLD-   2272011293D 1   1.00000     0.00000
 Structure written by MMmdl.
 36 38  0  0  0  0  0  0  0  0  1 V2000
  150.2057  140.6293  153.7376 O   0  0  0  0  0  0  0  0  0  0  0  0
  149.3741  140.7532  154.8750 C   0  0  2  0  0  0  0  0  0  0  0  0
  147.9223  140.9199  154.3990 C   0  0  0  0  0  0  0  0  0  0  0  0
  147.0625  140.9260  155.5311 O   0  0  0  0  0  0  0  0  0  0  0  0
  145.9118  141.6830  155.4725 C   0  0  0  0  0  0  0  0  0  0  0  0
  145.0447  141.6154  156.5829 C   0  0  0  0  0  0  0  0  0  0  0  0
  143.8451  142.3529  156.6072 C   0  0  0  0  0  0  0  0  0  0  0  0
  143.4994  143.1693  155.5149 C   0  0  0  0  0  0  0  0  0  0  0  0
  142.3454  143.8773  155.5353 F   0  0  0  0  0  0  0  0  0  0  0  0
  144.3559  143.2485  154.4013 C   0  0  0  0  0  0  0  0  0  0  0  0
  145.5562  142.5115  154.3775 C   0  0  0  0  0  0  0  0  0  0  0  0
  149.8430  141.9596  155.7116 C   0  0  0  0  0  0  0  0  0  0  0  0
  150.6987  141.5742  156.8201 N   0  0  0  0  0  0  0  0  0  0  0  0
  151.2008  140.3490  157.0668 C   0  0  0  0  0  0  0  0  0  0  0  0
  151.9636  140.2084  158.1472 N   0  0  0  0  0  0  0  0  0  0  0  0
  151.9556  141.4930  158.6632 C   0  0  0  0  0  0  0  0  0  0  0  0
  152.5792  142.0216  159.8164 C   0  0  0  0  0  0  0  0  0  0  0  0
  152.4282  143.3839  160.1496 C   0  0  0  0  0  0  0  0  0  0  0  0
  151.6537  144.2369  159.3368 C   0  0  0  0  0  0  0  0  0  0  0  0
  151.0223  143.7331  158.1833 C   0  0  0  0  0  0  0  0  0  0  0  0
  151.1738  142.3729  157.8552 C   0  0  0  0  0  0  0  0  0  0  0  0
  149.6556  140.5570  152.9723 H   0  0  0  0  0  0  0  0  0  0  0  0
  149.4621  139.8483  155.4778 H   0  0  0  0  0  0  0  0  0  0  0  0
  147.8169  141.8774  153.8856 H   0  0  0  0  0  0  0  0  0  0  0  0
  147.6569  140.1313  153.6925 H   0  0  0  0  0  0  0  0  0  0  0  0
  145.3017  140.9905  157.4257 H   0  0  0  0  0  0  0  0  0  0  0  0
  143.1905  142.2909  157.4640 H   0  0  0  0  0  0  0  0  0  0  0  0
  144.0923  143.8754  153.5623 H   0  0  0  0  0  0  0  0  0  0  0  0
  146.1866  142.5997  153.5059 H   0  0  0  0  0  0  0  0  0  0  0  0
  150.3802  142.6728  155.0851 H   0  0  0  0  0  0  0  0  0  0  0  0
  148.9823  142.4919  156.1183 H   0  0  0  0  0  0  0  0  0  0  0  0
  150.9937  139.5123  156.4156 H   0  0  0  0  0  0  0  0  0  0  0  0
  153.1749  141.3775  160.4459 H   0  0  0  0  0  0  0  0  0  0  0  0
  152.9093  143.7766  161.0334 H   0  0  0  0  0  0  0  0  0  0  0  0
  151.5445  145.2789  159.5995 H   0  0  0  0  0  0  0  0  0  0  0  0
  150.4305  144.3842  157.5576 H   0  0  0  0  0  0  0  0  0  0  0  0
  1  2  1  0  0  0  0
  1 22  1  0  0  0  0
  2  3  1  0  0  0  0
  2 12  1  0  0  0  0
  2 23  1  0  0  0  0
  3  4  1  0  0  0  0
  3 24  1  0  0  0  0
  3 25  1  0  0  0  0
  4  5  1  0  0  0  0
  5 11  1  0  0  0  0
  5  6  2  0  0  0  0
  6  7  1  0  0  0  0
  6 26  1  0  0  0  0
  7  8  2  0  0  0  0
  7 27  1  0  0  0  0
  8  9  1  0  0  0  0
  8 10  1  0  0  0  0
 10 11  2  0  0  0  0
 10 28  1  0  0  0  0
 11 29  1  0  0  0  0
 12 13  1  0  0  0  0
 12 30  1  0  0  0  0
 12 31  1  0  0  0  0
 13 21  1  0  0  0  0
 13 14  1  0  0  0  0
 14 15  2  0  0  0  0
 14 32  1  0  0  0  0
 15 16  1  0  0  0  0
 16 21  2  0  0  0  0
 16 17  1  0  0  0  0
 17 18  2  0  0  0  0
 17 33  1  0  0  0  0
 18 19  1  0  0  0  0
 18 34  1  0  0  0  0
 19 20  2  0  0  0  0
 19 35  1  0  0  0  0
 20 21  1  0  0  0  0
 20 36  1  0  0  0  0
M  END
> <s_m_source_file>
AV-unprocessed.smi

> <i_m_source_file_index>
2098

> <i_lp_mmshare_version>
43012

> <i_f3d_flags>
0

> <s_epik_input>
W2NIXTFbY0hdW2NIXVtjSF1jKGMxMiluKFtjSF1uMilbQ0gyXVtDQEhdKFtPSF0pW0NIMl1PYzNbY0hdW2NIXWMoRilbY0hdW2NIXTM=

> <s_epik_cmdline>
J2VwaWtfcHl0aG9uJywgJy1waCcsICc3LjAnLCAnLXRuJywgJzgnLCAnLW1hJywgJzIwMCcsICctbWV0YWxfYmluZGluZycsICctaW1hZScsICc8aW5maWxlLm1hZT4nLCAnLW9tYWUnLCAnPG91dGZpbGUubWFlPic=

> <r_lp_tautomer_probability>
1

> <r_epik_Ionization_Penalty>
0.0603575

> <r_epik_Ionization_Penalty_Charging>
0

> <r_epik_Ionization_Penalty_Neutral>
0.0603575

> <r_epik_State_Penalty>
0.0523204

> <r_epik_Charging_Adjusted_Penalty>
0.0523204

> <i_epik_Tot_Q>
0

> <i_epik_Tot_abs_Q>
0

> <r_epik_Metal_State_Penalty>
5.46976e-05

> <b_epik_Metal_Only>
0

> <s_lp_Force_Field>
OPLS_2005

> <r_lp_Energy>
15.3662

> <b_lp_Chiralities_Consistent>
1

> <s_lp_Variant>
AV-unprocessed.smi:2098-1

> <Gold.Version>
5.8.1

> <Gold.Id.Protein>
6NUR|6NUR_protein|mol2

> <Gold.PLP.Fitness>
55.1306

> <Gold.PLP.PLP>
-50.7617

> <Gold.PLP.part.hbond>
-2.0000

> <Gold.PLP.part.metal>
0.0000

> <Gold.PLP.part.buried>
-7.0241

> <Gold.PLP.part.nonpolar>
-42.6525

> <Gold.PLP.part.repulsive>
0.0930

> <Gold.PLP.ligand.clash>
0.0000

> <Gold.PLP.ligand.torsion>
0.8118

> <Gold.PLP.Chemscore.Hbond>
1.9760

> <Gold.PLP.Chemscore.CHOScore>
0.0000

> <Gold.PLP.Chemscore.Metal>
0.0000

> <Gold.Chemscore.Hbonds>
donor molecule, donor type, donor heavy atom, donor atom, acceptor molecule, acceptor atom, score
      L1  H     1    22       P1  7957  0.88
      P1  H  7989  7998       L1     1  0.46

> <Gold.PLP.Chemscore.Internal.Correction>
0.0644

> <Gold.Rescore>
     Score         DG    S(hbond)    S(metal)    S(lipo)     H(rot)  DE(clash)    DE(int)     intcor
     18.37     -19.30       1.93        0.00     114.92       2.37       0.03       0.90       ----

> <Gold.Chemscore.Fitness>
18.3662

> <Gold.Chemscore.DG>
-19.3028

> <Gold.Chemscore.ZeroCoef>
-5.4800

> <Gold.Chemscore.Hbond>
1.9322

> <Gold.Chemscore.Metal>
0.0000

> <Gold.Chemscore.Lipo>
114.9190

> <Gold.Chemscore.Internal_Hbond>
0.0000

> <Gold.Chemscore.DEClash>
0.0344

> <Gold.Chemscore.DEInternal>
0.9022

> <Gold.Chemscore.Rot>
2.3735

> <Gold.Chemscore.Internal.Correction>
   9.000000E+99

> <Gold.Chemscore.Hbonds>
donor molecule, donor type, donor heavy atom, donor atom, acceptor molecule, acceptor atom, score
      L1  H     1    22       P1  7957  0.86
      P1  H  7989  7998       L1     1  0.40

> <Gold.Chemscore.Hbond.Weighted>
-6.4535

> <Gold.Chemscore.Metal.Weighted>
-0.0000

> <Gold.Chemscore.Lipo.Weighted>
-13.4455

> <Gold.Chemscore.Internal_Hbond.Weighted>
0.0000

> <Gold.Chemscore.DEClash.Weighted>
0.0344

> <Gold.Chemscore.DEInternal.Weighted>
0.9022

> <Gold.Chemscore.Rot.Weighted>
6.0762

> <Gold.Chemscore.Internal.Correction.Weighted>
   9.000000E+99

> <Gold.Protein.RotatedTorsions>
[ 6907 6896 6895 6894 ] final  -79.10 input  -60.11 | X-H torsion
[ 7974 7965 7964 7962 ] final   45.03 input  175.53 | X-H torsion
[ 8008 7997 7996 7995 ] final   45.71 input   59.86 | X-H torsion
[ 10167 10162 10161 10158 ] final    6.97 input  -65.29 | X-H torsion
[ 10718 10713 10712 10709 ] final   10.29 input   66.30 | X-H torsion
[ 10763 10752 10751 10750 ] final -160.42 input  -60.55 | X-H torsion
[ 11005 11000 10999 10996 ] final   30.83 input  -57.11 | X-H torsion

> <Gold.Protein.ActiveResidues>
 VAL166  LYS551  ARG553  GLY616  TRP617  ASP618  TYR619  PRO620  LYS621  CYS622 
 ASP623  PHE694  ASN695  SER759  ASP760  ASP761  ALA762  ILE779  LEU786  VAL792 
 PHE793  MET794  SER795  GLU796  ALA797  LYS798  CYS799  TRP800  GLU811  SER814 

> <Gold.Protein.RotatedAtoms>
  150.6957  134.4172  159.5188 H   0  0  0  0  0  0  0  0  0  0  0  0  # atno 6907 bound_to 6896
  152.1921  134.8660  160.0525 H   0  0  0  0  0  0  0  0  0  0  0  0  # atno 6908 bound_to 6896
  151.9612  133.3661  159.4073 H   0  0  0  0  0  0  0  0  0  0  0  0  # atno 6909 bound_to 6896
  146.0516  139.5009  142.9715 H   0  0  0  0  0  0  0  0  0  0  0  0  # atno 7974 bound_to 7965
  155.3403  140.3408  155.4239 H   0  0  0  0  0  0  0  0  0  0  0  0  # atno 8008 bound_to 7997
  156.1816  140.1666  156.8299 H   0  0  0  0  0  0  0  0  0  0  0  0  # atno 8009 bound_to 7997
  154.5340  140.0739  156.8378 H   0  0  0  0  0  0  0  0  0  0  0  0  # atno 8010 bound_to 7997
  140.6398  143.7801  150.7411 H   0  0  0  0  0  0  0  0  0  0  0  0  # atno 10167 bound_to 10162
  156.9789  130.5998  149.5675 H   0  0  0  0  0  0  0  0  0  0  0  0  # atno 10718 bound_to 10713
  154.7392  135.3064  154.8758 H   0  0  0  0  0  0  0  0  0  0  0  0  # atno 10763 bound_to 10752
  153.9578  135.6756  153.4749 H   0  0  0  0  0  0  0  0  0  0  0  0  # atno 10764 bound_to 10752
  153.0992  135.4920  154.8759 H   0  0  0  0  0  0  0  0  0  0  0  0  # atno 10765 bound_to 10752
  140.2903  134.2872  155.7778 H   0  0  0  0  0  0  0  0  0  0  0  0  # atno 11005 bound_to 11000
  145.6715  141.0215  143.1655 LP  0  0  0  0  0  0  0  0  0  0  0  0  # atno 17320 bound_to 7965
  144.7125  139.8316  143.7409 LP  0  0  0  0  0  0  0  0  0  0  0  0  # atno 17321 bound_to 7965
  140.1430  143.4424  152.2181 LP  0  0  0  0  0  0  0  0  0  0  0  0  # atno 17342 bound_to 10162
  139.5607  144.7404  151.4163 LP  0  0  0  0  0  0  0  0  0  0  0  0  # atno 17343 bound_to 10162
  156.0252  130.5346  150.8388 LP  0  0  0  0  0  0  0  0  0  0  0  0  # atno 17370 bound_to 10713
  157.5540  131.0944  150.9655 LP  0  0  0  0  0  0  0  0  0  0  0  0  # atno 17371 bound_to 10713
  141.2147  133.7581  156.9614 LP  0  0  0  0  0  0  0  0  0  0  0  0  # atno 17394 bound_to 11000
  140.1202  134.9422  157.2192 LP  0  0  0  0  0  0  0  0  0  0  0  0  # atno 17395 bound_to 11000

$$$$
