AV-unprocessed.smi:2078|AV-procd|sdf|8465|dock6
  -GOLD-   2272011163D 1   1.00000     0.00000
 Structure written by MMmdl.
 42 43  0  0  0  0  0  0  0  0  2 V2000
  153.1279  141.9057  160.7290 C   0  0  0  0  0  0  0  0  0  0  0  0
  152.3721  142.4644  159.5727 C   0  0  0  0  0  0  0  0  0  0  0  0
  151.5295  141.9056  158.6530 C   0  0  0  0  0  0  0  0  0  0  0  0
  151.1633  143.0125  157.8418 C   0  0  0  0  0  0  0  0  0  0  0  0
  150.2706  142.8543  156.7509 N   0  0  0  0  0  0  0  0  0  0  0  0
  150.0365  141.7349  156.0449 C   0  0  0  0  0  0  0  0  0  0  0  0
  150.5445  140.6353  156.2673 O   0  0  0  0  0  0  0  0  0  0  0  0
  149.1702  141.9553  155.0452 N   0  0  0  0  0  0  0  0  0  0  0  0
  148.7194  140.9377  154.1027 C   0  0  0  0  0  0  0  0  0  0  0  0
  147.2087  141.0563  153.8188 C   0  0  0  0  0  0  0  0  0  0  0  0
  146.6981  139.9250  153.0052 N   0  3  1  0  0  0  0  0  0  0  0  0
  147.3209  139.8739  151.6574 C   0  0  0  0  0  0  0  0  0  0  0  0
  146.6647  138.7925  150.7844 C   0  0  0  0  0  0  0  0  0  0  0  0
  146.7185  137.4199  151.4708 C   0  0  0  0  0  0  0  0  0  0  0  0
  146.1332  137.4823  152.8938 C   0  0  2  0  0  0  0  0  0  0  0  0
  144.5980  137.5869  152.9053 C   0  0  0  0  0  0  0  0  0  0  0  0
  146.8001  138.6138  153.7026 C   0  0  0  0  0  0  0  0  0  0  0  0
  151.7329  144.1433  158.2293 N   0  0  0  0  0  0  0  0  0  0  0  0
  152.5110  143.7978  159.3403 O   0  0  0  0  0  0  0  0  0  0  0  0
  152.9552  140.8339  160.8271 H   0  0  0  0  0  0  0  0  0  0  0  0
  152.8192  142.3840  161.6587 H   0  0  0  0  0  0  0  0  0  0  0  0
  154.1989  142.0661  160.6049 H   0  0  0  0  0  0  0  0  0  0  0  0
  151.2243  140.8726  158.5780 H   0  0  0  0  0  0  0  0  0  0  0  0
  149.7748  143.6863  156.4666 H   0  0  0  0  0  0  0  0  0  0  0  0
  148.7939  142.8858  154.9330 H   0  0  0  0  0  0  0  0  0  0  0  0
  149.3087  141.0166  153.1888 H   0  0  0  0  0  0  0  0  0  0  0  0
  148.9402  139.9588  154.5289 H   0  0  0  0  0  0  0  0  0  0  0  0
  146.6893  141.0774  154.7780 H   0  0  0  0  0  0  0  0  0  0  0  0
  146.9688  141.9972  153.3211 H   0  0  0  0  0  0  0  0  0  0  0  0
  147.2159  140.8405  151.1631 H   0  0  0  0  0  0  0  0  0  0  0  0
  148.3907  139.6828  151.7564 H   0  0  0  0  0  0  0  0  0  0  0  0
  145.6297  139.0655  150.5768 H   0  0  0  0  0  0  0  0  0  0  0  0
  147.1668  138.7422  149.8178 H   0  0  0  0  0  0  0  0  0  0  0  0
  146.1936  136.6746  150.8723 H   0  0  0  0  0  0  0  0  0  0  0  0
  147.7571  137.0907  151.5251 H   0  0  0  0  0  0  0  0  0  0  0  0
  146.3791  136.5405  153.3865 H   0  0  0  0  0  0  0  0  0  0  0  0
  144.2487  138.5129  152.4489 H   0  0  0  0  0  0  0  0  0  0  0  0
  144.2128  137.5577  153.9250 H   0  0  0  0  0  0  0  0  0  0  0  0
  144.1449  136.7573  152.3616 H   0  0  0  0  0  0  0  0  0  0  0  0
  147.8537  138.3785  153.8630 H   0  0  0  0  0  0  0  0  0  0  0  0
  146.3451  138.6652  154.6912 H   0  0  0  0  0  0  0  0  0  0  0  0
  145.7156  140.1031  152.8534 H   0  0  0  0  0  0  0  0  0  0  0  0
  1  2  1  0  0  0  0
  1 20  1  0  0  0  0
  1 21  1  0  0  0  0
  1 22  1  0  0  0  0
  2 19  1  0  0  0  0
  2  3  2  0  0  0  0
  3  4  1  0  0  0  0
  3 23  1  0  0  0  0
  4  5  1  0  0  0  0
  4 18  2  0  0  0  0
  5  6  1  0  0  0  0
  5 24  1  0  0  0  0
  6  7  2  0  0  0  0
  6  8  1  0  0  0  0
  8  9  1  0  0  0  0
  8 25  1  0  0  0  0
  9 10  1  0  0  0  0
  9 26  1  0  0  0  0
  9 27  1  0  0  0  0
 10 11  1  0  0  0  0
 10 28  1  0  0  0  0
 10 29  1  0  0  0  0
 11 17  1  0  0  0  0
 11 12  1  0  0  0  0
 11 42  1  0  0  0  0
 12 13  1  0  0  0  0
 12 30  1  0  0  0  0
 12 31  1  0  0  0  0
 13 14  1  0  0  0  0
 13 32  1  0  0  0  0
 13 33  1  0  0  0  0
 14 15  1  0  0  0  0
 14 34  1  0  0  0  0
 14 35  1  0  0  0  0
 15 16  1  0  0  0  0
 15 17  1  0  0  0  0
 15 36  1  0  0  0  0
 16 37  1  0  0  0  0
 16 38  1  0  0  0  0
 16 39  1  0  0  0  0
 17 40  1  0  0  0  0
 17 41  1  0  0  0  0
 18 19  1  0  0  0  0
M  CHG  1  11   1
M  END
> <s_m_source_file>
AV-unprocessed.smi

> <i_m_source_file_index>
2078

> <i_lp_mmshare_version>
43012

> <i_f3d_flags>
0

> <s_epik_input>
W0NIM11jMVtjSF1jKG5vMSlbTkhdQyg9TylbTkhdW0NIMl1bQ0gyXU4yW0NIMl1bQ0gyXVtDSDJdW0NAQEhdKFtDSDNdKVtDSDJdMg==

> <s_epik_cmdline>
J2VwaWtfcHl0aG9uJywgJy1waCcsICc3LjAnLCAnLXRuJywgJzgnLCAnLW1hJywgJzIwMCcsICctbWV0YWxfYmluZGluZycsICctaW1hZScsICc8aW5maWxlLm1hZT4nLCAnLW9tYWUnLCAnPG91dGZpbGUubWFlPic=

> <r_epik_Ionization_Penalty>
0.00216453

> <r_epik_Ionization_Penalty_Charging>
0.00212879

> <r_epik_Ionization_Penalty_Neutral>
3.57418e-05

> <r_epik_State_Penalty>
0.00146033

> <r_epik_Charging_Adjusted_Penalty>
0.00358912

> <i_epik_Tot_Q>
1

> <i_epik_Tot_abs_Q>
1

> <r_epik_Metal_State_Penalty>
0.0215827

> <b_epik_Metal_Only>
0

> <s_lp_Force_Field>
OPLS_2005

> <r_lp_Energy>
15.3695

> <b_lp_Chiralities_Consistent>
1

> <s_lp_Variant>
AV-unprocessed.smi:2078-3

> <Gold.Version>
5.8.1

> <Gold.Id.Protein>
6NUR|6NUR_protein|mol2

> <Gold.PLP.Fitness>
43.0582

> <Gold.PLP.PLP>
-31.8752

> <Gold.PLP.part.hbond>
-3.0000

> <Gold.PLP.part.metal>
0.0000

> <Gold.PLP.part.buried>
5.3508

> <Gold.PLP.part.nonpolar>
-34.8133

> <Gold.PLP.part.repulsive>
0.3646

> <Gold.PLP.ligand.clash>
0.0000

> <Gold.PLP.ligand.torsion>
0.2846

> <Gold.PLP.Chemscore.Hbond>
3.9120

> <Gold.PLP.Chemscore.CHOScore>
0.0000

> <Gold.PLP.Chemscore.Metal>
0.0000

> <Gold.Chemscore.Hbonds>
donor molecule, donor type, donor heavy atom, donor atom, acceptor molecule, acceptor atom, score
      L1  H     5    24       P1  8028  1.00
      L1  H     8    25       P1  8028  0.88
      L1  H    11    42       P1 10175  1.66

> <Gold.PLP.Chemscore.Internal.Correction>
0.0162

> <Gold.Rescore>
     Score         DG    S(hbond)    S(metal)    S(lipo)     H(rot)  DE(clash)    DE(int)     intcor
     16.05     -21.21       2.89        0.00      86.31       1.57       3.79       1.37       ----

> <Gold.Chemscore.Fitness>
16.0468

> <Gold.Chemscore.DG>
-21.2129

> <Gold.Chemscore.ZeroCoef>
-5.4800

> <Gold.Chemscore.Hbond>
2.8902

> <Gold.Chemscore.Metal>
0.0000

> <Gold.Chemscore.Lipo>
86.3099

> <Gold.Chemscore.Internal_Hbond>
0.0000

> <Gold.Chemscore.DEClash>
3.7942

> <Gold.Chemscore.DEInternal>
1.3719

> <Gold.Chemscore.Rot>
1.5697

> <Gold.Chemscore.Internal.Correction>
   9.000000E+99

> <Gold.Chemscore.Hbonds>
donor molecule, donor type, donor heavy atom, donor atom, acceptor molecule, acceptor atom, score
      L1  H     5    24       P1  8028  0.97
      L1  H     8    25       P1  8028  0.85
      L1  H    11    42       P1 10175  0.80

> <Gold.Chemscore.Hbond.Weighted>
-9.6531

> <Gold.Chemscore.Metal.Weighted>
-0.0000

> <Gold.Chemscore.Lipo.Weighted>
-10.0983

> <Gold.Chemscore.Internal_Hbond.Weighted>
0.0000

> <Gold.Chemscore.DEClash.Weighted>
3.7942

> <Gold.Chemscore.DEInternal.Weighted>
1.3719

> <Gold.Chemscore.Rot.Weighted>
4.0185

> <Gold.Chemscore.Internal.Correction.Weighted>
   9.000000E+99

> <Gold.Protein.RotatedTorsions>
[ 6907 6896 6895 6894 ] final  111.44 input  -60.11 | X-H torsion
[ 7974 7965 7964 7962 ] final -174.96 input  175.53 | X-H torsion
[ 8008 7997 7996 7995 ] final -120.67 input   59.86 | X-H torsion
[ 10167 10162 10161 10158 ] final  -82.80 input  -65.29 | X-H torsion
[ 10718 10713 10712 10709 ] final  -29.94 input   66.30 | X-H torsion
[ 10763 10752 10751 10750 ] final  147.82 input  -60.55 | X-H torsion
[ 11005 11000 10999 10996 ] final  -55.62 input  -57.11 | X-H torsion

> <Gold.Protein.ActiveResidues>
 VAL166  LYS551  ARG553  GLY616  TRP617  ASP618  TYR619  PRO620  LYS621  CYS622 
 ASP623  PHE694  ASN695  SER759  ASP760  ASP761  ALA762  ILE779  LEU786  VAL792 
 PHE793  MET794  SER795  GLU796  ALA797  LYS798  CYS799  TRP800  GLU811  SER814 

> <Gold.Protein.RotatedAtoms>
  152.4969  133.8657  159.7272 H   0  0  0  0  0  0  0  0  0  0  0  0  # atno 6907 bound_to 6896
  150.9157  133.6933  159.2850 H   0  0  0  0  0  0  0  0  0  0  0  0  # atno 6908 bound_to 6896
  151.4327  135.1016  159.9699 H   0  0  0  0  0  0  0  0  0  0  0  0  # atno 6909 bound_to 6896
  144.7130  140.1392  143.6393 H   0  0  0  0  0  0  0  0  0  0  0  0  # atno 7974 bound_to 7965
  155.1355  140.0401  157.2785 H   0  0  0  0  0  0  0  0  0  0  0  0  # atno 8008 bound_to 7997
  154.6511  140.2569  155.7186 H   0  0  0  0  0  0  0  0  0  0  0  0  # atno 8009 bound_to 7997
  156.2577  140.2836  156.0945 H   0  0  0  0  0  0  0  0  0  0  0  0  # atno 8010 bound_to 7997
  140.4286  143.2557  151.8791 H   0  0  0  0  0  0  0  0  0  0  0  0  # atno 10167 bound_to 10162
  156.4061  130.4399  149.7286 H   0  0  0  0  0  0  0  0  0  0  0  0  # atno 10718 bound_to 10713
  154.0446  135.2887  155.3350 H   0  0  0  0  0  0  0  0  0  0  0  0  # atno 10763 bound_to 10752
  154.6907  135.5227  153.8392 H   0  0  0  0  0  0  0  0  0  0  0  0  # atno 10764 bound_to 10752
  153.0585  135.6605  154.0648 H   0  0  0  0  0  0  0  0  0  0  0  0  # atno 10765 bound_to 10752
  141.1082  133.6612  156.4496 H   0  0  0  0  0  0  0  0  0  0  0  0  # atno 11005 bound_to 11000
  145.9217  139.2550  143.1377 LP  0  0  0  0  0  0  0  0  0  0  0  0  # atno 17320 bound_to 7965
  145.9613  140.8833  143.0209 LP  0  0  0  0  0  0  0  0  0  0  0  0  # atno 17321 bound_to 7965
  139.4784  144.5360  151.8598 LP  0  0  0  0  0  0  0  0  0  0  0  0  # atno 17342 bound_to 10162
  140.4453  144.1930  150.5893 LP  0  0  0  0  0  0  0  0  0  0  0  0  # atno 17343 bound_to 10162
  156.4283  130.7803  151.2822 LP  0  0  0  0  0  0  0  0  0  0  0  0  # atno 17370 bound_to 10713
  157.7505  131.0162  150.3533 LP  0  0  0  0  0  0  0  0  0  0  0  0  # atno 17371 bound_to 10713
  140.4846  134.6633  157.5185 LP  0  0  0  0  0  0  0  0  0  0  0  0  # atno 17394 bound_to 11000
  139.9962  134.6907  155.9605 LP  0  0  0  0  0  0  0  0  0  0  0  0  # atno 17395 bound_to 11000

$$$$
