AV-unprocessed.smi:250|AV-procd|sdf|1932|dock2
  -GOLD-   2262021 53D 1   1.00000     0.00000
 Structure written by MMmdl.
 56 60  0  0  0  0  0  0  0  0  1 V2000
  155.1090  142.1199  163.5797 C   0  0  0  0  0  0  0  0  0  0  0  0
  154.9906  141.0095  162.6438 N   0  0  0  0  0  0  0  0  0  0  0  0
  155.5999  139.8073  162.7173 C   0  0  0  0  0  0  0  0  0  0  0  0
  156.3462  139.4213  163.6150 O   0  0  0  0  0  0  0  0  0  0  0  0
  155.2553  139.0917  161.6326 N   0  0  0  0  0  0  0  0  0  0  0  0
  154.1705  139.7433  160.9356 C   0  0  2  0  0  0  0  0  0  0  0  0
  154.0336  139.6603  159.4172 C   0  0  0  0  0  0  0  0  0  0  0  0
  152.8879  140.5019  159.0313 N   0  0  0  0  0  0  0  0  0  0  0  0
  152.4341  140.3041  157.7666 C   0  0  0  0  0  0  0  0  0  0  0  0
  153.1166  139.4786  156.9281 N   0  0  0  0  0  0  0  0  0  0  0  0
  152.6800  139.2652  155.6838 C   0  0  0  0  0  0  0  0  0  0  0  0
  151.6015  139.7675  155.0812 N   0  0  0  0  0  0  0  0  0  0  0  0
  150.9137  140.6017  155.9120 C   0  0  0  0  0  0  0  0  0  0  0  0
  151.2593  140.9268  157.2551 C   0  0  0  0  0  0  0  0  0  0  0  0
  150.3371  141.8296  157.7715 N   0  0  0  0  0  0  0  0  0  0  0  0
  149.4916  142.0178  156.7958 C   0  0  0  0  0  0  0  0  0  0  0  0
  149.7515  141.3056  155.6467 N   0  0  0  0  0  0  0  0  0  0  0  0
  148.9772  141.3286  154.4133 C   0  0  0  0  0  0  0  0  0  0  0  0
  147.4493  141.0818  154.5930 C   0  0  0  0  0  0  0  0  0  0  0  0
  146.7733  140.7629  153.2284 C   0  0  0  0  0  0  0  0  0  0  0  0
  147.4043  139.6918  152.5553 O   0  0  0  0  0  0  0  0  0  0  0  0
  147.2586  139.9204  155.6010 C   0  0  0  0  0  0  0  0  0  0  0  0
  145.8045  139.7745  156.0845 C   0  0  0  0  0  0  0  0  0  0  0  0
  145.3597  140.9975  156.6564 O   0  0  0  0  0  0  0  0  0  0  0  0
  145.3565  142.0721  155.7260 C   0  0  0  0  0  0  0  0  0  0  0  0
  146.7859  142.3356  155.2170 C   0  0  0  0  0  0  0  0  0  0  0  0
  152.8334  141.8811  159.5637 C   0  0  0  0  0  0  0  0  0  0  0  0
  153.1296  141.9632  161.0859 C   0  0  0  0  0  0  0  0  0  0  0  0
  154.4216  141.1807  161.3219 C   0  0  1  0  0  0  0  0  0  0  0  0
  153.2487  139.3719  161.3912 H   0  0  0  0  0  0  0  0  0  0  0  0
  155.2117  141.6146  160.7031 H   0  0  0  0  0  0  0  0  0  0  0  0
  155.6600  141.8406  164.4787 H   0  0  0  0  0  0  0  0  0  0  0  0
  154.1192  142.4601  163.8844 H   0  0  0  0  0  0  0  0  0  0  0  0
  155.6278  142.9551  163.1091 H   0  0  0  0  0  0  0  0  0  0  0  0
  155.5525  138.1450  161.4458 H   0  0  0  0  0  0  0  0  0  0  0  0
  154.9367  140.0207  158.9227 H   0  0  0  0  0  0  0  0  0  0  0  0
  153.8961  138.6219  159.1198 H   0  0  0  0  0  0  0  0  0  0  0  0
  153.2796  138.5946  155.0859 H   0  0  0  0  0  0  0  0  0  0  0  0
  148.6457  142.6832  156.8898 H   0  0  0  0  0  0  0  0  0  0  0  0
  149.1499  142.2904  153.9285 H   0  0  0  0  0  0  0  0  0  0  0  0
  149.4017  140.5837  153.7388 H   0  0  0  0  0  0  0  0  0  0  0  0
  145.7244  140.4986  153.3510 H   0  0  0  0  0  0  0  0  0  0  0  0
  146.7843  141.6352  152.5751 H   0  0  0  0  0  0  0  0  0  0  0  0
  148.2372  139.9933  152.2256 H   0  0  0  0  0  0  0  0  0  0  0  0
  147.6031  138.9776  155.1750 H   0  0  0  0  0  0  0  0  0  0  0  0
  147.8854  140.0953  156.4766 H   0  0  0  0  0  0  0  0  0  0  0  0
  145.1395  139.4698  155.2759 H   0  0  0  0  0  0  0  0  0  0  0  0
  145.7452  138.9954  156.8445 H   0  0  0  0  0  0  0  0  0  0  0  0
  144.6698  141.8592  154.9065 H   0  0  0  0  0  0  0  0  0  0  0  0
  144.9736  142.9615  156.2266 H   0  0  0  0  0  0  0  0  0  0  0  0
  147.3839  142.6792  156.0621 H   0  0  0  0  0  0  0  0  0  0  0  0
  146.7696  143.1592  154.5023 H   0  0  0  0  0  0  0  0  0  0  0  0
  153.5612  142.4907  159.0260 H   0  0  0  0  0  0  0  0  0  0  0  0
  151.8515  142.3128  159.3652 H   0  0  0  0  0  0  0  0  0  0  0  0
  153.2382  143.0029  161.3957 H   0  0  0  0  0  0  0  0  0  0  0  0
  152.3067  141.5397  161.6632 H   0  0  0  0  0  0  0  0  0  0  0  0
  1  2  1  0  0  0  0
  1 32  1  0  0  0  0
  1 33  1  0  0  0  0
  1 34  1  0  0  0  0
  2 29  1  0  0  0  0
  2  3  1  0  0  0  0
  3  4  2  0  0  0  0
  3  5  1  0  0  0  0
  5  6  1  0  0  0  0
  5 35  1  0  0  0  0
  6 30  1  0  0  0  0
  6 29  1  0  0  0  0
  6  7  1  0  0  0  0
  7  8  1  0  0  0  0
  7 36  1  0  0  0  0
  7 37  1  0  0  0  0
  8  9  1  0  0  0  0
  8 27  1  0  0  0  0
  9 14  1  0  0  0  0
  9 10  2  0  0  0  0
 10 11  1  0  0  0  0
 11 12  2  0  0  0  0
 11 38  1  0  0  0  0
 12 13  1  0  0  0  0
 13 17  1  0  0  0  0
 13 14  2  0  0  0  0
 14 15  1  0  0  0  0
 15 16  2  0  0  0  0
 16 17  1  0  0  0  0
 16 39  1  0  0  0  0
 17 18  1  0  0  0  0
 18 19  1  0  0  0  0
 18 40  1  0  0  0  0
 18 41  1  0  0  0  0
 19 26  1  0  0  0  0
 19 20  1  0  0  0  0
 19 22  1  0  0  0  0
 20 21  1  0  0  0  0
 20 42  1  0  0  0  0
 20 43  1  0  0  0  0
 21 44  1  0  0  0  0
 22 23  1  0  0  0  0
 22 45  1  0  0  0  0
 22 46  1  0  0  0  0
 23 24  1  0  0  0  0
 23 47  1  0  0  0  0
 23 48  1  0  0  0  0
 24 25  1  0  0  0  0
 25 26  1  0  0  0  0
 25 49  1  0  0  0  0
 25 50  1  0  0  0  0
 26 51  1  0  0  0  0
 26 52  1  0  0  0  0
 27 28  1  0  0  0  0
 27 53  1  0  0  0  0
 27 54  1  0  0  0  0
 28 29  1  0  0  0  0
 28 55  1  0  0  0  0
 28 56  1  0  0  0  0
 29 31  1  0  0  0  0
M  END
> <s_m_source_file>
AV-unprocessed.smi

> <i_m_source_file_index>
250

> <i_lp_mmshare_version>
43012

> <i_f3d_flags>
0

> <s_epik_input>
Tz1DKFtOSF0xKU4oW0NIM10pW0NASF0oW0NASF0xMilbQ0gyXVtDSDJdTihbQ0gyXTIpYyhuW2NIXW4zKWMoYzM0KW5bY0hdbjRbQ0gyXUM1KFtDSDJdW09IXSlbQ0gyXVtDSDJdT1tDSDJdW0NIMl01

> <s_epik_cmdline>
J2VwaWtfcHl0aG9uJywgJy1waCcsICc3LjAnLCAnLXRuJywgJzgnLCAnLW1hJywgJzIwMCcsICctbWV0YWxfYmluZGluZycsICctaW1hZScsICc8aW5maWxlLm1hZT4nLCAnLW9tYWUnLCAnPG91dGZpbGUubWFlPic=

> <r_lp_tautomer_probability>
1

> <r_epik_Ionization_Penalty>
0.00229024

> <r_epik_Ionization_Penalty_Charging>
0

> <r_epik_Ionization_Penalty_Neutral>
0.00229024

> <r_epik_State_Penalty>
0.0013961

> <r_epik_Charging_Adjusted_Penalty>
0.0013961

> <i_epik_Tot_Q>
0

> <i_epik_Tot_abs_Q>
0

> <r_epik_Metal_State_Penalty>
-0

> <b_epik_Metal_Only>
0

> <s_lp_Force_Field>
OPLS_2005

> <r_lp_Energy>
71.8921

> <b_lp_Chiralities_Consistent>
1

> <s_lp_Variant>
AV-unprocessed.smi:250-3

> <Gold.Version>
5.8.1

> <Gold.Id.Protein>
6NUR|6NUR_protein|mol2

> <Gold.PLP.Fitness>
53.2851

> <Gold.PLP.PLP>
-43.0910

> <Gold.PLP.part.hbond>
-2.8003

> <Gold.PLP.part.metal>
0.0000

> <Gold.PLP.part.buried>
4.1372

> <Gold.PLP.part.nonpolar>
-44.0185

> <Gold.PLP.part.repulsive>
0.1311

> <Gold.PLP.ligand.clash>
0.0000

> <Gold.PLP.ligand.torsion>
0.6098

> <Gold.PLP.Chemscore.Hbond>
3.0000

> <Gold.PLP.Chemscore.CHOScore>
0.6987

> <Gold.PLP.Chemscore.Metal>
0.0000

> <Gold.Chemscore.Hbonds>
donor molecule, donor type, donor heavy atom, donor atom, acceptor molecule, acceptor atom, score
      L1  H    21    44       P1  7957  1.00
      P1  H  7989  7998       L1    12  1.00
      P1  H  7997  8009       L1    10  0.83
      L1  C    16    39       P1  8028  0.69

> <Gold.PLP.Chemscore.Internal.Correction>
0.3176

> <Gold.Rescore>
     Score         DG    S(hbond)    S(metal)    S(lipo)     H(rot)  DE(clash)    DE(int)     intcor
     15.40     -17.05       2.22        0.00      84.14       2.22       0.94       0.72       ----

> <Gold.Chemscore.Fitness>
15.3995

> <Gold.Chemscore.DG>
-17.0516

> <Gold.Chemscore.ZeroCoef>
-5.4800

> <Gold.Chemscore.Hbond>
2.2165

> <Gold.Chemscore.Metal>
0.0000

> <Gold.Chemscore.Lipo>
84.1366

> <Gold.Chemscore.Internal_Hbond>
0.0000

> <Gold.Chemscore.DEClash>
0.9355

> <Gold.Chemscore.DEInternal>
0.7166

> <Gold.Chemscore.Rot>
2.2170

> <Gold.Chemscore.Internal.Correction>
   9.000000E+99

> <Gold.Chemscore.Hbonds>
donor molecule, donor type, donor heavy atom, donor atom, acceptor molecule, acceptor atom, score
      L1  H    21    44       P1  7957  0.99
      P1  H  7989  7998       L1    12  0.25
      P1  H  7997  8009       L1    10  0.24

> <Gold.Chemscore.Hbond.Weighted>
-7.4032

> <Gold.Chemscore.Metal.Weighted>
-0.0000

> <Gold.Chemscore.Lipo.Weighted>
-9.8440

> <Gold.Chemscore.Internal_Hbond.Weighted>
0.0000

> <Gold.Chemscore.DEClash.Weighted>
0.9355

> <Gold.Chemscore.DEInternal.Weighted>
0.7166

> <Gold.Chemscore.Rot.Weighted>
5.6756

> <Gold.Chemscore.Internal.Correction.Weighted>
   9.000000E+99

> <Gold.Protein.RotatedTorsions>
[ 6907 6896 6895 6894 ] final -165.95 input  -60.11 | X-H torsion
[ 7974 7965 7964 7962 ] final   85.04 input  175.53 | X-H torsion
[ 8008 7997 7996 7995 ] final  167.27 input   59.86 | X-H torsion
[ 10167 10162 10161 10158 ] final    5.79 input  -65.29 | X-H torsion
[ 10718 10713 10712 10709 ] final    0.95 input   66.30 | X-H torsion
[ 10763 10752 10751 10750 ] final -156.84 input  -60.55 | X-H torsion
[ 11005 11000 10999 10996 ] final  -52.00 input  -57.11 | X-H torsion

> <Gold.Protein.ActiveResidues>
 VAL166  LYS551  ARG553  GLY616  TRP617  ASP618  TYR619  PRO620  LYS621  CYS622 
 ASP623  PHE694  ASN695  SER759  ASP760  ASP761  ALA762  ILE779  LEU786  VAL792 
 PHE793  MET794  SER795  GLU796  ALA797  LYS798  CYS799  TRP800  GLU811  SER814 

> <Gold.Protein.RotatedAtoms>
  151.4358  133.3657  159.2774 H   0  0  0  0  0  0  0  0  0  0  0  0  # atno 6907 bound_to 6896
  150.9192  134.8611  159.7488 H   0  0  0  0  0  0  0  0  0  0  0  0  # atno 6908 bound_to 6896
  152.4973  134.4295  159.9559 H   0  0  0  0  0  0  0  0  0  0  0  0  # atno 6909 bound_to 6896
  145.5908  139.2338  143.2300 H   0  0  0  0  0  0  0  0  0  0  0  0  # atno 7974 bound_to 7965
  156.1648  140.1621  156.8551 H   0  0  0  0  0  0  0  0  0  0  0  0  # atno 8008 bound_to 7997
  154.5196  140.0781  156.8182 H   0  0  0  0  0  0  0  0  0  0  0  0  # atno 8009 bound_to 7997
  155.3634  140.3396  155.4243 H   0  0  0  0  0  0  0  0  0  0  0  0  # atno 8010 bound_to 7997
  140.6463  143.7654  150.7504 H   0  0  0  0  0  0  0  0  0  0  0  0  # atno 10167 bound_to 10162
  156.8410  130.5521  149.5677 H   0  0  0  0  0  0  0  0  0  0  0  0  # atno 10718 bound_to 10713
  154.7682  135.3137  154.8243 H   0  0  0  0  0  0  0  0  0  0  0  0  # atno 10763 bound_to 10752
  153.8986  135.6818  153.4760 H   0  0  0  0  0  0  0  0  0  0  0  0  # atno 10764 bound_to 10752
  153.1291  135.4788  154.9254 H   0  0  0  0  0  0  0  0  0  0  0  0  # atno 10765 bound_to 10752
  141.0901  133.6634  156.3960 H   0  0  0  0  0  0  0  0  0  0  0  0  # atno 11005 bound_to 11000
  146.1648  140.6734  142.9260 LP  0  0  0  0  0  0  0  0  0  0  0  0  # atno 17320 bound_to 7965
  144.7352  140.4788  143.6909 LP  0  0  0  0  0  0  0  0  0  0  0  0  # atno 17321 bound_to 7965
  140.1295  143.4538  152.2263 LP  0  0  0  0  0  0  0  0  0  0  0  0  # atno 17342 bound_to 10162
  139.5674  144.7443  151.3985 LP  0  0  0  0  0  0  0  0  0  0  0  0  # atno 17343 bound_to 10162
  156.0880  130.5874  150.9683 LP  0  0  0  0  0  0  0  0  0  0  0  0  # atno 17370 bound_to 10713
  157.6355  131.0916  150.8356 LP  0  0  0  0  0  0  0  0  0  0  0  0  # atno 17371 bound_to 10713
  140.5271  134.6248  157.5338 LP  0  0  0  0  0  0  0  0  0  0  0  0  # atno 17394 bound_to 11000
  139.9726  134.7268  156.0012 LP  0  0  0  0  0  0  0  0  0  0  0  0  # atno 17395 bound_to 11000

$$$$
