AV-unprocessed.smi:1198|AV-procd|sdf|5013|dock9
  -GOLD-   22720 4 33D 1   1.00000     0.00000
 Structure written by MMmdl.
 40 41  0  0  0  0  0  0  0  0  2 V2000
  150.4514  141.9853  157.8652 C   0  0  0  0  0  0  0  0  0  0  0  0
  151.0173  141.4373  156.6793 O   0  0  0  0  0  0  0  0  0  0  0  0
  150.3284  140.4346  156.0280 C   0  0  0  0  0  0  0  0  0  0  0  0
  149.2839  139.7796  156.7100 C   0  0  0  0  0  0  0  0  0  0  0  0
  148.5805  138.7546  156.0494 C   0  0  0  0  0  0  0  0  0  0  0  0
  148.9447  138.4072  154.7327 C   0  0  0  0  0  0  0  0  0  0  0  0
  148.2062  137.3799  154.0846 N   0  0  0  0  0  0  0  0  0  0  0  0
  147.0102  136.8687  154.4242 C   0  0  0  0  0  0  0  0  0  0  0  0
  146.3104  137.2553  155.3598 O   0  0  0  0  0  0  0  0  0  0  0  0
  146.6474  135.8828  153.5907 N   0  0  0  0  0  0  0  0  0  0  0  0
  145.4197  135.0991  153.6931 C   0  0  0  0  0  0  0  0  0  0  0  0
  144.6031  135.1141  152.3859 C   0  0  1  0  0  0  0  0  0  0  0  0
  145.4211  135.5123  151.1574 C   0  0  0  0  0  0  0  0  0  0  0  0
  144.6470  134.9277  149.9686 C   0  0  0  0  0  0  0  0  0  0  0  0
  143.7212  133.9125  150.5218 N   0  3  1  0  0  0  0  0  0  0  0  0
  143.6829  132.6397  149.7721 C   0  0  0  0  0  0  0  0  0  0  0  0
  144.0282  133.7619  151.9576 C   0  0  0  0  0  0  0  0  0  0  0  0
  149.9995  139.1346  154.1286 C   0  0  0  0  0  0  0  0  0  0  0  0
  150.6771  140.1187  154.7565 N   0  0  0  0  0  0  0  0  0  0  0  0
  151.1103  142.7607  158.2555 H   0  0  0  0  0  0  0  0  0  0  0  0
  150.3386  141.2266  158.6409 H   0  0  0  0  0  0  0  0  0  0  0  0
  149.4812  142.4442  157.6691 H   0  0  0  0  0  0  0  0  0  0  0  0
  149.0272  140.0590  157.7213 H   0  0  0  0  0  0  0  0  0  0  0  0
  147.7742  138.2408  156.5524 H   0  0  0  0  0  0  0  0  0  0  0  0
  148.6223  137.0169  153.2394 H   0  0  0  0  0  0  0  0  0  0  0  0
  147.2820  135.6354  152.8452 H   0  0  0  0  0  0  0  0  0  0  0  0
  145.7044  134.0737  153.9299 H   0  0  0  0  0  0  0  0  0  0  0  0
  144.8119  135.4449  154.5313 H   0  0  0  0  0  0  0  0  0  0  0  0
  143.7785  135.8217  152.4892 H   0  0  0  0  0  0  0  0  0  0  0  0
  145.5605  136.5908  151.0773 H   0  0  0  0  0  0  0  0  0  0  0  0
  146.4104  135.0545  151.2039 H   0  0  0  0  0  0  0  0  0  0  0  0
  144.0594  135.6974  149.4673 H   0  0  0  0  0  0  0  0  0  0  0  0
  145.3333  134.5044  149.2334 H   0  0  0  0  0  0  0  0  0  0  0  0
  144.6592  132.1528  149.7727 H   0  0  0  0  0  0  0  0  0  0  0  0
  143.3876  132.8163  148.7374 H   0  0  0  0  0  0  0  0  0  0  0  0
  142.9589  131.9573  150.2181 H   0  0  0  0  0  0  0  0  0  0  0  0
  144.7775  132.9796  152.0919 H   0  0  0  0  0  0  0  0  0  0  0  0
  143.1407  133.4813  152.5256 H   0  0  0  0  0  0  0  0  0  0  0  0
  150.3117  138.9549  153.1121 H   0  0  0  0  0  0  0  0  0  0  0  0
  142.7977  134.3184  150.4723 H   0  0  0  0  0  0  0  0  0  0  0  0
  1  2  1  0  0  0  0
  1 20  1  0  0  0  0
  1 21  1  0  0  0  0
  1 22  1  0  0  0  0
  2  3  1  0  0  0  0
  3 19  1  0  0  0  0
  3  4  2  0  0  0  0
  4  5  1  0  0  0  0
  4 23  1  0  0  0  0
  5  6  2  0  0  0  0
  5 24  1  0  0  0  0
  6  7  1  0  0  0  0
  6 18  1  0  0  0  0
  7  8  1  0  0  0  0
  7 25  1  0  0  0  0
  8  9  2  0  0  0  0
  8 10  1  0  0  0  0
 10 11  1  0  0  0  0
 10 26  1  0  0  0  0
 11 12  1  0  0  0  0
 11 27  1  0  0  0  0
 11 28  1  0  0  0  0
 12 17  1  0  0  0  0
 12 13  1  0  0  0  0
 12 29  1  0  0  0  0
 13 14  1  0  0  0  0
 13 30  1  0  0  0  0
 13 31  1  0  0  0  0
 14 15  1  0  0  0  0
 14 32  1  0  0  0  0
 14 33  1  0  0  0  0
 15 16  1  0  0  0  0
 15 17  1  0  0  0  0
 15 40  1  0  0  0  0
 16 34  1  0  0  0  0
 16 35  1  0  0  0  0
 16 36  1  0  0  0  0
 17 37  1  0  0  0  0
 17 38  1  0  0  0  0
 18 19  2  0  0  0  0
 18 39  1  0  0  0  0
M  CHG  1  15   1
M  END
> <s_m_source_file>
AV-unprocessed.smi

> <i_m_source_file_index>
1198

> <i_lp_mmshare_version>
43012

> <i_f3d_flags>
0

> <s_epik_input>
W0NIM11PYzFbY0hdW2NIXWMoW2NIXW4xKVtOSF1DKD1PKVtOSF1bQ0gyXVtDQEBIXTJbQ0gyXVtDSDJdTihbQ0gzXSlbQ0gyXTI=

> <s_epik_cmdline>
J2VwaWtfcHl0aG9uJywgJy1waCcsICc3LjAnLCAnLXRuJywgJzgnLCAnLW1hJywgJzIwMCcsICctbWV0YWxfYmluZGluZycsICctaW1hZScsICc8aW5maWxlLm1hZT4nLCAnLW9tYWUnLCAnPG91dGZpbGUubWFlPic=

> <r_lp_tautomer_probability>
1

> <r_epik_Ionization_Penalty>
0.00131396

> <r_epik_Ionization_Penalty_Charging>
0.0012301

> <r_epik_Ionization_Penalty_Neutral>
8.38549e-05

> <r_epik_State_Penalty>
0.00081314

> <r_epik_Charging_Adjusted_Penalty>
0.00204324

> <i_epik_Tot_Q>
1

> <i_epik_Tot_abs_Q>
1

> <r_epik_Metal_State_Penalty>
-0

> <b_epik_Metal_Only>
0

> <s_lp_Force_Field>
OPLS_2005

> <r_lp_Energy>
29.2509

> <b_lp_Chiralities_Consistent>
1

> <s_lp_Variant>
AV-unprocessed.smi:1198-4

> <Gold.Version>
5.8.1

> <Gold.Id.Protein>
6NUR|6NUR_protein|mol2

> <Gold.PLP.Fitness>
40.5939

> <Gold.PLP.PLP>
-24.6630

> <Gold.PLP.part.hbond>
-4.0000

> <Gold.PLP.part.metal>
0.0000

> <Gold.PLP.part.buried>
-1.3716

> <Gold.PLP.part.nonpolar>
-19.6851

> <Gold.PLP.part.repulsive>
0.1548

> <Gold.PLP.ligand.clash>
0.0001

> <Gold.PLP.ligand.torsion>
0.8657

> <Gold.PLP.Chemscore.Hbond>
4.8960

> <Gold.PLP.Chemscore.CHOScore>
0.9879

> <Gold.PLP.Chemscore.Metal>
0.0000

> <Gold.Chemscore.Hbonds>
donor molecule, donor type, donor heavy atom, donor atom, acceptor molecule, acceptor atom, score
      L1  H     7    25       P1  7948  1.00
      L1  H    10    26       P1  7948  0.90
      L1  H    15    40       P1 10186  1.98
      P1  H  7989  7998       L1    19  1.00
      L1  C    18    39       P1  7957  0.99

> <Gold.PLP.Chemscore.Internal.Correction>
0.0106

> <Gold.Rescore>
     Score         DG    S(hbond)    S(metal)    S(lipo)     H(rot)  DE(clash)    DE(int)     intcor
     14.78     -18.43       3.09        0.00      55.73       1.51       1.52       2.14       ----

> <Gold.Chemscore.Fitness>
14.7815

> <Gold.Chemscore.DG>
-18.4341

> <Gold.Chemscore.ZeroCoef>
-5.4800

> <Gold.Chemscore.Hbond>
3.0875

> <Gold.Chemscore.Metal>
0.0000

> <Gold.Chemscore.Lipo>
55.7266

> <Gold.Chemscore.Internal_Hbond>
0.0000

> <Gold.Chemscore.DEClash>
1.5151

> <Gold.Chemscore.DEInternal>
2.1376

> <Gold.Chemscore.Rot>
1.5149

> <Gold.Chemscore.Internal.Correction>
   9.000000E+99

> <Gold.Chemscore.Hbonds>
donor molecule, donor type, donor heavy atom, donor atom, acceptor molecule, acceptor atom, score
      L1  H     7    25       P1  7948  0.99
      L1  H    10    26       P1  7948  0.83
      L1  H    15    40       P1 10186  0.63
      P1  H  7989  7998       L1    19  0.50

> <Gold.Chemscore.Hbond.Weighted>
-10.3122

> <Gold.Chemscore.Metal.Weighted>
-0.0000

> <Gold.Chemscore.Lipo.Weighted>
-6.5200

> <Gold.Chemscore.Internal_Hbond.Weighted>
0.0000

> <Gold.Chemscore.DEClash.Weighted>
1.5151

> <Gold.Chemscore.DEInternal.Weighted>
2.1376

> <Gold.Chemscore.Rot.Weighted>
3.8781

> <Gold.Chemscore.Internal.Correction.Weighted>
   9.000000E+99

> <Gold.Protein.RotatedTorsions>
[ 6907 6896 6895 6894 ] final  -22.93 input  -60.11 | X-H torsion
[ 7974 7965 7964 7962 ] final  -13.07 input  175.53 | X-H torsion
[ 8008 7997 7996 7995 ] final   35.34 input   59.86 | X-H torsion
[ 10167 10162 10161 10158 ] final -107.38 input  -65.29 | X-H torsion
[ 10718 10713 10712 10709 ] final   96.26 input   66.30 | X-H torsion
[ 10763 10752 10751 10750 ] final  -38.63 input  -60.55 | X-H torsion
[ 11005 11000 10999 10996 ] final   48.67 input  -57.11 | X-H torsion

> <Gold.Protein.ActiveResidues>
 VAL166  LYS551  ARG553  GLY616  TRP617  ASP618  TYR619  PRO620  LYS621  CYS622 
 ASP623  PHE694  ASN695  SER759  ASP760  ASP761  ALA762  ILE779  LEU786  VAL792 
 PHE793  MET794  SER795  GLU796  ALA797  LYS798  CYS799  TRP800  GLU811  SER814 

> <Gold.Protein.RotatedAtoms>
  151.2114  135.0482  159.8912 H   0  0  0  0  0  0  0  0  0  0  0  0  # atno 6907 bound_to 6896
  152.5424  134.0741  159.8217 H   0  0  0  0  0  0  0  0  0  0  0  0  # atno 6908 bound_to 6896
  151.0895  133.5279  159.2647 H   0  0  0  0  0  0  0  0  0  0  0  0  # atno 6909 bound_to 6896
  146.2128  140.3149  142.8385 H   0  0  0  0  0  0  0  0  0  0  0  0  # atno 7974 bound_to 7965
  155.1695  140.3290  155.4395 H   0  0  0  0  0  0  0  0  0  0  0  0  # atno 8008 bound_to 7997
  156.2515  140.1946  156.6749 H   0  0  0  0  0  0  0  0  0  0  0  0  # atno 8009 bound_to 7997
  154.6348  140.0578  156.9761 H   0  0  0  0  0  0  0  0  0  0  0  0  # atno 8010 bound_to 7997
  140.1776  143.3993  152.1307 H   0  0  0  0  0  0  0  0  0  0  0  0  # atno 10167 bound_to 10162
  157.6929  131.0572  150.4463 H   0  0  0  0  0  0  0  0  0  0  0  0  # atno 10718 bound_to 10713
  153.9159  135.6787  153.4749 H   0  0  0  0  0  0  0  0  0  0  0  0  # atno 10763 bound_to 10752
  153.1054  135.4808  154.8938 H   0  0  0  0  0  0  0  0  0  0  0  0  # atno 10764 bound_to 10752
  154.7503  135.3183  154.8526 H   0  0  0  0  0  0  0  0  0  0  0  0  # atno 10765 bound_to 10752
  140.1171  134.4879  155.8629 H   0  0  0  0  0  0  0  0  0  0  0  0  # atno 11005 bound_to 11000
  144.8961  140.7585  143.5896 LP  0  0  0  0  0  0  0  0  0  0  0  0  # atno 17320 bound_to 7965
  145.3073  139.1830  143.4657 LP  0  0  0  0  0  0  0  0  0  0  0  0  # atno 17321 bound_to 7965
  139.5310  144.7159  151.5055 LP  0  0  0  0  0  0  0  0  0  0  0  0  # atno 17342 bound_to 10162
  140.6541  143.8635  150.6816 LP  0  0  0  0  0  0  0  0  0  0  0  0  # atno 17343 bound_to 10162
  156.4818  130.4075  149.6457 LP  0  0  0  0  0  0  0  0  0  0  0  0  # atno 17370 bound_to 10713
  156.3500  130.7427  151.2385 LP  0  0  0  0  0  0  0  0  0  0  0  0  # atno 17371 bound_to 10713
  141.2143  133.6747  156.6816 LP  0  0  0  0  0  0  0  0  0  0  0  0  # atno 17394 bound_to 11000
  140.3014  134.8160  157.4101 LP  0  0  0  0  0  0  0  0  0  0  0  0  # atno 17395 bound_to 11000

$$$$
