AV-unprocessed.smi:1477|AV-procd|sdf|5981|dock7
  -GOLD-   22720 6 73D 1   1.00000     0.00000
 Structure written by MMmdl.
 33 34  0  0  0  0  0  0  0  0  1 V2000
  154.5879  140.7213  162.1557 C   0  0  0  0  0  0  0  0  0  0  0  0
  153.6936  141.7993  161.7271 N   0  0  0  0  0  0  0  0  0  0  0  0
  153.2245  141.7742  160.4002 C   0  0  0  0  0  0  0  0  0  0  0  0
  152.4013  142.7152  159.9026 C   0  0  0  0  0  0  0  0  0  0  0  0
  151.9973  142.5873  158.5659 N   0  0  0  0  0  0  0  0  0  0  0  0
  151.4150  141.5434  157.9432 C   0  0  0  0  0  0  0  0  0  0  0  0
  151.1170  140.4739  158.4718 O   0  0  0  0  0  0  0  0  0  0  0  0
  151.1312  141.7348  156.4532 C   0  0  0  0  0  0  0  0  0  0  0  0
  149.7554  141.4940  156.1991 O   0  0  0  0  0  0  0  0  0  0  0  0
  149.5064  141.1446  154.8486 C   0  0  0  0  0  0  0  0  0  0  0  0
  148.0163  140.9679  154.6491 C   0  0  0  0  0  0  0  0  0  0  0  0
  147.4611  140.7025  153.2681 C   0  0  0  0  0  0  0  0  0  0  0  0
  147.1981  142.0247  153.9420 C   0  0  0  0  0  0  0  0  0  0  0  0
  151.9993  143.7809  160.8099 C   0  0  0  0  0  0  0  0  0  0  0  0
  152.4439  143.8099  162.0819 C   0  0  0  0  0  0  0  0  0  0  0  0
  153.3434  142.7803  162.6078 C   0  0  0  0  0  0  0  0  0  0  0  0
  153.7558  142.7971  163.7680 O   0  0  0  0  0  0  0  0  0  0  0  0
  154.8202  140.0212  161.3526 H   0  0  0  0  0  0  0  0  0  0  0  0
  154.1345  140.1491  162.9663 H   0  0  0  0  0  0  0  0  0  0  0  0
  155.5344  141.1276  162.5150 H   0  0  0  0  0  0  0  0  0  0  0  0
  153.5788  140.9402  159.8111 H   0  0  0  0  0  0  0  0  0  0  0  0
  152.1642  143.4020  157.9930 H   0  0  0  0  0  0  0  0  0  0  0  0
  151.4010  142.7525  156.1677 H   0  0  0  0  0  0  0  0  0  0  0  0
  151.7483  141.0486  155.8706 H   0  0  0  0  0  0  0  0  0  0  0  0
  149.8820  141.9172  154.1753 H   0  0  0  0  0  0  0  0  0  0  0  0
  150.0093  140.2088  154.6008 H   0  0  0  0  0  0  0  0  0  0  0  0
  147.5234  140.4394  155.4630 H   0  0  0  0  0  0  0  0  0  0  0  0
  148.1587  140.6960  152.4328 H   0  0  0  0  0  0  0  0  0  0  0  0
  146.6303  140.0045  153.1870 H   0  0  0  0  0  0  0  0  0  0  0  0
  146.1914  142.2096  154.3112 H   0  0  0  0  0  0  0  0  0  0  0  0
  147.7200  142.8979  153.5553 H   0  0  0  0  0  0  0  0  0  0  0  0
  151.3352  144.5711  160.5010 H   0  0  0  0  0  0  0  0  0  0  0  0
  152.1272  144.6112  162.7332 H   0  0  0  0  0  0  0  0  0  0  0  0
  1  2  1  0  0  0  0
  1 18  1  0  0  0  0
  1 19  1  0  0  0  0
  1 20  1  0  0  0  0
  2 16  1  0  0  0  0
  2  3  1  0  0  0  0
  3  4  2  0  0  0  0
  3 21  1  0  0  0  0
  4  5  1  0  0  0  0
  4 14  1  0  0  0  0
  5  6  1  0  0  0  0
  5 22  1  0  0  0  0
  6  7  2  0  0  0  0
  6  8  1  0  0  0  0
  8  9  1  0  0  0  0
  8 23  1  0  0  0  0
  8 24  1  0  0  0  0
  9 10  1  0  0  0  0
 10 11  1  0  0  0  0
 10 25  1  0  0  0  0
 10 26  1  0  0  0  0
 11 13  1  0  0  0  0
 11 12  1  0  0  0  0
 11 27  1  0  0  0  0
 12 13  1  0  0  0  0
 12 28  1  0  0  0  0
 12 29  1  0  0  0  0
 13 30  1  0  0  0  0
 13 31  1  0  0  0  0
 14 15  2  0  0  0  0
 14 32  1  0  0  0  0
 15 16  1  0  0  0  0
 15 33  1  0  0  0  0
 16 17  2  0  0  0  0
M  END
> <s_m_source_file>
AV-unprocessed.smi

> <i_m_source_file_index>
1477

> <i_lp_mmshare_version>
43012

> <i_f3d_flags>
0

> <s_epik_input>
Tz1jMVtjSF1bY0hdYyhbY0hdbjFbQ0gzXSlbTkhdQyg9TylbQ0gyXU9bQ0gyXVtDSF0yW0NIMl1bQ0gyXTI=

> <s_epik_cmdline>
J2VwaWtfcHl0aG9uJywgJy1waCcsICc3LjAnLCAnLXRuJywgJzgnLCAnLW1hJywgJzIwMCcsICctbWV0YWxfYmluZGluZycsICctaW1hZScsICc8aW5maWxlLm1hZT4nLCAnLW9tYWUnLCAnPG91dGZpbGUubWFlPic=

> <r_lp_tautomer_probability>
1

> <r_epik_Ionization_Penalty>
2.50647e-06

> <r_epik_Ionization_Penalty_Charging>
2.2009e-06

> <r_epik_Ionization_Penalty_Neutral>
3.05566e-07

> <r_epik_State_Penalty>
-0

> <r_epik_Charging_Adjusted_Penalty>
2.2009e-06

> <i_epik_Tot_Q>
0

> <i_epik_Tot_abs_Q>
0

> <r_epik_Metal_State_Penalty>
-0

> <b_epik_Metal_Only>
0

> <s_lp_Force_Field>
OPLS_2005

> <r_lp_Energy>
27.664

> <b_lp_Chiralities_Consistent>
1

> <s_lp_Variant>
AV-unprocessed.smi:1477-1

> <Gold.Version>
5.8.1

> <Gold.Id.Protein>
6NUR|6NUR_protein|mol2

> <Gold.PLP.Fitness>
42.4360

> <Gold.PLP.PLP>
-43.7885

> <Gold.PLP.part.hbond>
0.0000

> <Gold.PLP.part.metal>
0.0000

> <Gold.PLP.part.buried>
-6.6452

> <Gold.PLP.part.nonpolar>
-37.2428

> <Gold.PLP.part.repulsive>
0.2299

> <Gold.PLP.ligand.clash>
0.0000

> <Gold.PLP.ligand.torsion>
0.9567

> <Gold.PLP.Chemscore.Hbond>
0.0000

> <Gold.PLP.Chemscore.CHOScore>
0.0000

> <Gold.PLP.Chemscore.Metal>
0.0000

> <Gold.PLP.Chemscore.Internal.Correction>
0.5609

> <Gold.Rescore>
     Score         DG    S(hbond)    S(metal)    S(lipo)     H(rot)  DE(clash)    DE(int)     intcor
     10.97     -12.09       0.00        0.00      91.15       1.58       0.14       0.98       ----

> <Gold.Chemscore.Fitness>
10.9742

> <Gold.Chemscore.DG>
-12.0915

> <Gold.Chemscore.ZeroCoef>
-5.4800

> <Gold.Chemscore.Hbond>
0.0000

> <Gold.Chemscore.Metal>
0.0000

> <Gold.Chemscore.Lipo>
91.1548

> <Gold.Chemscore.Internal_Hbond>
0.0000

> <Gold.Chemscore.DEClash>
0.1417

> <Gold.Chemscore.DEInternal>
0.9756

> <Gold.Chemscore.Rot>
1.5834

> <Gold.Chemscore.Internal.Correction>
   9.000000E+99

> <Gold.Chemscore.Hbond.Weighted>
-0.0000

> <Gold.Chemscore.Metal.Weighted>
-0.0000

> <Gold.Chemscore.Lipo.Weighted>
-10.6651

> <Gold.Chemscore.Internal_Hbond.Weighted>
0.0000

> <Gold.Chemscore.DEClash.Weighted>
0.1417

> <Gold.Chemscore.DEInternal.Weighted>
0.9756

> <Gold.Chemscore.Rot.Weighted>
4.0536

> <Gold.Chemscore.Internal.Correction.Weighted>
   9.000000E+99

> <Gold.Protein.RotatedTorsions>
[ 6907 6896 6895 6894 ] final   87.53 input  -60.11 | X-H torsion
[ 7974 7965 7964 7962 ] final   44.49 input  175.53 | X-H torsion
[ 8008 7997 7996 7995 ] final   21.31 input   59.86 | X-H torsion
[ 10167 10162 10161 10158 ] final   19.12 input  -65.29 | X-H torsion
[ 10718 10713 10712 10709 ] final  -76.83 input   66.30 | X-H torsion
[ 10763 10752 10751 10750 ] final  -56.04 input  -60.55 | X-H torsion
[ 11005 11000 10999 10996 ] final   52.71 input  -57.11 | X-H torsion

> <Gold.Protein.ActiveResidues>
 VAL166  LYS551  ARG553  GLY616  TRP617  ASP618  TYR619  PRO620  LYS621  CYS622 
 ASP623  PHE694  ASN695  SER759  ASP760  ASP761  ALA762  ILE779  LEU786  VAL792 
 PHE793  MET794  SER795  GLU796  ALA797  LYS798  CYS799  TRP800  GLU811  SER814 

> <Gold.Protein.RotatedAtoms>
  152.5412  134.2262  159.8806 H   0  0  0  0  0  0  0  0  0  0  0  0  # atno 6907 bound_to 6896
  151.2236  133.4482  159.2609 H   0  0  0  0  0  0  0  0  0  0  0  0  # atno 6908 bound_to 6896
  151.0782  134.9854  159.8398 H   0  0  0  0  0  0  0  0  0  0  0  0  # atno 6909 bound_to 6896
  146.0563  139.5068  142.9686 H   0  0  0  0  0  0  0  0  0  0  0  0  # atno 7974 bound_to 7965
  154.9486  140.3062  155.5086 H   0  0  0  0  0  0  0  0  0  0  0  0  # atno 8008 bound_to 7997
  156.2989  140.2323  156.4499 H   0  0  0  0  0  0  0  0  0  0  0  0  # atno 8009 bound_to 7997
  154.8076  140.0430  157.1307 H   0  0  0  0  0  0  0  0  0  0  0  0  # atno 8010 bound_to 7997
  140.5603  143.9350  150.6637 H   0  0  0  0  0  0  0  0  0  0  0  0  # atno 10167 bound_to 10162
  156.0163  130.4475  150.3253 H   0  0  0  0  0  0  0  0  0  0  0  0  # atno 10718 bound_to 10713
  154.2003  135.6412  153.5085 H   0  0  0  0  0  0  0  0  0  0  0  0  # atno 10763 bound_to 10752
  153.0013  135.5450  154.6322 H   0  0  0  0  0  0  0  0  0  0  0  0  # atno 10764 bound_to 10752
  154.5733  135.2919  155.0779 H   0  0  0  0  0  0  0  0  0  0  0  0  # atno 10765 bound_to 10752
  140.0827  134.5317  155.8930 H   0  0  0  0  0  0  0  0  0  0  0  0  # atno 11005 bound_to 11000
  145.6637  141.0234  143.1695 LP  0  0  0  0  0  0  0  0  0  0  0  0  # atno 17320 bound_to 7965
  144.7150  139.8230  143.7402 LP  0  0  0  0  0  0  0  0  0  0  0  0  # atno 17321 bound_to 7965
  140.2799  143.3397  152.1161 LP  0  0  0  0  0  0  0  0  0  0  0  0  # atno 17342 bound_to 10162
  139.5067  144.6818  151.5989 LP  0  0  0  0  0  0  0  0  0  0  0  0  # atno 17343 bound_to 10162
  157.1352  131.0282  151.2952 LP  0  0  0  0  0  0  0  0  0  0  0  0  # atno 17370 bound_to 10713
  157.4518  130.7602  149.7158 LP  0  0  0  0  0  0  0  0  0  0  0  0  # atno 17371 bound_to 10713
  141.2052  133.6645  156.6166 LP  0  0  0  0  0  0  0  0  0  0  0  0  # atno 17394 bound_to 11000
  140.3465  134.7805  157.4436 LP  0  0  0  0  0  0  0  0  0  0  0  0  # atno 17395 bound_to 11000

$$$$
