AV-unprocessed.smi:212|AV-procd|sdf|1619|dock7
  -GOLD-   2262019553D 1   1.00000     0.00000
 Structure written by MMmdl.
 65 68  0  0  0  0  0  0  0  0  2 V2000
  143.4154  137.2837  152.8947 C   0  0  0  0  0  0  0  0  0  0  0  0
  144.9484  137.3997  152.8535 C   0  0  2  0  0  0  0  0  0  0  0  0
  145.5837  136.3815  151.8825 C   0  0  0  0  0  0  0  0  0  0  0  0
  145.5187  134.9942  152.4184 N   0  3  1  0  0  0  0  0  0  0  0  0
  146.0289  133.9577  151.4792 C   0  0  0  0  0  0  0  0  0  0  0  0
  144.9963  133.4834  150.4229 C   0  0  0  0  0  0  0  0  0  0  0  0
  145.6224  132.3944  149.5344 C   0  0  0  0  0  0  0  0  0  0  0  0
  143.6889  132.9661  151.0524 C   0  0  0  0  0  0  0  0  0  0  0  0
  144.6813  134.5502  149.5516 O   0  0  0  0  0  0  0  0  0  0  0  0
  146.1481  134.8946  153.7610 C   0  0  0  0  0  0  0  0  0  0  0  0
  145.5391  135.9101  154.7451 C   0  0  0  0  0  0  0  0  0  0  0  0
  145.5371  137.2620  154.1870 N   0  0  0  0  0  0  0  0  0  0  0  0
  146.5888  138.0796  154.4497 C   0  0  0  0  0  0  0  0  0  0  0  0
  147.0327  138.9459  153.5011 N   0  0  0  0  0  0  0  0  0  0  0  0
  148.0559  139.7643  153.7628 C   0  0  0  0  0  0  0  0  0  0  0  0
  148.7658  139.8781  154.8866 N   0  0  0  0  0  0  0  0  0  0  0  0
  148.3298  139.0088  155.8418 C   0  0  0  0  0  0  0  0  0  0  0  0
  147.2600  138.0801  155.7042 C   0  0  0  0  0  0  0  0  0  0  0  0
  147.1163  137.3454  156.8740 N   0  0  0  0  0  0  0  0  0  0  0  0
  148.0471  137.8141  157.6590 C   0  0  0  0  0  0  0  0  0  0  0  0
  148.8105  138.8313  157.1291 N   0  0  0  0  0  0  0  0  0  0  0  0
  149.9048  139.5336  157.7878 C   0  0  0  0  0  0  0  0  0  0  0  0
  150.3534  140.8341  157.0692 C   0  0  2  0  0  0  0  0  0  0  0  0
  151.3945  140.5174  155.9684 C   0  0  0  0  0  0  0  0  0  0  0  0
  152.4460  139.7076  156.4511 O   0  0  0  0  0  0  0  0  0  0  0  0
  150.8477  141.9108  158.0753 C   0  0  2  0  0  0  0  0  0  0  0  0
  151.2344  143.2354  157.4367 C   0  0  0  0  0  0  0  0  0  0  0  0
  152.0602  143.9032  158.5316 C   0  0  0  0  0  0  0  0  0  0  0  0
  152.6538  142.8423  159.2720 O   0  0  0  0  0  0  0  0  0  0  0  0
  152.1552  141.5931  158.8071 C   0  0  0  0  0  0  0  0  0  0  0  0
  142.9868  137.4446  151.9051 H   0  0  0  0  0  0  0  0  0  0  0  0
  142.9876  138.0326  153.5620 H   0  0  0  0  0  0  0  0  0  0  0  0
  143.0857  136.3033  153.2387 H   0  0  0  0  0  0  0  0  0  0  0  0
  145.1707  138.3911  152.4578 H   0  0  0  0  0  0  0  0  0  0  0  0
  145.0819  136.4549  150.9200 H   0  0  0  0  0  0  0  0  0  0  0  0
  146.6285  136.6435  151.7081 H   0  0  0  0  0  0  0  0  0  0  0  0
  146.9529  134.2967  151.0076 H   0  0  0  0  0  0  0  0  0  0  0  0
  146.3063  133.0814  152.0672 H   0  0  0  0  0  0  0  0  0  0  0  0
  145.8840  131.5107  150.1177 H   0  0  0  0  0  0  0  0  0  0  0  0
  146.5335  132.7491  149.0508 H   0  0  0  0  0  0  0  0  0  0  0  0
  144.9365  132.0744  148.7488 H   0  0  0  0  0  0  0  0  0  0  0  0
  143.8836  132.1525  151.7519 H   0  0  0  0  0  0  0  0  0  0  0  0
  143.0056  132.5874  150.2912 H   0  0  0  0  0  0  0  0  0  0  0  0
  143.1601  133.7509  151.5945 H   0  0  0  0  0  0  0  0  0  0  0  0
  145.4042  134.6773  148.9558 H   0  0  0  0  0  0  0  0  0  0  0  0
  146.0145  133.8895  154.1625 H   0  0  0  0  0  0  0  0  0  0  0  0
  147.2228  135.0556  153.6650 H   0  0  0  0  0  0  0  0  0  0  0  0
  144.5098  135.6307  154.9709 H   0  0  0  0  0  0  0  0  0  0  0  0
  146.0683  135.8834  155.6988 H   0  0  0  0  0  0  0  0  0  0  0  0
  148.3458  140.4238  152.9582 H   0  0  0  0  0  0  0  0  0  0  0  0
  148.1982  137.4285  158.6568 H   0  0  0  0  0  0  0  0  0  0  0  0
  149.5858  139.7681  158.8039 H   0  0  0  0  0  0  0  0  0  0  0  0
  150.7436  138.8463  157.8977 H   0  0  0  0  0  0  0  0  0  0  0  0
  149.4655  141.2255  156.5696 H   0  0  0  0  0  0  0  0  0  0  0  0
  150.9260  140.0337  155.1108 H   0  0  0  0  0  0  0  0  0  0  0  0
  151.8539  141.4376  155.6065 H   0  0  0  0  0  0  0  0  0  0  0  0
  152.1849  138.8018  156.3823 H   0  0  0  0  0  0  0  0  0  0  0  0
  150.0792  142.0918  158.8281 H   0  0  0  0  0  0  0  0  0  0  0  0
  151.8567  143.0641  156.5572 H   0  0  0  0  0  0  0  0  0  0  0  0
  150.3857  143.8445  157.1306 H   0  0  0  0  0  0  0  0  0  0  0  0
  152.8148  144.5784  158.1278 H   0  0  0  0  0  0  0  0  0  0  0  0
  151.4166  144.4750  159.2014 H   0  0  0  0  0  0  0  0  0  0  0  0
  152.0161  140.8977  159.6351 H   0  0  0  0  0  0  0  0  0  0  0  0
  152.8889  141.1663  158.1217 H   0  0  0  0  0  0  0  0  0  0  0  0
  144.5403  134.7871  152.5586 H   0  0  0  0  0  0  0  0  0  0  0  0
  1  2  1  0  0  0  0
  1 31  1  0  0  0  0
  1 32  1  0  0  0  0
  1 33  1  0  0  0  0
  2 12  1  0  0  0  0
  2  3  1  0  0  0  0
  2 34  1  0  0  0  0
  3  4  1  0  0  0  0
  3 35  1  0  0  0  0
  3 36  1  0  0  0  0
  4  5  1  0  0  0  0
  4 10  1  0  0  0  0
  4 65  1  0  0  0  0
  5  6  1  0  0  0  0
  5 37  1  0  0  0  0
  5 38  1  0  0  0  0
  6  7  1  0  0  0  0
  6  8  1  0  0  0  0
  6  9  1  0  0  0  0
  7 39  1  0  0  0  0
  7 40  1  0  0  0  0
  7 41  1  0  0  0  0
  8 42  1  0  0  0  0
  8 43  1  0  0  0  0
  8 44  1  0  0  0  0
  9 45  1  0  0  0  0
 10 11  1  0  0  0  0
 10 46  1  0  0  0  0
 10 47  1  0  0  0  0
 11 12  1  0  0  0  0
 11 48  1  0  0  0  0
 11 49  1  0  0  0  0
 12 13  1  0  0  0  0
 13 18  1  0  0  0  0
 13 14  2  0  0  0  0
 14 15  1  0  0  0  0
 15 16  2  0  0  0  0
 15 50  1  0  0  0  0
 16 17  1  0  0  0  0
 17 21  1  0  0  0  0
 17 18  2  0  0  0  0
 18 19  1  0  0  0  0
 19 20  2  0  0  0  0
 20 21  1  0  0  0  0
 20 51  1  0  0  0  0
 21 22  1  0  0  0  0
 22 23  1  0  0  0  0
 22 52  1  0  0  0  0
 22 53  1  0  0  0  0
 23 24  1  0  0  0  0
 23 26  1  0  0  0  0
 23 54  1  0  0  0  0
 24 25  1  0  0  0  0
 24 55  1  0  0  0  0
 24 56  1  0  0  0  0
 25 57  1  0  0  0  0
 26 30  1  0  0  0  0
 26 27  1  0  0  0  0
 26 58  1  0  0  0  0
 27 28  1  0  0  0  0
 27 59  1  0  0  0  0
 27 60  1  0  0  0  0
 28 29  1  0  0  0  0
 28 61  1  0  0  0  0
 28 62  1  0  0  0  0
 29 30  1  0  0  0  0
 30 63  1  0  0  0  0
 30 64  1  0  0  0  0
M  CHG  1   4   1
M  END
> <s_m_source_file>
AV-unprocessed.smi

> <i_m_source_file_index>
212

> <i_lp_mmshare_version>
43012

> <i_f3d_flags>
0

> <s_epik_input>
W0NIM11bQ0BASF0xW0NIMl1OKFtDSDJdQyhbQ0gzXSkoW0NIM10pW09IXSlbQ0gyXVtDSDJdTjFjKG5bY0hdbjIpYyhjMjMpbltjSF1uM1tDSDJdW0NASF0oW0NIMl1bT0hdKVtDQEBIXTRbQ0gyXVtDSDJdT1tDSDJdNA==

> <s_epik_cmdline>
J2VwaWtfcHl0aG9uJywgJy1waCcsICc3LjAnLCAnLXRuJywgJzgnLCAnLW1hJywgJzIwMCcsICctbWV0YWxfYmluZGluZycsICctaW1hZScsICc8aW5maWxlLm1hZT4nLCAnLW9tYWUnLCAnPG91dGZpbGUubWFlPic=

> <r_lp_tautomer_probability>
1

> <r_epik_Ionization_Penalty>
0.00182193

> <r_epik_Ionization_Penalty_Charging>
0.00173996

> <r_epik_Ionization_Penalty_Neutral>
8.19718e-05

> <r_epik_State_Penalty>
-0

> <r_epik_Charging_Adjusted_Penalty>
0.00173996

> <i_epik_Tot_Q>
1

> <i_epik_Tot_abs_Q>
1

> <r_epik_Metal_State_Penalty>
-0

> <b_epik_Metal_Only>
0

> <s_lp_Force_Field>
OPLS_2005

> <r_lp_Energy>
58.2747

> <b_lp_Chiralities_Consistent>
1

> <s_lp_Variant>
AV-unprocessed.smi:212-3

> <Gold.Version>
5.8.1

> <Gold.Id.Protein>
6NUR|6NUR_protein|mol2

> <Gold.PLP.Fitness>
48.0393

> <Gold.PLP.PLP>
-40.8293

> <Gold.PLP.part.hbond>
-1.8281

> <Gold.PLP.part.metal>
0.0000

> <Gold.PLP.part.buried>
-6.5739

> <Gold.PLP.part.nonpolar>
-32.2424

> <Gold.PLP.part.repulsive>
0.2849

> <Gold.PLP.ligand.clash>
0.0000

> <Gold.PLP.ligand.torsion>
1.2400

> <Gold.PLP.Chemscore.Hbond>
2.0000

> <Gold.PLP.Chemscore.CHOScore>
1.0000

> <Gold.PLP.Chemscore.Metal>
0.0000

> <Gold.Chemscore.Hbonds>
donor molecule, donor type, donor heavy atom, donor atom, acceptor molecule, acceptor atom, score
      L1  H     9    45       P1  7921  0.96
      P1  H  7997  8010       L1    25  1.00
      L1  C    15    50       P1  7957  1.00

> <Gold.PLP.Chemscore.Internal.Correction>
0.6898

> <Gold.Rescore>
     Score         DG    S(hbond)    S(metal)    S(lipo)     H(rot)  DE(clash)    DE(int)     intcor
     11.37     -15.11       1.99        0.00      99.90       3.40       0.17       3.57       ----

> <Gold.Chemscore.Fitness>
11.3710

> <Gold.Chemscore.DG>
-15.1108

> <Gold.Chemscore.ZeroCoef>
-5.4800

> <Gold.Chemscore.Hbond>
1.9888

> <Gold.Chemscore.Metal>
0.0000

> <Gold.Chemscore.Lipo>
99.9034

> <Gold.Chemscore.Internal_Hbond>
0.0000

> <Gold.Chemscore.DEClash>
0.1735

> <Gold.Chemscore.DEInternal>
3.5664

> <Gold.Chemscore.Rot>
3.3986

> <Gold.Chemscore.Internal.Correction>
   9.000000E+99

> <Gold.Chemscore.Hbonds>
donor molecule, donor type, donor heavy atom, donor atom, acceptor molecule, acceptor atom, score
      L1  H     9    45       P1  7921  0.90
      P1  H  7997  8010       L1    25  0.95

> <Gold.Chemscore.Hbond.Weighted>
-6.6426

> <Gold.Chemscore.Metal.Weighted>
-0.0000

> <Gold.Chemscore.Lipo.Weighted>
-11.6887

> <Gold.Chemscore.Internal_Hbond.Weighted>
0.0000

> <Gold.Chemscore.DEClash.Weighted>
0.1735

> <Gold.Chemscore.DEInternal.Weighted>
3.5664

> <Gold.Chemscore.Rot.Weighted>
8.7005

> <Gold.Chemscore.Internal.Correction.Weighted>
   9.000000E+99

> <Gold.Protein.RotatedTorsions>
[ 6907 6896 6895 6894 ] final   91.78 input  -60.11 | X-H torsion
[ 7974 7965 7964 7962 ] final  -95.78 input  175.53 | X-H torsion
[ 8008 7997 7996 7995 ] final   80.00 input   59.86 | X-H torsion
[ 10167 10162 10161 10158 ] final  166.44 input  -65.29 | X-H torsion
[ 10718 10713 10712 10709 ] final -163.55 input   66.30 | X-H torsion
[ 10763 10752 10751 10750 ] final   70.70 input  -60.55 | X-H torsion
[ 11005 11000 10999 10996 ] final   -2.38 input  -57.11 | X-H torsion

> <Gold.Protein.ActiveResidues>
 VAL166  LYS551  ARG553  GLY616  TRP617  ASP618  TYR619  PRO620  LYS621  CYS622 
 ASP623  PHE694  ASN695  SER759  ASP760  ASP761  ALA762  ILE779  LEU786  VAL792 
 PHE793  MET794  SER795  GLU796  ALA797  LYS798  CYS799  TRP800  GLU811  SER814 

> <Gold.Protein.RotatedAtoms>
  152.5451  134.1603  159.8554 H   0  0  0  0  0  0  0  0  0  0  0  0  # atno 6907 bound_to 6896
  151.1622  133.4830  159.2601 H   0  0  0  0  0  0  0  0  0  0  0  0  # atno 6908 bound_to 6896
  151.1361  135.0166  159.8659 H   0  0  0  0  0  0  0  0  0  0  0  0  # atno 6909 bound_to 6896
  145.3556  140.9483  143.2529 H   0  0  0  0  0  0  0  0  0  0  0  0  # atno 7974 bound_to 7965
  155.8775  140.3446  155.5864 H   0  0  0  0  0  0  0  0  0  0  0  0  # atno 8008 bound_to 7997
  155.7757  140.0851  157.2104 H   0  0  0  0  0  0  0  0  0  0  0  0  # atno 8009 bound_to 7997
  154.4022  140.1510  156.2981 H   0  0  0  0  0  0  0  0  0  0  0  0  # atno 8010 bound_to 7997
  139.4925  144.4028  151.9390 H   0  0  0  0  0  0  0  0  0  0  0  0  # atno 10167 bound_to 10162
  156.6263  130.8911  151.2968 H   0  0  0  0  0  0  0  0  0  0  0  0  # atno 10718 bound_to 10713
  153.0356  135.5164  154.7480 H   0  0  0  0  0  0  0  0  0  0  0  0  # atno 10763 bound_to 10752
  154.6459  135.2918  155.0048 H   0  0  0  0  0  0  0  0  0  0  0  0  # atno 10764 bound_to 10752
  154.0950  135.6644  153.4911 H   0  0  0  0  0  0  0  0  0  0  0  0  # atno 10765 bound_to 10752
  140.6577  133.9348  155.8417 H   0  0  0  0  0  0  0  0  0  0  0  0  # atno 11005 bound_to 11000
  144.8685  139.5073  143.6779 LP  0  0  0  0  0  0  0  0  0  0  0  0  # atno 17320 bound_to 7965
  146.2949  139.7249  142.9134 LP  0  0  0  0  0  0  0  0  0  0  0  0  # atno 17321 bound_to 7965
  140.3467  144.3138  150.5957 LP  0  0  0  0  0  0  0  0  0  0  0  0  # atno 17342 bound_to 10162
  140.5520  143.2205  151.7911 LP  0  0  0  0  0  0  0  0  0  0  0  0  # atno 17343 bound_to 10162
  157.7213  130.9562  150.1450 LP  0  0  0  0  0  0  0  0  0  0  0  0  # atno 17370 bound_to 10713
  156.2271  130.3679  149.8488 LP  0  0  0  0  0  0  0  0  0  0  0  0  # atno 17371 bound_to 10713
  141.0489  134.0514  157.3809 LP  0  0  0  0  0  0  0  0  0  0  0  0  # atno 17394 bound_to 11000
  139.9023  135.0169  156.7329 LP  0  0  0  0  0  0  0  0  0  0  0  0  # atno 17395 bound_to 11000

$$$$
