AV-unprocessed.smi:1896|AV-procd|sdf|7682|dock8
  -GOLD-   22720 9423D 1   1.00000     0.00000
 Structure written by MMmdl.
 47 48  0  0  0  0  0  0  0  0  2 V2000
  148.4708  137.3245  158.4425 C   0  0  0  0  0  0  0  0  0  0  0  0
  148.1329  136.5368  159.6762 C   0  0  0  0  0  0  0  0  0  0  0  0
  148.0969  137.1507  160.8471 N   0  0  0  0  0  0  0  0  0  0  0  0
  147.7790  136.1855  161.7328 N   0  0  0  0  0  0  0  0  0  0  0  0
  147.6530  136.5227  163.1376 C   0  0  0  0  0  0  0  0  0  0  0  0
  147.6132  134.9589  161.1200 C   0  0  0  0  0  0  0  0  0  0  0  0
  147.2597  133.7267  161.8889 C   0  0  0  0  0  0  0  0  0  0  0  0
  147.8379  135.1456  159.7819 C   0  0  0  0  0  0  0  0  0  0  0  0
  147.7937  134.1292  158.6695 C   0  0  0  0  0  0  0  0  0  0  0  0
  147.2385  134.7821  157.4041 C   0  0  0  0  0  0  0  0  0  0  0  0
  146.1181  135.2914  157.4151 O   0  0  0  0  0  0  0  0  0  0  0  0
  148.0311  134.7583  156.3205 N   0  0  0  0  0  0  0  0  0  0  0  0
  147.6786  135.2752  155.0006 C   0  0  0  0  0  0  0  0  0  0  0  0
  147.3302  134.1584  153.9823 C   0  0  2  0  0  0  0  0  0  0  0  0
  148.5233  133.1995  153.7657 C   0  0  0  0  0  0  0  0  0  0  0  0
  146.8785  134.7569  152.6919 N   0  3  0  0  0  0  0  0  0  0  0  0
  146.2589  133.8234  151.7252 C   0  0  0  0  0  0  0  0  0  0  0  0
  145.4697  134.7099  150.7692 C   0  0  0  0  0  0  0  0  0  0  0  0
  144.9211  135.7964  151.6860 C   0  0  0  0  0  0  0  0  0  0  0  0
  145.9510  135.9104  152.8184 C   0  0  0  0  0  0  0  0  0  0  0  0
  149.4685  137.0732  158.0830 H   0  0  0  0  0  0  0  0  0  0  0  0
  148.4460  138.3987  158.6294 H   0  0  0  0  0  0  0  0  0  0  0  0
  147.7650  137.1150  157.6390 H   0  0  0  0  0  0  0  0  0  0  0  0
  146.6115  136.4258  163.4445 H   0  0  0  0  0  0  0  0  0  0  0  0
  147.9821  137.5467  163.3187 H   0  0  0  0  0  0  0  0  0  0  0  0
  148.2653  135.8474  163.7355 H   0  0  0  0  0  0  0  0  0  0  0  0
  147.1596  132.8638  161.2308 H   0  0  0  0  0  0  0  0  0  0  0  0
  146.3145  133.8564  162.4160 H   0  0  0  0  0  0  0  0  0  0  0  0
  148.0301  133.4950  162.6247 H   0  0  0  0  0  0  0  0  0  0  0  0
  148.7853  133.7283  158.4567 H   0  0  0  0  0  0  0  0  0  0  0  0
  147.1764  133.2699  158.9343 H   0  0  0  0  0  0  0  0  0  0  0  0
  148.9355  134.3176  156.4107 H   0  0  0  0  0  0  0  0  0  0  0  0
  146.8261  135.9358  155.1549 H   0  0  0  0  0  0  0  0  0  0  0  0
  148.4759  135.9075  154.6057 H   0  0  0  0  0  0  0  0  0  0  0  0
  146.5019  133.5715  154.3831 H   0  0  0  0  0  0  0  0  0  0  0  0
  148.8419  132.7354  154.6983 H   0  0  0  0  0  0  0  0  0  0  0  0
  149.3821  133.7257  153.3480 H   0  0  0  0  0  0  0  0  0  0  0  0
  148.2755  132.3768  153.0957 H   0  0  0  0  0  0  0  0  0  0  0  0
  147.0031  133.2232  151.2008 H   0  0  0  0  0  0  0  0  0  0  0  0
  145.5783  133.1483  152.2471 H   0  0  0  0  0  0  0  0  0  0  0  0
  146.1413  135.1502  150.0309 H   0  0  0  0  0  0  0  0  0  0  0  0
  144.6881  134.1689  150.2348 H   0  0  0  0  0  0  0  0  0  0  0  0
  144.7636  136.7411  151.1644 H   0  0  0  0  0  0  0  0  0  0  0  0
  143.9603  135.4802  152.0947 H   0  0  0  0  0  0  0  0  0  0  0  0
  145.4358  135.9124  153.7804 H   0  0  0  0  0  0  0  0  0  0  0  0
  146.5207  136.8373  152.7444 H   0  0  0  0  0  0  0  0  0  0  0  0
  147.7031  135.1150  152.2310 H   0  0  0  0  0  0  0  0  0  0  0  0
  1  2  1  0  0  0  0
  1 21  1  0  0  0  0
  1 22  1  0  0  0  0
  1 23  1  0  0  0  0
  2  8  1  0  0  0  0
  2  3  2  0  0  0  0
  3  4  1  0  0  0  0
  4  5  1  0  0  0  0
  4  6  1  0  0  0  0
  5 24  1  0  0  0  0
  5 25  1  0  0  0  0
  5 26  1  0  0  0  0
  6  7  1  0  0  0  0
  6  8  2  0  0  0  0
  7 27  1  0  0  0  0
  7 28  1  0  0  0  0
  7 29  1  0  0  0  0
  8  9  1  0  0  0  0
  9 10  1  0  0  0  0
  9 30  1  0  0  0  0
  9 31  1  0  0  0  0
 10 11  2  0  0  0  0
 10 12  1  0  0  0  0
 12 13  1  0  0  0  0
 12 32  1  0  0  0  0
 13 14  1  0  0  0  0
 13 33  1  0  0  0  0
 13 34  1  0  0  0  0
 14 15  1  0  0  0  0
 14 16  1  0  0  0  0
 14 35  1  0  0  0  0
 15 36  1  0  0  0  0
 15 37  1  0  0  0  0
 15 38  1  0  0  0  0
 16 20  1  0  0  0  0
 16 17  1  0  0  0  0
 16 47  1  0  0  0  0
 17 18  1  0  0  0  0
 17 39  1  0  0  0  0
 17 40  1  0  0  0  0
 18 19  1  0  0  0  0
 18 41  1  0  0  0  0
 18 42  1  0  0  0  0
 19 20  1  0  0  0  0
 19 43  1  0  0  0  0
 19 44  1  0  0  0  0
 20 45  1  0  0  0  0
 20 46  1  0  0  0  0
M  CHG  1  16   1
M  END
> <s_m_source_file>
AV-unprocessed.smi

> <i_m_source_file_index>
1896

> <i_lp_mmshare_version>
43012

> <i_f3d_flags>
0

> <s_epik_input>
W0NIM11jMW5uKFtDSDNdKWMoW0NIM10pYzFbQ0gyXUMoPU8pW05IXVtDSDJdW0NASF0oW0NIM10pTjJbQ0gyXVtDSDJdW0NIMl1bQ0gyXTI=

> <s_epik_cmdline>
J2VwaWtfcHl0aG9uJywgJy1waCcsICc3LjAnLCAnLXRuJywgJzgnLCAnLW1hJywgJzIwMCcsICctbWV0YWxfYmluZGluZycsICctaW1hZScsICc8aW5maWxlLm1hZT4nLCAnLW9tYWUnLCAnPG91dGZpbGUubWFlPic=

> <r_lp_tautomer_probability>
1

> <r_epik_Ionization_Penalty>
0.00723064

> <r_epik_Ionization_Penalty_Charging>
0.0050435

> <r_epik_Ionization_Penalty_Neutral>
0.00218714

> <r_epik_State_Penalty>
-0

> <r_epik_Charging_Adjusted_Penalty>
0.0050435

> <i_epik_Tot_Q>
1

> <i_epik_Tot_abs_Q>
1

> <r_epik_Metal_State_Penalty>
-0

> <b_epik_Metal_Only>
0

> <s_lp_Force_Field>
OPLS_2005

> <r_lp_Energy>
25.1325

> <b_lp_Chiralities_Consistent>
1

> <s_lp_Variant>
AV-unprocessed.smi:1896-1

> <Gold.Version>
5.8.1

> <Gold.Id.Protein>
6NUR|6NUR_protein|mol2

> <Gold.PLP.Fitness>
42.8150

> <Gold.PLP.PLP>
-33.0972

> <Gold.PLP.part.hbond>
-3.0000

> <Gold.PLP.part.metal>
0.0000

> <Gold.PLP.part.buried>
-2.9501

> <Gold.PLP.part.nonpolar>
-26.4142

> <Gold.PLP.part.repulsive>
0.0000

> <Gold.PLP.ligand.clash>
0.0000

> <Gold.PLP.ligand.torsion>
0.6171

> <Gold.PLP.Chemscore.Hbond>
3.6320

> <Gold.PLP.Chemscore.CHOScore>
0.0000

> <Gold.PLP.Chemscore.Metal>
0.0000

> <Gold.Chemscore.Hbonds>
donor molecule, donor type, donor heavy atom, donor atom, acceptor molecule, acceptor atom, score
      L1  H    16    47       P1  7948  2.00
      P1  H  6931  6943       L1     3  0.91
      P1  H  6934  6947       L1     3  0.62

> <Gold.PLP.Chemscore.Internal.Correction>
0.0561

> <Gold.Rescore>
     Score         DG    S(hbond)    S(metal)    S(lipo)     H(rot)  DE(clash)    DE(int)     intcor
     16.83     -17.46       2.48        0.00      67.74       1.65       0.17       0.45       ----

> <Gold.Chemscore.Fitness>
16.8344

> <Gold.Chemscore.DG>
-17.4595

> <Gold.Chemscore.ZeroCoef>
-5.4800

> <Gold.Chemscore.Hbond>
2.4781

> <Gold.Chemscore.Metal>
0.0000

> <Gold.Chemscore.Lipo>
67.7369

> <Gold.Chemscore.Internal_Hbond>
0.0000

> <Gold.Chemscore.DEClash>
0.1739

> <Gold.Chemscore.DEInternal>
0.4513

> <Gold.Chemscore.Rot>
1.6495

> <Gold.Chemscore.Internal.Correction>
   9.000000E+99

> <Gold.Chemscore.Hbonds>
donor molecule, donor type, donor heavy atom, donor atom, acceptor molecule, acceptor atom, score
      L1  H    16    47       P1  7948  0.95
      P1  H  6931  6943       L1     3  0.27
      P1  H  6934  6947       L1     3  0.58

> <Gold.Chemscore.Hbond.Weighted>
-8.2770

> <Gold.Chemscore.Metal.Weighted>
-0.0000

> <Gold.Chemscore.Lipo.Weighted>
-7.9252

> <Gold.Chemscore.Internal_Hbond.Weighted>
0.0000

> <Gold.Chemscore.DEClash.Weighted>
0.1739

> <Gold.Chemscore.DEInternal.Weighted>
0.4513

> <Gold.Chemscore.Rot.Weighted>
4.2227

> <Gold.Chemscore.Internal.Correction.Weighted>
   9.000000E+99

> <Gold.Protein.RotatedTorsions>
[ 6907 6896 6895 6894 ] final   21.56 input  -60.11 | X-H torsion
[ 7974 7965 7964 7962 ] final -100.09 input  175.53 | X-H torsion
[ 8008 7997 7996 7995 ] final   76.92 input   59.86 | X-H torsion
[ 10167 10162 10161 10158 ] final  110.39 input  -65.29 | X-H torsion
[ 10718 10713 10712 10709 ] final -155.54 input   66.30 | X-H torsion
[ 10763 10752 10751 10750 ] final  -76.89 input  -60.55 | X-H torsion
[ 11005 11000 10999 10996 ] final  -85.28 input  -57.11 | X-H torsion

> <Gold.Protein.ActiveResidues>
 VAL166  LYS551  ARG553  GLY616  TRP617  ASP618  TYR619  PRO620  LYS621  CYS622 
 ASP623  PHE694  ASN695  SER759  ASP760  ASP761  ALA762  ILE779  LEU786  VAL792 
 PHE793  MET794  SER795  GLU796  ALA797  LYS798  CYS799  TRP800  GLU811  SER814 

> <Gold.Protein.RotatedAtoms>
  151.9137  135.0328  160.0516 H   0  0  0  0  0  0  0  0  0  0  0  0  # atno 6907 bound_to 6896
  152.2258  133.5014  159.5196 H   0  0  0  0  0  0  0  0  0  0  0  0  # atno 6908 bound_to 6896
  150.7012  134.1199  159.4073 H   0  0  0  0  0  0  0  0  0  0  0  0  # atno 6909 bound_to 6896
  145.2991  140.9373  143.2834 H   0  0  0  0  0  0  0  0  0  0  0  0  # atno 7974 bound_to 7965
  155.8342  140.3465  155.5591 H   0  0  0  0  0  0  0  0  0  0  0  0  # atno 8008 bound_to 7997
  155.8209  140.0913  157.1869 H   0  0  0  0  0  0  0  0  0  0  0  0  # atno 8009 bound_to 7997
  154.4004  140.1430  156.3486 H   0  0  0  0  0  0  0  0  0  0  0  0  # atno 8010 bound_to 7997
  139.6692  144.7126  151.1719 H   0  0  0  0  0  0  0  0  0  0  0  0  # atno 10167 bound_to 10162
  156.5143  130.8449  151.2658 H   0  0  0  0  0  0  0  0  0  0  0  0  # atno 10718 bound_to 10713
  154.5058  135.5782  153.6566 H   0  0  0  0  0  0  0  0  0  0  0  0  # atno 10763 bound_to 10752
  152.9887  135.6146  154.2944 H   0  0  0  0  0  0  0  0  0  0  0  0  # atno 10764 bound_to 10752
  154.2854  135.2850  155.2658 H   0  0  0  0  0  0  0  0  0  0  0  0  # atno 10765 bound_to 10752
  141.1643  133.7391  156.8992 H   0  0  0  0  0  0  0  0  0  0  0  0  # atno 11005 bound_to 11000
  144.9108  139.4531  143.6588 LP  0  0  0  0  0  0  0  0  0  0  0  0  # atno 17320 bound_to 7965
  146.3158  139.7916  142.8984 LP  0  0  0  0  0  0  0  0  0  0  0  0  # atno 17321 bound_to 7965
  140.7611  143.5871  150.8835 LP  0  0  0  0  0  0  0  0  0  0  0  0  # atno 17342 bound_to 10162
  139.9535  143.6245  152.3022 LP  0  0  0  0  0  0  0  0  0  0  0  0  # atno 17343 bound_to 10162
  157.7446  130.9939  150.2688 LP  0  0  0  0  0  0  0  0  0  0  0  0  # atno 17370 bound_to 10713
  156.3210  130.3786  149.7575 LP  0  0  0  0  0  0  0  0  0  0  0  0  # atno 17371 bound_to 10713
  140.1595  134.9175  157.2696 LP  0  0  0  0  0  0  0  0  0  0  0  0  # atno 17394 bound_to 11000
  140.2628  134.3551  155.7400 LP  0  0  0  0  0  0  0  0  0  0  0  0  # atno 17395 bound_to 11000

$$$$
