AV-unprocessed.smi:918|AV-procd|sdf|4163|dock2
  -GOLD-   22720 2 73D 1   1.00000     0.00000
 Structure written by MMmdl.
 31 32  0  0  0  0  0  0  0  0  2 V2000
  152.2121  137.3035  155.3834 O   0  0  0  0  0  0  0  0  0  0  0  0
  152.0619  138.5413  155.2756 C   0  0  0  0  0  0  0  0  0  0  0  0
  152.9950  139.3662  155.3619 O   0  5  0  0  0  0  0  0  0  0  0  0
  150.5528  139.0354  155.0106 C   0  0  0  0  0  0  0  0  0  0  0  0
  149.7067  138.1526  154.4352 C   0  0  0  0  0  0  0  0  0  0  0  0
  148.3460  138.5107  154.1641 C   0  0  0  0  0  0  0  0  0  0  0  0
  147.9024  139.7314  154.4821 C   0  0  0  0  0  0  0  0  0  0  0  0
  148.7685  140.7294  155.1059 C   0  0  0  0  0  0  0  0  0  0  0  0
  148.2904  141.8308  155.3697 O   0  0  0  0  0  0  0  0  0  0  0  0
  150.0793  140.3616  155.3586 N   0  0  0  0  0  0  0  0  0  0  0  0
  151.0416  141.3130  155.9937 C   0  0  0  0  0  0  0  0  0  0  0  0
  151.5067  141.1530  157.4574 C   0  0  0  0  0  0  0  0  0  0  0  0
  151.8220  142.4420  157.9662 O   0  0  0  0  0  0  0  0  0  0  0  0
  152.1174  142.5643  159.3084 C   0  0  0  0  0  0  0  0  0  0  0  0
  152.6632  141.5177  160.0956 C   0  0  0  0  0  0  0  0  0  0  0  0
  152.9384  141.7189  161.4619 C   0  0  0  0  0  0  0  0  0  0  0  0
  152.6734  142.9639  162.0603 C   0  0  0  0  0  0  0  0  0  0  0  0
  152.1322  144.0087  161.2894 C   0  0  0  0  0  0  0  0  0  0  0  0
  151.8559  143.8101  159.9222 C   0  0  0  0  0  0  0  0  0  0  0  0
  151.1915  145.1115  159.0008 Cl  0  0  0  0  0  0  0  0  0  0  0  0
  150.0264  137.1572  154.1635 H   0  0  0  0  0  0  0  0  0  0  0  0
  147.6808  137.7952  153.7038 H   0  0  0  0  0  0  0  0  0  0  0  0
  146.8741  139.9871  154.2718 H   0  0  0  0  0  0  0  0  0  0  0  0
  151.9553  141.3023  155.3989 H   0  0  0  0  0  0  0  0  0  0  0  0
  150.6032  142.3097  155.9386 H   0  0  0  0  0  0  0  0  0  0  0  0
  150.7117  140.7166  158.0644 H   0  0  0  0  0  0  0  0  0  0  0  0
  152.3971  140.5241  157.5078 H   0  0  0  0  0  0  0  0  0  0  0  0
  152.8807  140.5482  159.6741 H   0  0  0  0  0  0  0  0  0  0  0  0
  153.3539  140.9149  162.0513 H   0  0  0  0  0  0  0  0  0  0  0  0
  152.8848  143.1173  163.1084 H   0  0  0  0  0  0  0  0  0  0  0  0
  151.9286  144.9650  161.7486 H   0  0  0  0  0  0  0  0  0  0  0  0
  1  2  2  0  0  0  0
  2  3  1  0  0  0  0
  2  4  1  0  0  0  0
  4 10  1  0  0  0  0
  4  5  2  0  0  0  0
  5  6  1  0  0  0  0
  5 21  1  0  0  0  0
  6  7  2  0  0  0  0
  6 22  1  0  0  0  0
  7  8  1  0  0  0  0
  7 23  1  0  0  0  0
  8  9  2  0  0  0  0
  8 10  1  0  0  0  0
 10 11  1  0  0  0  0
 11 12  1  0  0  0  0
 11 24  1  0  0  0  0
 11 25  1  0  0  0  0
 12 13  1  0  0  0  0
 12 26  1  0  0  0  0
 12 27  1  0  0  0  0
 13 14  1  0  0  0  0
 14 19  1  0  0  0  0
 14 15  2  0  0  0  0
 15 16  1  0  0  0  0
 15 28  1  0  0  0  0
 16 17  2  0  0  0  0
 16 29  1  0  0  0  0
 17 18  1  0  0  0  0
 17 30  1  0  0  0  0
 18 19  2  0  0  0  0
 18 31  1  0  0  0  0
 19 20  1  0  0  0  0
M  CHG  1   3  -1
M  END
> <s_m_source_file>
AV-unprocessed.smi

> <i_m_source_file_index>
918

> <i_lp_mmshare_version>
43012

> <i_f3d_flags>
0

> <s_epik_input>
Tz1DKFtPSF0pYzFbY0hdW2NIXVtjSF1jKD1PKW4xW0NIMl1bQ0gyXU9jMltjSF1bY0hdW2NIXVtjSF1jMkNs

> <s_epik_cmdline>
J2VwaWtfcHl0aG9uJywgJy1waCcsICc3LjAnLCAnLXRuJywgJzgnLCAnLW1hJywgJzIwMCcsICctbWV0YWxfYmluZGluZycsICctaW1hZScsICc8aW5maWxlLm1hZT4nLCAnLW9tYWUnLCAnPG91dGZpbGUubWFlPic=

> <r_lp_tautomer_probability>
1

> <r_epik_Ionization_Penalty>
4.91901e-05

> <r_epik_Ionization_Penalty_Charging>
4.91901e-05

> <r_epik_Ionization_Penalty_Neutral>
0

> <r_epik_State_Penalty>
-0

> <r_epik_Charging_Adjusted_Penalty>
4.91901e-05

> <i_epik_Tot_Q>
-1

> <i_epik_Tot_abs_Q>
1

> <r_epik_Metal_State_Penalty>
-0

> <b_epik_Metal_Only>
0

> <s_lp_Force_Field>
OPLS_2005

> <r_lp_Energy>
37.328

> <b_lp_Chiralities_Consistent>
1

> <s_lp_Variant>
AV-unprocessed.smi:918-1

> <Gold.Version>
5.8.1

> <Gold.Id.Protein>
6NUR|6NUR_protein|mol2

> <Gold.PLP.Fitness>
54.2576

> <Gold.PLP.PLP>
-46.1377

> <Gold.PLP.part.hbond>
-2.5759

> <Gold.PLP.part.metal>
0.0000

> <Gold.PLP.part.buried>
-5.6187

> <Gold.PLP.part.nonpolar>
-39.4378

> <Gold.PLP.part.repulsive>
1.0998

> <Gold.PLP.ligand.clash>
0.0000

> <Gold.PLP.ligand.torsion>
0.9602

> <Gold.PLP.Chemscore.Hbond>
3.3005

> <Gold.PLP.Chemscore.CHOScore>
0.0000

> <Gold.PLP.Chemscore.Metal>
0.0000

> <Gold.Chemscore.Hbonds>
donor molecule, donor type, donor heavy atom, donor atom, acceptor molecule, acceptor atom, score
      P1  H  7997  8010       L1     3  2.00
      P1  H 10752 10763       L1     1  1.60

> <Gold.PLP.Chemscore.Internal.Correction>
0.1387

> <Gold.Rescore>
     Score         DG    S(hbond)    S(metal)    S(lipo)     H(rot)  DE(clash)    DE(int)     intcor
     17.87     -20.63       1.79        0.00     114.39       1.64       0.46       2.30       ----

> <Gold.Chemscore.Fitness>
17.8694

> <Gold.Chemscore.DG>
-20.6318

> <Gold.Chemscore.ZeroCoef>
-5.4800

> <Gold.Chemscore.Hbond>
1.7867

> <Gold.Chemscore.Metal>
0.0000

> <Gold.Chemscore.Lipo>
114.3918

> <Gold.Chemscore.Internal_Hbond>
0.0000

> <Gold.Chemscore.DEClash>
0.4601

> <Gold.Chemscore.DEInternal>
2.3023

> <Gold.Chemscore.Rot>
1.6405

> <Gold.Chemscore.Internal.Correction>
   9.000000E+99

> <Gold.Chemscore.Hbonds>
donor molecule, donor type, donor heavy atom, donor atom, acceptor molecule, acceptor atom, score
      P1  H  7997  8010       L1     3  1.00
      P1  H 10752 10763       L1     1  0.76

> <Gold.Chemscore.Hbond.Weighted>
-5.9675

> <Gold.Chemscore.Metal.Weighted>
-0.0000

> <Gold.Chemscore.Lipo.Weighted>
-13.3838

> <Gold.Chemscore.Internal_Hbond.Weighted>
0.0000

> <Gold.Chemscore.DEClash.Weighted>
0.4601

> <Gold.Chemscore.DEInternal.Weighted>
2.3023

> <Gold.Chemscore.Rot.Weighted>
4.1996

> <Gold.Chemscore.Internal.Correction.Weighted>
   9.000000E+99

> <Gold.Protein.RotatedTorsions>
[ 6907 6896 6895 6894 ] final   21.60 input  -60.11 | X-H torsion
[ 7974 7965 7964 7962 ] final -121.90 input  175.53 | X-H torsion
[ 8008 7997 7996 7995 ] final   87.19 input   59.86 | X-H torsion
[ 10167 10162 10161 10158 ] final  -59.41 input  -65.29 | X-H torsion
[ 10718 10713 10712 10709 ] final  -83.01 input   66.30 | X-H torsion
[ 10763 10752 10751 10750 ] final   65.19 input  -60.55 | X-H torsion
[ 11005 11000 10999 10996 ] final -161.35 input  -57.11 | X-H torsion

> <Gold.Protein.ActiveResidues>
 VAL166  LYS551  ARG553  GLY616  TRP617  ASP618  TYR619  PRO620  LYS621  CYS622 
 ASP623  PHE694  ASN695  SER759  ASP760  ASP761  ALA762  ILE779  LEU786  VAL792 
 PHE793  MET794  SER795  GLU796  ALA797  LYS798  CYS799  TRP800  GLU811  SER814 

> <Gold.Protein.RotatedAtoms>
  151.9142  135.0326  160.0516 H   0  0  0  0  0  0  0  0  0  0  0  0  # atno 6907 bound_to 6896
  152.2254  133.5011  159.5194 H   0  0  0  0  0  0  0  0  0  0  0  0  # atno 6908 bound_to 6896
  150.7011  134.1204  159.4075 H   0  0  0  0  0  0  0  0  0  0  0  0  # atno 6909 bound_to 6896
  145.0352  140.8100  143.4299 H   0  0  0  0  0  0  0  0  0  0  0  0  # atno 7974 bound_to 7965
  155.9722  140.3384  155.6586 H   0  0  0  0  0  0  0  0  0  0  0  0  # atno 8008 bound_to 7997
  155.6659  140.0721  157.2555 H   0  0  0  0  0  0  0  0  0  0  0  0  # atno 8009 bound_to 7997
  154.4169  140.1700  156.1814 H   0  0  0  0  0  0  0  0  0  0  0  0  # atno 8010 bound_to 7997
  140.6137  143.2395  151.5649 H   0  0  0  0  0  0  0  0  0  0  0  0  # atno 10167 bound_to 10162
  156.0024  130.4652  150.4191 H   0  0  0  0  0  0  0  0  0  0  0  0  # atno 10718 bound_to 10713
  153.0086  135.5366  154.6628 H   0  0  0  0  0  0  0  0  0  0  0  0  # atno 10763 bound_to 10752
  154.5832  135.2852  155.0714 H   0  0  0  0  0  0  0  0  0  0  0  0  # atno 10764 bound_to 10752
  154.1835  135.6512  153.5093 H   0  0  0  0  0  0  0  0  0  0  0  0  # atno 10765 bound_to 10752
  140.6213  134.4747  157.5224 H   0  0  0  0  0  0  0  0  0  0  0  0  # atno 11005 bound_to 11000
  145.1718  139.2400  143.5338 LP  0  0  0  0  0  0  0  0  0  0  0  0  # atno 17320 bound_to 7965
  146.3503  140.1471  142.8593 LP  0  0  0  0  0  0  0  0  0  0  0  0  # atno 17321 bound_to 7965
  139.5381  144.2724  152.1294 LP  0  0  0  0  0  0  0  0  0  0  0  0  # atno 17342 bound_to 10162
  140.1928  144.4734  150.6470 LP  0  0  0  0  0  0  0  0  0  0  0  0  # atno 17343 bound_to 10162
  157.2249  131.0491  151.2525 LP  0  0  0  0  0  0  0  0  0  0  0  0  # atno 17370 bound_to 10713
  157.3766  130.7209  149.6601 LP  0  0  0  0  0  0  0  0  0  0  0  0  # atno 17371 bound_to 10713
  139.9152  134.8261  156.1391 LP  0  0  0  0  0  0  0  0  0  0  0  0  # atno 17394 bound_to 11000
  141.0740  133.6784  156.2198 LP  0  0  0  0  0  0  0  0  0  0  0  0  # atno 17395 bound_to 11000

$$$$
