AV-unprocessed.smi:2027|AV-procd|sdf|8217|dock8
  -GOLD-   2272010483D 1   1.00000     0.00000
 Structure written by MMmdl.
 51 53  0  0  0  0  0  0  0  0  3 V2000
  145.7557  129.9893  152.3351 C   0  0  0  0  0  0  0  0  0  0  0  0
  145.7379  131.4776  152.0310 C   0  0  0  0  0  0  0  0  0  0  0  0
  144.5926  132.0253  151.4099 C   0  0  0  0  0  0  0  0  0  0  0  0
  144.6054  133.3899  151.1467 C   0  0  0  0  0  0  0  0  0  0  0  0
  143.6463  134.2187  150.5602 N   0  3  0  0  0  0  0  0  0  0  0  0
  144.1135  135.4974  150.5197 C   0  0  0  0  0  0  0  0  0  0  0  0
  145.3624  135.4947  151.0615 N   0  0  0  0  0  0  0  0  0  0  0  0
  146.3052  136.6002  151.2717 C   0  0  0  0  0  0  0  0  0  0  0  0
  145.8470  137.5969  152.3560 C   0  0  2  0  0  0  0  0  0  0  0  0
  144.5727  138.0789  151.9812 O   0  0  0  0  0  0  0  0  0  0  0  0
  146.7978  138.7979  152.5384 C   0  0  0  0  0  0  0  0  0  0  0  0
  146.2493  139.7900  153.5016 N   0  3  1  0  0  0  0  0  0  0  0  0
  146.0757  139.2275  154.8610 C   0  0  0  0  0  0  0  0  0  0  0  0
  146.9908  141.0756  153.5221 C   0  0  0  0  0  0  0  0  0  0  0  0
  148.3277  140.9232  154.1978 C   0  0  0  0  0  0  0  0  0  0  0  0
  149.3738  140.0119  153.8753 C   0  0  0  0  0  0  0  0  0  0  0  0
  150.4336  140.1491  154.6540 N   0  0  0  0  0  0  0  0  0  0  0  0
  150.0994  141.1394  155.5058 N   0  0  0  0  0  0  0  0  0  0  0  0
  151.0459  141.5605  156.5162 C   0  0  0  0  0  0  0  0  0  0  0  0
  148.8329  141.6223  155.2580 C   0  0  0  0  0  0  0  0  0  0  0  0
  145.7063  134.2038  151.4767 C   0  0  0  0  0  0  0  0  0  0  0  0
  146.8409  133.6815  152.0925 C   0  0  0  0  0  0  0  0  0  0  0  0
  146.8472  132.2956  152.3687 C   0  0  0  0  0  0  0  0  0  0  0  0
  148.0710  131.6967  153.0409 C   0  0  0  0  0  0  0  0  0  0  0  0
  144.8421  129.5011  151.9946 H   0  0  0  0  0  0  0  0  0  0  0  0
  145.8439  129.8199  153.4084 H   0  0  0  0  0  0  0  0  0  0  0  0
  146.5961  129.5057  151.8372 H   0  0  0  0  0  0  0  0  0  0  0  0
  143.7428  131.4091  151.1544 H   0  0  0  0  0  0  0  0  0  0  0  0
  143.5879  136.3566  150.1282 H   0  0  0  0  0  0  0  0  0  0  0  0
  147.2654  136.1597  151.5445 H   0  0  0  0  0  0  0  0  0  0  0  0
  146.4560  137.1040  150.3155 H   0  0  0  0  0  0  0  0  0  0  0  0
  145.7341  137.0666  153.3008 H   0  0  0  0  0  0  0  0  0  0  0  0
  144.4679  138.9571  152.3158 H   0  0  0  0  0  0  0  0  0  0  0  0
  147.7792  138.4746  152.8870 H   0  0  0  0  0  0  0  0  0  0  0  0
  146.9688  139.2503  151.5615 H   0  0  0  0  0  0  0  0  0  0  0  0
  147.0405  138.9925  155.3124 H   0  0  0  0  0  0  0  0  0  0  0  0
  145.4789  138.3158  154.8398 H   0  0  0  0  0  0  0  0  0  0  0  0
  145.5612  139.9377  155.5091 H   0  0  0  0  0  0  0  0  0  0  0  0
  147.1392  141.4194  152.4976 H   0  0  0  0  0  0  0  0  0  0  0  0
  146.3786  141.8365  154.0082 H   0  0  0  0  0  0  0  0  0  0  0  0
  149.3972  139.2650  153.0954 H   0  0  0  0  0  0  0  0  0  0  0  0
  150.5926  142.3103  157.1652 H   0  0  0  0  0  0  0  0  0  0  0  0
  151.9270  141.9905  156.0391 H   0  0  0  0  0  0  0  0  0  0  0  0
  151.3474  140.7048  157.1213 H   0  0  0  0  0  0  0  0  0  0  0  0
  148.4037  142.4211  155.8446 H   0  0  0  0  0  0  0  0  0  0  0  0
  147.6834  134.3048  152.3542 H   0  0  0  0  0  0  0  0  0  0  0  0
  148.8355  132.4520  153.2251 H   0  0  0  0  0  0  0  0  0  0  0  0
  148.5139  130.9223  152.4143 H   0  0  0  0  0  0  0  0  0  0  0  0
  147.8023  131.2546  154.0004 H   0  0  0  0  0  0  0  0  0  0  0  0
  145.3231  140.0191  153.1685 H   0  0  0  0  0  0  0  0  0  0  0  0
  142.7359  133.9363  150.2197 H   0  0  0  0  0  0  0  0  0  0  0  0
  1  2  1  0  0  0  0
  1 25  1  0  0  0  0
  1 26  1  0  0  0  0
  1 27  1  0  0  0  0
  2 23  1  0  0  0  0
  2  3  2  0  0  0  0
  3  4  1  0  0  0  0
  3 28  1  0  0  0  0
  4 21  2  0  0  0  0
  4  5  1  0  0  0  0
  5  6  2  0  0  0  0
  5 51  1  0  0  0  0
  6  7  1  0  0  0  0
  6 29  1  0  0  0  0
  7  8  1  0  0  0  0
  7 21  1  0  0  0  0
  8  9  1  0  0  0  0
  8 30  1  0  0  0  0
  8 31  1  0  0  0  0
  9 10  1  0  0  0  0
  9 11  1  0  0  0  0
  9 32  1  0  0  0  0
 10 33  1  0  0  0  0
 11 12  1  0  0  0  0
 11 34  1  0  0  0  0
 11 35  1  0  0  0  0
 12 13  1  0  0  0  0
 12 14  1  0  0  0  0
 12 50  1  0  0  0  0
 13 36  1  0  0  0  0
 13 37  1  0  0  0  0
 13 38  1  0  0  0  0
 14 15  1  0  0  0  0
 14 39  1  0  0  0  0
 14 40  1  0  0  0  0
 15 20  2  0  0  0  0
 15 16  1  0  0  0  0
 16 17  2  0  0  0  0
 16 41  1  0  0  0  0
 17 18  1  0  0  0  0
 18 19  1  0  0  0  0
 18 20  1  0  0  0  0
 19 42  1  0  0  0  0
 19 43  1  0  0  0  0
 19 44  1  0  0  0  0
 20 45  1  0  0  0  0
 21 22  1  0  0  0  0
 22 23  2  0  0  0  0
 22 46  1  0  0  0  0
 23 24  1  0  0  0  0
 24 47  1  0  0  0  0
 24 48  1  0  0  0  0
 24 49  1  0  0  0  0
M  CHG  1   5   1
M  CHG  1  12   1
M  END
> <s_m_source_file>
AV-unprocessed.smi

> <i_m_source_file_index>
2027

> <i_lp_mmshare_version>
43012

> <i_f3d_flags>
0

> <s_epik_input>
W0NIM11jKFtjSF0xKWMoW0NIM10pW2NIXWMoYzEyKW4oW2NIXW4yKVtDSDJdW0NASF0oW09IXSlbQ0gyXU4oW0NIM10pW0NIMl1jM1tjSF1ubihbQ0gzXSlbY0hdMw==

> <s_epik_cmdline>
J2VwaWtfcHl0aG9uJywgJy1waCcsICc3LjAnLCAnLXRuJywgJzgnLCAnLW1hJywgJzIwMCcsICctbWV0YWxfYmluZGluZycsICctaW1hZScsICc8aW5maWxlLm1hZT4nLCAnLW9tYWUnLCAnPG91dGZpbGUubWFlPic=

> <r_lp_tautomer_probability>
1

> <r_epik_Ionization_Penalty>
1.77469

> <r_epik_Ionization_Penalty_Charging>
1.77463

> <r_epik_Ionization_Penalty_Neutral>
6.41153e-05

> <r_epik_State_Penalty>
1.85225

> <r_epik_Charging_Adjusted_Penalty>
3.62688

> <i_epik_Tot_Q>
2

> <i_epik_Tot_abs_Q>
2

> <r_epik_Metal_State_Penalty>
1.92669

> <b_epik_Metal_Only>
0

> <s_lp_Force_Field>
OPLS_2005

> <r_lp_Energy>
21.1473

> <b_lp_Chiralities_Consistent>
1

> <s_lp_Variant>
AV-unprocessed.smi:2027-9

> <Gold.Version>
5.8.1

> <Gold.Id.Protein>
6NUR|6NUR_protein|mol2

> <Gold.PLP.Fitness>
70.6643

> <Gold.PLP.PLP>
-45.1591

> <Gold.PLP.part.hbond>
-4.3635

> <Gold.PLP.part.metal>
0.0000

> <Gold.PLP.part.buried>
2.5753

> <Gold.PLP.part.nonpolar>
-44.0301

> <Gold.PLP.part.repulsive>
0.0882

> <Gold.PLP.ligand.clash>
0.0000

> <Gold.PLP.ligand.torsion>
0.2083

> <Gold.PLP.Chemscore.Hbond>
5.9520

> <Gold.PLP.Chemscore.CHOScore>
2.6391

> <Gold.PLP.Chemscore.Metal>
0.0000

> <Gold.Chemscore.Hbonds>
donor molecule, donor type, donor heavy atom, donor atom, acceptor molecule, acceptor atom, score
      L1  H     5    51       P1 10186  1.95
      L1  H    10    33       P1 10175  1.00
      L1  H    12    50       P1 10175  2.00
      P1  H  7989  7998       L1    17  1.00
      L1  C     6    29       P1 10171  1.00
      L1  C    16    41       P1  7957  0.70
      L1  C    20    45       P1  8028  0.94

> <Gold.PLP.Chemscore.Internal.Correction>
0.1485

> <Gold.Rescore>
     Score         DG    S(hbond)    S(metal)    S(lipo)     H(rot)  DE(clash)    DE(int)     intcor
     19.19     -23.92       3.48        0.00     114.92       2.58       3.48       1.25       ----

> <Gold.Chemscore.Fitness>
19.1942

> <Gold.Chemscore.DG>
-23.9249

> <Gold.Chemscore.ZeroCoef>
-5.4800

> <Gold.Chemscore.Hbond>
3.4769

> <Gold.Chemscore.Metal>
0.0000

> <Gold.Chemscore.Lipo>
114.9210

> <Gold.Chemscore.Internal_Hbond>
0.0000

> <Gold.Chemscore.DEClash>
3.4763

> <Gold.Chemscore.DEInternal>
1.2544

> <Gold.Chemscore.Rot>
2.5836

> <Gold.Chemscore.Internal.Correction>
   9.000000E+99

> <Gold.Chemscore.Hbonds>
donor molecule, donor type, donor heavy atom, donor atom, acceptor molecule, acceptor atom, score
      L1  H     5    51       P1 10186  0.92
      L1  H    10    33       P1 10175  0.97
      L1  H    12    50       P1 10175  1.00
      P1  H  7989  7998       L1    17  0.16

> <Gold.Chemscore.Hbond.Weighted>
-11.6130

> <Gold.Chemscore.Metal.Weighted>
-0.0000

> <Gold.Chemscore.Lipo.Weighted>
-13.4458

> <Gold.Chemscore.Internal_Hbond.Weighted>
0.0000

> <Gold.Chemscore.DEClash.Weighted>
3.4763

> <Gold.Chemscore.DEInternal.Weighted>
1.2544

> <Gold.Chemscore.Rot.Weighted>
6.6139

> <Gold.Chemscore.Internal.Correction.Weighted>
   9.000000E+99

> <Gold.Protein.RotatedTorsions>
[ 6907 6896 6895 6894 ] final  -33.45 input  -60.11 | X-H torsion
[ 7974 7965 7964 7962 ] final  -57.95 input  175.53 | X-H torsion
[ 8008 7997 7996 7995 ] final  155.89 input   59.86 | X-H torsion
[ 10167 10162 10161 10158 ] final  104.95 input  -65.29 | X-H torsion
[ 10718 10713 10712 10709 ] final   64.28 input   66.30 | X-H torsion
[ 10763 10752 10751 10750 ] final   21.50 input  -60.55 | X-H torsion
[ 11005 11000 10999 10996 ] final  -65.50 input  -57.11 | X-H torsion

> <Gold.Protein.ActiveResidues>
 VAL166  LYS551  ARG553  GLY616  TRP617  ASP618  TYR619  PRO620  LYS621  CYS622 
 ASP623  PHE694  ASN695  SER759  ASP760  ASP761  ALA762  ILE779  LEU786  VAL792 
 PHE793  MET794  SER795  GLU796  ALA797  LYS798  CYS799  TRP800  GLU811  SER814 

> <Gold.Protein.RotatedAtoms>
  151.0655  134.9764  159.8281 H   0  0  0  0  0  0  0  0  0  0  0  0  # atno 6907 bound_to 6896
  152.5401  134.2364  159.8855 H   0  0  0  0  0  0  0  0  0  0  0  0  # atno 6908 bound_to 6896
  151.2386  133.4368  159.2640 H   0  0  0  0  0  0  0  0  0  0  0  0  # atno 6909 bound_to 6896
  145.8450  140.8391  143.0015 H   0  0  0  0  0  0  0  0  0  0  0  0  # atno 7974 bound_to 7965
  156.2453  140.1927  156.6871 H   0  0  0  0  0  0  0  0  0  0  0  0  # atno 8008 bound_to 7997
  154.6279  140.0600  156.9722 H   0  0  0  0  0  0  0  0  0  0  0  0  # atno 8009 bound_to 7997
  155.1758  140.3272  155.4387 H   0  0  0  0  0  0  0  0  0  0  0  0  # atno 8010 bound_to 7997
  139.7133  144.7073  151.0990 H   0  0  0  0  0  0  0  0  0  0  0  0  # atno 10167 bound_to 10162
  157.6029  130.9151  149.9825 H   0  0  0  0  0  0  0  0  0  0  0  0  # atno 10718 bound_to 10713
  153.0990  135.6667  153.9709 H   0  0  0  0  0  0  0  0  0  0  0  0  # atno 10763 bound_to 10752
  153.9285  135.3006  155.3447 H   0  0  0  0  0  0  0  0  0  0  0  0  # atno 10764 bound_to 10752
  154.7410  135.5079  153.9197 H   0  0  0  0  0  0  0  0  0  0  0  0  # atno 10765 bound_to 10752
  141.1456  133.6682  156.5995 H   0  0  0  0  0  0  0  0  0  0  0  0  # atno 11005 bound_to 11000
  144.6731  140.0868  143.7467 LP  0  0  0  0  0  0  0  0  0  0  0  0  # atno 17320 bound_to 7965
  145.9422  139.2677  143.1262 LP  0  0  0  0  0  0  0  0  0  0  0  0  # atno 17321 bound_to 7965
  140.7738  143.5263  150.9476 LP  0  0  0  0  0  0  0  0  0  0  0  0  # atno 17342 bound_to 10162
  139.8948  143.6908  152.3140 LP  0  0  0  0  0  0  0  0  0  0  0  0  # atno 17343 bound_to 10162
  156.1106  130.3650  150.0055 LP  0  0  0  0  0  0  0  0  0  0  0  0  # atno 17370 bound_to 10713
  156.8154  130.9339  151.3643 LP  0  0  0  0  0  0  0  0  0  0  0  0  # atno 17371 bound_to 10713
  140.3700  134.7614  157.4592 LP  0  0  0  0  0  0  0  0  0  0  0  0  # atno 17394 bound_to 11000
  140.0718  134.5852  155.8633 LP  0  0  0  0  0  0  0  0  0  0  0  0  # atno 17395 bound_to 11000

$$$$
