AV-unprocessed.smi:2079|AV-procd|sdf|8480|dock4
  -GOLD-   2272011183D 1   1.00000     0.00000
 Structure written by MMmdl.
 41 42  0  0  0  0  0  0  0  0  3 V2000
  144.1642  134.3757  162.9405 C   0  0  0  0  0  0  0  0  0  0  0  0
  145.3818  135.0402  162.3950 C   0  0  0  0  0  0  0  0  0  0  0  0
  145.5700  136.1953  161.6906 C   0  0  0  0  0  0  0  0  0  0  0  0
  146.9776  136.2311  161.4956 C   0  0  0  0  0  0  0  0  0  0  0  0
  147.6564  137.1813  160.8343 N   0  5  0  0  0  0  0  0  0  0  0  0
  148.3248  136.8755  159.6991 C   0  0  0  0  0  0  0  0  0  0  0  0
  148.8114  135.7810  159.4061 O   0  0  0  0  0  0  0  0  0  0  0  0
  148.4417  137.9048  158.8503 N   0  0  0  0  0  0  0  0  0  0  0  0
  149.1275  137.8586  157.5668 C   0  0  0  0  0  0  0  0  0  0  0  0
  150.6199  138.1796  157.7495 C   0  0  0  0  0  0  0  0  0  0  0  0
  150.8755  139.5652  158.2282 N   0  3  1  0  0  0  0  0  0  0  0  0
  152.2498  139.7128  158.7799 C   0  0  0  0  0  0  0  0  0  0  0  0
  152.4410  141.0763  159.4624 C   0  0  0  0  0  0  0  0  0  0  0  0
  152.1172  142.2229  158.4994 C   0  0  0  0  0  0  0  0  0  0  0  0
  150.7019  142.0423  157.9352 C   0  0  0  0  0  0  0  0  0  0  0  0
  150.5061  140.6603  157.2755 C   0  0  1  0  0  0  0  0  0  0  0  0
  151.2191  140.5600  155.9100 C   0  0  0  0  0  0  0  0  0  0  0  0
  147.5881  135.1823  162.0211 N   0  0  0  0  0  0  0  0  0  0  0  0
  146.5722  134.4171  162.6063 O   0  0  0  0  0  0  0  0  0  0  0  0
  143.4511  134.1652  162.1436 H   0  0  0  0  0  0  0  0  0  0  0  0
  143.6728  135.0147  163.6740 H   0  0  0  0  0  0  0  0  0  0  0  0
  144.4143  133.4326  163.4274 H   0  0  0  0  0  0  0  0  0  0  0  0
  144.8216  136.9032  161.3678 H   0  0  0  0  0  0  0  0  0  0  0  0
  148.0266  138.7834  159.1243 H   0  0  0  0  0  0  0  0  0  0  0  0
  148.9945  136.8623  157.1443 H   0  0  0  0  0  0  0  0  0  0  0  0
  148.6638  138.5718  156.8840 H   0  0  0  0  0  0  0  0  0  0  0  0
  151.0261  137.4840  158.4857 H   0  0  0  0  0  0  0  0  0  0  0  0
  151.1690  137.9916  156.8263 H   0  0  0  0  0  0  0  0  0  0  0  0
  152.4358  138.9260  159.5121 H   0  0  0  0  0  0  0  0  0  0  0  0
  152.9869  139.5781  157.9877 H   0  0  0  0  0  0  0  0  0  0  0  0
  151.7954  141.1405  160.3395 H   0  0  0  0  0  0  0  0  0  0  0  0
  153.4650  141.1720  159.8247 H   0  0  0  0  0  0  0  0  0  0  0  0
  152.1963  143.1800  159.0156 H   0  0  0  0  0  0  0  0  0  0  0  0
  152.8465  142.2465  157.6888 H   0  0  0  0  0  0  0  0  0  0  0  0
  149.9814  142.1555  158.7465 H   0  0  0  0  0  0  0  0  0  0  0  0
  150.4794  142.8378  157.2231 H   0  0  0  0  0  0  0  0  0  0  0  0
  149.4372  140.5832  157.0802 H   0  0  0  0  0  0  0  0  0  0  0  0
  150.9332  141.3916  155.2657 H   0  0  0  0  0  0  0  0  0  0  0  0
  150.9488  139.6475  155.3790 H   0  0  0  0  0  0  0  0  0  0  0  0
  152.3039  140.5825  156.0055 H   0  0  0  0  0  0  0  0  0  0  0  0
  150.2604  139.6860  159.0203 H   0  0  0  0  0  0  0  0  0  0  0  0
  1  2  1  0  0  0  0
  1 20  1  0  0  0  0
  1 21  1  0  0  0  0
  1 22  1  0  0  0  0
  2 19  1  0  0  0  0
  2  3  2  0  0  0  0
  3  4  1  0  0  0  0
  3 23  1  0  0  0  0
  4  5  1  0  0  0  0
  4 18  2  0  0  0  0
  5  6  1  0  0  0  0
  6  7  2  0  0  0  0
  6  8  1  0  0  0  0
  8  9  1  0  0  0  0
  8 24  1  0  0  0  0
  9 10  1  0  0  0  0
  9 25  1  0  0  0  0
  9 26  1  0  0  0  0
 10 11  1  0  0  0  0
 10 27  1  0  0  0  0
 10 28  1  0  0  0  0
 11 16  1  0  0  0  0
 11 12  1  0  0  0  0
 11 41  1  0  0  0  0
 12 13  1  0  0  0  0
 12 29  1  0  0  0  0
 12 30  1  0  0  0  0
 13 14  1  0  0  0  0
 13 31  1  0  0  0  0
 13 32  1  0  0  0  0
 14 15  1  0  0  0  0
 14 33  1  0  0  0  0
 14 34  1  0  0  0  0
 15 16  1  0  0  0  0
 15 35  1  0  0  0  0
 15 36  1  0  0  0  0
 16 17  1  0  0  0  0
 16 37  1  0  0  0  0
 17 38  1  0  0  0  0
 17 39  1  0  0  0  0
 17 40  1  0  0  0  0
 18 19  1  0  0  0  0
M  CHG  1   5  -1
M  CHG  1  11   1
M  END
> <s_m_source_file>
AV-unprocessed.smi

> <i_m_source_file_index>
2079

> <i_lp_mmshare_version>
43012

> <i_f3d_flags>
0

> <s_epik_input>
W0NIM11jMVtjSF1jKG5vMSlbTkhdQyg9TylbTkhdW0NIMl1bQ0gyXU4yW0NIMl1bQ0gyXVtDSDJdW0NIMl1bQ0BIXTJbQ0gzXQ==

> <s_epik_cmdline>
J2VwaWtfcHl0aG9uJywgJy1waCcsICc3LjAnLCAnLXRuJywgJzgnLCAnLW1hJywgJzIwMCcsICctbWV0YWxfYmluZGluZycsICctaW1hZScsICc8aW5maWxlLm1hZT4nLCAnLW9tYWUnLCAnPG91dGZpbGUubWFlPic=

> <r_epik_Ionization_Penalty>
6.22371

> <r_epik_Ionization_Penalty_Charging>
6.22362

> <r_epik_Ionization_Penalty_Neutral>
9.40454e-05

> <r_epik_State_Penalty>
6.22363

> <r_epik_Charging_Adjusted_Penalty>
12.4472

> <i_epik_Tot_Q>
0

> <i_epik_Tot_abs_Q>
2

> <r_epik_Metal_State_Penalty>
2.16675

> <b_epik_Metal_Only>
1

> <s_lp_Force_Field>
OPLS_2005

> <r_lp_Energy>
9.70106

> <b_lp_Chiralities_Consistent>
1

> <s_lp_Variant>
AV-unprocessed.smi:2079-6

> <Gold.Version>
5.8.1

> <Gold.Id.Protein>
6NUR|6NUR_protein|mol2

> <Gold.PLP.Fitness>
42.9779

> <Gold.PLP.PLP>
-30.8969

> <Gold.PLP.part.hbond>
-3.2882

> <Gold.PLP.part.metal>
0.0000

> <Gold.PLP.part.buried>
-6.8466

> <Gold.PLP.part.nonpolar>
-22.1431

> <Gold.PLP.part.repulsive>
0.4601

> <Gold.PLP.ligand.clash>
0.0000

> <Gold.PLP.ligand.torsion>
1.0378

> <Gold.PLP.Chemscore.Hbond>
4.6966

> <Gold.PLP.Chemscore.CHOScore>
0.0000

> <Gold.PLP.Chemscore.Metal>
0.0000

> <Gold.Chemscore.Hbonds>
donor molecule, donor type, donor heavy atom, donor atom, acceptor molecule, acceptor atom, score
      P1  H  6896  6907       L1     7  0.57
      P1  H  6931  6943       L1     5  1.65
      P1  H  6934  6947       L1     5  1.89

> <Gold.PLP.Chemscore.Internal.Correction>
0.0667

> <Gold.Rescore>
     Score         DG    S(hbond)    S(metal)    S(lipo)     H(rot)  DE(clash)    DE(int)     intcor
     14.06     -16.39       2.21        0.00      63.77       1.54       0.12       2.21       ----

> <Gold.Chemscore.Fitness>
14.0570

> <Gold.Chemscore.DG>
-16.3905

> <Gold.Chemscore.ZeroCoef>
-5.4800

> <Gold.Chemscore.Hbond>
2.2139

> <Gold.Chemscore.Metal>
0.0000

> <Gold.Chemscore.Lipo>
63.7679

> <Gold.Chemscore.Internal_Hbond>
0.0000

> <Gold.Chemscore.DEClash>
0.1214

> <Gold.Chemscore.DEInternal>
2.2122

> <Gold.Chemscore.Rot>
1.5409

> <Gold.Chemscore.Internal.Correction>
   9.000000E+99

> <Gold.Chemscore.Hbonds>
donor molecule, donor type, donor heavy atom, donor atom, acceptor molecule, acceptor atom, score
      P1  H  6896  6907       L1     7  0.56
      P1  H  6931  6943       L1     5  0.28
      P1  H  6934  6947       L1     5  0.74

> <Gold.Chemscore.Hbond.Weighted>
-7.3943

> <Gold.Chemscore.Metal.Weighted>
-0.0000

> <Gold.Chemscore.Lipo.Weighted>
-7.4608

> <Gold.Chemscore.Internal_Hbond.Weighted>
0.0000

> <Gold.Chemscore.DEClash.Weighted>
0.1214

> <Gold.Chemscore.DEInternal.Weighted>
2.2122

> <Gold.Chemscore.Rot.Weighted>
3.9446

> <Gold.Chemscore.Internal.Correction.Weighted>
   9.000000E+99

> <Gold.Protein.RotatedTorsions>
[ 6907 6896 6895 6894 ] final  -64.53 input  -60.11 | X-H torsion
[ 7974 7965 7964 7962 ] final  -23.66 input  175.53 | X-H torsion
[ 8008 7997 7996 7995 ] final -159.51 input   59.86 | X-H torsion
[ 10167 10162 10161 10158 ] final  104.59 input  -65.29 | X-H torsion
[ 10718 10713 10712 10709 ] final -116.94 input   66.30 | X-H torsion
[ 10763 10752 10751 10750 ] final -141.32 input  -60.55 | X-H torsion
[ 11005 11000 10999 10996 ] final  -97.10 input  -57.11 | X-H torsion

> <Gold.Protein.ActiveResidues>
 VAL166  LYS551  ARG553  GLY616  TRP617  ASP618  TYR619  PRO620  LYS621  CYS622 
 ASP623  PHE694  ASN695  SER759  ASP760  ASP761  ALA762  ILE779  LEU786  VAL792 
 PHE793  MET794  SER795  GLU796  ALA797  LYS798  CYS799  TRP800  GLU811  SER814 

> <Gold.Protein.RotatedAtoms>
  150.7580  134.6286  159.6173 H   0  0  0  0  0  0  0  0  0  0  0  0  # atno 6907 bound_to 6896
  152.3570  134.6922  160.0228 H   0  0  0  0  0  0  0  0  0  0  0  0  # atno 6908 bound_to 6896
  151.7325  133.3282  159.3380 H   0  0  0  0  0  0  0  0  0  0  0  0  # atno 6909 bound_to 6896
  146.1603  140.4645  142.8574 H   0  0  0  0  0  0  0  0  0  0  0  0  # atno 7974 bound_to 7965
  155.7636  140.0842  157.2143 H   0  0  0  0  0  0  0  0  0  0  0  0  # atno 8008 bound_to 7997
  154.4001  140.1538  156.2917 H   0  0  0  0  0  0  0  0  0  0  0  0  # atno 8009 bound_to 7997
  155.8816  140.3420  155.5894 H   0  0  0  0  0  0  0  0  0  0  0  0  # atno 8010 bound_to 7997
  139.7164  144.7067  151.0943 H   0  0  0  0  0  0  0  0  0  0  0  0  # atno 10167 bound_to 10162
  156.0999  130.6163  150.9100 H   0  0  0  0  0  0  0  0  0  0  0  0  # atno 10718 bound_to 10713
  154.8549  135.3528  154.5849 H   0  0  0  0  0  0  0  0  0  0  0  0  # atno 10763 bound_to 10752
  153.6459  135.6996  153.5230 H   0  0  0  0  0  0  0  0  0  0  0  0  # atno 10764 bound_to 10752
  153.2933  135.4228  155.1145 H   0  0  0  0  0  0  0  0  0  0  0  0  # atno 10765 bound_to 10752
  141.1390  133.8146  157.0660 H   0  0  0  0  0  0  0  0  0  0  0  0  # atno 11005 bound_to 11000
  144.8018  140.6226  143.6473 LP  0  0  0  0  0  0  0  0  0  0  0  0  # atno 17320 bound_to 7965
  145.4605  139.1513  143.3869 LP  0  0  0  0  0  0  0  0  0  0  0  0  # atno 17321 bound_to 7965
  140.7744  143.5224  150.9521 LP  0  0  0  0  0  0  0  0  0  0  0  0  # atno 17342 bound_to 10162
  139.8910  143.6953  152.3145 LP  0  0  0  0  0  0  0  0  0  0  0  0  # atno 17343 bound_to 10162
  157.6167  131.0933  150.8698 LP  0  0  0  0  0  0  0  0  0  0  0  0  # atno 17370 bound_to 10713
  156.8828  130.5185  149.5290 LP  0  0  0  0  0  0  0  0  0  0  0  0  # atno 17371 bound_to 10713
  140.0541  134.9790  157.1189 LP  0  0  0  0  0  0  0  0  0  0  0  0  # atno 17394 bound_to 11000
  140.3945  134.2148  155.7165 LP  0  0  0  0  0  0  0  0  0  0  0  0  # atno 17395 bound_to 11000

$$$$
