AV-unprocessed.smi:19|AV-procd|sdf|111|dock5
  -GOLD-   2262015273D 1   1.00000     0.00000
 Structure written by MMmdl.
 57 60  0  0  0  0  0  0  0  0  1 V2000
  154.5836  139.1444  160.0551 C   0  0  0  0  0  0  0  0  0  0  0  0
  153.4177  139.8645  159.6952 O   0  0  0  0  0  0  0  0  0  0  0  0
  153.6475  141.2608  159.6045 C   0  0  0  0  0  0  0  0  0  0  0  0
  152.3108  142.0008  159.7420 C   0  0  2  0  0  0  0  0  0  0  0  0
  151.3389  141.6431  158.6016 C   0  0  0  0  0  0  0  0  0  0  0  0
  150.1214  142.4437  158.7060 N   0  0  0  0  0  0  0  0  0  0  0  0
  149.0567  142.0918  157.9410 C   0  0  0  0  0  0  0  0  0  0  0  0
  147.7981  142.1623  158.4525 N   0  0  0  0  0  0  0  0  0  0  0  0
  146.7455  141.8100  157.7087 C   0  0  0  0  0  0  0  0  0  0  0  0
  146.7241  141.3679  156.4502 N   0  0  0  0  0  0  0  0  0  0  0  0
  147.9817  141.2987  155.9281 C   0  0  0  0  0  0  0  0  0  0  0  0
  149.1909  141.6428  156.5964 C   0  0  0  0  0  0  0  0  0  0  0  0
  150.2698  141.4675  155.7381 N   0  0  0  0  0  0  0  0  0  0  0  0
  149.7306  141.0366  154.6312 C   0  0  0  0  0  0  0  0  0  0  0  0
  148.3621  140.8878  154.6615 N   0  0  0  0  0  0  0  0  0  0  0  0
  147.5102  140.4303  153.5724 C   0  0  0  0  0  0  0  0  0  0  0  0
  146.9033  139.0086  153.7663 C   0  0  0  0  0  0  0  0  0  0  0  0
  146.3972  138.4342  152.4118 C   0  0  0  0  0  0  0  0  0  0  0  0
  147.3670  138.5355  151.3889 O   0  0  0  0  0  0  0  0  0  0  0  0
  147.9886  138.0987  154.3956 C   0  0  0  0  0  0  0  0  0  0  0  0
  147.4297  136.7564  154.8991 C   0  0  0  0  0  0  0  0  0  0  0  0
  146.3900  136.9911  155.8396 O   0  0  0  0  0  0  0  0  0  0  0  0
  145.2843  137.6824  155.2749 C   0  0  0  0  0  0  0  0  0  0  0  0
  145.7253  139.0701  154.7724 C   0  0  0  0  0  0  0  0  0  0  0  0
  150.3853  143.8771  158.7690 C   0  0  0  0  0  0  0  0  0  0  0  0
  151.3911  144.1828  159.8937 C   0  0  2  0  0  0  0  0  0  0  0  0
  151.7919  145.6614  159.9213 C   0  0  0  0  0  0  0  0  0  0  0  0
  152.5666  143.4028  159.6911 O   0  0  0  0  0  0  0  0  0  0  0  0
  154.3529  138.0812  160.1191 H   0  0  0  0  0  0  0  0  0  0  0  0
  154.9621  139.4658  161.0262 H   0  0  0  0  0  0  0  0  0  0  0  0
  155.3714  139.2735  159.3119 H   0  0  0  0  0  0  0  0  0  0  0  0
  154.3500  141.5914  160.3716 H   0  0  0  0  0  0  0  0  0  0  0  0
  154.0931  141.4840  158.6336 H   0  0  0  0  0  0  0  0  0  0  0  0
  151.8569  141.7406  160.7002 H   0  0  0  0  0  0  0  0  0  0  0  0
  151.8121  141.8264  157.6358 H   0  0  0  0  0  0  0  0  0  0  0  0
  151.0921  140.5814  158.6486 H   0  0  0  0  0  0  0  0  0  0  0  0
  145.7830  141.8924  158.1919 H   0  0  0  0  0  0  0  0  0  0  0  0
  150.3227  140.8090  153.7567 H   0  0  0  0  0  0  0  0  0  0  0  0
  146.7170  141.1651  153.4295 H   0  0  0  0  0  0  0  0  0  0  0  0
  148.1036  140.4622  152.6575 H   0  0  0  0  0  0  0  0  0  0  0  0
  146.1254  137.3837  152.4979 H   0  0  0  0  0  0  0  0  0  0  0  0
  145.4950  138.9495  152.0821 H   0  0  0  0  0  0  0  0  0  0  0  0
  147.9336  139.2669  151.5848 H   0  0  0  0  0  0  0  0  0  0  0  0
  148.8017  137.9199  153.6914 H   0  0  0  0  0  0  0  0  0  0  0  0
  148.4421  138.6106  155.2456 H   0  0  0  0  0  0  0  0  0  0  0  0
  147.0677  136.1366  154.0781 H   0  0  0  0  0  0  0  0  0  0  0  0
  148.2196  136.1895  155.3916 H   0  0  0  0  0  0  0  0  0  0  0  0
  144.8362  137.0887  154.4778 H   0  0  0  0  0  0  0  0  0  0  0  0
  144.5185  137.7947  156.0425 H   0  0  0  0  0  0  0  0  0  0  0  0
  146.0190  139.6647  155.6385 H   0  0  0  0  0  0  0  0  0  0  0  0
  144.8679  139.5787  154.3308 H   0  0  0  0  0  0  0  0  0  0  0  0
  150.7859  144.2024  157.8078 H   0  0  0  0  0  0  0  0  0  0  0  0
  149.4709  144.4446  158.9373 H   0  0  0  0  0  0  0  0  0  0  0  0
  150.9515  143.9242  160.8588 H   0  0  0  0  0  0  0  0  0  0  0  0
  150.9224  146.3010  160.0749 H   0  0  0  0  0  0  0  0  0  0  0  0
  152.2662  145.9592  158.9858 H   0  0  0  0  0  0  0  0  0  0  0  0
  152.4963  145.8590  160.7297 H   0  0  0  0  0  0  0  0  0  0  0  0
  1  2  1  0  0  0  0
  1 29  1  0  0  0  0
  1 30  1  0  0  0  0
  1 31  1  0  0  0  0
  2  3  1  0  0  0  0
  3  4  1  0  0  0  0
  3 32  1  0  0  0  0
  3 33  1  0  0  0  0
  4 28  1  0  0  0  0
  4  5  1  0  0  0  0
  4 34  1  0  0  0  0
  5  6  1  0  0  0  0
  5 35  1  0  0  0  0
  5 36  1  0  0  0  0
  6  7  1  0  0  0  0
  6 25  1  0  0  0  0
  7 12  1  0  0  0  0
  7  8  2  0  0  0  0
  8  9  1  0  0  0  0
  9 10  2  0  0  0  0
  9 37  1  0  0  0  0
 10 11  1  0  0  0  0
 11 15  1  0  0  0  0
 11 12  2  0  0  0  0
 12 13  1  0  0  0  0
 13 14  2  0  0  0  0
 14 15  1  0  0  0  0
 14 38  1  0  0  0  0
 15 16  1  0  0  0  0
 16 17  1  0  0  0  0
 16 39  1  0  0  0  0
 16 40  1  0  0  0  0
 17 24  1  0  0  0  0
 17 18  1  0  0  0  0
 17 20  1  0  0  0  0
 18 19  1  0  0  0  0
 18 41  1  0  0  0  0
 18 42  1  0  0  0  0
 19 43  1  0  0  0  0
 20 21  1  0  0  0  0
 20 44  1  0  0  0  0
 20 45  1  0  0  0  0
 21 22  1  0  0  0  0
 21 46  1  0  0  0  0
 21 47  1  0  0  0  0
 22 23  1  0  0  0  0
 23 24  1  0  0  0  0
 23 48  1  0  0  0  0
 23 49  1  0  0  0  0
 24 50  1  0  0  0  0
 24 51  1  0  0  0  0
 25 26  1  0  0  0  0
 25 52  1  0  0  0  0
 25 53  1  0  0  0  0
 26 27  1  0  0  0  0
 26 28  1  0  0  0  0
 26 54  1  0  0  0  0
 27 55  1  0  0  0  0
 27 56  1  0  0  0  0
 27 57  1  0  0  0  0
M  END
> <s_m_source_file>
AV-unprocessed.smi

> <i_m_source_file_index>
19

> <i_lp_mmshare_version>
43012

> <i_f3d_flags>
0

> <s_epik_input>
W0NIM11PW0NIMl1bQ0BASF0xW0NIMl1OKFtDSDJdW0NASF0oTzEpW0NIM10pYyhuW2NIXW4yKWMoYzIzKW5bY0hdbjNbQ0gyXUM0KFtDSDJdW09IXSlbQ0gyXVtDSDJdT1tDSDJdW0NIMl00

> <s_epik_cmdline>
J2VwaWtfcHl0aG9uJywgJy1waCcsICc3LjAnLCAnLXRuJywgJzgnLCAnLW1hJywgJzIwMCcsICctbWV0YWxfYmluZGluZycsICctaW1hZScsICc8aW5maWxlLm1hZT4nLCAnLW9tYWUnLCAnPG91dGZpbGUubWFlPic=

> <r_lp_tautomer_probability>
1

> <r_epik_Ionization_Penalty>
6.20357e-05

> <r_epik_Ionization_Penalty_Charging>
0

> <r_epik_Ionization_Penalty_Neutral>
6.20357e-05

> <r_epik_State_Penalty>
-0

> <r_epik_Charging_Adjusted_Penalty>
0

> <i_epik_Tot_Q>
0

> <i_epik_Tot_abs_Q>
0

> <r_epik_Metal_State_Penalty>
-0

> <b_epik_Metal_Only>
0

> <s_lp_Force_Field>
OPLS_2005

> <r_lp_Energy>
33.9592

> <b_lp_Chiralities_Consistent>
1

> <s_lp_Variant>
AV-unprocessed.smi:19-3

> <Gold.Version>
5.8.1

> <Gold.Id.Protein>
6NUR|6NUR_protein|mol2

> <Gold.PLP.Fitness>
46.0760

> <Gold.PLP.PLP>
-41.3334

> <Gold.PLP.part.hbond>
-3.0124

> <Gold.PLP.part.metal>
0.0000

> <Gold.PLP.part.buried>
-4.6176

> <Gold.PLP.part.nonpolar>
-33.1682

> <Gold.PLP.part.repulsive>
0.3564

> <Gold.PLP.ligand.clash>
0.0000

> <Gold.PLP.ligand.torsion>
1.1501

> <Gold.PLP.Chemscore.Hbond>
1.8800

> <Gold.PLP.Chemscore.CHOScore>
0.3507

> <Gold.PLP.Chemscore.Metal>
0.0000

> <Gold.Chemscore.Hbonds>
donor molecule, donor type, donor heavy atom, donor atom, acceptor molecule, acceptor atom, score
      L1  H    19    43       P1  7957  0.83
      P1  H  7954  7966       L1    19  1.00
      L1  C    14    38       P1  7957  0.35

> <Gold.PLP.Chemscore.Internal.Correction>
0.3508

> <Gold.Rescore>
     Score         DG    S(hbond)    S(metal)    S(lipo)     H(rot)  DE(clash)    DE(int)     intcor
     11.93     -13.37       1.35        0.00      91.67       2.87       0.11       1.33       ----

> <Gold.Chemscore.Fitness>
11.9305

> <Gold.Chemscore.DG>
-13.3731

> <Gold.Chemscore.ZeroCoef>
-5.4800

> <Gold.Chemscore.Hbond>
1.3540

> <Gold.Chemscore.Metal>
0.0000

> <Gold.Chemscore.Lipo>
91.6687

> <Gold.Chemscore.Internal_Hbond>
0.0000

> <Gold.Chemscore.DEClash>
0.1120

> <Gold.Chemscore.DEInternal>
1.3305

> <Gold.Chemscore.Rot>
2.8729

> <Gold.Chemscore.Internal.Correction>
   9.000000E+99

> <Gold.Chemscore.Hbonds>
donor molecule, donor type, donor heavy atom, donor atom, acceptor molecule, acceptor atom, score
      L1  H    19    43       P1  7957  0.81
      P1  H  7954  7966       L1    19  0.25

> <Gold.Chemscore.Hbond.Weighted>
-4.5225

> <Gold.Chemscore.Metal.Weighted>
-0.0000

> <Gold.Chemscore.Lipo.Weighted>
-10.7252

> <Gold.Chemscore.Internal_Hbond.Weighted>
0.0000

> <Gold.Chemscore.DEClash.Weighted>
0.1120

> <Gold.Chemscore.DEInternal.Weighted>
1.3305

> <Gold.Chemscore.Rot.Weighted>
7.3546

> <Gold.Chemscore.Internal.Correction.Weighted>
   9.000000E+99

> <Gold.Protein.RotatedTorsions>
[ 6907 6896 6895 6894 ] final -151.58 input  -60.11 | X-H torsion
[ 7974 7965 7964 7962 ] final  144.37 input  175.53 | X-H torsion
[ 8008 7997 7996 7995 ] final -100.00 input   59.86 | X-H torsion
[ 10167 10162 10161 10158 ] final -125.63 input  -65.29 | X-H torsion
[ 10718 10713 10712 10709 ] final   80.71 input   66.30 | X-H torsion
[ 10763 10752 10751 10750 ] final   88.65 input  -60.55 | X-H torsion
[ 11005 11000 10999 10996 ] final   49.82 input  -57.11 | X-H torsion

> <Gold.Protein.ActiveResidues>
 VAL166  LYS551  ARG553  GLY616  TRP617  ASP618  TYR619  PRO620  LYS621  CYS622 
 ASP623  PHE694  ASN695  SER759  ASP760  ASP761  ALA762  ILE779  LEU786  VAL792 
 PHE793  MET794  SER795  GLU796  ALA797  LYS798  CYS799  TRP800  GLU811  SER814 

> <Gold.Protein.RotatedAtoms>
  151.2151  133.4533  159.2598 H   0  0  0  0  0  0  0  0  0  0  0  0  # atno 6907 bound_to 6896
  151.0938  134.9932  159.8426 H   0  0  0  0  0  0  0  0  0  0  0  0  # atno 6908 bound_to 6896
  152.5437  134.2083  159.8792 H   0  0  0  0  0  0  0  0  0  0  0  0  # atno 6909 bound_to 6896
  144.8842  139.5654  143.5829 H   0  0  0  0  0  0  0  0  0  0  0  0  # atno 7974 bound_to 7965
  154.8226  140.0444  157.1421 H   0  0  0  0  0  0  0  0  0  0  0  0  # atno 8008 bound_to 7997
  154.9242  140.3031  155.5180 H   0  0  0  0  0  0  0  0  0  0  0  0  # atno 8009 bound_to 7997
  156.2981  140.2335  156.4296 H   0  0  0  0  0  0  0  0  0  0  0  0  # atno 8010 bound_to 7997
  139.9800  143.5753  152.2382 H   0  0  0  0  0  0  0  0  0  0  0  0  # atno 10167 bound_to 10162
  157.6813  130.9971  150.2119 H   0  0  0  0  0  0  0  0  0  0  0  0  # atno 10718 bound_to 10713
  153.1790  135.4499  155.0003 H   0  0  0  0  0  0  0  0  0  0  0  0  # atno 10763 bound_to 10752
  154.8017  135.3258  154.7535 H   0  0  0  0  0  0  0  0  0  0  0  0  # atno 10764 bound_to 10752
  153.8002  135.6963  153.4912 H   0  0  0  0  0  0  0  0  0  0  0  0  # atno 10765 bound_to 10752
  140.1071  134.5004  155.8711 H   0  0  0  0  0  0  0  0  0  0  0  0  # atno 11005 bound_to 11000
  146.3014  139.7437  142.9089 LP  0  0  0  0  0  0  0  0  0  0  0  0  # atno 17320 bound_to 7965
  145.3900  141.0371  143.3129 LP  0  0  0  0  0  0  0  0  0  0  0  0  # atno 17321 bound_to 7965
  139.6417  144.7655  151.2326 LP  0  0  0  0  0  0  0  0  0  0  0  0  # atno 17342 bound_to 10162
  140.7492  143.6306  150.8426 LP  0  0  0  0  0  0  0  0  0  0  0  0  # atno 17343 bound_to 10162
  156.2788  130.3731  149.7956 LP  0  0  0  0  0  0  0  0  0  0  0  0  # atno 17370 bound_to 10713
  156.5650  130.8400  151.3340 LP  0  0  0  0  0  0  0  0  0  0  0  0  # atno 17371 bound_to 10713
  141.2121  133.6715  156.6631 LP  0  0  0  0  0  0  0  0  0  0  0  0  # atno 17394 bound_to 11000
  140.3141  134.8061  157.4200 LP  0  0  0  0  0  0  0  0  0  0  0  0  # atno 17395 bound_to 11000

$$$$
