AV-unprocessed.smi:2404|AV-procd|sdf|9511|dock3
  -GOLD-   2272013143D 1   1.00000     0.00000
 Structure written by MMmdl.
 42 42  0  0  0  0  0  0  0  0  2 V2000
  149.2648  139.5468  154.4905 C   0  0  0  0  0  0  0  0  0  0  0  0
  149.5202  138.4190  155.5080 C   0  0  0  0  0  0  0  0  0  0  0  0
  150.8264  138.5309  156.3510 C   0  0  0  0  0  0  0  0  0  0  0  0
  150.7667  139.7460  157.3354 C   0  0  0  0  0  0  0  0  0  0  0  0
  151.9296  139.8710  158.3349 C   0  0  0  0  0  0  0  0  0  0  0  0
  151.0133  137.1939  157.1343 C   0  0  0  0  0  0  0  0  0  0  0  0
  149.7553  136.6379  157.6295 N   0  0  0  0  0  0  0  0  0  0  0  0
  149.4677  136.3441  158.9067 C   0  0  0  0  0  0  0  0  0  0  0  0
  150.1822  136.6546  159.8594 O   0  0  0  0  0  0  0  0  0  0  0  0
  148.1862  135.5416  159.1415 C   0  0  0  0  0  0  0  0  0  0  0  0
  147.9455  135.3539  160.5652 N   0  0  0  0  0  0  0  0  0  0  0  0
  147.9202  136.4344  161.3757 N   0  0  0  0  0  0  0  0  0  0  0  0
  147.6289  135.9543  162.5730 C   0  0  0  0  0  0  0  0  0  0  0  0
  147.4873  136.8973  163.7305 C   0  0  0  0  0  0  0  0  0  0  0  0
  147.4812  134.5391  162.5650 C   0  0  0  0  0  0  0  0  0  0  0  0
  147.6868  134.1858  161.2613 C   0  0  0  0  0  0  0  0  0  0  0  0
  147.6455  132.8429  160.6092 C   0  0  0  0  0  0  0  0  0  0  0  0
  152.0378  138.7017  155.3861 C   0  0  0  0  0  0  0  0  0  0  0  0
  152.7589  139.7196  155.4925 O   0  0  0  0  0  0  0  0  0  0  0  0
  152.2375  137.7874  154.5550 O   0  5  0  0  0  0  0  0  0  0  0  0
  148.3428  139.3594  153.9401 H   0  0  0  0  0  0  0  0  0  0  0  0
  150.0682  139.6257  153.7579 H   0  0  0  0  0  0  0  0  0  0  0  0
  149.1571  140.5146  154.9791 H   0  0  0  0  0  0  0  0  0  0  0  0
  148.6604  138.3554  156.1748 H   0  0  0  0  0  0  0  0  0  0  0  0
  149.5151  137.4712  154.9673 H   0  0  0  0  0  0  0  0  0  0  0  0
  150.7151  140.6774  156.7709 H   0  0  0  0  0  0  0  0  0  0  0  0
  149.8394  139.7147  157.9088 H   0  0  0  0  0  0  0  0  0  0  0  0
  151.7977  140.7567  158.9565 H   0  0  0  0  0  0  0  0  0  0  0  0
  152.8911  139.9726  157.8336 H   0  0  0  0  0  0  0  0  0  0  0  0
  151.9838  139.0135  159.0044 H   0  0  0  0  0  0  0  0  0  0  0  0
  151.5565  136.4651  156.5323 H   0  0  0  0  0  0  0  0  0  0  0  0
  151.6462  137.3613  158.0070 H   0  0  0  0  0  0  0  0  0  0  0  0
  149.0952  136.3390  156.9250 H   0  0  0  0  0  0  0  0  0  0  0  0
  147.3306  136.0555  158.7021 H   0  0  0  0  0  0  0  0  0  0  0  0
  148.2657  134.5706  158.6501 H   0  0  0  0  0  0  0  0  0  0  0  0
  147.2735  136.3585  164.6537 H   0  0  0  0  0  0  0  0  0  0  0  0
  146.6722  137.6018  163.5620 H   0  0  0  0  0  0  0  0  0  0  0  0
  148.4010  137.4717  163.8847 H   0  0  0  0  0  0  0  0  0  0  0  0
  147.2444  133.8839  163.3899 H   0  0  0  0  0  0  0  0  0  0  0  0
  147.5074  132.0552  161.3500 H   0  0  0  0  0  0  0  0  0  0  0  0
  148.5728  132.6401  160.0733 H   0  0  0  0  0  0  0  0  0  0  0  0
  146.8213  132.7815  159.8982 H   0  0  0  0  0  0  0  0  0  0  0  0
  1  2  1  0  0  0  0
  1 21  1  0  0  0  0
  1 22  1  0  0  0  0
  1 23  1  0  0  0  0
  2  3  1  0  0  0  0
  2 24  1  0  0  0  0
  2 25  1  0  0  0  0
  3  4  1  0  0  0  0
  3  6  1  0  0  0  0
  3 18  1  0  0  0  0
  4  5  1  0  0  0  0
  4 26  1  0  0  0  0
  4 27  1  0  0  0  0
  5 28  1  0  0  0  0
  5 29  1  0  0  0  0
  5 30  1  0  0  0  0
  6  7  1  0  0  0  0
  6 31  1  0  0  0  0
  6 32  1  0  0  0  0
  7  8  1  0  0  0  0
  7 33  1  0  0  0  0
  8  9  2  0  0  0  0
  8 10  1  0  0  0  0
 10 11  1  0  0  0  0
 10 34  1  0  0  0  0
 10 35  1  0  0  0  0
 11 16  1  0  0  0  0
 11 12  1  0  0  0  0
 12 13  2  0  0  0  0
 13 14  1  0  0  0  0
 13 15  1  0  0  0  0
 14 36  1  0  0  0  0
 14 37  1  0  0  0  0
 14 38  1  0  0  0  0
 15 16  2  0  0  0  0
 15 39  1  0  0  0  0
 16 17  1  0  0  0  0
 17 40  1  0  0  0  0
 17 41  1  0  0  0  0
 17 42  1  0  0  0  0
 18 19  2  0  0  0  0
 18 20  1  0  0  0  0
M  CHG  1  20  -1
M  END
> <s_m_source_file>
AV-unprocessed.smi

> <i_m_source_file_index>
2404

> <i_lp_mmshare_version>
43012

> <i_f3d_flags>
0

> <s_epik_input>
W0NIM11bQ0gyXUMoW0NIMl1bQ0gzXSkoQyg9TylbT0hdKVtDSDJdW05IXUMoPU8pW0NIMl1uMW5jKFtDSDNdKVtjSF1jMVtDSDNd

> <s_epik_cmdline>
J2VwaWtfcHl0aG9uJywgJy1waCcsICc3LjAnLCAnLXRuJywgJzgnLCAnLW1hJywgJzIwMCcsICctbWV0YWxfYmluZGluZycsICctaW1hZScsICc8aW5maWxlLm1hZT4nLCAnLW9tYWUnLCAnPG91dGZpbGUubWFlPic=

> <r_lp_tautomer_probability>
1

> <r_epik_Ionization_Penalty>
0.00271888

> <r_epik_Ionization_Penalty_Charging>
0.00235221

> <r_epik_Ionization_Penalty_Neutral>
0.000366676

> <r_epik_State_Penalty>
-0

> <r_epik_Charging_Adjusted_Penalty>
0.00235221

> <i_epik_Tot_Q>
-1

> <i_epik_Tot_abs_Q>
1

> <r_epik_Metal_State_Penalty>
-0

> <b_epik_Metal_Only>
0

> <s_lp_Force_Field>
OPLS_2005

> <r_lp_Energy>
2.14996

> <b_lp_Chiralities_Consistent>
1

> <s_lp_Variant>
AV-unprocessed.smi:2404-1

> <Gold.Version>
5.8.1

> <Gold.Id.Protein>
6NUR|6NUR_protein|mol2

> <Gold.PLP.Fitness>
52.2920

> <Gold.PLP.PLP>
-35.8516

> <Gold.PLP.part.hbond>
-5.5572

> <Gold.PLP.part.metal>
0.0000

> <Gold.PLP.part.buried>
-3.6603

> <Gold.PLP.part.nonpolar>
-28.4367

> <Gold.PLP.part.repulsive>
0.1855

> <Gold.PLP.ligand.clash>
0.0000

> <Gold.PLP.ligand.torsion>
0.5355

> <Gold.PLP.Chemscore.Hbond>
5.7921

> <Gold.PLP.Chemscore.CHOScore>
0.0000

> <Gold.PLP.Chemscore.Metal>
0.0000

> <Gold.Chemscore.Hbonds>
donor molecule, donor type, donor heavy atom, donor atom, acceptor molecule, acceptor atom, score
      P1  H  6896  6909       L1     9  1.00
      P1  H  6931  6943       L1    12  0.60
      P1  H  7997  8008       L1    19  2.00
      P1  H 10752 10765       L1    20  0.66

> <Gold.PLP.Chemscore.Internal.Correction>
0.1351

> <Gold.Rescore>
     Score         DG    S(hbond)    S(metal)    S(lipo)     H(rot)  DE(clash)    DE(int)     intcor
     15.01     -18.66       3.11        0.00      76.73       2.42       0.25       3.40       ----

> <Gold.Chemscore.Fitness>
15.0056

> <Gold.Chemscore.DG>
-18.6575

> <Gold.Chemscore.ZeroCoef>
-5.4800

> <Gold.Chemscore.Hbond>
3.1094

> <Gold.Chemscore.Metal>
0.0000

> <Gold.Chemscore.Lipo>
76.7260

> <Gold.Chemscore.Internal_Hbond>
0.0000

> <Gold.Chemscore.DEClash>
0.2523

> <Gold.Chemscore.DEInternal>
3.3995

> <Gold.Chemscore.Rot>
2.4159

> <Gold.Chemscore.Internal.Correction>
   9.000000E+99

> <Gold.Chemscore.Hbonds>
donor molecule, donor type, donor heavy atom, donor atom, acceptor molecule, acceptor atom, score
      P1  H  6896  6909       L1     9  0.25
      P1  H  6931  6943       L1    12  0.18
      P1  H  7997  8008       L1    19  1.00
      P1  H 10752 10765       L1    20  0.33

> <Gold.Chemscore.Hbond.Weighted>
-10.3853

> <Gold.Chemscore.Metal.Weighted>
-0.0000

> <Gold.Chemscore.Lipo.Weighted>
-8.9769

> <Gold.Chemscore.Internal_Hbond.Weighted>
0.0000

> <Gold.Chemscore.DEClash.Weighted>
0.2523

> <Gold.Chemscore.DEInternal.Weighted>
3.3995

> <Gold.Chemscore.Rot.Weighted>
6.1848

> <Gold.Chemscore.Internal.Correction.Weighted>
   9.000000E+99

> <Gold.Protein.RotatedTorsions>
[ 6907 6896 6895 6894 ] final  105.12 input  -60.11 | X-H torsion
[ 7974 7965 7964 7962 ] final -123.53 input  175.53 | X-H torsion
[ 8008 7997 7996 7995 ] final  -37.20 input   59.86 | X-H torsion
[ 10167 10162 10161 10158 ] final  -41.72 input  -65.29 | X-H torsion
[ 10718 10713 10712 10709 ] final  -11.22 input   66.30 | X-H torsion
[ 10763 10752 10751 10750 ] final  164.14 input  -60.55 | X-H torsion
[ 11005 11000 10999 10996 ] final  -38.19 input  -57.11 | X-H torsion

> <Gold.Protein.ActiveResidues>
 VAL166  LYS551  ARG553  GLY616  TRP617  ASP618  TYR619  PRO620  LYS621  CYS622 
 ASP623  PHE694  ASN695  SER759  ASP760  ASP761  ALA762  ILE779  LEU786  VAL792 
 PHE793  MET794  SER795  GLU796  ALA797  LYS798  CYS799  TRP800  GLU811  SER814 

> <Gold.Protein.RotatedAtoms>
  152.5241  133.9575  159.7701 H   0  0  0  0  0  0  0  0  0  0  0  0  # atno 6907 bound_to 6896
  150.9872  133.6177  159.2720 H   0  0  0  0  0  0  0  0  0  0  0  0  # atno 6908 bound_to 6896
  151.3333  135.0853  159.9399 H   0  0  0  0  0  0  0  0  0  0  0  0  # atno 6909 bound_to 6896
  145.0177  140.7961  143.4400 H   0  0  0  0  0  0  0  0  0  0  0  0  # atno 7974 bound_to 7965
  154.4058  140.1610  156.2498 H   0  0  0  0  0  0  0  0  0  0  0  0  # atno 8008 bound_to 7997
  155.9129  140.3426  155.6090 H   0  0  0  0  0  0  0  0  0  0  0  0  # atno 8009 bound_to 7997
  155.7315  140.0781  157.2277 H   0  0  0  0  0  0  0  0  0  0  0  0  # atno 8010 bound_to 7997
  140.6993  143.3078  151.3107 H   0  0  0  0  0  0  0  0  0  0  0  0  # atno 10167 bound_to 10162
  156.6622  130.4985  149.6027 H   0  0  0  0  0  0  0  0  0  0  0  0  # atno 10718 bound_to 10713
  154.3043  135.2758  155.2596 H   0  0  0  0  0  0  0  0  0  0  0  0  # atno 10763 bound_to 10752
  154.5019  135.5806  153.6541 H   0  0  0  0  0  0  0  0  0  0  0  0  # atno 10764 bound_to 10752
  152.9896  135.6160  154.3216 H   0  0  0  0  0  0  0  0  0  0  0  0  # atno 10765 bound_to 10752
  141.0009  133.6956  156.2021 H   0  0  0  0  0  0  0  0  0  0  0  0  # atno 11005 bound_to 11000
  145.1937  139.2288  143.5229 LP  0  0  0  0  0  0  0  0  0  0  0  0  # atno 17320 bound_to 7965
  146.3480  140.1739  142.8589 LP  0  0  0  0  0  0  0  0  0  0  0  0  # atno 17321 bound_to 7965
  139.6490  144.0397  152.2612 LP  0  0  0  0  0  0  0  0  0  0  0  0  # atno 17342 bound_to 10162
  139.9927  144.6350  150.7799 LP  0  0  0  0  0  0  0  0  0  0  0  0  # atno 17343 bound_to 10162
  156.2002  130.6615  151.1159 LP  0  0  0  0  0  0  0  0  0  0  0  0  # atno 17370 bound_to 10713
  157.7106  131.0736  150.6515 LP  0  0  0  0  0  0  0  0  0  0  0  0  # atno 17371 bound_to 10713
  140.6890  134.4686  157.5589 LP  0  0  0  0  0  0  0  0  0  0  0  0  # atno 17394 bound_to 11000
  139.9038  134.8495  156.1786 LP  0  0  0  0  0  0  0  0  0  0  0  0  # atno 17395 bound_to 11000

$$$$
