AV-unprocessed.smi:661|AV-procd|sdf|3241|dock1
  -GOLD-   22720 0193D 1   1.00000     0.00000
 Structure written by MMmdl.
 30 31  0  0  0  0  0  0  0  0  1 V2000
  153.0765  138.7909  154.6943 C   0  0  0  0  0  0  0  0  0  0  0  0
  151.6784  139.1707  154.7884 N   0  0  0  0  0  0  0  0  0  0  0  0
  151.2132  138.9867  156.1532 C   0  0  0  0  0  0  0  0  0  0  0  0
  151.4752  140.1859  157.0108 C   0  0  0  0  0  0  0  0  0  0  0  0
  152.5758  140.2851  157.7570 N   0  0  0  0  0  0  0  0  0  0  0  0
  152.4154  141.5106  158.3737 C   0  0  0  0  0  0  0  0  0  0  0  0
  153.2452  142.1925  159.2922 C   0  0  0  0  0  0  0  0  0  0  0  0
  152.8662  143.4539  159.7966 C   0  0  0  0  0  0  0  0  0  0  0  0
  151.6546  144.0500  159.3911 C   0  0  0  0  0  0  0  0  0  0  0  0
  150.8133  143.3879  158.4763 C   0  0  0  0  0  0  0  0  0  0  0  0
  151.1968  142.1296  157.9752 C   0  0  0  0  0  0  0  0  0  0  0  0
  150.6140  141.2326  157.0859 N   0  0  0  0  0  0  0  0  0  0  0  0
  149.3404  141.4125  156.4052 C   0  0  0  0  0  0  0  0  0  0  0  0
  149.4903  141.2877  154.8828 C   0  0  0  0  0  0  0  0  0  0  0  0
  148.8205  142.3559  154.2500 O   0  0  0  0  0  0  0  0  0  0  0  0
  153.4267  138.9181  153.6698 H   0  0  0  0  0  0  0  0  0  0  0  0
  153.2164  137.7460  154.9738 H   0  0  0  0  0  0  0  0  0  0  0  0
  153.6936  139.4127  155.3440 H   0  0  0  0  0  0  0  0  0  0  0  0
  151.1373  138.5774  154.1756 H   0  0  0  0  0  0  0  0  0  0  0  0
  150.1404  138.7888  156.1421 H   0  0  0  0  0  0  0  0  0  0  0  0
  151.6869  138.1134  156.6024 H   0  0  0  0  0  0  0  0  0  0  0  0
  154.1751  141.7443  159.6093 H   0  0  0  0  0  0  0  0  0  0  0  0
  153.5082  143.9659  160.4983 H   0  0  0  0  0  0  0  0  0  0  0  0
  151.3715  145.0161  159.7830 H   0  0  0  0  0  0  0  0  0  0  0  0
  149.8838  143.8406  158.1640 H   0  0  0  0  0  0  0  0  0  0  0  0
  148.6452  140.6588  156.7773 H   0  0  0  0  0  0  0  0  0  0  0  0
  148.9124  142.3787  156.6705 H   0  0  0  0  0  0  0  0  0  0  0  0
  150.5406  141.3059  154.5919 H   0  0  0  0  0  0  0  0  0  0  0  0
  149.0694  140.3461  154.5286 H   0  0  0  0  0  0  0  0  0  0  0  0
  149.0781  143.1624  154.6701 H   0  0  0  0  0  0  0  0  0  0  0  0
  1  2  1  0  0  0  0
  1 16  1  0  0  0  0
  1 17  1  0  0  0  0
  1 18  1  0  0  0  0
  2  3  1  0  0  0  0
  2 19  1  0  0  0  0
  3  4  1  0  0  0  0
  3 20  1  0  0  0  0
  3 21  1  0  0  0  0
  4 12  1  0  0  0  0
  4  5  2  0  0  0  0
  5  6  1  0  0  0  0
  6 11  2  0  0  0  0
  6  7  1  0  0  0  0
  7  8  2  0  0  0  0
  7 22  1  0  0  0  0
  8  9  1  0  0  0  0
  8 23  1  0  0  0  0
  9 10  2  0  0  0  0
  9 24  1  0  0  0  0
 10 11  1  0  0  0  0
 10 25  1  0  0  0  0
 11 12  1  0  0  0  0
 12 13  1  0  0  0  0
 13 14  1  0  0  0  0
 13 26  1  0  0  0  0
 13 27  1  0  0  0  0
 14 15  1  0  0  0  0
 14 28  1  0  0  0  0
 14 29  1  0  0  0  0
 15 30  1  0  0  0  0
M  END
> <s_m_source_file>
AV-unprocessed.smi

> <i_m_source_file_index>
661

> <i_lp_mmshare_version>
43012

> <i_f3d_flags>
0

> <s_epik_input>
W0NIM11bTkhdW0NIMl1jKG4xKW4oW0NIMl1bQ0gyXVtPSF0pYyhjMTIpW2NIXVtjSF1bY0hdW2NIXTI=

> <s_epik_cmdline>
J2VwaWtfcHl0aG9uJywgJy1waCcsICc3LjAnLCAnLXRuJywgJzgnLCAnLW1hJywgJzIwMCcsICctbWV0YWxfYmluZGluZycsICctaW1hZScsICc8aW5maWxlLm1hZT4nLCAnLW9tYWUnLCAnPG91dGZpbGUubWFlPic=

> <r_epik_Ionization_Penalty>
1.98932

> <r_epik_Ionization_Penalty_Charging>
0

> <r_epik_Ionization_Penalty_Neutral>
1.98932

> <r_epik_State_Penalty>
1.95598

> <r_epik_Charging_Adjusted_Penalty>
1.95598

> <i_epik_Tot_Q>
0

> <i_epik_Tot_abs_Q>
0

> <r_epik_Metal_State_Penalty>
1.80219

> <b_epik_Metal_Only>
0

> <s_lp_Force_Field>
OPLS_2005

> <r_lp_Energy>
9.98392

> <b_lp_Chiralities_Consistent>
1

> <s_lp_Variant>
AV-unprocessed.smi:661-2

> <Gold.Version>
5.8.1

> <Gold.Id.Protein>
6NUR|6NUR_protein|mol2

> <Gold.PLP.Fitness>
40.2802

> <Gold.PLP.PLP>
-33.1816

> <Gold.PLP.part.hbond>
-4.0000

> <Gold.PLP.part.metal>
0.0000

> <Gold.PLP.part.buried>
-2.8990

> <Gold.PLP.part.nonpolar>
-24.6819

> <Gold.PLP.part.repulsive>
0.0000

> <Gold.PLP.ligand.clash>
0.0000

> <Gold.PLP.ligand.torsion>
0.8724

> <Gold.PLP.Chemscore.Hbond>
2.9312

> <Gold.PLP.Chemscore.CHOScore>
0.0000

> <Gold.PLP.Chemscore.Metal>
0.0000

> <Gold.Chemscore.Hbonds>
donor molecule, donor type, donor heavy atom, donor atom, acceptor molecule, acceptor atom, score
      L1  H    15    30       P1  8028  1.00
      P1  H  7989  7998       L1     2  0.57
      P1  H  7997  8009       L1     5  0.80
      P1  H  8011  8017       L1    15  0.15

> <Gold.PLP.Chemscore.Internal.Correction>
0.0498

> <Gold.Rescore>
     Score         DG    S(hbond)    S(metal)    S(lipo)     H(rot)  DE(clash)    DE(int)     intcor
     15.09     -15.97       1.87        0.00      86.64       2.30       0.01       0.87       ----

> <Gold.Chemscore.Fitness>
15.0854

> <Gold.Chemscore.DG>
-15.9717

> <Gold.Chemscore.ZeroCoef>
-5.4800

> <Gold.Chemscore.Hbond>
1.8715

> <Gold.Chemscore.Metal>
0.0000

> <Gold.Chemscore.Lipo>
86.6398

> <Gold.Chemscore.Internal_Hbond>
0.0000

> <Gold.Chemscore.DEClash>
0.0136

> <Gold.Chemscore.DEInternal>
0.8728

> <Gold.Chemscore.Rot>
2.3031

> <Gold.Chemscore.Internal.Correction>
   9.000000E+99

> <Gold.Chemscore.Hbonds>
donor molecule, donor type, donor heavy atom, donor atom, acceptor molecule, acceptor atom, score
      L1  H    15    30       P1  8028  0.99
      P1  H  7989  7998       L1     2  0.02
      P1  H  7997  8009       L1     5  0.59
      P1  H  8011  8017       L1    15  0.02

> <Gold.Chemscore.Hbond.Weighted>
-6.2509

> <Gold.Chemscore.Metal.Weighted>
-0.0000

> <Gold.Chemscore.Lipo.Weighted>
-10.1369

> <Gold.Chemscore.Internal_Hbond.Weighted>
0.0000

> <Gold.Chemscore.DEClash.Weighted>
0.0136

> <Gold.Chemscore.DEInternal.Weighted>
0.8728

> <Gold.Chemscore.Rot.Weighted>
5.8960

> <Gold.Chemscore.Internal.Correction.Weighted>
   9.000000E+99

> <Gold.Protein.RotatedTorsions>
[ 6907 6896 6895 6894 ] final -168.80 input  -60.11 | X-H torsion
[ 7974 7965 7964 7962 ] final -172.90 input  175.53 | X-H torsion
[ 8008 7997 7996 7995 ] final  174.31 input   59.86 | X-H torsion
[ 10167 10162 10161 10158 ] final -118.36 input  -65.29 | X-H torsion
[ 10718 10713 10712 10709 ] final -129.40 input   66.30 | X-H torsion
[ 10763 10752 10751 10750 ] final    8.69 input  -60.55 | X-H torsion
[ 11005 11000 10999 10996 ] final   -2.02 input  -57.11 | X-H torsion

> <Gold.Protein.ActiveResidues>
 VAL166  LYS551  ARG553  GLY616  TRP617  ASP618  TYR619  PRO620  LYS621  CYS622 
 ASP623  PHE694  ASN695  SER759  ASP760  ASP761  ALA762  ILE779  LEU786  VAL792 
 PHE793  MET794  SER795  GLU796  ALA797  LYS798  CYS799  TRP800  GLU811  SER814 

> <Gold.Protein.RotatedAtoms>
  151.4813  133.3546  159.2838 H   0  0  0  0  0  0  0  0  0  0  0  0  # atno 6907 bound_to 6896
  150.8895  134.8299  159.7294 H   0  0  0  0  0  0  0  0  0  0  0  0  # atno 6908 bound_to 6896
  152.4814  134.4721  159.9690 H   0  0  0  0  0  0  0  0  0  0  0  0  # atno 6909 bound_to 6896
  144.7142  140.1702  143.6368 H   0  0  0  0  0  0  0  0  0  0  0  0  # atno 7974 bound_to 7965
  156.0987  140.1437  156.9497 H   0  0  0  0  0  0  0  0  0  0  0  0  # atno 8008 bound_to 7997
  154.4688  140.0917  156.7136 H   0  0  0  0  0  0  0  0  0  0  0  0  # atno 8009 bound_to 7997
  155.4798  140.3444  155.4340 H   0  0  0  0  0  0  0  0  0  0  0  0  # atno 8010 bound_to 7997
  140.0583  143.4993  152.2045 H   0  0  0  0  0  0  0  0  0  0  0  0  # atno 10167 bound_to 10162
  156.2043  130.6878  151.0576 H   0  0  0  0  0  0  0  0  0  0  0  0  # atno 10718 bound_to 10713
  153.2223  135.6882  153.7986 H   0  0  0  0  0  0  0  0  0  0  0  0  # atno 10763 bound_to 10752
  153.7180  135.3272  155.3261 H   0  0  0  0  0  0  0  0  0  0  0  0  # atno 10764 bound_to 10752
  154.8275  135.4606  154.1075 H   0  0  0  0  0  0  0  0  0  0  0  0  # atno 10765 bound_to 10752
  140.6537  133.9381  155.8395 H   0  0  0  0  0  0  0  0  0  0  0  0  # atno 11005 bound_to 11000
  145.8950  139.2397  143.1527 LP  0  0  0  0  0  0  0  0  0  0  0  0  # atno 17320 bound_to 7965
  145.9866  140.8638  143.0087 LP  0  0  0  0  0  0  0  0  0  0  0  0  # atno 17321 bound_to 7965
  139.5910  144.7550  151.3402 LP  0  0  0  0  0  0  0  0  0  0  0  0  # atno 17342 bound_to 10162
  140.7184  143.7203  150.7701 LP  0  0  0  0  0  0  0  0  0  0  0  0  # atno 17343 bound_to 10162
  157.7003  131.0778  150.6840 LP  0  0  0  0  0  0  0  0  0  0  0  0  # atno 17370 bound_to 10713
  156.6898  130.4591  149.5603 LP  0  0  0  0  0  0  0  0  0  0  0  0  # atno 17371 bound_to 10713
  141.0517  134.0475  157.3775 LP  0  0  0  0  0  0  0  0  0  0  0  0  # atno 17394 bound_to 11000
  139.9037  135.0173  156.7387 LP  0  0  0  0  0  0  0  0  0  0  0  0  # atno 17395 bound_to 11000

$$$$
