AV-unprocessed.smi:2725|AV-procd|sdf|10518|dock6
  -GOLD-   2272014563D 1   1.00000     0.00000
 Structure written by MMmdl.
 45 46  0  0  0  0  0  0  0  0  2 V2000
  151.0371  140.3355  154.8563 O   0  0  0  0  0  0  0  0  0  0  0  0
  150.4230  141.0808  155.6198 C   0  0  0  0  0  0  0  0  0  0  0  0
  151.0333  141.4936  156.9625 C   0  0  0  0  0  0  0  0  0  0  0  0
  150.5139  142.8546  157.4636 C   0  0  0  0  0  0  0  0  0  0  0  0
  151.5409  143.6162  158.3201 C   0  0  0  0  0  0  0  0  0  0  0  0
  151.9694  142.8854  159.5974 C   0  0  0  0  0  0  0  0  0  0  0  0
  152.5012  143.9757  160.5364 C   0  0  0  0  0  0  0  0  0  0  0  0
  151.9615  145.3108  160.0013 C   0  0  0  0  0  0  0  0  0  0  0  0
  151.0211  144.9551  158.8469 C   0  0  0  0  0  0  0  0  0  0  0  0
  149.2073  141.5779  155.3408 N   0  0  0  0  0  0  0  0  0  0  0  0
  148.4478  141.3257  154.1174 C   0  0  1  0  0  0  0  0  0  0  0  0
  148.0435  139.8348  154.0518 C   0  0  0  0  0  0  0  0  0  0  0  0
  147.6624  139.4674  152.7427 O   0  0  0  0  0  0  0  0  0  0  0  0
  147.2543  142.3044  154.0676 C   0  0  0  0  0  0  0  0  0  0  0  0
  146.2471  142.1083  155.1871 C   0  0  0  0  0  0  0  0  0  0  0  0
  146.5660  142.3874  156.5338 C   0  0  0  0  0  0  0  0  0  0  0  0
  145.5838  142.1993  157.5285 C   0  0  0  0  0  0  0  0  0  0  0  0
  144.3044  141.7374  157.1567 C   0  0  0  0  0  0  0  0  0  0  0  0
  144.0391  141.4755  155.7971 C   0  0  0  0  0  0  0  0  0  0  0  0
  145.0066  141.6676  154.8737 N   0  3  0  0  0  0  0  0  0  0  0  0
  150.8083  140.7136  157.6902 H   0  0  0  0  0  0  0  0  0  0  0  0
  152.1197  141.5309  156.8693 H   0  0  0  0  0  0  0  0  0  0  0  0
  150.2469  143.4722  156.6046 H   0  0  0  0  0  0  0  0  0  0  0  0
  149.5954  142.7172  158.0362 H   0  0  0  0  0  0  0  0  0  0  0  0
  152.4305  143.8140  157.7197 H   0  0  0  0  0  0  0  0  0  0  0  0
  151.1051  142.4044  160.0574 H   0  0  0  0  0  0  0  0  0  0  0  0
  152.7111  142.1097  159.4041 H   0  0  0  0  0  0  0  0  0  0  0  0
  152.1814  143.7946  161.5631 H   0  0  0  0  0  0  0  0  0  0  0  0
  153.5917  143.9869  160.5324 H   0  0  0  0  0  0  0  0  0  0  0  0
  151.4538  145.8910  160.7727 H   0  0  0  0  0  0  0  0  0  0  0  0
  152.7892  145.9162  159.6299 H   0  0  0  0  0  0  0  0  0  0  0  0
  150.9972  145.7272  158.0773 H   0  0  0  0  0  0  0  0  0  0  0  0
  150.0056  144.8371  159.2281 H   0  0  0  0  0  0  0  0  0  0  0  0
  148.7781  142.1815  156.0271 H   0  0  0  0  0  0  0  0  0  0  0  0
  149.1034  141.5533  153.2739 H   0  0  0  0  0  0  0  0  0  0  0  0
  148.8850  139.1952  154.3210 H   0  0  0  0  0  0  0  0  0  0  0  0
  147.2400  139.6095  154.7533 H   0  0  0  0  0  0  0  0  0  0  0  0
  148.2101  139.9328  152.1286 H   0  0  0  0  0  0  0  0  0  0  0  0
  147.6136  143.3345  154.0854 H   0  0  0  0  0  0  0  0  0  0  0  0
  146.7247  142.1885  153.1207 H   0  0  0  0  0  0  0  0  0  0  0  0
  147.5493  142.7456  156.8022 H   0  0  0  0  0  0  0  0  0  0  0  0
  145.8091  142.4085  158.5641 H   0  0  0  0  0  0  0  0  0  0  0  0
  143.5379  141.5882  157.9031 H   0  0  0  0  0  0  0  0  0  0  0  0
  143.0892  141.1229  155.4228 H   0  0  0  0  0  0  0  0  0  0  0  0
  144.7901  141.4767  153.8952 H   0  0  0  0  0  0  0  0  0  0  0  0
  1  2  2  0  0  0  0
  2  3  1  0  0  0  0
  2 10  1  0  0  0  0
  3  4  1  0  0  0  0
  3 21  1  0  0  0  0
  3 22  1  0  0  0  0
  4  5  1  0  0  0  0
  4 23  1  0  0  0  0
  4 24  1  0  0  0  0
  5  9  1  0  0  0  0
  5  6  1  0  0  0  0
  5 25  1  0  0  0  0
  6  7  1  0  0  0  0
  6 26  1  0  0  0  0
  6 27  1  0  0  0  0
  7  8  1  0  0  0  0
  7 28  1  0  0  0  0
  7 29  1  0  0  0  0
  8  9  1  0  0  0  0
  8 30  1  0  0  0  0
  8 31  1  0  0  0  0
  9 32  1  0  0  0  0
  9 33  1  0  0  0  0
 10 11  1  0  0  0  0
 10 34  1  0  0  0  0
 11 12  1  0  0  0  0
 11 14  1  0  0  0  0
 11 35  1  0  0  0  0
 12 13  1  0  0  0  0
 12 36  1  0  0  0  0
 12 37  1  0  0  0  0
 13 38  1  0  0  0  0
 14 15  1  0  0  0  0
 14 39  1  0  0  0  0
 14 40  1  0  0  0  0
 15 20  1  0  0  0  0
 15 16  2  0  0  0  0
 16 17  1  0  0  0  0
 16 41  1  0  0  0  0
 17 18  2  0  0  0  0
 17 42  1  0  0  0  0
 18 19  1  0  0  0  0
 18 43  1  0  0  0  0
 19 20  2  0  0  0  0
 19 44  1  0  0  0  0
 20 45  1  0  0  0  0
M  CHG  1  20   1
M  END
> <s_m_source_file>
AV-unprocessed.smi

> <i_m_source_file_index>
2725

> <i_lp_mmshare_version>
43012

> <i_f3d_flags>
0

> <s_epik_input>
W0NIMl0xW0NIMl1bQ0gyXVtDSDJdW0NIXTFbQ0gyXVtDSDJdQyg9TylbTkhdW0NASF0oW0NIMl1bT0hdKVtDSDJdYzJbY0hdW2NIXVtjSF1bY0hdbjI=

> <s_epik_cmdline>
J2VwaWtfcHl0aG9uJywgJy1waCcsICc3LjAnLCAnLXRuJywgJzgnLCAnLW1hJywgJzIwMCcsICctbWV0YWxfYmluZGluZycsICctaW1hZScsICc8aW5maWxlLm1hZT4nLCAnLW9tYWUnLCAnPG91dGZpbGUubWFlPic=

> <r_epik_Ionization_Penalty>
1.87189

> <r_epik_Ionization_Penalty_Charging>
1.87189

> <r_epik_Ionization_Penalty_Neutral>
6.79411e-08

> <r_epik_State_Penalty>
1.99097

> <r_epik_Charging_Adjusted_Penalty>
3.86287

> <i_epik_Tot_Q>
1

> <i_epik_Tot_abs_Q>
1

> <r_epik_Metal_State_Penalty>
2.01578

> <b_epik_Metal_Only>
0

> <s_lp_Force_Field>
OPLS_2005

> <r_lp_Energy>
28.0453

> <b_lp_Chiralities_Consistent>
1

> <s_lp_Variant>
AV-unprocessed.smi:2725-4

> <Gold.Version>
5.8.1

> <Gold.Id.Protein>
6NUR|6NUR_protein|mol2

> <Gold.PLP.Fitness>
51.5005

> <Gold.PLP.PLP>
-41.0112

> <Gold.PLP.part.hbond>
-3.5348

> <Gold.PLP.part.metal>
0.0000

> <Gold.PLP.part.buried>
-4.9847

> <Gold.PLP.part.nonpolar>
-33.0270

> <Gold.PLP.part.repulsive>
0.2044

> <Gold.PLP.ligand.clash>
0.0000

> <Gold.PLP.ligand.torsion>
0.8124

> <Gold.PLP.Chemscore.Hbond>
4.0000

> <Gold.PLP.Chemscore.CHOScore>
0.0000

> <Gold.PLP.Chemscore.Metal>
0.0000

> <Gold.Chemscore.Hbonds>
donor molecule, donor type, donor heavy atom, donor atom, acceptor molecule, acceptor atom, score
      L1  H    13    38       P1  7957  1.00
      L1  H    20    45       P1 10175  1.98
      P1  H  7989  7998       L1     1  1.00

> <Gold.PLP.Chemscore.Internal.Correction>
0.1141

> <Gold.Rescore>
     Score         DG    S(hbond)    S(metal)    S(lipo)     H(rot)  DE(clash)    DE(int)     intcor
     18.79     -19.96       2.84        0.00      99.02       2.58       0.11       1.06       ----

> <Gold.Chemscore.Fitness>
18.7924

> <Gold.Chemscore.DG>
-19.9590

> <Gold.Chemscore.ZeroCoef>
-5.4800

> <Gold.Chemscore.Hbond>
2.8416

> <Gold.Chemscore.Metal>
0.0000

> <Gold.Chemscore.Lipo>
99.0229

> <Gold.Chemscore.Internal_Hbond>
0.0000

> <Gold.Chemscore.DEClash>
0.1112

> <Gold.Chemscore.DEInternal>
1.0554

> <Gold.Chemscore.Rot>
2.5773

> <Gold.Chemscore.Internal.Correction>
   9.000000E+99

> <Gold.Chemscore.Hbonds>
donor molecule, donor type, donor heavy atom, donor atom, acceptor molecule, acceptor atom, score
      L1  H    13    38       P1  7957  0.96
      L1  H    20    45       P1 10175  0.22
      P1  H  7989  7998       L1     1  0.95

> <Gold.Chemscore.Hbond.Weighted>
-9.4911

> <Gold.Chemscore.Metal.Weighted>
-0.0000

> <Gold.Chemscore.Lipo.Weighted>
-11.5857

> <Gold.Chemscore.Internal_Hbond.Weighted>
0.0000

> <Gold.Chemscore.DEClash.Weighted>
0.1112

> <Gold.Chemscore.DEInternal.Weighted>
1.0554

> <Gold.Chemscore.Rot.Weighted>
6.5978

> <Gold.Chemscore.Internal.Correction.Weighted>
   9.000000E+99

> <Gold.Protein.RotatedTorsions>
[ 6907 6896 6895 6894 ] final  119.38 input  -60.11 | X-H torsion
[ 7974 7965 7964 7962 ] final   -7.70 input  175.53 | X-H torsion
[ 8008 7997 7996 7995 ] final -122.85 input   59.86 | X-H torsion
[ 10167 10162 10161 10158 ] final -106.04 input  -65.29 | X-H torsion
[ 10718 10713 10712 10709 ] final    2.77 input   66.30 | X-H torsion
[ 10763 10752 10751 10750 ] final  162.04 input  -60.55 | X-H torsion
[ 11005 11000 10999 10996 ] final  -25.24 input  -57.11 | X-H torsion

> <Gold.Protein.ActiveResidues>
 VAL166  LYS551  ARG553  GLY616  TRP617  ASP618  TYR619  PRO620  LYS621  CYS622 
 ASP623  PHE694  ASN695  SER759  ASP760  ASP761  ALA762  ILE779  LEU786  VAL792 
 PHE793  MET794  SER795  GLU796  ALA797  LYS798  CYS799  TRP800  GLU811  SER814 

> <Gold.Protein.RotatedAtoms>
  152.4476  133.7566  159.6723 H   0  0  0  0  0  0  0  0  0  0  0  0  # atno 6907 bound_to 6896
  150.8379  133.7972  159.3078 H   0  0  0  0  0  0  0  0  0  0  0  0  # atno 6908 bound_to 6896
  151.5606  135.1068  160.0023 H   0  0  0  0  0  0  0  0  0  0  0  0  # atno 6909 bound_to 6896
  146.2300  140.2359  142.8342 H   0  0  0  0  0  0  0  0  0  0  0  0  # atno 7974 bound_to 7965
  155.1710  140.0408  157.2863 H   0  0  0  0  0  0  0  0  0  0  0  0  # atno 8008 bound_to 7997
  154.6269  140.2514  155.7453 H   0  0  0  0  0  0  0  0  0  0  0  0  # atno 8009 bound_to 7997
  156.2464  140.2883  156.0603 H   0  0  0  0  0  0  0  0  0  0  0  0  # atno 8010 bound_to 7997
  140.1921  143.3884  152.1198 H   0  0  0  0  0  0  0  0  0  0  0  0  # atno 10167 bound_to 10162
  156.8680  130.5610  149.5659 H   0  0  0  0  0  0  0  0  0  0  0  0  # atno 10718 bound_to 10713
  154.2722  135.2765  155.2733 H   0  0  0  0  0  0  0  0  0  0  0  0  # atno 10763 bound_to 10752
  154.5291  135.5734  153.6747 H   0  0  0  0  0  0  0  0  0  0  0  0  # atno 10764 bound_to 10752
  152.9943  135.6223  154.2877 H   0  0  0  0  0  0  0  0  0  0  0  0  # atno 10765 bound_to 10752
  140.8920  133.7582  156.0433 H   0  0  0  0  0  0  0  0  0  0  0  0  # atno 11005 bound_to 11000
  144.9522  140.8190  143.5565 LP  0  0  0  0  0  0  0  0  0  0  0  0  # atno 17320 bound_to 7965
  145.2320  139.2110  143.5037 LP  0  0  0  0  0  0  0  0  0  0  0  0  # atno 17321 bound_to 7965
  139.5252  144.7092  151.5258 LP  0  0  0  0  0  0  0  0  0  0  0  0  # atno 17342 bound_to 10162
  140.6449  143.8815  150.6727 LP  0  0  0  0  0  0  0  0  0  0  0  0  # atno 17343 bound_to 10162
  156.0742  130.5768  150.9441 LP  0  0  0  0  0  0  0  0  0  0  0  0  # atno 17370 bound_to 10713
  157.6212  131.0929  150.8618 LP  0  0  0  0  0  0  0  0  0  0  0  0  # atno 17371 bound_to 10713
  140.8335  134.3150  157.5340 LP  0  0  0  0  0  0  0  0  0  0  0  0  # atno 17394 bound_to 11000
  139.8731  134.9377  156.3693 LP  0  0  0  0  0  0  0  0  0  0  0  0  # atno 17395 bound_to 11000

$$$$
