AV-unprocessed.smi:1642|AV-procd|sdf|6571|dock1
  -GOLD-   22720 7253D 1   1.00000     0.00000
 Structure written by MMmdl.
 34 35  0  0  0  0  0  0  0  0  3 V2000
  151.5019  142.0482  157.5411 C   0  0  0  0  0  0  0  0  0  0  0  0
  151.2286  141.0471  156.4717 C   0  0  0  0  0  0  0  0  0  0  0  0
  150.5366  141.3416  155.3685 N   0  0  0  0  0  0  0  0  0  0  0  0
  150.4091  140.2485  154.5241 N   0  0  0  0  0  0  0  0  0  0  0  0
  150.9955  139.1426  155.0031 C   0  0  0  0  0  0  0  0  0  0  0  0
  150.9821  137.9755  154.3380 N   0  5  0  0  0  0  0  0  0  0  0  0
  150.9893  136.8104  155.0222 C   0  0  0  0  0  0  0  0  0  0  0  0
  151.7686  136.4953  155.9240 O   0  0  0  0  0  0  0  0  0  0  0  0
  150.0438  135.9481  154.6242 N   0  0  0  0  0  0  0  0  0  0  0  0
  149.8510  134.5940  155.1371 C   0  0  0  0  0  0  0  0  0  0  0  0
  149.3501  133.6143  154.0556 C   0  0  0  0  0  0  0  0  0  0  0  0
  148.0083  133.9733  153.5379 N   0  3  0  0  0  0  0  0  0  0  0  0
  147.4541  133.0159  152.5642 C   0  0  0  0  0  0  0  0  0  0  0  0
  145.9500  133.2998  152.5203 C   0  0  0  0  0  0  0  0  0  0  0  0
  145.6323  134.0384  153.8266 C   0  0  0  0  0  0  0  0  0  0  0  0
  146.9675  134.1559  154.5673 C   0  0  0  0  0  0  0  0  0  0  0  0
  151.7881  139.3853  156.5597 S   0  0  0  0  0  0  0  0  0  0  0  0
  150.5779  142.2980  158.0628 H   0  0  0  0  0  0  0  0  0  0  0  0
  151.9181  142.9577  157.1074 H   0  0  0  0  0  0  0  0  0  0  0  0
  152.2144  141.6481  158.2628 H   0  0  0  0  0  0  0  0  0  0  0  0
  149.4149  136.2567  153.8970 H   0  0  0  0  0  0  0  0  0  0  0  0
  150.7765  134.2273  155.5838 H   0  0  0  0  0  0  0  0  0  0  0  0
  149.1234  134.6512  155.9468 H   0  0  0  0  0  0  0  0  0  0  0  0
  150.0495  133.6270  153.2186 H   0  0  0  0  0  0  0  0  0  0  0  0
  149.3501  132.5925  154.4372 H   0  0  0  0  0  0  0  0  0  0  0  0
  147.9283  133.1182  151.5876 H   0  0  0  0  0  0  0  0  0  0  0  0
  147.6248  131.9978  152.9179 H   0  0  0  0  0  0  0  0  0  0  0  0
  145.7105  133.9373  151.6683 H   0  0  0  0  0  0  0  0  0  0  0  0
  145.3723  132.3809  152.4160 H   0  0  0  0  0  0  0  0  0  0  0  0
  145.2348  135.0294  153.6037 H   0  0  0  0  0  0  0  0  0  0  0  0
  144.8877  133.5135  154.4260 H   0  0  0  0  0  0  0  0  0  0  0  0
  147.0445  133.3597  155.3095 H   0  0  0  0  0  0  0  0  0  0  0  0
  147.0733  135.1102  155.0844 H   0  0  0  0  0  0  0  0  0  0  0  0
  148.0990  134.8546  153.0514 H   0  0  0  0  0  0  0  0  0  0  0  0
  1  2  1  0  0  0  0
  1 18  1  0  0  0  0
  1 19  1  0  0  0  0
  1 20  1  0  0  0  0
  2 17  1  0  0  0  0
  2  3  2  0  0  0  0
  3  4  1  0  0  0  0
  4  5  2  0  0  0  0
  5  6  1  0  0  0  0
  5 17  1  0  0  0  0
  6  7  1  0  0  0  0
  7  8  2  0  0  0  0
  7  9  1  0  0  0  0
  9 10  1  0  0  0  0
  9 21  1  0  0  0  0
 10 11  1  0  0  0  0
 10 22  1  0  0  0  0
 10 23  1  0  0  0  0
 11 12  1  0  0  0  0
 11 24  1  0  0  0  0
 11 25  1  0  0  0  0
 12 16  1  0  0  0  0
 12 13  1  0  0  0  0
 12 34  1  0  0  0  0
 13 14  1  0  0  0  0
 13 26  1  0  0  0  0
 13 27  1  0  0  0  0
 14 15  1  0  0  0  0
 14 28  1  0  0  0  0
 14 29  1  0  0  0  0
 15 16  1  0  0  0  0
 15 30  1  0  0  0  0
 15 31  1  0  0  0  0
 16 32  1  0  0  0  0
 16 33  1  0  0  0  0
M  CHG  1   6  -1
M  CHG  1  12   1
M  END
> <s_m_source_file>
AV-unprocessed.smi

> <i_m_source_file_index>
1642

> <i_lp_mmshare_version>
43012

> <i_f3d_flags>
0

> <s_epik_input>
W0NIM11jMW5uYyhzMSlbTkhdQyg9TylbTkhdW0NIMl1bQ0gyXU4yW0NIMl1bQ0gyXVtDSDJdW0NIMl0y

> <s_epik_cmdline>
J2VwaWtfcHl0aG9uJywgJy1waCcsICc3LjAnLCAnLXRuJywgJzgnLCAnLW1hJywgJzIwMCcsICctbWV0YWxfYmluZGluZycsICctaW1hZScsICc8aW5maWxlLm1hZT4nLCAnLW9tYWUnLCAnPG91dGZpbGUubWFlPic=

> <r_lp_tautomer_probability>
1

> <r_epik_Ionization_Penalty>
3.03741

> <r_epik_Ionization_Penalty_Charging>
2.9298

> <r_epik_Ionization_Penalty_Neutral>
0.107609

> <r_epik_State_Penalty>
2.92509

> <r_epik_Charging_Adjusted_Penalty>
5.85489

> <i_epik_Tot_Q>
0

> <i_epik_Tot_abs_Q>
2

> <r_epik_Metal_State_Penalty>
0.448209

> <b_epik_Metal_Only>
1

> <s_lp_Force_Field>
OPLS_2005

> <r_lp_Energy>
24.3805

> <b_lp_Chiralities_Consistent>
1

> <s_lp_Variant>
AV-unprocessed.smi:1642-2

> <Gold.Version>
5.8.1

> <Gold.Id.Protein>
6NUR|6NUR_protein|mol2

> <Gold.PLP.Fitness>
40.4077

> <Gold.PLP.PLP>
-28.1035

> <Gold.PLP.part.hbond>
-5.6493

> <Gold.PLP.part.metal>
0.0000

> <Gold.PLP.part.buried>
-2.2196

> <Gold.PLP.part.nonpolar>
-20.2092

> <Gold.PLP.part.repulsive>
0.5157

> <Gold.PLP.ligand.clash>
0.0000

> <Gold.PLP.ligand.torsion>
0.8439

> <Gold.PLP.Chemscore.Hbond>
4.6260

> <Gold.PLP.Chemscore.CHOScore>
0.0000

> <Gold.PLP.Chemscore.Metal>
0.0000

> <Gold.Chemscore.Hbonds>
donor molecule, donor type, donor heavy atom, donor atom, acceptor molecule, acceptor atom, score
      L1  H     9    21       P1  7948  0.84
      L1  H    12    34       P1  7948  2.00
      P1  H  7989  7998       L1     4  0.55
      P1  H 10752 10763       L1     8  1.00

> <Gold.PLP.Chemscore.Internal.Correction>
0.1140

> <Gold.Rescore>
     Score         DG    S(hbond)    S(metal)    S(lipo)     H(rot)  DE(clash)    DE(int)     intcor
     12.64     -15.03       2.48        0.00      45.88       1.60       0.39       2.00       ----

> <Gold.Chemscore.Fitness>
12.6353

> <Gold.Chemscore.DG>
-15.0278

> <Gold.Chemscore.ZeroCoef>
-5.4800

> <Gold.Chemscore.Hbond>
2.4783

> <Gold.Chemscore.Metal>
0.0000

> <Gold.Chemscore.Lipo>
45.8835

> <Gold.Chemscore.Internal_Hbond>
0.0000

> <Gold.Chemscore.DEClash>
0.3905

> <Gold.Chemscore.DEInternal>
2.0019

> <Gold.Chemscore.Rot>
1.6008

> <Gold.Chemscore.Internal.Correction>
   9.000000E+99

> <Gold.Chemscore.Hbonds>
donor molecule, donor type, donor heavy atom, donor atom, acceptor molecule, acceptor atom, score
      L1  H     9    21       P1  7948  0.61
      L1  H    12    34       P1  7948  0.85
      P1  H  7989  7998       L1     4  0.01
      P1  H 10752 10763       L1     8  0.30

> <Gold.Chemscore.Hbond.Weighted>
-8.2776

> <Gold.Chemscore.Metal.Weighted>
-0.0000

> <Gold.Chemscore.Lipo.Weighted>
-5.3684

> <Gold.Chemscore.Internal_Hbond.Weighted>
0.0000

> <Gold.Chemscore.DEClash.Weighted>
0.3905

> <Gold.Chemscore.DEInternal.Weighted>
2.0019

> <Gold.Chemscore.Rot.Weighted>
4.0982

> <Gold.Chemscore.Internal.Correction.Weighted>
   9.000000E+99

> <Gold.Protein.RotatedTorsions>
[ 6907 6896 6895 6894 ] final  -88.68 input  -60.11 | X-H torsion
[ 7974 7965 7964 7962 ] final  143.00 input  175.53 | X-H torsion
[ 8008 7997 7996 7995 ] final  -69.55 input   59.86 | X-H torsion
[ 10167 10162 10161 10158 ] final  -41.26 input  -65.29 | X-H torsion
[ 10718 10713 10712 10709 ] final  -60.35 input   66.30 | X-H torsion
[ 10763 10752 10751 10750 ] final   81.65 input  -60.55 | X-H torsion
[ 11005 11000 10999 10996 ] final  -52.29 input  -57.11 | X-H torsion

> <Gold.Protein.ActiveResidues>
 VAL166  LYS551  ARG553  GLY616  TRP617  ASP618  TYR619  PRO620  LYS621  CYS622 
 ASP623  PHE694  ASN695  SER759  ASP760  ASP761  ALA762  ILE779  LEU786  VAL792 
 PHE793  MET794  SER795  GLU796  ALA797  LYS798  CYS799  TRP800  GLU811  SER814 

> <Gold.Protein.RotatedAtoms>
  150.6870  134.2704  159.4585 H   0  0  0  0  0  0  0  0  0  0  0  0  # atno 6907 bound_to 6896
  152.0627  134.9581  160.0584 H   0  0  0  0  0  0  0  0  0  0  0  0  # atno 6908 bound_to 6896
  152.1002  133.4211  159.4620 H   0  0  0  0  0  0  0  0  0  0  0  0  # atno 6909 bound_to 6896
  144.8958  139.5493  143.5777 H   0  0  0  0  0  0  0  0  0  0  0  0  # atno 7974 bound_to 7965
  154.4947  140.0851  156.7671 H   0  0  0  0  0  0  0  0  0  0  0  0  # atno 8008 bound_to 7997
  155.4145  140.3443  155.4248 H   0  0  0  0  0  0  0  0  0  0  0  0  # atno 8009 bound_to 7997
  156.1378  140.1520  156.8956 H   0  0  0  0  0  0  0  0  0  0  0  0  # atno 8010 bound_to 7997
  140.7008  143.3105  151.3041 H   0  0  0  0  0  0  0  0  0  0  0  0  # atno 10167 bound_to 10162
  156.0997  130.4188  150.0842 H   0  0  0  0  0  0  0  0  0  0  0  0  # atno 10718 bound_to 10713
  153.1135  135.4758  154.9075 H   0  0  0  0  0  0  0  0  0  0  0  0  # atno 10763 bound_to 10752
  154.7504  135.3104  154.8570 H   0  0  0  0  0  0  0  0  0  0  0  0  # atno 10764 bound_to 10752
  153.9153  135.6861  153.4803 H   0  0  0  0  0  0  0  0  0  0  0  0  # atno 10765 bound_to 10752
  141.0916  133.6631  156.4002 H   0  0  0  0  0  0  0  0  0  0  0  0  # atno 11005 bound_to 11000
  146.3080  139.7648  142.9041 LP  0  0  0  0  0  0  0  0  0  0  0  0  # atno 17320 bound_to 7965
  145.3702  141.0341  143.3235 LP  0  0  0  0  0  0  0  0  0  0  0  0  # atno 17321 bound_to 7965
  139.6526  144.0334  152.2637 LP  0  0  0  0  0  0  0  0  0  0  0  0  # atno 17342 bound_to 10162
  139.9876  144.6384  150.7844 LP  0  0  0  0  0  0  0  0  0  0  0  0  # atno 17343 bound_to 10162
  156.8832  130.9563  151.3597 LP  0  0  0  0  0  0  0  0  0  0  0  0  # atno 17370 bound_to 10713
  157.6164  130.8622  149.9036 LP  0  0  0  0  0  0  0  0  0  0  0  0  # atno 17371 bound_to 10713
  140.5238  134.6278  157.5327 LP  0  0  0  0  0  0  0  0  0  0  0  0  # atno 17394 bound_to 11000
  139.9743  134.7240  155.9979 LP  0  0  0  0  0  0  0  0  0  0  0  0  # atno 17395 bound_to 11000

$$$$
