AV-unprocessed.smi:942|AV-procd|sdf|4225|dock1
  -GOLD-   22720 2133D 1   1.00000     0.00000
 Structure written by MMmdl.
 42 44  0  0  0  0  0  0  0  0  1 V2000
  150.3766  141.6188  158.3527 O   0  0  0  0  0  0  0  0  0  0  0  0
  151.3157  141.7970  157.5771 C   0  0  0  0  0  0  0  0  0  0  0  0
  151.5085  141.0420  156.4847 N   0  0  0  0  0  0  0  0  0  0  0  0
  150.6483  139.9404  156.0611 C   0  0  2  0  0  0  0  0  0  0  0  0
  151.4262  138.6098  155.9815 C   0  0  0  0  0  0  0  0  0  0  0  0
  151.4541  138.2122  154.5034 C   0  0  0  0  0  0  0  0  0  0  0  0
  150.1973  138.8460  153.9156 C   0  0  0  0  0  0  0  0  0  0  0  0
  150.1000  140.1928  154.6404 C   0  0  1  0  0  0  0  0  0  0  0  0
  148.7619  140.7635  154.6335 N   0  0  0  0  0  0  0  0  0  0  0  0
  147.9617  141.0494  153.5325 C   0  0  0  0  0  0  0  0  0  0  0  0
  146.7814  141.5598  154.0236 C   0  0  0  0  0  0  0  0  0  0  0  0
  146.8277  141.5909  155.4149 N   0  0  0  0  0  0  0  0  0  0  0  0
  148.0271  141.1021  155.7022 C   0  0  0  0  0  0  0  0  0  0  0  0
  152.3449  142.9170  157.8201 C   0  0  0  0  0  0  0  0  0  0  0  0
  153.1831  142.6893  159.1008 C   0  0  0  0  0  0  0  0  0  0  0  0
  152.4306  143.0337  160.3999 C   0  0  0  0  0  0  0  0  0  0  0  0
  151.8643  144.4607  160.3549 C   0  0  0  0  0  0  0  0  0  0  0  0
  150.9606  144.6631  159.1294 C   0  0  0  0  0  0  0  0  0  0  0  0
  151.7039  144.3255  157.8230 C   0  0  0  0  0  0  0  0  0  0  0  0
  152.3042  141.2507  155.8991 H   0  0  0  0  0  0  0  0  0  0  0  0
  149.8262  139.8243  156.7702 H   0  0  0  0  0  0  0  0  0  0  0  0
  152.4323  138.6689  156.3995 H   0  0  0  0  0  0  0  0  0  0  0  0
  150.8911  137.8485  156.5508 H   0  0  0  0  0  0  0  0  0  0  0  0
  152.3375  138.6380  154.0255 H   0  0  0  0  0  0  0  0  0  0  0  0
  151.4862  137.1318  154.3606 H   0  0  0  0  0  0  0  0  0  0  0  0
  150.2505  138.9558  152.8320 H   0  0  0  0  0  0  0  0  0  0  0  0
  149.3376  138.2150  154.1448 H   0  0  0  0  0  0  0  0  0  0  0  0
  150.7632  140.8855  154.1175 H   0  0  0  0  0  0  0  0  0  0  0  0
  148.2876  140.8695  152.5185 H   0  0  0  0  0  0  0  0  0  0  0  0
  145.9079  141.9003  153.4872 H   0  0  0  0  0  0  0  0  0  0  0  0
  148.3785  140.9864  156.7173 H   0  0  0  0  0  0  0  0  0  0  0  0
  153.0391  142.8873  156.9784 H   0  0  0  0  0  0  0  0  0  0  0  0
  153.5338  141.6571  159.1435 H   0  0  0  0  0  0  0  0  0  0  0  0
  154.0820  143.3045  159.0440 H   0  0  0  0  0  0  0  0  0  0  0  0
  151.6227  142.3223  160.5696 H   0  0  0  0  0  0  0  0  0  0  0  0
  153.1039  142.9326  161.2515 H   0  0  0  0  0  0  0  0  0  0  0  0
  151.3048  144.6672  161.2678 H   0  0  0  0  0  0  0  0  0  0  0  0
  152.6851  145.1784  160.3261 H   0  0  0  0  0  0  0  0  0  0  0  0
  150.0664  144.0474  159.2262 H   0  0  0  0  0  0  0  0  0  0  0  0
  150.6124  145.6957  159.0966 H   0  0  0  0  0  0  0  0  0  0  0  0
  152.4883  145.0669  157.6658 H   0  0  0  0  0  0  0  0  0  0  0  0
  151.0235  144.4320  156.9769 H   0  0  0  0  0  0  0  0  0  0  0  0
  1  2  2  0  0  0  0
  2  3  1  0  0  0  0
  2 14  1  0  0  0  0
  3  4  1  0  0  0  0
  3 20  1  0  0  0  0
  4  8  1  0  0  0  0
  4  5  1  0  0  0  0
  4 21  1  0  0  0  0
  5  6  1  0  0  0  0
  5 22  1  0  0  0  0
  5 23  1  0  0  0  0
  6  7  1  0  0  0  0
  6 24  1  0  0  0  0
  6 25  1  0  0  0  0
  7  8  1  0  0  0  0
  7 26  1  0  0  0  0
  7 27  1  0  0  0  0
  8  9  1  0  0  0  0
  8 28  1  0  0  0  0
  9 13  1  0  0  0  0
  9 10  1  0  0  0  0
 10 11  2  0  0  0  0
 10 29  1  0  0  0  0
 11 12  1  0  0  0  0
 11 30  1  0  0  0  0
 12 13  2  0  0  0  0
 13 31  1  0  0  0  0
 14 19  1  0  0  0  0
 14 15  1  0  0  0  0
 14 32  1  0  0  0  0
 15 16  1  0  0  0  0
 15 33  1  0  0  0  0
 15 34  1  0  0  0  0
 16 17  1  0  0  0  0
 16 35  1  0  0  0  0
 16 36  1  0  0  0  0
 17 18  1  0  0  0  0
 17 37  1  0  0  0  0
 17 38  1  0  0  0  0
 18 19  1  0  0  0  0
 18 39  1  0  0  0  0
 18 40  1  0  0  0  0
 19 41  1  0  0  0  0
 19 42  1  0  0  0  0
M  END
> <s_m_source_file>
AV-unprocessed.smi

> <i_m_source_file_index>
942

> <i_lp_mmshare_version>
43012

> <i_f3d_flags>
0

> <s_epik_input>
W0NIMl0xW0NIMl1bQ0gyXVtDSDJdW0NIMl1bQ0hdMUMoPU8pW05IXVtDQEBIXTJbQ0gyXVtDSDJdW0NIMl1bQ0BIXTJuM1tjSF1bY0hdbltjSF0z

> <s_epik_cmdline>
J2VwaWtfcHl0aG9uJywgJy1waCcsICc3LjAnLCAnLXRuJywgJzgnLCAnLW1hJywgJzIwMCcsICctbWV0YWxfYmluZGluZycsICctaW1hZScsICc8aW5maWxlLm1hZT4nLCAnLW9tYWUnLCAnPG91dGZpbGUubWFlPic=

> <r_lp_tautomer_probability>
1

> <r_epik_Ionization_Penalty>
0.778458

> <r_epik_Ionization_Penalty_Charging>
0.778458

> <r_epik_Ionization_Penalty_Neutral>
2.79355e-08

> <r_epik_State_Penalty>
0.807804

> <r_epik_Charging_Adjusted_Penalty>
1.58626

> <i_epik_Tot_Q>
0

> <i_epik_Tot_abs_Q>
0

> <r_epik_Metal_State_Penalty>
0.343007

> <b_epik_Metal_Only>
0

> <s_lp_Force_Field>
OPLS_2005

> <r_lp_Energy>
30.2661

> <b_lp_Chiralities_Consistent>
1

> <s_lp_Variant>
AV-unprocessed.smi:942-5

> <Gold.Version>
5.8.1

> <Gold.Id.Protein>
6NUR|6NUR_protein|mol2

> <Gold.PLP.Fitness>
47.1687

> <Gold.PLP.PLP>
-44.2125

> <Gold.PLP.part.hbond>
0.0000

> <Gold.PLP.part.metal>
0.0000

> <Gold.PLP.part.buried>
-5.0043

> <Gold.PLP.part.nonpolar>
-38.9561

> <Gold.PLP.part.repulsive>
0.3105

> <Gold.PLP.ligand.clash>
0.0000

> <Gold.PLP.ligand.torsion>
0.0502

> <Gold.PLP.Chemscore.Hbond>
0.0000

> <Gold.PLP.Chemscore.CHOScore>
1.0000

> <Gold.PLP.Chemscore.Metal>
0.0000

> <Gold.Chemscore.Hbonds>
donor molecule, donor type, donor heavy atom, donor atom, acceptor molecule, acceptor atom, score
      L1  C    10    29       P1  7957  1.00
      L1  C    11    30       P1 10175  0.18

> <Gold.PLP.Chemscore.Internal.Correction>
0.0566

> <Gold.Rescore>
     Score         DG    S(hbond)    S(metal)    S(lipo)     H(rot)  DE(clash)    DE(int)     intcor
     15.01     -15.13       0.00        0.00     113.95       1.44       0.09       0.03       ----

> <Gold.Chemscore.Fitness>
15.0056

> <Gold.Chemscore.DG>
-15.1265

> <Gold.Chemscore.ZeroCoef>
-5.4800

> <Gold.Chemscore.Hbond>
0.0000

> <Gold.Chemscore.Metal>
0.0000

> <Gold.Chemscore.Lipo>
113.9463

> <Gold.Chemscore.Internal_Hbond>
0.0000

> <Gold.Chemscore.DEClash>
0.0890

> <Gold.Chemscore.DEInternal>
0.0320

> <Gold.Chemscore.Rot>
1.4395

> <Gold.Chemscore.Internal.Correction>
   9.000000E+99

> <Gold.Chemscore.Hbond.Weighted>
-0.0000

> <Gold.Chemscore.Metal.Weighted>
-0.0000

> <Gold.Chemscore.Lipo.Weighted>
-13.3317

> <Gold.Chemscore.Internal_Hbond.Weighted>
0.0000

> <Gold.Chemscore.DEClash.Weighted>
0.0890

> <Gold.Chemscore.DEInternal.Weighted>
0.0320

> <Gold.Chemscore.Rot.Weighted>
3.6852

> <Gold.Chemscore.Internal.Correction.Weighted>
   9.000000E+99

> <Gold.Protein.RotatedTorsions>
[ 6907 6896 6895 6894 ] final -124.00 input  -60.11 | X-H torsion
[ 7974 7965 7964 7962 ] final   36.37 input  175.53 | X-H torsion
[ 8008 7997 7996 7995 ] final  -96.67 input   59.86 | X-H torsion
[ 10167 10162 10161 10158 ] final   83.03 input  -65.29 | X-H torsion
[ 10718 10713 10712 10709 ] final  111.68 input   66.30 | X-H torsion
[ 10763 10752 10751 10750 ] final   81.31 input  -60.55 | X-H torsion
[ 11005 11000 10999 10996 ] final   39.03 input  -57.11 | X-H torsion

> <Gold.Protein.ActiveResidues>
 VAL166  LYS551  ARG553  GLY616  TRP617  ASP618  TYR619  PRO620  LYS621  CYS622 
 ASP623  PHE694  ASN695  SER759  ASP760  ASP761  ALA762  ILE779  LEU786  VAL792 
 PHE793  MET794  SER795  GLU796  ALA797  LYS798  CYS799  TRP800  GLU811  SER814 

> <Gold.Protein.RotatedAtoms>
  150.8725  133.7485  159.2956 H   0  0  0  0  0  0  0  0  0  0  0  0  # atno 6907 bound_to 6896
  151.5092  135.1063  159.9859 H   0  0  0  0  0  0  0  0  0  0  0  0  # atno 6908 bound_to 6896
  152.4705  133.7974  159.6990 H   0  0  0  0  0  0  0  0  0  0  0  0  # atno 6909 bound_to 6896
  146.1216  139.6026  142.9286 H   0  0  0  0  0  0  0  0  0  0  0  0  # atno 7974 bound_to 7965
  154.7776  140.0469  157.1101 H   0  0  0  0  0  0  0  0  0  0  0  0  # atno 8008 bound_to 7997
  154.9744  140.3093  155.4954 H   0  0  0  0  0  0  0  0  0  0  0  0  # atno 8009 bound_to 7997
  156.2931  140.2247  156.4839 H   0  0  0  0  0  0  0  0  0  0  0  0  # atno 8010 bound_to 7997
  139.9226  144.6203  150.8425 H   0  0  0  0  0  0  0  0  0  0  0  0  # atno 10167 bound_to 10162
  157.6432  131.0955  150.6784 H   0  0  0  0  0  0  0  0  0  0  0  0  # atno 10718 bound_to 10713
  153.1106  135.4770  154.9029 H   0  0  0  0  0  0  0  0  0  0  0  0  # atno 10763 bound_to 10752
  154.7477  135.3098  154.8617 H   0  0  0  0  0  0  0  0  0  0  0  0  # atno 10764 bound_to 10752
  153.9207  135.6855  153.4801 H   0  0  0  0  0  0  0  0  0  0  0  0  # atno 10765 bound_to 10752
  140.2068  134.3804  155.8069 H   0  0  0  0  0  0  0  0  0  0  0  0  # atno 11005 bound_to 11000
  145.5453  141.0417  143.2308 LP  0  0  0  0  0  0  0  0  0  0  0  0  # atno 17320 bound_to 7965
  144.7603  139.6974  143.7237 LP  0  0  0  0  0  0  0  0  0  0  0  0  # atno 17321 bound_to 7965
  140.7658  143.3286  151.2460 LP  0  0  0  0  0  0  0  0  0  0  0  0  # atno 17342 bound_to 10162
  139.6849  143.9791  152.2828 LP  0  0  0  0  0  0  0  0  0  0  0  0  # atno 17343 bound_to 10162
  156.7105  130.4650  149.5548 LP  0  0  0  0  0  0  0  0  0  0  0  0  # atno 17370 bound_to 10713
  156.1733  130.6451  151.0864 LP  0  0  0  0  0  0  0  0  0  0  0  0  # atno 17371 bound_to 10713
  141.2227  133.7122  156.8350 LP  0  0  0  0  0  0  0  0  0  0  0  0  # atno 17394 bound_to 11000
  140.1994  134.8908  157.3152 LP  0  0  0  0  0  0  0  0  0  0  0  0  # atno 17395 bound_to 11000

$$$$
