AV-unprocessed.smi:2317|AV-procd|sdf|9274|dock3
  -GOLD-   2272012493D 1   1.00000     0.00000
 Structure written by MMmdl.
 37 38  0  0  0  0  0  0  0  0  1 V2000
  144.6092  137.0705  151.7833 O   0  0  0  0  0  0  0  0  0  0  0  0
  145.8057  136.7851  151.8201 C   0  0  0  0  0  0  0  0  0  0  0  0
  146.7742  137.6872  152.0376 N   0  0  0  0  0  0  0  0  0  0  0  0
  146.5680  139.1110  152.2918 C   0  0  0  0  0  0  0  0  0  0  0  0
  147.2738  139.5957  153.5813 C   0  0  1  0  0  0  0  0  0  0  0  0
  148.6921  138.9925  153.7215 C   0  0  0  0  0  0  0  0  0  0  0  0
  149.4249  139.5034  154.9715 C   0  0  0  0  0  0  0  0  0  0  0  0
  149.4992  141.0353  154.9827 C   0  0  0  0  0  0  0  0  0  0  0  0
  148.0953  141.6456  154.8851 C   0  0  0  0  0  0  0  0  0  0  0  0
  147.3489  141.1431  153.6352 C   0  0  2  0  0  0  0  0  0  0  0  0
  146.0497  141.7004  153.6595 O   0  0  0  0  0  0  0  0  0  0  0  0
  146.3221  135.5582  151.6326 N   0  0  0  0  0  0  0  0  0  0  0  0
  145.6516  134.3279  151.3866 C   0  0  0  0  0  0  0  0  0  0  0  0
  144.3538  134.2200  150.8298 C   0  0  0  0  0  0  0  0  0  0  0  0
  143.7992  132.9364  150.6532 C   0  0  0  0  0  0  0  0  0  0  0  0
  144.4364  131.7965  150.9937 N   0  0  0  0  0  0  0  0  0  0  0  0
  145.6679  131.9031  151.5351 C   0  0  0  0  0  0  0  0  0  0  0  0
  146.3131  133.1368  151.7540 C   0  0  0  0  0  0  0  0  0  0  0  0
  147.5498  133.1721  152.3066 F   0  0  0  0  0  0  0  0  0  0  0  0
  147.7302  137.3629  152.0406 H   0  0  0  0  0  0  0  0  0  0  0  0
  146.8852  139.7132  151.4387 H   0  0  0  0  0  0  0  0  0  0  0  0
  145.4913  139.2584  152.3760 H   0  0  0  0  0  0  0  0  0  0  0  0
  146.6850  139.2573  154.4357 H   0  0  0  0  0  0  0  0  0  0  0  0
  148.6407  137.9050  153.7711 H   0  0  0  0  0  0  0  0  0  0  0  0
  149.2804  139.2313  152.8346 H   0  0  0  0  0  0  0  0  0  0  0  0
  148.9093  139.1541  155.8670 H   0  0  0  0  0  0  0  0  0  0  0  0
  150.4302  139.0831  155.0099 H   0  0  0  0  0  0  0  0  0  0  0  0
  149.9927  141.3783  155.8923 H   0  0  0  0  0  0  0  0  0  0  0  0
  150.1102  141.3809  154.1477 H   0  0  0  0  0  0  0  0  0  0  0  0
  147.5300  141.3906  155.7829 H   0  0  0  0  0  0  0  0  0  0  0  0
  148.1695  142.7336  154.8650 H   0  0  0  0  0  0  0  0  0  0  0  0
  147.8575  141.5123  152.7435 H   0  0  0  0  0  0  0  0  0  0  0  0
  145.4546  141.0927  153.2479 H   0  0  0  0  0  0  0  0  0  0  0  0
  147.3298  135.5015  151.6247 H   0  0  0  0  0  0  0  0  0  0  0  0
  143.7703  135.0817  150.5468 H   0  0  0  0  0  0  0  0  0  0  0  0
  142.8115  132.8234  150.2315 H   0  0  0  0  0  0  0  0  0  0  0  0
  146.1534  130.9769  151.8042 H   0  0  0  0  0  0  0  0  0  0  0  0
  1  2  2  0  0  0  0
  2  3  1  0  0  0  0
  2 12  1  0  0  0  0
  3  4  1  0  0  0  0
  3 20  1  0  0  0  0
  4  5  1  0  0  0  0
  4 21  1  0  0  0  0
  4 22  1  0  0  0  0
  5 10  1  0  0  0  0
  5  6  1  0  0  0  0
  5 23  1  0  0  0  0
  6  7  1  0  0  0  0
  6 24  1  0  0  0  0
  6 25  1  0  0  0  0
  7  8  1  0  0  0  0
  7 26  1  0  0  0  0
  7 27  1  0  0  0  0
  8  9  1  0  0  0  0
  8 28  1  0  0  0  0
  8 29  1  0  0  0  0
  9 10  1  0  0  0  0
  9 30  1  0  0  0  0
  9 31  1  0  0  0  0
 10 11  1  0  0  0  0
 10 32  1  0  0  0  0
 11 33  1  0  0  0  0
 12 13  1  0  0  0  0
 12 34  1  0  0  0  0
 13 18  1  0  0  0  0
 13 14  2  0  0  0  0
 14 15  1  0  0  0  0
 14 35  1  0  0  0  0
 15 16  2  0  0  0  0
 15 36  1  0  0  0  0
 16 17  1  0  0  0  0
 17 18  2  0  0  0  0
 17 37  1  0  0  0  0
 18 19  1  0  0  0  0
M  END
> <s_m_source_file>
AV-unprocessed.smi

> <i_m_source_file_index>
2317

> <i_lp_mmshare_version>
43012

> <i_f3d_flags>
0

> <s_epik_input>
RmMxW2NIXW5bY0hdW2NIXWMxW05IXUMoPU8pW05IXVtDSDJdW0NAQEhdMltDSDJdW0NIMl1bQ0gyXVtDSDJdW0NASF0yW09IXQ==

> <s_epik_cmdline>
J2VwaWtfcHl0aG9uJywgJy1waCcsICc3LjAnLCAnLXRuJywgJzgnLCAnLW1hJywgJzIwMCcsICctbWV0YWxfYmluZGluZycsICctaW1hZScsICc8aW5maWxlLm1hZT4nLCAnLW9tYWUnLCAnPG91dGZpbGUubWFlPic=

> <r_epik_Ionization_Penalty>
0.00317647

> <r_epik_Ionization_Penalty_Charging>
0

> <r_epik_Ionization_Penalty_Neutral>
0.00317647

> <r_epik_State_Penalty>
0.0022093

> <r_epik_Charging_Adjusted_Penalty>
0.0022093

> <i_epik_Tot_Q>
0

> <i_epik_Tot_abs_Q>
0

> <r_epik_Metal_State_Penalty>
-0

> <b_epik_Metal_Only>
0

> <s_lp_Force_Field>
OPLS_2005

> <r_lp_Energy>
17.8728

> <b_lp_Chiralities_Consistent>
1

> <s_lp_Variant>
AV-unprocessed.smi:2317-4

> <Gold.Version>
5.8.1

> <Gold.Id.Protein>
6NUR|6NUR_protein|mol2

> <Gold.PLP.Fitness>
44.0816

> <Gold.PLP.PLP>
-32.6398

> <Gold.PLP.part.hbond>
-3.0000

> <Gold.PLP.part.metal>
0.0000

> <Gold.PLP.part.buried>
-2.8444

> <Gold.PLP.part.nonpolar>
-32.2700

> <Gold.PLP.part.repulsive>
3.6258

> <Gold.PLP.ligand.clash>
0.0000

> <Gold.PLP.ligand.torsion>
0.2814

> <Gold.PLP.Chemscore.Hbond>
3.0000

> <Gold.PLP.Chemscore.CHOScore>
1.0000

> <Gold.PLP.Chemscore.Metal>
0.0000

> <Gold.Chemscore.Hbonds>
donor molecule, donor type, donor heavy atom, donor atom, acceptor molecule, acceptor atom, score
      L1  H     3    20       P1  7948  1.00
      L1  H    11    33       P1 10175  1.00
      L1  H    12    34       P1  7948  1.00
      L1  C    15    36       P1 10186  1.00

> <Gold.PLP.Chemscore.Internal.Correction>
0.0047

> <Gold.Rescore>
     Score         DG    S(hbond)    S(metal)    S(lipo)     H(rot)  DE(clash)    DE(int)     intcor
     15.80     -19.57       2.69        0.00      82.78       1.79       2.63       1.14       ----

> <Gold.Chemscore.Fitness>
15.8013

> <Gold.Chemscore.DG>
-19.5673

> <Gold.Chemscore.ZeroCoef>
-5.4800

> <Gold.Chemscore.Hbond>
2.6862

> <Gold.Chemscore.Metal>
0.0000

> <Gold.Chemscore.Lipo>
82.7835

> <Gold.Chemscore.Internal_Hbond>
0.0000

> <Gold.Chemscore.DEClash>
2.6257

> <Gold.Chemscore.DEInternal>
1.1402

> <Gold.Chemscore.Rot>
1.7853

> <Gold.Chemscore.Internal.Correction>
   9.000000E+99

> <Gold.Chemscore.Hbonds>
donor molecule, donor type, donor heavy atom, donor atom, acceptor molecule, acceptor atom, score
      L1  H     3    20       P1  7948  0.98
      L1  H    11    33       P1 10175  0.32
      L1  H    12    34       P1  7948  0.95

> <Gold.Chemscore.Hbond.Weighted>
-8.9721

> <Gold.Chemscore.Metal.Weighted>
-0.0000

> <Gold.Chemscore.Lipo.Weighted>
-9.6857

> <Gold.Chemscore.Internal_Hbond.Weighted>
0.0000

> <Gold.Chemscore.DEClash.Weighted>
2.6257

> <Gold.Chemscore.DEInternal.Weighted>
1.1402

> <Gold.Chemscore.Rot.Weighted>
4.5704

> <Gold.Chemscore.Internal.Correction.Weighted>
   9.000000E+99

> <Gold.Protein.RotatedTorsions>
[ 6907 6896 6895 6894 ] final -128.78 input  -60.11 | X-H torsion
[ 7974 7965 7964 7962 ] final    3.88 input  175.53 | X-H torsion
[ 8008 7997 7996 7995 ] final -164.30 input   59.86 | X-H torsion
[ 10167 10162 10161 10158 ] final   71.44 input  -65.29 | X-H torsion
[ 10718 10713 10712 10709 ] final  146.22 input   66.30 | X-H torsion
[ 10763 10752 10751 10750 ] final  109.25 input  -60.55 | X-H torsion
[ 11005 11000 10999 10996 ] final  157.58 input  -57.11 | X-H torsion

> <Gold.Protein.ActiveResidues>
 VAL166  LYS551  ARG553  GLY616  TRP617  ASP618  TYR619  PRO620  LYS621  CYS622 
 ASP623  PHE694  ASN695  SER759  ASP760  ASP761  ALA762  ILE779  LEU786  VAL792 
 PHE793  MET794  SER795  GLU796  ALA797  LYS798  CYS799  TRP800  GLU811  SER814 

> <Gold.Protein.RotatedAtoms>
  150.9216  133.6874  159.2830 H   0  0  0  0  0  0  0  0  0  0  0  0  # atno 6907 bound_to 6896
  151.4326  135.1010  159.9656 H   0  0  0  0  0  0  0  0  0  0  0  0  # atno 6908 bound_to 6896
  152.4982  133.8642  159.7321 H   0  0  0  0  0  0  0  0  0  0  0  0  # atno 6909 bound_to 6896
  146.2445  140.0619  142.8368 H   0  0  0  0  0  0  0  0  0  0  0  0  # atno 7974 bound_to 7965
  155.8336  140.0937  157.1777 H   0  0  0  0  0  0  0  0  0  0  0  0  # atno 8008 bound_to 7997
  154.3980  140.1414  156.3705 H   0  0  0  0  0  0  0  0  0  0  0  0  # atno 8009 bound_to 7997
  155.8139  140.3448  155.5476 H   0  0  0  0  0  0  0  0  0  0  0  0  # atno 8010 bound_to 7997
  140.0461  144.5350  150.7398 H   0  0  0  0  0  0  0  0  0  0  0  0  # atno 10167 bound_to 10162
  157.3358  131.0928  151.1124 H   0  0  0  0  0  0  0  0  0  0  0  0  # atno 10718 bound_to 10713
  153.4321  135.3786  155.2177 H   0  0  0  0  0  0  0  0  0  0  0  0  # atno 10763 bound_to 10752
  154.8750  135.3842  154.4255 H   0  0  0  0  0  0  0  0  0  0  0  0  # atno 10764 bound_to 10752
  153.4789  135.7088  153.6012 H   0  0  0  0  0  0  0  0  0  0  0  0  # atno 10765 bound_to 10752
  140.1783  134.8494  157.2772 H   0  0  0  0  0  0  0  0  0  0  0  0  # atno 11005 bound_to 11000
  145.0892  140.9273  143.4779 LP  0  0  0  0  0  0  0  0  0  0  0  0  # atno 17320 bound_to 7965
  145.0788  139.2975  143.5794 LP  0  0  0  0  0  0  0  0  0  0  0  0  # atno 17321 bound_to 7965
  140.7238  143.2615  151.4189 LP  0  0  0  0  0  0  0  0  0  0  0  0  # atno 17342 bound_to 10162
  139.5983  144.1350  152.2169 LP  0  0  0  0  0  0  0  0  0  0  0  0  # atno 17343 bound_to 10162
  157.2355  130.6545  149.5867 LP  0  0  0  0  0  0  0  0  0  0  0  0  # atno 17370 bound_to 10713
  155.9701  130.4585  150.6002 LP  0  0  0  0  0  0  0  0  0  0  0  0  # atno 17371 bound_to 10713
  140.2297  134.3924  155.7527 LP  0  0  0  0  0  0  0  0  0  0  0  0  # atno 17394 bound_to 11000
  141.2221  133.7208  156.8621 LP  0  0  0  0  0  0  0  0  0  0  0  0  # atno 17395 bound_to 11000

$$$$
