AV-unprocessed.smi:709|AV-procd|sdf|3459|dock6
  -GOLD-   22720 0443D 1   1.00000     0.00000
 Structure written by MMmdl.
 48 50  0  0  0  0  0  0  0  0  1 V2000
  151.1254  141.4708  157.0758 C   0  0  0  0  0  0  0  0  0  0  0  0
  151.6995  140.4256  156.1169 C   0  0  0  0  0  0  0  0  0  0  0  0
  150.7754  140.2183  155.0625 O   0  0  0  0  0  0  0  0  0  0  0  0
  149.5858  139.5742  155.4888 C   0  0  1  0  0  0  0  0  0  0  0  0
  148.4706  139.5356  154.4381 C   0  0  0  0  0  0  0  0  0  0  0  0
  148.1599  138.1424  154.9871 C   0  0  1  0  0  0  0  0  0  0  0  0
  147.7350  137.2064  153.9521 N   0  0  0  0  0  0  0  0  0  0  0  0
  146.4978  136.7035  153.8498 C   0  0  0  0  0  0  0  0  0  0  0  0
  145.5795  137.0146  154.6080 O   0  0  0  0  0  0  0  0  0  0  0  0
  146.4134  135.8391  152.8223 N   0  0  0  0  0  0  0  0  0  0  0  0
  145.3206  135.0599  152.4046 C   0  0  0  0  0  0  0  0  0  0  0  0
  144.0532  135.2016  152.8681 C   0  0  0  0  0  0  0  0  0  0  0  0
  142.9897  134.3495  152.3931 C   0  0  0  0  0  0  0  0  0  0  0  0
  143.2859  133.4042  151.4906 C   0  0  0  0  0  0  0  0  0  0  0  0
  144.5939  133.2305  151.0066 N   0  0  0  0  0  0  0  0  0  0  0  0
  144.8173  132.1676  150.0232 C   0  0  0  0  0  0  0  0  0  0  0  0
  145.6384  134.0101  151.4170 C   0  0  0  0  0  0  0  0  0  0  0  0
  146.7773  133.8341  150.9766 O   0  0  0  0  0  0  0  0  0  0  0  0
  149.6530  138.0301  155.4025 C   0  0  0  0  0  0  0  0  0  0  0  0
  149.9648  137.2584  156.6807 C   0  0  0  0  0  0  0  0  0  0  0  0
  150.4035  135.8472  156.2744 C   0  0  0  0  0  0  0  0  0  0  0  0
  150.8215  135.9378  154.8039 C   0  0  0  0  0  0  0  0  0  0  0  0
  150.6508  137.4078  154.4136 C   0  0  0  0  0  0  0  0  0  0  0  0
  151.8129  141.6636  157.8994 H   0  0  0  0  0  0  0  0  0  0  0  0
  150.1797  141.1335  157.5004 H   0  0  0  0  0  0  0  0  0  0  0  0
  150.9445  142.4154  156.5623 H   0  0  0  0  0  0  0  0  0  0  0  0
  152.6540  140.7714  155.7176 H   0  0  0  0  0  0  0  0  0  0  0  0
  151.8830  139.4921  156.6509 H   0  0  0  0  0  0  0  0  0  0  0  0
  149.2375  139.9153  156.4670 H   0  0  0  0  0  0  0  0  0  0  0  0
  147.6802  140.2723  154.5833 H   0  0  0  0  0  0  0  0  0  0  0  0
  148.8458  139.5357  153.4128 H   0  0  0  0  0  0  0  0  0  0  0  0
  147.4841  138.1956  155.8447 H   0  0  0  0  0  0  0  0  0  0  0  0
  148.4333  136.9073  153.2874 H   0  0  0  0  0  0  0  0  0  0  0  0
  147.2370  135.7475  152.2454 H   0  0  0  0  0  0  0  0  0  0  0  0
  143.7991  135.9372  153.6142 H   0  0  0  0  0  0  0  0  0  0  0  0
  141.9795  134.4721  152.7553 H   0  0  0  0  0  0  0  0  0  0  0  0
  142.5463  132.7287  151.0859 H   0  0  0  0  0  0  0  0  0  0  0  0
  145.5507  131.4493  150.3933 H   0  0  0  0  0  0  0  0  0  0  0  0
  145.1920  132.5851  149.0874 H   0  0  0  0  0  0  0  0  0  0  0  0
  143.9088  131.6114  149.7898 H   0  0  0  0  0  0  0  0  0  0  0  0
  150.7777  137.7488  157.2179 H   0  0  0  0  0  0  0  0  0  0  0  0
  149.1146  137.2245  157.3627 H   0  0  0  0  0  0  0  0  0  0  0  0
  151.2167  135.4892  156.9065 H   0  0  0  0  0  0  0  0  0  0  0  0
  149.5751  135.1461  156.3815 H   0  0  0  0  0  0  0  0  0  0  0  0
  151.8461  135.5989  154.6476 H   0  0  0  0  0  0  0  0  0  0  0  0
  150.1737  135.3070  154.1946 H   0  0  0  0  0  0  0  0  0  0  0  0
  150.3474  137.5128  153.3718 H   0  0  0  0  0  0  0  0  0  0  0  0
  151.6197  137.9006  154.5006 H   0  0  0  0  0  0  0  0  0  0  0  0
  1  2  1  0  0  0  0
  1 24  1  0  0  0  0
  1 25  1  0  0  0  0
  1 26  1  0  0  0  0
  2  3  1  0  0  0  0
  2 27  1  0  0  0  0
  2 28  1  0  0  0  0
  3  4  1  0  0  0  0
  4 19  1  0  0  0  0
  4  5  1  0  0  0  0
  4 29  1  0  0  0  0
  5  6  1  0  0  0  0
  5 30  1  0  0  0  0
  5 31  1  0  0  0  0
  6  7  1  0  0  0  0
  6 19  1  0  0  0  0
  6 32  1  0  0  0  0
  7  8  1  0  0  0  0
  7 33  1  0  0  0  0
  8  9  2  0  0  0  0
  8 10  1  0  0  0  0
 10 11  1  0  0  0  0
 10 34  1  0  0  0  0
 11 17  1  0  0  0  0
 11 12  2  0  0  0  0
 12 13  1  0  0  0  0
 12 35  1  0  0  0  0
 13 14  2  0  0  0  0
 13 36  1  0  0  0  0
 14 15  1  0  0  0  0
 14 37  1  0  0  0  0
 15 16  1  0  0  0  0
 15 17  1  0  0  0  0
 16 38  1  0  0  0  0
 16 39  1  0  0  0  0
 16 40  1  0  0  0  0
 17 18  2  0  0  0  0
 19 23  1  0  0  0  0
 19 20  1  0  0  0  0
 20 21  1  0  0  0  0
 20 41  1  0  0  0  0
 20 42  1  0  0  0  0
 21 22  1  0  0  0  0
 21 43  1  0  0  0  0
 21 44  1  0  0  0  0
 22 23  1  0  0  0  0
 22 45  1  0  0  0  0
 22 46  1  0  0  0  0
 23 47  1  0  0  0  0
 23 48  1  0  0  0  0
M  END
> <s_m_source_file>
AV-unprocessed.smi

> <i_m_source_file_index>
709

> <i_lp_mmshare_version>
43012

> <i_f3d_flags>
0

> <s_epik_input>
W0NIMl0xW0NIMl1bQ0gyXVtDSDJdQzEyW0NASF0oT1tDSDJdW0NIM10pW0NIMl1bQ0BIXTJbTkhdQyg9TylbTkhdYzNbY0hdW2NIXVtjSF1uKFtDSDNdKWMzPU8=

> <s_epik_cmdline>
J2VwaWtfcHl0aG9uJywgJy1waCcsICc3LjAnLCAnLXRuJywgJzgnLCAnLW1hJywgJzIwMCcsICctbWV0YWxfYmluZGluZycsICctaW1hZScsICc8aW5maWxlLm1hZT4nLCAnLW9tYWUnLCAnPG91dGZpbGUubWFlPic=

> <r_lp_tautomer_probability>
1

> <r_epik_Ionization_Penalty>
2.50859e-05

> <r_epik_Ionization_Penalty_Charging>
5.10493e-06

> <r_epik_Ionization_Penalty_Neutral>
1.9981e-05

> <r_epik_State_Penalty>
-0

> <r_epik_Charging_Adjusted_Penalty>
5.10493e-06

> <i_epik_Tot_Q>
0

> <i_epik_Tot_abs_Q>
0

> <r_epik_Metal_State_Penalty>
-0

> <b_epik_Metal_Only>
0

> <s_lp_Force_Field>
OPLS_2005

> <r_lp_Energy>
49.4881

> <b_lp_Chiralities_Consistent>
1

> <s_lp_Variant>
AV-unprocessed.smi:709-2

> <Gold.Version>
5.8.1

> <Gold.Id.Protein>
6NUR|6NUR_protein|mol2

> <Gold.PLP.Fitness>
41.4495

> <Gold.PLP.PLP>
-32.4662

> <Gold.PLP.part.hbond>
-3.0000

> <Gold.PLP.part.metal>
0.0000

> <Gold.PLP.part.buried>
-2.0618

> <Gold.PLP.part.nonpolar>
-25.2537

> <Gold.PLP.part.repulsive>
0.3893

> <Gold.PLP.ligand.clash>
0.0000

> <Gold.PLP.ligand.torsion>
0.4786

> <Gold.PLP.Chemscore.Hbond>
3.0000

> <Gold.PLP.Chemscore.CHOScore>
0.2003

> <Gold.PLP.Chemscore.Metal>
0.0000

> <Gold.Chemscore.Hbonds>
donor molecule, donor type, donor heavy atom, donor atom, acceptor molecule, acceptor atom, score
      L1  H     7    33       P1  7948  1.00
      L1  H    10    34       P1  7948  1.00
      P1  H  7989  7998       L1     3  1.00
      L1  C    14    37       P1 10186  0.21

> <Gold.PLP.Chemscore.Internal.Correction>
0.3397

> <Gold.Rescore>
     Score         DG    S(hbond)    S(metal)    S(lipo)     H(rot)  DE(clash)    DE(int)     intcor
     17.44     -19.38       2.50        0.00      77.12       1.36       0.18       1.76       ----

> <Gold.Chemscore.Fitness>
17.4424

> <Gold.Chemscore.DG>
-19.3802

> <Gold.Chemscore.ZeroCoef>
-5.4800

> <Gold.Chemscore.Hbond>
2.5027

> <Gold.Chemscore.Metal>
0.0000

> <Gold.Chemscore.Lipo>
77.1163

> <Gold.Chemscore.Internal_Hbond>
0.0000

> <Gold.Chemscore.DEClash>
0.1753

> <Gold.Chemscore.DEInternal>
1.7626

> <Gold.Chemscore.Rot>
1.3599

> <Gold.Chemscore.Internal.Correction>
   9.000000E+99

> <Gold.Chemscore.Hbonds>
donor molecule, donor type, donor heavy atom, donor atom, acceptor molecule, acceptor atom, score
      L1  H     7    33       P1  7948  0.98
      L1  H    10    34       P1  7948  0.95
      P1  H  7989  7998       L1     3  0.50

> <Gold.Chemscore.Hbond.Weighted>
-8.3589

> <Gold.Chemscore.Metal.Weighted>
-0.0000

> <Gold.Chemscore.Lipo.Weighted>
-9.0226

> <Gold.Chemscore.Internal_Hbond.Weighted>
0.0000

> <Gold.Chemscore.DEClash.Weighted>
0.1753

> <Gold.Chemscore.DEInternal.Weighted>
1.7626

> <Gold.Chemscore.Rot.Weighted>
3.4813

> <Gold.Chemscore.Internal.Correction.Weighted>
   9.000000E+99

> <Gold.Protein.RotatedTorsions>
[ 6907 6896 6895 6894 ] final  148.37 input  -60.11 | X-H torsion
[ 7974 7965 7964 7962 ] final  -51.64 input  175.53 | X-H torsion
[ 8008 7997 7996 7995 ] final   51.90 input   59.86 | X-H torsion
[ 10167 10162 10161 10158 ] final   59.03 input  -65.29 | X-H torsion
[ 10718 10713 10712 10709 ] final -140.34 input   66.30 | X-H torsion
[ 10763 10752 10751 10750 ] final   69.98 input  -60.55 | X-H torsion
[ 11005 11000 10999 10996 ] final -135.55 input  -57.11 | X-H torsion

> <Gold.Protein.ActiveResidues>
 VAL166  LYS551  ARG553  GLY616  TRP617  ASP618  TYR619  PRO620  LYS621  CYS622 
 ASP623  PHE694  ASN695  SER759  ASP760  ASP761  ALA762  ILE779  LEU786  VAL792 
 PHE793  MET794  SER795  GLU796  ALA797  LYS798  CYS799  TRP800  GLU811  SER814 

> <Gold.Protein.RotatedAtoms>
  152.1423  133.4471  159.4772 H   0  0  0  0  0  0  0  0  0  0  0  0  # atno 6907 bound_to 6896
  150.6887  134.2290  159.4436 H   0  0  0  0  0  0  0  0  0  0  0  0  # atno 6908 bound_to 6896
  152.0181  134.9838  160.0620 H   0  0  0  0  0  0  0  0  0  0  0  0  # atno 6909 bound_to 6896
  145.9167  140.7869  142.9668 H   0  0  0  0  0  0  0  0  0  0  0  0  # atno 7974 bound_to 7965
  155.4429  140.3455  155.4292 H   0  0  0  0  0  0  0  0  0  0  0  0  # atno 8008 bound_to 7997
  156.1268  140.1502  156.9155 H   0  0  0  0  0  0  0  0  0  0  0  0  # atno 8009 bound_to 7997
  154.4864  140.0854  156.7476 H   0  0  0  0  0  0  0  0  0  0  0  0  # atno 8010 bound_to 7997
  140.1808  144.4184  150.6616 H   0  0  0  0  0  0  0  0  0  0  0  0  # atno 10167 bound_to 10162
  156.3211  130.7535  151.1633 H   0  0  0  0  0  0  0  0  0  0  0  0  # atno 10718 bound_to 10713
  153.0316  135.5190  154.7372 H   0  0  0  0  0  0  0  0  0  0  0  0  # atno 10763 bound_to 10752
  154.6382  135.2909  155.0138 H   0  0  0  0  0  0  0  0  0  0  0  0  # atno 10764 bound_to 10752
  154.1065  135.6628  153.4930 H   0  0  0  0  0  0  0  0  0  0  0  0  # atno 10765 bound_to 10752
  140.8888  134.1839  157.4542 H   0  0  0  0  0  0  0  0  0  0  0  0  # atno 11005 bound_to 11000
  144.6748  140.1911  143.7396 LP  0  0  0  0  0  0  0  0  0  0  0  0  # atno 17320 bound_to 7965
  145.8602  139.2219  143.1721 LP  0  0  0  0  0  0  0  0  0  0  0  0  # atno 17321 bound_to 7965
  140.6521  143.2227  151.6053 LP  0  0  0  0  0  0  0  0  0  0  0  0  # atno 17342 bound_to 10162
  139.5297  144.2953  152.1119 LP  0  0  0  0  0  0  0  0  0  0  0  0  # atno 17343 bound_to 10162
  157.7412  131.0507  150.5114 LP  0  0  0  0  0  0  0  0  0  0  0  0  # atno 17370 bound_to 10713
  156.5266  130.4175  149.6223 LP  0  0  0  0  0  0  0  0  0  0  0  0  # atno 17371 bound_to 10713
  139.8727  134.9849  156.5260 LP  0  0  0  0  0  0  0  0  0  0  0  0  # atno 17394 bound_to 11000
  140.8373  133.8233  155.9041 LP  0  0  0  0  0  0  0  0  0  0  0  0  # atno 17395 bound_to 11000

$$$$
