AV-unprocessed.smi:2639|AV-procd|sdf|10264|dock2
  -GOLD-   2272014273D 1   1.00000     0.00000
 Structure written by MMmdl.
 43 44  0  0  0  0  0  0  0  0  1 V2000
  145.5414  135.6642  155.2932 C   0  0  0  0  0  0  0  0  0  0  0  0
  145.7346  136.3243  153.9040 C   0  0  1  0  0  0  0  0  0  0  0  0
  144.8212  137.5835  153.8244 C   0  0  0  0  0  0  0  0  0  0  0  0
  144.7305  138.1007  152.5118 O   0  0  0  0  0  0  0  0  0  0  0  0
  147.1395  136.7297  153.7376 N   0  0  0  0  0  0  0  0  0  0  0  0
  147.8827  137.5404  154.5099 C   0  0  0  0  0  0  0  0  0  0  0  0
  147.4711  138.0845  155.5337 O   0  0  0  0  0  0  0  0  0  0  0  0
  149.1299  137.6550  154.0207 N   0  0  0  0  0  0  0  0  0  0  0  0
  150.2102  138.4366  154.5138 C   0  0  0  0  0  0  0  0  0  0  0  0
  151.5204  137.9803  154.2607 C   0  0  0  0  0  0  0  0  0  0  0  0
  152.6084  138.7468  154.7243 C   0  0  0  0  0  0  0  0  0  0  0  0
  152.4643  139.9092  155.3947 N   0  0  0  0  0  0  0  0  0  0  0  0
  151.2099  140.3527  155.6226 C   0  0  0  0  0  0  0  0  0  0  0  0
  150.0544  139.6634  155.2031 C   0  0  0  0  0  0  0  0  0  0  0  0
  145.4050  135.2981  152.7618 C   0  0  0  0  0  0  0  0  0  0  0  0
  143.9456  134.7684  152.8047 C   0  0  0  0  0  0  0  0  0  0  0  0
  143.6383  133.8098  151.6428 C   0  0  0  0  0  0  0  0  0  0  0  0
  144.6185  132.6307  151.6172 C   0  0  0  0  0  0  0  0  0  0  0  0
  146.0659  133.1328  151.5535 C   0  0  0  0  0  0  0  0  0  0  0  0
  146.3786  134.0892  152.7155 C   0  0  0  0  0  0  0  0  0  0  0  0
  144.5685  135.1774  155.3672 H   0  0  0  0  0  0  0  0  0  0  0  0
  145.5915  136.3940  156.1013 H   0  0  0  0  0  0  0  0  0  0  0  0
  146.3035  134.9141  155.5028 H   0  0  0  0  0  0  0  0  0  0  0  0
  143.8072  137.3563  154.1532 H   0  0  0  0  0  0  0  0  0  0  0  0
  145.1782  138.3739  154.4847 H   0  0  0  0  0  0  0  0  0  0  0  0
  144.3967  138.9835  152.5599 H   0  0  0  0  0  0  0  0  0  0  0  0
  147.5993  136.3387  152.9285 H   0  0  0  0  0  0  0  0  0  0  0  0
  149.3464  137.0776  153.2216 H   0  0  0  0  0  0  0  0  0  0  0  0
  151.6938  137.0577  153.7261 H   0  0  0  0  0  0  0  0  0  0  0  0
  153.6221  138.4178  154.5496 H   0  0  0  0  0  0  0  0  0  0  0  0
  151.1228  141.2907  156.1507 H   0  0  0  0  0  0  0  0  0  0  0  0
  149.0854  140.0929  155.4054 H   0  0  0  0  0  0  0  0  0  0  0  0
  145.5094  135.8235  151.8115 H   0  0  0  0  0  0  0  0  0  0  0  0
  143.7554  134.2545  153.7474 H   0  0  0  0  0  0  0  0  0  0  0  0
  143.2336  135.5910  152.7540 H   0  0  0  0  0  0  0  0  0  0  0  0
  142.6163  133.4395  151.7286 H   0  0  0  0  0  0  0  0  0  0  0  0
  143.6922  134.3518  150.6978 H   0  0  0  0  0  0  0  0  0  0  0  0
  144.4804  132.0170  152.5082 H   0  0  0  0  0  0  0  0  0  0  0  0
  144.4081  131.9889  150.7612 H   0  0  0  0  0  0  0  0  0  0  0  0
  146.7529  132.2862  151.5753 H   0  0  0  0  0  0  0  0  0  0  0  0
  146.2353  133.6437  150.6046 H   0  0  0  0  0  0  0  0  0  0  0  0
  147.4081  134.4251  152.6006 H   0  0  0  0  0  0  0  0  0  0  0  0
  146.3388  133.5355  153.6540 H   0  0  0  0  0  0  0  0  0  0  0  0
  1  2  1  0  0  0  0
  1 21  1  0  0  0  0
  1 22  1  0  0  0  0
  1 23  1  0  0  0  0
  2  3  1  0  0  0  0
  2  5  1  0  0  0  0
  2 15  1  0  0  0  0
  3  4  1  0  0  0  0
  3 24  1  0  0  0  0
  3 25  1  0  0  0  0
  4 26  1  0  0  0  0
  5  6  1  0  0  0  0
  5 27  1  0  0  0  0
  6  7  2  0  0  0  0
  6  8  1  0  0  0  0
  8  9  1  0  0  0  0
  8 28  1  0  0  0  0
  9 14  1  0  0  0  0
  9 10  2  0  0  0  0
 10 11  1  0  0  0  0
 10 29  1  0  0  0  0
 11 12  2  0  0  0  0
 11 30  1  0  0  0  0
 12 13  1  0  0  0  0
 13 14  2  0  0  0  0
 13 31  1  0  0  0  0
 14 32  1  0  0  0  0
 15 20  1  0  0  0  0
 15 16  1  0  0  0  0
 15 33  1  0  0  0  0
 16 17  1  0  0  0  0
 16 34  1  0  0  0  0
 16 35  1  0  0  0  0
 17 18  1  0  0  0  0
 17 36  1  0  0  0  0
 17 37  1  0  0  0  0
 18 19  1  0  0  0  0
 18 38  1  0  0  0  0
 18 39  1  0  0  0  0
 19 20  1  0  0  0  0
 19 40  1  0  0  0  0
 19 41  1  0  0  0  0
 20 42  1  0  0  0  0
 20 43  1  0  0  0  0
M  END
> <s_m_source_file>
AV-unprocessed.smi

> <i_m_source_file_index>
2639

> <i_lp_mmshare_version>
43012

> <i_f3d_flags>
0

> <s_epik_input>
W0NIMl0xW0NIMl1bQ0gyXVtDSDJdW0NIMl1bQ0hdMVtDQF0oW0NIM10pKFtDSDJdW09IXSlbTkhdQyg9TylbTkhdYzJbY0hdW2NIXW5bY0hdW2NIXTI=

> <s_epik_cmdline>
J2VwaWtfcHl0aG9uJywgJy1waCcsICc3LjAnLCAnLXRuJywgJzgnLCAnLW1hJywgJzIwMCcsICctbWV0YWxfYmluZGluZycsICctaW1hZScsICc8aW5maWxlLm1hZT4nLCAnLW9tYWUnLCAnPG91dGZpbGUubWFlPic=

> <r_epik_Ionization_Penalty>
0.119032

> <r_epik_Ionization_Penalty_Charging>
0

> <r_epik_Ionization_Penalty_Neutral>
0.119032

> <r_epik_State_Penalty>
0.108564

> <r_epik_Charging_Adjusted_Penalty>
0.108564

> <i_epik_Tot_Q>
0

> <i_epik_Tot_abs_Q>
0

> <r_epik_Metal_State_Penalty>
0.0902516

> <b_epik_Metal_Only>
0

> <s_lp_Force_Field>
OPLS_2005

> <r_lp_Energy>
25.5212

> <b_lp_Chiralities_Consistent>
1

> <s_lp_Variant>
AV-unprocessed.smi:2639-1

> <Gold.Version>
5.8.1

> <Gold.Id.Protein>
6NUR|6NUR_protein|mol2

> <Gold.PLP.Fitness>
43.2231

> <Gold.PLP.PLP>
-31.8309

> <Gold.PLP.part.hbond>
-6.0000

> <Gold.PLP.part.metal>
0.0000

> <Gold.PLP.part.buried>
-3.2193

> <Gold.PLP.part.nonpolar>
-22.9665

> <Gold.PLP.part.repulsive>
0.0315

> <Gold.PLP.ligand.clash>
0.0000

> <Gold.PLP.ligand.torsion>
0.3271

> <Gold.PLP.Chemscore.Hbond>
4.0000

> <Gold.PLP.Chemscore.CHOScore>
0.0000

> <Gold.PLP.Chemscore.Metal>
0.0000

> <Gold.Chemscore.Hbonds>
donor molecule, donor type, donor heavy atom, donor atom, acceptor molecule, acceptor atom, score
      L1  H     4    26       P1 10175  1.00
      L1  H     5    27       P1  7948  1.00
      L1  H     8    28       P1  7948  1.00
      P1  H  7997  8009       L1    12  0.98

> <Gold.PLP.Chemscore.Internal.Correction>
0.0463

> <Gold.Rescore>
     Score         DG    S(hbond)    S(metal)    S(lipo)     H(rot)  DE(clash)    DE(int)     intcor
     19.57     -20.80       3.67        0.00      69.60       1.98       0.04       1.19       ----

> <Gold.Chemscore.Fitness>
19.5747

> <Gold.Chemscore.DG>
-20.8048

> <Gold.Chemscore.ZeroCoef>
-5.4800

> <Gold.Chemscore.Hbond>
3.6675

> <Gold.Chemscore.Metal>
0.0000

> <Gold.Chemscore.Lipo>
69.6021

> <Gold.Chemscore.Internal_Hbond>
0.0000

> <Gold.Chemscore.DEClash>
0.0409

> <Gold.Chemscore.DEInternal>
1.1892

> <Gold.Chemscore.Rot>
1.9798

> <Gold.Chemscore.Internal.Correction>
   9.000000E+99

> <Gold.Chemscore.Hbonds>
donor molecule, donor type, donor heavy atom, donor atom, acceptor molecule, acceptor atom, score
      L1  H     4    26       P1 10175  1.00
      L1  H     5    27       P1  7948  0.96
      L1  H     8    28       P1  7948  0.92
      P1  H  7997  8009       L1    12  0.23

> <Gold.Chemscore.Hbond.Weighted>
-12.2495

> <Gold.Chemscore.Metal.Weighted>
-0.0000

> <Gold.Chemscore.Lipo.Weighted>
-8.1435

> <Gold.Chemscore.Internal_Hbond.Weighted>
0.0000

> <Gold.Chemscore.DEClash.Weighted>
0.0409

> <Gold.Chemscore.DEInternal.Weighted>
1.1892

> <Gold.Chemscore.Rot.Weighted>
5.0682

> <Gold.Chemscore.Internal.Correction.Weighted>
   9.000000E+99

> <Gold.Protein.RotatedTorsions>
[ 6907 6896 6895 6894 ] final  -14.19 input  -60.11 | X-H torsion
[ 7974 7965 7964 7962 ] final  -88.45 input  175.53 | X-H torsion
[ 8008 7997 7996 7995 ] final -143.49 input   59.86 | X-H torsion
[ 10167 10162 10161 10158 ] final  155.21 input  -65.29 | X-H torsion
[ 10718 10713 10712 10709 ] final  147.47 input   66.30 | X-H torsion
[ 10763 10752 10751 10750 ] final -124.88 input  -60.55 | X-H torsion
[ 11005 11000 10999 10996 ] final -164.18 input  -57.11 | X-H torsion

> <Gold.Protein.ActiveResidues>
 VAL166  LYS551  ARG553  GLY616  TRP617  ASP618  TYR619  PRO620  LYS621  CYS622 
 ASP623  PHE694  ASN695  SER759  ASP760  ASP761  ALA762  ILE779  LEU786  VAL792 
 PHE793  MET794  SER795  GLU796  ALA797  LYS798  CYS799  TRP800  GLU811  SER814 

> <Gold.Protein.RotatedAtoms>
  151.3432  135.0868  159.9377 H   0  0  0  0  0  0  0  0  0  0  0  0  # atno 6907 bound_to 6896
  152.5206  133.9426  159.7644 H   0  0  0  0  0  0  0  0  0  0  0  0  # atno 6908 bound_to 6896
  150.9787  133.6214  159.2755 H   0  0  0  0  0  0  0  0  0  0  0  0  # atno 6909 bound_to 6896
  145.4530  140.9561  143.2012 H   0  0  0  0  0  0  0  0  0  0  0  0  # atno 7974 bound_to 7965
  155.5115  140.0584  157.2922 H   0  0  0  0  0  0  0  0  0  0  0  0  # atno 8008 bound_to 7997
  154.4550  140.1968  156.0354 H   0  0  0  0  0  0  0  0  0  0  0  0  # atno 8009 bound_to 7997
  156.0781  140.3251  155.7663 H   0  0  0  0  0  0  0  0  0  0  0  0  # atno 8010 bound_to 7997
  139.4821  144.5118  151.8012 H   0  0  0  0  0  0  0  0  0  0  0  0  # atno 10167 bound_to 10162
  157.3206  131.0903  151.1243 H   0  0  0  0  0  0  0  0  0  0  0  0  # atno 10718 bound_to 10713
  154.8729  135.4048  154.3178 H   0  0  0  0  0  0  0  0  0  0  0  0  # atno 10763 bound_to 10752
  153.4011  135.7018  153.6431 H   0  0  0  0  0  0  0  0  0  0  0  0  # atno 10764 bound_to 10752
  153.5173  135.3694  155.2586 H   0  0  0  0  0  0  0  0  0  0  0  0  # atno 10765 bound_to 10752
  140.5897  134.5057  157.5191 H   0  0  0  0  0  0  0  0  0  0  0  0  # atno 11005 bound_to 11000
  144.8050  139.6069  143.7055 LP  0  0  0  0  0  0  0  0  0  0  0  0  # atno 17320 bound_to 7965
  146.2494  139.6166  142.9437 LP  0  0  0  0  0  0  0  0  0  0  0  0  # atno 17321 bound_to 7965
  140.4622  144.1705  150.5907 LP  0  0  0  0  0  0  0  0  0  0  0  0  # atno 17342 bound_to 10162
  140.4472  143.2502  151.9396 LP  0  0  0  0  0  0  0  0  0  0  0  0  # atno 17343 bound_to 10162
  157.2530  130.6623  149.5940 LP  0  0  0  0  0  0  0  0  0  0  0  0  # atno 17370 bound_to 10713
  155.9685  130.4532  150.5804 LP  0  0  0  0  0  0  0  0  0  0  0  0  # atno 17371 bound_to 10713
  139.9279  134.8019  156.1014 LP  0  0  0  0  0  0  0  0  0  0  0  0  # atno 17394 bound_to 11000
  141.0943  133.6702  156.2609 LP  0  0  0  0  0  0  0  0  0  0  0  0  # atno 17395 bound_to 11000

$$$$
