AV-unprocessed.smi:305|AV-procd|sdf|2281|dock2
  -GOLD-   2262022183D 1   1.00000     0.00000
 Structure written by MMmdl.
 46 48  0  0  0  0  0  0  0  0  2 V2000
  148.2447  141.2483  154.0657 C   0  0  0  0  0  0  0  0  0  0  0  0
  147.9532  139.9667  154.8493 C   0  0  0  0  0  0  0  0  0  0  0  0
  149.1108  139.1490  154.8407 O   0  0  0  0  0  0  0  0  0  0  0  0
  148.9744  138.0018  155.6622 C   0  0  0  0  0  0  0  0  0  0  0  0
  148.6240  138.4514  157.0864 C   0  0  0  0  0  0  0  0  0  0  0  0
  149.6377  138.0362  158.0501 N   0  0  0  0  0  0  0  0  0  0  0  0
  149.4620  137.2788  159.1627 C   0  0  0  0  0  0  0  0  0  0  0  0
  148.1897  136.7880  159.5249 N   0  0  0  0  0  0  0  0  0  0  0  0
  147.6636  137.0953  160.7285 N   0  0  0  0  0  0  0  0  0  0  0  0
  146.4898  136.4878  160.7518 C   0  0  0  0  0  0  0  0  0  0  0  0
  145.6154  136.6312  161.9641 C   0  0  0  0  0  0  0  0  0  0  0  0
  146.2349  135.7516  159.5582 C   0  0  0  0  0  0  0  0  0  0  0  0
  145.0170  134.9331  159.2285 C   0  0  0  0  0  0  0  0  0  0  0  0
  147.3487  135.9706  158.7929 C   0  0  0  0  0  0  0  0  0  0  0  0
  147.6988  135.4840  157.4231 C   0  0  0  0  0  0  0  0  0  0  0  0
  150.5736  137.0308  159.8580 N   0  0  0  0  0  0  0  0  0  0  0  0
  151.5433  137.7044  159.1283 C   0  0  0  0  0  0  0  0  0  0  0  0
  151.0059  138.3176  158.0389 C   0  0  0  0  0  0  0  0  0  0  0  0
  151.7883  139.1141  157.0700 C   0  0  0  0  0  0  0  0  0  0  0  0
  151.2460  139.6501  156.1056 O   0  0  0  0  0  0  0  0  0  0  0  0
  153.1192  139.1595  157.3953 N   0  5  0  0  0  0  0  0  0  0  0  0
  153.7080  138.5551  158.4858 C   0  0  0  0  0  0  0  0  0  0  0  0
  154.9163  138.6478  158.7066 O   0  0  0  0  0  0  0  0  0  0  0  0
  152.9411  137.8275  159.3581 N   0  0  0  0  0  0  0  0  0  0  0  0
  153.5397  137.1770  160.5270 C   0  0  0  0  0  0  0  0  0  0  0  0
  147.3720  141.9014  154.0489 H   0  0  0  0  0  0  0  0  0  0  0  0
  148.5148  141.0233  153.0339 H   0  0  0  0  0  0  0  0  0  0  0  0
  149.0689  141.8023  154.5155 H   0  0  0  0  0  0  0  0  0  0  0  0
  147.6737  140.2131  155.8747 H   0  0  0  0  0  0  0  0  0  0  0  0
  147.1145  139.4365  154.3955 H   0  0  0  0  0  0  0  0  0  0  0  0
  148.1950  137.3490  155.2671 H   0  0  0  0  0  0  0  0  0  0  0  0
  149.9057  137.4342  155.6639 H   0  0  0  0  0  0  0  0  0  0  0  0
  148.5168  139.5357  157.1198 H   0  0  0  0  0  0  0  0  0  0  0  0
  147.6564  138.0536  157.3906 H   0  0  0  0  0  0  0  0  0  0  0  0
  144.5607  136.6471  161.6887 H   0  0  0  0  0  0  0  0  0  0  0  0
  145.8270  137.5549  162.5040 H   0  0  0  0  0  0  0  0  0  0  0  0
  145.7668  135.8003  162.6530 H   0  0  0  0  0  0  0  0  0  0  0  0
  145.2638  134.0648  158.6176 H   0  0  0  0  0  0  0  0  0  0  0  0
  144.2795  135.5167  158.6774 H   0  0  0  0  0  0  0  0  0  0  0  0
  144.5247  134.5579  160.1257 H   0  0  0  0  0  0  0  0  0  0  0  0
  146.8307  135.0554  156.9227 H   0  0  0  0  0  0  0  0  0  0  0  0
  148.4722  134.7175  157.4720 H   0  0  0  0  0  0  0  0  0  0  0  0
  148.0694  136.3001  156.8020 H   0  0  0  0  0  0  0  0  0  0  0  0
  153.9921  137.9199  161.1857 H   0  0  0  0  0  0  0  0  0  0  0  0
  154.3163  136.4752  160.2192 H   0  0  0  0  0  0  0  0  0  0  0  0
  152.8128  136.6183  161.1161 H   0  0  0  0  0  0  0  0  0  0  0  0
  1  2  1  0  0  0  0
  1 26  1  0  0  0  0
  1 27  1  0  0  0  0
  1 28  1  0  0  0  0
  2  3  1  0  0  0  0
  2 29  1  0  0  0  0
  2 30  1  0  0  0  0
  3  4  1  0  0  0  0
  4  5  1  0  0  0  0
  4 31  1  0  0  0  0
  4 32  1  0  0  0  0
  5  6  1  0  0  0  0
  5 33  1  0  0  0  0
  5 34  1  0  0  0  0
  6 18  1  0  0  0  0
  6  7  1  0  0  0  0
  7  8  1  0  0  0  0
  7 16  2  0  0  0  0
  8 14  1  0  0  0  0
  8  9  1  0  0  0  0
  9 10  2  0  0  0  0
 10 11  1  0  0  0  0
 10 12  1  0  0  0  0
 11 35  1  0  0  0  0
 11 36  1  0  0  0  0
 11 37  1  0  0  0  0
 12 13  1  0  0  0  0
 12 14  2  0  0  0  0
 13 38  1  0  0  0  0
 13 39  1  0  0  0  0
 13 40  1  0  0  0  0
 14 15  1  0  0  0  0
 15 41  1  0  0  0  0
 15 42  1  0  0  0  0
 15 43  1  0  0  0  0
 16 17  1  0  0  0  0
 17 24  1  0  0  0  0
 17 18  2  0  0  0  0
 18 19  1  0  0  0  0
 19 20  2  0  0  0  0
 19 21  1  0  0  0  0
 21 22  1  0  0  0  0
 22 23  2  0  0  0  0
 22 24  1  0  0  0  0
 24 25  1  0  0  0  0
 25 44  1  0  0  0  0
 25 45  1  0  0  0  0
 25 46  1  0  0  0  0
M  CHG  1  21  -1
M  END
> <s_m_source_file>
AV-unprocessed.smi

> <i_m_source_file_index>
305

> <i_lp_mmshare_version>
43012

> <i_f3d_flags>
0

> <s_epik_input>
W0NIM11uMWMoPU8pW25IXWMoPU8pYyhjMTIpbihbQ0gyXVtDSDJdT1tDSDJdW0NIM10pYyhuMiktbjNuYyhbQ0gzXSljKFtDSDNdKWMzW0NIM10=

> <s_epik_cmdline>
J2VwaWtfcHl0aG9uJywgJy1waCcsICc3LjAnLCAnLXRuJywgJzgnLCAnLW1hJywgJzIwMCcsICctbWV0YWxfYmluZGluZycsICctaW1hZScsICc8aW5maWxlLm1hZT4nLCAnLW9tYWUnLCAnPG91dGZpbGUubWFlPic=

> <r_lp_tautomer_probability>
1

> <r_epik_Ionization_Penalty>
4

> <r_epik_Ionization_Penalty_Charging>
0.0169474

> <r_epik_Ionization_Penalty_Neutral>
3.98305

> <r_epik_State_Penalty>
3.98062

> <r_epik_Charging_Adjusted_Penalty>
3.99756

> <i_epik_Tot_Q>
-1

> <i_epik_Tot_abs_Q>
1

> <r_epik_Metal_State_Penalty>
0.616488

> <b_epik_Metal_Only>
1

> <s_lp_Force_Field>
OPLS_2005

> <r_lp_Energy>
29.8012

> <b_lp_Chiralities_Consistent>
1

> <s_lp_Variant>
AV-unprocessed.smi:305-2

> <Gold.Version>
5.8.1

> <Gold.Id.Protein>
6NUR|6NUR_protein|mol2

> <Gold.PLP.Fitness>
38.1644

> <Gold.PLP.PLP>
-26.3705

> <Gold.PLP.part.hbond>
-5.4601

> <Gold.PLP.part.metal>
0.0000

> <Gold.PLP.part.buried>
-4.9904

> <Gold.PLP.part.nonpolar>
-16.7385

> <Gold.PLP.part.repulsive>
0.1005

> <Gold.PLP.ligand.clash>
0.0000

> <Gold.PLP.ligand.torsion>
1.4928

> <Gold.PLP.Chemscore.Hbond>
4.7353

> <Gold.PLP.Chemscore.CHOScore>
0.0000

> <Gold.PLP.Chemscore.Metal>
0.0000

> <Gold.Chemscore.Hbonds>
donor molecule, donor type, donor heavy atom, donor atom, acceptor molecule, acceptor atom, score
      P1  H  6896  6908       L1    16  1.00
      P1  H  6931  6943       L1     9  0.62
      P1  H  6934  6947       L1     9  0.94
      P1  H  7997  8010       L1    21  2.00

> <Gold.PLP.Chemscore.Internal.Correction>
0.5737

> <Gold.Rescore>
     Score         DG    S(hbond)    S(metal)    S(lipo)     H(rot)  DE(clash)    DE(int)     intcor
     12.05     -14.62       2.62        0.00      38.73       1.62       0.00       2.56       ----

> <Gold.Chemscore.Fitness>
12.0504

> <Gold.Chemscore.DG>
-14.6166

> <Gold.Chemscore.ZeroCoef>
-5.4800

> <Gold.Chemscore.Hbond>
2.6208

> <Gold.Chemscore.Metal>
0.0000

> <Gold.Chemscore.Lipo>
38.7273

> <Gold.Chemscore.Internal_Hbond>
0.0000

> <Gold.Chemscore.DEClash>
0.0015

> <Gold.Chemscore.DEInternal>
2.5647

> <Gold.Chemscore.Rot>
1.6204

> <Gold.Chemscore.Internal.Correction>
   9.000000E+99

> <Gold.Chemscore.Hbonds>
donor molecule, donor type, donor heavy atom, donor atom, acceptor molecule, acceptor atom, score
      P1  H  6896  6908       L1    16  0.40
      P1  H  6931  6943       L1     9  0.48
      P1  H  6934  6947       L1     9  0.35
      P1  H  7997  8010       L1    21  0.26

> <Gold.Chemscore.Hbond.Weighted>
-8.7536

> <Gold.Chemscore.Metal.Weighted>
-0.0000

> <Gold.Chemscore.Lipo.Weighted>
-4.5311

> <Gold.Chemscore.Internal_Hbond.Weighted>
0.0000

> <Gold.Chemscore.DEClash.Weighted>
0.0015

> <Gold.Chemscore.DEInternal.Weighted>
2.5647

> <Gold.Chemscore.Rot.Weighted>
4.1481

> <Gold.Chemscore.Internal.Correction.Weighted>
   9.000000E+99

> <Gold.Protein.RotatedTorsions>
[ 6907 6896 6895 6894 ] final -140.96 input  -60.11 | X-H torsion
[ 7974 7965 7964 7962 ] final -139.59 input  175.53 | X-H torsion
[ 8008 7997 7996 7995 ] final   50.77 input   59.86 | X-H torsion
[ 10167 10162 10161 10158 ] final  115.93 input  -65.29 | X-H torsion
[ 10718 10713 10712 10709 ] final -139.45 input   66.30 | X-H torsion
[ 10763 10752 10751 10750 ] final  105.46 input  -60.55 | X-H torsion
[ 11005 11000 10999 10996 ] final -113.99 input  -57.11 | X-H torsion

> <Gold.Protein.ActiveResidues>
 VAL166  LYS551  ARG553  GLY616  TRP617  ASP618  TYR619  PRO620  LYS621  CYS622 
 ASP623  PHE694  ASN695  SER759  ASP760  ASP761  ALA762  ILE779  LEU786  VAL792 
 PHE793  MET794  SER795  GLU796  ALA797  LYS798  CYS799  TRP800  GLU811  SER814 

> <Gold.Protein.RotatedAtoms>
  151.0676  133.5493  159.2629 H   0  0  0  0  0  0  0  0  0  0  0  0  # atno 6907 bound_to 6896
  151.2444  135.0599  159.9047 H   0  0  0  0  0  0  0  0  0  0  0  0  # atno 6908 bound_to 6896
  152.5407  134.0446  159.8136 H   0  0  0  0  0  0  0  0  0  0  0  0  # atno 6909 bound_to 6896
  144.8665  140.6301  143.5294 H   0  0  0  0  0  0  0  0  0  0  0  0  # atno 7974 bound_to 7965
  155.4243  140.3448  155.4274 H   0  0  0  0  0  0  0  0  0  0  0  0  # atno 8008 bound_to 7997
  156.1374  140.1532  156.9004 H   0  0  0  0  0  0  0  0  0  0  0  0  # atno 8009 bound_to 7997
  154.4943  140.0832  156.7643 H   0  0  0  0  0  0  0  0  0  0  0  0  # atno 8010 bound_to 7997
  139.6282  144.7111  151.2488 H   0  0  0  0  0  0  0  0  0  0  0  0  # atno 10167 bound_to 10162
  156.3109  130.7481  151.1556 H   0  0  0  0  0  0  0  0  0  0  0  0  # atno 10718 bound_to 10713
  153.3797  135.3909  155.1848 H   0  0  0  0  0  0  0  0  0  0  0  0  # atno 10763 bound_to 10752
  154.8706  135.3722  154.4872 H   0  0  0  0  0  0  0  0  0  0  0  0  # atno 10764 bound_to 10752
  153.5348  135.7085  153.5726 H   0  0  0  0  0  0  0  0  0  0  0  0  # atno 10765 bound_to 10752
  141.0580  133.9581  157.2719 H   0  0  0  0  0  0  0  0  0  0  0  0  # atno 11005 bound_to 11000
  145.4212  139.1563  143.4073 LP  0  0  0  0  0  0  0  0  0  0  0  0  # atno 17320 bound_to 7965
  146.2899  140.4322  142.8743 LP  0  0  0  0  0  0  0  0  0  0  0  0  # atno 17321 bound_to 7965
  140.7423  143.6529  150.8233 LP  0  0  0  0  0  0  0  0  0  0  0  0  # atno 17342 bound_to 10162
  140.0150  143.5603  152.2824 LP  0  0  0  0  0  0  0  0  0  0  0  0  # atno 17343 bound_to 10162
  157.7391  131.0533  150.5255 LP  0  0  0  0  0  0  0  0  0  0  0  0  # atno 17370 bound_to 10713
  156.5395  130.4204  149.6161 LP  0  0  0  0  0  0  0  0  0  0  0  0  # atno 17371 bound_to 10713
  139.9407  135.0191  156.8699 LP  0  0  0  0  0  0  0  0  0  0  0  0  # atno 17394 bound_to 11000
  140.5926  134.0248  155.7505 LP  0  0  0  0  0  0  0  0  0  0  0  0  # atno 17395 bound_to 11000

$$$$
