AV-unprocessed.smi:2678|AV-procd|sdf|10369|dock2
  -GOLD-   2272014393D 1   1.00000     0.00000
 Structure written by MMmdl.
 46 47  0  0  0  0  0  0  0  0  1 V2000
  149.5229  134.1196  154.9800 C   0  0  0  0  0  0  0  0  0  0  0  0
  148.4256  135.1872  155.0823 C   0  0  0  0  0  0  0  0  0  0  0  0
  147.1090  134.7094  154.4492 C   0  0  0  0  0  0  0  0  0  0  0  0
  148.8843  136.4172  154.4431 N   0  0  0  0  0  0  0  0  0  0  0  0
  149.0588  137.5972  155.0594 C   0  0  0  0  0  0  0  0  0  0  0  0
  148.8356  137.7624  156.2586 O   0  0  0  0  0  0  0  0  0  0  0  0
  149.5651  138.7568  154.1806 C   0  0  1  0  0  0  0  0  0  0  0  0
  148.5894  139.1091  153.0334 C   0  0  0  0  0  0  0  0  0  0  0  0
  147.3711  139.9311  153.4922 C   0  0  0  0  0  0  0  0  0  0  0  0
  147.8044  141.1893  154.2594 C   0  0  0  0  0  0  0  0  0  0  0  0
  148.6895  140.8300  155.4654 C   0  0  2  0  0  0  0  0  0  0  0  0
  149.1044  142.0560  156.1506 N   0  0  0  0  0  0  0  0  0  0  0  0
  149.8885  142.1773  157.2378 C   0  0  0  0  0  0  0  0  0  0  0  0
  150.3456  141.1873  157.8047 O   0  0  0  0  0  0  0  0  0  0  0  0
  150.0886  143.4501  157.6328 N   0  0  0  0  0  0  0  0  0  0  0  0
  150.8415  143.9366  158.7345 C   0  0  0  0  0  0  0  0  0  0  0  0
  151.7678  143.1629  159.4747 C   0  0  0  0  0  0  0  0  0  0  0  0
  152.4653  143.7716  160.5361 C   0  0  0  0  0  0  0  0  0  0  0  0
  152.2170  145.1300  160.8135 C   0  0  0  0  0  0  0  0  0  0  0  0
  151.3467  145.8825  160.1078 N   0  0  0  0  0  0  0  0  0  0  0  0
  150.6827  145.2926  159.0909 C   0  0  0  0  0  0  0  0  0  0  0  0
  149.9223  140.0138  155.0080 C   0  0  0  0  0  0  0  0  0  0  0  0
  149.2185  133.1979  155.4769 H   0  0  0  0  0  0  0  0  0  0  0  0
  150.4464  134.4579  155.4513 H   0  0  0  0  0  0  0  0  0  0  0  0
  149.7475  133.8779  153.9405 H   0  0  0  0  0  0  0  0  0  0  0  0
  148.2514  135.3828  156.1420 H   0  0  0  0  0  0  0  0  0  0  0  0
  146.7573  133.7930  154.9237 H   0  0  0  0  0  0  0  0  0  0  0  0
  147.2309  134.5071  153.3847 H   0  0  0  0  0  0  0  0  0  0  0  0
  146.3215  135.4558  154.5580 H   0  0  0  0  0  0  0  0  0  0  0  0
  149.0900  136.3656  153.4558 H   0  0  0  0  0  0  0  0  0  0  0  0
  150.4898  138.4115  153.7147 H   0  0  0  0  0  0  0  0  0  0  0  0
  149.1310  139.6788  152.2773 H   0  0  0  0  0  0  0  0  0  0  0  0
  148.2508  138.2008  152.5325 H   0  0  0  0  0  0  0  0  0  0  0  0
  146.7738  140.2162  152.6259 H   0  0  0  0  0  0  0  0  0  0  0  0
  146.7192  139.3235  154.1200 H   0  0  0  0  0  0  0  0  0  0  0  0
  148.3456  141.8554  153.5857 H   0  0  0  0  0  0  0  0  0  0  0  0
  146.9218  141.7365  154.5926 H   0  0  0  0  0  0  0  0  0  0  0  0
  148.0822  140.2379  156.1503 H   0  0  0  0  0  0  0  0  0  0  0  0
  148.7413  142.9152  155.7638 H   0  0  0  0  0  0  0  0  0  0  0  0
  149.5885  144.1537  157.1087 H   0  0  0  0  0  0  0  0  0  0  0  0
  151.9678  142.1283  159.2451 H   0  0  0  0  0  0  0  0  0  0  0  0
  153.1781  143.2100  161.1217 H   0  0  0  0  0  0  0  0  0  0  0  0
  152.7356  145.6264  161.6203 H   0  0  0  0  0  0  0  0  0  0  0  0
  149.9964  145.9252  158.5463 H   0  0  0  0  0  0  0  0  0  0  0  0
  150.5247  139.7248  155.8702 H   0  0  0  0  0  0  0  0  0  0  0  0
  150.5660  140.6537  154.4026 H   0  0  0  0  0  0  0  0  0  0  0  0
  1  2  1  0  0  0  0
  1 23  1  0  0  0  0
  1 24  1  0  0  0  0
  1 25  1  0  0  0  0
  2  3  1  0  0  0  0
  2  4  1  0  0  0  0
  2 26  1  0  0  0  0
  3 27  1  0  0  0  0
  3 28  1  0  0  0  0
  3 29  1  0  0  0  0
  4  5  1  0  0  0  0
  4 30  1  0  0  0  0
  5  6  2  0  0  0  0
  5  7  1  0  0  0  0
  7 22  1  0  0  0  0
  7  8  1  0  0  0  0
  7 31  1  0  0  0  0
  8  9  1  0  0  0  0
  8 32  1  0  0  0  0
  8 33  1  0  0  0  0
  9 10  1  0  0  0  0
  9 34  1  0  0  0  0
  9 35  1  0  0  0  0
 10 11  1  0  0  0  0
 10 36  1  0  0  0  0
 10 37  1  0  0  0  0
 11 12  1  0  0  0  0
 11 22  1  0  0  0  0
 11 38  1  0  0  0  0
 12 13  1  0  0  0  0
 12 39  1  0  0  0  0
 13 14  2  0  0  0  0
 13 15  1  0  0  0  0
 15 16  1  0  0  0  0
 15 40  1  0  0  0  0
 16 21  1  0  0  0  0
 16 17  2  0  0  0  0
 17 18  1  0  0  0  0
 17 41  1  0  0  0  0
 18 19  2  0  0  0  0
 18 42  1  0  0  0  0
 19 20  1  0  0  0  0
 19 43  1  0  0  0  0
 20 21  2  0  0  0  0
 21 44  1  0  0  0  0
 22 45  1  0  0  0  0
 22 46  1  0  0  0  0
M  END
> <s_m_source_file>
AV-unprocessed.smi

> <i_m_source_file_index>
2678

> <i_lp_mmshare_version>
43012

> <i_f3d_flags>
0

> <s_epik_input>
W0NIM11bQ0hdKFtDSDNdKVtOSF1DKD1PKVtDQEBIXTFbQ0gyXVtDSDJdW0NIMl1bQ0BIXShbQ0gyXTEpW05IXUMoPU8pW05IXWMyW2NIXVtjSF1bY0hdbltjSF0y

> <s_epik_cmdline>
J2VwaWtfcHl0aG9uJywgJy1waCcsICc3LjAnLCAnLXRuJywgJzgnLCAnLW1hJywgJzIwMCcsICctbWV0YWxfYmluZGluZycsICctaW1hZScsICc8aW5maWxlLm1hZT4nLCAnLW9tYWUnLCAnPG91dGZpbGUubWFlPic=

> <r_epik_Ionization_Penalty>
0.00482944

> <r_epik_Ionization_Penalty_Charging>
0

> <r_epik_Ionization_Penalty_Neutral>
0.00482944

> <r_epik_State_Penalty>
0.00347168

> <r_epik_Charging_Adjusted_Penalty>
0.00347168

> <i_epik_Tot_Q>
0

> <i_epik_Tot_abs_Q>
0

> <r_epik_Metal_State_Penalty>
-0

> <b_epik_Metal_Only>
0

> <s_lp_Force_Field>
OPLS_2005

> <r_lp_Energy>
20.538

> <b_lp_Chiralities_Consistent>
1

> <s_lp_Variant>
AV-unprocessed.smi:2678-4

> <Gold.Version>
5.8.1

> <Gold.Id.Protein>
6NUR|6NUR_protein|mol2

> <Gold.PLP.Fitness>
43.2186

> <Gold.PLP.PLP>
-31.4900

> <Gold.PLP.part.hbond>
-4.5427

> <Gold.PLP.part.metal>
0.0000

> <Gold.PLP.part.buried>
2.2539

> <Gold.PLP.part.nonpolar>
-29.7917

> <Gold.PLP.part.repulsive>
0.3667

> <Gold.PLP.ligand.clash>
0.0000

> <Gold.PLP.ligand.torsion>
0.1088

> <Gold.PLP.Chemscore.Hbond>
2.9600

> <Gold.PLP.Chemscore.CHOScore>
1.0000

> <Gold.PLP.Chemscore.Metal>
0.0000

> <Gold.Chemscore.Hbonds>
donor molecule, donor type, donor heavy atom, donor atom, acceptor molecule, acceptor atom, score
      L1  H     4    30       P1  7948  1.00
      L1  H    12    39       P1  8028  0.96
      L1  H    15    40       P1  8028  1.00
      L1  C    21    44       P1  8029  1.00

> <Gold.PLP.Chemscore.Internal.Correction>
0.0661

> <Gold.Rescore>
     Score         DG    S(hbond)    S(metal)    S(lipo)     H(rot)  DE(clash)    DE(int)     intcor
     19.53     -23.36       2.79        0.00     105.27       1.46       2.47       1.36       ----

> <Gold.Chemscore.Fitness>
19.5292

> <Gold.Chemscore.DG>
-23.3602

> <Gold.Chemscore.ZeroCoef>
-5.4800

> <Gold.Chemscore.Hbond>
2.7851

> <Gold.Chemscore.Metal>
0.0000

> <Gold.Chemscore.Lipo>
105.2688

> <Gold.Chemscore.Internal_Hbond>
0.0000

> <Gold.Chemscore.DEClash>
2.4701

> <Gold.Chemscore.DEInternal>
1.3608

> <Gold.Chemscore.Rot>
1.4603

> <Gold.Chemscore.Internal.Correction>
   9.000000E+99

> <Gold.Chemscore.Hbonds>
donor molecule, donor type, donor heavy atom, donor atom, acceptor molecule, acceptor atom, score
      L1  H     4    30       P1  7948  0.96
      L1  H    12    39       P1  8028  0.92
      L1  H    15    40       P1  8028  0.48

> <Gold.Chemscore.Hbond.Weighted>
-9.3021

> <Gold.Chemscore.Metal.Weighted>
-0.0000

> <Gold.Chemscore.Lipo.Weighted>
-12.3164

> <Gold.Chemscore.Internal_Hbond.Weighted>
0.0000

> <Gold.Chemscore.DEClash.Weighted>
2.4701

> <Gold.Chemscore.DEInternal.Weighted>
1.3608

> <Gold.Chemscore.Rot.Weighted>
3.7383

> <Gold.Chemscore.Internal.Correction.Weighted>
   9.000000E+99

> <Gold.Protein.RotatedTorsions>
[ 6907 6896 6895 6894 ] final  -64.96 input  -60.11 | X-H torsion
[ 7974 7965 7964 7962 ] final   78.92 input  175.53 | X-H torsion
[ 8008 7997 7996 7995 ] final -109.67 input   59.86 | X-H torsion
[ 10167 10162 10161 10158 ] final -121.20 input  -65.29 | X-H torsion
[ 10718 10713 10712 10709 ] final -133.27 input   66.30 | X-H torsion
[ 10763 10752 10751 10750 ] final  -34.31 input  -60.55 | X-H torsion
[ 11005 11000 10999 10996 ] final  -72.14 input  -57.11 | X-H torsion

> <Gold.Protein.ActiveResidues>
 VAL166  LYS551  ARG553  GLY616  TRP617  ASP618  TYR619  PRO620  LYS621  CYS622 
 ASP623  PHE694  ASN695  SER759  ASP760  ASP761  ALA762  ILE779  LEU786  VAL792 
 PHE793  MET794  SER795  GLU796  ALA797  LYS798  CYS799  TRP800  GLU811  SER814 

> <Gold.Protein.RotatedAtoms>
  150.7553  134.6226  159.6143 H   0  0  0  0  0  0  0  0  0  0  0  0  # atno 6907 bound_to 6896
  152.3527  134.6979  160.0240 H   0  0  0  0  0  0  0  0  0  0  0  0  # atno 6908 bound_to 6896
  151.7395  133.3285  159.3398 H   0  0  0  0  0  0  0  0  0  0  0  0  # atno 6909 bound_to 6896
  145.6709  139.2496  143.1869 H   0  0  0  0  0  0  0  0  0  0  0  0  # atno 7974 bound_to 7965
  154.9628  140.0399  157.2198 H   0  0  0  0  0  0  0  0  0  0  0  0  # atno 8008 bound_to 7997
  154.7873  140.2829  155.5996 H   0  0  0  0  0  0  0  0  0  0  0  0  # atno 8009 bound_to 7997
  156.2945  140.2580  156.2712 H   0  0  0  0  0  0  0  0  0  0  0  0  # atno 8010 bound_to 7997
  140.0275  143.5281  152.2192 H   0  0  0  0  0  0  0  0  0  0  0  0  # atno 10167 bound_to 10162
  156.2432  130.7108  151.0978 H   0  0  0  0  0  0  0  0  0  0  0  0  # atno 10718 bound_to 10713
  153.8446  135.6854  153.4799 H   0  0  0  0  0  0  0  0  0  0  0  0  # atno 10763 bound_to 10752
  153.1433  135.4648  154.9526 H   0  0  0  0  0  0  0  0  0  0  0  0  # atno 10764 bound_to 10752
  154.7829  135.3275  154.7896 H   0  0  0  0  0  0  0  0  0  0  0  0  # atno 10765 bound_to 10752
  141.1604  133.6838  156.7013 H   0  0  0  0  0  0  0  0  0  0  0  0  # atno 11005 bound_to 11000
  146.1046  140.7502  142.9532 LP  0  0  0  0  0  0  0  0  0  0  0  0  # atno 17320 bound_to 7965
  144.7057  140.3842  143.7120 LP  0  0  0  0  0  0  0  0  0  0  0  0  # atno 17321 bound_to 7965
  139.6098  144.7606  151.2978 LP  0  0  0  0  0  0  0  0  0  0  0  0  # atno 17342 bound_to 10162
  140.7316  143.6847  150.7972 LP  0  0  0  0  0  0  0  0  0  0  0  0  # atno 17343 bound_to 10162
  157.7184  131.0696  150.6235 LP  0  0  0  0  0  0  0  0  0  0  0  0  # atno 17370 bound_to 10713
  156.6310  130.4432  149.5787 LP  0  0  0  0  0  0  0  0  0  0  0  0  # atno 17371 bound_to 10713
  140.2957  134.8205  157.4055 LP  0  0  0  0  0  0  0  0  0  0  0  0  # atno 17394 bound_to 11000
  140.1307  134.5099  155.8108 LP  0  0  0  0  0  0  0  0  0  0  0  0  # atno 17395 bound_to 11000

$$$$
