AV-unprocessed.smi:2170|AV-procd|sdf|8825|dock8
  -GOLD-   2272012 23D 1   1.00000     0.00000
 Structure written by MMmdl.
 45 46  0  0  0  0  0  0  0  0  2 V2000
  148.6994  134.1428  154.5329 C   0  0  0  0  0  0  0  0  0  0  0  0
  149.5217  132.8742  154.8218 C   0  0  0  0  0  0  0  0  0  0  0  0
  148.7096  131.5971  154.5402 C   0  0  0  0  0  0  0  0  0  0  0  0
  150.0813  132.8938  156.1966 N   0  0  0  0  0  0  0  0  0  0  0  0
  151.2119  131.9766  156.4456 C   0  0  0  0  0  0  0  0  0  0  0  0
  148.9800  133.1774  157.5178 S   0  0  0  0  0  0  0  0  0  0  0  0
  147.6317  133.2788  156.9349 O   0  0  0  0  0  0  0  0  0  0  0  0
  149.2289  132.0982  158.4878 O   0  0  0  0  0  0  0  0  0  0  0  0
  149.5704  134.6164  157.9756 N   0  5  0  0  0  0  0  0  0  0  0  0
  149.8005  135.6335  156.9666 C   0  0  0  0  0  0  0  0  0  0  0  0
  150.4392  136.8808  157.5605 C   0  0  0  0  0  0  0  0  0  0  0  0
  151.5982  137.4486  156.9882 C   0  0  0  0  0  0  0  0  0  0  0  0
  152.1554  138.6026  157.5733 C   0  0  0  0  0  0  0  0  0  0  0  0
  151.5398  139.1646  158.7167 C   0  0  0  0  0  0  0  0  0  0  0  0
  152.0789  140.3250  159.3144 N   0  0  0  0  0  0  0  0  0  0  0  0
  151.8738  141.6031  158.6351 C   0  0  0  0  0  0  0  0  0  0  0  0
  152.2740  142.7687  159.5550 C   0  0  0  0  0  0  0  0  0  0  0  0
  153.6165  142.5916  159.9946 O   0  0  0  0  0  0  0  0  0  0  0  0
  153.7728  141.3940  160.7484 C   0  0  0  0  0  0  0  0  0  0  0  0
  153.4194  140.1771  159.8760 C   0  0  0  0  0  0  0  0  0  0  0  0
  150.4320  138.6118  159.2697 N   0  0  0  0  0  0  0  0  0  0  0  0
  149.8978  137.5071  158.7049 C   0  0  0  0  0  0  0  0  0  0  0  0
  148.3556  134.1524  153.4984 H   0  0  0  0  0  0  0  0  0  0  0  0
  149.2913  135.0453  154.6850 H   0  0  0  0  0  0  0  0  0  0  0  0
  147.8177  134.2101  155.1702 H   0  0  0  0  0  0  0  0  0  0  0  0
  150.3596  132.8564  154.1255 H   0  0  0  0  0  0  0  0  0  0  0  0
  148.4659  131.5242  153.4800 H   0  0  0  0  0  0  0  0  0  0  0  0
  147.7662  131.5807  155.0864 H   0  0  0  0  0  0  0  0  0  0  0  0
  149.2743  130.7032  154.8074 H   0  0  0  0  0  0  0  0  0  0  0  0
  150.9062  130.9411  156.3005 H   0  0  0  0  0  0  0  0  0  0  0  0
  151.5757  132.0715  157.4679 H   0  0  0  0  0  0  0  0  0  0  0  0
  152.0526  132.1965  155.7895 H   0  0  0  0  0  0  0  0  0  0  0  0
  150.4408  135.2663  156.1638 H   0  0  0  0  0  0  0  0  0  0  0  0
  148.8713  135.9366  156.4827 H   0  0  0  0  0  0  0  0  0  0  0  0
  152.0673  137.0184  156.1138 H   0  0  0  0  0  0  0  0  0  0  0  0
  153.0495  139.0315  157.1470 H   0  0  0  0  0  0  0  0  0  0  0  0
  152.4702  141.6274  157.7219 H   0  0  0  0  0  0  0  0  0  0  0  0
  150.8280  141.7140  158.3460 H   0  0  0  0  0  0  0  0  0  0  0  0
  152.1977  143.7142  159.0177 H   0  0  0  0  0  0  0  0  0  0  0  0
  151.6037  142.8353  160.4136 H   0  0  0  0  0  0  0  0  0  0  0  0
  154.8056  141.3223  161.0896 H   0  0  0  0  0  0  0  0  0  0  0  0
  153.1447  141.4280  161.6400 H   0  0  0  0  0  0  0  0  0  0  0  0
  153.5086  139.2737  160.4775 H   0  0  0  0  0  0  0  0  0  0  0  0
  154.1346  140.0851  159.0577 H   0  0  0  0  0  0  0  0  0  0  0  0
  149.0129  137.1250  159.1954 H   0  0  0  0  0  0  0  0  0  0  0  0
  1  2  1  0  0  0  0
  1 23  1  0  0  0  0
  1 24  1  0  0  0  0
  1 25  1  0  0  0  0
  2  3  1  0  0  0  0
  2  4  1  0  0  0  0
  2 26  1  0  0  0  0
  3 27  1  0  0  0  0
  3 28  1  0  0  0  0
  3 29  1  0  0  0  0
  4  5  1  0  0  0  0
  4  6  1  0  0  0  0
  5 30  1  0  0  0  0
  5 31  1  0  0  0  0
  5 32  1  0  0  0  0
  6  7  2  0  0  0  0
  6  8  2  0  0  0  0
  6  9  1  0  0  0  0
  9 10  1  0  0  0  0
 10 11  1  0  0  0  0
 10 33  1  0  0  0  0
 10 34  1  0  0  0  0
 11 22  1  0  0  0  0
 11 12  2  0  0  0  0
 12 13  1  0  0  0  0
 12 35  1  0  0  0  0
 13 14  2  0  0  0  0
 13 36  1  0  0  0  0
 14 15  1  0  0  0  0
 14 21  1  0  0  0  0
 15 20  1  0  0  0  0
 15 16  1  0  0  0  0
 16 17  1  0  0  0  0
 16 37  1  0  0  0  0
 16 38  1  0  0  0  0
 17 18  1  0  0  0  0
 17 39  1  0  0  0  0
 17 40  1  0  0  0  0
 18 19  1  0  0  0  0
 19 20  1  0  0  0  0
 19 41  1  0  0  0  0
 19 42  1  0  0  0  0
 20 43  1  0  0  0  0
 20 44  1  0  0  0  0
 21 22  2  0  0  0  0
 22 45  1  0  0  0  0
M  CHG  1   9  -1
M  END
> <s_m_source_file>
AV-unprocessed.smi

> <i_m_source_file_index>
2170

> <i_lp_mmshare_version>
43012

> <i_f3d_flags>
0

> <s_epik_input>
W0NIM11bQ0hdKFtDSDNdKU4oW0NIM10pUyg9TykoPU8pW05IXVtDSDJdYzFbY0hdW2NIXWMobltjSF0xKU4yW0NIMl1bQ0gyXU9bQ0gyXVtDSDJdMg==

> <s_epik_cmdline>
J2VwaWtfcHl0aG9uJywgJy1waCcsICc3LjAnLCAnLXRuJywgJzgnLCAnLW1hJywgJzIwMCcsICctbWV0YWxfYmluZGluZycsICctaW1hZScsICc8aW5maWxlLm1hZT4nLCAnLW9tYWUnLCAnPG91dGZpbGUubWFlPic=

> <r_lp_tautomer_probability>
1

> <r_epik_Ionization_Penalty>
3.3971

> <r_epik_Ionization_Penalty_Charging>
3.31706

> <r_epik_Ionization_Penalty_Neutral>
0.0800436

> <r_epik_State_Penalty>
3.32044

> <r_epik_Charging_Adjusted_Penalty>
6.63751

> <i_epik_Tot_Q>
-1

> <i_epik_Tot_abs_Q>
1

> <r_epik_Metal_State_Penalty>
0.488406

> <b_epik_Metal_Only>
1

> <s_lp_Force_Field>
OPLS_2005

> <r_lp_Energy>
16.8192

> <b_lp_Chiralities_Consistent>
1

> <s_lp_Variant>
AV-unprocessed.smi:2170-2

> <Gold.Version>
5.8.1

> <Gold.Id.Protein>
6NUR|6NUR_protein|mol2

> <Gold.PLP.Fitness>
36.9713

> <Gold.PLP.PLP>
-31.3994

> <Gold.PLP.part.hbond>
-2.2803

> <Gold.PLP.part.metal>
0.0000

> <Gold.PLP.part.buried>
-5.5843

> <Gold.PLP.part.nonpolar>
-24.2748

> <Gold.PLP.part.repulsive>
0.0000

> <Gold.PLP.ligand.clash>
0.0000

> <Gold.PLP.ligand.torsion>
2.2143

> <Gold.PLP.Chemscore.Hbond>
1.9840

> <Gold.PLP.Chemscore.CHOScore>
0.0000

> <Gold.PLP.Chemscore.Metal>
0.0000

> <Gold.Chemscore.Hbonds>
donor molecule, donor type, donor heavy atom, donor atom, acceptor molecule, acceptor atom, score
      P1  H  6896  6908       L1     9  2.00

> <Gold.PLP.Chemscore.Internal.Correction>
4.0484

> <Gold.Rescore>
     Score         DG    S(hbond)    S(metal)    S(lipo)     H(rot)  DE(clash)    DE(int)     intcor
      9.56     -13.21       0.88        0.00      74.74       1.54       0.01       3.64       ----

> <Gold.Chemscore.Fitness>
9.5570

> <Gold.Chemscore.DG>
-13.2078

> <Gold.Chemscore.ZeroCoef>
-5.4800

> <Gold.Chemscore.Hbond>
0.8771

> <Gold.Chemscore.Metal>
0.0000

> <Gold.Chemscore.Lipo>
74.7382

> <Gold.Chemscore.Internal_Hbond>
0.0000

> <Gold.Chemscore.DEClash>
0.0073

> <Gold.Chemscore.DEInternal>
3.6435

> <Gold.Chemscore.Rot>
1.5415

> <Gold.Chemscore.Internal.Correction>
   9.000000E+99

> <Gold.Chemscore.Hbonds>
donor molecule, donor type, donor heavy atom, donor atom, acceptor molecule, acceptor atom, score
      P1  H  6896  6908       L1     9  0.30

> <Gold.Chemscore.Hbond.Weighted>
-2.9297

> <Gold.Chemscore.Metal.Weighted>
-0.0000

> <Gold.Chemscore.Lipo.Weighted>
-8.7444

> <Gold.Chemscore.Internal_Hbond.Weighted>
0.0000

> <Gold.Chemscore.DEClash.Weighted>
0.0073

> <Gold.Chemscore.DEInternal.Weighted>
3.6435

> <Gold.Chemscore.Rot.Weighted>
3.9462

> <Gold.Chemscore.Internal.Correction.Weighted>
   9.000000E+99

> <Gold.Protein.RotatedTorsions>
[ 6907 6896 6895 6894 ] final  140.84 input  -60.11 | X-H torsion
[ 7974 7965 7964 7962 ] final   82.04 input  175.53 | X-H torsion
[ 8008 7997 7996 7995 ] final -112.22 input   59.86 | X-H torsion
[ 10167 10162 10161 10158 ] final -156.05 input  -65.29 | X-H torsion
[ 10718 10713 10712 10709 ] final  -73.78 input   66.30 | X-H torsion
[ 10763 10752 10751 10750 ] final   49.95 input  -60.55 | X-H torsion
[ 11005 11000 10999 10996 ] final   40.82 input  -57.11 | X-H torsion

> <Gold.Protein.ActiveResidues>
 VAL166  LYS551  ARG553  GLY616  TRP617  ASP618  TYR619  PRO620  LYS621  CYS622 
 ASP623  PHE694  ASN695  SER759  ASP760  ASP761  ALA762  ILE779  LEU786  VAL792 
 PHE793  MET794  SER795  GLU796  ALA797  LYS798  CYS799  TRP800  GLU811  SER814 

> <Gold.Protein.RotatedAtoms>
  152.2382  133.5113  159.5254 H   0  0  0  0  0  0  0  0  0  0  0  0  # atno 6907 bound_to 6896
  150.7056  134.1125  159.4014 H   0  0  0  0  0  0  0  0  0  0  0  0  # atno 6908 bound_to 6896
  151.9046  135.0364  160.0560 H   0  0  0  0  0  0  0  0  0  0  0  0  # atno 6909 bound_to 6896
  145.6302  139.2403  143.2089 H   0  0  0  0  0  0  0  0  0  0  0  0  # atno 7974 bound_to 7965
  155.0018  140.0394  157.2363 H   0  0  0  0  0  0  0  0  0  0  0  0  # atno 8008 bound_to 7997
  154.7537  140.2771  155.6248 H   0  0  0  0  0  0  0  0  0  0  0  0  # atno 8009 bound_to 7997
  156.2890  140.2642  156.2297 H   0  0  0  0  0  0  0  0  0  0  0  0  # atno 8010 bound_to 7997
  139.6881  143.9466  152.2371 H   0  0  0  0  0  0  0  0  0  0  0  0  # atno 10167 bound_to 10162
  156.0267  130.4402  150.2794 H   0  0  0  0  0  0  0  0  0  0  0  0  # atno 10718 bound_to 10713
  152.9785  135.5895  154.4173 H   0  0  0  0  0  0  0  0  0  0  0  0  # atno 10763 bound_to 10752
  154.3802  135.2767  155.2218 H   0  0  0  0  0  0  0  0  0  0  0  0  # atno 10764 bound_to 10752
  154.4135  135.6076  153.6021 H   0  0  0  0  0  0  0  0  0  0  0  0  # atno 10765 bound_to 10752
  140.1894  134.4005  155.8155 H   0  0  0  0  0  0  0  0  0  0  0  0  # atno 11005 bound_to 11000
  146.1362  140.7119  142.9388 LP  0  0  0  0  0  0  0  0  0  0  0  0  # atno 17320 bound_to 7965
  144.7196  140.4330  143.7018 LP  0  0  0  0  0  0  0  0  0  0  0  0  # atno 17321 bound_to 7965
  139.9275  144.6762  150.8397 LP  0  0  0  0  0  0  0  0  0  0  0  0  # atno 17342 bound_to 10162
  140.7674  143.3332  151.2365 LP  0  0  0  0  0  0  0  0  0  0  0  0  # atno 17343 bound_to 10162
  157.0897  131.0166  151.3126 LP  0  0  0  0  0  0  0  0  0  0  0  0  # atno 17370 bound_to 10713
  157.4863  130.7795  149.7463 LP  0  0  0  0  0  0  0  0  0  0  0  0  # atno 17371 bound_to 10713
  141.2226  133.7039  156.8069 LP  0  0  0  0  0  0  0  0  0  0  0  0  # atno 17394 bound_to 11000
  140.2177  134.8780  157.3343 LP  0  0  0  0  0  0  0  0  0  0  0  0  # atno 17395 bound_to 11000

$$$$
