AV-unprocessed.smi:1843|AV-procd|sdf|7507|dock1
  -GOLD-   22720 9213D 1   1.00000     0.00000
 Structure written by MMmdl.
 36 38  0  0  0  0  0  0  0  0  2 V2000
  151.9574  137.3658  154.1443 O   0  0  0  0  0  0  0  0  0  0  0  0
  151.2311  138.1441  154.7666 C   0  0  0  0  0  0  0  0  0  0  0  0
  151.3189  139.4936  154.7700 N   0  5  0  0  0  0  0  0  0  0  0  0
  151.5774  140.1468  155.9149 C   0  0  0  0  0  0  0  0  0  0  0  0
  152.4674  139.7016  156.8128 N   0  0  0  0  0  0  0  0  0  0  0  0
  152.5844  140.5300  157.9198 N   0  0  0  0  0  0  0  0  0  0  0  0
  151.7834  141.5950  157.8389 C   0  0  0  0  0  0  0  0  0  0  0  0
  151.7233  142.6345  158.9076 C   0  0  0  0  0  0  0  0  0  0  0  0
  152.8756  143.5881  159.1247 C   0  0  0  0  0  0  0  0  0  0  0  0
  152.5702  142.5336  160.1575 C   0  0  0  0  0  0  0  0  0  0  0  0
  150.8165  141.6692  156.3750 S   0  0  0  0  0  0  0  0  0  0  0  0
  150.2449  137.6681  155.5398 N   0  0  0  0  0  0  0  0  0  0  0  0
  149.9136  136.2593  155.7466 C   0  0  1  0  0  0  0  0  0  0  0  0
  149.3824  135.6722  154.4189 C   0  0  0  0  0  0  0  0  0  0  0  0
  149.1745  134.1529  154.4920 C   0  0  0  0  0  0  0  0  0  0  0  0
  150.4678  133.4428  154.9119 C   0  0  0  0  0  0  0  0  0  0  0  0
  150.9637  133.9800  156.2606 C   0  0  0  0  0  0  0  0  0  0  0  0
  151.1765  135.5056  156.2252 C   0  0  2  0  0  0  0  0  0  0  0  0
  151.5039  135.9175  157.5374 O   0  0  0  0  0  0  0  0  0  0  0  0
  150.7122  143.0236  159.0085 H   0  0  0  0  0  0  0  0  0  0  0  0
  153.7672  143.4506  158.5158 H   0  0  0  0  0  0  0  0  0  0  0  0
  152.6330  144.6198  159.3708 H   0  0  0  0  0  0  0  0  0  0  0  0
  152.1229  142.8611  161.0936 H   0  0  0  0  0  0  0  0  0  0  0  0
  153.2687  141.7035  160.2407 H   0  0  0  0  0  0  0  0  0  0  0  0
  149.6796  138.3441  156.0320 H   0  0  0  0  0  0  0  0  0  0  0  0
  149.1380  136.1646  156.5094 H   0  0  0  0  0  0  0  0  0  0  0  0
  148.4432  136.1543  154.1449 H   0  0  0  0  0  0  0  0  0  0  0  0
  150.0848  135.8938  153.6142 H   0  0  0  0  0  0  0  0  0  0  0  0
  148.3802  133.9253  155.2041 H   0  0  0  0  0  0  0  0  0  0  0  0
  148.8409  133.7774  153.5244 H   0  0  0  0  0  0  0  0  0  0  0  0
  150.2978  132.3680  154.9790 H   0  0  0  0  0  0  0  0  0  0  0  0
  151.2350  133.5899  154.1508 H   0  0  0  0  0  0  0  0  0  0  0  0
  150.2354  133.7271  157.0331 H   0  0  0  0  0  0  0  0  0  0  0  0
  151.8922  133.4790  156.5377 H   0  0  0  0  0  0  0  0  0  0  0  0
  152.0161  135.7344  155.5668 H   0  0  0  0  0  0  0  0  0  0  0  0
  151.6891  136.8445  157.5201 H   0  0  0  0  0  0  0  0  0  0  0  0
  1  2  2  0  0  0  0
  2  3  1  0  0  0  0
  2 12  1  0  0  0  0
  3  4  1  0  0  0  0
  4 11  1  0  0  0  0
  4  5  2  0  0  0  0
  5  6  1  0  0  0  0
  6  7  2  0  0  0  0
  7  8  1  0  0  0  0
  7 11  1  0  0  0  0
  8 10  1  0  0  0  0
  8  9  1  0  0  0  0
  8 20  1  0  0  0  0
  9 10  1  0  0  0  0
  9 21  1  0  0  0  0
  9 22  1  0  0  0  0
 10 23  1  0  0  0  0
 10 24  1  0  0  0  0
 12 13  1  0  0  0  0
 12 25  1  0  0  0  0
 13 18  1  0  0  0  0
 13 14  1  0  0  0  0
 13 26  1  0  0  0  0
 14 15  1  0  0  0  0
 14 27  1  0  0  0  0
 14 28  1  0  0  0  0
 15 16  1  0  0  0  0
 15 29  1  0  0  0  0
 15 30  1  0  0  0  0
 16 17  1  0  0  0  0
 16 31  1  0  0  0  0
 16 32  1  0  0  0  0
 17 18  1  0  0  0  0
 17 33  1  0  0  0  0
 17 34  1  0  0  0  0
 18 19  1  0  0  0  0
 18 35  1  0  0  0  0
 19 36  1  0  0  0  0
M  CHG  1   3  -1
M  END
> <s_m_source_file>
AV-unprocessed.smi

> <i_m_source_file_index>
1843

> <i_lp_mmshare_version>
43012

> <i_f3d_flags>
0

> <s_epik_input>
W09IXVtDQEBIXTFbQ0gyXVtDSDJdW0NIMl1bQ0gyXVtDQEhdMVtOSF1DKD1PKVtOSF1jMm5uYyhzMilbQ0hdM1tDSDJdW0NIMl0z

> <s_epik_cmdline>
J2VwaWtfcHl0aG9uJywgJy1waCcsICc3LjAnLCAnLXRuJywgJzgnLCAnLW1hJywgJzIwMCcsICctbWV0YWxfYmluZGluZycsICctaW1hZScsICc8aW5maWxlLm1hZT4nLCAnLW9tYWUnLCAnPG91dGZpbGUubWFlPic=

> <r_lp_tautomer_probability>
1

> <r_epik_Ionization_Penalty>
4.7996

> <r_epik_Ionization_Penalty_Charging>
4.64516

> <r_epik_Ionization_Penalty_Neutral>
0.154442

> <r_epik_State_Penalty>
4.64493

> <r_epik_Charging_Adjusted_Penalty>
9.29009

> <i_epik_Tot_Q>
-1

> <i_epik_Tot_abs_Q>
1

> <r_epik_Metal_State_Penalty>
0.896144

> <b_epik_Metal_Only>
1

> <s_lp_Force_Field>
OPLS_2005

> <r_lp_Energy>
6.73246

> <b_lp_Chiralities_Consistent>
1

> <s_lp_Variant>
AV-unprocessed.smi:1843-8

> <Gold.Version>
5.8.1

> <Gold.Id.Protein>
6NUR|6NUR_protein|mol2

> <Gold.PLP.Fitness>
37.6661

> <Gold.PLP.PLP>
-32.5068

> <Gold.PLP.part.hbond>
-4.9324

> <Gold.PLP.part.metal>
0.0000

> <Gold.PLP.part.buried>
-2.6301

> <Gold.PLP.part.nonpolar>
-25.7837

> <Gold.PLP.part.repulsive>
0.2254

> <Gold.PLP.ligand.clash>
0.0000

> <Gold.PLP.ligand.torsion>
1.0396

> <Gold.PLP.Chemscore.Hbond>
2.3510

> <Gold.PLP.Chemscore.CHOScore>
0.0000

> <Gold.PLP.Chemscore.Metal>
0.0000

> <Gold.Chemscore.Hbonds>
donor molecule, donor type, donor heavy atom, donor atom, acceptor molecule, acceptor atom, score
      P1  H  7989  7998       L1     3  1.00
      P1  H  7997  8009       L1     5  0.20
      P1  H 10752 10764       L1     1  0.98

> <Gold.PLP.Chemscore.Internal.Correction>
0.1855

> <Gold.Rescore>
     Score         DG    S(hbond)    S(metal)    S(lipo)     H(rot)  DE(clash)    DE(int)     intcor
     12.81     -16.01       1.82        0.00      75.60       1.72       0.07       3.12       ----

> <Gold.Chemscore.Fitness>
12.8104

> <Gold.Chemscore.DG>
-16.0060

> <Gold.Chemscore.ZeroCoef>
-5.4800

> <Gold.Chemscore.Hbond>
1.8184

> <Gold.Chemscore.Metal>
0.0000

> <Gold.Chemscore.Lipo>
75.6023

> <Gold.Chemscore.Internal_Hbond>
0.0000

> <Gold.Chemscore.DEClash>
0.0712

> <Gold.Chemscore.DEInternal>
3.1244

> <Gold.Chemscore.Rot>
1.7160

> <Gold.Chemscore.Internal.Correction>
   9.000000E+99

> <Gold.Chemscore.Hbonds>
donor molecule, donor type, donor heavy atom, donor atom, acceptor molecule, acceptor atom, score
      P1  H  6896  6909       L1    19  0.01
      P1  H  7989  7998       L1     3  0.30
      P1  H 10752 10764       L1     1  0.91

> <Gold.Chemscore.Hbond.Weighted>
-6.0734

> <Gold.Chemscore.Metal.Weighted>
-0.0000

> <Gold.Chemscore.Lipo.Weighted>
-8.8455

> <Gold.Chemscore.Internal_Hbond.Weighted>
0.0000

> <Gold.Chemscore.DEClash.Weighted>
0.0712

> <Gold.Chemscore.DEInternal.Weighted>
3.1244

> <Gold.Chemscore.Rot.Weighted>
4.3930

> <Gold.Chemscore.Internal.Correction.Weighted>
   9.000000E+99

> <Gold.Protein.RotatedTorsions>
[ 6907 6896 6895 6894 ] final   67.22 input  -60.11 | X-H torsion
[ 7974 7965 7964 7962 ] final  -61.38 input  175.53 | X-H torsion
[ 8008 7997 7996 7995 ] final -175.19 input   59.86 | X-H torsion
[ 10167 10162 10161 10158 ] final -142.03 input  -65.29 | X-H torsion
[ 10718 10713 10712 10709 ] final  156.05 input   66.30 | X-H torsion
[ 10763 10752 10751 10750 ] final  -82.19 input  -60.55 | X-H torsion
[ 11005 11000 10999 10996 ] final  146.99 input  -57.11 | X-H torsion

> <Gold.Protein.ActiveResidues>
 VAL166  LYS551  ARG553  GLY616  TRP617  ASP618  TYR619  PRO620  LYS621  CYS622 
 ASP623  PHE694  ASN695  SER759  ASP760  ASP761  ALA762  ILE779  LEU786  VAL792 
 PHE793  MET794  SER795  GLU796  ALA797  LYS798  CYS799  TRP800  GLU811  SER814 

> <Gold.Protein.RotatedAtoms>
  152.4537  134.5339  159.9818 H   0  0  0  0  0  0  0  0  0  0  0  0  # atno 6907 bound_to 6896
  151.5405  133.3428  159.2942 H   0  0  0  0  0  0  0  0  0  0  0  0  # atno 6908 bound_to 6896
  150.8473  134.7818  159.7044 H   0  0  0  0  0  0  0  0  0  0  0  0  # atno 6909 bound_to 6896
  145.8041  140.8637  143.0216 H   0  0  0  0  0  0  0  0  0  0  0  0  # atno 7974 bound_to 7965
  155.9795  140.1179  157.0740 H   0  0  0  0  0  0  0  0  0  0  0  0  # atno 8008 bound_to 7997
  154.4178  140.1147  156.5483 H   0  0  0  0  0  0  0  0  0  0  0  0  # atno 8009 bound_to 7997
  155.6490  140.3473  155.4744 H   0  0  0  0  0  0  0  0  0  0  0  0  # atno 8010 bound_to 7997
  139.8127  143.7680  152.2664 H   0  0  0  0  0  0  0  0  0  0  0  0  # atno 10167 bound_to 10162
  157.2102  131.0696  151.1974 H   0  0  0  0  0  0  0  0  0  0  0  0  # atno 10718 bound_to 10713
  154.5728  135.5600  153.7111 H   0  0  0  0  0  0  0  0  0  0  0  0  # atno 10763 bound_to 10752
  153.0054  135.6301  154.2091 H   0  0  0  0  0  0  0  0  0  0  0  0  # atno 10764 bound_to 10752
  154.2031  135.2877  155.2964 H   0  0  0  0  0  0  0  0  0  0  0  0  # atno 10765 bound_to 10752
  140.0839  134.9081  157.1544 H   0  0  0  0  0  0  0  0  0  0  0  0  # atno 11005 bound_to 11000
  144.6765  140.0301  143.7482 LP  0  0  0  0  0  0  0  0  0  0  0  0  # atno 17320 bound_to 7965
  145.9846  139.2968  143.1021 LP  0  0  0  0  0  0  0  0  0  0  0  0  # atno 17321 bound_to 7965
  139.7834  144.7436  151.0055 LP  0  0  0  0  0  0  0  0  0  0  0  0  # atno 17342 bound_to 10162
  140.7817  143.4517  151.0403 LP  0  0  0  0  0  0  0  0  0  0  0  0  # atno 17343 bound_to 10162
  157.3680  130.7166  149.6546 LP  0  0  0  0  0  0  0  0  0  0  0  0  # atno 17370 bound_to 10713
  155.9691  130.4207  150.4434 LP  0  0  0  0  0  0  0  0  0  0  0  0  # atno 17371 bound_to 10713
  140.3448  134.2664  155.7206 LP  0  0  0  0  0  0  0  0  0  0  0  0  # atno 17394 bound_to 11000
  141.2056  133.7856  157.0224 LP  0  0  0  0  0  0  0  0  0  0  0  0  # atno 17395 bound_to 11000

$$$$
