AV-unprocessed.smi:170|AV-procd|sdf|1408|dock3
  -GOLD-   2262019163D 1   1.00000     0.00000
 Structure written by MMmdl.
 57 61  0  0  0  0  0  0  0  0  1 V2000
  150.7911  142.5788  156.2579 O   0  0  0  0  0  0  0  0  0  0  0  0
  151.0672  142.2542  157.6076 C   0  0  2  0  0  0  0  0  0  0  0  0
  149.7536  141.8749  158.3191 C   0  0  0  0  0  0  0  0  0  0  0  0
  149.3514  140.5062  158.0484 N   0  0  0  0  0  0  0  0  0  0  0  0
  148.2116  140.0934  157.3954 C   0  0  0  0  0  0  0  0  0  0  0  0
  148.0761  138.8004  157.2758 N   0  0  0  0  0  0  0  0  0  0  0  0
  149.2096  138.2861  157.8929 C   0  0  0  0  0  0  0  0  0  0  0  0
  149.6960  136.9722  158.1244 C   0  0  0  0  0  0  0  0  0  0  0  0
  149.0277  135.8768  157.6889 N   0  0  0  0  0  0  0  0  0  0  0  0
  149.7683  135.2490  156.5993 C   0  0  0  0  0  0  0  0  0  0  0  0
  148.9490  134.1127  155.9750 C   0  0  0  0  0  0  0  0  0  0  0  0
  148.6126  133.1799  156.9917 O   0  0  0  0  0  0  0  0  0  0  0  0
  147.7940  133.7676  157.9955 C   0  0  0  0  0  0  0  0  0  0  0  0
  148.5349  134.9299  158.7001 C   0  0  2  0  0  0  0  0  0  0  0  0
  147.6206  135.6174  159.7493 C   0  0  0  0  0  0  0  0  0  0  0  0
  147.3893  134.7939  161.0155 C   0  0  0  0  0  0  0  0  0  0  0  0
  146.3237  133.6872  161.0215 C   0  0  0  0  0  0  0  0  0  0  0  0
  146.0417  134.0324  162.4865 C   0  0  0  0  0  0  0  0  0  0  0  0
  146.6432  135.4123  162.2077 C   0  0  0  0  0  0  0  0  0  0  0  0
  150.8871  136.8418  158.7682 N   0  0  0  0  0  0  0  0  0  0  0  0
  151.5494  137.9288  159.1763 C   0  0  0  0  0  0  0  0  0  0  0  0
  151.2120  139.2134  159.0392 N   0  0  0  0  0  0  0  0  0  0  0  0
  150.0233  139.3450  158.3831 C   0  0  0  0  0  0  0  0  0  0  0  0
  151.7830  143.4294  158.3050 C   0  0  2  0  0  0  0  0  0  0  0  0
  152.2259  143.2177  159.7568 C   0  0  0  0  0  0  0  0  0  0  0  0
  152.2823  144.6437  160.2567 C   0  0  0  0  0  0  0  0  0  0  0  0
  151.0756  145.2645  159.5575 C   0  0  0  0  0  0  0  0  0  0  0  0
  150.9701  144.6003  158.3007 O   0  0  0  0  0  0  0  0  0  0  0  0
  149.9880  143.0766  156.2316 H   0  0  0  0  0  0  0  0  0  0  0  0
  151.7299  141.3877  157.6169 H   0  0  0  0  0  0  0  0  0  0  0  0
  149.8620  141.9895  159.3983 H   0  0  0  0  0  0  0  0  0  0  0  0
  148.9451  142.5410  158.0151 H   0  0  0  0  0  0  0  0  0  0  0  0
  147.4812  140.7873  157.0053 H   0  0  0  0  0  0  0  0  0  0  0  0
  150.0119  135.9856  155.8322 H   0  0  0  0  0  0  0  0  0  0  0  0
  150.7127  134.8581  156.9814 H   0  0  0  0  0  0  0  0  0  0  0  0
  148.0469  134.4955  155.4947 H   0  0  0  0  0  0  0  0  0  0  0  0
  149.5324  133.6064  155.2061 H   0  0  0  0  0  0  0  0  0  0  0  0
  146.8576  134.1128  157.5535 H   0  0  0  0  0  0  0  0  0  0  0  0
  147.5385  132.9839  158.7081 H   0  0  0  0  0  0  0  0  0  0  0  0
  149.4012  134.5087  159.2122 H   0  0  0  0  0  0  0  0  0  0  0  0
  148.0415  136.5793  160.0400 H   0  0  0  0  0  0  0  0  0  0  0  0
  146.6605  135.8512  159.2877 H   0  0  0  0  0  0  0  0  0  0  0  0
  148.3252  134.3627  161.3760 H   0  0  0  0  0  0  0  0  0  0  0  0
  145.4768  133.9057  160.3689 H   0  0  0  0  0  0  0  0  0  0  0  0
  146.7090  132.6808  160.8555 H   0  0  0  0  0  0  0  0  0  0  0  0
  144.9864  134.0395  162.7605 H   0  0  0  0  0  0  0  0  0  0  0  0
  146.6397  133.4430  163.1834 H   0  0  0  0  0  0  0  0  0  0  0  0
  147.2875  135.8000  162.9973 H   0  0  0  0  0  0  0  0  0  0  0  0
  145.8941  136.1457  161.9037 H   0  0  0  0  0  0  0  0  0  0  0  0
  152.4846  137.7426  159.6835 H   0  0  0  0  0  0  0  0  0  0  0  0
  152.6654  143.6931  157.7196 H   0  0  0  0  0  0  0  0  0  0  0  0
  151.4852  142.6601  160.3305 H   0  0  0  0  0  0  0  0  0  0  0  0
  153.1809  142.6978  159.8379 H   0  0  0  0  0  0  0  0  0  0  0  0
  152.2332  144.7218  161.3431 H   0  0  0  0  0  0  0  0  0  0  0  0
  153.2016  145.1239  159.9187 H   0  0  0  0  0  0  0  0  0  0  0  0
  150.1667  145.0695  160.1281 H   0  0  0  0  0  0  0  0  0  0  0  0
  151.1730  146.3433  159.4334 H   0  0  0  0  0  0  0  0  0  0  0  0
  1  2  1  0  0  0  0
  1 29  1  0  0  0  0
  2  3  1  0  0  0  0
  2 24  1  0  0  0  0
  2 30  1  0  0  0  0
  3  4  1  0  0  0  0
  3 31  1  0  0  0  0
  3 32  1  0  0  0  0
  4 23  1  0  0  0  0
  4  5  1  0  0  0  0
  5  6  2  0  0  0  0
  5 33  1  0  0  0  0
  6  7  1  0  0  0  0
  7 23  2  0  0  0  0
  7  8  1  0  0  0  0
  8  9  1  0  0  0  0
  8 20  2  0  0  0  0
  9 14  1  0  0  0  0
  9 10  1  0  0  0  0
 10 11  1  0  0  0  0
 10 34  1  0  0  0  0
 10 35  1  0  0  0  0
 11 12  1  0  0  0  0
 11 36  1  0  0  0  0
 11 37  1  0  0  0  0
 12 13  1  0  0  0  0
 13 14  1  0  0  0  0
 13 38  1  0  0  0  0
 13 39  1  0  0  0  0
 14 15  1  0  0  0  0
 14 40  1  0  0  0  0
 15 16  1  0  0  0  0
 15 41  1  0  0  0  0
 15 42  1  0  0  0  0
 16 19  1  0  0  0  0
 16 17  1  0  0  0  0
 16 43  1  0  0  0  0
 17 18  1  0  0  0  0
 17 44  1  0  0  0  0
 17 45  1  0  0  0  0
 18 19  1  0  0  0  0
 18 46  1  0  0  0  0
 18 47  1  0  0  0  0
 19 48  1  0  0  0  0
 19 49  1  0  0  0  0
 20 21  1  0  0  0  0
 21 22  2  0  0  0  0
 21 50  1  0  0  0  0
 22 23  1  0  0  0  0
 24 28  1  0  0  0  0
 24 25  1  0  0  0  0
 24 51  1  0  0  0  0
 25 26  1  0  0  0  0
 25 52  1  0  0  0  0
 25 53  1  0  0  0  0
 26 27  1  0  0  0  0
 26 54  1  0  0  0  0
 26 55  1  0  0  0  0
 27 28  1  0  0  0  0
 27 56  1  0  0  0  0
 27 57  1  0  0  0  0
M  END
> <s_m_source_file>
AV-unprocessed.smi

> <i_m_source_file_index>
170

> <i_lp_mmshare_version>
43012

> <i_f3d_flags>
0

> <s_epik_input>
TzFbQ0gyXVtDSDJdW0NIMl1bQ0BIXTFbQ0BIXShbT0hdKVtDSDJdbihbY0hdbjIpYyhjMjMpbltjSF1uYzNONFtDSDJdW0NIMl1PW0NIMl1bQ0BIXTRbQ0gyXVtDSF01W0NIMl1bQ0gyXVtDSDJdNQ==

> <s_epik_cmdline>
J2VwaWtfcHl0aG9uJywgJy1waCcsICc3LjAnLCAnLXRuJywgJzgnLCAnLW1hJywgJzIwMCcsICctbWV0YWxfYmluZGluZycsICctaW1hZScsICc8aW5maWxlLm1hZT4nLCAnLW9tYWUnLCAnPG91dGZpbGUubWFlPic=

> <r_lp_tautomer_probability>
1

> <r_epik_Ionization_Penalty>
4.98275e-05

> <r_epik_Ionization_Penalty_Charging>
0

> <r_epik_Ionization_Penalty_Neutral>
4.98275e-05

> <r_epik_State_Penalty>
-0

> <r_epik_Charging_Adjusted_Penalty>
0

> <i_epik_Tot_Q>
0

> <i_epik_Tot_abs_Q>
0

> <r_epik_Metal_State_Penalty>
-0

> <b_epik_Metal_Only>
0

> <s_lp_Force_Field>
OPLS_2005

> <r_lp_Energy>
52.7672

> <b_lp_Chiralities_Consistent>
1

> <s_lp_Variant>
AV-unprocessed.smi:170-3

> <Gold.Version>
5.8.1

> <Gold.Id.Protein>
6NUR|6NUR_protein|mol2

> <Gold.PLP.Fitness>
46.2182

> <Gold.PLP.PLP>
-41.9214

> <Gold.PLP.part.hbond>
-2.0000

> <Gold.PLP.part.metal>
0.0000

> <Gold.PLP.part.buried>
-6.0902

> <Gold.PLP.part.nonpolar>
-34.3608

> <Gold.PLP.part.repulsive>
0.1851

> <Gold.PLP.ligand.clash>
0.0000

> <Gold.PLP.ligand.torsion>
0.5557

> <Gold.PLP.Chemscore.Hbond>
1.7088

> <Gold.PLP.Chemscore.CHOScore>
0.0000

> <Gold.PLP.Chemscore.Metal>
0.0000

> <Gold.Chemscore.Hbonds>
donor molecule, donor type, donor heavy atom, donor atom, acceptor molecule, acceptor atom, score
      L1  H     1    29       P1  8028  0.93
      P1  H  6896  6907       L1    20  0.89

> <Gold.PLP.Chemscore.Internal.Correction>
0.2818

> <Gold.Rescore>
     Score         DG    S(hbond)    S(metal)    S(lipo)     H(rot)  DE(clash)    DE(int)     intcor
     15.89     -16.54       1.61        0.00     105.68       2.61       0.04       0.61       ----

> <Gold.Chemscore.Fitness>
15.8871

> <Gold.Chemscore.DG>
-16.5354

> <Gold.Chemscore.ZeroCoef>
-5.4800

> <Gold.Chemscore.Hbond>
1.6118

> <Gold.Chemscore.Metal>
0.0000

> <Gold.Chemscore.Lipo>
105.6825

> <Gold.Chemscore.Internal_Hbond>
0.0000

> <Gold.Chemscore.DEClash>
0.0398

> <Gold.Chemscore.DEInternal>
0.6085

> <Gold.Chemscore.Rot>
2.6144

> <Gold.Chemscore.Internal.Correction>
   9.000000E+99

> <Gold.Chemscore.Hbonds>
donor molecule, donor type, donor heavy atom, donor atom, acceptor molecule, acceptor atom, score
      L1  H     1    29       P1  8028  0.85
      P1  H  6896  6907       L1    20  0.72

> <Gold.Chemscore.Hbond.Weighted>
-5.3835

> <Gold.Chemscore.Metal.Weighted>
-0.0000

> <Gold.Chemscore.Lipo.Weighted>
-12.3649

> <Gold.Chemscore.Internal_Hbond.Weighted>
0.0000

> <Gold.Chemscore.DEClash.Weighted>
0.0398

> <Gold.Chemscore.DEInternal.Weighted>
0.6085

> <Gold.Chemscore.Rot.Weighted>
6.6929

> <Gold.Chemscore.Internal.Correction.Weighted>
   9.000000E+99

> <Gold.Protein.RotatedTorsions>
[ 6907 6896 6895 6894 ] final  -20.17 input  -60.11 | X-H torsion
[ 7974 7965 7964 7962 ] final   78.93 input  175.53 | X-H torsion
[ 8008 7997 7996 7995 ] final  -61.95 input   59.86 | X-H torsion
[ 10167 10162 10161 10158 ] final  -96.39 input  -65.29 | X-H torsion
[ 10718 10713 10712 10709 ] final  -41.80 input   66.30 | X-H torsion
[ 10763 10752 10751 10750 ] final   72.76 input  -60.55 | X-H torsion
[ 11005 11000 10999 10996 ] final   76.73 input  -57.11 | X-H torsion

> <Gold.Protein.ActiveResidues>
 VAL166  LYS551  ARG553  GLY616  TRP617  ASP618  TYR619  PRO620  LYS621  CYS622 
 ASP623  PHE694  ASN695  SER759  ASP760  ASP761  ALA762  ILE779  LEU786  VAL792 
 PHE793  MET794  SER795  GLU796  ALA797  LYS798  CYS799  TRP800  GLU811  SER814 

> <Gold.Protein.RotatedAtoms>
  151.2521  135.0625  159.9065 H   0  0  0  0  0  0  0  0  0  0  0  0  # atno 6907 bound_to 6896
  152.5378  134.0321  159.8040 H   0  0  0  0  0  0  0  0  0  0  0  0  # atno 6908 bound_to 6896
  151.0531  133.5558  159.2672 H   0  0  0  0  0  0  0  0  0  0  0  0  # atno 6909 bound_to 6896
  145.6707  139.2496  143.1870 H   0  0  0  0  0  0  0  0  0  0  0  0  # atno 7974 bound_to 7965
  154.4474  140.1006  156.6510 H   0  0  0  0  0  0  0  0  0  0  0  0  # atno 8008 bound_to 7997
  155.5397  140.3483  155.4425 H   0  0  0  0  0  0  0  0  0  0  0  0  # atno 8009 bound_to 7997
  156.0606  140.1325  156.9935 H   0  0  0  0  0  0  0  0  0  0  0  0  # atno 8010 bound_to 7997
  140.2943  143.3201  152.0313 H   0  0  0  0  0  0  0  0  0  0  0  0  # atno 10167 bound_to 10162
  156.2664  130.4202  149.8485 H   0  0  0  0  0  0  0  0  0  0  0  0  # atno 10718 bound_to 10713
  153.0479  135.5088  154.7793 H   0  0  0  0  0  0  0  0  0  0  0  0  # atno 10763 bound_to 10752
  154.6678  135.2948  154.9784 H   0  0  0  0  0  0  0  0  0  0  0  0  # atno 10764 bound_to 10752
  154.0613  135.6690  153.4865 H   0  0  0  0  0  0  0  0  0  0  0  0  # atno 10765 bound_to 10752
  139.9285  134.7625  156.1433 H   0  0  0  0  0  0  0  0  0  0  0  0  # atno 11005 bound_to 11000
  146.1048  140.7501  142.9532 LP  0  0  0  0  0  0  0  0  0  0  0  0  # atno 17320 bound_to 7965
  144.7058  140.3844  143.7119 LP  0  0  0  0  0  0  0  0  0  0  0  0  # atno 17321 bound_to 7965
  139.4930  144.6502  151.6692 LP  0  0  0  0  0  0  0  0  0  0  0  0  # atno 17342 bound_to 10162
  140.5705  144.0117  150.6214 LP  0  0  0  0  0  0  0  0  0  0  0  0  # atno 17343 bound_to 10162
  156.5982  130.8535  151.3425 LP  0  0  0  0  0  0  0  0  0  0  0  0  # atno 17370 bound_to 10713
  157.7269  130.9635  150.1675 LP  0  0  0  0  0  0  0  0  0  0  0  0  # atno 17371 bound_to 10713
  141.0859  133.6734  156.2435 LP  0  0  0  0  0  0  0  0  0  0  0  0  # atno 17394 bound_to 11000
  140.6268  134.5305  157.5554 LP  0  0  0  0  0  0  0  0  0  0  0  0  # atno 17395 bound_to 11000

$$$$
