AV-unprocessed.smi:3116|AV-procd|sdf|11871|dock5
  -GOLD-   2272017253D 1   1.00000     0.00000
 Structure written by MMmdl.
 33 33  0  0  0  0  0  0  0  0  1 V2000
  147.6872  142.0509  154.3364 C   0  0  0  0  0  0  0  0  0  0  0  0
  148.6608  140.8853  154.6150 C   0  0  1  0  0  0  0  0  0  0  0  0
  149.0528  140.8448  156.0334 N   0  0  0  0  0  0  0  0  0  0  0  0
  150.3097  141.5299  156.3297 C   0  0  2  0  0  0  0  0  0  0  0  0
  151.4731  140.5870  155.9566 C   0  0  0  0  0  0  0  0  0  0  0  0
  150.3004  141.9346  157.8287 C   0  0  2  0  0  0  0  0  0  0  0  0
  149.0652  142.7788  158.2008 C   0  0  0  0  0  0  0  0  0  0  0  0
  151.5189  142.6338  158.2190 N   0  0  0  0  0  0  0  0  0  0  0  0
  151.9663  143.8684  157.7952 C   0  0  0  0  0  0  0  0  0  0  0  0
  153.1511  144.1138  158.4281 C   0  0  0  0  0  0  0  0  0  0  0  0
  153.3515  142.9563  159.2303 C   0  0  0  0  0  0  0  0  0  0  0  0
  152.3751  142.0730  159.1035 N   0  0  0  0  0  0  0  0  0  0  0  0
  148.0511  139.5343  154.2142 C   0  0  0  0  0  0  0  0  0  0  0  0
  148.4671  139.0091  153.0587 N   0  0  0  0  0  0  0  0  0  0  0  0
  147.2315  138.9605  154.9298 O   0  0  0  0  0  0  0  0  0  0  0  0
  147.3259  142.0267  153.3076 H   0  0  0  0  0  0  0  0  0  0  0  0
  148.1609  143.0216  154.4787 H   0  0  0  0  0  0  0  0  0  0  0  0
  146.8184  142.0120  154.9949 H   0  0  0  0  0  0  0  0  0  0  0  0
  149.5477  141.0219  153.9946 H   0  0  0  0  0  0  0  0  0  0  0  0
  149.1149  139.8962  156.3744 H   0  0  0  0  0  0  0  0  0  0  0  0
  150.4023  142.4393  155.7361 H   0  0  0  0  0  0  0  0  0  0  0  0
  152.4406  141.0708  156.0922 H   0  0  0  0  0  0  0  0  0  0  0  0
  151.4248  140.2760  154.9132 H   0  0  0  0  0  0  0  0  0  0  0  0
  151.4654  139.6860  156.5708 H   0  0  0  0  0  0  0  0  0  0  0  0
  150.2668  141.0218  158.4263 H   0  0  0  0  0  0  0  0  0  0  0  0
  148.1398  142.2272  158.0340 H   0  0  0  0  0  0  0  0  0  0  0  0
  149.0125  143.6937  157.6098 H   0  0  0  0  0  0  0  0  0  0  0  0
  149.0871  143.0635  159.2530 H   0  0  0  0  0  0  0  0  0  0  0  0
  151.4101  144.4640  157.0865 H   0  0  0  0  0  0  0  0  0  0  0  0
  153.7788  144.9872  158.3326 H   0  0  0  0  0  0  0  0  0  0  0  0
  154.1719  142.7328  159.8962 H   0  0  0  0  0  0  0  0  0  0  0  0
  148.1034  138.1197  152.7488 H   0  0  0  0  0  0  0  0  0  0  0  0
  149.1494  139.5030  152.5020 H   0  0  0  0  0  0  0  0  0  0  0  0
  1  2  1  0  0  0  0
  1 16  1  0  0  0  0
  1 17  1  0  0  0  0
  1 18  1  0  0  0  0
  2  3  1  0  0  0  0
  2 13  1  0  0  0  0
  2 19  1  0  0  0  0
  3  4  1  0  0  0  0
  3 20  1  0  0  0  0
  4  5  1  0  0  0  0
  4  6  1  0  0  0  0
  4 21  1  0  0  0  0
  5 22  1  0  0  0  0
  5 23  1  0  0  0  0
  5 24  1  0  0  0  0
  6  7  1  0  0  0  0
  6  8  1  0  0  0  0
  6 25  1  0  0  0  0
  7 26  1  0  0  0  0
  7 27  1  0  0  0  0
  7 28  1  0  0  0  0
  8 12  1  0  0  0  0
  8  9  1  0  0  0  0
  9 10  2  0  0  0  0
  9 29  1  0  0  0  0
 10 11  1  0  0  0  0
 10 30  1  0  0  0  0
 11 12  2  0  0  0  0
 11 31  1  0  0  0  0
 13 14  1  0  0  0  0
 13 15  2  0  0  0  0
 14 32  1  0  0  0  0
 14 33  1  0  0  0  0
M  END
> <s_m_source_file>
AV-unprocessed.smi

> <i_m_source_file_index>
3116

> <i_lp_mmshare_version>
43012

> <i_f3d_flags>
0

> <s_epik_input>
W05IMl1DKD1PKVtDQEhdKFtDSDNdKVtOSF1bQ0BIXShbQ0gzXSlbQ0BIXShbQ0gzXSluMVtjSF1bY0hdW2NIXW4x

> <s_epik_cmdline>
J2VwaWtfcHl0aG9uJywgJy1waCcsICc3LjAnLCAnLXRuJywgJzgnLCAnLW1hJywgJzIwMCcsICctbWV0YWxfYmluZGluZycsICctaW1hZScsICc8aW5maWxlLm1hZT4nLCAnLW9tYWUnLCAnPG91dGZpbGUubWFlPic=

> <r_lp_tautomer_probability>
1

> <r_epik_Ionization_Penalty>
0.865977

> <r_epik_Ionization_Penalty_Charging>
0

> <r_epik_Ionization_Penalty_Neutral>
0.865977

> <r_epik_State_Penalty>
0.901888

> <r_epik_Charging_Adjusted_Penalty>
0.901888

> <i_epik_Tot_Q>
0

> <i_epik_Tot_abs_Q>
0

> <r_epik_Metal_State_Penalty>
0.901181

> <b_epik_Metal_Only>
0

> <s_lp_Force_Field>
OPLS_2005

> <r_lp_Energy>
9.31489

> <b_lp_Chiralities_Consistent>
1

> <s_lp_Variant>
AV-unprocessed.smi:3116-10

> <Gold.Version>
5.8.1

> <Gold.Id.Protein>
6NUR|6NUR_protein|mol2

> <Gold.PLP.Fitness>
39.2171

> <Gold.PLP.PLP>
-32.9676

> <Gold.PLP.part.hbond>
-1.7172

> <Gold.PLP.part.metal>
0.0000

> <Gold.PLP.part.buried>
-3.0282

> <Gold.PLP.part.nonpolar>
-28.3532

> <Gold.PLP.part.repulsive>
0.1597

> <Gold.PLP.ligand.clash>
0.0000

> <Gold.PLP.ligand.torsion>
1.2120

> <Gold.PLP.Chemscore.Hbond>
1.8560

> <Gold.PLP.Chemscore.CHOScore>
1.0000

> <Gold.PLP.Chemscore.Metal>
0.0000

> <Gold.Chemscore.Hbonds>
donor molecule, donor type, donor heavy atom, donor atom, acceptor molecule, acceptor atom, score
      L1  H    14    32       P1  7948  0.34
      L1  H    14    33       P1  7957  0.95
      L1  C     9    29       P1  8028  0.14

> <Gold.PLP.Chemscore.Internal.Correction>
0.1056

> <Gold.Rescore>
     Score         DG    S(hbond)    S(metal)    S(lipo)     H(rot)  DE(clash)    DE(int)     intcor
     12.73     -13.86       1.83        0.00      71.66       2.38       0.04       1.10       ----

> <Gold.Chemscore.Fitness>
12.7259

> <Gold.Chemscore.DG>
-13.8606

> <Gold.Chemscore.ZeroCoef>
-5.4800

> <Gold.Chemscore.Hbond>
1.8260

> <Gold.Chemscore.Metal>
0.0000

> <Gold.Chemscore.Lipo>
71.6556

> <Gold.Chemscore.Internal_Hbond>
0.0000

> <Gold.Chemscore.DEClash>
0.0383

> <Gold.Chemscore.DEInternal>
1.0963

> <Gold.Chemscore.Rot>
2.3836

> <Gold.Chemscore.Internal.Correction>
   9.000000E+99

> <Gold.Chemscore.Hbonds>
donor molecule, donor type, donor heavy atom, donor atom, acceptor molecule, acceptor atom, score
      L1  H    14    32       P1  7948  0.36
      L1  H    14    33       P1  7957  0.84

> <Gold.Chemscore.Hbond.Weighted>
-6.0988

> <Gold.Chemscore.Metal.Weighted>
-0.0000

> <Gold.Chemscore.Lipo.Weighted>
-8.3837

> <Gold.Chemscore.Internal_Hbond.Weighted>
0.0000

> <Gold.Chemscore.DEClash.Weighted>
0.0383

> <Gold.Chemscore.DEInternal.Weighted>
1.0963

> <Gold.Chemscore.Rot.Weighted>
6.1020

> <Gold.Chemscore.Internal.Correction.Weighted>
   9.000000E+99

> <Gold.Protein.RotatedTorsions>
[ 6907 6896 6895 6894 ] final   83.17 input  -60.11 | X-H torsion
[ 7974 7965 7964 7962 ] final -161.43 input  175.53 | X-H torsion
[ 8008 7997 7996 7995 ] final   94.92 input   59.86 | X-H torsion
[ 10167 10162 10161 10158 ] final    5.91 input  -65.29 | X-H torsion
[ 10718 10713 10712 10709 ] final  -47.33 input   66.30 | X-H torsion
[ 10763 10752 10751 10750 ] final   57.57 input  -60.55 | X-H torsion
[ 11005 11000 10999 10996 ] final   -1.20 input  -57.11 | X-H torsion

> <Gold.Protein.ActiveResidues>
 VAL166  LYS551  ARG553  GLY616  TRP617  ASP618  TYR619  PRO620  LYS621  CYS622 
 ASP623  PHE694  ASN695  SER759  ASP760  ASP761  ALA762  ILE779  LEU786  VAL792 
 PHE793  MET794  SER795  GLU796  ALA797  LYS798  CYS799  TRP800  GLU811  SER814 

> <Gold.Protein.RotatedAtoms>
  152.5320  134.2937  159.9052 H   0  0  0  0  0  0  0  0  0  0  0  0  # atno 6907 bound_to 6896
  151.2889  133.4168  159.2639 H   0  0  0  0  0  0  0  0  0  0  0  0  # atno 6908 bound_to 6896
  151.0218  134.9490  159.8120 H   0  0  0  0  0  0  0  0  0  0  0  0  # atno 6909 bound_to 6896
  144.7391  140.3398  143.6137 H   0  0  0  0  0  0  0  0  0  0  0  0  # atno 7974 bound_to 7965
  156.0632  140.3293  155.7486 H   0  0  0  0  0  0  0  0  0  0  0  0  # atno 8008 bound_to 7997
  155.5422  140.0603  157.2885 H   0  0  0  0  0  0  0  0  0  0  0  0  # atno 8009 bound_to 7997
  154.4492  140.1909  156.0591 H   0  0  0  0  0  0  0  0  0  0  0  0  # atno 8010 bound_to 7997
  140.6456  143.7669  150.7494 H   0  0  0  0  0  0  0  0  0  0  0  0  # atno 10167 bound_to 10162
  156.2095  130.4160  149.9133 H   0  0  0  0  0  0  0  0  0  0  0  0  # atno 10718 bound_to 10713
  152.9852  135.5637  154.5412 H   0  0  0  0  0  0  0  0  0  0  0  0  # atno 10763 bound_to 10752
  154.4866  135.2791  155.1531 H   0  0  0  0  0  0  0  0  0  0  0  0  # atno 10764 bound_to 10752
  154.3018  135.6306  153.5481 H   0  0  0  0  0  0  0  0  0  0  0  0  # atno 10765 bound_to 10752
  140.6447  133.9458  155.8346 H   0  0  0  0  0  0  0  0  0  0  0  0  # atno 11005 bound_to 11000
  145.7386  139.1757  143.2389 LP  0  0  0  0  0  0  0  0  0  0  0  0  # atno 17320 bound_to 7965
  146.1151  140.7379  142.9484 LP  0  0  0  0  0  0  0  0  0  0  0  0  # atno 17321 bound_to 7965
  140.1309  143.4526  152.2254 LP  0  0  0  0  0  0  0  0  0  0  0  0  # atno 17342 bound_to 10162
  139.5667  144.7439  151.4003 LP  0  0  0  0  0  0  0  0  0  0  0  0  # atno 17343 bound_to 10162
  156.6816  130.8860  151.3576 LP  0  0  0  0  0  0  0  0  0  0  0  0  # atno 17370 bound_to 10713
  157.7031  130.9355  150.0846 LP  0  0  0  0  0  0  0  0  0  0  0  0  # atno 17371 bound_to 10713
  141.0581  134.0387  157.3695 LP  0  0  0  0  0  0  0  0  0  0  0  0  # atno 17394 bound_to 11000
  139.9067  135.0181  156.7517 LP  0  0  0  0  0  0  0  0  0  0  0  0  # atno 17395 bound_to 11000

$$$$
