AV-unprocessed.smi:2783|AV-procd|sdf|10723|dock2
  -GOLD-   2272015163D 1   1.00000     0.00000
 Structure written by MMmdl.
 29 29  0  0  0  0  0  0  0  0  3 V2000
  150.0221  144.4164  159.6936 C   0  0  0  0  0  0  0  0  0  0  0  0
  150.1276  143.2166  158.9292 O   0  0  0  0  0  0  0  0  0  0  0  0
  151.4277  142.8156  158.4717 C   0  0  0  0  0  0  0  0  0  0  0  0
  151.8969  143.9375  157.5285 C   0  0  0  0  0  0  0  0  0  0  0  0
  152.4126  142.7021  159.6593 C   0  0  0  0  0  0  0  0  0  0  0  0
  151.3474  141.4946  157.6707 C   0  0  0  0  0  0  0  0  0  0  0  0
  151.9935  140.5180  158.0500 O   0  0  0  0  0  0  0  0  0  0  0  0
  150.5737  141.5145  156.5677 N   0  0  0  0  0  0  0  0  0  0  0  0
  150.2779  140.4895  155.6229 C   0  0  0  0  0  0  0  0  0  0  0  0
  148.9995  140.2856  155.0410 C   0  0  0  0  0  0  0  0  0  0  0  0
  148.8180  139.2420  154.1111 C   0  0  0  0  0  0  0  0  0  0  0  0
  149.8557  138.4478  153.7756 N   0  3  0  0  0  0  0  0  0  0  0  0
  151.0904  138.6052  154.2948 C   0  0  0  0  0  0  0  0  0  0  0  0
  151.3363  139.6304  155.2305 C   0  0  0  0  0  0  0  0  0  0  0  0
  152.5969  139.7728  155.7399 O   0  5  0  0  0  0  0  0  0  0  0  0
  149.0039  144.5081  160.0711 H   0  0  0  0  0  0  0  0  0  0  0  0
  150.2195  145.2974  159.0829 H   0  0  0  0  0  0  0  0  0  0  0  0
  150.6925  144.4316  160.5527 H   0  0  0  0  0  0  0  0  0  0  0  0
  152.8890  143.7340  157.1232 H   0  0  0  0  0  0  0  0  0  0  0  0
  151.9460  144.8935  158.0511 H   0  0  0  0  0  0  0  0  0  0  0  0
  151.2149  144.0628  156.6864 H   0  0  0  0  0  0  0  0  0  0  0  0
  153.4403  142.5799  159.3149 H   0  0  0  0  0  0  0  0  0  0  0  0
  152.1867  141.8496  160.3008 H   0  0  0  0  0  0  0  0  0  0  0  0
  152.3839  143.5995  160.2777 H   0  0  0  0  0  0  0  0  0  0  0  0
  150.1370  142.4029  156.3643 H   0  0  0  0  0  0  0  0  0  0  0  0
  148.1499  140.9048  155.2775 H   0  0  0  0  0  0  0  0  0  0  0  0
  147.8783  139.0226  153.6264 H   0  0  0  0  0  0  0  0  0  0  0  0
  151.8417  137.9110  153.9473 H   0  0  0  0  0  0  0  0  0  0  0  0
  149.7028  137.6989  153.1002 H   0  0  0  0  0  0  0  0  0  0  0  0
  1  2  1  0  0  0  0
  1 16  1  0  0  0  0
  1 17  1  0  0  0  0
  1 18  1  0  0  0  0
  2  3  1  0  0  0  0
  3  4  1  0  0  0  0
  3  5  1  0  0  0  0
  3  6  1  0  0  0  0
  4 19  1  0  0  0  0
  4 20  1  0  0  0  0
  4 21  1  0  0  0  0
  5 22  1  0  0  0  0
  5 23  1  0  0  0  0
  5 24  1  0  0  0  0
  6  7  2  0  0  0  0
  6  8  1  0  0  0  0
  8 25  1  0  0  0  0
  8  9  1  0  0  0  0
  9 10  2  0  0  0  0
  9 14  1  0  0  0  0
 10 11  1  0  0  0  0
 10 26  1  0  0  0  0
 11 12  2  0  0  0  0
 11 27  1  0  0  0  0
 12 13  1  0  0  0  0
 12 29  1  0  0  0  0
 13 14  2  0  0  0  0
 13 28  1  0  0  0  0
 14 15  1  0  0  0  0
M  CHG  1  12   1
M  CHG  1  15  -1
M  END
> <s_m_source_file>
AV-unprocessed.smi

> <i_m_source_file_index>
2783

> <i_lp_mmshare_version>
43012

> <i_f3d_flags>
0

> <s_epik_input>
W0NIM11PQyhbQ0gzXSkoW0NIM10pQyg9TylbTkhdYzFbY0hdW2NIXW5bY0hdYzFbT0hd

> <s_epik_cmdline>
J2VwaWtfcHl0aG9uJywgJy1waCcsICc3LjAnLCAnLXRuJywgJzgnLCAnLW1hJywgJzIwMCcsICctbWV0YWxfYmluZGluZycsICctaW1hZScsICc8aW5maWxlLm1hZT4nLCAnLW9tYWUnLCAnPG91dGZpbGUubWFlPic=

> <r_lp_tautomer_probability>
0.56342

> <r_epik_Ionization_Penalty>
0.0178972

> <r_epik_Ionization_Penalty_Charging>
0.0178972

> <r_epik_Ionization_Penalty_Neutral>
5.02838e-10

> <r_epik_State_Penalty>
0.346878

> <r_epik_Charging_Adjusted_Penalty>
0.364775

> <i_epik_Tot_Q>
0

> <i_epik_Tot_abs_Q>
2

> <r_epik_Metal_State_Penalty>
0.59989

> <b_epik_Metal_Only>
0

> <s_lp_Force_Field>
OPLS_2005

> <r_lp_Energy>
13.0422

> <b_lp_Chiralities_Consistent>
1

> <s_lp_Variant>
AV-unprocessed.smi:2783-1

> <Gold.Version>
5.8.1

> <Gold.Id.Protein>
6NUR|6NUR_protein|mol2

> <Gold.PLP.Fitness>
40.8065

> <Gold.PLP.PLP>
-29.4546

> <Gold.PLP.part.hbond>
-2.8214

> <Gold.PLP.part.metal>
0.0000

> <Gold.PLP.part.buried>
-4.6351

> <Gold.PLP.part.nonpolar>
-22.6228

> <Gold.PLP.part.repulsive>
0.2409

> <Gold.PLP.ligand.clash>
0.0000

> <Gold.PLP.ligand.torsion>
0.3407

> <Gold.PLP.Chemscore.Hbond>
4.0000

> <Gold.PLP.Chemscore.CHOScore>
0.0000

> <Gold.PLP.Chemscore.Metal>
0.0000

> <Gold.Chemscore.Hbonds>
donor molecule, donor type, donor heavy atom, donor atom, acceptor molecule, acceptor atom, score
      L1  H    12    29       P1  7948  2.00
      P1  H  7997  8010       L1    15  2.00

> <Gold.PLP.Chemscore.Internal.Correction>
0.0334

> <Gold.Rescore>
     Score         DG    S(hbond)    S(metal)    S(lipo)     H(rot)  DE(clash)    DE(int)     intcor
     12.93     -17.59       1.89        0.00      77.11       1.26       0.11       4.55       ----

> <Gold.Chemscore.Fitness>
12.9296

> <Gold.Chemscore.DG>
-17.5873

> <Gold.Chemscore.ZeroCoef>
-5.4800

> <Gold.Chemscore.Hbond>
1.8875

> <Gold.Chemscore.Metal>
0.0000

> <Gold.Chemscore.Lipo>
77.1110

> <Gold.Chemscore.Internal_Hbond>
0.0000

> <Gold.Chemscore.DEClash>
0.1053

> <Gold.Chemscore.DEInternal>
4.5524

> <Gold.Chemscore.Rot>
1.2574

> <Gold.Chemscore.Internal.Correction>
   9.000000E+99

> <Gold.Chemscore.Hbonds>
donor molecule, donor type, donor heavy atom, donor atom, acceptor molecule, acceptor atom, score
      L1  H    12    29       P1  7948  0.62
      P1  H  7997  8010       L1    15  1.00

> <Gold.Chemscore.Hbond.Weighted>
-6.3044

> <Gold.Chemscore.Metal.Weighted>
-0.0000

> <Gold.Chemscore.Lipo.Weighted>
-9.0220

> <Gold.Chemscore.Internal_Hbond.Weighted>
0.0000

> <Gold.Chemscore.DEClash.Weighted>
0.1053

> <Gold.Chemscore.DEInternal.Weighted>
4.5524

> <Gold.Chemscore.Rot.Weighted>
3.2190

> <Gold.Chemscore.Internal.Correction.Weighted>
   9.000000E+99

> <Gold.Protein.RotatedTorsions>
[ 6907 6896 6895 6894 ] final   84.89 input  -60.11 | X-H torsion
[ 7974 7965 7964 7962 ] final   -8.79 input  175.53 | X-H torsion
[ 8008 7997 7996 7995 ] final   84.22 input   59.86 | X-H torsion
[ 10167 10162 10161 10158 ] final   14.64 input  -65.29 | X-H torsion
[ 10718 10713 10712 10709 ] final   52.12 input   66.30 | X-H torsion
[ 10763 10752 10751 10750 ] final   93.98 input  -60.55 | X-H torsion
[ 11005 11000 10999 10996 ] final -161.06 input  -57.11 | X-H torsion

> <Gold.Protein.ActiveResidues>
 VAL166  LYS551  ARG553  GLY616  TRP617  ASP618  TYR619  PRO620  LYS621  CYS622 
 ASP623  PHE694  ASN695  SER759  ASP760  ASP761  ALA762  ILE779  LEU786  VAL792 
 PHE793  MET794  SER795  GLU796  ALA797  LYS798  CYS799  TRP800  GLU811  SER814 

> <Gold.Protein.RotatedAtoms>
  152.5363  134.2671  159.8957 H   0  0  0  0  0  0  0  0  0  0  0  0  # atno 6907 bound_to 6896
  151.2629  133.4286  159.2624 H   0  0  0  0  0  0  0  0  0  0  0  0  # atno 6908 bound_to 6896
  151.0437  134.9639  159.8231 H   0  0  0  0  0  0  0  0  0  0  0  0  # atno 6909 bound_to 6896
  146.2270  140.2520  142.8348 H   0  0  0  0  0  0  0  0  0  0  0  0  # atno 7974 bound_to 7965
  155.9342  140.3412  155.6274 H   0  0  0  0  0  0  0  0  0  0  0  0  # atno 8008 bound_to 7997
  155.7120  140.0773  157.2386 H   0  0  0  0  0  0  0  0  0  0  0  0  # atno 8009 bound_to 7997
  154.4090  140.1621  156.2294 H   0  0  0  0  0  0  0  0  0  0  0  0  # atno 8010 bound_to 7997
  140.5922  143.8773  150.6884 H   0  0  0  0  0  0  0  0  0  0  0  0  # atno 10167 bound_to 10162
  157.5045  130.8460  149.8357 H   0  0  0  0  0  0  0  0  0  0  0  0  # atno 10718 bound_to 10713
  153.2364  135.4306  155.0651 H   0  0  0  0  0  0  0  0  0  0  0  0  # atno 10763 bound_to 10752
  154.8321  135.3392  154.6712 H   0  0  0  0  0  0  0  0  0  0  0  0  # atno 10764 bound_to 10752
  153.7138  135.7021  153.5087 H   0  0  0  0  0  0  0  0  0  0  0  0  # atno 10765 bound_to 10752
  140.6246  134.4714  157.5226 H   0  0  0  0  0  0  0  0  0  0  0  0  # atno 11005 bound_to 11000
  144.9404  140.8072  143.5634 LP  0  0  0  0  0  0  0  0  0  0  0  0  # atno 17320 bound_to 7965
  145.2471  139.2047  143.4962 LP  0  0  0  0  0  0  0  0  0  0  0  0  # atno 17321 bound_to 7965
  140.2299  143.3744  152.1574 LP  0  0  0  0  0  0  0  0  0  0  0  0  # atno 17342 bound_to 10162
  139.5235  144.7072  151.5319 LP  0  0  0  0  0  0  0  0  0  0  0  0  # atno 17343 bound_to 10162
  156.0250  130.3782  150.1851 LP  0  0  0  0  0  0  0  0  0  0  0  0  # atno 17370 bound_to 10713
  157.0040  130.9931  151.3383 LP  0  0  0  0  0  0  0  0  0  0  0  0  # atno 17371 bound_to 10713
  139.9140  134.8286  156.1431 LP  0  0  0  0  0  0  0  0  0  0  0  0  # atno 17394 bound_to 11000
  141.0718  133.6793  156.2156 LP  0  0  0  0  0  0  0  0  0  0  0  0  # atno 17395 bound_to 11000

$$$$
