AV-unprocessed.smi:2587|AV-procd|sdf|10146|dock6
  -GOLD-   2272014153D 1   1.00000     0.00000
 Structure written by MMmdl.
 39 40  0  0  0  0  0  0  0  0  1 V2000
  146.3226  143.0863  153.6040 C   0  0  0  0  0  0  0  0  0  0  0  0
  147.1209  142.0270  153.8024 C   0  0  0  0  0  0  0  0  0  0  0  0
  148.3670  142.0455  154.6647 C   0  0  0  0  0  0  0  0  0  0  0  0
  148.9770  140.7237  154.8056 N   0  0  0  0  0  0  0  0  0  0  0  0
  148.5090  139.6496  153.9336 C   0  0  0  0  0  0  0  0  0  0  0  0
  147.9744  138.4465  154.7250 C   0  0  0  0  0  0  0  0  0  0  0  0
  148.8217  137.3372  154.5231 O   0  0  0  0  0  0  0  0  0  0  0  0
  150.1216  140.5493  155.6218 C   0  0  0  0  0  0  0  0  0  0  0  0
  150.5156  141.5074  156.5905 C   0  0  0  0  0  0  0  0  0  0  0  0
  151.6769  141.2372  157.3535 C   0  0  0  0  0  0  0  0  0  0  0  0
  152.1256  142.1478  158.3345 N   0  0  0  0  0  0  0  0  0  0  0  0
  151.4746  143.4548  158.4038 C   0  0  0  0  0  0  0  0  0  0  0  0
  152.2737  144.4040  159.3125 C   0  0  0  0  0  0  0  0  0  0  0  0
  152.4496  143.8079  160.5932 O   0  0  0  0  0  0  0  0  0  0  0  0
  153.1840  142.5908  160.5139 C   0  0  0  0  0  0  0  0  0  0  0  0
  152.4196  141.5759  159.6463 C   0  0  0  0  0  0  0  0  0  0  0  0
  152.3727  140.0917  157.1594 N   0  0  0  0  0  0  0  0  0  0  0  0
  151.9255  139.2523  156.2265 C   0  0  0  0  0  0  0  0  0  0  0  0
  150.8510  139.4197  155.4562 N   0  0  0  0  0  0  0  0  0  0  0  0
  146.5339  144.0421  154.0609 H   0  0  0  0  0  0  0  0  0  0  0  0
  145.4450  143.0096  152.9793 H   0  0  0  0  0  0  0  0  0  0  0  0
  146.8748  141.0866  153.3309 H   0  0  0  0  0  0  0  0  0  0  0  0
  149.0914  142.7341  154.2279 H   0  0  0  0  0  0  0  0  0  0  0  0
  148.1188  142.4576  155.6433 H   0  0  0  0  0  0  0  0  0  0  0  0
  147.7641  140.0211  153.2301 H   0  0  0  0  0  0  0  0  0  0  0  0
  149.3472  139.3256  153.3153 H   0  0  0  0  0  0  0  0  0  0  0  0
  147.9317  138.6713  155.7910 H   0  0  0  0  0  0  0  0  0  0  0  0
  146.9655  138.1827  154.4068 H   0  0  0  0  0  0  0  0  0  0  0  0
  148.9292  137.2058  153.5935 H   0  0  0  0  0  0  0  0  0  0  0  0
  149.9466  142.4057  156.7682 H   0  0  0  0  0  0  0  0  0  0  0  0
  151.3959  143.8919  157.4074 H   0  0  0  0  0  0  0  0  0  0  0  0
  150.4611  143.3341  158.7888 H   0  0  0  0  0  0  0  0  0  0  0  0
  153.2445  144.6382  158.8719 H   0  0  0  0  0  0  0  0  0  0  0  0
  151.7416  145.3481  159.4295 H   0  0  0  0  0  0  0  0  0  0  0  0
  154.1783  142.7794  160.1057 H   0  0  0  0  0  0  0  0  0  0  0  0
  153.3236  142.1945  161.5197 H   0  0  0  0  0  0  0  0  0  0  0  0
  151.4799  141.3060  160.1298 H   0  0  0  0  0  0  0  0  0  0  0  0
  153.0090  140.6635  159.5690 H   0  0  0  0  0  0  0  0  0  0  0  0
  152.4907  138.3439  156.0795 H   0  0  0  0  0  0  0  0  0  0  0  0
  1  2  2  0  0  0  0
  1 20  1  0  0  0  0
  1 21  1  0  0  0  0
  2  3  1  0  0  0  0
  2 22  1  0  0  0  0
  3  4  1  0  0  0  0
  3 23  1  0  0  0  0
  3 24  1  0  0  0  0
  4  5  1  0  0  0  0
  4  8  1  0  0  0  0
  5  6  1  0  0  0  0
  5 25  1  0  0  0  0
  5 26  1  0  0  0  0
  6  7  1  0  0  0  0
  6 27  1  0  0  0  0
  6 28  1  0  0  0  0
  7 29  1  0  0  0  0
  8 19  1  0  0  0  0
  8  9  2  0  0  0  0
  9 10  1  0  0  0  0
  9 30  1  0  0  0  0
 10 11  1  0  0  0  0
 10 17  2  0  0  0  0
 11 16  1  0  0  0  0
 11 12  1  0  0  0  0
 12 13  1  0  0  0  0
 12 31  1  0  0  0  0
 12 32  1  0  0  0  0
 13 14  1  0  0  0  0
 13 33  1  0  0  0  0
 13 34  1  0  0  0  0
 14 15  1  0  0  0  0
 15 16  1  0  0  0  0
 15 35  1  0  0  0  0
 15 36  1  0  0  0  0
 16 37  1  0  0  0  0
 16 38  1  0  0  0  0
 17 18  1  0  0  0  0
 18 19  2  0  0  0  0
 18 39  1  0  0  0  0
M  END
> <s_m_source_file>
AV-unprocessed.smi

> <i_m_source_file_index>
2587

> <i_lp_mmshare_version>
43012

> <i_f3d_flags>
0

> <s_epik_input>
W0NIMl09W0NIXVtDSDJdTihbQ0gyXVtDSDJdW09IXSljMVtjSF1jKG5bY0hdbjEpTjJbQ0gyXVtDSDJdT1tDSDJdW0NIMl0y

> <s_epik_cmdline>
J2VwaWtfcHl0aG9uJywgJy1waCcsICc3LjAnLCAnLXRuJywgJzgnLCAnLW1hJywgJzIwMCcsICctbWV0YWxfYmluZGluZycsICctaW1hZScsICc8aW5maWxlLm1hZT4nLCAnLW9tYWUnLCAnPG91dGZpbGUubWFlPic=

> <r_lp_tautomer_probability>
1

> <r_epik_Ionization_Penalty>
0.00218234

> <r_epik_Ionization_Penalty_Charging>
0

> <r_epik_Ionization_Penalty_Neutral>
0.00218234

> <r_epik_State_Penalty>
0.00992355

> <r_epik_Charging_Adjusted_Penalty>
0.00992355

> <i_epik_Tot_Q>
0

> <i_epik_Tot_abs_Q>
0

> <r_epik_Metal_State_Penalty>
0.00985368

> <b_epik_Metal_Only>
0

> <s_lp_Force_Field>
OPLS_2005

> <r_lp_Energy>
11.4622

> <b_lp_Chiralities_Consistent>
1

> <s_lp_Variant>
AV-unprocessed.smi:2587-1

> <Gold.Version>
5.8.1

> <Gold.Id.Protein>
6NUR|6NUR_protein|mol2

> <Gold.PLP.Fitness>
43.7641

> <Gold.PLP.PLP>
-38.6105

> <Gold.PLP.part.hbond>
-2.0000

> <Gold.PLP.part.metal>
0.0000

> <Gold.PLP.part.buried>
-0.7734

> <Gold.PLP.part.nonpolar>
-34.2846

> <Gold.PLP.part.repulsive>
0.0951

> <Gold.PLP.ligand.clash>
0.0000

> <Gold.PLP.ligand.torsion>
0.7204

> <Gold.PLP.Chemscore.Hbond>
2.0146

> <Gold.PLP.Chemscore.CHOScore>
0.0000

> <Gold.PLP.Chemscore.Metal>
0.0000

> <Gold.Chemscore.Hbonds>
donor molecule, donor type, donor heavy atom, donor atom, acceptor molecule, acceptor atom, score
      L1  H     7    29       P1  7948  1.00
      P1  H  7997  8008       L1    17  0.89

> <Gold.PLP.Chemscore.Internal.Correction>
0.5505

> <Gold.Rescore>
     Score         DG    S(hbond)    S(metal)    S(lipo)     H(rot)  DE(clash)    DE(int)     intcor
     11.20     -12.00       0.99        0.00      82.42       2.51       0.17       0.63       ----

> <Gold.Chemscore.Fitness>
11.2015

> <Gold.Chemscore.DG>
-12.0015

> <Gold.Chemscore.ZeroCoef>
-5.4800

> <Gold.Chemscore.Hbond>
0.9911

> <Gold.Chemscore.Metal>
0.0000

> <Gold.Chemscore.Lipo>
82.4168

> <Gold.Chemscore.Internal_Hbond>
0.0000

> <Gold.Chemscore.DEClash>
0.1689

> <Gold.Chemscore.DEInternal>
0.6310

> <Gold.Chemscore.Rot>
2.5123

> <Gold.Chemscore.Internal.Correction>
   9.000000E+99

> <Gold.Chemscore.Hbonds>
donor molecule, donor type, donor heavy atom, donor atom, acceptor molecule, acceptor atom, score
      L1  H     7    29       P1  7948  0.97
      P1  H  7997  8008       L1    17  0.22

> <Gold.Chemscore.Hbond.Weighted>
-3.3102

> <Gold.Chemscore.Metal.Weighted>
-0.0000

> <Gold.Chemscore.Lipo.Weighted>
-9.6428

> <Gold.Chemscore.Internal_Hbond.Weighted>
0.0000

> <Gold.Chemscore.DEClash.Weighted>
0.1689

> <Gold.Chemscore.DEInternal.Weighted>
0.6310

> <Gold.Chemscore.Rot.Weighted>
6.4315

> <Gold.Chemscore.Internal.Correction.Weighted>
   9.000000E+99

> <Gold.Protein.RotatedTorsions>
[ 6907 6896 6895 6894 ] final  157.38 input  -60.11 | X-H torsion
[ 7974 7965 7964 7962 ] final  143.04 input  175.53 | X-H torsion
[ 8008 7997 7996 7995 ] final  -65.10 input   59.86 | X-H torsion
[ 10167 10162 10161 10158 ] final  138.35 input  -65.29 | X-H torsion
[ 10718 10713 10712 10709 ] final   11.68 input   66.30 | X-H torsion
[ 10763 10752 10751 10750 ] final -165.23 input  -60.55 | X-H torsion
[ 11005 11000 10999 10996 ] final  -97.19 input  -57.11 | X-H torsion

> <Gold.Protein.ActiveResidues>
 VAL166  LYS551  ARG553  GLY616  TRP617  ASP618  TYR619  PRO620  LYS621  CYS622 
 ASP623  PHE694  ASN695  SER759  ASP760  ASP761  ALA762  ILE779  LEU786  VAL792 
 PHE793  MET794  SER795  GLU796  ALA797  LYS798  CYS799  TRP800  GLU811  SER814 

> <Gold.Protein.RotatedAtoms>
  152.0159  133.3879  159.4238 H   0  0  0  0  0  0  0  0  0  0  0  0  # atno 6907 bound_to 6896
  150.6895  134.3679  159.4988 H   0  0  0  0  0  0  0  0  0  0  0  0  # atno 6908 bound_to 6896
  152.1446  134.9035  160.0602 H   0  0  0  0  0  0  0  0  0  0  0  0  # atno 6909 bound_to 6896
  144.8955  139.5497  143.5778 H   0  0  0  0  0  0  0  0  0  0  0  0  # atno 7974 bound_to 7965
  154.4651  140.0940  156.6998 H   0  0  0  0  0  0  0  0  0  0  0  0  # atno 8008 bound_to 7997
  155.4882  140.3470  155.4332 H   0  0  0  0  0  0  0  0  0  0  0  0  # atno 8009 bound_to 7997
  156.0941  140.1405  156.9542 H   0  0  0  0  0  0  0  0  0  0  0  0  # atno 8010 bound_to 7997
  139.5113  144.6358  151.5700 H   0  0  0  0  0  0  0  0  0  0  0  0  # atno 10167 bound_to 10162
  156.9991  130.6072  149.5694 H   0  0  0  0  0  0  0  0  0  0  0  0  # atno 10718 bound_to 10713
  154.6952  135.2978  154.9421 H   0  0  0  0  0  0  0  0  0  0  0  0  # atno 10763 bound_to 10752
  154.0371  135.6662  153.4790 H   0  0  0  0  0  0  0  0  0  0  0  0  # atno 10764 bound_to 10752
  153.0641  135.5098  154.8066 H   0  0  0  0  0  0  0  0  0  0  0  0  # atno 10765 bound_to 10752
  141.1387  133.8152  157.0672 H   0  0  0  0  0  0  0  0  0  0  0  0  # atno 11005 bound_to 11000
  146.3079  139.7642  142.9042 LP  0  0  0  0  0  0  0  0  0  0  0  0  # atno 17320 bound_to 7965
  145.3708  141.0342  143.3232 LP  0  0  0  0  0  0  0  0  0  0  0  0  # atno 17321 bound_to 7965
  140.6107  143.9442  150.6451 LP  0  0  0  0  0  0  0  0  0  0  0  0  # atno 17342 bound_to 10162
  140.2684  143.3474  152.1260 LP  0  0  0  0  0  0  0  0  0  0  0  0  # atno 17343 bound_to 10162
  156.0178  130.5272  150.8186 LP  0  0  0  0  0  0  0  0  0  0  0  0  # atno 17370 bound_to 10713
  157.5403  131.0940  150.9836 LP  0  0  0  0  0  0  0  0  0  0  0  0  # atno 17371 bound_to 10713
  140.0534  134.9793  157.1177 LP  0  0  0  0  0  0  0  0  0  0  0  0  # atno 17394 bound_to 11000
  140.3956  134.2138  155.7165 LP  0  0  0  0  0  0  0  0  0  0  0  0  # atno 17395 bound_to 11000

$$$$
