AV-unprocessed.smi:3220|AV-procd|sdf|12299|dock6
  -GOLD-   2272018143D 1   1.00000     0.00000
 Structure written by MMmdl.
 33 34  0  0  0  0  0  0  0  0  1 V2000
  150.9815  140.6063  156.6204 C   0  0  0  0  0  0  0  0  0  0  0  0
  150.4320  142.0382  156.5693 C   0  0  2  0  0  0  0  0  0  0  0  0
  150.1943  142.5995  157.9878 C   0  0  0  0  0  0  0  0  0  0  0  0
  151.4081  142.6507  158.7835 N   0  0  0  0  0  0  0  0  0  0  0  0
  152.5059  143.4699  158.6218 C   0  0  0  0  0  0  0  0  0  0  0  0
  153.4035  143.1429  159.5974 C   0  0  0  0  0  0  0  0  0  0  0  0
  152.7539  142.1026  160.3189 C   0  0  0  0  0  0  0  0  0  0  0  0
  151.5581  141.8133  159.8321 N   0  0  0  0  0  0  0  0  0  0  0  0
  149.1914  142.0421  155.7946 N   0  0  0  0  0  0  0  0  0  0  0  0
  149.0085  141.4551  154.6012 C   0  0  0  0  0  0  0  0  0  0  0  0
  149.8817  140.8098  154.0203 O   0  0  0  0  0  0  0  0  0  0  0  0
  147.6261  141.6282  153.9643 C   0  0  1  0  0  0  0  0  0  0  0  0
  146.4699  141.1362  154.8550 C   0  0  0  0  0  0  0  0  0  0  0  0
  145.7480  142.4108  155.2468 C   0  0  0  0  0  0  0  0  0  0  0  0
  146.0416  143.3152  154.0589 C   0  0  0  0  0  0  0  0  0  0  0  0
  147.3978  143.0217  153.7647 O   0  0  0  0  0  0  0  0  0  0  0  0
  151.9195  140.5661  157.1748 H   0  0  0  0  0  0  0  0  0  0  0  0
  151.1771  140.2252  155.6175 H   0  0  0  0  0  0  0  0  0  0  0  0
  150.2793  139.9270  157.1051 H   0  0  0  0  0  0  0  0  0  0  0  0
  151.1841  142.6520  156.0701 H   0  0  0  0  0  0  0  0  0  0  0  0
  149.7663  143.6018  157.9371 H   0  0  0  0  0  0  0  0  0  0  0  0
  149.4704  141.9802  158.5196 H   0  0  0  0  0  0  0  0  0  0  0  0
  152.5593  144.2028  157.8304 H   0  0  0  0  0  0  0  0  0  0  0  0
  154.3766  143.5786  159.7687 H   0  0  0  0  0  0  0  0  0  0  0  0
  153.1129  141.5532  161.1766 H   0  0  0  0  0  0  0  0  0  0  0  0
  148.4108  142.5431  156.1936 H   0  0  0  0  0  0  0  0  0  0  0  0
  147.5869  141.1206  152.9988 H   0  0  0  0  0  0  0  0  0  0  0  0
  145.8066  140.4953  154.2732 H   0  0  0  0  0  0  0  0  0  0  0  0
  146.7908  140.5649  155.7276 H   0  0  0  0  0  0  0  0  0  0  0  0
  144.6816  142.2640  155.4202 H   0  0  0  0  0  0  0  0  0  0  0  0
  146.1896  142.8290  156.1525 H   0  0  0  0  0  0  0  0  0  0  0  0
  145.4160  143.0536  153.2042 H   0  0  0  0  0  0  0  0  0  0  0  0
  145.8982  144.3721  154.2848 H   0  0  0  0  0  0  0  0  0  0  0  0
  1  2  1  0  0  0  0
  1 17  1  0  0  0  0
  1 18  1  0  0  0  0
  1 19  1  0  0  0  0
  2  3  1  0  0  0  0
  2  9  1  0  0  0  0
  2 20  1  0  0  0  0
  3  4  1  0  0  0  0
  3 21  1  0  0  0  0
  3 22  1  0  0  0  0
  4  8  1  0  0  0  0
  4  5  1  0  0  0  0
  5  6  2  0  0  0  0
  5 23  1  0  0  0  0
  6  7  1  0  0  0  0
  6 24  1  0  0  0  0
  7  8  2  0  0  0  0
  7 25  1  0  0  0  0
  9 10  1  0  0  0  0
  9 26  1  0  0  0  0
 10 11  2  0  0  0  0
 10 12  1  0  0  0  0
 12 16  1  0  0  0  0
 12 13  1  0  0  0  0
 12 27  1  0  0  0  0
 13 14  1  0  0  0  0
 13 28  1  0  0  0  0
 13 29  1  0  0  0  0
 14 15  1  0  0  0  0
 14 30  1  0  0  0  0
 14 31  1  0  0  0  0
 15 16  1  0  0  0  0
 15 32  1  0  0  0  0
 15 33  1  0  0  0  0
M  END
> <s_m_source_file>
AV-unprocessed.smi

> <i_m_source_file_index>
3220

> <i_lp_mmshare_version>
43012

> <i_f3d_flags>
0

> <s_epik_input>
bjFbY0hdW2NIXVtjSF1uMVtDSDJdW0NAQEhdKFtDSDNdKVtOSF1DKD1PKVtDQEBIXTJbQ0gyXVtDSDJdW0NIMl1PMg==

> <s_epik_cmdline>
J2VwaWtfcHl0aG9uJywgJy1waCcsICc3LjAnLCAnLXRuJywgJzgnLCAnLW1hJywgJzIwMCcsICctbWV0YWxfYmluZGluZycsICctaW1hZScsICc8aW5maWxlLm1hZT4nLCAnLW9tYWUnLCAnPG91dGZpbGUubWFlPic=

> <r_lp_tautomer_probability>
1

> <r_epik_Ionization_Penalty>
0.00033363

> <r_epik_Ionization_Penalty_Charging>
0

> <r_epik_Ionization_Penalty_Neutral>
0.00033363

> <r_epik_State_Penalty>
-0

> <r_epik_Charging_Adjusted_Penalty>
0

> <i_epik_Tot_Q>
0

> <i_epik_Tot_abs_Q>
0

> <r_epik_Metal_State_Penalty>
-0

> <b_epik_Metal_Only>
0

> <s_lp_Force_Field>
OPLS_2005

> <r_lp_Energy>
17.4241

> <b_lp_Chiralities_Consistent>
1

> <s_lp_Variant>
AV-unprocessed.smi:3220-3

> <Gold.Version>
5.8.1

> <Gold.Id.Protein>
6NUR|6NUR_protein|mol2

> <Gold.PLP.Fitness>
37.5566

> <Gold.PLP.PLP>
-34.9610

> <Gold.PLP.part.hbond>
-4.6276

> <Gold.PLP.part.metal>
0.0000

> <Gold.PLP.part.buried>
-2.4549

> <Gold.PLP.part.nonpolar>
-30.0576

> <Gold.PLP.part.repulsive>
2.6131

> <Gold.PLP.ligand.clash>
0.0000

> <Gold.PLP.ligand.torsion>
0.2121

> <Gold.PLP.Chemscore.Hbond>
0.9992

> <Gold.PLP.Chemscore.CHOScore>
0.0000

> <Gold.PLP.Chemscore.Metal>
0.0000

> <Gold.Chemscore.Hbonds>
donor molecule, donor type, donor heavy atom, donor atom, acceptor molecule, acceptor atom, score
      L1  H     9    26       P1  8028  0.02
      P1  H  7989  7998       L1    11  0.56
      P1  H  8011  8017       L1    11  0.09
      P1  H  8022  8030       L1    16  0.45

> <Gold.PLP.Chemscore.Internal.Correction>
0.0223

> <Gold.Rescore>
     Score         DG    S(hbond)    S(metal)    S(lipo)     H(rot)  DE(clash)    DE(int)     intcor
     11.60     -13.08       0.91        0.00      74.59       1.62       0.02       1.47       ----

> <Gold.Chemscore.Fitness>
11.5969

> <Gold.Chemscore.DG>
-13.0849

> <Gold.Chemscore.ZeroCoef>
-5.4800

> <Gold.Chemscore.Hbond>
0.9070

> <Gold.Chemscore.Metal>
0.0000

> <Gold.Chemscore.Lipo>
74.5924

> <Gold.Chemscore.Internal_Hbond>
0.0000

> <Gold.Chemscore.DEClash>
0.0220

> <Gold.Chemscore.DEInternal>
1.4660

> <Gold.Chemscore.Rot>
1.6219

> <Gold.Chemscore.Internal.Correction>
   9.000000E+99

> <Gold.Chemscore.Hbonds>
donor molecule, donor type, donor heavy atom, donor atom, acceptor molecule, acceptor atom, score
      L1  H     9    26       P1  8028  0.03
      P1  H  7989  7998       L1    11  0.56
      P1  H  8022  8030       L1    16  0.36

> <Gold.Chemscore.Hbond.Weighted>
-3.0295

> <Gold.Chemscore.Metal.Weighted>
-0.0000

> <Gold.Chemscore.Lipo.Weighted>
-8.7273

> <Gold.Chemscore.Internal_Hbond.Weighted>
0.0000

> <Gold.Chemscore.DEClash.Weighted>
0.0220

> <Gold.Chemscore.DEInternal.Weighted>
1.4660

> <Gold.Chemscore.Rot.Weighted>
4.1520

> <Gold.Chemscore.Internal.Correction.Weighted>
   9.000000E+99

> <Gold.Protein.RotatedTorsions>
[ 6907 6896 6895 6894 ] final  118.29 input  -60.11 | X-H torsion
[ 7974 7965 7964 7962 ] final   17.73 input  175.53 | X-H torsion
[ 8008 7997 7996 7995 ] final   85.64 input   59.86 | X-H torsion
[ 10167 10162 10161 10158 ] final    5.01 input  -65.29 | X-H torsion
[ 10718 10713 10712 10709 ] final   -8.98 input   66.30 | X-H torsion
[ 10763 10752 10751 10750 ] final   28.34 input  -60.55 | X-H torsion
[ 11005 11000 10999 10996 ] final   62.41 input  -57.11 | X-H torsion

> <Gold.Protein.ActiveResidues>
 VAL166  LYS551  ARG553  GLY616  TRP617  ASP618  TYR619  PRO620  LYS621  CYS622 
 ASP623  PHE694  ASN695  SER759  ASP760  ASP761  ALA762  ILE779  LEU786  VAL792 
 PHE793  MET794  SER795  GLU796  ALA797  LYS798  CYS799  TRP800  GLU811  SER814 

> <Gold.Protein.RotatedAtoms>
  152.4553  133.7711  159.6798 H   0  0  0  0  0  0  0  0  0  0  0  0  # atno 6907 bound_to 6896
  150.8478  133.7825  159.3043 H   0  0  0  0  0  0  0  0  0  0  0  0  # atno 6908 bound_to 6896
  151.5430  135.1071  159.9983 H   0  0  0  0  0  0  0  0  0  0  0  0  # atno 6909 bound_to 6896
  146.2209  139.8559  142.8613 H   0  0  0  0  0  0  0  0  0  0  0  0  # atno 7974 bound_to 7965
  155.9526  140.3399  155.6421 H   0  0  0  0  0  0  0  0  0  0  0  0  # atno 8008 bound_to 7997
  155.6900  140.0748  157.2470 H   0  0  0  0  0  0  0  0  0  0  0  0  # atno 8009 bound_to 7997
  154.4125  140.1659  156.2063 H   0  0  0  0  0  0  0  0  0  0  0  0  # atno 8010 bound_to 7997
  140.6504  143.7558  150.7566 H   0  0  0  0  0  0  0  0  0  0  0  0  # atno 10167 bound_to 10162
  156.6946  130.5075  149.5934 H   0  0  0  0  0  0  0  0  0  0  0  0  # atno 10718 bound_to 10713
  153.0498  135.6515  154.0723 H   0  0  0  0  0  0  0  0  0  0  0  0  # atno 10763 bound_to 10752
  154.0413  135.2903  155.3356 H   0  0  0  0  0  0  0  0  0  0  0  0  # atno 10764 bound_to 10752
  154.6779  135.5331  153.8290 H   0  0  0  0  0  0  0  0  0  0  0  0  # atno 10765 bound_to 10752
  140.0094  134.6320  155.9804 H   0  0  0  0  0  0  0  0  0  0  0  0  # atno 11005 bound_to 11000
  145.2753  141.0122  143.3748 LP  0  0  0  0  0  0  0  0  0  0  0  0  # atno 17320 bound_to 7965
  144.9191  139.4433  143.6550 LP  0  0  0  0  0  0  0  0  0  0  0  0  # atno 17321 bound_to 7965
  140.1207  143.4614  152.2314 LP  0  0  0  0  0  0  0  0  0  0  0  0  # atno 17342 bound_to 10162
  139.5719  144.7467  151.3868 LP  0  0  0  0  0  0  0  0  0  0  0  0  # atno 17343 bound_to 10162
  156.1772  130.6476  151.0909 LP  0  0  0  0  0  0  0  0  0  0  0  0  # atno 17370 bound_to 10713
  157.6996  131.0781  150.6862 LP  0  0  0  0  0  0  0  0  0  0  0  0  # atno 17371 bound_to 10713
  141.1700  133.6537  156.4617 LP  0  0  0  0  0  0  0  0  0  0  0  0  # atno 17394 bound_to 11000
  140.4582  134.6865  157.5073 LP  0  0  0  0  0  0  0  0  0  0  0  0  # atno 17395 bound_to 11000

$$$$
