AV-unprocessed.smi:287|AV-procd|sdf|2198|dock10
  -GOLD-   2262022 13D 1   1.00000     0.00000
 Structure written by MMmdl.
 55 58  0  0  0  0  0  0  0  0  1 V2000
  151.9869  144.7323  158.9288 C   0  0  0  0  0  0  0  0  0  0  0  0
  152.5127  143.3557  159.1494 C   0  0  0  0  0  0  0  0  0  0  0  0
  152.4138  142.1854  158.4554 C   0  0  0  0  0  0  0  0  0  0  0  0
  153.1533  141.1992  159.1747 C   0  0  0  0  0  0  0  0  0  0  0  0
  153.3251  139.7379  158.7829 C   0  0  2  0  0  0  0  0  0  0  0  0
  154.0162  138.9746  159.9244 C   0  0  0  0  0  0  0  0  0  0  0  0
  154.1630  139.5706  157.6553 O   0  0  0  0  0  0  0  0  0  0  0  0
  151.9853  139.0553  158.4218 C   0  0  0  0  0  0  0  0  0  0  0  0
  152.1420  137.6515  158.0622 N   0  0  0  0  0  0  0  0  0  0  0  0
  151.0728  136.8333  157.9728 C   0  0  0  0  0  0  0  0  0  0  0  0
  150.1724  136.9399  158.9791 N   0  0  0  0  0  0  0  0  0  0  0  0
  149.0779  136.1743  158.9865 C   0  0  0  0  0  0  0  0  0  0  0  0
  148.6972  135.2553  158.0976 N   0  0  0  0  0  0  0  0  0  0  0  0
  149.5989  135.1425  157.0798 C   0  0  0  0  0  0  0  0  0  0  0  0
  150.8044  135.8875  156.9389 C   0  0  0  0  0  0  0  0  0  0  0  0
  151.4496  135.4926  155.7715 N   0  0  0  0  0  0  0  0  0  0  0  0
  150.6723  134.5753  155.2633 C   0  0  0  0  0  0  0  0  0  0  0  0
  149.5306  134.3062  155.9867 N   0  0  0  0  0  0  0  0  0  0  0  0
  148.4260  133.3300  155.7017 C   0  0  2  0  0  0  0  0  0  0  0  0
  149.0050  132.0725  155.5401 O   0  0  0  0  0  0  0  0  0  0  0  0
  149.0969  131.7044  154.1603 C   0  0  1  0  0  0  0  0  0  0  0  0
  148.2416  130.4298  153.9980 C   0  0  0  0  0  0  0  0  0  0  0  0
  148.0965  130.1234  152.6275 O   0  0  0  0  0  0  0  0  0  0  0  0
  148.5996  132.9411  153.3798 C   0  0  1  0  0  0  0  0  0  0  0  0
  147.8863  132.6251  152.2000 O   0  0  0  0  0  0  0  0  0  0  0  0
  147.7091  133.6528  154.3831 C   0  0  2  0  0  0  0  0  0  0  0  0
  147.6185  135.0372  154.0983 O   0  0  0  0  0  0  0  0  0  0  0  0
  153.6330  141.8593  160.2801 C   0  0  0  0  0  0  0  0  0  0  0  0
  154.4534  141.4466  161.4572 C   0  0  0  0  0  0  0  0  0  0  0  0
  153.2548  143.1679  160.2693 O   0  0  0  0  0  0  0  0  0  0  0  0
  147.7844  133.3664  156.5827 H   0  0  0  0  0  0  0  0  0  0  0  0
  150.1323  131.4936  153.8886 H   0  0  0  0  0  0  0  0  0  0  0  0
  149.4531  133.5703  153.1219 H   0  0  0  0  0  0  0  0  0  0  0  0
  146.7166  133.2011  154.4171 H   0  0  0  0  0  0  0  0  0  0  0  0
  151.5198  144.8174  157.9475 H   0  0  0  0  0  0  0  0  0  0  0  0
  152.7903  145.4673  158.9847 H   0  0  0  0  0  0  0  0  0  0  0  0
  151.2408  144.9860  159.6819 H   0  0  0  0  0  0  0  0  0  0  0  0
  151.8769  142.0520  157.5279 H   0  0  0  0  0  0  0  0  0  0  0  0
  153.4258  139.0166  160.8406 H   0  0  0  0  0  0  0  0  0  0  0  0
  154.9973  139.3968  160.1472 H   0  0  0  0  0  0  0  0  0  0  0  0
  154.1584  137.9223  159.6748 H   0  0  0  0  0  0  0  0  0  0  0  0
  154.3536  138.6503  157.5574 H   0  0  0  0  0  0  0  0  0  0  0  0
  151.2660  139.1600  159.2352 H   0  0  0  0  0  0  0  0  0  0  0  0
  151.5612  139.5658  157.5560 H   0  0  0  0  0  0  0  0  0  0  0  0
  153.0779  137.3688  157.8087 H   0  0  0  0  0  0  0  0  0  0  0  0
  148.4115  136.3199  159.8238 H   0  0  0  0  0  0  0  0  0  0  0  0
  150.9172  134.0717  154.3401 H   0  0  0  0  0  0  0  0  0  0  0  0
  148.6766  129.5845  154.5322 H   0  0  0  0  0  0  0  0  0  0  0  0
  147.2341  130.5774  154.3863 H   0  0  0  0  0  0  0  0  0  0  0  0
  148.7727  130.5744  152.1457 H   0  0  0  0  0  0  0  0  0  0  0  0
  148.3584  131.9466  151.7414 H   0  0  0  0  0  0  0  0  0  0  0  0
  147.8813  135.1762  153.2010 H   0  0  0  0  0  0  0  0  0  0  0  0
  154.0279  140.5632  161.9333 H   0  0  0  0  0  0  0  0  0  0  0  0
  154.5001  142.2397  162.2039 H   0  0  0  0  0  0  0  0  0  0  0  0
  155.4732  141.2107  161.1531 H   0  0  0  0  0  0  0  0  0  0  0  0
  1  2  1  0  0  0  0
  1 35  1  0  0  0  0
  1 36  1  0  0  0  0
  1 37  1  0  0  0  0
  2 30  1  0  0  0  0
  2  3  2  0  0  0  0
  3  4  1  0  0  0  0
  3 38  1  0  0  0  0
  4  5  1  0  0  0  0
  4 28  2  0  0  0  0
  5  6  1  0  0  0  0
  5  7  1  0  0  0  0
  5  8  1  0  0  0  0
  6 39  1  0  0  0  0
  6 40  1  0  0  0  0
  6 41  1  0  0  0  0
  7 42  1  0  0  0  0
  8  9  1  0  0  0  0
  8 43  1  0  0  0  0
  8 44  1  0  0  0  0
  9 10  1  0  0  0  0
  9 45  1  0  0  0  0
 10 15  1  0  0  0  0
 10 11  2  0  0  0  0
 11 12  1  0  0  0  0
 12 13  2  0  0  0  0
 12 46  1  0  0  0  0
 13 14  1  0  0  0  0
 14 18  1  0  0  0  0
 14 15  2  0  0  0  0
 15 16  1  0  0  0  0
 16 17  2  0  0  0  0
 17 18  1  0  0  0  0
 17 47  1  0  0  0  0
 18 19  1  0  0  0  0
 19 31  1  0  0  0  0
 19 26  1  0  0  0  0
 19 20  1  0  0  0  0
 20 21  1  0  0  0  0
 21 32  1  0  0  0  0
 21 22  1  0  0  0  0
 21 24  1  0  0  0  0
 22 23  1  0  0  0  0
 22 48  1  0  0  0  0
 22 49  1  0  0  0  0
 23 50  1  0  0  0  0
 24 33  1  0  0  0  0
 24 25  1  0  0  0  0
 24 26  1  0  0  0  0
 25 51  1  0  0  0  0
 26 34  1  0  0  0  0
 26 27  1  0  0  0  0
 27 52  1  0  0  0  0
 28 29  1  0  0  0  0
 28 30  1  0  0  0  0
 29 53  1  0  0  0  0
 29 54  1  0  0  0  0
 29 55  1  0  0  0  0
M  END
> <s_m_source_file>
AV-unprocessed.smi

> <i_m_source_file_index>
287

> <i_lp_mmshare_version>
43012

> <i_f3d_flags>
0

> <s_epik_input>
W0NIM11jMVtjSF1jKGMobzEpW0NIM10pW0NAQF0oW0NIM10pKFtPSF0pW0NIMl1bTkhdYyhuW2NIXW4yKWMoYzIzKW5bY0hdbjNbQ0BASF00T1tDQEhdKFtDSDJdW09IXSlbQ0BASF0oW09IXSlbQ0BIXTRbT0hd

> <s_epik_cmdline>
J2VwaWtfcHl0aG9uJywgJy1waCcsICc3LjAnLCAnLXRuJywgJzgnLCAnLW1hJywgJzIwMCcsICctbWV0YWxfYmluZGluZycsICctaW1hZScsICc8aW5maWxlLm1hZT4nLCAnLW9tYWUnLCAnPG91dGZpbGUubWFlPic=

> <r_lp_tautomer_probability>
1

> <r_epik_Ionization_Penalty>
0.000992612

> <r_epik_Ionization_Penalty_Charging>
0

> <r_epik_Ionization_Penalty_Neutral>
0.000992612

> <r_epik_State_Penalty>
-0

> <r_epik_Charging_Adjusted_Penalty>
0

> <i_epik_Tot_Q>
0

> <i_epik_Tot_abs_Q>
0

> <r_epik_Metal_State_Penalty>
-0

> <b_epik_Metal_Only>
0

> <s_epik_Chemistry_Notes>
This compound contains an acetal/aminal-like group ( X-CH(R)-Y where X, Y are N, S, or O) that may be acid/base labile, releasing an aldehyde.

> <s_lp_Force_Field>
OPLS_2005

> <r_lp_Energy>
45.8493

> <b_lp_Chiralities_Consistent>
1

> <s_lp_Variant>
AV-unprocessed.smi:287-22

> <Gold.Version>
5.8.1

> <Gold.Id.Protein>
6NUR|6NUR_protein|mol2

> <Gold.PLP.Fitness>
55.0578

> <Gold.PLP.PLP>
-46.1082

> <Gold.PLP.part.hbond>
-4.2649

> <Gold.PLP.part.metal>
0.0000

> <Gold.PLP.part.buried>
-6.0810

> <Gold.PLP.part.nonpolar>
-35.9711

> <Gold.PLP.part.repulsive>
0.1093

> <Gold.PLP.ligand.clash>
1.9374

> <Gold.PLP.ligand.torsion>
0.7705

> <Gold.PLP.Chemscore.Hbond>
4.0898

> <Gold.PLP.Chemscore.CHOScore>
0.0000

> <Gold.PLP.Chemscore.Metal>
0.0000

> <Gold.Chemscore.Hbonds>
donor molecule, donor type, donor heavy atom, donor atom, acceptor molecule, acceptor atom, score
      L1  H    23    50       P1 10747  0.62
      L1  H    25    51       P1 10747  1.00
      L1  H    27    52       P1  7948  0.99
      P1  H 10752 10765       L1    16  1.00

> <Gold.PLP.Chemscore.Internal.Correction>
0.1586

> <Gold.Rescore>
     Score         DG    S(hbond)    S(metal)    S(lipo)     H(rot)  DE(clash)    DE(int)     intcor
     15.89     -17.90       4.15        0.00     102.79       5.27       0.16       1.84       ----

> <Gold.Chemscore.Fitness>
15.8934

> <Gold.Chemscore.DG>
-17.8951

> <Gold.Chemscore.ZeroCoef>
-5.4800

> <Gold.Chemscore.Hbond>
4.1534

> <Gold.Chemscore.Metal>
0.0000

> <Gold.Chemscore.Lipo>
102.7924

> <Gold.Chemscore.Internal_Hbond>
0.0000

> <Gold.Chemscore.DEClash>
0.1648

> <Gold.Chemscore.DEInternal>
1.8369

> <Gold.Chemscore.Rot>
5.2672

> <Gold.Chemscore.Internal.Correction>
   9.000000E+99

> <Gold.Chemscore.Hbonds>
donor molecule, donor type, donor heavy atom, donor atom, acceptor molecule, acceptor atom, score
      L1  H    23    50       P1 10747  0.34
      L1  H    25    51       P1 10747  0.99
      L1  H    27    52       P1  7948  0.91
      P1  H 10752 10765       L1    16  0.70

> <Gold.Chemscore.Hbond.Weighted>
-13.8723

> <Gold.Chemscore.Metal.Weighted>
-0.0000

> <Gold.Chemscore.Lipo.Weighted>
-12.0267

> <Gold.Chemscore.Internal_Hbond.Weighted>
0.0000

> <Gold.Chemscore.DEClash.Weighted>
0.1648

> <Gold.Chemscore.DEInternal.Weighted>
1.8369

> <Gold.Chemscore.Rot.Weighted>
13.4839

> <Gold.Chemscore.Internal.Correction.Weighted>
   9.000000E+99

> <Gold.Protein.RotatedTorsions>
[ 6907 6896 6895 6894 ] final   59.06 input  -60.11 | X-H torsion
[ 7974 7965 7964 7962 ] final   66.02 input  175.53 | X-H torsion
[ 8008 7997 7996 7995 ] final  129.33 input   59.86 | X-H torsion
[ 10167 10162 10161 10158 ] final  116.25 input  -65.29 | X-H torsion
[ 10718 10713 10712 10709 ] final   39.37 input   66.30 | X-H torsion
[ 10763 10752 10751 10750 ] final -162.79 input  -60.55 | X-H torsion
[ 11005 11000 10999 10996 ] final  -83.51 input  -57.11 | X-H torsion

> <Gold.Protein.ActiveResidues>
 VAL166  LYS551  ARG553  GLY616  TRP617  ASP618  TYR619  PRO620  LYS621  CYS622 
 ASP623  PHE694  ASN695  SER759  ASP760  ASP761  ALA762  ILE779  LEU786  VAL792 
 PHE793  MET794  SER795  GLU796  ALA797  LYS798  CYS799  TRP800  GLU811  SER814 

> <Gold.Protein.RotatedAtoms>
  152.3880  134.6486  160.0117 H   0  0  0  0  0  0  0  0  0  0  0  0  # atno 6907 bound_to 6896
  151.6728  133.3308  159.3209 H   0  0  0  0  0  0  0  0  0  0  0  0  # atno 6908 bound_to 6896
  150.7802  134.6784  159.6475 H   0  0  0  0  0  0  0  0  0  0  0  0  # atno 6909 bound_to 6896
  145.8315  139.3142  143.0984 H   0  0  0  0  0  0  0  0  0  0  0  0  # atno 7974 bound_to 7965
  156.2934  140.2623  156.2580 H   0  0  0  0  0  0  0  0  0  0  0  0  # atno 8008 bound_to 7997
  154.9816  140.0389  157.2299 H   0  0  0  0  0  0  0  0  0  0  0  0  # atno 8009 bound_to 7997
  154.7766  140.2787  155.6101 H   0  0  0  0  0  0  0  0  0  0  0  0  # atno 8010 bound_to 7997
  139.6260  144.7108  151.2532 H   0  0  0  0  0  0  0  0  0  0  0  0  # atno 10167 bound_to 10162
  157.3697  130.7695  149.7110 H   0  0  0  0  0  0  0  0  0  0  0  0  # atno 10718 bound_to 10713
  154.7182  135.3020  154.9090 H   0  0  0  0  0  0  0  0  0  0  0  0  # atno 10763 bound_to 10752
  153.9970  135.6711  153.4761 H   0  0  0  0  0  0  0  0  0  0  0  0  # atno 10764 bound_to 10752
  153.0811  135.5008  154.8421 H   0  0  0  0  0  0  0  0  0  0  0  0  # atno 10765 bound_to 10752
  141.1657  133.7298  156.8730 H   0  0  0  0  0  0  0  0  0  0  0  0  # atno 11005 bound_to 11000
  145.9565  140.8868  143.0232 LP  0  0  0  0  0  0  0  0  0  0  0  0  # atno 17320 bound_to 7965
  144.6739  140.1753  143.7410 LP  0  0  0  0  0  0  0  0  0  0  0  0  # atno 17321 bound_to 7965
  140.7411  143.6567  150.8200 LP  0  0  0  0  0  0  0  0  0  0  0  0  # atno 17342 bound_to 10162
  140.0185  143.5567  152.2810 LP  0  0  0  0  0  0  0  0  0  0  0  0  # atno 17343 bound_to 10162
  155.9753  130.4091  150.3859 LP  0  0  0  0  0  0  0  0  0  0  0  0  # atno 17370 bound_to 10713
  157.1948  131.0424  151.2681 LP  0  0  0  0  0  0  0  0  0  0  0  0  # atno 17371 bound_to 10713
  140.1768  134.9061  157.2900 LP  0  0  0  0  0  0  0  0  0  0  0  0  # atno 17394 bound_to 11000
  140.2440  134.3762  155.7469 LP  0  0  0  0  0  0  0  0  0  0  0  0  # atno 17395 bound_to 11000

$$$$
