AV-unprocessed.smi:51|AV-procd|sdf|505|dock2
  -GOLD-   2262016373D 1   1.00000     0.00000
 Structure written by MMmdl.
 26 27  0  0  0  0  0  0  0  0  3 V2000
  152.1969  137.4921  154.8559 O   0  0  0  0  0  0  0  0  0  0  0  0
  152.0067  138.7240  154.9473 C   0  0  0  0  0  0  0  0  0  0  0  0
  152.8787  139.6075  154.7924 O   0  5  0  0  0  0  0  0  0  0  0  0
  150.5834  139.1760  155.3079 C   0  0  2  0  0  0  0  0  0  0  0  0
  149.6016  138.9685  154.1391 C   0  0  0  0  0  0  0  0  0  0  0  0
  148.6293  140.1416  154.2717 C   0  0  2  0  0  0  0  0  0  0  0  0
  148.0006  140.4706  153.0513 O   0  0  0  0  0  0  0  0  0  0  0  0
  149.5077  141.2762  154.7994 C   0  0  0  0  0  0  0  0  0  0  0  0
  150.5093  140.6038  155.6137 N   0  0  0  0  0  0  0  0  0  0  0  0
  151.1253  141.2161  156.7237 C   0  0  0  0  0  0  0  0  0  0  0  0
  150.9861  142.5936  156.9978 C   0  0  0  0  0  0  0  0  0  0  0  0
  151.6333  143.0932  158.1421 C   0  0  0  0  0  0  0  0  0  0  0  0
  152.3627  142.2689  158.9314 N   0  3  0  0  0  0  0  0  0  0  0  0
  152.4632  140.9705  158.6135 C   0  0  0  0  0  0  0  0  0  0  0  0
  151.8704  140.4361  157.5399 N   0  0  0  0  0  0  0  0  0  0  0  0
  150.2286  138.6222  156.1781 H   0  0  0  0  0  0  0  0  0  0  0  0
  150.1171  139.0268  153.1782 H   0  0  0  0  0  0  0  0  0  0  0  0
  149.0974  138.0028  154.1842 H   0  0  0  0  0  0  0  0  0  0  0  0
  147.8677  139.8954  155.0131 H   0  0  0  0  0  0  0  0  0  0  0  0
  148.6443  140.4246  152.3611 H   0  0  0  0  0  0  0  0  0  0  0  0
  150.0161  141.7987  153.9875 H   0  0  0  0  0  0  0  0  0  0  0  0
  148.9155  142.0008  155.3596 H   0  0  0  0  0  0  0  0  0  0  0  0
  150.4046  143.2526  156.3701 H   0  0  0  0  0  0  0  0  0  0  0  0
  151.5911  144.1272  158.4512 H   0  0  0  0  0  0  0  0  0  0  0  0
  153.0573  140.3530  159.2709 H   0  0  0  0  0  0  0  0  0  0  0  0
  152.8277  142.6418  159.7592 H   0  0  0  0  0  0  0  0  0  0  0  0
  1  2  2  0  0  0  0
  2  3  1  0  0  0  0
  2  4  1  0  0  0  0
  4  9  1  0  0  0  0
  4  5  1  0  0  0  0
  4 16  1  0  0  0  0
  5  6  1  0  0  0  0
  5 17  1  0  0  0  0
  5 18  1  0  0  0  0
  6  7  1  0  0  0  0
  6  8  1  0  0  0  0
  6 19  1  0  0  0  0
  7 20  1  0  0  0  0
  8  9  1  0  0  0  0
  8 21  1  0  0  0  0
  8 22  1  0  0  0  0
  9 10  1  0  0  0  0
 10 15  1  0  0  0  0
 10 11  2  0  0  0  0
 11 12  1  0  0  0  0
 11 23  1  0  0  0  0
 12 13  2  0  0  0  0
 12 24  1  0  0  0  0
 13 14  1  0  0  0  0
 13 26  1  0  0  0  0
 14 15  2  0  0  0  0
 14 25  1  0  0  0  0
M  CHG  1   3  -1
M  CHG  1  13   1
M  END
> <s_m_source_file>
AV-unprocessed.smi

> <i_m_source_file_index>
51

> <i_lp_mmshare_version>
43012

> <i_f3d_flags>
0

> <s_epik_input>
Tz1DKFtPSF0pW0NAQEhdMVtDSDJdW0NAQEhdKFtPSF0pW0NIMl1OMWMyW2NIXVtjSF1uW2NIXW4y

> <s_epik_cmdline>
J2VwaWtfcHl0aG9uJywgJy1waCcsICc3LjAnLCAnLXRuJywgJzgnLCAnLW1hJywgJzIwMCcsICctbWV0YWxfYmluZGluZycsICctaW1hZScsICc8aW5maWxlLm1hZT4nLCAnLW9tYWUnLCAnPG91dGZpbGUubWFlPic=

> <r_lp_tautomer_probability>
0.999336

> <r_epik_Ionization_Penalty>
0.688427

> <r_epik_Ionization_Penalty_Charging>
0.688427

> <r_epik_Ionization_Penalty_Neutral>
1.98379e-07

> <r_epik_State_Penalty>
0.709817

> <r_epik_Charging_Adjusted_Penalty>
1.39824

> <i_epik_Tot_Q>
0

> <i_epik_Tot_abs_Q>
2

> <r_epik_Metal_State_Penalty>
0.873261

> <b_epik_Metal_Only>
0

> <s_lp_Force_Field>
OPLS_2005

> <r_lp_Energy>
15.0263

> <b_lp_Chiralities_Consistent>
1

> <s_lp_Variant>
AV-unprocessed.smi:51-7

> <Gold.Version>
5.8.1

> <Gold.Id.Protein>
6NUR|6NUR_protein|mol2

> <Gold.PLP.Fitness>
45.0386

> <Gold.PLP.PLP>
-31.1677

> <Gold.PLP.part.hbond>
-3.9504

> <Gold.PLP.part.metal>
0.0000

> <Gold.PLP.part.buried>
-3.6343

> <Gold.PLP.part.nonpolar>
-23.8229

> <Gold.PLP.part.repulsive>
0.1891

> <Gold.PLP.ligand.clash>
0.0000

> <Gold.PLP.ligand.torsion>
0.2216

> <Gold.PLP.Chemscore.Hbond>
4.7566

> <Gold.PLP.Chemscore.CHOScore>
0.0000

> <Gold.PLP.Chemscore.Metal>
0.0000

> <Gold.Chemscore.Hbonds>
donor molecule, donor type, donor heavy atom, donor atom, acceptor molecule, acceptor atom, score
      L1  H     7    20       P1  7957  1.00
      P1  H  7989  7998       L1     3  0.25
      P1  H  7997  8010       L1     3  2.00
      P1  H 10752 10763       L1     1  1.46

> <Gold.PLP.Chemscore.Internal.Correction>
0.0442

> <Gold.Rescore>
     Score         DG    S(hbond)    S(metal)    S(lipo)     H(rot)  DE(clash)    DE(int)     intcor
     15.01     -15.44       2.60        0.00      48.15       1.70       0.01       0.42       ----

> <Gold.Chemscore.Fitness>
15.0059

> <Gold.Chemscore.DG>
-15.4419

> <Gold.Chemscore.ZeroCoef>
-5.4800

> <Gold.Chemscore.Hbond>
2.6003

> <Gold.Chemscore.Metal>
0.0000

> <Gold.Chemscore.Lipo>
48.1526

> <Gold.Chemscore.Internal_Hbond>
0.0000

> <Gold.Chemscore.DEClash>
0.0149

> <Gold.Chemscore.DEInternal>
0.4211

> <Gold.Chemscore.Rot>
1.7020

> <Gold.Chemscore.Internal.Correction>
   9.000000E+99

> <Gold.Chemscore.Hbonds>
donor molecule, donor type, donor heavy atom, donor atom, acceptor molecule, acceptor atom, score
      L1  H     7    20       P1  7957  0.97
      P1  H  7989  7998       L1     3  0.04
      P1  H  7997  8010       L1     3  0.96
      P1  H 10752 10763       L1     1  0.68

> <Gold.Chemscore.Hbond.Weighted>
-8.6851

> <Gold.Chemscore.Metal.Weighted>
-0.0000

> <Gold.Chemscore.Lipo.Weighted>
-5.6339

> <Gold.Chemscore.Internal_Hbond.Weighted>
0.0000

> <Gold.Chemscore.DEClash.Weighted>
0.0149

> <Gold.Chemscore.DEInternal.Weighted>
0.4211

> <Gold.Chemscore.Rot.Weighted>
4.3571

> <Gold.Chemscore.Internal.Correction.Weighted>
   9.000000E+99

> <Gold.Protein.RotatedTorsions>
[ 6907 6896 6895 6894 ] final   93.23 input  -60.11 | X-H torsion
[ 7974 7965 7964 7962 ] final  -68.82 input  175.53 | X-H torsion
[ 8008 7997 7996 7995 ] final  108.85 input   59.86 | X-H torsion
[ 10167 10162 10161 10158 ] final   95.70 input  -65.29 | X-H torsion
[ 10718 10713 10712 10709 ] final -102.41 input   66.30 | X-H torsion
[ 10763 10752 10751 10750 ] final   51.59 input  -60.55 | X-H torsion
[ 11005 11000 10999 10996 ] final -170.18 input  -57.11 | X-H torsion

> <Gold.Protein.ActiveResidues>
 VAL166  LYS551  ARG553  GLY616  TRP617  ASP618  TYR619  PRO620  LYS621  CYS622 
 ASP623  PHE694  ASN695  SER759  ASP760  ASP761  ALA762  ILE779  LEU786  VAL792 
 PHE793  MET794  SER795  GLU796  ALA797  LYS798  CYS799  TRP800  GLU811  SER814 

> <Gold.Protein.RotatedAtoms>
  152.5452  134.1380  159.8466 H   0  0  0  0  0  0  0  0  0  0  0  0  # atno 6907 bound_to 6896
  151.1418  133.4959  159.2604 H   0  0  0  0  0  0  0  0  0  0  0  0  # atno 6908 bound_to 6896
  151.1564  135.0263  159.8746 H   0  0  0  0  0  0  0  0  0  0  0  0  # atno 6909 bound_to 6896
  145.7116  140.9076  143.0677 H   0  0  0  0  0  0  0  0  0  0  0  0  # atno 7974 bound_to 7965
  156.1935  140.3068  155.9379 H   0  0  0  0  0  0  0  0  0  0  0  0  # atno 8008 bound_to 7997
  155.3120  140.0451  157.3052 H   0  0  0  0  0  0  0  0  0  0  0  0  # atno 8009 bound_to 7997
  154.5481  140.2282  155.8539 H   0  0  0  0  0  0  0  0  0  0  0  0  # atno 8010 bound_to 7997
  139.7963  144.6832  150.9824 H   0  0  0  0  0  0  0  0  0  0  0  0  # atno 10167 bound_to 10162
  156.0228  130.5418  150.7104 H   0  0  0  0  0  0  0  0  0  0  0  0  # atno 10718 bound_to 10713
  152.9786  135.5841  154.4440 H   0  0  0  0  0  0  0  0  0  0  0  0  # atno 10763 bound_to 10752
  154.4038  135.2769  155.2082 H   0  0  0  0  0  0  0  0  0  0  0  0  # atno 10764 bound_to 10752
  154.3901  135.6127  153.5893 H   0  0  0  0  0  0  0  0  0  0  0  0  # atno 10765 bound_to 10752
  140.5223  134.5697  157.5051 H   0  0  0  0  0  0  0  0  0  0  0  0  # atno 11005 bound_to 11000
  144.6940  139.9083  143.7462 LP  0  0  0  0  0  0  0  0  0  0  0  0  # atno 17320 bound_to 7965
  146.0707  139.3696  143.0525 LP  0  0  0  0  0  0  0  0  0  0  0  0  # atno 17321 bound_to 7965
  140.7820  143.4327  151.0669 LP  0  0  0  0  0  0  0  0  0  0  0  0  # atno 17342 bound_to 10162
  139.8002  143.8095  152.3162 LP  0  0  0  0  0  0  0  0  0  0  0  0  # atno 17343 bound_to 10162
  157.4743  131.0896  151.0607 LP  0  0  0  0  0  0  0  0  0  0  0  0  # atno 17370 bound_to 10713
  157.1059  130.6001  149.5470 LP  0  0  0  0  0  0  0  0  0  0  0  0  # atno 17371 bound_to 10713
  139.9599  134.7471  156.0260 LP  0  0  0  0  0  0  0  0  0  0  0  0  # atno 17394 bound_to 11000
  141.1327  133.6582  156.3509 LP  0  0  0  0  0  0  0  0  0  0  0  0  # atno 17395 bound_to 11000

$$$$
