AV-unprocessed.smi:869|AV-procd|sdf|4004|dock3
  -GOLD-   22720 1483D 1   1.00000     0.00000
 Structure written by MMmdl.
 46 48  0  0  0  0  0  0  0  0  1 V2000
  149.2447  138.2987  158.2355 C   0  0  0  0  0  0  0  0  0  0  0  0
  148.1924  137.7732  157.4462 O   0  0  0  0  0  0  0  0  0  0  0  0
  147.3446  138.7866  156.9287 C   0  0  0  0  0  0  0  0  0  0  0  0
  146.9772  138.3953  155.5255 C   0  0  0  0  0  0  0  0  0  0  0  0
  146.3165  137.2658  155.2614 N   0  0  0  0  0  0  0  0  0  0  0  0
  146.1873  137.2983  153.8875 C   0  0  0  0  0  0  0  0  0  0  0  0
  145.5734  136.3853  153.0005 C   0  0  0  0  0  0  0  0  0  0  0  0
  145.5656  136.6343  151.6124 C   0  0  0  0  0  0  0  0  0  0  0  0
  146.1707  137.7971  151.0927 C   0  0  0  0  0  0  0  0  0  0  0  0
  146.7889  138.7188  151.9593 C   0  0  0  0  0  0  0  0  0  0  0  0
  146.7935  138.4653  153.3442 C   0  0  0  0  0  0  0  0  0  0  0  0
  147.3038  139.1494  154.4431 N   0  0  0  0  0  0  0  0  0  0  0  0
  148.0305  140.4112  154.3914 C   0  0  0  0  0  0  0  0  0  0  0  0
  149.4872  140.2737  154.8809 C   0  0  1  0  0  0  0  0  0  0  0  0
  150.3526  139.8327  153.8537 O   0  0  0  0  0  0  0  0  0  0  0  0
  150.0555  141.5619  155.4981 C   0  0  0  0  0  0  0  0  0  0  0  0
  151.0267  141.2369  156.4855 O   0  0  0  0  0  0  0  0  0  0  0  0
  151.2680  142.1478  157.4913 C   0  0  0  0  0  0  0  0  0  0  0  0
  151.0732  143.5093  157.1809 C   0  0  0  0  0  0  0  0  0  0  0  0
  151.2958  144.5088  158.1473 C   0  0  0  0  0  0  0  0  0  0  0  0
  151.7182  144.1566  159.4439 C   0  0  0  0  0  0  0  0  0  0  0  0
  151.9601  145.2352  160.4794 C   0  0  0  0  0  0  0  0  0  0  0  0
  151.9170  142.7990  159.7656 C   0  0  0  0  0  0  0  0  0  0  0  0
  151.6937  141.7996  158.7981 C   0  0  0  0  0  0  0  0  0  0  0  0
  149.8582  137.4823  158.6168 H   0  0  0  0  0  0  0  0  0  0  0  0
  148.8583  138.8564  159.0897 H   0  0  0  0  0  0  0  0  0  0  0  0
  149.8865  138.9567  157.6479 H   0  0  0  0  0  0  0  0  0  0  0  0
  146.4626  138.8773  157.5614 H   0  0  0  0  0  0  0  0  0  0  0  0
  147.8553  139.7505  156.9091 H   0  0  0  0  0  0  0  0  0  0  0  0
  145.1070  135.4923  153.3896 H   0  0  0  0  0  0  0  0  0  0  0  0
  145.0926  135.9302  150.9436 H   0  0  0  0  0  0  0  0  0  0  0  0
  146.1597  137.9809  150.0283 H   0  0  0  0  0  0  0  0  0  0  0  0
  147.2532  139.6105  151.5647 H   0  0  0  0  0  0  0  0  0  0  0  0
  147.9833  140.8174  153.3816 H   0  0  0  0  0  0  0  0  0  0  0  0
  147.5026  141.1298  155.0194 H   0  0  0  0  0  0  0  0  0  0  0  0
  149.5190  139.4995  155.6486 H   0  0  0  0  0  0  0  0  0  0  0  0
  149.8572  139.7702  153.0513 H   0  0  0  0  0  0  0  0  0  0  0  0
  150.5318  142.1477  154.7101 H   0  0  0  0  0  0  0  0  0  0  0  0
  149.2506  142.1659  155.9209 H   0  0  0  0  0  0  0  0  0  0  0  0
  150.7492  143.7911  156.1897 H   0  0  0  0  0  0  0  0  0  0  0  0
  151.1418  145.5466  157.8902 H   0  0  0  0  0  0  0  0  0  0  0  0
  152.0942  144.8084  161.4738 H   0  0  0  0  0  0  0  0  0  0  0  0
  151.1146  145.9227  160.5175 H   0  0  0  0  0  0  0  0  0  0  0  0
  152.8552  145.8043  160.2275 H   0  0  0  0  0  0  0  0  0  0  0  0
  152.2426  142.5171  160.7562 H   0  0  0  0  0  0  0  0  0  0  0  0
  151.8577  140.7720  159.0844 H   0  0  0  0  0  0  0  0  0  0  0  0
  1  2  1  0  0  0  0
  1 25  1  0  0  0  0
  1 26  1  0  0  0  0
  1 27  1  0  0  0  0
  2  3  1  0  0  0  0
  3  4  1  0  0  0  0
  3 28  1  0  0  0  0
  3 29  1  0  0  0  0
  4 12  1  0  0  0  0
  4  5  2  0  0  0  0
  5  6  1  0  0  0  0
  6 11  2  0  0  0  0
  6  7  1  0  0  0  0
  7  8  2  0  0  0  0
  7 30  1  0  0  0  0
  8  9  1  0  0  0  0
  8 31  1  0  0  0  0
  9 10  2  0  0  0  0
  9 32  1  0  0  0  0
 10 11  1  0  0  0  0
 10 33  1  0  0  0  0
 11 12  1  0  0  0  0
 12 13  1  0  0  0  0
 13 14  1  0  0  0  0
 13 34  1  0  0  0  0
 13 35  1  0  0  0  0
 14 15  1  0  0  0  0
 14 16  1  0  0  0  0
 14 36  1  0  0  0  0
 15 37  1  0  0  0  0
 16 17  1  0  0  0  0
 16 38  1  0  0  0  0
 16 39  1  0  0  0  0
 17 18  1  0  0  0  0
 18 24  1  0  0  0  0
 18 19  2  0  0  0  0
 19 20  1  0  0  0  0
 19 40  1  0  0  0  0
 20 21  2  0  0  0  0
 20 41  1  0  0  0  0
 21 22  1  0  0  0  0
 21 23  1  0  0  0  0
 22 42  1  0  0  0  0
 22 43  1  0  0  0  0
 22 44  1  0  0  0  0
 23 24  2  0  0  0  0
 23 45  1  0  0  0  0
 24 46  1  0  0  0  0
M  END
> <s_m_source_file>
AV-unprocessed.smi

> <i_m_source_file_index>
869

> <i_lp_mmshare_version>
43012

> <i_f3d_flags>
0

> <s_epik_input>
W2NIXTFbY0hdW2NIXVtjSF1jKGMxMiluKGMobjIpW0NIMl1PW0NIM10pW0NIMl1bQ0BIXShbT0hdKVtDSDJdT2MzW2NIXVtjSF1jKFtDSDNdKVtjSF1bY0hdMw==

> <s_epik_cmdline>
J2VwaWtfcHl0aG9uJywgJy1waCcsICc3LjAnLCAnLXRuJywgJzgnLCAnLW1hJywgJzIwMCcsICctbWV0YWxfYmluZGluZycsICctaW1hZScsICc8aW5maWxlLm1hZT4nLCAnLW9tYWUnLCAnPG91dGZpbGUubWFlPic=

> <r_lp_tautomer_probability>
1

> <r_epik_Ionization_Penalty>
0.0446698

> <r_epik_Ionization_Penalty_Charging>
0

> <r_epik_Ionization_Penalty_Neutral>
0.0446698

> <r_epik_State_Penalty>
0.0378721

> <r_epik_Charging_Adjusted_Penalty>
0.0378721

> <i_epik_Tot_Q>
0

> <i_epik_Tot_abs_Q>
0

> <r_epik_Metal_State_Penalty>
3.91074e-05

> <b_epik_Metal_Only>
0

> <s_lp_Force_Field>
OPLS_2005

> <r_lp_Energy>
18.5204

> <b_lp_Chiralities_Consistent>
1

> <s_lp_Variant>
AV-unprocessed.smi:869-2

> <Gold.Version>
5.8.1

> <Gold.Id.Protein>
6NUR|6NUR_protein|mol2

> <Gold.PLP.Fitness>
43.5848

> <Gold.PLP.PLP>
-40.3719

> <Gold.PLP.part.hbond>
-2.0000

> <Gold.PLP.part.metal>
0.0000

> <Gold.PLP.part.buried>
2.6233

> <Gold.PLP.part.nonpolar>
-40.6351

> <Gold.PLP.part.repulsive>
0.0663

> <Gold.PLP.ligand.clash>
0.0000

> <Gold.PLP.ligand.torsion>
1.4245

> <Gold.PLP.Chemscore.Hbond>
2.0000

> <Gold.PLP.Chemscore.CHOScore>
0.0000

> <Gold.PLP.Chemscore.Metal>
0.0000

> <Gold.Chemscore.Hbonds>
donor molecule, donor type, donor heavy atom, donor atom, acceptor molecule, acceptor atom, score
      L1  H    15    37       P1  7957  1.00
      P1  H  7989  7998       L1    15  0.99

> <Gold.PLP.Chemscore.Internal.Correction>
0.0620

> <Gold.Rescore>
     Score         DG    S(hbond)    S(metal)    S(lipo)     H(rot)  DE(clash)    DE(int)     intcor
     15.22     -19.05       1.16        0.00     134.53       2.36       2.35       1.47       ----

> <Gold.Chemscore.Fitness>
15.2246

> <Gold.Chemscore.DG>
-19.0522

> <Gold.Chemscore.ZeroCoef>
-5.4800

> <Gold.Chemscore.Hbond>
1.1588

> <Gold.Chemscore.Metal>
0.0000

> <Gold.Chemscore.Lipo>
134.5272

> <Gold.Chemscore.Internal_Hbond>
0.0000

> <Gold.Chemscore.DEClash>
2.3546

> <Gold.Chemscore.DEInternal>
1.4731

> <Gold.Chemscore.Rot>
2.3585

> <Gold.Chemscore.Internal.Correction>
   9.000000E+99

> <Gold.Chemscore.Hbonds>
donor molecule, donor type, donor heavy atom, donor atom, acceptor molecule, acceptor atom, score
      L1  H    15    37       P1  7957  0.96
      P1  H  7989  7998       L1    15  0.39

> <Gold.Chemscore.Hbond.Weighted>
-3.8704

> <Gold.Chemscore.Metal.Weighted>
-0.0000

> <Gold.Chemscore.Lipo.Weighted>
-15.7397

> <Gold.Chemscore.Internal_Hbond.Weighted>
0.0000

> <Gold.Chemscore.DEClash.Weighted>
2.3546

> <Gold.Chemscore.DEInternal.Weighted>
1.4731

> <Gold.Chemscore.Rot.Weighted>
6.0378

> <Gold.Chemscore.Internal.Correction.Weighted>
   9.000000E+99

> <Gold.Protein.RotatedTorsions>
[ 6907 6896 6895 6894 ] final  -36.31 input  -60.11 | X-H torsion
[ 7974 7965 7964 7962 ] final -169.64 input  175.53 | X-H torsion
[ 8008 7997 7996 7995 ] final  -63.91 input   59.86 | X-H torsion
[ 10167 10162 10161 10158 ] final -113.10 input  -65.29 | X-H torsion
[ 10718 10713 10712 10709 ] final  135.46 input   66.30 | X-H torsion
[ 10763 10752 10751 10750 ] final -139.85 input  -60.55 | X-H torsion
[ 11005 11000 10999 10996 ] final   29.32 input  -57.11 | X-H torsion

> <Gold.Protein.ActiveResidues>
 VAL166  LYS551  ARG553  GLY616  TRP617  ASP618  TYR619  PRO620  LYS621  CYS622 
 ASP623  PHE694  ASN695  SER759  ASP760  ASP761  ALA762  ILE779  LEU786  VAL792 
 PHE793  MET794  SER795  GLU796  ALA797  LYS798  CYS799  TRP800  GLU811  SER814 

> <Gold.Protein.RotatedAtoms>
  151.0288  134.9523  159.8099 H   0  0  0  0  0  0  0  0  0  0  0  0  # atno 6907 bound_to 6896
  152.5341  134.2808  159.9016 H   0  0  0  0  0  0  0  0  0  0  0  0  # atno 6908 bound_to 6896
  151.2817  133.4164  159.2661 H   0  0  0  0  0  0  0  0  0  0  0  0  # atno 6909 bound_to 6896
  144.7182  140.2190  143.6318 H   0  0  0  0  0  0  0  0  0  0  0  0  # atno 7974 bound_to 7965
  154.4581  140.0965  156.6816 H   0  0  0  0  0  0  0  0  0  0  0  0  # atno 8008 bound_to 7997
  155.5076  140.3475  155.4364 H   0  0  0  0  0  0  0  0  0  0  0  0  # atno 8009 bound_to 7997
  156.0818  140.1375  156.9692 H   0  0  0  0  0  0  0  0  0  0  0  0  # atno 8010 bound_to 7997
  140.1156  143.4489  152.1724 H   0  0  0  0  0  0  0  0  0  0  0  0  # atno 10167 bound_to 10162
  157.4568  131.1070  150.9967 H   0  0  0  0  0  0  0  0  0  0  0  0  # atno 10718 bound_to 10713
  154.8597  135.3570  154.5613 H   0  0  0  0  0  0  0  0  0  0  0  0  # atno 10763 bound_to 10752
  153.6228  135.7005  153.5309 H   0  0  0  0  0  0  0  0  0  0  0  0  # atno 10764 bound_to 10752
  153.3115  135.4177  155.1299 H   0  0  0  0  0  0  0  0  0  0  0  0  # atno 10765 bound_to 10752
  140.3062  134.2701  155.7743 H   0  0  0  0  0  0  0  0  0  0  0  0  # atno 11005 bound_to 11000
  145.8519  139.2179  143.1767 LP  0  0  0  0  0  0  0  0  0  0  0  0  # atno 17320 bound_to 7965
  146.0253  140.8309  142.9903 LP  0  0  0  0  0  0  0  0  0  0  0  0  # atno 17321 bound_to 7965
  139.5596  144.7396  151.4194 LP  0  0  0  0  0  0  0  0  0  0  0  0  # atno 17342 bound_to 10162
  140.6901  143.7881  150.7243 LP  0  0  0  0  0  0  0  0  0  0  0  0  # atno 17343 bound_to 10162
  157.0778  130.5890  149.5414 LP  0  0  0  0  0  0  0  0  0  0  0  0  # atno 17370 bound_to 10713
  156.0011  130.5090  150.7665 LP  0  0  0  0  0  0  0  0  0  0  0  0  # atno 17371 bound_to 10713
  141.2118  133.7678  156.9840 LP  0  0  0  0  0  0  0  0  0  0  0  0  # atno 17394 bound_to 11000
  140.1065  134.9503  157.2002 LP  0  0  0  0  0  0  0  0  0  0  0  0  # atno 17395 bound_to 11000

$$$$
