AV-unprocessed.smi:648|AV-procd|sdf|3175|dock2
  -GOLD-   22720 0103D 1   1.00000     0.00000
 Structure written by MMmdl.
 45 46  0  0  0  0  0  0  0  0  1 V2000
  147.0110  132.2648  161.3080 C   0  0  0  0  0  0  0  0  0  0  0  0
  146.9846  133.7592  160.9545 C   0  0  1  0  0  0  0  0  0  0  0  0
  147.1892  134.6274  162.2107 C   0  0  0  0  0  0  0  0  0  0  0  0
  147.1564  136.1479  161.9292 C   0  0  0  0  0  0  0  0  0  0  0  0
  145.7029  136.6350  161.7256 C   0  0  0  0  0  0  0  0  0  0  0  0
  147.6892  136.8849  163.1780 C   0  0  0  0  0  0  0  0  0  0  0  0
  148.0940  136.4996  160.7326 C   0  0  0  0  0  0  0  0  0  0  0  0
  148.0460  135.5888  159.4643 C   0  0  1  0  0  0  0  0  0  0  0  0
  146.7989  135.9175  158.5982 C   0  0  0  0  0  0  0  0  0  0  0  0
  146.7335  135.1204  157.4304 O   0  0  0  0  0  0  0  0  0  0  0  0
  149.2056  135.9005  158.5969 N   0  0  0  0  0  0  0  0  0  0  0  0
  149.3714  137.2558  158.0578 C   0  0  0  0  0  0  0  0  0  0  0  0
  150.7413  137.3997  157.3818 C   0  0  0  0  0  0  0  0  0  0  0  0
  150.6476  138.1248  156.1302 N   0  0  0  0  0  0  0  0  0  0  0  0
  151.1287  139.3193  155.7817 C   0  0  0  0  0  0  0  0  0  0  0  0
  150.8464  139.6669  154.5337 N   0  0  0  0  0  0  0  0  0  0  0  0
  150.1409  138.5631  154.1441 C   0  0  0  0  0  0  0  0  0  0  0  0
  149.9940  137.6084  155.0630 N   0  0  0  0  0  0  0  0  0  0  0  0
  148.0602  134.0980  159.9070 C   0  0  0  0  0  0  0  0  0  0  0  0
  147.9710  131.9743  161.7361 H   0  0  0  0  0  0  0  0  0  0  0  0
  146.8414  131.6492  160.4242 H   0  0  0  0  0  0  0  0  0  0  0  0
  146.2350  132.0188  162.0334 H   0  0  0  0  0  0  0  0  0  0  0  0
  146.0013  133.9628  160.5330 H   0  0  0  0  0  0  0  0  0  0  0  0
  146.4389  134.3758  162.9617 H   0  0  0  0  0  0  0  0  0  0  0  0
  148.1509  134.3648  162.6544 H   0  0  0  0  0  0  0  0  0  0  0  0
  145.6727  137.6493  161.3263 H   0  0  0  0  0  0  0  0  0  0  0  0
  145.1592  136.6464  162.6710 H   0  0  0  0  0  0  0  0  0  0  0  0
  145.1198  135.9960  161.0688 H   0  0  0  0  0  0  0  0  0  0  0  0
  147.6766  137.9661  163.0355 H   0  0  0  0  0  0  0  0  0  0  0  0
  148.7157  136.5989  163.4110 H   0  0  0  0  0  0  0  0  0  0  0  0
  147.0883  136.6637  164.0608 H   0  0  0  0  0  0  0  0  0  0  0  0
  147.9488  137.5413  160.4432 H   0  0  0  0  0  0  0  0  0  0  0  0
  149.1052  136.4659  161.1325 H   0  0  0  0  0  0  0  0  0  0  0  0
  145.8683  135.7505  159.1265 H   0  0  0  0  0  0  0  0  0  0  0  0
  146.8006  136.9676  158.3029 H   0  0  0  0  0  0  0  0  0  0  0  0
  147.2750  135.5180  156.7657 H   0  0  0  0  0  0  0  0  0  0  0  0
  150.0589  135.6138  159.0667 H   0  0  0  0  0  0  0  0  0  0  0  0
  148.5932  137.4974  157.3363 H   0  0  0  0  0  0  0  0  0  0  0  0
  149.3088  137.9941  158.8565 H   0  0  0  0  0  0  0  0  0  0  0  0
  151.4349  137.9302  158.0359 H   0  0  0  0  0  0  0  0  0  0  0  0
  151.1765  136.4191  157.1836 H   0  0  0  0  0  0  0  0  0  0  0  0
  151.6955  139.9469  156.4539 H   0  0  0  0  0  0  0  0  0  0  0  0
  149.7240  138.4600  153.1531 H   0  0  0  0  0  0  0  0  0  0  0  0
  149.0197  133.8475  160.3580 H   0  0  0  0  0  0  0  0  0  0  0  0
  147.9615  133.4408  159.0424 H   0  0  0  0  0  0  0  0  0  0  0  0
  1  2  1  0  0  0  0
  1 20  1  0  0  0  0
  1 21  1  0  0  0  0
  1 22  1  0  0  0  0
  2 19  1  0  0  0  0
  2  3  1  0  0  0  0
  2 23  1  0  0  0  0
  3  4  1  0  0  0  0
  3 24  1  0  0  0  0
  3 25  1  0  0  0  0
  4  5  1  0  0  0  0
  4  6  1  0  0  0  0
  4  7  1  0  0  0  0
  5 26  1  0  0  0  0
  5 27  1  0  0  0  0
  5 28  1  0  0  0  0
  6 29  1  0  0  0  0
  6 30  1  0  0  0  0
  6 31  1  0  0  0  0
  7  8  1  0  0  0  0
  7 32  1  0  0  0  0
  7 33  1  0  0  0  0
  8  9  1  0  0  0  0
  8 11  1  0  0  0  0
  8 19  1  0  0  0  0
  9 10  1  0  0  0  0
  9 34  1  0  0  0  0
  9 35  1  0  0  0  0
 10 36  1  0  0  0  0
 11 12  1  0  0  0  0
 11 37  1  0  0  0  0
 12 13  1  0  0  0  0
 12 38  1  0  0  0  0
 12 39  1  0  0  0  0
 13 14  1  0  0  0  0
 13 40  1  0  0  0  0
 13 41  1  0  0  0  0
 14 18  1  0  0  0  0
 14 15  1  0  0  0  0
 15 16  2  0  0  0  0
 15 42  1  0  0  0  0
 16 17  1  0  0  0  0
 17 18  2  0  0  0  0
 17 43  1  0  0  0  0
 19 44  1  0  0  0  0
 19 45  1  0  0  0  0
M  END
> <s_m_source_file>
AV-unprocessed.smi

> <i_m_source_file_index>
648

> <i_lp_mmshare_version>
43012

> <i_f3d_flags>
0

> <s_epik_input>
W0NIM11DMShbQ0gzXSlbQ0gyXVtDQEBIXShbQ0gzXSlbQ0gyXVtDQF0oW0NIMl0xKShbQ0gyXVtPSF0pW05IXVtDSDJdW0NIMl1uMltjSF1uW2NIXW4y

> <s_epik_cmdline>
J2VwaWtfcHl0aG9uJywgJy1waCcsICc3LjAnLCAnLXRuJywgJzgnLCAnLW1hJywgJzIwMCcsICctbWV0YWxfYmluZGluZycsICctaW1hZScsICc8aW5maWxlLm1hZT4nLCAnLW9tYWUnLCAnPG91dGZpbGUubWFlPic=

> <r_lp_tautomer_probability>
1

> <r_epik_Ionization_Penalty>
2.45849

> <r_epik_Ionization_Penalty_Charging>
0

> <r_epik_Ionization_Penalty_Neutral>
2.45849

> <r_epik_State_Penalty>
2.62037

> <r_epik_Charging_Adjusted_Penalty>
2.62037

> <i_epik_Tot_Q>
0

> <i_epik_Tot_abs_Q>
0

> <r_epik_Metal_State_Penalty>
2.62024

> <b_epik_Metal_Only>
0

> <s_lp_Force_Field>
OPLS_2005

> <r_lp_Energy>
36.0578

> <b_lp_Chiralities_Consistent>
1

> <s_lp_Variant>
AV-unprocessed.smi:648-6

> <Gold.Version>
5.8.1

> <Gold.Id.Protein>
6NUR|6NUR_protein|mol2

> <Gold.PLP.Fitness>
37.3860

> <Gold.PLP.PLP>
-29.2547

> <Gold.PLP.part.hbond>
-1.5069

> <Gold.PLP.part.metal>
0.0000

> <Gold.PLP.part.buried>
-3.0596

> <Gold.PLP.part.nonpolar>
-24.8537

> <Gold.PLP.part.repulsive>
0.2644

> <Gold.PLP.ligand.clash>
0.0000

> <Gold.PLP.ligand.torsion>
0.3688

> <Gold.PLP.Chemscore.Hbond>
1.0000

> <Gold.PLP.Chemscore.CHOScore>
1.9332

> <Gold.PLP.Chemscore.Metal>
0.0000

> <Gold.Chemscore.Hbonds>
donor molecule, donor type, donor heavy atom, donor atom, acceptor molecule, acceptor atom, score
      P1  H  7989  7998       L1    16  1.00
      L1  C    17    43       P1  7948  0.71
      L1  C    17    43       P1  7957  1.00

> <Gold.PLP.Chemscore.Internal.Correction>
0.0694

> <Gold.Rescore>
     Score         DG    S(hbond)    S(metal)    S(lipo)     H(rot)  DE(clash)    DE(int)     intcor
      9.42      -9.86       0.99        0.00      77.52       3.12       0.11       0.33       ----

> <Gold.Chemscore.Fitness>
9.4214

> <Gold.Chemscore.DG>
-9.8617

> <Gold.Chemscore.ZeroCoef>
-5.4800

> <Gold.Chemscore.Hbond>
0.9866

> <Gold.Chemscore.Metal>
0.0000

> <Gold.Chemscore.Lipo>
77.5160

> <Gold.Chemscore.Internal_Hbond>
0.0000

> <Gold.Chemscore.DEClash>
0.1073

> <Gold.Chemscore.DEInternal>
0.3330

> <Gold.Chemscore.Rot>
3.1183

> <Gold.Chemscore.Internal.Correction>
   9.000000E+99

> <Gold.Chemscore.Hbonds>
donor molecule, donor type, donor heavy atom, donor atom, acceptor molecule, acceptor atom, score
      P1  H  7989  7998       L1    16  1.00

> <Gold.Chemscore.Hbond.Weighted>
-3.2952

> <Gold.Chemscore.Metal.Weighted>
-0.0000

> <Gold.Chemscore.Lipo.Weighted>
-9.0694

> <Gold.Chemscore.Internal_Hbond.Weighted>
0.0000

> <Gold.Chemscore.DEClash.Weighted>
0.1073

> <Gold.Chemscore.DEInternal.Weighted>
0.3330

> <Gold.Chemscore.Rot.Weighted>
7.9829

> <Gold.Chemscore.Internal.Correction.Weighted>
   9.000000E+99

> <Gold.Protein.RotatedTorsions>
[ 6907 6896 6895 6894 ] final  -53.41 input  -60.11 | X-H torsion
[ 7974 7965 7964 7962 ] final -176.02 input  175.53 | X-H torsion
[ 8008 7997 7996 7995 ] final -171.43 input   59.86 | X-H torsion
[ 10167 10162 10161 10158 ] final  113.32 input  -65.29 | X-H torsion
[ 10718 10713 10712 10709 ] final   25.57 input   66.30 | X-H torsion
[ 10763 10752 10751 10750 ] final   34.79 input  -60.55 | X-H torsion
[ 11005 11000 10999 10996 ] final  -24.51 input  -57.11 | X-H torsion

> <Gold.Protein.ActiveResidues>
 VAL166  LYS551  ARG553  GLY616  TRP617  ASP618  TYR619  PRO620  LYS621  CYS622 
 ASP623  PHE694  ASN695  SER759  ASP760  ASP761  ALA762  ILE779  LEU786  VAL792 
 PHE793  MET794  SER795  GLU796  ALA797  LYS798  CYS799  TRP800  GLU811  SER814 

> <Gold.Protein.RotatedAtoms>
  150.8429  134.7728  159.6946 H   0  0  0  0  0  0  0  0  0  0  0  0  # atno 6907 bound_to 6896
  152.4512  134.5385  159.9842 H   0  0  0  0  0  0  0  0  0  0  0  0  # atno 6908 bound_to 6896
  151.5521  133.3378  159.2991 H   0  0  0  0  0  0  0  0  0  0  0  0  # atno 6909 bound_to 6896
  144.7127  140.1233  143.6403 H   0  0  0  0  0  0  0  0  0  0  0  0  # atno 7974 bound_to 7965
  155.9315  140.1092  157.1129 H   0  0  0  0  0  0  0  0  0  0  0  0  # atno 8008 bound_to 7997
  154.4071  140.1236  156.4874 H   0  0  0  0  0  0  0  0  0  0  0  0  # atno 8009 bound_to 7997
  155.7074  140.3471  155.4961 H   0  0  0  0  0  0  0  0  0  0  0  0  # atno 8010 bound_to 7997
  139.6470  144.7127  151.2123 H   0  0  0  0  0  0  0  0  0  0  0  0  # atno 10167 bound_to 10162
  157.1951  130.6864  149.6165 H   0  0  0  0  0  0  0  0  0  0  0  0  # atno 10718 bound_to 10713
  153.0148  135.6351  154.1724 H   0  0  0  0  0  0  0  0  0  0  0  0  # atno 10763 bound_to 10752
  154.1464  135.2831  155.3149 H   0  0  0  0  0  0  0  0  0  0  0  0  # atno 10764 bound_to 10752
  154.6086  135.5564  153.7510 H   0  0  0  0  0  0  0  0  0  0  0  0  # atno 10765 bound_to 10752
  140.8852  133.7626  156.0351 H   0  0  0  0  0  0  0  0  0  0  0  0  # atno 11005 bound_to 11000
  145.9351  139.2632  143.1302 LP  0  0  0  0  0  0  0  0  0  0  0  0  # atno 17320 bound_to 7965
  145.9482  140.8929  143.0273 LP  0  0  0  0  0  0  0  0  0  0  0  0  # atno 17321 bound_to 7965
  140.7519  143.6215  150.8509 LP  0  0  0  0  0  0  0  0  0  0  0  0  # atno 17342 bound_to 10162
  139.9858  143.5900  152.2927 LP  0  0  0  0  0  0  0  0  0  0  0  0  # atno 17343 bound_to 10162
  155.9707  130.4601  150.6062 LP  0  0  0  0  0  0  0  0  0  0  0  0  # atno 17370 bound_to 10713
  157.3822  131.0782  151.1467 LP  0  0  0  0  0  0  0  0  0  0  0  0  # atno 17371 bound_to 10713
  140.8414  134.3062  157.5312 LP  0  0  0  0  0  0  0  0  0  0  0  0  # atno 17394 bound_to 11000
  139.8723  134.9418  156.3807 LP  0  0  0  0  0  0  0  0  0  0  0  0  # atno 17395 bound_to 11000

$$$$
