AV-unprocessed.smi:3031|AV-procd|sdf|11552|dock5
  -GOLD-   2272016513D 1   1.00000     0.00000
 Structure written by MMmdl.
 48 49  0  0  0  0  0  0  0  0  3 V2000
  151.2073  141.0526  158.1837 C   0  0  0  0  0  0  0  0  0  0  0  0
  150.6249  140.9706  156.8021 C   0  0  0  0  0  0  0  0  0  0  0  0
  151.0130  140.1021  155.7436 C   0  0  0  0  0  0  0  0  0  0  0  0
  150.2961  140.2789  154.6462 N   0  0  0  0  0  0  0  0  0  0  0  0
  149.4347  141.2719  154.9577 N   0  0  0  0  0  0  0  0  0  0  0  0
  148.4580  141.7287  153.9812 C   0  0  0  0  0  0  0  0  0  0  0  0
  146.9804  141.5346  154.4087 C   0  0  1  0  0  0  0  0  0  0  0  0
  146.1614  142.7884  154.0721 C   0  0  0  0  0  0  0  0  0  0  0  0
  146.3380  140.3623  153.7652 N   0  3  0  0  0  0  0  0  0  0  0  0
  147.2256  139.4721  152.9851 C   0  0  0  0  0  0  0  0  0  0  0  0
  146.4282  138.4295  152.1810 C   0  0  1  0  0  0  0  0  0  0  0  0
  147.2827  137.8738  151.2017 O   0  0  0  0  0  0  0  0  0  0  0  0
  145.9194  137.2697  153.0638 C   0  0  0  0  0  0  0  0  0  0  0  0
  146.1028  135.9341  152.4388 N   0  3  0  0  0  0  0  0  0  0  0  0
  146.1067  134.8147  153.4131 C   0  0  0  0  0  0  0  0  0  0  0  0
  146.3316  133.4737  152.6926 C   0  0  0  0  0  0  0  0  0  0  0  0
  145.3344  133.2927  151.6952 O   0  0  0  0  0  0  0  0  0  0  0  0
  145.3829  134.3108  150.7040 C   0  0  0  0  0  0  0  0  0  0  0  0
  145.1210  135.6777  151.3582 C   0  0  0  0  0  0  0  0  0  0  0  0
  149.5993  141.6930  156.2609 C   0  0  0  0  0  0  0  0  0  0  0  0
  151.3609  140.0627  158.6142 H   0  0  0  0  0  0  0  0  0  0  0  0
  150.5582  141.6009  158.8669 H   0  0  0  0  0  0  0  0  0  0  0  0
  152.1736  141.5572  158.1832 H   0  0  0  0  0  0  0  0  0  0  0  0
  151.7890  139.3511  155.7414 H   0  0  0  0  0  0  0  0  0  0  0  0
  148.6559  142.7882  153.8125 H   0  0  0  0  0  0  0  0  0  0  0  0
  148.6471  141.2280  153.0305 H   0  0  0  0  0  0  0  0  0  0  0  0
  146.9204  141.4064  155.4902 H   0  0  0  0  0  0  0  0  0  0  0  0
  146.5663  143.6692  154.5716 H   0  0  0  0  0  0  0  0  0  0  0  0
  145.1249  142.6804  154.3927 H   0  0  0  0  0  0  0  0  0  0  0  0
  146.1596  142.9868  152.9995 H   0  0  0  0  0  0  0  0  0  0  0  0
  145.9391  139.8054  154.5074 H   0  0  0  0  0  0  0  0  0  0  0  0
  147.8407  140.0640  152.3083 H   0  0  0  0  0  0  0  0  0  0  0  0
  147.9002  138.9612  153.6728 H   0  0  0  0  0  0  0  0  0  0  0  0
  145.5978  138.9100  151.6634 H   0  0  0  0  0  0  0  0  0  0  0  0
  147.6366  137.0604  151.5298 H   0  0  0  0  0  0  0  0  0  0  0  0
  146.4130  137.2807  154.0373 H   0  0  0  0  0  0  0  0  0  0  0  0
  144.8579  137.4299  153.2606 H   0  0  0  0  0  0  0  0  0  0  0  0
  146.8896  134.9584  154.1571 H   0  0  0  0  0  0  0  0  0  0  0  0
  145.1564  134.7917  153.9490 H   0  0  0  0  0  0  0  0  0  0  0  0
  147.3248  133.4337  152.2424 H   0  0  0  0  0  0  0  0  0  0  0  0
  146.2716  132.6499  153.4044 H   0  0  0  0  0  0  0  0  0  0  0  0
  146.3499  134.2990  150.1987 H   0  0  0  0  0  0  0  0  0  0  0  0
  144.6257  134.1050  149.9474 H   0  0  0  0  0  0  0  0  0  0  0  0
  144.1094  135.7099  151.7663 H   0  0  0  0  0  0  0  0  0  0  0  0
  145.1880  136.4616  150.6027 H   0  0  0  0  0  0  0  0  0  0  0  0
  148.9838  142.4702  156.6905 H   0  0  0  0  0  0  0  0  0  0  0  0
  145.5839  140.6776  153.1711 H   0  0  0  0  0  0  0  0  0  0  0  0
  147.0091  135.9417  151.9931 H   0  0  0  0  0  0  0  0  0  0  0  0
  1  2  1  0  0  0  0
  1 21  1  0  0  0  0
  1 22  1  0  0  0  0
  1 23  1  0  0  0  0
  2 20  2  0  0  0  0
  2  3  1  0  0  0  0
  3  4  2  0  0  0  0
  3 24  1  0  0  0  0
  4  5  1  0  0  0  0
  5  6  1  0  0  0  0
  5 20  1  0  0  0  0
  6  7  1  0  0  0  0
  6 25  1  0  0  0  0
  6 26  1  0  0  0  0
  7  8  1  0  0  0  0
  7  9  1  0  0  0  0
  7 27  1  0  0  0  0
  8 28  1  0  0  0  0
  8 29  1  0  0  0  0
  8 30  1  0  0  0  0
  9 10  1  0  0  0  0
  9 31  1  0  0  0  0
  9 47  1  0  0  0  0
 10 11  1  0  0  0  0
 10 32  1  0  0  0  0
 10 33  1  0  0  0  0
 11 12  1  0  0  0  0
 11 13  1  0  0  0  0
 11 34  1  0  0  0  0
 12 35  1  0  0  0  0
 13 14  1  0  0  0  0
 13 36  1  0  0  0  0
 13 37  1  0  0  0  0
 14 19  1  0  0  0  0
 14 15  1  0  0  0  0
 14 48  1  0  0  0  0
 15 16  1  0  0  0  0
 15 38  1  0  0  0  0
 15 39  1  0  0  0  0
 16 17  1  0  0  0  0
 16 40  1  0  0  0  0
 16 41  1  0  0  0  0
 17 18  1  0  0  0  0
 18 19  1  0  0  0  0
 18 42  1  0  0  0  0
 18 43  1  0  0  0  0
 19 44  1  0  0  0  0
 19 45  1  0  0  0  0
 20 46  1  0  0  0  0
M  CHG  1   9   1
M  CHG  1  14   1
M  END
> <s_m_source_file>
AV-unprocessed.smi

> <i_m_source_file_index>
3031

> <i_lp_mmshare_version>
43012

> <i_f3d_flags>
0

> <s_epik_input>
W0NIM11jMVtjSF1ubihbY0hdMSlbQ0gyXVtDQEhdKFtDSDNdKVtOSF1bQ0gyXVtDQEhdKFtPSF0pW0NIMl1OMltDSDJdW0NIMl1PW0NIMl1bQ0gyXTI=

> <s_epik_cmdline>
J2VwaWtfcHl0aG9uJywgJy1waCcsICc3LjAnLCAnLXRuJywgJzgnLCAnLW1hJywgJzIwMCcsICctbWV0YWxfYmluZGluZycsICctaW1hZScsICc8aW5maWxlLm1hZT4nLCAnLW9tYWUnLCAnPG91dGZpbGUubWFlPic=

> <r_lp_tautomer_probability>
1

> <r_epik_Ionization_Penalty>
1.76542

> <r_epik_Ionization_Penalty_Charging>
1.76348

> <r_epik_Ionization_Penalty_Neutral>
0.00194017

> <r_epik_State_Penalty>
1.49348

> <r_epik_Charging_Adjusted_Penalty>
3.25696

> <i_epik_Tot_Q>
2

> <i_epik_Tot_abs_Q>
2

> <r_epik_Metal_State_Penalty>
1.49349

> <b_epik_Metal_Only>
0

> <s_lp_Force_Field>
OPLS_2005

> <r_lp_Energy>
29.0022

> <b_lp_Chiralities_Consistent>
1

> <s_lp_Variant>
AV-unprocessed.smi:3031-12

> <Gold.Version>
5.8.1

> <Gold.Id.Protein>
6NUR|6NUR_protein|mol2

> <Gold.PLP.Fitness>
56.9674

> <Gold.PLP.PLP>
-38.9724

> <Gold.PLP.part.hbond>
-5.2410

> <Gold.PLP.part.metal>
0.0000

> <Gold.PLP.part.buried>
-2.8985

> <Gold.PLP.part.nonpolar>
-33.3129

> <Gold.PLP.part.repulsive>
0.1965

> <Gold.PLP.ligand.clash>
0.0000

> <Gold.PLP.ligand.torsion>
2.2445

> <Gold.PLP.Chemscore.Hbond>
6.6120

> <Gold.PLP.Chemscore.CHOScore>
0.8224

> <Gold.PLP.Chemscore.Metal>
0.0000

> <Gold.Chemscore.Hbonds>
donor molecule, donor type, donor heavy atom, donor atom, acceptor molecule, acceptor atom, score
      L1  H     9    47       P1 10175  2.00
      L1  H    12    35       P1  7948  0.90
      L1  H    14    48       P1  7948  2.00
      P1  H  7954  7966       L1    12  0.70
      P1  H  7989  7998       L1     4  1.00
      L1  C    20    46       P1  8028  0.82

> <Gold.PLP.Chemscore.Internal.Correction>
0.1807

> <Gold.Rescore>
     Score         DG    S(hbond)    S(metal)    S(lipo)     H(rot)  DE(clash)    DE(int)     intcor
     16.68     -19.16       3.52        0.00      76.33       2.74       0.03       2.45       ----

> <Gold.Chemscore.Fitness>
16.6804

> <Gold.Chemscore.DG>
-19.1600

> <Gold.Chemscore.ZeroCoef>
-5.4800

> <Gold.Chemscore.Hbond>
3.5247

> <Gold.Chemscore.Metal>
0.0000

> <Gold.Chemscore.Lipo>
76.3316

> <Gold.Chemscore.Internal_Hbond>
0.0000

> <Gold.Chemscore.DEClash>
0.0272

> <Gold.Chemscore.DEInternal>
2.4524

> <Gold.Chemscore.Rot>
2.7434

> <Gold.Chemscore.Internal.Correction>
   9.000000E+99

> <Gold.Chemscore.Hbonds>
donor molecule, donor type, donor heavy atom, donor atom, acceptor molecule, acceptor atom, score
      L1  H     9    47       P1 10175  0.70
      L1  H    12    35       P1  7948  0.84
      L1  H    14    48       P1  7948  0.98
      P1  H  7954  7966       L1    12  0.07
      P1  H  7989  7998       L1     4  0.20

> <Gold.Chemscore.Hbond.Weighted>
-11.7724

> <Gold.Chemscore.Metal.Weighted>
-0.0000

> <Gold.Chemscore.Lipo.Weighted>
-8.9308

> <Gold.Chemscore.Internal_Hbond.Weighted>
0.0000

> <Gold.Chemscore.DEClash.Weighted>
0.0272

> <Gold.Chemscore.DEInternal.Weighted>
2.4524

> <Gold.Chemscore.Rot.Weighted>
7.0231

> <Gold.Chemscore.Internal.Correction.Weighted>
   9.000000E+99

> <Gold.Protein.RotatedTorsions>
[ 6907 6896 6895 6894 ] final   24.93 input  -60.11 | X-H torsion
[ 7974 7965 7964 7962 ] final  178.13 input  175.53 | X-H torsion
[ 8008 7997 7996 7995 ] final   62.01 input   59.86 | X-H torsion
[ 10167 10162 10161 10158 ] final  -62.24 input  -65.29 | X-H torsion
[ 10718 10713 10712 10709 ] final -118.18 input   66.30 | X-H torsion
[ 10763 10752 10751 10750 ] final  174.88 input  -60.55 | X-H torsion
[ 11005 11000 10999 10996 ] final  -42.35 input  -57.11 | X-H torsion

> <Gold.Protein.ActiveResidues>
 VAL166  LYS551  ARG553  GLY616  TRP617  ASP618  TYR619  PRO620  LYS621  CYS622 
 ASP623  PHE694  ASN695  SER759  ASP760  ASP761  ALA762  ILE779  LEU786  VAL792 
 PHE793  MET794  SER795  GLU796  ALA797  LYS798  CYS799  TRP800  GLU811  SER814 

> <Gold.Protein.RotatedAtoms>
  151.9649  135.0105  160.0549 H   0  0  0  0  0  0  0  0  0  0  0  0  # atno 6907 bound_to 6896
  152.1835  133.4719  159.4979 H   0  0  0  0  0  0  0  0  0  0  0  0  # atno 6908 bound_to 6896
  150.6921  134.1721  159.4259 H   0  0  0  0  0  0  0  0  0  0  0  0  # atno 6909 bound_to 6896
  144.7160  140.0350  143.6438 H   0  0  0  0  0  0  0  0  0  0  0  0  # atno 7974 bound_to 7965
  155.6076  140.3494  155.4612 H   0  0  0  0  0  0  0  0  0  0  0  0  # atno 8008 bound_to 7997
  156.0180  140.1247  157.0411 H   0  0  0  0  0  0  0  0  0  0  0  0  # atno 8009 bound_to 7997
  154.4304  140.1068  156.5909 H   0  0  0  0  0  0  0  0  0  0  0  0  # atno 8010 bound_to 7997
  140.5952  143.2349  151.6052 H   0  0  0  0  0  0  0  0  0  0  0  0  # atno 10167 bound_to 10162
  156.1087  130.6231  150.9258 H   0  0  0  0  0  0  0  0  0  0  0  0  # atno 10718 bound_to 10713
  154.4599  135.2767  155.1720 H   0  0  0  0  0  0  0  0  0  0  0  0  # atno 10763 bound_to 10752
  154.3512  135.6149  153.5647 H   0  0  0  0  0  0  0  0  0  0  0  0  # atno 10764 bound_to 10752
  152.9854  135.5812  154.4960 H   0  0  0  0  0  0  0  0  0  0  0  0  # atno 10765 bound_to 10752
  141.0310  133.6820  156.2583 H   0  0  0  0  0  0  0  0  0  0  0  0  # atno 11005 bound_to 11000
  146.0070  139.3138  143.0893 LP  0  0  0  0  0  0  0  0  0  0  0  0  # atno 17320 bound_to 7965
  145.8726  140.9411  143.0643 LP  0  0  0  0  0  0  0  0  0  0  0  0  # atno 17321 bound_to 7965
  139.5253  144.3077  152.1019 LP  0  0  0  0  0  0  0  0  0  0  0  0  # atno 17342 bound_to 10162
  140.2248  144.4429  150.6325 LP  0  0  0  0  0  0  0  0  0  0  0  0  # atno 17343 bound_to 10162
  157.6266  131.0925  150.8521 LP  0  0  0  0  0  0  0  0  0  0  0  0  # atno 17370 bound_to 10713
  156.8636  130.5121  149.5302 LP  0  0  0  0  0  0  0  0  0  0  0  0  # atno 17371 bound_to 10713
  140.6407  134.5168  157.5569 LP  0  0  0  0  0  0  0  0  0  0  0  0  # atno 17394 bound_to 11000
  139.9207  134.8154  156.1219 LP  0  0  0  0  0  0  0  0  0  0  0  0  # atno 17395 bound_to 11000

$$$$
