AV-unprocessed.smi:570|AV-procd|sdf|2961|dock3
  -GOLD-   2262023463D 1   1.00000     0.00000
 Structure written by MMmdl.
 40 41  0  0  0  0  0  0  0  0  1 V2000
  143.3702  145.3585  154.4865 C   0  0  0  0  0  0  0  0  0  0  0  0
  144.2535  144.5162  155.2059 O   0  0  0  0  0  0  0  0  0  0  0  0
  145.0653  143.7263  154.3538 C   0  0  0  0  0  0  0  0  0  0  0  0
  146.0308  142.9034  155.2137 C   0  0  0  0  0  0  0  0  0  0  0  0
  147.1397  142.2378  154.3830 C   0  0  0  0  0  0  0  0  0  0  0  0
  148.3195  141.9646  155.1940 N   0  0  0  0  0  0  0  0  0  0  0  0
  149.4075  141.2996  154.7739 C   0  0  0  0  0  0  0  0  0  0  0  0
  149.5249  140.8311  153.6410 O   0  0  0  0  0  0  0  0  0  0  0  0
  150.4683  141.0698  155.8115 C   0  0  0  0  0  0  0  0  0  0  0  0
  150.6279  142.0493  156.7309 N   0  0  0  0  0  0  0  0  0  0  0  0
  151.5608  141.8954  157.6783 C   0  0  0  0  0  0  0  0  0  0  0  0
  151.7131  142.9288  158.6118 N   0  0  0  0  0  0  0  0  0  0  0  0
  151.3845  144.3195  158.2882 C   0  0  0  0  0  0  0  0  0  0  0  0
  150.9132  145.0782  159.5407 C   0  0  0  0  0  0  0  0  0  0  0  0
  151.8933  144.9742  160.5656 O   0  0  0  0  0  0  0  0  0  0  0  0
  152.0986  143.6221  160.9551 C   0  0  0  0  0  0  0  0  0  0  0  0
  152.6187  142.8088  159.7578 C   0  0  0  0  0  0  0  0  0  0  0  0
  152.3593  140.8275  157.7959 N   0  0  0  0  0  0  0  0  0  0  0  0
  152.2099  139.8294  156.9007 C   0  0  0  0  0  0  0  0  0  0  0  0
  151.2583  139.8920  155.8645 C   0  0  0  0  0  0  0  0  0  0  0  0
  151.0876  138.5603  154.7719 Cl  0  0  0  0  0  0  0  0  0  0  0  0
  142.7701  145.9420  155.1846 H   0  0  0  0  0  0  0  0  0  0  0  0
  142.6903  144.7760  153.8634 H   0  0  0  0  0  0  0  0  0  0  0  0
  143.9185  146.0549  153.8510 H   0  0  0  0  0  0  0  0  0  0  0  0
  144.4415  143.0630  153.7523 H   0  0  0  0  0  0  0  0  0  0  0  0
  145.6236  144.3672  153.6695 H   0  0  0  0  0  0  0  0  0  0  0  0
  146.4792  143.5490  155.9701 H   0  0  0  0  0  0  0  0  0  0  0  0
  145.4655  142.1423  155.7536 H   0  0  0  0  0  0  0  0  0  0  0  0
  146.7760  141.3162  153.9248 H   0  0  0  0  0  0  0  0  0  0  0  0
  147.4364  142.8947  153.5649 H   0  0  0  0  0  0  0  0  0  0  0  0
  148.3062  142.2936  156.1487 H   0  0  0  0  0  0  0  0  0  0  0  0
  152.2704  144.7992  157.8706 H   0  0  0  0  0  0  0  0  0  0  0  0
  150.6012  144.3906  157.5342 H   0  0  0  0  0  0  0  0  0  0  0  0
  150.7589  146.1310  159.3041 H   0  0  0  0  0  0  0  0  0  0  0  0
  149.9570  144.6887  159.8943 H   0  0  0  0  0  0  0  0  0  0  0  0
  152.8228  143.5943  161.7695 H   0  0  0  0  0  0  0  0  0  0  0  0
  151.1704  143.1967  161.3403 H   0  0  0  0  0  0  0  0  0  0  0  0
  152.7436  141.7748  160.0781 H   0  0  0  0  0  0  0  0  0  0  0  0
  153.6046  143.1684  159.4612 H   0  0  0  0  0  0  0  0  0  0  0  0
  152.8518  138.9688  157.0183 H   0  0  0  0  0  0  0  0  0  0  0  0
  1  2  1  0  0  0  0
  1 22  1  0  0  0  0
  1 23  1  0  0  0  0
  1 24  1  0  0  0  0
  2  3  1  0  0  0  0
  3  4  1  0  0  0  0
  3 25  1  0  0  0  0
  3 26  1  0  0  0  0
  4  5  1  0  0  0  0
  4 27  1  0  0  0  0
  4 28  1  0  0  0  0
  5  6  1  0  0  0  0
  5 29  1  0  0  0  0
  5 30  1  0  0  0  0
  6  7  1  0  0  0  0
  6 31  1  0  0  0  0
  7  8  2  0  0  0  0
  7  9  1  0  0  0  0
  9 20  1  0  0  0  0
  9 10  2  0  0  0  0
 10 11  1  0  0  0  0
 11 12  1  0  0  0  0
 11 18  2  0  0  0  0
 12 17  1  0  0  0  0
 12 13  1  0  0  0  0
 13 14  1  0  0  0  0
 13 32  1  0  0  0  0
 13 33  1  0  0  0  0
 14 15  1  0  0  0  0
 14 34  1  0  0  0  0
 14 35  1  0  0  0  0
 15 16  1  0  0  0  0
 16 17  1  0  0  0  0
 16 36  1  0  0  0  0
 16 37  1  0  0  0  0
 17 38  1  0  0  0  0
 17 39  1  0  0  0  0
 18 19  1  0  0  0  0
 19 20  2  0  0  0  0
 19 40  1  0  0  0  0
 20 21  1  0  0  0  0
M  END
> <s_m_source_file>
AV-unprocessed.smi

> <i_m_source_file_index>
570

> <i_lp_mmshare_version>
43012

> <i_f3d_flags>
0

> <s_epik_input>
W0NIM11PW0NIMl1bQ0gyXVtDSDJdW05IXUMoPU8pYzFuYyhuW2NIXWMxQ2wpTjJbQ0gyXVtDSDJdT1tDSDJdW0NIMl0y

> <s_epik_cmdline>
J2VwaWtfcHl0aG9uJywgJy1waCcsICc3LjAnLCAnLXRuJywgJzgnLCAnLW1hJywgJzIwMCcsICctbWV0YWxfYmluZGluZycsICctaW1hZScsICc8aW5maWxlLm1hZT4nLCAnLW9tYWUnLCAnPG91dGZpbGUubWFlPic=

> <r_lp_tautomer_probability>
1

> <r_epik_Ionization_Penalty>
2.32145e-05

> <r_epik_Ionization_Penalty_Charging>
0

> <r_epik_Ionization_Penalty_Neutral>
2.32145e-05

> <r_epik_State_Penalty>
-0

> <r_epik_Charging_Adjusted_Penalty>
0

> <i_epik_Tot_Q>
0

> <i_epik_Tot_abs_Q>
0

> <r_epik_Metal_State_Penalty>
0.0219249

> <b_epik_Metal_Only>
0

> <s_lp_Force_Field>
OPLS_2005

> <r_lp_Energy>
13.2289

> <b_lp_Chiralities_Consistent>
1

> <s_lp_Variant>
AV-unprocessed.smi:570-1

> <Gold.Version>
5.8.1

> <Gold.Id.Protein>
6NUR|6NUR_protein|mol2

> <Gold.PLP.Fitness>
47.7699

> <Gold.PLP.PLP>
-45.0301

> <Gold.PLP.part.hbond>
-3.3534

> <Gold.PLP.part.metal>
0.0000

> <Gold.PLP.part.buried>
-5.4915

> <Gold.PLP.part.nonpolar>
-39.9431

> <Gold.PLP.part.repulsive>
4.1482

> <Gold.PLP.ligand.clash>
0.0000

> <Gold.PLP.ligand.torsion>
0.8017

> <Gold.PLP.Chemscore.Hbond>
1.3680

> <Gold.PLP.Chemscore.CHOScore>
0.0000

> <Gold.PLP.Chemscore.Metal>
0.0000

> <Gold.Chemscore.Hbonds>
donor molecule, donor type, donor heavy atom, donor atom, acceptor molecule, acceptor atom, score
      P1  H  7989  7998       L1     8  0.32
      P1  H  8011  8017       L1     8  0.89

> <Gold.PLP.Chemscore.Internal.Correction>
0.2393

> <Gold.Rescore>
     Score         DG    S(hbond)    S(metal)    S(lipo)     H(rot)  DE(clash)    DE(int)     intcor
     13.07     -15.75       1.06        0.00      93.11       1.63       1.60       1.08       ----

> <Gold.Chemscore.Fitness>
13.0742

> <Gold.Chemscore.DG>
-15.7518

> <Gold.Chemscore.ZeroCoef>
-5.4800

> <Gold.Chemscore.Hbond>
1.0638

> <Gold.Chemscore.Metal>
0.0000

> <Gold.Chemscore.Lipo>
93.1081

> <Gold.Chemscore.Internal_Hbond>
0.0000

> <Gold.Chemscore.DEClash>
1.5986

> <Gold.Chemscore.DEInternal>
1.0789

> <Gold.Chemscore.Rot>
1.6308

> <Gold.Chemscore.Internal.Correction>
   9.000000E+99

> <Gold.Chemscore.Hbonds>
donor molecule, donor type, donor heavy atom, donor atom, acceptor molecule, acceptor atom, score
      P1  H  7989  7998       L1     8  0.07
      P1  H  8011  8017       L1     8  0.55

> <Gold.Chemscore.Hbond.Weighted>
-3.5531

> <Gold.Chemscore.Metal.Weighted>
-0.0000

> <Gold.Chemscore.Lipo.Weighted>
-10.8937

> <Gold.Chemscore.Internal_Hbond.Weighted>
0.0000

> <Gold.Chemscore.DEClash.Weighted>
1.5986

> <Gold.Chemscore.DEInternal.Weighted>
1.0789

> <Gold.Chemscore.Rot.Weighted>
4.1749

> <Gold.Chemscore.Internal.Correction.Weighted>
   9.000000E+99

> <Gold.Protein.RotatedTorsions>
[ 6907 6896 6895 6894 ] final  -53.17 input  -60.11 | X-H torsion
[ 7974 7965 7964 7962 ] final  -89.37 input  175.53 | X-H torsion
[ 8008 7997 7996 7995 ] final  -22.56 input   59.86 | X-H torsion
[ 10167 10162 10161 10158 ] final   64.70 input  -65.29 | X-H torsion
[ 10718 10713 10712 10709 ] final  -30.46 input   66.30 | X-H torsion
[ 10763 10752 10751 10750 ] final -122.05 input  -60.55 | X-H torsion
[ 11005 11000 10999 10996 ] final  104.94 input  -57.11 | X-H torsion

> <Gold.Protein.ActiveResidues>
 VAL166  LYS551  ARG553  GLY616  TRP617  ASP618  TYR619  PRO620  LYS621  CYS622 
 ASP623  PHE694  ASN695  SER759  ASP760  ASP761  ALA762  ILE779  LEU786  VAL792 
 PHE793  MET794  SER795  GLU796  ALA797  LYS798  CYS799  TRP800  GLU811  SER814 

> <Gold.Protein.RotatedAtoms>
  150.8451  134.7757  159.6963 H   0  0  0  0  0  0  0  0  0  0  0  0  # atno 6907 bound_to 6896
  152.4530  134.5350  159.9832 H   0  0  0  0  0  0  0  0  0  0  0  0  # atno 6908 bound_to 6896
  151.5481  133.3384  159.2984 H   0  0  0  0  0  0  0  0  0  0  0  0  # atno 6909 bound_to 6896
  145.4408  140.9559  143.2076 H   0  0  0  0  0  0  0  0  0  0  0  0  # atno 7974 bound_to 7965
  154.4636  140.2004  156.0177 H   0  0  0  0  0  0  0  0  0  0  0  0  # atno 8008 bound_to 7997
  156.0887  140.3261  155.7758 H   0  0  0  0  0  0  0  0  0  0  0  0  # atno 8009 bound_to 7997
  155.4993  140.0552  157.2932 H   0  0  0  0  0  0  0  0  0  0  0  0  # atno 8010 bound_to 7997
  140.1193  144.4746  150.6930 H   0  0  0  0  0  0  0  0  0  0  0  0  # atno 10167 bound_to 10162
  156.3995  130.4387  149.7333 H   0  0  0  0  0  0  0  0  0  0  0  0  # atno 10718 bound_to 10713
  154.8681  135.4146  154.2718 H   0  0  0  0  0  0  0  0  0  0  0  0  # atno 10763 bound_to 10752
  153.3627  135.7004  153.6705 H   0  0  0  0  0  0  0  0  0  0  0  0  # atno 10764 bound_to 10752
  153.5599  135.3612  155.2767 H   0  0  0  0  0  0  0  0  0  0  0  0  # atno 10765 bound_to 10752
  139.8797  134.9318  156.5439 H   0  0  0  0  0  0  0  0  0  0  0  0  # atno 11005 bound_to 11000
  144.8123  139.5940  143.7024 LP  0  0  0  0  0  0  0  0  0  0  0  0  # atno 17320 bound_to 7965
  146.2557  139.6298  142.9396 LP  0  0  0  0  0  0  0  0  0  0  0  0  # atno 17321 bound_to 7965
  140.6881  143.2361  151.5206 LP  0  0  0  0  0  0  0  0  0  0  0  0  # atno 17342 bound_to 10162
  139.5577  144.2234  152.1639 LP  0  0  0  0  0  0  0  0  0  0  0  0  # atno 17343 bound_to 10162
  156.4354  130.7835  151.2856 LP  0  0  0  0  0  0  0  0  0  0  0  0  # atno 17370 bound_to 10713
  157.7503  131.0141  150.3451 LP  0  0  0  0  0  0  0  0  0  0  0  0  # atno 17371 bound_to 10713
  140.8290  133.8294  155.8966 LP  0  0  0  0  0  0  0  0  0  0  0  0  # atno 17394 bound_to 11000
  140.9346  134.1978  157.4840 LP  0  0  0  0  0  0  0  0  0  0  0  0  # atno 17395 bound_to 11000

$$$$
