AV-unprocessed.smi:2623|AV-procd|sdf|10231|dock2
  -GOLD-   2272014233D 1   1.00000     0.00000
 Structure written by MMmdl.
 41 43  0  0  0  0  0  0  0  0  2 V2000
  149.5376  141.0723  153.5501 O   0  0  0  0  0  0  0  0  0  0  0  0
  149.2419  140.6081  154.8482 C   0  0  0  0  0  0  0  0  0  0  0  0
  150.0995  141.2502  155.8879 C   0  0  0  0  0  0  0  0  0  0  0  0
  150.1083  142.5742  156.2097 N   0  3  0  0  0  0  0  0  0  0  0  0
  151.0463  142.8100  157.2156 C   0  0  0  0  0  0  0  0  0  0  0  0
  151.4110  143.9868  157.8627 C   0  0  0  0  0  0  0  0  0  0  0  0
  152.4110  143.8813  158.8514 C   0  0  0  0  0  0  0  0  0  0  0  0
  153.0062  142.6419  159.1643 C   0  0  0  0  0  0  0  0  0  0  0  0
  152.6282  141.4557  158.5015 C   0  0  0  0  0  0  0  0  0  0  0  0
  151.6398  141.5681  157.5234 C   0  0  0  0  0  0  0  0  0  0  0  0
  151.0243  140.6352  156.6797 N   0  0  0  0  0  0  0  0  0  0  0  0
  151.4243  139.2199  156.7358 C   0  0  0  0  0  0  0  0  0  0  0  0
  152.1692  138.7581  155.4673 C   0  0  2  0  0  0  0  0  0  0  0  0
  152.7599  139.8678  154.8215 O   0  0  0  0  0  0  0  0  0  0  0  0
  151.2436  138.0454  154.4708 C   0  0  0  0  0  0  0  0  0  0  0  0
  151.4011  136.6409  154.6238 O   0  0  0  0  0  0  0  0  0  0  0  0
  150.6118  135.9921  155.5487 C   0  0  0  0  0  0  0  0  0  0  0  0
  150.7327  134.5886  155.6200 C   0  0  0  0  0  0  0  0  0  0  0  0
  149.9654  133.8445  156.5366 C   0  0  0  0  0  0  0  0  0  0  0  0
  149.0640  134.5005  157.3951 C   0  0  0  0  0  0  0  0  0  0  0  0
  148.9321  135.9001  157.3338 C   0  0  0  0  0  0  0  0  0  0  0  0
  149.7001  136.6447  156.4173 C   0  0  0  0  0  0  0  0  0  0  0  0
  149.8452  140.3436  153.0325 H   0  0  0  0  0  0  0  0  0  0  0  0
  148.1933  140.8086  155.0684 H   0  0  0  0  0  0  0  0  0  0  0  0
  149.3745  139.5266  154.8792 H   0  0  0  0  0  0  0  0  0  0  0  0
  150.9559  144.9373  157.6254 H   0  0  0  0  0  0  0  0  0  0  0  0
  152.7276  144.7682  159.3811 H   0  0  0  0  0  0  0  0  0  0  0  0
  153.7685  142.5996  159.9290 H   0  0  0  0  0  0  0  0  0  0  0  0
  153.0888  140.5120  158.7535 H   0  0  0  0  0  0  0  0  0  0  0  0
  152.0679  139.1046  157.6087 H   0  0  0  0  0  0  0  0  0  0  0  0
  150.5473  138.6019  156.9287 H   0  0  0  0  0  0  0  0  0  0  0  0
  152.9760  138.0781  155.7430 H   0  0  0  0  0  0  0  0  0  0  0  0
  152.1225  140.2460  154.2354 H   0  0  0  0  0  0  0  0  0  0  0  0
  150.2070  138.3412  154.6425 H   0  0  0  0  0  0  0  0  0  0  0  0
  151.5138  138.3301  153.4522 H   0  0  0  0  0  0  0  0  0  0  0  0
  151.4219  134.0761  154.9650 H   0  0  0  0  0  0  0  0  0  0  0  0
  150.0686  132.7703  156.5805 H   0  0  0  0  0  0  0  0  0  0  0  0
  148.4749  133.9313  158.0992 H   0  0  0  0  0  0  0  0  0  0  0  0
  148.2399  136.4049  157.9914 H   0  0  0  0  0  0  0  0  0  0  0  0
  149.5699  137.7161  156.3999 H   0  0  0  0  0  0  0  0  0  0  0  0
  149.5167  143.2651  155.7660 H   0  0  0  0  0  0  0  0  0  0  0  0
  1  2  1  0  0  0  0
  1 23  1  0  0  0  0
  2  3  1  0  0  0  0
  2 24  1  0  0  0  0
  2 25  1  0  0  0  0
  3 11  1  0  0  0  0
  3  4  2  0  0  0  0
  4  5  1  0  0  0  0
  4 41  1  0  0  0  0
  5 10  2  0  0  0  0
  5  6  1  0  0  0  0
  6  7  2  0  0  0  0
  6 26  1  0  0  0  0
  7  8  1  0  0  0  0
  7 27  1  0  0  0  0
  8  9  2  0  0  0  0
  8 28  1  0  0  0  0
  9 10  1  0  0  0  0
  9 29  1  0  0  0  0
 10 11  1  0  0  0  0
 11 12  1  0  0  0  0
 12 13  1  0  0  0  0
 12 30  1  0  0  0  0
 12 31  1  0  0  0  0
 13 14  1  0  0  0  0
 13 15  1  0  0  0  0
 13 32  1  0  0  0  0
 14 33  1  0  0  0  0
 15 16  1  0  0  0  0
 15 34  1  0  0  0  0
 15 35  1  0  0  0  0
 16 17  1  0  0  0  0
 17 22  1  0  0  0  0
 17 18  2  0  0  0  0
 18 19  1  0  0  0  0
 18 36  1  0  0  0  0
 19 20  2  0  0  0  0
 19 37  1  0  0  0  0
 20 21  1  0  0  0  0
 20 38  1  0  0  0  0
 21 22  2  0  0  0  0
 21 39  1  0  0  0  0
 22 40  1  0  0  0  0
M  CHG  1   4   1
M  END
> <s_m_source_file>
AV-unprocessed.smi

> <i_m_source_file_index>
2623

> <i_lp_mmshare_version>
43012

> <i_f3d_flags>
0

> <s_epik_input>
W2NIXTFbY0hdW2NIXVtjSF1jKGMxMiluKGMobjIpW0NIMl1bT0hdKVtDSDJdW0NASF0oW09IXSlbQ0gyXU9jM1tjSF1bY0hdW2NIXVtjSF1bY0hdMw==

> <s_epik_cmdline>
J2VwaWtfcHl0aG9uJywgJy1waCcsICc3LjAnLCAnLXRuJywgJzgnLCAnLW1hJywgJzIwMCcsICctbWV0YWxfYmluZGluZycsICctaW1hZScsICc8aW5maWxlLm1hZT4nLCAnLW9tYWUnLCAnPG91dGZpbGUubWFlPic=

> <r_lp_tautomer_probability>
1

> <r_epik_Ionization_Penalty>
1.40416

> <r_epik_Ionization_Penalty_Charging>
1.4033

> <r_epik_Ionization_Penalty_Neutral>
0.000858184

> <r_epik_State_Penalty>
1.48564

> <r_epik_Charging_Adjusted_Penalty>
2.88894

> <i_epik_Tot_Q>
1

> <i_epik_Tot_abs_Q>
1

> <r_epik_Metal_State_Penalty>
5.52809

> <b_epik_Metal_Only>
0

> <s_lp_Force_Field>
OPLS_2005

> <r_lp_Energy>
17.9205

> <b_lp_Chiralities_Consistent>
1

> <s_lp_Variant>
AV-unprocessed.smi:2623-3

> <Gold.Version>
5.8.1

> <Gold.Id.Protein>
6NUR|6NUR_protein|mol2

> <Gold.PLP.Fitness>
58.6926

> <Gold.PLP.PLP>
-44.5640

> <Gold.PLP.part.hbond>
-6.9727

> <Gold.PLP.part.metal>
0.0000

> <Gold.PLP.part.buried>
-4.6150

> <Gold.PLP.part.nonpolar>
-33.2914

> <Gold.PLP.part.repulsive>
0.2761

> <Gold.PLP.ligand.clash>
0.0000

> <Gold.PLP.ligand.torsion>
1.3481

> <Gold.PLP.Chemscore.Hbond>
5.5440

> <Gold.PLP.Chemscore.CHOScore>
0.0000

> <Gold.PLP.Chemscore.Metal>
0.0000

> <Gold.Chemscore.Hbonds>
donor molecule, donor type, donor heavy atom, donor atom, acceptor molecule, acceptor atom, score
      L1  H     1    23       P1  7957  0.56
      L1  H     4    41       P1  8028  2.00
      P1  H  7997  8009       L1    14  1.00
      P1  H  8011  8017       L1     1  0.95
      P1  H 10752 10765       L1    16  1.00

> <Gold.PLP.Chemscore.Internal.Correction>
0.1928

> <Gold.Rescore>
     Score         DG    S(hbond)    S(metal)    S(lipo)     H(rot)  DE(clash)    DE(int)     intcor
     21.86     -23.18       3.89        0.00     108.85       3.13       0.03       1.30       ----

> <Gold.Chemscore.Fitness>
21.8576

> <Gold.Chemscore.DG>
-23.1818

> <Gold.Chemscore.ZeroCoef>
-5.4800

> <Gold.Chemscore.Hbond>
3.8865

> <Gold.Chemscore.Metal>
0.0000

> <Gold.Chemscore.Lipo>
108.8472

> <Gold.Chemscore.Internal_Hbond>
0.0000

> <Gold.Chemscore.DEClash>
0.0282

> <Gold.Chemscore.DEInternal>
1.2960

> <Gold.Chemscore.Rot>
3.1305

> <Gold.Chemscore.Internal.Correction>
   9.000000E+99

> <Gold.Chemscore.Hbonds>
donor molecule, donor type, donor heavy atom, donor atom, acceptor molecule, acceptor atom, score
      L1  H     1    23       P1  7957  0.56
      L1  H     4    41       P1  8028  0.95
      P1  H  7997  8009       L1    14  0.52
      P1  H  8011  8017       L1     1  0.21
      P1  H 10752 10765       L1    16  0.55

> <Gold.Chemscore.Hbond.Weighted>
-12.9808

> <Gold.Chemscore.Metal.Weighted>
-0.0000

> <Gold.Chemscore.Lipo.Weighted>
-12.7351

> <Gold.Chemscore.Internal_Hbond.Weighted>
0.0000

> <Gold.Chemscore.DEClash.Weighted>
0.0282

> <Gold.Chemscore.DEInternal.Weighted>
1.2960

> <Gold.Chemscore.Rot.Weighted>
8.0141

> <Gold.Chemscore.Internal.Correction.Weighted>
   9.000000E+99

> <Gold.Protein.RotatedTorsions>
[ 6907 6896 6895 6894 ] final  154.57 input  -60.11 | X-H torsion
[ 7974 7965 7964 7962 ] final  -21.16 input  175.53 | X-H torsion
[ 8008 7997 7996 7995 ] final -130.36 input   59.86 | X-H torsion
[ 10167 10162 10161 10158 ] final  153.95 input  -65.29 | X-H torsion
[ 10718 10713 10712 10709 ] final   31.45 input   66.30 | X-H torsion
[ 10763 10752 10751 10750 ] final  171.79 input  -60.55 | X-H torsion
[ 11005 11000 10999 10996 ] final  -97.41 input  -57.11 | X-H torsion

> <Gold.Protein.ActiveResidues>
 VAL166  LYS551  ARG553  GLY616  TRP617  ASP618  TYR619  PRO620  LYS621  CYS622 
 ASP623  PHE694  ASN695  SER759  ASP760  ASP761  ALA762  ILE779  LEU786  VAL792 
 PHE793  MET794  SER795  GLU796  ALA797  LYS798  CYS799  TRP800  GLU811  SER814 

> <Gold.Protein.RotatedAtoms>
  152.0566  133.4043  159.4399 H   0  0  0  0  0  0  0  0  0  0  0  0  # atno 6907 bound_to 6896
  150.6868  134.3248  159.4811 H   0  0  0  0  0  0  0  0  0  0  0  0  # atno 6908 bound_to 6896
  152.1064  134.9305  160.0618 H   0  0  0  0  0  0  0  0  0  0  0  0  # atno 6909 bound_to 6896
  146.1748  140.4303  142.8518 H   0  0  0  0  0  0  0  0  0  0  0  0  # atno 7974 bound_to 7965
  155.2944  140.0450  157.3025 H   0  0  0  0  0  0  0  0  0  0  0  0  # atno 8008 bound_to 7997
  154.5523  140.2321  155.8433 H   0  0  0  0  0  0  0  0  0  0  0  0  # atno 8009 bound_to 7997
  156.1977  140.3034  155.9468 H   0  0  0  0  0  0  0  0  0  0  0  0  # atno 8010 bound_to 7997
  139.4825  144.5229  151.7847 H   0  0  0  0  0  0  0  0  0  0  0  0  # atno 10167 bound_to 10162
  157.2726  130.7215  149.6512 H   0  0  0  0  0  0  0  0  0  0  0  0  # atno 10718 bound_to 10713
  154.4169  135.2757  155.2001 H   0  0  0  0  0  0  0  0  0  0  0  0  # atno 10763 bound_to 10752
  154.3963  135.6055  153.5875 H   0  0  0  0  0  0  0  0  0  0  0  0  # atno 10764 bound_to 10752
  152.9832  135.5915  154.4459 H   0  0  0  0  0  0  0  0  0  0  0  0  # atno 10765 bound_to 10752
  141.1380  133.8169  157.0702 H   0  0  0  0  0  0  0  0  0  0  0  0  # atno 11005 bound_to 11000
  144.8219  140.6564  143.6347 LP  0  0  0  0  0  0  0  0  0  0  0  0  # atno 17320 bound_to 7965
  145.4241  139.1559  143.4058 LP  0  0  0  0  0  0  0  0  0  0  0  0  # atno 17321 bound_to 7965
  140.4745  144.1538  150.5923 LP  0  0  0  0  0  0  0  0  0  0  0  0  # atno 17342 bound_to 10162
  140.4345  143.2553  151.9552 LP  0  0  0  0  0  0  0  0  0  0  0  0  # atno 17343 bound_to 10162
  155.9663  130.4363  150.5127 LP  0  0  0  0  0  0  0  0  0  0  0  0  # atno 17370 bound_to 10713
  157.3055  131.0653  151.2038 LP  0  0  0  0  0  0  0  0  0  0  0  0  # atno 17371 bound_to 10713
  140.0516  134.9802  157.1146 LP  0  0  0  0  0  0  0  0  0  0  0  0  # atno 17394 bound_to 11000
  140.3982  134.2111  155.7164 LP  0  0  0  0  0  0  0  0  0  0  0  0  # atno 17395 bound_to 11000

$$$$
