AV-unprocessed.smi:1260|AV-procd|sdf|5296|dock2
  -GOLD-   22720 4413D 1   1.00000     0.00000
 Structure written by MMmdl.
 37 39  0  0  0  0  0  0  0  0  2 V2000
  149.2725  141.2775  154.0142 O   0  0  0  0  0  0  0  0  0  0  0  0
  149.3215  140.2433  154.6785 C   0  0  0  0  0  0  0  0  0  0  0  0
  150.4327  140.0496  155.7118 C   0  0  0  0  0  0  0  0  0  0  0  0
  151.4052  139.0739  155.2514 N   0  0  0  0  0  0  0  0  0  0  0  0
  151.2442  137.8825  154.6723 C   0  0  0  0  0  0  0  0  0  0  0  0
  152.4058  137.2901  154.4413 N   0  0  0  0  0  0  0  0  0  0  0  0
  153.3278  138.2089  154.9140 N   0  0  0  0  0  0  0  0  0  0  0  0
  152.7405  139.2708  155.3928 N   0  0  0  0  0  0  0  0  0  0  0  0
  148.4169  139.2557  154.5784 N   0  0  0  0  0  0  0  0  0  0  0  0
  147.1984  139.3055  153.7740 C   0  0  1  0  0  0  0  0  0  0  0  0
  147.4550  139.7312  152.3156 C   0  0  0  0  0  0  0  0  0  0  0  0
  146.5555  138.8134  151.4805 C   0  0  0  0  0  0  0  0  0  0  0  0
  146.5539  137.5656  152.2527 N   0  3  2  0  0  0  0  0  0  0  0  0
  145.5931  136.5059  151.8853 C   0  0  0  0  0  0  0  0  0  0  0  0
  145.9221  135.2433  152.7108 C   0  0  0  0  0  0  0  0  0  0  0  0
  146.0002  135.5379  154.2263 C   0  0  0  0  0  0  0  0  0  0  0  0
  146.9178  136.7414  154.5313 C   0  0  0  0  0  0  0  0  0  0  0  0
  146.4725  137.9417  153.6745 C   0  0  1  0  0  0  0  0  0  0  0  0
  150.9373  140.9991  155.8955 H   0  0  0  0  0  0  0  0  0  0  0  0
  150.0146  139.7125  156.6615 H   0  0  0  0  0  0  0  0  0  0  0  0
  150.2849  137.4474  154.4335 H   0  0  0  0  0  0  0  0  0  0  0  0
  148.5482  138.4370  155.1546 H   0  0  0  0  0  0  0  0  0  0  0  0
  146.5094  140.0288  154.2149 H   0  0  0  0  0  0  0  0  0  0  0  0
  147.2466  140.7877  152.1434 H   0  0  0  0  0  0  0  0  0  0  0  0
  148.4976  139.5541  152.0462 H   0  0  0  0  0  0  0  0  0  0  0  0
  145.5419  139.2140  151.4245 H   0  0  0  0  0  0  0  0  0  0  0  0
  146.9279  138.6659  150.4664 H   0  0  0  0  0  0  0  0  0  0  0  0
  144.5721  136.8410  152.0746 H   0  0  0  0  0  0  0  0  0  0  0  0
  145.6718  136.2898  150.8193 H   0  0  0  0  0  0  0  0  0  0  0  0
  145.1807  134.4670  152.5189 H   0  0  0  0  0  0  0  0  0  0  0  0
  146.8796  134.8394  152.3786 H   0  0  0  0  0  0  0  0  0  0  0  0
  144.9977  135.7471  154.6021 H   0  0  0  0  0  0  0  0  0  0  0  0
  146.3502  134.6551  154.7623 H   0  0  0  0  0  0  0  0  0  0  0  0
  146.8621  136.9842  155.5927 H   0  0  0  0  0  0  0  0  0  0  0  0
  147.9563  136.4828  154.3182 H   0  0  0  0  0  0  0  0  0  0  0  0
  145.4226  138.1394  153.9011 H   0  0  0  0  0  0  0  0  0  0  0  0
  147.4746  137.1711  152.1225 H   0  0  0  0  0  0  0  0  0  0  0  0
  1  2  2  0  0  0  0
  2  3  1  0  0  0  0
  2  9  1  0  0  0  0
  3  4  1  0  0  0  0
  3 19  1  0  0  0  0
  3 20  1  0  0  0  0
  4  8  1  0  0  0  0
  4  5  1  0  0  0  0
  5  6  2  0  0  0  0
  5 21  1  0  0  0  0
  6  7  1  0  0  0  0
  7  8  2  0  0  0  0
  9 10  1  0  0  0  0
  9 22  1  0  0  0  0
 10 18  1  0  0  0  0
 10 11  1  0  0  0  0
 10 23  1  0  0  0  0
 11 12  1  0  0  0  0
 11 24  1  0  0  0  0
 11 25  1  0  0  0  0
 12 13  1  0  0  0  0
 12 26  1  0  0  0  0
 12 27  1  0  0  0  0
 13 18  1  0  0  0  0
 13 14  1  0  0  0  0
 13 37  1  0  0  0  0
 14 15  1  0  0  0  0
 14 28  1  0  0  0  0
 14 29  1  0  0  0  0
 15 16  1  0  0  0  0
 15 30  1  0  0  0  0
 15 31  1  0  0  0  0
 16 17  1  0  0  0  0
 16 32  1  0  0  0  0
 16 33  1  0  0  0  0
 17 18  1  0  0  0  0
 17 34  1  0  0  0  0
 17 35  1  0  0  0  0
 18 36  1  0  0  0  0
M  CHG  1  13   1
M  END
> <s_m_source_file>
AV-unprocessed.smi

> <i_m_source_file_index>
1260

> <i_lp_mmshare_version>
43012

> <i_f3d_flags>
0

> <s_epik_input>
bjFubltjSF1uMVtDSDJdQyg9TylbTkhdW0NASF0oW0NIMl1bQ0gyXTIpW0NAQEhdKE4yMylbQ0gyXVtDSDJdW0NIMl1bQ0gyXTM=

> <s_epik_cmdline>
J2VwaWtfcHl0aG9uJywgJy1waCcsICc3LjAnLCAnLXRuJywgJzgnLCAnLW1hJywgJzIwMCcsICctbWV0YWxfYmluZGluZycsICctaW1hZScsICc8aW5maWxlLm1hZT4nLCAnLW9tYWUnLCAnPG91dGZpbGUubWFlPic=

> <r_lp_tautomer_probability>
1

> <r_epik_Ionization_Penalty>
0.00234324

> <r_epik_Ionization_Penalty_Charging>
0.00233897

> <r_epik_Ionization_Penalty_Neutral>
4.26861e-06

> <r_epik_State_Penalty>
0.00161477

> <r_epik_Charging_Adjusted_Penalty>
0.00395374

> <i_epik_Tot_Q>
1

> <i_epik_Tot_abs_Q>
1

> <r_epik_Metal_State_Penalty>
-0

> <b_epik_Metal_Only>
0

> <s_lp_Force_Field>
OPLS_2005

> <r_lp_Energy>
42.8184

> <b_lp_Chiralities_Consistent>
1

> <s_lp_Variant>
AV-unprocessed.smi:1260-4

> <Gold.Version>
5.8.1

> <Gold.Id.Protein>
6NUR|6NUR_protein|mol2

> <Gold.PLP.Fitness>
40.9232

> <Gold.PLP.PLP>
-29.3608

> <Gold.PLP.part.hbond>
-6.2794

> <Gold.PLP.part.metal>
0.0000

> <Gold.PLP.part.buried>
2.2400

> <Gold.PLP.part.nonpolar>
-26.6094

> <Gold.PLP.part.repulsive>
1.7446

> <Gold.PLP.ligand.clash>
0.0000

> <Gold.PLP.ligand.torsion>
0.4420

> <Gold.PLP.Chemscore.Hbond>
4.1480

> <Gold.PLP.Chemscore.CHOScore>
0.0000

> <Gold.PLP.Chemscore.Metal>
0.0000

> <Gold.Chemscore.Hbonds>
donor molecule, donor type, donor heavy atom, donor atom, acceptor molecule, acceptor atom, score
      L1  H    13    37       P1  7948  2.00
      P1  H  7997  8010       L1     8  0.90
      P1  H  8011  8017       L1     1  0.66
      P1  H 10752 10765       L1     6  0.56

> <Gold.PLP.Chemscore.Internal.Correction>
0.0025

> <Gold.Rescore>
     Score         DG    S(hbond)    S(metal)    S(lipo)     H(rot)  DE(clash)    DE(int)     intcor
     11.65     -15.67       3.10        0.00      41.87       1.98       2.18       1.83       ----

> <Gold.Chemscore.Fitness>
11.6549

> <Gold.Chemscore.DG>
-15.6662

> <Gold.Chemscore.ZeroCoef>
-5.4800

> <Gold.Chemscore.Hbond>
3.0972

> <Gold.Chemscore.Metal>
0.0000

> <Gold.Chemscore.Lipo>
41.8748

> <Gold.Chemscore.Internal_Hbond>
0.0000

> <Gold.Chemscore.DEClash>
2.1843

> <Gold.Chemscore.DEInternal>
1.8271

> <Gold.Chemscore.Rot>
1.9757

> <Gold.Chemscore.Internal.Correction>
   9.000000E+99

> <Gold.Chemscore.Hbonds>
donor molecule, donor type, donor heavy atom, donor atom, acceptor molecule, acceptor atom, score
      L1  H    13    37       P1  7948  1.00
      P1  H  7997  8010       L1     8  0.17
      P1  H  8011  8017       L1     1  0.64
      P1  H 10752 10765       L1     6  0.46

> <Gold.Chemscore.Hbond.Weighted>
-10.3446

> <Gold.Chemscore.Metal.Weighted>
-0.0000

> <Gold.Chemscore.Lipo.Weighted>
-4.8993

> <Gold.Chemscore.Internal_Hbond.Weighted>
0.0000

> <Gold.Chemscore.DEClash.Weighted>
2.1843

> <Gold.Chemscore.DEInternal.Weighted>
1.8271

> <Gold.Chemscore.Rot.Weighted>
5.0578

> <Gold.Chemscore.Internal.Correction.Weighted>
   9.000000E+99

> <Gold.Protein.RotatedTorsions>
[ 6907 6896 6895 6894 ] final   25.90 input  -60.11 | X-H torsion
[ 7974 7965 7964 7962 ] final   79.65 input  175.53 | X-H torsion
[ 8008 7997 7996 7995 ] final   85.91 input   59.86 | X-H torsion
[ 10167 10162 10161 10158 ] final  170.24 input  -65.29 | X-H torsion
[ 10718 10713 10712 10709 ] final  107.14 input   66.30 | X-H torsion
[ 10763 10752 10751 10750 ] final -177.06 input  -60.55 | X-H torsion
[ 11005 11000 10999 10996 ] final    4.41 input  -57.11 | X-H torsion

> <Gold.Protein.ActiveResidues>
 VAL166  LYS551  ARG553  GLY616  TRP617  ASP618  TYR619  PRO620  LYS621  CYS622 
 ASP623  PHE694  ASN695  SER759  ASP760  ASP761  ALA762  ILE779  LEU786  VAL792 
 PHE793  MET794  SER795  GLU796  ALA797  LYS798  CYS799  TRP800  GLU811  SER814 

> <Gold.Protein.RotatedAtoms>
  151.9794  135.0036  160.0556 H   0  0  0  0  0  0  0  0  0  0  0  0  # atno 6907 bound_to 6896
  152.1710  133.4639  159.4917 H   0  0  0  0  0  0  0  0  0  0  0  0  # atno 6908 bound_to 6896
  150.6902  134.1870  159.4313 H   0  0  0  0  0  0  0  0  0  0  0  0  # atno 6909 bound_to 6896
  145.6614  139.2472  143.1920 H   0  0  0  0  0  0  0  0  0  0  0  0  # atno 7974 bound_to 7965
  155.9560  140.3397  155.6449 H   0  0  0  0  0  0  0  0  0  0  0  0  # atno 8008 bound_to 7997
  155.6859  140.0743  157.2485 H   0  0  0  0  0  0  0  0  0  0  0  0  # atno 8009 bound_to 7997
  154.4132  140.1666  156.2021 H   0  0  0  0  0  0  0  0  0  0  0  0  # atno 8010 bound_to 7997
  139.5013  144.3618  151.9816 H   0  0  0  0  0  0  0  0  0  0  0  0  # atno 10167 bound_to 10162
  157.6640  131.0866  150.6112 H   0  0  0  0  0  0  0  0  0  0  0  0  # atno 10718 bound_to 10713
  154.5647  135.2823  155.0885 H   0  0  0  0  0  0  0  0  0  0  0  0  # atno 10763 bound_to 10752
  154.2280  135.6379  153.5170 H   0  0  0  0  0  0  0  0  0  0  0  0  # atno 10764 bound_to 10752
  153.0039  135.5530  154.6252 H   0  0  0  0  0  0  0  0  0  0  0  0  # atno 10765 bound_to 10752
  140.5822  134.0002  155.8052 H   0  0  0  0  0  0  0  0  0  0  0  0  # atno 11005 bound_to 11000
  146.1122  140.7414  142.9498 LP  0  0  0  0  0  0  0  0  0  0  0  0  # atno 17320 bound_to 7965
  144.7088  140.3957  143.7097 LP  0  0  0  0  0  0  0  0  0  0  0  0  # atno 17321 bound_to 7965
  140.3055  144.3598  150.6048 LP  0  0  0  0  0  0  0  0  0  0  0  0  # atno 17342 bound_to 10162
  140.5840  143.2171  151.7376 LP  0  0  0  0  0  0  0  0  0  0  0  0  # atno 17343 bound_to 10162
  156.6413  130.4459  149.5751 LP  0  0  0  0  0  0  0  0  0  0  0  0  # atno 17370 bound_to 10713
  156.2207  130.6735  151.1365 LP  0  0  0  0  0  0  0  0  0  0  0  0  # atno 17371 bound_to 10713
  141.0989  133.9800  157.3113 LP  0  0  0  0  0  0  0  0  0  0  0  0  # atno 17394 bound_to 11000
  139.9312  135.0200  156.8406 LP  0  0  0  0  0  0  0  0  0  0  0  0  # atno 17395 bound_to 11000

$$$$
