AV-unprocessed.smi:1570|AV-procd|sdf|6317|dock9
  -GOLD-   22720 6523D 1   1.00000     0.00000
 Structure written by MMmdl.
 51 53  0  0  0  0  0  0  0  0  1 V2000
  154.7068  140.4531  160.2754 C   0  0  0  0  0  0  0  0  0  0  0  0
  153.3961  141.0391  160.8147 C   0  0  0  0  0  0  0  0  0  0  0  0
  152.6393  141.7028  159.7561 N   0  0  0  0  0  0  0  0  0  0  0  0
  152.3154  141.1838  158.5484 C   0  0  0  0  0  0  0  0  0  0  0  0
  152.5946  140.0538  158.1476 O   0  0  0  0  0  0  0  0  0  0  0  0
  151.6353  142.1264  157.8545 N   0  0  0  0  0  0  0  0  0  0  0  0
  151.1015  141.9933  156.5007 C   0  0  0  0  0  0  0  0  0  0  0  0
  149.7437  141.2586  156.4864 C   0  0  1  0  0  0  0  0  0  0  0  0
  148.6819  142.1796  156.6349 O   0  0  0  0  0  0  0  0  0  0  0  0
  149.5097  140.4134  155.2132 C   0  0  0  0  0  0  0  0  0  0  0  0
  150.2153  139.1308  155.1378 N   0  0  0  0  0  0  0  0  0  0  0  0
  149.9391  138.2581  156.2769 C   0  0  0  0  0  0  0  0  0  0  0  0
  150.6984  136.9185  156.1982 C   0  0  1  0  0  0  0  0  0  0  0  0
  150.1140  135.9517  155.1542 C   0  0  0  0  0  0  0  0  0  0  0  0
  152.0924  137.1482  155.9873 O   0  0  0  0  0  0  0  0  0  0  0  0
  152.4084  137.9963  154.8847 C   0  0  2  0  0  0  0  0  0  0  0  0
  153.9276  138.1925  154.8521 C   0  0  0  0  0  0  0  0  0  0  0  0
  151.6550  139.3296  155.0354 C   0  0  0  0  0  0  0  0  0  0  0  0
  151.5239  143.2835  158.6387 C   0  0  0  0  0  0  0  0  0  0  0  0
  150.9168  144.5246  158.3780 C   0  0  0  0  0  0  0  0  0  0  0  0
  150.9851  145.5044  159.3958 C   0  0  0  0  0  0  0  0  0  0  0  0
  151.6422  145.2325  160.6240 C   0  0  0  0  0  0  0  0  0  0  0  0
  152.2428  143.9739  160.8613 C   0  0  0  0  0  0  0  0  0  0  0  0
  152.1583  143.0176  159.8342 C   0  0  0  0  0  0  0  0  0  0  0  0
  155.2681  139.9623  161.0705 H   0  0  0  0  0  0  0  0  0  0  0  0
  155.3420  141.2316  159.8521 H   0  0  0  0  0  0  0  0  0  0  0  0
  154.5177  139.7136  159.4968 H   0  0  0  0  0  0  0  0  0  0  0  0
  152.7933  140.2477  161.2624 H   0  0  0  0  0  0  0  0  0  0  0  0
  153.6051  141.7486  161.6155 H   0  0  0  0  0  0  0  0  0  0  0  0
  151.0302  142.9676  156.0166 H   0  0  0  0  0  0  0  0  0  0  0  0
  151.8253  141.4268  155.9121 H   0  0  0  0  0  0  0  0  0  0  0  0
  149.6876  140.5802  157.3387 H   0  0  0  0  0  0  0  0  0  0  0  0
  148.7433  142.8197  155.9426 H   0  0  0  0  0  0  0  0  0  0  0  0
  148.4395  140.2038  155.1842 H   0  0  0  0  0  0  0  0  0  0  0  0
  149.7091  141.0094  154.3211 H   0  0  0  0  0  0  0  0  0  0  0  0
  150.2177  138.7696  157.1996 H   0  0  0  0  0  0  0  0  0  0  0  0
  148.8732  138.0487  156.3507 H   0  0  0  0  0  0  0  0  0  0  0  0
  150.6123  136.4276  157.1680 H   0  0  0  0  0  0  0  0  0  0  0  0
  149.0805  135.7016  155.3943 H   0  0  0  0  0  0  0  0  0  0  0  0
  150.6813  135.0212  155.1263 H   0  0  0  0  0  0  0  0  0  0  0  0
  150.1199  136.3778  154.1512 H   0  0  0  0  0  0  0  0  0  0  0  0
  152.1062  137.5106  153.9562 H   0  0  0  0  0  0  0  0  0  0  0  0
  154.2221  138.8312  154.0190 H   0  0  0  0  0  0  0  0  0  0  0  0
  154.4411  137.2380  154.7357 H   0  0  0  0  0  0  0  0  0  0  0  0
  154.2867  138.6545  155.7721 H   0  0  0  0  0  0  0  0  0  0  0  0
  151.8792  139.9640  154.1768 H   0  0  0  0  0  0  0  0  0  0  0  0
  152.0183  139.8598  155.9174 H   0  0  0  0  0  0  0  0  0  0  0  0
  150.4169  144.7267  157.4424 H   0  0  0  0  0  0  0  0  0  0  0  0
  150.5320  146.4716  159.2356 H   0  0  0  0  0  0  0  0  0  0  0  0
  151.6840  145.9954  161.3874 H   0  0  0  0  0  0  0  0  0  0  0  0
  152.7446  143.7616  161.7937 H   0  0  0  0  0  0  0  0  0  0  0  0
  1  2  1  0  0  0  0
  1 25  1  0  0  0  0
  1 26  1  0  0  0  0
  1 27  1  0  0  0  0
  2  3  1  0  0  0  0
  2 28  1  0  0  0  0
  2 29  1  0  0  0  0
  3 24  1  0  0  0  0
  3  4  1  0  0  0  0
  4  5  2  0  0  0  0
  4  6  1  0  0  0  0
  6  7  1  0  0  0  0
  6 19  1  0  0  0  0
  7  8  1  0  0  0  0
  7 30  1  0  0  0  0
  7 31  1  0  0  0  0
  8  9  1  0  0  0  0
  8 10  1  0  0  0  0
  8 32  1  0  0  0  0
  9 33  1  0  0  0  0
 10 11  1  0  0  0  0
 10 34  1  0  0  0  0
 10 35  1  0  0  0  0
 11 18  1  0  0  0  0
 11 12  1  0  0  0  0
 12 13  1  0  0  0  0
 12 36  1  0  0  0  0
 12 37  1  0  0  0  0
 13 14  1  0  0  0  0
 13 15  1  0  0  0  0
 13 38  1  0  0  0  0
 14 39  1  0  0  0  0
 14 40  1  0  0  0  0
 14 41  1  0  0  0  0
 15 16  1  0  0  0  0
 16 17  1  0  0  0  0
 16 18  1  0  0  0  0
 16 42  1  0  0  0  0
 17 43  1  0  0  0  0
 17 44  1  0  0  0  0
 17 45  1  0  0  0  0
 18 46  1  0  0  0  0
 18 47  1  0  0  0  0
 19 24  2  0  0  0  0
 19 20  1  0  0  0  0
 20 21  2  0  0  0  0
 20 48  1  0  0  0  0
 21 22  1  0  0  0  0
 21 49  1  0  0  0  0
 22 23  2  0  0  0  0
 22 50  1  0  0  0  0
 23 24  1  0  0  0  0
 23 51  1  0  0  0  0
M  END
> <s_m_source_file>
AV-unprocessed.smi

> <i_m_source_file_index>
1570

> <i_lp_mmshare_version>
43012

> <i_f3d_flags>
0

> <s_epik_input>
W2NIXTFbY0hdW2NIXVtjSF1jKGMxMiluKFtDSDJdW0NIM10pYyg9TyluMltDSDJdW0NASF0oW09IXSlbQ0gyXU4zW0NIMl1bQ0BASF0oW0NIM10pT1tDQEBIXShbQ0gzXSlbQ0gyXTM=

> <s_epik_cmdline>
J2VwaWtfcHl0aG9uJywgJy1waCcsICc3LjAnLCAnLXRuJywgJzgnLCAnLW1hJywgJzIwMCcsICctbWV0YWxfYmluZGluZycsICctaW1hZScsICc8aW5maWxlLm1hZT4nLCAnLW9tYWUnLCAnPG91dGZpbGUubWFlPic=

> <r_epik_Ionization_Penalty>
0.214359

> <r_epik_Ionization_Penalty_Charging>
2.30976e-09

> <r_epik_Ionization_Penalty_Neutral>
0.214359

> <r_epik_State_Penalty>
0.204533

> <r_epik_Charging_Adjusted_Penalty>
0.204533

> <i_epik_Tot_Q>
0

> <i_epik_Tot_abs_Q>
0

> <r_epik_Metal_State_Penalty>
0.204533

> <b_epik_Metal_Only>
0

> <s_lp_Force_Field>
OPLS_2005

> <r_lp_Energy>
65.1855

> <b_lp_Chiralities_Consistent>
1

> <s_lp_Variant>
AV-unprocessed.smi:1570-6

> <Gold.Version>
5.8.1

> <Gold.Id.Protein>
6NUR|6NUR_protein|mol2

> <Gold.PLP.Fitness>
55.8439

> <Gold.PLP.PLP>
-49.0750

> <Gold.PLP.part.hbond>
-3.0000

> <Gold.PLP.part.metal>
0.0000

> <Gold.PLP.part.buried>
-2.7093

> <Gold.PLP.part.nonpolar>
-43.2898

> <Gold.PLP.part.repulsive>
0.1087

> <Gold.PLP.ligand.clash>
0.0000

> <Gold.PLP.ligand.torsion>
0.9439

> <Gold.PLP.Chemscore.Hbond>
2.8723

> <Gold.PLP.Chemscore.CHOScore>
0.0000

> <Gold.PLP.Chemscore.Metal>
0.0000

> <Gold.Chemscore.Hbonds>
donor molecule, donor type, donor heavy atom, donor atom, acceptor molecule, acceptor atom, score
      L1  H     9    33       P1  8028  0.83
      P1  H  7997  8008       L1     5  0.37
      P1  H 10752 10763       L1    15  0.18

> <Gold.PLP.Chemscore.Internal.Correction>
0.0399

> <Gold.Rescore>
     Score         DG    S(hbond)    S(metal)    S(lipo)     H(rot)  DE(clash)    DE(int)     intcor
     20.31     -23.88       2.01        0.00     144.79       2.06       1.00       2.57       ----

> <Gold.Chemscore.Fitness>
20.3064

> <Gold.Chemscore.DG>
-23.8767

> <Gold.Chemscore.ZeroCoef>
-5.4800

> <Gold.Chemscore.Hbond>
2.0129

> <Gold.Chemscore.Metal>
0.0000

> <Gold.Chemscore.Lipo>
144.7919

> <Gold.Chemscore.Internal_Hbond>
0.0000

> <Gold.Chemscore.DEClash>
0.9996

> <Gold.Chemscore.DEInternal>
2.5708

> <Gold.Chemscore.Rot>
2.0574

> <Gold.Chemscore.Internal.Correction>
   9.000000E+99

> <Gold.Chemscore.Hbonds>
donor molecule, donor type, donor heavy atom, donor atom, acceptor molecule, acceptor atom, score
      L1  H     9    33       P1  8028  0.83
      P1  H  7997  8008       L1     5  0.28

> <Gold.Chemscore.Hbond.Weighted>
-6.7229

> <Gold.Chemscore.Metal.Weighted>
-0.0000

> <Gold.Chemscore.Lipo.Weighted>
-16.9406

> <Gold.Chemscore.Internal_Hbond.Weighted>
0.0000

> <Gold.Chemscore.DEClash.Weighted>
0.9996

> <Gold.Chemscore.DEInternal.Weighted>
2.5708

> <Gold.Chemscore.Rot.Weighted>
5.2669

> <Gold.Chemscore.Internal.Correction.Weighted>
   9.000000E+99

> <Gold.Protein.RotatedTorsions>
[ 6907 6896 6895 6894 ] final   34.50 input  -60.11 | X-H torsion
[ 7974 7965 7964 7962 ] final  -24.15 input  175.53 | X-H torsion
[ 8008 7997 7996 7995 ] final  -83.74 input   59.86 | X-H torsion
[ 10167 10162 10161 10158 ] final   -5.36 input  -65.29 | X-H torsion
[ 10718 10713 10712 10709 ] final  141.14 input   66.30 | X-H torsion
[ 10763 10752 10751 10750 ] final   74.92 input  -60.55 | X-H torsion
[ 11005 11000 10999 10996 ] final -171.74 input  -57.11 | X-H torsion

> <Gold.Protein.ActiveResidues>
 VAL166  LYS551  ARG553  GLY616  TRP617  ASP618  TYR619  PRO620  LYS621  CYS622 
 ASP623  PHE694  ASN695  SER759  ASP760  ASP761  ALA762  ILE779  LEU786  VAL792 
 PHE793  MET794  SER795  GLU796  ALA797  LYS798  CYS799  TRP800  GLU811  SER814 

> <Gold.Protein.RotatedAtoms>
  152.1033  134.9326  160.0568 H   0  0  0  0  0  0  0  0  0  0  0  0  # atno 6907 bound_to 6896
  152.0532  133.4024  159.4394 H   0  0  0  0  0  0  0  0  0  0  0  0  # atno 6908 bound_to 6896
  150.6840  134.3204  159.4828 H   0  0  0  0  0  0  0  0  0  0  0  0  # atno 6909 bound_to 6896
  146.1573  140.4712  142.8586 H   0  0  0  0  0  0  0  0  0  0  0  0  # atno 7974 bound_to 7965
  154.6223  140.0614  156.9630 H   0  0  0  0  0  0  0  0  0  0  0  0  # atno 8008 bound_to 7997
  155.1798  140.3298  155.4359 H   0  0  0  0  0  0  0  0  0  0  0  0  # atno 8009 bound_to 7997
  156.2438  140.1899  156.6895 H   0  0  0  0  0  0  0  0  0  0  0  0  # atno 8010 bound_to 7997
  140.6960  143.6317  150.8516 H   0  0  0  0  0  0  0  0  0  0  0  0  # atno 10167 bound_to 10162
  157.3954  131.1010  151.0605 H   0  0  0  0  0  0  0  0  0  0  0  0  # atno 10718 bound_to 10713
  153.0620  135.5007  154.8114 H   0  0  0  0  0  0  0  0  0  0  0  0  # atno 10763 bound_to 10752
  154.6896  135.2982  154.9500 H   0  0  0  0  0  0  0  0  0  0  0  0  # atno 10764 bound_to 10752
  154.0259  135.6736  153.4829 H   0  0  0  0  0  0  0  0  0  0  0  0  # atno 10765 bound_to 10752
  140.5049  134.5858  157.5000 H   0  0  0  0  0  0  0  0  0  0  0  0  # atno 11005 bound_to 11000
  144.7980  140.6159  143.6497 LP  0  0  0  0  0  0  0  0  0  0  0  0  # atno 17320 bound_to 7965
  145.4677  139.1506  143.3831 LP  0  0  0  0  0  0  0  0  0  0  0  0  # atno 17321 bound_to 7965
  140.0035  143.5718  152.2866 LP  0  0  0  0  0  0  0  0  0  0  0  0  # atno 17342 bound_to 10162
  139.6416  144.7655  151.2327 LP  0  0  0  0  0  0  0  0  0  0  0  0  # atno 17343 bound_to 10162
  157.1624  130.6231  149.5615 LP  0  0  0  0  0  0  0  0  0  0  0  0  # atno 17370 bound_to 10713
  155.9809  130.4813  150.6798 LP  0  0  0  0  0  0  0  0  0  0  0  0  # atno 17371 bound_to 10713
  139.9692  134.7321  156.0076 LP  0  0  0  0  0  0  0  0  0  0  0  0  # atno 17394 bound_to 11000
  141.1416  133.6563  156.3747 LP  0  0  0  0  0  0  0  0  0  0  0  0  # atno 17395 bound_to 11000

$$$$
