AV-unprocessed.smi:2702|AV-procd|sdf|10433|dock10
  -GOLD-   2272014473D 1   1.00000     0.00000
 Structure written by MMmdl.
 47 48  0  0  0  0  0  0  0  0  1 V2000
  152.1853  139.2084  157.8839 C   0  0  0  0  0  0  0  0  0  0  0  0
  152.5332  139.7309  156.6142 O   0  0  0  0  0  0  0  0  0  0  0  0
  151.7111  140.8207  156.2310 C   0  0  0  0  0  0  0  0  0  0  0  0
  150.4897  140.3275  155.4816 C   0  0  0  0  0  0  0  0  0  0  0  0
  149.2315  140.5830  155.9103 C   0  0  0  0  0  0  0  0  0  0  0  0
  148.0743  140.0917  155.1626 C   0  0  0  0  0  0  0  0  0  0  0  0
  146.9149  140.3029  155.5201 O   0  0  0  0  0  0  0  0  0  0  0  0
  148.3770  139.3784  154.0375 N   0  0  0  0  0  0  0  0  0  0  0  0
  147.3161  138.8145  153.1834 C   0  0  0  0  0  0  0  0  0  0  0  0
  146.5485  137.6729  153.8639 C   0  0  0  0  0  0  0  0  0  0  0  0
  145.7721  137.9075  154.7907 O   0  0  0  0  0  0  0  0  0  0  0  0
  146.7756  136.4419  153.3805 N   0  0  0  0  0  0  0  0  0  0  0  0
  146.1956  135.1939  153.8817 C   0  0  1  0  0  0  0  0  0  0  0  0
  145.4249  134.4861  152.7521 C   0  0  0  0  0  0  0  0  0  0  0  0
  146.3681  133.9284  151.6762 C   0  0  0  0  0  0  0  0  0  0  0  0
  147.4195  132.9981  152.2958 C   0  0  0  0  0  0  0  0  0  0  0  0
  148.2269  133.6935  153.4113 C   0  0  2  0  0  0  0  0  0  0  0  0
  149.2743  132.7193  153.9792 C   0  0  0  0  0  0  0  0  0  0  0  0
  147.2762  134.2655  154.5003 C   0  0  1  0  0  0  0  0  0  0  0  0
  148.0287  134.9575  155.6553 C   0  0  0  0  0  0  0  0  0  0  0  0
  149.7066  139.1520  153.6294 C   0  0  0  0  0  0  0  0  0  0  0  0
  150.7143  139.5983  154.3095 N   0  0  0  0  0  0  0  0  0  0  0  0
  152.8462  138.3777  158.1315 H   0  0  0  0  0  0  0  0  0  0  0  0
  151.1599  138.8364  157.8899 H   0  0  0  0  0  0  0  0  0  0  0  0
  152.2889  139.9642  158.6636 H   0  0  0  0  0  0  0  0  0  0  0  0
  151.4059  141.3870  157.1127 H   0  0  0  0  0  0  0  0  0  0  0  0
  152.2668  141.5021  155.5848 H   0  0  0  0  0  0  0  0  0  0  0  0
  149.0714  141.1507  156.8156 H   0  0  0  0  0  0  0  0  0  0  0  0
  146.5939  139.5746  152.8804 H   0  0  0  0  0  0  0  0  0  0  0  0
  147.7541  138.4552  152.2501 H   0  0  0  0  0  0  0  0  0  0  0  0
  147.4274  136.3551  152.6142 H   0  0  0  0  0  0  0  0  0  0  0  0
  145.4674  135.4273  154.6603 H   0  0  0  0  0  0  0  0  0  0  0  0
  144.8429  133.6662  153.1751 H   0  0  0  0  0  0  0  0  0  0  0  0
  144.7033  135.1683  152.3008 H   0  0  0  0  0  0  0  0  0  0  0  0
  145.7926  133.3882  150.9241 H   0  0  0  0  0  0  0  0  0  0  0  0
  146.8640  134.7469  151.1534 H   0  0  0  0  0  0  0  0  0  0  0  0
  146.9250  132.1126  152.6981 H   0  0  0  0  0  0  0  0  0  0  0  0
  148.0918  132.6438  151.5135 H   0  0  0  0  0  0  0  0  0  0  0  0
  148.7708  134.5245  152.9600 H   0  0  0  0  0  0  0  0  0  0  0  0
  148.8015  131.8952  154.5141 H   0  0  0  0  0  0  0  0  0  0  0  0
  149.9592  133.2171  154.6651 H   0  0  0  0  0  0  0  0  0  0  0  0
  149.8823  132.2910  153.1819 H   0  0  0  0  0  0  0  0  0  0  0  0
  146.7446  133.4206  154.9410 H   0  0  0  0  0  0  0  0  0  0  0  0
  148.7062  135.7296  155.2898 H   0  0  0  0  0  0  0  0  0  0  0  0
  148.6178  134.2469  156.2341 H   0  0  0  0  0  0  0  0  0  0  0  0
  147.3321  135.4289  156.3490 H   0  0  0  0  0  0  0  0  0  0  0  0
  149.8242  138.5831  152.7057 H   0  0  0  0  0  0  0  0  0  0  0  0
  1  2  1  0  0  0  0
  1 23  1  0  0  0  0
  1 24  1  0  0  0  0
  1 25  1  0  0  0  0
  2  3  1  0  0  0  0
  3  4  1  0  0  0  0
  3 26  1  0  0  0  0
  3 27  1  0  0  0  0
  4 22  1  0  0  0  0
  4  5  2  0  0  0  0
  5  6  1  0  0  0  0
  5 28  1  0  0  0  0
  6  7  2  0  0  0  0
  6  8  1  0  0  0  0
  8  9  1  0  0  0  0
  8 21  1  0  0  0  0
  9 10  1  0  0  0  0
  9 29  1  0  0  0  0
  9 30  1  0  0  0  0
 10 11  2  0  0  0  0
 10 12  1  0  0  0  0
 12 13  1  0  0  0  0
 12 31  1  0  0  0  0
 13 19  1  0  0  0  0
 13 14  1  0  0  0  0
 13 32  1  0  0  0  0
 14 15  1  0  0  0  0
 14 33  1  0  0  0  0
 14 34  1  0  0  0  0
 15 16  1  0  0  0  0
 15 35  1  0  0  0  0
 15 36  1  0  0  0  0
 16 17  1  0  0  0  0
 16 37  1  0  0  0  0
 16 38  1  0  0  0  0
 17 18  1  0  0  0  0
 17 19  1  0  0  0  0
 17 39  1  0  0  0  0
 18 40  1  0  0  0  0
 18 41  1  0  0  0  0
 18 42  1  0  0  0  0
 19 20  1  0  0  0  0
 19 43  1  0  0  0  0
 20 44  1  0  0  0  0
 20 45  1  0  0  0  0
 20 46  1  0  0  0  0
 21 22  2  0  0  0  0
 21 47  1  0  0  0  0
M  END
> <s_m_source_file>
AV-unprocessed.smi

> <i_m_source_file_index>
2702

> <i_lp_mmshare_version>
43012

> <i_f3d_flags>
0

> <s_epik_input>
W0NIM11PW0NIMl1jMVtjSF1jKD1PKW4oW2NIXW4xKVtDSDJdQyg9TylbTkhdW0NAQEhdMltDSDJdW0NIMl1bQ0gyXVtDQEBIXShbQ0gzXSlbQ0BIXTJbQ0gzXQ==

> <s_epik_cmdline>
J2VwaWtfcHl0aG9uJywgJy1waCcsICc3LjAnLCAnLXRuJywgJzgnLCAnLW1hJywgJzIwMCcsICctbWV0YWxfYmluZGluZycsICctaW1hZScsICc8aW5maWxlLm1hZT4nLCAnLW9tYWUnLCAnPG91dGZpbGUubWFlPic=

> <r_lp_tautomer_probability>
1

> <r_epik_Ionization_Penalty>
1.22164e-06

> <r_epik_Ionization_Penalty_Charging>
3.17988e-07

> <r_epik_Ionization_Penalty_Neutral>
9.03656e-07

> <r_epik_State_Penalty>
-0

> <r_epik_Charging_Adjusted_Penalty>
3.17988e-07

> <i_epik_Tot_Q>
0

> <i_epik_Tot_abs_Q>
0

> <r_epik_Metal_State_Penalty>
-0

> <b_epik_Metal_Only>
0

> <s_lp_Force_Field>
OPLS_2005

> <r_lp_Energy>
16.6041

> <b_lp_Chiralities_Consistent>
1

> <s_lp_Variant>
AV-unprocessed.smi:2702-4

> <Gold.Version>
5.8.1

> <Gold.Id.Protein>
6NUR|6NUR_protein|mol2

> <Gold.PLP.Fitness>
38.4378

> <Gold.PLP.PLP>
-26.1162

> <Gold.PLP.part.hbond>
-3.0000

> <Gold.PLP.part.metal>
0.0000

> <Gold.PLP.part.buried>
-0.4420

> <Gold.PLP.part.nonpolar>
-23.2416

> <Gold.PLP.part.repulsive>
0.2065

> <Gold.PLP.ligand.clash>
0.0000

> <Gold.PLP.ligand.torsion>
0.3863

> <Gold.PLP.Chemscore.Hbond>
3.0000

> <Gold.PLP.Chemscore.CHOScore>
1.3589

> <Gold.PLP.Chemscore.Metal>
0.0000

> <Gold.Chemscore.Hbonds>
donor molecule, donor type, donor heavy atom, donor atom, acceptor molecule, acceptor atom, score
      L1  H    12    31       P1  7948  1.00
      P1  H  7989  7998       L1    22  0.80
      P1  H  7997  8009       L1     2  1.00
      L1  C    21    47       P1  7948  0.84
      L1  C    21    47       P1  7957  0.51

> <Gold.PLP.Chemscore.Internal.Correction>
0.0177

> <Gold.Rescore>
     Score         DG    S(hbond)    S(metal)    S(lipo)     H(rot)  DE(clash)    DE(int)     intcor
     12.34     -14.77       2.19        0.00      59.20       1.93       0.56       1.88       ----

> <Gold.Chemscore.Fitness>
12.3414

> <Gold.Chemscore.DG>
-14.7732

> <Gold.Chemscore.ZeroCoef>
-5.4800

> <Gold.Chemscore.Hbond>
2.1868

> <Gold.Chemscore.Metal>
0.0000

> <Gold.Chemscore.Lipo>
59.1981

> <Gold.Chemscore.Internal_Hbond>
0.0000

> <Gold.Chemscore.DEClash>
0.5555

> <Gold.Chemscore.DEInternal>
1.8763

> <Gold.Chemscore.Rot>
1.9284

> <Gold.Chemscore.Internal.Correction>
   9.000000E+99

> <Gold.Chemscore.Hbonds>
donor molecule, donor type, donor heavy atom, donor atom, acceptor molecule, acceptor atom, score
      L1  H    12    31       P1  7948  0.99
      P1  H  7989  7998       L1    22  0.10
      P1  H  7997  8009       L1     2  0.70

> <Gold.Chemscore.Hbond.Weighted>
-7.3038

> <Gold.Chemscore.Metal.Weighted>
-0.0000

> <Gold.Chemscore.Lipo.Weighted>
-6.9262

> <Gold.Chemscore.Internal_Hbond.Weighted>
0.0000

> <Gold.Chemscore.DEClash.Weighted>
0.5555

> <Gold.Chemscore.DEInternal.Weighted>
1.8763

> <Gold.Chemscore.Rot.Weighted>
4.9368

> <Gold.Chemscore.Internal.Correction.Weighted>
   9.000000E+99

> <Gold.Protein.RotatedTorsions>
[ 6907 6896 6895 6894 ] final  -29.90 input  -60.11 | X-H torsion
[ 7974 7965 7964 7962 ] final  -72.55 input  175.53 | X-H torsion
[ 8008 7997 7996 7995 ] final -170.45 input   59.86 | X-H torsion
[ 10167 10162 10161 10158 ] final  158.58 input  -65.29 | X-H torsion
[ 10718 10713 10712 10709 ] final -129.15 input   66.30 | X-H torsion
[ 10763 10752 10751 10750 ] final   21.44 input  -60.55 | X-H torsion
[ 11005 11000 10999 10996 ] final  -72.44 input  -57.11 | X-H torsion

> <Gold.Protein.ActiveResidues>
 VAL166  LYS551  ARG553  GLY616  TRP617  ASP618  TYR619  PRO620  LYS621  CYS622 
 ASP623  PHE694  ASN695  SER759  ASP760  ASP761  ALA762  ILE779  LEU786  VAL792 
 PHE793  MET794  SER795  GLU796  ALA797  LYS798  CYS799  TRP800  GLU811  SER814 

> <Gold.Protein.RotatedAtoms>
  151.1129  135.0037  159.8502 H   0  0  0  0  0  0  0  0  0  0  0  0  # atno 6907 bound_to 6896
  152.5444  134.1814  159.8647 H   0  0  0  0  0  0  0  0  0  0  0  0  # atno 6908 bound_to 6896
  151.1866  133.4648  159.2627 H   0  0  0  0  0  0  0  0  0  0  0  0  # atno 6909 bound_to 6896
  145.6637  140.9244  143.0920 H   0  0  0  0  0  0  0  0  0  0  0  0  # atno 7974 bound_to 7965
  155.9185  140.1070  157.1225 H   0  0  0  0  0  0  0  0  0  0  0  0  # atno 8008 bound_to 7997
  154.4050  140.1260  156.4714 H   0  0  0  0  0  0  0  0  0  0  0  0  # atno 8009 bound_to 7997
  155.7225  140.3469  155.5024 H   0  0  0  0  0  0  0  0  0  0  0  0  # atno 8010 bound_to 7997
  139.4827  144.4811  151.8443 H   0  0  0  0  0  0  0  0  0  0  0  0  # atno 10167 bound_to 10162
  156.2019  130.6863  151.0549 H   0  0  0  0  0  0  0  0  0  0  0  0  # atno 10718 bound_to 10713
  153.0995  135.6669  153.9699 H   0  0  0  0  0  0  0  0  0  0  0  0  # atno 10763 bound_to 10752
  153.9274  135.3008  155.3448 H   0  0  0  0  0  0  0  0  0  0  0  0  # atno 10764 bound_to 10752
  154.7415  135.5077  153.9206 H   0  0  0  0  0  0  0  0  0  0  0  0  # atno 10765 bound_to 10752
  141.1608  133.6847  156.7059 H   0  0  0  0  0  0  0  0  0  0  0  0  # atno 11005 bound_to 11000
  144.7080  139.8482  143.7424 LP  0  0  0  0  0  0  0  0  0  0  0  0  # atno 17320 bound_to 7965
  146.1104  139.4108  143.0291 LP  0  0  0  0  0  0  0  0  0  0  0  0  # atno 17321 bound_to 7965
  140.4287  144.2145  150.5887 LP  0  0  0  0  0  0  0  0  0  0  0  0  # atno 17342 bound_to 10162
  140.4801  143.2382  151.8967 LP  0  0  0  0  0  0  0  0  0  0  0  0  # atno 17343 bound_to 10162
  157.6990  131.0783  150.6878 LP  0  0  0  0  0  0  0  0  0  0  0  0  # atno 17370 bound_to 10713
  156.6936  130.4602  149.5593 LP  0  0  0  0  0  0  0  0  0  0  0  0  # atno 17371 bound_to 10713
  140.2924  134.8230  157.4028 LP  0  0  0  0  0  0  0  0  0  0  0  0  # atno 17394 bound_to 11000
  140.1335  134.5064  155.8087 LP  0  0  0  0  0  0  0  0  0  0  0  0  # atno 17395 bound_to 11000

$$$$
