AV-unprocessed.smi:109|AV-procd|sdf|1040|dock2
  -GOLD-   2262018 63D 1   1.00000     0.00000
 Structure written by MMmdl.
 58 61  0  0  0  0  0  0  0  0  1 V2000
  149.1351  142.2146  154.3416 O   0  0  0  0  0  0  0  0  0  0  0  0
  147.7987  141.7657  154.4004 C   0  0  0  0  0  0  0  0  0  0  0  0
  147.5389  140.7462  153.2798 C   0  0  0  0  0  0  0  0  0  0  0  0
  147.0712  139.3756  153.8104 C   0  0  1  0  0  0  0  0  0  0  0  0
  146.0905  138.7910  152.8940 N   0  0  0  0  0  0  0  0  0  0  0  0
  145.4537  137.6283  153.1577 C   0  0  0  0  0  0  0  0  0  0  0  0
  144.9289  137.3637  154.3829 N   0  0  0  0  0  0  0  0  0  0  0  0
  144.3021  136.2049  154.6083 C   0  0  0  0  0  0  0  0  0  0  0  0
  144.0893  135.1925  153.7642 N   0  0  0  0  0  0  0  0  0  0  0  0
  144.6153  135.4555  152.5330 C   0  0  0  0  0  0  0  0  0  0  0  0
  145.3066  136.6385  152.1524 C   0  0  0  0  0  0  0  0  0  0  0  0
  145.6909  136.5502  150.8204 N   0  0  0  0  0  0  0  0  0  0  0  0
  145.2435  135.3835  150.4391 C   0  0  0  0  0  0  0  0  0  0  0  0
  144.5826  134.6605  151.4098 N   0  0  0  0  0  0  0  0  0  0  0  0
  143.9390  133.3162  151.3129 C   0  0  2  0  0  0  0  0  0  0  0  0
  144.5508  132.4845  152.2536 O   0  0  0  0  0  0  0  0  0  0  0  0
  145.0670  131.3114  151.6325 C   0  0  2  0  0  0  0  0  0  0  0  0
  146.2921  130.7747  152.3936 C   0  0  0  0  0  0  0  0  0  0  0  0
  146.8417  129.6696  151.7091 O   0  0  0  0  0  0  0  0  0  0  0  0
  145.3204  131.7308  150.1784 C   0  0  2  0  0  0  0  0  0  0  0  0
  146.5830  132.3557  150.0280 O   0  0  0  0  0  0  0  0  0  0  0  0
  144.2003  132.7261  149.9183 C   0  0  1  0  0  0  0  0  0  0  0  0
  143.0511  132.0744  149.4159 O   0  0  0  0  0  0  0  0  0  0  0  0
  148.2537  138.4074  154.0783 C   0  0  0  0  0  0  0  0  0  0  0  0
  147.9485  137.3238  155.1397 C   0  0  0  0  0  0  0  0  0  0  0  0
  149.1335  136.3611  155.3238 C   0  0  0  0  0  0  0  0  0  0  0  0
  150.4229  137.1194  155.6725 C   0  0  0  0  0  0  0  0  0  0  0  0
  150.7372  138.1899  154.6167 C   0  0  0  0  0  0  0  0  0  0  0  0
  149.5557  139.1564  154.4372 C   0  0  0  0  0  0  0  0  0  0  0  0
  142.8876  133.4937  151.5447 H   0  0  0  0  0  0  0  0  0  0  0  0
  144.2741  130.5609  151.6259 H   0  0  0  0  0  0  0  0  0  0  0  0
  145.2872  130.8788  149.4979 H   0  0  0  0  0  0  0  0  0  0  0  0
  144.4831  133.5007  149.2031 H   0  0  0  0  0  0  0  0  0  0  0  0
  149.1940  143.0402  154.7981 H   0  0  0  0  0  0  0  0  0  0  0  0
  147.6164  141.3190  155.3783 H   0  0  0  0  0  0  0  0  0  0  0  0
  147.1358  142.6263  154.3064 H   0  0  0  0  0  0  0  0  0  0  0  0
  146.8046  141.1520  152.5832 H   0  0  0  0  0  0  0  0  0  0  0  0
  148.4607  140.6165  152.7111 H   0  0  0  0  0  0  0  0  0  0  0  0
  146.6096  139.5811  154.7761 H   0  0  0  0  0  0  0  0  0  0  0  0
  145.9158  139.3236  152.0538 H   0  0  0  0  0  0  0  0  0  0  0  0
  143.9142  136.0712  155.6074 H   0  0  0  0  0  0  0  0  0  0  0  0
  145.3793  135.0223  149.4301 H   0  0  0  0  0  0  0  0  0  0  0  0
  147.0661  131.5406  152.4477 H   0  0  0  0  0  0  0  0  0  0  0  0
  146.0350  130.4965  153.4162 H   0  0  0  0  0  0  0  0  0  0  0  0
  147.6645  129.9318  151.3252 H   0  0  0  0  0  0  0  0  0  0  0  0
  147.2553  131.7365  150.2678 H   0  0  0  0  0  0  0  0  0  0  0  0
  142.3465  132.7029  149.3718 H   0  0  0  0  0  0  0  0  0  0  0  0
  148.4506  137.8884  153.1388 H   0  0  0  0  0  0  0  0  0  0  0  0
  147.7160  137.7911  156.0974 H   0  0  0  0  0  0  0  0  0  0  0  0
  147.0683  136.7477  154.8560 H   0  0  0  0  0  0  0  0  0  0  0  0
  148.9049  135.6374  156.1069 H   0  0  0  0  0  0  0  0  0  0  0  0
  149.2834  135.7879  154.4079 H   0  0  0  0  0  0  0  0  0  0  0  0
  150.3176  137.5900  156.6508 H   0  0  0  0  0  0  0  0  0  0  0  0
  151.2560  136.4204  155.7525 H   0  0  0  0  0  0  0  0  0  0  0  0
  151.6297  138.7455  154.9057 H   0  0  0  0  0  0  0  0  0  0  0  0
  150.9662  137.7096  153.6647 H   0  0  0  0  0  0  0  0  0  0  0  0
  149.7956  139.8819  153.6592 H   0  0  0  0  0  0  0  0  0  0  0  0
  149.4200  139.7246  155.3581 H   0  0  0  0  0  0  0  0  0  0  0  0
  1  2  1  0  0  0  0
  1 34  1  0  0  0  0
  2  3  1  0  0  0  0
  2 35  1  0  0  0  0
  2 36  1  0  0  0  0
  3  4  1  0  0  0  0
  3 37  1  0  0  0  0
  3 38  1  0  0  0  0
  4  5  1  0  0  0  0
  4 24  1  0  0  0  0
  4 39  1  0  0  0  0
  5  6  1  0  0  0  0
  5 40  1  0  0  0  0
  6 11  1  0  0  0  0
  6  7  2  0  0  0  0
  7  8  1  0  0  0  0
  8  9  2  0  0  0  0
  8 41  1  0  0  0  0
  9 10  1  0  0  0  0
 10 14  1  0  0  0  0
 10 11  2  0  0  0  0
 11 12  1  0  0  0  0
 12 13  2  0  0  0  0
 13 14  1  0  0  0  0
 13 42  1  0  0  0  0
 14 15  1  0  0  0  0
 15 30  1  0  0  0  0
 15 22  1  0  0  0  0
 15 16  1  0  0  0  0
 16 17  1  0  0  0  0
 17 31  1  0  0  0  0
 17 18  1  0  0  0  0
 17 20  1  0  0  0  0
 18 19  1  0  0  0  0
 18 43  1  0  0  0  0
 18 44  1  0  0  0  0
 19 45  1  0  0  0  0
 20 32  1  0  0  0  0
 20 21  1  0  0  0  0
 20 22  1  0  0  0  0
 21 46  1  0  0  0  0
 22 33  1  0  0  0  0
 22 23  1  0  0  0  0
 23 47  1  0  0  0  0
 24 29  1  0  0  0  0
 24 25  1  0  0  0  0
 24 48  1  0  0  0  0
 25 26  1  0  0  0  0
 25 49  1  0  0  0  0
 25 50  1  0  0  0  0
 26 27  1  0  0  0  0
 26 51  1  0  0  0  0
 26 52  1  0  0  0  0
 27 28  1  0  0  0  0
 27 53  1  0  0  0  0
 27 54  1  0  0  0  0
 28 29  1  0  0  0  0
 28 55  1  0  0  0  0
 28 56  1  0  0  0  0
 29 57  1  0  0  0  0
 29 58  1  0  0  0  0
M  END
> <s_m_source_file>
AV-unprocessed.smi

> <i_m_source_file_index>
109

> <i_lp_mmshare_version>
43012

> <i_f3d_flags>
0

> <s_epik_input>
W0NIMl0xW0NIMl1bQ0gyXVtDSDJdW0NIMl1bQ0hdMVtDQEhdKFtDSDJdW0NIMl1bT0hdKVtOSF1jKG5bY0hdbjIpYyhjMjMpbltjSF1uM1tDQEBIXTRPW0NASF0oW0NIMl1bT0hdKVtDQEBIXShbT0hdKVtDQEhdNFtPSF0=

> <s_epik_cmdline>
J2VwaWtfcHl0aG9uJywgJy1waCcsICc3LjAnLCAnLXRuJywgJzgnLCAnLW1hJywgJzIwMCcsICctbWV0YWxfYmluZGluZycsICctaW1hZScsICc8aW5maWxlLm1hZT4nLCAnLW9tYWUnLCAnPG91dGZpbGUubWFlPic=

> <r_lp_tautomer_probability>
1

> <r_epik_Ionization_Penalty>
0.000793976

> <r_epik_Ionization_Penalty_Charging>
0

> <r_epik_Ionization_Penalty_Neutral>
0.000793976

> <r_epik_State_Penalty>
-0

> <r_epik_Charging_Adjusted_Penalty>
0

> <i_epik_Tot_Q>
0

> <i_epik_Tot_abs_Q>
0

> <r_epik_Metal_State_Penalty>
-0

> <b_epik_Metal_Only>
0

> <s_epik_Chemistry_Notes>
This compound contains an acetal/aminal-like group ( X-CH(R)-Y where X, Y are N, S, or O) that may be acid/base labile, releasing an aldehyde.

> <s_lp_Force_Field>
OPLS_2005

> <r_lp_Energy>
47.8615

> <b_lp_Chiralities_Consistent>
1

> <s_lp_Variant>
AV-unprocessed.smi:109-10

> <Gold.Version>
5.8.1

> <Gold.Id.Protein>
6NUR|6NUR_protein|mol2

> <Gold.PLP.Fitness>
60.3629

> <Gold.PLP.PLP>
-46.1528

> <Gold.PLP.part.hbond>
-8.1908

> <Gold.PLP.part.metal>
0.0000

> <Gold.PLP.part.buried>
-7.7391

> <Gold.PLP.part.nonpolar>
-34.1936

> <Gold.PLP.part.repulsive>
2.6329

> <Gold.PLP.ligand.clash>
0.0000

> <Gold.PLP.ligand.torsion>
1.8279

> <Gold.PLP.Chemscore.Hbond>
4.8831

> <Gold.PLP.Chemscore.CHOScore>
0.9974

> <Gold.PLP.Chemscore.Metal>
0.0000

> <Gold.Chemscore.Hbonds>
donor molecule, donor type, donor heavy atom, donor atom, acceptor molecule, acceptor atom, score
      L1  H     1    34       P1  8028  1.00
      L1  H    19    45       P1 10747  1.00
      L1  H    21    46       P1 10747  1.00
      L1  H    23    47       P1 10186  0.63
      P1  H  8011  8017       L1     1  0.20
      P1  H 10785 10796       L1    23  0.94
      L1  C    13    42       P1  7921  0.81

> <Gold.PLP.Chemscore.Internal.Correction>
0.2244

> <Gold.Rescore>
     Score         DG    S(hbond)    S(metal)    S(lipo)     H(rot)  DE(clash)    DE(int)     intcor
     14.26     -18.19       4.77        0.00      92.08       5.47       2.12       1.81       ----

> <Gold.Chemscore.Fitness>
14.2587

> <Gold.Chemscore.DG>
-18.1889

> <Gold.Chemscore.ZeroCoef>
-5.4800

> <Gold.Chemscore.Hbond>
4.7691

> <Gold.Chemscore.Metal>
0.0000

> <Gold.Chemscore.Lipo>
92.0833

> <Gold.Chemscore.Internal_Hbond>
0.0000

> <Gold.Chemscore.DEClash>
2.1205

> <Gold.Chemscore.DEInternal>
1.8096

> <Gold.Chemscore.Rot>
5.4662

> <Gold.Chemscore.Internal.Correction>
   9.000000E+99

> <Gold.Chemscore.Hbonds>
donor molecule, donor type, donor heavy atom, donor atom, acceptor molecule, acceptor atom, score
      L1  H     1    34       P1  8028  1.00
      L1  H    19    45       P1 10747  0.99
      L1  H    21    46       P1 10747  0.99
      L1  H    23    47       P1 10186  0.63
      P1  H  8011  8017       L1     1  0.13
      P1  H 10785 10796       L1    23  0.88

> <Gold.Chemscore.Hbond.Weighted>
-15.9286

> <Gold.Chemscore.Metal.Weighted>
-0.0000

> <Gold.Chemscore.Lipo.Weighted>
-10.7737

> <Gold.Chemscore.Internal_Hbond.Weighted>
0.0000

> <Gold.Chemscore.DEClash.Weighted>
2.1205

> <Gold.Chemscore.DEInternal.Weighted>
1.8096

> <Gold.Chemscore.Rot.Weighted>
13.9935

> <Gold.Chemscore.Internal.Correction.Weighted>
   9.000000E+99

> <Gold.Protein.RotatedTorsions>
[ 6907 6896 6895 6894 ] final   79.24 input  -60.11 | X-H torsion
[ 7974 7965 7964 7962 ] final  -98.89 input  175.53 | X-H torsion
[ 8008 7997 7996 7995 ] final  -42.41 input   59.86 | X-H torsion
[ 10167 10162 10161 10158 ] final  137.49 input  -65.29 | X-H torsion
[ 10718 10713 10712 10709 ] final   48.01 input   66.30 | X-H torsion
[ 10763 10752 10751 10750 ] final  -96.65 input  -60.55 | X-H torsion
[ 11005 11000 10999 10996 ] final  -30.13 input  -57.11 | X-H torsion

> <Gold.Protein.ActiveResidues>
 VAL166  LYS551  ARG553  GLY616  TRP617  ASP618  TYR619  PRO620  LYS621  CYS622 
 ASP623  PHE694  ASN695  SER759  ASP760  ASP761  ALA762  ILE779  LEU786  VAL792 
 PHE793  MET794  SER795  GLU796  ALA797  LYS798  CYS799  TRP800  GLU811  SER814 

> <Gold.Protein.RotatedAtoms>
  152.5191  134.3541  159.9261 H   0  0  0  0  0  0  0  0  0  0  0  0  # atno 6907 bound_to 6896
  151.3492  133.3925  159.2686 H   0  0  0  0  0  0  0  0  0  0  0  0  # atno 6908 bound_to 6896
  150.9740  134.9127  159.7863 H   0  0  0  0  0  0  0  0  0  0  0  0  # atno 6909 bound_to 6896
  145.3147  140.9408  143.2749 H   0  0  0  0  0  0  0  0  0  0  0  0  # atno 7974 bound_to 7965
  154.3999  140.1474  156.3350 H   0  0  0  0  0  0  0  0  0  0  0  0  # atno 8008 bound_to 7997
  155.8409  140.3462  155.5610 H   0  0  0  0  0  0  0  0  0  0  0  0  # atno 8009 bound_to 7997
  155.8088  140.0881  157.1906 H   0  0  0  0  0  0  0  0  0  0  0  0  # atno 8010 bound_to 7997
  139.5143  144.6407  151.5576 H   0  0  0  0  0  0  0  0  0  0  0  0  # atno 10167 bound_to 10162
  157.4643  130.8215  149.7919 H   0  0  0  0  0  0  0  0  0  0  0  0  # atno 10718 bound_to 10713
  154.7258  135.5076  153.8884 H   0  0  0  0  0  0  0  0  0  0  0  0  # atno 10763 bound_to 10752
  153.0903  135.6657  153.9875 H   0  0  0  0  0  0  0  0  0  0  0  0  # atno 10764 bound_to 10752
  153.9687  135.3040  155.3408 H   0  0  0  0  0  0  0  0  0  0  0  0  # atno 10765 bound_to 10752
  140.9356  133.7310  156.1000 H   0  0  0  0  0  0  0  0  0  0  0  0  # atno 11005 bound_to 11000
  144.8987  139.4678  143.6643 LP  0  0  0  0  0  0  0  0  0  0  0  0  # atno 17320 bound_to 7965
  146.3105  139.7728  142.9024 LP  0  0  0  0  0  0  0  0  0  0  0  0  # atno 17321 bound_to 7965
  140.6173  143.9325  150.6498 LP  0  0  0  0  0  0  0  0  0  0  0  0  # atno 17342 bound_to 10162
  140.2587  143.3540  152.1342 LP  0  0  0  0  0  0  0  0  0  0  0  0  # atno 17343 bound_to 10162
  156.0043  130.3863  150.2489 LP  0  0  0  0  0  0  0  0  0  0  0  0  # atno 17370 bound_to 10713
  157.0668  131.0105  151.3204 LP  0  0  0  0  0  0  0  0  0  0  0  0  # atno 17371 bound_to 10713
  140.7803  134.3733  157.5489 LP  0  0  0  0  0  0  0  0  0  0  0  0  # atno 17394 bound_to 11000
  139.8807  134.9077  156.2952 LP  0  0  0  0  0  0  0  0  0  0  0  0  # atno 17395 bound_to 11000

$$$$
