AV-unprocessed.smi:2566|AV-procd|sdf|10073|dock4
  -GOLD-   2272014103D 1   1.00000     0.00000
 Structure written by MMmdl.
 21 22  0  0  0  0  0  0  0  0  2 V2000
  152.3826  138.3461  154.6412 C   0  0  0  0  0  0  0  0  0  0  0  0
  151.6540  139.4560  154.7086 N   0  0  0  0  0  0  0  0  0  0  0  0
  150.3947  138.9352  154.7528 C   0  0  0  0  0  0  0  0  0  0  0  0
  149.1609  139.7738  154.8813 C   0  0  1  0  0  0  0  0  0  0  0  0
  149.4832  141.2790  154.9455 C   0  0  0  0  0  0  0  0  0  0  0  0
  148.2311  142.0600  154.9714 N   0  3  0  0  0  0  0  0  0  0  0  0
  147.3603  141.7225  153.8277 C   0  0  0  0  0  0  0  0  0  0  0  0
  147.1110  140.2043  153.7786 C   0  0  0  0  0  0  0  0  0  0  0  0
  148.3543  139.5112  153.7347 O   0  0  0  0  0  0  0  0  0  0  0  0
  150.3175  137.6090  154.7502 N   0  0  0  0  0  0  0  0  0  0  0  0
  151.6574  137.2039  154.6619 O   0  0  0  0  0  0  0  0  0  0  0  0
  153.4609  138.3269  154.5825 H   0  0  0  0  0  0  0  0  0  0  0  0
  148.6196  139.4658  155.7784 H   0  0  0  0  0  0  0  0  0  0  0  0
  150.0729  141.5113  155.8328 H   0  0  0  0  0  0  0  0  0  0  0  0
  150.0724  141.5799  154.0778 H   0  0  0  0  0  0  0  0  0  0  0  0
  147.7368  141.8515  155.8274 H   0  0  0  0  0  0  0  0  0  0  0  0
  146.4185  142.2642  153.9172 H   0  0  0  0  0  0  0  0  0  0  0  0
  147.8368  142.0554  152.9047 H   0  0  0  0  0  0  0  0  0  0  0  0
  146.5310  139.8769  154.6429 H   0  0  0  0  0  0  0  0  0  0  0  0
  146.5321  139.9472  152.8913 H   0  0  0  0  0  0  0  0  0  0  0  0
  148.4489  143.0463  154.9495 H   0  0  0  0  0  0  0  0  0  0  0  0
  1 11  1  0  0  0  0
  1  2  2  0  0  0  0
  1 12  1  0  0  0  0
  2  3  1  0  0  0  0
  3  4  1  0  0  0  0
  3 10  2  0  0  0  0
  4  9  1  0  0  0  0
  4  5  1  0  0  0  0
  4 13  1  0  0  0  0
  5  6  1  0  0  0  0
  5 14  1  0  0  0  0
  5 15  1  0  0  0  0
  6  7  1  0  0  0  0
  6 16  1  0  0  0  0
  6 21  1  0  0  0  0
  7  8  1  0  0  0  0
  7 17  1  0  0  0  0
  7 18  1  0  0  0  0
  8  9  1  0  0  0  0
  8 19  1  0  0  0  0
  8 20  1  0  0  0  0
 10 11  1  0  0  0  0
M  CHG  1   6   1
M  END
> <s_m_source_file>
AV-unprocessed.smi

> <i_m_source_file_index>
2566

> <i_lp_mmshare_version>
43012

> <i_f3d_flags>
0

> <s_epik_input>
bjFvW2NIXW5jMVtDQEBIXTJbQ0gyXVtOSF1bQ0gyXVtDSDJdTzI=

> <s_epik_cmdline>
J2VwaWtfcHl0aG9uJywgJy1waCcsICc3LjAnLCAnLXRuJywgJzgnLCAnLW1hJywgJzIwMCcsICctbWV0YWxfYmluZGluZycsICctaW1hZScsICc8aW5maWxlLm1hZT4nLCAnLW9tYWUnLCAnPG91dGZpbGUubWFlPic=

> <r_lp_tautomer_probability>
1

> <r_epik_Ionization_Penalty>
0.157575

> <r_epik_Ionization_Penalty_Charging>
0.157575

> <r_epik_Ionization_Penalty_Neutral>
8.82756e-14

> <r_epik_State_Penalty>
0.146877

> <r_epik_Charging_Adjusted_Penalty>
0.304452

> <i_epik_Tot_Q>
1

> <i_epik_Tot_abs_Q>
1

> <r_epik_Metal_State_Penalty>
0.146877

> <b_epik_Metal_Only>
0

> <s_lp_Force_Field>
OPLS_2005

> <r_lp_Energy>
9.76896

> <b_lp_Chiralities_Consistent>
1

> <s_lp_Variant>
AV-unprocessed.smi:2566-2

> <Gold.Version>
5.8.1

> <Gold.Id.Protein>
6NUR|6NUR_protein|mol2

> <Gold.PLP.Fitness>
32.3379

> <Gold.PLP.PLP>
-20.3463

> <Gold.PLP.part.hbond>
-3.0000

> <Gold.PLP.part.metal>
0.0000

> <Gold.PLP.part.buried>
-5.7954

> <Gold.PLP.part.nonpolar>
-14.0238

> <Gold.PLP.part.repulsive>
2.0763

> <Gold.PLP.ligand.clash>
0.0000

> <Gold.PLP.ligand.torsion>
0.0117

> <Gold.PLP.Chemscore.Hbond>
4.0000

> <Gold.PLP.Chemscore.CHOScore>
0.0000

> <Gold.PLP.Chemscore.Metal>
0.0000

> <Gold.Chemscore.Hbonds>
donor molecule, donor type, donor heavy atom, donor atom, acceptor molecule, acceptor atom, score
      L1  H     6    21       P1  8028  2.00
      P1  H  7989  7998       L1     2  1.00
      P1  H 10752 10764       L1    11  1.00

> <Gold.PLP.Chemscore.Internal.Correction>
0.0151

> <Gold.Rescore>
     Score         DG    S(hbond)    S(metal)    S(lipo)     H(rot)  DE(clash)    DE(int)     intcor
     14.58     -14.92       2.77        0.00      23.53       1.00       0.11       0.24       ----

> <Gold.Chemscore.Fitness>
14.5783

> <Gold.Chemscore.DG>
-14.9221

> <Gold.Chemscore.ZeroCoef>
-5.4800

> <Gold.Chemscore.Hbond>
2.7692

> <Gold.Chemscore.Metal>
0.0000

> <Gold.Chemscore.Lipo>
23.5303

> <Gold.Chemscore.Internal_Hbond>
0.0000

> <Gold.Chemscore.DEClash>
0.1061

> <Gold.Chemscore.DEInternal>
0.2377

> <Gold.Chemscore.Rot>
1.0000

> <Gold.Chemscore.Internal.Correction>
   9.000000E+99

> <Gold.Chemscore.Hbonds>
donor molecule, donor type, donor heavy atom, donor atom, acceptor molecule, acceptor atom, score
      L1  H     6    21       P1  8028  0.99
      P1  H  7989  7998       L1     2  0.64
      P1  H 10752 10764       L1    11  0.60

> <Gold.Chemscore.Hbond.Weighted>
-9.2490

> <Gold.Chemscore.Metal.Weighted>
-0.0000

> <Gold.Chemscore.Lipo.Weighted>
-2.7530

> <Gold.Chemscore.Internal_Hbond.Weighted>
0.0000

> <Gold.Chemscore.DEClash.Weighted>
0.1061

> <Gold.Chemscore.DEInternal.Weighted>
0.2377

> <Gold.Chemscore.Rot.Weighted>
2.5600

> <Gold.Chemscore.Internal.Correction.Weighted>
   9.000000E+99

> <Gold.Protein.RotatedTorsions>
[ 6907 6896 6895 6894 ] final  -89.91 input  -60.11 | X-H torsion
[ 7974 7965 7964 7962 ] final   28.09 input  175.53 | X-H torsion
[ 8008 7997 7996 7995 ] final -168.94 input   59.86 | X-H torsion
[ 10167 10162 10161 10158 ] final  -39.06 input  -65.29 | X-H torsion
[ 10718 10713 10712 10709 ] final  -64.82 input   66.30 | X-H torsion
[ 10763 10752 10751 10750 ] final  -72.54 input  -60.55 | X-H torsion
[ 11005 11000 10999 10996 ] final   96.17 input  -57.11 | X-H torsion

> <Gold.Protein.ActiveResidues>
 VAL166  LYS551  ARG553  GLY616  TRP617  ASP618  TYR619  PRO620  LYS621  CYS622 
 ASP623  PHE694  ASN695  SER759  ASP760  ASP761  ALA762  ILE779  LEU786  VAL792 
 PHE793  MET794  SER795  GLU796  ALA797  LYS798  CYS799  TRP800  GLU811  SER814 

> <Gold.Protein.RotatedAtoms>
  150.6877  134.2514  159.4511 H   0  0  0  0  0  0  0  0  0  0  0  0  # atno 6907 bound_to 6896
  152.0451  134.9685  160.0583 H   0  0  0  0  0  0  0  0  0  0  0  0  # atno 6908 bound_to 6896
  152.1172  133.4298  159.4695 H   0  0  0  0  0  0  0  0  0  0  0  0  # atno 6909 bound_to 6896
  146.1748  139.7103  142.8942 H   0  0  0  0  0  0  0  0  0  0  0  0  # atno 7974 bound_to 7965
  155.8982  140.1036  157.1369 H   0  0  0  0  0  0  0  0  0  0  0  0  # atno 8008 bound_to 7997
  154.4023  140.1297  156.4467 H   0  0  0  0  0  0  0  0  0  0  0  0  # atno 8009 bound_to 7997
  155.7453  140.3466  155.5126 H   0  0  0  0  0  0  0  0  0  0  0  0  # atno 8010 bound_to 7997
  140.7075  143.3237  151.2730 H   0  0  0  0  0  0  0  0  0  0  0  0  # atno 10167 bound_to 10162
  156.0706  130.4238  150.1475 H   0  0  0  0  0  0  0  0  0  0  0  0  # atno 10718 bound_to 10713
  154.4471  135.5926  153.6167 H   0  0  0  0  0  0  0  0  0  0  0  0  # atno 10763 bound_to 10752
  152.9810  135.6012  154.3650 H   0  0  0  0  0  0  0  0  0  0  0  0  # atno 10764 bound_to 10752
  154.3507  135.2841  155.2352 H   0  0  0  0  0  0  0  0  0  0  0  0  # atno 10765 bound_to 10752
  139.8783  134.8937  156.4119 H   0  0  0  0  0  0  0  0  0  0  0  0  # atno 11005 bound_to 11000
  145.4241  141.0409  143.2947 LP  0  0  0  0  0  0  0  0  0  0  0  0  # atno 17320 bound_to 7965
  144.8219  139.5777  143.6983 LP  0  0  0  0  0  0  0  0  0  0  0  0  # atno 17321 bound_to 7965
  139.6699  144.0038  152.2746 LP  0  0  0  0  0  0  0  0  0  0  0  0  # atno 17342 bound_to 10162
  139.9633  144.6543  150.8058 LP  0  0  0  0  0  0  0  0  0  0  0  0  # atno 17343 bound_to 10162
  156.9527  130.9780  151.3495 LP  0  0  0  0  0  0  0  0  0  0  0  0  # atno 17370 bound_to 10713
  157.5774  130.8353  149.8475 LP  0  0  0  0  0  0  0  0  0  0  0  0  # atno 17371 bound_to 10713
  140.9195  133.7655  155.9889 LP  0  0  0  0  0  0  0  0  0  0  0  0  # atno 17394 bound_to 11000
  140.8456  134.3015  157.5296 LP  0  0  0  0  0  0  0  0  0  0  0  0  # atno 17395 bound_to 11000

$$$$
