AV-unprocessed.smi:3158|AV-procd|sdf|12048|dock4
  -GOLD-   2272017473D 1   1.00000     0.00000
 Structure written by MMmdl.
 39 39  0  0  0  0  0  0  0  0  1 V2000
  145.8602  142.8139  153.9682 C   0  0  0  0  0  0  0  0  0  0  0  0
  147.1685  142.1148  154.3651 C   0  0  0  0  0  0  0  0  0  0  0  0
  147.0560  140.5803  154.4563 C   0  0  1  0  0  0  0  0  0  0  0  0
  146.8556  139.9431  153.0744 C   0  0  0  0  0  0  0  0  0  0  0  0
  148.2503  140.0074  155.0743 N   0  0  0  0  0  0  0  0  0  0  0  0
  149.5164  140.4012  154.8612 C   0  0  0  0  0  0  0  0  0  0  0  0
  149.8242  141.3102  154.0896 O   0  0  0  0  0  0  0  0  0  0  0  0
  150.6032  139.6720  155.6689 C   0  0  1  0  0  0  0  0  0  0  0  0
  151.6423  139.0310  154.7341 C   0  0  0  0  0  0  0  0  0  0  0  0
  151.2817  140.5407  156.6478 N   0  0  0  0  0  0  0  0  0  0  0  0
  150.7139  140.4902  157.9906 C   0  0  0  0  0  0  0  0  0  0  0  0
  151.6786  141.1603  158.9784 C   0  0  0  0  0  0  0  0  0  0  0  0
  151.8288  142.5746  158.6967 N   0  0  0  0  0  0  0  0  0  0  0  0
  152.6309  143.4956  159.3369 C   0  0  0  0  0  0  0  0  0  0  0  0
  152.4431  144.6976  158.7167 C   0  0  0  0  0  0  0  0  0  0  0  0
  151.4958  144.4067  157.6954 C   0  0  0  0  0  0  0  0  0  0  0  0
  151.1309  143.1349  157.6852 N   0  0  0  0  0  0  0  0  0  0  0  0
  146.0140  143.8874  153.8570 H   0  0  0  0  0  0  0  0  0  0  0  0
  145.0840  142.6705  154.7201 H   0  0  0  0  0  0  0  0  0  0  0  0
  145.4827  142.4319  153.0193 H   0  0  0  0  0  0  0  0  0  0  0  0
  147.9322  142.3718  153.6301 H   0  0  0  0  0  0  0  0  0  0  0  0
  147.5177  142.5178  155.3166 H   0  0  0  0  0  0  0  0  0  0  0  0
  146.1737  140.3394  155.0518 H   0  0  0  0  0  0  0  0  0  0  0  0
  145.9546  140.3249  152.5935 H   0  0  0  0  0  0  0  0  0  0  0  0
  146.7519  138.8602  153.1530 H   0  0  0  0  0  0  0  0  0  0  0  0
  147.6986  140.1502  152.4143 H   0  0  0  0  0  0  0  0  0  0  0  0
  148.1006  139.2565  155.7324 H   0  0  0  0  0  0  0  0  0  0  0  0
  150.1246  138.8607  156.2208 H   0  0  0  0  0  0  0  0  0  0  0  0
  151.1679  138.3651  154.0123 H   0  0  0  0  0  0  0  0  0  0  0  0
  152.3613  138.4374  155.2997 H   0  0  0  0  0  0  0  0  0  0  0  0
  152.2029  139.7824  154.1761 H   0  0  0  0  0  0  0  0  0  0  0  0
  151.3258  141.4978  156.3281 H   0  0  0  0  0  0  0  0  0  0  0  0
  149.7514  141.0022  158.0224 H   0  0  0  0  0  0  0  0  0  0  0  0
  150.5447  139.4516  158.2787 H   0  0  0  0  0  0  0  0  0  0  0  0
  151.3234  141.0442  160.0038 H   0  0  0  0  0  0  0  0  0  0  0  0
  152.6628  140.6921  158.9282 H   0  0  0  0  0  0  0  0  0  0  0  0
  153.2622  143.2215  160.1693 H   0  0  0  0  0  0  0  0  0  0  0  0
  152.9113  145.6407  158.9557 H   0  0  0  0  0  0  0  0  0  0  0  0
  151.0657  145.0772  156.9660 H   0  0  0  0  0  0  0  0  0  0  0  0
  1  2  1  0  0  0  0
  1 18  1  0  0  0  0
  1 19  1  0  0  0  0
  1 20  1  0  0  0  0
  2  3  1  0  0  0  0
  2 21  1  0  0  0  0
  2 22  1  0  0  0  0
  3  4  1  0  0  0  0
  3  5  1  0  0  0  0
  3 23  1  0  0  0  0
  4 24  1  0  0  0  0
  4 25  1  0  0  0  0
  4 26  1  0  0  0  0
  5  6  1  0  0  0  0
  5 27  1  0  0  0  0
  6  7  2  0  0  0  0
  6  8  1  0  0  0  0
  8  9  1  0  0  0  0
  8 10  1  0  0  0  0
  8 28  1  0  0  0  0
  9 29  1  0  0  0  0
  9 30  1  0  0  0  0
  9 31  1  0  0  0  0
 10 11  1  0  0  0  0
 10 32  1  0  0  0  0
 11 12  1  0  0  0  0
 11 33  1  0  0  0  0
 11 34  1  0  0  0  0
 12 13  1  0  0  0  0
 12 35  1  0  0  0  0
 12 36  1  0  0  0  0
 13 17  1  0  0  0  0
 13 14  1  0  0  0  0
 14 15  2  0  0  0  0
 14 37  1  0  0  0  0
 15 16  1  0  0  0  0
 15 38  1  0  0  0  0
 16 17  2  0  0  0  0
 16 39  1  0  0  0  0
M  END
> <s_m_source_file>
AV-unprocessed.smi

> <i_m_source_file_index>
3158

> <i_lp_mmshare_version>
43012

> <i_f3d_flags>
0

> <s_epik_input>
W0NIM11bQ0gyXVtDQEhdKFtDSDNdKVtOSF1DKD1PKVtDQEhdKFtDSDNdKVtOSF1bQ0gyXVtDSDJdbjFbY0hdW2NIXVtjSF1uMQ==

> <s_epik_cmdline>
J2VwaWtfcHl0aG9uJywgJy1waCcsICc3LjAnLCAnLXRuJywgJzgnLCAnLW1hJywgJzIwMCcsICctbWV0YWxfYmluZGluZycsICctaW1hZScsICc8aW5maWxlLm1hZT4nLCAnLW9tYWUnLCAnPG91dGZpbGUubWFlPic=

> <r_lp_tautomer_probability>
1

> <r_epik_Ionization_Penalty>
0.724013

> <r_epik_Ionization_Penalty_Charging>
0

> <r_epik_Ionization_Penalty_Neutral>
0.724013

> <r_epik_State_Penalty>
0.74758

> <r_epik_Charging_Adjusted_Penalty>
0.74758

> <i_epik_Tot_Q>
0

> <i_epik_Tot_abs_Q>
0

> <r_epik_Metal_State_Penalty>
0.746846

> <b_epik_Metal_Only>
0

> <s_lp_Force_Field>
OPLS_2005

> <r_lp_Energy>
5.19136

> <b_lp_Chiralities_Consistent>
1

> <s_lp_Variant>
AV-unprocessed.smi:3158-8

> <Gold.Version>
5.8.1

> <Gold.Id.Protein>
6NUR|6NUR_protein|mol2

> <Gold.PLP.Fitness>
41.7049

> <Gold.PLP.PLP>
-37.5316

> <Gold.PLP.part.hbond>
-1.8295

> <Gold.PLP.part.metal>
0.0000

> <Gold.PLP.part.buried>
-2.1822

> <Gold.PLP.part.nonpolar>
-35.1496

> <Gold.PLP.part.repulsive>
0.3516

> <Gold.PLP.ligand.clash>
0.0000

> <Gold.PLP.ligand.torsion>
0.9460

> <Gold.PLP.Chemscore.Hbond>
1.0380

> <Gold.PLP.Chemscore.CHOScore>
0.9391

> <Gold.PLP.Chemscore.Metal>
0.0000

> <Gold.Chemscore.Hbonds>
donor molecule, donor type, donor heavy atom, donor atom, acceptor molecule, acceptor atom, score
      P1  H  7989  7998       L1     7  0.34
      P1  H  8011  8017       L1     7  0.61
      L1  C    16    39       P1  8028  0.96

> <Gold.PLP.Chemscore.Internal.Correction>
0.1341

> <Gold.Rescore>
     Score         DG    S(hbond)    S(metal)    S(lipo)     H(rot)  DE(clash)    DE(int)     intcor
      9.71     -13.22       0.84        0.00      88.55       2.12       0.12       3.39       ----

> <Gold.Chemscore.Fitness>
9.7108

> <Gold.Chemscore.DG>
-13.2151

> <Gold.Chemscore.ZeroCoef>
-5.4800

> <Gold.Chemscore.Hbond>
0.8414

> <Gold.Chemscore.Metal>
0.0000

> <Gold.Chemscore.Lipo>
88.5523

> <Gold.Chemscore.Internal_Hbond>
0.0000

> <Gold.Chemscore.DEClash>
0.1181

> <Gold.Chemscore.DEInternal>
3.3861

> <Gold.Chemscore.Rot>
2.1234

> <Gold.Chemscore.Internal.Correction>
   9.000000E+99

> <Gold.Chemscore.Hbonds>
donor molecule, donor type, donor heavy atom, donor atom, acceptor molecule, acceptor atom, score
      P1  H  7989  7998       L1     7  0.19
      P1  H  8011  8017       L1     7  0.61

> <Gold.Chemscore.Hbond.Weighted>
-2.8103

> <Gold.Chemscore.Metal.Weighted>
-0.0000

> <Gold.Chemscore.Lipo.Weighted>
-10.3606

> <Gold.Chemscore.Internal_Hbond.Weighted>
0.0000

> <Gold.Chemscore.DEClash.Weighted>
0.1181

> <Gold.Chemscore.DEInternal.Weighted>
3.3861

> <Gold.Chemscore.Rot.Weighted>
5.4359

> <Gold.Chemscore.Internal.Correction.Weighted>
   9.000000E+99

> <Gold.Protein.RotatedTorsions>
[ 6907 6896 6895 6894 ] final  107.75 input  -60.11 | X-H torsion
[ 7974 7965 7964 7962 ] final  -44.18 input  175.53 | X-H torsion
[ 8008 7997 7996 7995 ] final   16.30 input   59.86 | X-H torsion
[ 10167 10162 10161 10158 ] final -129.33 input  -65.29 | X-H torsion
[ 10718 10713 10712 10709 ] final  158.30 input   66.30 | X-H torsion
[ 10763 10752 10751 10750 ] final  124.42 input  -60.55 | X-H torsion
[ 11005 11000 10999 10996 ] final  154.75 input  -57.11 | X-H torsion

> <Gold.Protein.ActiveResidues>
 VAL166  LYS551  ARG553  GLY616  TRP617  ASP618  TYR619  PRO620  LYS621  CYS622 
 ASP623  PHE694  ASN695  SER759  ASP760  ASP761  ALA762  ILE779  LEU786  VAL792 
 PHE793  MET794  SER795  GLU796  ALA797  LYS798  CYS799  TRP800  GLU811  SER814 

> <Gold.Protein.RotatedAtoms>
  152.5141  133.9189  159.7524 H   0  0  0  0  0  0  0  0  0  0  0  0  # atno 6907 bound_to 6896
  150.9565  133.6483  159.2769 H   0  0  0  0  0  0  0  0  0  0  0  0  # atno 6908 bound_to 6896
  151.3743  135.0933  159.9528 H   0  0  0  0  0  0  0  0  0  0  0  0  # atno 6909 bound_to 6896
  145.9946  140.7143  142.9300 H   0  0  0  0  0  0  0  0  0  0  0  0  # atno 7974 bound_to 7965
  154.8750  140.2964  155.5459 H   0  0  0  0  0  0  0  0  0  0  0  0  # atno 8008 bound_to 7997
  156.3022  140.2453  156.3678 H   0  0  0  0  0  0  0  0  0  0  0  0  # atno 8009 bound_to 7997
  154.8777  140.0399  157.1752 H   0  0  0  0  0  0  0  0  0  0  0  0  # atno 8010 bound_to 7997
  139.9409  143.6164  152.2504 H   0  0  0  0  0  0  0  0  0  0  0  0  # atno 10167 bound_to 10162
  157.1797  131.0629  151.2138 H   0  0  0  0  0  0  0  0  0  0  0  0  # atno 10718 bound_to 10713
  153.6610  135.3346  155.3127 H   0  0  0  0  0  0  0  0  0  0  0  0  # atno 10763 bound_to 10752
  154.8514  135.4363  154.1804 H   0  0  0  0  0  0  0  0  0  0  0  0  # atno 10764 bound_to 10752
  153.2771  135.7005  153.7498 H   0  0  0  0  0  0  0  0  0  0  0  0  # atno 10765 bound_to 10752
  140.1517  134.8670  157.2463 H   0  0  0  0  0  0  0  0  0  0  0  0  # atno 11005 bound_to 11000
  144.6899  140.3128  143.7245 LP  0  0  0  0  0  0  0  0  0  0  0  0  # atno 17320 bound_to 7965
  145.7579  139.1815  143.2284 LP  0  0  0  0  0  0  0  0  0  0  0  0  # atno 17321 bound_to 7965
  139.6705  144.7661  151.1792 LP  0  0  0  0  0  0  0  0  0  0  0  0  # atno 17342 bound_to 10162
  140.7611  143.5872  150.8833 LP  0  0  0  0  0  0  0  0  0  0  0  0  # atno 17343 bound_to 10162
  157.3964  130.7309  149.6735 LP  0  0  0  0  0  0  0  0  0  0  0  0  # atno 17370 bound_to 10713
  155.9726  130.4132  150.4073 LP  0  0  0  0  0  0  0  0  0  0  0  0  # atno 17371 bound_to 10713
  140.2596  134.3587  155.7411 LP  0  0  0  0  0  0  0  0  0  0  0  0  # atno 17394 bound_to 11000
  141.2200  133.7362  156.9060 LP  0  0  0  0  0  0  0  0  0  0  0  0  # atno 17395 bound_to 11000

$$$$
