AV-unprocessed.smi:1259|AV-procd|sdf|5291|dock4
  -GOLD-   22720 4413D 1   1.00000     0.00000
 Structure written by MMmdl.
 34 35  0  0  0  0  0  0  0  0  1 V2000
  146.8057  138.6917  152.4280 C   0  0  0  0  0  0  0  0  0  0  0  0
  147.1467  139.9401  153.1870 C   0  0  0  0  0  0  0  0  0  0  0  0
  148.2925  140.1893  153.9970 C   0  0  0  0  0  0  0  0  0  0  0  0
  148.0805  141.4687  154.4331 C   0  0  0  0  0  0  0  0  0  0  0  0
  148.8551  142.2338  155.2475 N   0  0  0  0  0  0  0  0  0  0  0  0
  149.8732  141.8544  156.0396 C   0  0  0  0  0  0  0  0  0  0  0  0
  150.2832  140.7011  156.1718 O   0  0  0  0  0  0  0  0  0  0  0  0
  150.4017  142.9061  156.6823 N   0  0  0  0  0  0  0  0  0  0  0  0
  151.5285  142.8530  157.6085 C   0  0  2  0  0  0  0  0  0  0  0  0
  151.1587  141.9325  158.7798 C   0  0  0  0  0  0  0  0  0  0  0  0
  151.9619  144.2201  158.1106 C   0  0  0  0  0  0  0  0  0  0  0  0
  152.4609  144.4192  159.5226 C   0  0  0  0  0  0  0  0  0  0  0  0
  151.1224  144.9841  159.1070 C   0  0  0  0  0  0  0  0  0  0  0  0
  146.8921  141.9264  153.9084 N   0  0  0  0  0  0  0  0  0  0  0  0
  146.2385  143.2089  154.0823 C   0  0  0  0  0  0  0  0  0  0  0  0
  146.3171  140.9763  153.1398 N   0  0  0  0  0  0  0  0  0  0  0  0
  147.5945  137.9452  152.5234 H   0  0  0  0  0  0  0  0  0  0  0  0
  146.6742  138.9004  151.3660 H   0  0  0  0  0  0  0  0  0  0  0  0
  145.8819  138.2470  152.7987 H   0  0  0  0  0  0  0  0  0  0  0  0
  149.1176  139.5263  154.2090 H   0  0  0  0  0  0  0  0  0  0  0  0
  148.6366  143.2192  155.2467 H   0  0  0  0  0  0  0  0  0  0  0  0
  149.9995  143.8162  156.5123 H   0  0  0  0  0  0  0  0  0  0  0  0
  152.3774  142.3967  157.0955 H   0  0  0  0  0  0  0  0  0  0  0  0
  151.9954  141.8206  159.4699 H   0  0  0  0  0  0  0  0  0  0  0  0
  150.8898  140.9359  158.4281 H   0  0  0  0  0  0  0  0  0  0  0  0
  150.3132  142.3274  159.3443 H   0  0  0  0  0  0  0  0  0  0  0  0
  152.4451  144.8280  157.3474 H   0  0  0  0  0  0  0  0  0  0  0  0
  152.4551  143.5606  160.1912 H   0  0  0  0  0  0  0  0  0  0  0  0
  153.2804  145.1195  159.6703 H   0  0  0  0  0  0  0  0  0  0  0  0
  151.0484  146.0621  158.9792 H   0  0  0  0  0  0  0  0  0  0  0  0
  150.2305  144.4984  159.4985 H   0  0  0  0  0  0  0  0  0  0  0  0
  145.7617  143.2447  155.0618 H   0  0  0  0  0  0  0  0  0  0  0  0
  145.4814  143.3597  153.3117 H   0  0  0  0  0  0  0  0  0  0  0  0
  146.9726  144.0118  154.0130 H   0  0  0  0  0  0  0  0  0  0  0  0
  1  2  1  0  0  0  0
  1 17  1  0  0  0  0
  1 18  1  0  0  0  0
  1 19  1  0  0  0  0
  2 16  2  0  0  0  0
  2  3  1  0  0  0  0
  3  4  2  0  0  0  0
  3 20  1  0  0  0  0
  4  5  1  0  0  0  0
  4 14  1  0  0  0  0
  5  6  1  0  0  0  0
  5 21  1  0  0  0  0
  6  7  2  0  0  0  0
  6  8  1  0  0  0  0
  8  9  1  0  0  0  0
  8 22  1  0  0  0  0
  9 10  1  0  0  0  0
  9 11  1  0  0  0  0
  9 23  1  0  0  0  0
 10 24  1  0  0  0  0
 10 25  1  0  0  0  0
 10 26  1  0  0  0  0
 11 13  1  0  0  0  0
 11 12  1  0  0  0  0
 11 27  1  0  0  0  0
 12 13  1  0  0  0  0
 12 28  1  0  0  0  0
 12 29  1  0  0  0  0
 13 30  1  0  0  0  0
 13 31  1  0  0  0  0
 14 15  1  0  0  0  0
 14 16  1  0  0  0  0
 15 32  1  0  0  0  0
 15 33  1  0  0  0  0
 15 34  1  0  0  0  0
M  END
> <s_m_source_file>
AV-unprocessed.smi

> <i_m_source_file_index>
1259

> <i_lp_mmshare_version>
43012

> <i_f3d_flags>
0

> <s_epik_input>
W0NIM11jMVtjSF1jKG4objEpW0NIM10pW05IXUMoPU8pW05IXVtDQEhdKFtDSDNdKVtDSF0yW0NIMl1bQ0gyXTI=

> <s_epik_cmdline>
J2VwaWtfcHl0aG9uJywgJy1waCcsICc3LjAnLCAnLXRuJywgJzgnLCAnLW1hJywgJzIwMCcsICctbWV0YWxfYmluZGluZycsICctaW1hZScsICc8aW5maWxlLm1hZT4nLCAnLW9tYWUnLCAnPG91dGZpbGUubWFlPic=

> <r_lp_tautomer_probability>
1

> <r_epik_Ionization_Penalty>
0.000100032

> <r_epik_Ionization_Penalty_Charging>
0

> <r_epik_Ionization_Penalty_Neutral>
0.000100032

> <r_epik_State_Penalty>
-0

> <r_epik_Charging_Adjusted_Penalty>
0

> <i_epik_Tot_Q>
0

> <i_epik_Tot_abs_Q>
0

> <r_epik_Metal_State_Penalty>
-0

> <b_epik_Metal_Only>
0

> <s_lp_Force_Field>
OPLS_2005

> <r_lp_Energy>
14.2457

> <b_lp_Chiralities_Consistent>
1

> <s_lp_Variant>
AV-unprocessed.smi:1259-1

> <Gold.Version>
5.8.1

> <Gold.Id.Protein>
6NUR|6NUR_protein|mol2

> <Gold.PLP.Fitness>
41.2775

> <Gold.PLP.PLP>
-35.5463

> <Gold.PLP.part.hbond>
-1.9386

> <Gold.PLP.part.metal>
0.0000

> <Gold.PLP.part.buried>
-3.5495

> <Gold.PLP.part.nonpolar>
-33.7377

> <Gold.PLP.part.repulsive>
2.8665

> <Gold.PLP.ligand.clash>
0.0000

> <Gold.PLP.ligand.torsion>
0.6308

> <Gold.PLP.Chemscore.Hbond>
1.9760

> <Gold.PLP.Chemscore.CHOScore>
0.0000

> <Gold.PLP.Chemscore.Metal>
0.0000

> <Gold.Chemscore.Hbonds>
donor molecule, donor type, donor heavy atom, donor atom, acceptor molecule, acceptor atom, score
      L1  H     5    21       P1  8028  1.00
      L1  H     8    22       P1  8028  0.98

> <Gold.PLP.Chemscore.Internal.Correction>
1.0647

> <Gold.Rescore>
     Score         DG    S(hbond)    S(metal)    S(lipo)     H(rot)  DE(clash)    DE(int)     intcor
     14.73     -18.81       1.91        0.00      85.75       1.20       1.61       2.47       ----

> <Gold.Chemscore.Fitness>
14.7284

> <Gold.Chemscore.DG>
-18.8061

> <Gold.Chemscore.ZeroCoef>
-5.4800

> <Gold.Chemscore.Hbond>
1.9052

> <Gold.Chemscore.Metal>
0.0000

> <Gold.Chemscore.Lipo>
85.7453

> <Gold.Chemscore.Internal_Hbond>
0.0000

> <Gold.Chemscore.DEClash>
1.6056

> <Gold.Chemscore.DEInternal>
2.4722

> <Gold.Chemscore.Rot>
1.1990

> <Gold.Chemscore.Internal.Correction>
   9.000000E+99

> <Gold.Chemscore.Hbonds>
donor molecule, donor type, donor heavy atom, donor atom, acceptor molecule, acceptor atom, score
      L1  H     5    21       P1  8028  0.94
      L1  H     8    22       P1  8028  0.92

> <Gold.Chemscore.Hbond.Weighted>
-6.3634

> <Gold.Chemscore.Metal.Weighted>
-0.0000

> <Gold.Chemscore.Lipo.Weighted>
-10.0322

> <Gold.Chemscore.Internal_Hbond.Weighted>
0.0000

> <Gold.Chemscore.DEClash.Weighted>
1.6056

> <Gold.Chemscore.DEInternal.Weighted>
2.4722

> <Gold.Chemscore.Rot.Weighted>
3.0695

> <Gold.Chemscore.Internal.Correction.Weighted>
   9.000000E+99

> <Gold.Protein.RotatedTorsions>
[ 6907 6896 6895 6894 ] final  -15.21 input  -60.11 | X-H torsion
[ 7974 7965 7964 7962 ] final -144.90 input  175.53 | X-H torsion
[ 8008 7997 7996 7995 ] final   98.82 input   59.86 | X-H torsion
[ 10167 10162 10161 10158 ] final  -92.77 input  -65.29 | X-H torsion
[ 10718 10713 10712 10709 ] final  -67.03 input   66.30 | X-H torsion
[ 10763 10752 10751 10750 ] final -110.59 input  -60.55 | X-H torsion
[ 11005 11000 10999 10996 ] final  159.74 input  -57.11 | X-H torsion

> <Gold.Protein.ActiveResidues>
 VAL166  LYS551  ARG553  GLY616  TRP617  ASP618  TYR619  PRO620  LYS621  CYS622 
 ASP623  PHE694  ASN695  SER759  ASP760  ASP761  ALA762  ILE779  LEU786  VAL792 
 PHE793  MET794  SER795  GLU796  ALA797  LYS798  CYS799  TRP800  GLU811  SER814 

> <Gold.Protein.RotatedAtoms>
  151.3274  135.0833  159.9326 H   0  0  0  0  0  0  0  0  0  0  0  0  # atno 6907 bound_to 6896
  152.5242  133.9577  159.7712 H   0  0  0  0  0  0  0  0  0  0  0  0  # atno 6908 bound_to 6896
  150.9909  133.6097  159.2738 H   0  0  0  0  0  0  0  0  0  0  0  0  # atno 6909 bound_to 6896
  144.8265  140.5652  143.5543 H   0  0  0  0  0  0  0  0  0  0  0  0  # atno 7974 bound_to 7965
  156.1042  140.3238  155.7984 H   0  0  0  0  0  0  0  0  0  0  0  0  # atno 8008 bound_to 7997
  155.4784  140.0552  157.2987 H   0  0  0  0  0  0  0  0  0  0  0  0  # atno 8009 bound_to 7997
  154.4717  140.2014  155.9993 H   0  0  0  0  0  0  0  0  0  0  0  0  # atno 8010 bound_to 7997
  140.3314  143.2992  151.9937 H   0  0  0  0  0  0  0  0  0  0  0  0  # atno 10167 bound_to 10162
  156.0579  130.4271  150.1795 H   0  0  0  0  0  0  0  0  0  0  0  0  # atno 10718 bound_to 10713
  154.8256  135.4558  154.0909 H   0  0  0  0  0  0  0  0  0  0  0  0  # atno 10763 bound_to 10752
  153.2226  135.6896  153.7989 H   0  0  0  0  0  0  0  0  0  0  0  0  # atno 10764 bound_to 10752
  153.7400  135.3314  155.3279 H   0  0  0  0  0  0  0  0  0  0  0  0  # atno 10765 bound_to 10752
  140.1991  134.8351  157.2998 H   0  0  0  0  0  0  0  0  0  0  0  0  # atno 11005 bound_to 11000
  145.4989  139.1484  143.3668 LP  0  0  0  0  0  0  0  0  0  0  0  0  # atno 17320 bound_to 7965
  146.2570  140.5128  142.8869 LP  0  0  0  0  0  0  0  0  0  0  0  0  # atno 17321 bound_to 7965
  139.4856  144.6231  151.7216 LP  0  0  0  0  0  0  0  0  0  0  0  0  # atno 17342 bound_to 10162
  140.5393  144.0605  150.6082 LP  0  0  0  0  0  0  0  0  0  0  0  0  # atno 17343 bound_to 10162
  156.9869  130.9881  151.3424 LP  0  0  0  0  0  0  0  0  0  0  0  0  # atno 17370 bound_to 10713
  157.5565  130.8217  149.8211 LP  0  0  0  0  0  0  0  0  0  0  0  0  # atno 17371 bound_to 10713
  140.2074  134.4181  155.7631 LP  0  0  0  0  0  0  0  0  0  0  0  0  # atno 17394 bound_to 11000
  141.2227  133.7101  156.8282 LP  0  0  0  0  0  0  0  0  0  0  0  0  # atno 17395 bound_to 11000

$$$$
