AV-unprocessed.smi:1239|AV-procd|sdf|5193|dock1
  -GOLD-   22720 4273D 1   1.00000     0.00000
 Structure written by MMmdl.
 48 49  0  0  0  0  0  0  0  0  4 V2000
  150.3261  134.1036  156.2140 C   0  0  0  0  0  0  0  0  0  0  0  0
  149.9031  135.1224  155.1255 C   0  0  2  0  0  0  0  0  0  0  0  0
  149.6944  136.5701  155.6520 C   0  0  0  0  0  0  0  0  0  0  0  0
  150.2015  137.5602  154.7004 N   0  5  0  0  0  0  0  0  0  0  0  0
  150.3091  138.8939  154.9443 C   0  0  0  0  0  0  0  0  0  0  0  0
  150.0942  139.8221  154.1567 O   0  0  0  0  0  0  0  0  0  0  0  0
  150.7309  139.1441  156.1966 N   0  0  0  0  0  0  0  0  0  0  0  0
  150.9299  140.3903  156.8496 C   0  0  0  0  0  0  0  0  0  0  0  0
  151.7236  140.4007  158.0146 C   0  0  0  0  0  0  0  0  0  0  0  0
  151.9302  141.6081  158.7126 C   0  0  0  0  0  0  0  0  0  0  0  0
  151.3301  142.8033  158.2456 C   0  0  0  0  0  0  0  0  0  0  0  0
  151.4867  144.0498  158.8897 N   0  0  0  0  0  0  0  0  0  0  0  0
  152.2064  144.1244  160.1563 C   0  0  0  0  0  0  0  0  0  0  0  0
  151.0092  145.2644  158.2420 C   0  0  0  0  0  0  0  0  0  0  0  0
  150.5647  142.7402  157.1286 N   0  3  0  0  0  0  0  0  0  0  0  0
  150.3415  141.6063  156.4298 C   0  0  0  0  0  0  0  0  0  0  0  0
  148.7101  134.6742  154.3418 N   0  3  0  0  0  0  0  0  0  0  0  0
  148.7839  133.2579  153.9042 C   0  0  0  0  0  0  0  0  0  0  0  0
  147.6213  132.9346  152.9501 C   0  0  0  0  0  0  0  0  0  0  0  0
  146.3807  133.2185  153.5855 O   0  0  0  0  0  0  0  0  0  0  0  0
  146.2645  134.5913  153.9404 C   0  0  0  0  0  0  0  0  0  0  0  0
  147.3746  134.9577  154.9380 C   0  0  0  0  0  0  0  0  0  0  0  0
  151.2842  134.3670  156.6659 H   0  0  0  0  0  0  0  0  0  0  0  0
  150.4513  133.1088  155.7861 H   0  0  0  0  0  0  0  0  0  0  0  0
  149.5986  134.0236  157.0235 H   0  0  0  0  0  0  0  0  0  0  0  0
  150.7308  135.1797  154.4169 H   0  0  0  0  0  0  0  0  0  0  0  0
  148.6331  136.7209  155.8567 H   0  0  0  0  0  0  0  0  0  0  0  0
  150.1853  136.6682  156.6201 H   0  0  0  0  0  0  0  0  0  0  0  0
  150.9768  138.3271  156.7363 H   0  0  0  0  0  0  0  0  0  0  0  0
  152.1775  139.4880  158.3730 H   0  0  0  0  0  0  0  0  0  0  0  0
  152.5463  141.5943  159.5990 H   0  0  0  0  0  0  0  0  0  0  0  0
  153.2327  143.7759  160.0350 H   0  0  0  0  0  0  0  0  0  0  0  0
  151.7175  143.5084  160.9116 H   0  0  0  0  0  0  0  0  0  0  0  0
  152.2425  145.1470  160.5332 H   0  0  0  0  0  0  0  0  0  0  0  0
  149.9312  145.2169  158.0848 H   0  0  0  0  0  0  0  0  0  0  0  0
  151.4975  145.4010  157.2766 H   0  0  0  0  0  0  0  0  0  0  0  0
  151.2176  146.1458  158.8491 H   0  0  0  0  0  0  0  0  0  0  0  0
  149.6904  141.7194  155.5761 H   0  0  0  0  0  0  0  0  0  0  0  0
  149.7290  133.0698  153.3934 H   0  0  0  0  0  0  0  0  0  0  0  0
  148.7511  132.6009  154.7744 H   0  0  0  0  0  0  0  0  0  0  0  0
  147.7073  133.5072  152.0253 H   0  0  0  0  0  0  0  0  0  0  0  0
  147.6440  131.8803  152.6742 H   0  0  0  0  0  0  0  0  0  0  0  0
  146.3173  135.2188  153.0491 H   0  0  0  0  0  0  0  0  0  0  0  0
  145.2854  134.7576  154.3899 H   0  0  0  0  0  0  0  0  0  0  0  0
  147.2379  134.3796  155.8527 H   0  0  0  0  0  0  0  0  0  0  0  0
  147.2873  136.0106  155.2071 H   0  0  0  0  0  0  0  0  0  0  0  0
  150.1253  143.5988  156.7969 H   0  0  0  0  0  0  0  0  0  0  0  0
  148.7535  135.2140  153.4889 H   0  0  0  0  0  0  0  0  0  0  0  0
  1  2  1  0  0  0  0
  1 23  1  0  0  0  0
  1 24  1  0  0  0  0
  1 25  1  0  0  0  0
  2  3  1  0  0  0  0
  2 17  1  0  0  0  0
  2 26  1  0  0  0  0
  3  4  1  0  0  0  0
  3 27  1  0  0  0  0
  3 28  1  0  0  0  0
  4  5  1  0  0  0  0
  5  6  2  0  0  0  0
  5  7  1  0  0  0  0
  7  8  1  0  0  0  0
  7 29  1  0  0  0  0
  8 16  1  0  0  0  0
  8  9  2  0  0  0  0
  9 10  1  0  0  0  0
  9 30  1  0  0  0  0
 10 11  2  0  0  0  0
 10 31  1  0  0  0  0
 11 12  1  0  0  0  0
 11 15  1  0  0  0  0
 12 13  1  0  0  0  0
 12 14  1  0  0  0  0
 13 32  1  0  0  0  0
 13 33  1  0  0  0  0
 13 34  1  0  0  0  0
 14 35  1  0  0  0  0
 14 36  1  0  0  0  0
 14 37  1  0  0  0  0
 15 16  2  0  0  0  0
 15 47  1  0  0  0  0
 16 38  1  0  0  0  0
 17 22  1  0  0  0  0
 17 18  1  0  0  0  0
 17 48  1  0  0  0  0
 18 19  1  0  0  0  0
 18 39  1  0  0  0  0
 18 40  1  0  0  0  0
 19 20  1  0  0  0  0
 19 41  1  0  0  0  0
 19 42  1  0  0  0  0
 20 21  1  0  0  0  0
 21 22  1  0  0  0  0
 21 43  1  0  0  0  0
 21 44  1  0  0  0  0
 22 45  1  0  0  0  0
 22 46  1  0  0  0  0
M  CHG  1   4  -1
M  CHG  1  15   1
M  CHG  1  17   1
M  END
> <s_m_source_file>
AV-unprocessed.smi

> <i_m_source_file_index>
1239

> <i_lp_mmshare_version>
43012

> <i_f3d_flags>
0

> <s_epik_input>
W0NIMl0xW0NIMl1PW0NIMl1bQ0gyXU4xW0NASF0oW0NIM10pW0NIMl1bTkhdQyg9TylbTkhdYzJbY0hdW2NIXWMoTihbQ0gzXSlbQ0gzXSluW2NIXTI=

> <s_epik_cmdline>
J2VwaWtfcHl0aG9uJywgJy1waCcsICc3LjAnLCAnLXRuJywgJzgnLCAnLW1hJywgJzIwMCcsICctbWV0YWxfYmluZGluZycsICctaW1hZScsICc8aW5maWxlLm1hZT4nLCAnLW9tYWUnLCAnPG91dGZpbGUubWFlPic=

> <r_lp_tautomer_probability>
0.999994

> <r_epik_Ionization_Penalty>
7.43905

> <r_epik_Ionization_Penalty_Charging>
7.43905

> <r_epik_Ionization_Penalty_Neutral>
3.43851e-06

> <r_epik_State_Penalty>
7.63789

> <r_epik_Charging_Adjusted_Penalty>
15.0769

> <i_epik_Tot_Q>
1

> <i_epik_Tot_abs_Q>
3

> <r_epik_Metal_State_Penalty>
3.83826

> <b_epik_Metal_Only>
1

> <s_lp_Force_Field>
OPLS_2005

> <r_lp_Energy>
24.2949

> <b_lp_Chiralities_Consistent>
1

> <s_lp_Variant>
AV-unprocessed.smi:1239-9

> <Gold.Version>
5.8.1

> <Gold.Id.Protein>
6NUR|6NUR_protein|mol2

> <Gold.PLP.Fitness>
51.6437

> <Gold.PLP.PLP>
-38.7204

> <Gold.PLP.part.hbond>
-3.0000

> <Gold.PLP.part.metal>
0.0000

> <Gold.PLP.part.buried>
-6.0749

> <Gold.PLP.part.nonpolar>
-30.9700

> <Gold.PLP.part.repulsive>
1.3690

> <Gold.PLP.ligand.clash>
0.0000

> <Gold.PLP.ligand.torsion>
1.1375

> <Gold.PLP.Chemscore.Hbond>
4.9825

> <Gold.PLP.Chemscore.CHOScore>
0.0000

> <Gold.PLP.Chemscore.Metal>
0.0000

> <Gold.Chemscore.Hbonds>
donor molecule, donor type, donor heavy atom, donor atom, acceptor molecule, acceptor atom, score
      L1  H    15    47       P1  8028  2.00
      L1  H    17    48       P1  7948  2.00
      P1  H  7989  7998       L1     6  1.00

> <Gold.PLP.Chemscore.Internal.Correction>
0.2508

> <Gold.Rescore>
     Score         DG    S(hbond)    S(metal)    S(lipo)     H(rot)  DE(clash)    DE(int)     intcor
     18.00     -20.37       2.89        0.00      77.09       1.48       0.09       2.28       ----

> <Gold.Chemscore.Fitness>
18.0030

> <Gold.Chemscore.DG>
-20.3687

> <Gold.Chemscore.ZeroCoef>
-5.4800

> <Gold.Chemscore.Hbond>
2.8938

> <Gold.Chemscore.Metal>
0.0000

> <Gold.Chemscore.Lipo>
77.0914

> <Gold.Chemscore.Internal_Hbond>
0.0000

> <Gold.Chemscore.DEClash>
0.0865

> <Gold.Chemscore.DEInternal>
2.2792

> <Gold.Chemscore.Rot>
1.4830

> <Gold.Chemscore.Internal.Correction>
   9.000000E+99

> <Gold.Chemscore.Hbonds>
donor molecule, donor type, donor heavy atom, donor atom, acceptor molecule, acceptor atom, score
      L1  H    15    47       P1  8028  0.94
      L1  H    17    48       P1  7948  0.78
      P1  H  7989  7998       L1     6  0.92

> <Gold.Chemscore.Hbond.Weighted>
-9.6654

> <Gold.Chemscore.Metal.Weighted>
-0.0000

> <Gold.Chemscore.Lipo.Weighted>
-9.0197

> <Gold.Chemscore.Internal_Hbond.Weighted>
0.0000

> <Gold.Chemscore.DEClash.Weighted>
0.0865

> <Gold.Chemscore.DEInternal.Weighted>
2.2792

> <Gold.Chemscore.Rot.Weighted>
3.7964

> <Gold.Chemscore.Internal.Correction.Weighted>
   9.000000E+99

> <Gold.Protein.RotatedTorsions>
[ 6907 6896 6895 6894 ] final  -17.85 input  -60.11 | X-H torsion
[ 7974 7965 7964 7962 ] final   79.95 input  175.53 | X-H torsion
[ 8008 7997 7996 7995 ] final  -85.74 input   59.86 | X-H torsion
[ 10167 10162 10161 10158 ] final  -79.48 input  -65.29 | X-H torsion
[ 10718 10713 10712 10709 ] final -135.17 input   66.30 | X-H torsion
[ 10763 10752 10751 10750 ] final  -84.82 input  -60.55 | X-H torsion
[ 11005 11000 10999 10996 ] final  -22.05 input  -57.11 | X-H torsion

> <Gold.Protein.ActiveResidues>
 VAL166  LYS551  ARG553  GLY616  TRP617  ASP618  TYR619  PRO620  LYS621  CYS622 
 ASP623  PHE694  ASN695  SER759  ASP760  ASP761  ALA762  ILE779  LEU786  VAL792 
 PHE793  MET794  SER795  GLU796  ALA797  LYS798  CYS799  TRP800  GLU811  SER814 

> <Gold.Protein.RotatedAtoms>
  151.2870  135.0731  159.9190 H   0  0  0  0  0  0  0  0  0  0  0  0  # atno 6907 bound_to 6896
  152.5323  133.9971  159.7888 H   0  0  0  0  0  0  0  0  0  0  0  0  # atno 6908 bound_to 6896
  151.0235  133.5804  159.2699 H   0  0  0  0  0  0  0  0  0  0  0  0  # atno 6909 bound_to 6896
  145.6576  139.2463  143.1941 H   0  0  0  0  0  0  0  0  0  0  0  0  # atno 7974 bound_to 7965
  154.6441  140.0587  156.9880 H   0  0  0  0  0  0  0  0  0  0  0  0  # atno 8008 bound_to 7997
  155.1472  140.3271  155.4420 H   0  0  0  0  0  0  0  0  0  0  0  0  # atno 8009 bound_to 7997
  156.2545  140.1954  156.6585 H   0  0  0  0  0  0  0  0  0  0  0  0  # atno 8010 bound_to 7997
  140.4590  143.2459  151.8377 H   0  0  0  0  0  0  0  0  0  0  0  0  # atno 10167 bound_to 10162
  156.2632  130.7222  151.1164 H   0  0  0  0  0  0  0  0  0  0  0  0  # atno 10718 bound_to 10713
  154.6039  135.5507  153.7403 H   0  0  0  0  0  0  0  0  0  0  0  0  # atno 10763 bound_to 10752
  153.0166  135.6373  154.1675 H   0  0  0  0  0  0  0  0  0  0  0  0  # atno 10764 bound_to 10752
  154.1614  135.2897  155.3087 H   0  0  0  0  0  0  0  0  0  0  0  0  # atno 10765 bound_to 10752
  140.8619  133.7782  156.0085 H   0  0  0  0  0  0  0  0  0  0  0  0  # atno 11005 bound_to 11000
  146.1152  140.7378  142.9484 LP  0  0  0  0  0  0  0  0  0  0  0  0  # atno 17320 bound_to 7965
  144.7100  140.4003  143.7088 LP  0  0  0  0  0  0  0  0  0  0  0  0  # atno 17321 bound_to 7965
  139.4804  144.5031  151.9034 LP  0  0  0  0  0  0  0  0  0  0  0  0  # atno 17342 bound_to 10162
  140.4117  144.2360  150.5889 LP  0  0  0  0  0  0  0  0  0  0  0  0  # atno 17343 bound_to 10162
  157.7258  131.0650  150.5937 LP  0  0  0  0  0  0  0  0  0  0  0  0  # atno 17370 bound_to 10713
  156.6026  130.4358  149.5891 LP  0  0  0  0  0  0  0  0  0  0  0  0  # atno 17371 bound_to 10713
  140.8672  134.2769  157.5207 LP  0  0  0  0  0  0  0  0  0  0  0  0  # atno 17394 bound_to 11000
  139.8707  134.9549  156.4189 LP  0  0  0  0  0  0  0  0  0  0  0  0  # atno 17395 bound_to 11000

$$$$
