AV-unprocessed.smi:1767|AV-procd|sdf|7140|dock1
  -GOLD-   22720 8383D 1   1.00000     0.00000
 Structure written by MMmdl.
 32 34  0  0  0  0  0  0  0  0  1 V2000
  152.8574  139.7541  158.0132 O   0  0  0  0  0  0  0  0  0  0  0  0
  152.1977  140.9843  158.2316 C   0  0  1  0  0  0  0  0  0  0  0  0
  150.6826  140.7594  158.0584 C   0  0  0  0  0  0  0  0  0  0  0  0
  150.2774  140.7985  156.6646 N   0  0  0  0  0  0  0  0  0  0  0  0
  150.9228  140.2444  155.6204 C   0  0  0  0  0  0  0  0  0  0  0  0
  150.3859  140.4078  154.4149 N   0  0  0  0  0  0  0  0  0  0  0  0
  149.2588  141.1552  154.7103 C   0  0  0  0  0  0  0  0  0  0  0  0
  148.2523  141.6703  153.8624 C   0  0  0  0  0  0  0  0  0  0  0  0
  147.1833  142.4200  154.3958 C   0  0  0  0  0  0  0  0  0  0  0  0
  147.1034  142.6650  155.7821 C   0  0  0  0  0  0  0  0  0  0  0  0
  148.0932  142.1602  156.6469 C   0  0  0  0  0  0  0  0  0  0  0  0
  149.1595  141.4142  156.1108 C   0  0  0  0  0  0  0  0  0  0  0  0
  152.5407  141.5892  159.5863 C   0  0  0  0  0  0  0  0  0  0  0  0
  152.0170  142.8492  159.9478 C   0  0  0  0  0  0  0  0  0  0  0  0
  152.3038  143.4020  161.2109 C   0  0  0  0  0  0  0  0  0  0  0  0
  153.1171  142.6984  162.1198 C   0  0  0  0  0  0  0  0  0  0  0  0
  153.3909  143.2286  163.3352 F   0  0  0  0  0  0  0  0  0  0  0  0
  153.6439  141.4419  161.7646 C   0  0  0  0  0  0  0  0  0  0  0  0
  153.3569  140.8884  160.5020 C   0  0  0  0  0  0  0  0  0  0  0  0
  152.2041  139.0858  157.8719 H   0  0  0  0  0  0  0  0  0  0  0  0
  152.5461  141.6607  157.4498 H   0  0  0  0  0  0  0  0  0  0  0  0
  150.4013  139.7838  158.4579 H   0  0  0  0  0  0  0  0  0  0  0  0
  150.1098  141.5008  158.6173 H   0  0  0  0  0  0  0  0  0  0  0  0
  151.8422  139.6931  155.7534 H   0  0  0  0  0  0  0  0  0  0  0  0
  148.3036  141.4895  152.7988 H   0  0  0  0  0  0  0  0  0  0  0  0
  146.4205  142.8096  153.7375 H   0  0  0  0  0  0  0  0  0  0  0  0
  146.2820  143.2415  156.1816 H   0  0  0  0  0  0  0  0  0  0  0  0
  148.0361  142.3494  157.7085 H   0  0  0  0  0  0  0  0  0  0  0  0
  151.3831  143.3915  159.2615 H   0  0  0  0  0  0  0  0  0  0  0  0
  151.8967  144.3644  161.4836 H   0  0  0  0  0  0  0  0  0  0  0  0
  154.2652  140.9003  162.4625 H   0  0  0  0  0  0  0  0  0  0  0  0
  153.7577  139.9192  160.2429 H   0  0  0  0  0  0  0  0  0  0  0  0
  1  2  1  0  0  0  0
  1 20  1  0  0  0  0
  2  3  1  0  0  0  0
  2 13  1  0  0  0  0
  2 21  1  0  0  0  0
  3  4  1  0  0  0  0
  3 22  1  0  0  0  0
  3 23  1  0  0  0  0
  4 12  1  0  0  0  0
  4  5  1  0  0  0  0
  5  6  2  0  0  0  0
  5 24  1  0  0  0  0
  6  7  1  0  0  0  0
  7 12  2  0  0  0  0
  7  8  1  0  0  0  0
  8  9  2  0  0  0  0
  8 25  1  0  0  0  0
  9 10  1  0  0  0  0
  9 26  1  0  0  0  0
 10 11  2  0  0  0  0
 10 27  1  0  0  0  0
 11 12  1  0  0  0  0
 11 28  1  0  0  0  0
 13 19  1  0  0  0  0
 13 14  2  0  0  0  0
 14 15  1  0  0  0  0
 14 29  1  0  0  0  0
 15 16  2  0  0  0  0
 15 30  1  0  0  0  0
 16 17  1  0  0  0  0
 16 18  1  0  0  0  0
 18 19  2  0  0  0  0
 18 31  1  0  0  0  0
 19 32  1  0  0  0  0
M  END
> <s_m_source_file>
AV-unprocessed.smi

> <i_m_source_file_index>
1767

> <i_lp_mmshare_version>
43012

> <i_f3d_flags>
0

> <s_epik_input>
W2NIXTFbY0hdYyhGKVtjSF1bY0hdYzFbQ0BIXShbT0hdKVtDSDJdbihbY0hdbjIpYyhjMjMpW2NIXVtjSF1bY0hdW2NIXTM=

> <s_epik_cmdline>
J2VwaWtfcHl0aG9uJywgJy1waCcsICc3LjAnLCAnLXRuJywgJzgnLCAnLW1hJywgJzIwMCcsICctbWV0YWxfYmluZGluZycsICctaW1hZScsICc8aW5maWxlLm1hZT4nLCAnLW9tYWUnLCAnPG91dGZpbGUubWFlPic=

> <r_epik_Ionization_Penalty>
0.0696514

> <r_epik_Ionization_Penalty_Charging>
0

> <r_epik_Ionization_Penalty_Neutral>
0.0696514

> <r_epik_State_Penalty>
0.0610247

> <r_epik_Charging_Adjusted_Penalty>
0.0610247

> <i_epik_Tot_Q>
0

> <i_epik_Tot_abs_Q>
0

> <r_epik_Metal_State_Penalty>
6.42746e-05

> <b_epik_Metal_Only>
0

> <s_lp_Force_Field>
OPLS_2005

> <r_lp_Energy>
11.9243

> <b_lp_Chiralities_Consistent>
1

> <s_lp_Variant>
AV-unprocessed.smi:1767-2

> <Gold.Version>
5.8.1

> <Gold.Id.Protein>
6NUR|6NUR_protein|mol2

> <Gold.PLP.Fitness>
52.1203

> <Gold.PLP.PLP>
-47.1352

> <Gold.PLP.part.hbond>
-1.9131

> <Gold.PLP.part.metal>
0.0000

> <Gold.PLP.part.buried>
-3.5295

> <Gold.PLP.part.nonpolar>
-40.8444

> <Gold.PLP.part.repulsive>
0.0991

> <Gold.PLP.ligand.clash>
0.0000

> <Gold.PLP.ligand.torsion>
0.5306

> <Gold.PLP.Chemscore.Hbond>
2.0000

> <Gold.PLP.Chemscore.CHOScore>
0.0000

> <Gold.PLP.Chemscore.Metal>
0.0000

> <Gold.Chemscore.Hbonds>
donor molecule, donor type, donor heavy atom, donor atom, acceptor molecule, acceptor atom, score
      P1  H  7989  7998       L1     6  1.00
      P1  H  7997  8008       L1     1  0.86

> <Gold.PLP.Chemscore.Internal.Correction>
0.0463

> <Gold.Rescore>
     Score         DG    S(hbond)    S(metal)    S(lipo)     H(rot)  DE(clash)    DE(int)     intcor
     18.82     -19.40       1.76        0.00     110.55       1.91       0.05       0.53       ----

> <Gold.Chemscore.Fitness>
18.8188

> <Gold.Chemscore.DG>
-19.3967

> <Gold.Chemscore.ZeroCoef>
-5.4800

> <Gold.Chemscore.Hbond>
1.7593

> <Gold.Chemscore.Metal>
0.0000

> <Gold.Chemscore.Lipo>
110.5503

> <Gold.Chemscore.Internal_Hbond>
0.0000

> <Gold.Chemscore.DEClash>
0.0506

> <Gold.Chemscore.DEInternal>
0.5273

> <Gold.Chemscore.Rot>
1.9116

> <Gold.Chemscore.Internal.Correction>
   9.000000E+99

> <Gold.Chemscore.Hbonds>
donor molecule, donor type, donor heavy atom, donor atom, acceptor molecule, acceptor atom, score
      P1  H  7989  7998       L1     6  0.47
      P1  H  7997  8008       L1     1  0.63

> <Gold.Chemscore.Hbond.Weighted>
-5.8760

> <Gold.Chemscore.Metal.Weighted>
-0.0000

> <Gold.Chemscore.Lipo.Weighted>
-12.9344

> <Gold.Chemscore.Internal_Hbond.Weighted>
0.0000

> <Gold.Chemscore.DEClash.Weighted>
0.0506

> <Gold.Chemscore.DEInternal.Weighted>
0.5273

> <Gold.Chemscore.Rot.Weighted>
4.8937

> <Gold.Chemscore.Internal.Correction.Weighted>
   9.000000E+99

> <Gold.Protein.RotatedTorsions>
[ 6907 6896 6895 6894 ] final  124.32 input  -60.11 | X-H torsion
[ 7974 7965 7964 7962 ] final  -58.60 input  175.53 | X-H torsion
[ 8008 7997 7996 7995 ] final  -96.33 input   59.86 | X-H torsion
[ 10167 10162 10161 10158 ] final  -73.13 input  -65.29 | X-H torsion
[ 10718 10713 10712 10709 ] final    9.53 input   66.30 | X-H torsion
[ 10763 10752 10751 10750 ] final  -72.23 input  -60.55 | X-H torsion
[ 11005 11000 10999 10996 ] final  162.33 input  -57.11 | X-H torsion

> <Gold.Protein.ActiveResidues>
 VAL166  LYS551  ARG553  GLY616  TRP617  ASP618  TYR619  PRO620  LYS621  CYS622 
 ASP623  PHE694  ASN695  SER759  ASP760  ASP761  ALA762  ILE779  LEU786  VAL792 
 PHE793  MET794  SER795  GLU796  ALA797  LYS798  CYS799  TRP800  GLU811  SER814 

> <Gold.Protein.RotatedAtoms>
  152.4088  133.6931  159.6379 H   0  0  0  0  0  0  0  0  0  0  0  0  # atno 6907 bound_to 6896
  150.7970  133.8661  159.3254 H   0  0  0  0  0  0  0  0  0  0  0  0  # atno 6908 bound_to 6896
  151.6409  135.1014  160.0192 H   0  0  0  0  0  0  0  0  0  0  0  0  # atno 6909 bound_to 6896
  145.8374  140.8440  143.0052 H   0  0  0  0  0  0  0  0  0  0  0  0  # atno 7974 bound_to 7965
  154.7731  140.0472  157.1067 H   0  0  0  0  0  0  0  0  0  0  0  0  # atno 8008 bound_to 7997
  154.9796  140.3100  155.4932 H   0  0  0  0  0  0  0  0  0  0  0  0  # atno 8009 bound_to 7997
  156.2924  140.2238  156.4895 H   0  0  0  0  0  0  0  0  0  0  0  0  # atno 8010 bound_to 7997
  140.5135  143.2341  151.7552 H   0  0  0  0  0  0  0  0  0  0  0  0  # atno 10167 bound_to 10162
  156.9676  130.5957  149.5666 H   0  0  0  0  0  0  0  0  0  0  0  0  # atno 10718 bound_to 10713
  154.4428  135.5936  153.6140 H   0  0  0  0  0  0  0  0  0  0  0  0  # atno 10763 bound_to 10752
  152.9807  135.6002  154.3701 H   0  0  0  0  0  0  0  0  0  0  0  0  # atno 10764 bound_to 10752
  154.3553  135.2841  155.2328 H   0  0  0  0  0  0  0  0  0  0  0  0  # atno 10765 bound_to 10752
  140.2246  134.8170  157.3256 H   0  0  0  0  0  0  0  0  0  0  0  0  # atno 11005 bound_to 11000
  144.6735  140.0761  143.7471 LP  0  0  0  0  0  0  0  0  0  0  0  0  # atno 17320 bound_to 7965
  145.9504  139.2729  143.1216 LP  0  0  0  0  0  0  0  0  0  0  0  0  # atno 17321 bound_to 7965
  139.4903  144.4356  151.9822 LP  0  0  0  0  0  0  0  0  0  0  0  0  # atno 17342 bound_to 10162
  140.3450  144.3158  150.5960 LP  0  0  0  0  0  0  0  0  0  0  0  0  # atno 17343 bound_to 10162
  156.0296  130.5388  150.8499 LP  0  0  0  0  0  0  0  0  0  0  0  0  # atno 17370 bound_to 10713
  157.5615  131.0946  150.9552 LP  0  0  0  0  0  0  0  0  0  0  0  0  # atno 17371 bound_to 10713
  140.1813  134.4486  155.7770 LP  0  0  0  0  0  0  0  0  0  0  0  0  # atno 17394 bound_to 11000
  141.2221  133.6985  156.7873 LP  0  0  0  0  0  0  0  0  0  0  0  0  # atno 17395 bound_to 11000

$$$$
