AV-unprocessed.smi:1975|AV-procd|sdf|7982|dock8
  -GOLD-   2272010163D 1   1.00000     0.00000
 Structure written by MMmdl.
 33 34  0  0  0  0  0  0  0  0  1 V2000
  146.8523  138.8934  152.5010 C   0  0  0  0  0  0  0  0  0  0  0  0
  147.2191  140.1065  153.3690 C   0  0  0  0  0  0  0  0  0  0  0  0
  148.5020  139.9726  154.0088 N   0  0  0  0  0  0  0  0  0  0  0  0
  149.1993  138.7826  153.9957 C   0  0  0  0  0  0  0  0  0  0  0  0
  150.3932  138.6337  154.6056 C   0  0  0  0  0  0  0  0  0  0  0  0
  151.0984  137.3951  154.5832 C   0  0  0  0  0  0  0  0  0  0  0  0
  151.6559  136.3809  154.5834 N   0  0  0  0  0  0  0  0  0  0  0  0
  151.0166  139.7431  155.3233 C   0  0  0  0  0  0  0  0  0  0  0  0
  152.0992  139.6527  155.9049 O   0  0  0  0  0  0  0  0  0  0  0  0
  150.2857  140.9586  155.3234 N   0  0  0  0  0  0  0  0  0  0  0  0
  150.8385  142.1207  156.0538 C   0  0  0  0  0  0  0  0  0  0  0  0
  151.0581  141.8552  157.5516 C   0  0  0  0  0  0  0  0  0  0  0  0
  150.8678  140.7370  158.0325 O   0  0  0  0  0  0  0  0  0  0  0  0
  151.4685  142.9074  158.2742 N   0  0  0  0  0  0  0  0  0  0  0  0
  151.7382  142.8972  159.6755 C   0  0  0  0  0  0  0  0  0  0  0  0
  153.0759  143.4336  160.1378 C   0  0  0  0  0  0  0  0  0  0  0  0
  152.8103  141.9541  160.1764 C   0  0  0  0  0  0  0  0  0  0  0  0
  149.0289  141.0968  154.6860 C   0  0  0  0  0  0  0  0  0  0  0  0
  148.4122  142.1646  154.7290 O   0  0  0  0  0  0  0  0  0  0  0  0
  145.8925  139.0488  152.0081 H   0  0  0  0  0  0  0  0  0  0  0  0
  146.7739  137.9821  153.0944 H   0  0  0  0  0  0  0  0  0  0  0  0
  147.6003  138.7248  151.7258 H   0  0  0  0  0  0  0  0  0  0  0  0
  147.2809  141.0099  152.7608 H   0  0  0  0  0  0  0  0  0  0  0  0
  146.4809  140.3044  154.1484 H   0  0  0  0  0  0  0  0  0  0  0  0
  148.7720  137.9347  153.4796 H   0  0  0  0  0  0  0  0  0  0  0  0
  151.7860  142.4461  155.6218 H   0  0  0  0  0  0  0  0  0  0  0  0
  150.1879  142.9900  155.9432 H   0  0  0  0  0  0  0  0  0  0  0  0
  151.6006  143.7858  157.7939 H   0  0  0  0  0  0  0  0  0  0  0  0
  150.8978  143.0627  160.3484 H   0  0  0  0  0  0  0  0  0  0  0  0
  153.7667  143.8004  159.3809 H   0  0  0  0  0  0  0  0  0  0  0  0
  153.1022  143.9643  161.0873 H   0  0  0  0  0  0  0  0  0  0  0  0
  152.6600  141.4969  161.1524 H   0  0  0  0  0  0  0  0  0  0  0  0
  153.3246  141.3327  159.4457 H   0  0  0  0  0  0  0  0  0  0  0  0
  1  2  1  0  0  0  0
  1 20  1  0  0  0  0
  1 21  1  0  0  0  0
  1 22  1  0  0  0  0
  2  3  1  0  0  0  0
  2 23  1  0  0  0  0
  2 24  1  0  0  0  0
  3 18  1  0  0  0  0
  3  4  1  0  0  0  0
  4  5  2  0  0  0  0
  4 25  1  0  0  0  0
  5  6  1  0  0  0  0
  5  8  1  0  0  0  0
  6  7  3  0  0  0  0
  8  9  2  0  0  0  0
  8 10  1  0  0  0  0
 10 11  1  0  0  0  0
 10 18  1  0  0  0  0
 11 12  1  0  0  0  0
 11 26  1  0  0  0  0
 11 27  1  0  0  0  0
 12 13  2  0  0  0  0
 12 14  1  0  0  0  0
 14 15  1  0  0  0  0
 14 28  1  0  0  0  0
 15 17  1  0  0  0  0
 15 16  1  0  0  0  0
 15 29  1  0  0  0  0
 16 17  1  0  0  0  0
 16 30  1  0  0  0  0
 16 31  1  0  0  0  0
 17 32  1  0  0  0  0
 17 33  1  0  0  0  0
 18 19  2  0  0  0  0
M  END
> <s_m_source_file>
AV-unprocessed.smi

> <i_m_source_file_index>
1975

> <i_lp_mmshare_version>
43012

> <i_f3d_flags>
0

> <s_epik_input>
W0NIM11bQ0gyXW4xW2NIXWMoQyNOKWMoPU8pbihjMT1PKVtDSDJdQyg9TylbTkhdW0NIXTJbQ0gyXVtDSDJdMg==

> <s_epik_cmdline>
J2VwaWtfcHl0aG9uJywgJy1waCcsICc3LjAnLCAnLXRuJywgJzgnLCAnLW1hJywgJzIwMCcsICctbWV0YWxfYmluZGluZycsICctaW1hZScsICc8aW5maWxlLm1hZT4nLCAnLW9tYWUnLCAnPG91dGZpbGUubWFlPic=

> <r_lp_tautomer_probability>
1

> <r_epik_Ionization_Penalty>
2.07081e-08

> <r_epik_Ionization_Penalty_Charging>
3.77987e-11

> <r_epik_Ionization_Penalty_Neutral>
2.06703e-08

> <r_epik_State_Penalty>
-0

> <r_epik_Charging_Adjusted_Penalty>
3.77987e-11

> <i_epik_Tot_Q>
0

> <i_epik_Tot_abs_Q>
0

> <r_epik_Metal_State_Penalty>
-0

> <b_epik_Metal_Only>
0

> <s_lp_Force_Field>
OPLS_2005

> <r_lp_Energy>
17.9293

> <b_lp_Chiralities_Consistent>
1

> <s_lp_Variant>
AV-unprocessed.smi:1975-1

> <Gold.Version>
5.8.1

> <Gold.Id.Protein>
6NUR|6NUR_protein|mol2

> <Gold.PLP.Fitness>
43.3434

> <Gold.PLP.PLP>
-36.8787

> <Gold.PLP.part.hbond>
-0.9503

> <Gold.PLP.part.metal>
0.0000

> <Gold.PLP.part.buried>
-4.6888

> <Gold.PLP.part.nonpolar>
-33.6712

> <Gold.PLP.part.repulsive>
2.5642

> <Gold.PLP.ligand.clash>
0.0000

> <Gold.PLP.ligand.torsion>
0.1310

> <Gold.PLP.Chemscore.Hbond>
1.2275

> <Gold.PLP.Chemscore.CHOScore>
1.0000

> <Gold.PLP.Chemscore.Metal>
0.0000

> <Gold.Chemscore.Hbonds>
donor molecule, donor type, donor heavy atom, donor atom, acceptor molecule, acceptor atom, score
      P1  H  7997  8008       L1     9  0.28
      P1  H 10752 10765       L1     7  0.93
      L1  C     4    25       P1  7948  1.00

> <Gold.PLP.Chemscore.Internal.Correction>
0.0443

> <Gold.Rescore>
     Score         DG    S(hbond)    S(metal)    S(lipo)     H(rot)  DE(clash)    DE(int)     intcor
     12.36     -14.44       1.71        0.00      69.03       1.89       1.53       0.55       ----

> <Gold.Chemscore.Fitness>
12.3608

> <Gold.Chemscore.DG>
-14.4384

> <Gold.Chemscore.ZeroCoef>
-5.4800

> <Gold.Chemscore.Hbond>
1.7107

> <Gold.Chemscore.Metal>
0.0000

> <Gold.Chemscore.Lipo>
69.0341

> <Gold.Chemscore.Internal_Hbond>
0.0000

> <Gold.Chemscore.DEClash>
1.5289

> <Gold.Chemscore.DEInternal>
0.5488

> <Gold.Chemscore.Rot>
1.8876

> <Gold.Chemscore.Internal.Correction>
   9.000000E+99

> <Gold.Chemscore.Hbonds>
donor molecule, donor type, donor heavy atom, donor atom, acceptor molecule, acceptor atom, score
      P1  H  7997  8008       L1     9  0.29
      P1  H 10752 10765       L1     7  0.89

> <Gold.Chemscore.Hbond.Weighted>
-5.7137

> <Gold.Chemscore.Metal.Weighted>
-0.0000

> <Gold.Chemscore.Lipo.Weighted>
-8.0770

> <Gold.Chemscore.Internal_Hbond.Weighted>
0.0000

> <Gold.Chemscore.DEClash.Weighted>
1.5289

> <Gold.Chemscore.DEInternal.Weighted>
0.5488

> <Gold.Chemscore.Rot.Weighted>
4.8323

> <Gold.Chemscore.Internal.Correction.Weighted>
   9.000000E+99

> <Gold.Protein.RotatedTorsions>
[ 6907 6896 6895 6894 ] final  -95.15 input  -60.11 | X-H torsion
[ 7974 7965 7964 7962 ] final -171.77 input  175.53 | X-H torsion
[ 8008 7997 7996 7995 ] final  -38.88 input   59.86 | X-H torsion
[ 10167 10162 10161 10158 ] final  -18.23 input  -65.29 | X-H torsion
[ 10718 10713 10712 10709 ] final   91.37 input   66.30 | X-H torsion
[ 10763 10752 10751 10750 ] final  161.61 input  -60.55 | X-H torsion
[ 11005 11000 10999 10996 ] final   12.04 input  -57.11 | X-H torsion

> <Gold.Protein.ActiveResidues>
 VAL166  LYS551  ARG553  GLY616  TRP617  ASP618  TYR619  PRO620  LYS621  CYS622 
 ASP623  PHE694  ASN695  SER759  ASP760  ASP761  ALA762  ILE779  LEU786  VAL792 
 PHE793  MET794  SER795  GLU796  ALA797  LYS798  CYS799  TRP800  GLU811  SER814 

> <Gold.Protein.RotatedAtoms>
  150.6957  134.1701  159.4208 H   0  0  0  0  0  0  0  0  0  0  0  0  # atno 6907 bound_to 6896
  151.9679  135.0089  160.0560 H   0  0  0  0  0  0  0  0  0  0  0  0  # atno 6908 bound_to 6896
  152.1868  133.4710  159.5023 H   0  0  0  0  0  0  0  0  0  0  0  0  # atno 6909 bound_to 6896
  144.7153  140.1872  143.6352 H   0  0  0  0  0  0  0  0  0  0  0  0  # atno 7974 bound_to 7965
  154.4030  140.1566  156.2772 H   0  0  0  0  0  0  0  0  0  0  0  0  # atno 8008 bound_to 7997
  155.8901  140.3439  155.5928 H   0  0  0  0  0  0  0  0  0  0  0  0  # atno 8009 bound_to 7997
  155.7568  140.0812  157.2165 H   0  0  0  0  0  0  0  0  0  0  0  0  # atno 8010 bound_to 7997
  140.7256  143.4937  150.9959 H   0  0  0  0  0  0  0  0  0  0  0  0  # atno 10167 bound_to 10162
  157.6960  131.0405  150.3719 H   0  0  0  0  0  0  0  0  0  0  0  0  # atno 10718 bound_to 10713
  154.2656  135.2767  155.2760 H   0  0  0  0  0  0  0  0  0  0  0  0  # atno 10763 bound_to 10752
  154.5346  135.5720  153.6791 H   0  0  0  0  0  0  0  0  0  0  0  0  # atno 10764 bound_to 10752
  152.9954  135.6236  154.2809 H   0  0  0  0  0  0  0  0  0  0  0  0  # atno 10765 bound_to 10752
  140.4964  134.0789  155.7783 H   0  0  0  0  0  0  0  0  0  0  0  0  # atno 11005 bound_to 11000
  145.8802  139.2318  143.1610 LP  0  0  0  0  0  0  0  0  0  0  0  0  # atno 17320 bound_to 7965
  146.0002  140.8526  143.0022 LP  0  0  0  0  0  0  0  0  0  0  0  0  # atno 17321 bound_to 7965
  139.8642  143.7275  152.3171 LP  0  0  0  0  0  0  0  0  0  0  0  0  # atno 17342 bound_to 10162
  139.7501  144.7536  151.0519 LP  0  0  0  0  0  0  0  0  0  0  0  0  # atno 17343 bound_to 10162
  156.4143  130.3940  149.6870 LP  0  0  0  0  0  0  0  0  0  0  0  0  # atno 17370 bound_to 10713
  156.4143  130.7737  151.2752 LP  0  0  0  0  0  0  0  0  0  0  0  0  # atno 17371 bound_to 10713
  141.1458  133.9058  157.2219 LP  0  0  0  0  0  0  0  0  0  0  0  0  # atno 17394 bound_to 11000
  139.9739  135.0120  156.9581 LP  0  0  0  0  0  0  0  0  0  0  0  0  # atno 17395 bound_to 11000

$$$$
