AV-unprocessed.smi:560|AV-procd|sdf|2934|dock6
  -GOLD-   2262023433D 1   1.00000     0.00000
 Structure written by MMmdl.
 41 42  0  0  0  0  0  0  0  0  3 V2000
  152.9109  139.7134  159.4065 C   0  0  0  0  0  0  0  0  0  0  0  0
  151.9415  140.3148  158.3687 C   0  0  2  0  0  0  0  0  0  0  0  0
  152.0798  139.6729  156.9785 C   0  0  0  0  0  0  0  0  0  0  0  0
  153.0754  139.0106  156.6844 O   0  0  0  0  0  0  0  0  0  0  0  0
  151.0593  139.8749  156.1297 N   0  0  0  0  0  0  0  0  0  0  0  0
  150.9828  139.3704  154.7598 C   0  0  2  0  0  0  0  0  0  0  0  0
  149.5423  139.4738  154.2304 C   0  0  0  0  0  0  0  0  0  0  0  0
  148.6037  138.4571  154.9061 C   0  0  0  0  0  0  0  0  0  0  0  0
  149.1181  137.0710  154.7682 N   0  3  2  0  0  0  0  0  0  0  0  0
  148.1647  136.0635  155.2960 C   0  0  0  0  0  0  0  0  0  0  0  0
  148.7315  134.6515  155.1143 C   0  0  0  0  0  0  0  0  0  0  0  0
  148.7644  134.2713  153.8227 N   0  5  0  0  0  0  0  0  0  0  0  0
  149.0768  134.0051  156.1015 O   0  0  0  0  0  0  0  0  0  0  0  0
  150.4877  136.9335  155.3334 C   0  0  0  0  0  0  0  0  0  0  0  0
  151.4667  137.9107  154.6597 C   0  0  0  0  0  0  0  0  0  0  0  0
  152.0679  141.7651  158.2774 N   0  0  0  0  0  0  0  0  0  0  0  0
  152.9225  142.5888  158.9822 C   0  0  0  0  0  0  0  0  0  0  0  0
  152.6697  143.8729  158.5932 C   0  0  0  0  0  0  0  0  0  0  0  0
  151.6226  143.7372  157.6399 C   0  0  0  0  0  0  0  0  0  0  0  0
  151.2595  142.4782  157.4588 N   0  0  0  0  0  0  0  0  0  0  0  0
  152.7647  138.6371  159.5043 H   0  0  0  0  0  0  0  0  0  0  0  0
  152.7482  140.1547  160.3902 H   0  0  0  0  0  0  0  0  0  0  0  0
  153.9547  139.8816  159.1388 H   0  0  0  0  0  0  0  0  0  0  0  0
  150.9293  140.1029  158.7169 H   0  0  0  0  0  0  0  0  0  0  0  0
  150.2835  140.4336  156.4542 H   0  0  0  0  0  0  0  0  0  0  0  0
  151.6192  139.9982  154.1334 H   0  0  0  0  0  0  0  0  0  0  0  0
  149.1601  140.4863  154.3673 H   0  0  0  0  0  0  0  0  0  0  0  0
  149.5437  139.2941  153.1543 H   0  0  0  0  0  0  0  0  0  0  0  0
  148.4805  138.6962  155.9635 H   0  0  0  0  0  0  0  0  0  0  0  0
  147.6158  138.5284  154.4495 H   0  0  0  0  0  0  0  0  0  0  0  0
  147.9090  136.2882  156.3340 H   0  0  0  0  0  0  0  0  0  0  0  0
  147.2317  136.1019  154.7321 H   0  0  0  0  0  0  0  0  0  0  0  0
  148.5771  134.9691  153.0930 H   0  0  0  0  0  0  0  0  0  0  0  0
  150.4595  137.1080  156.4101 H   0  0  0  0  0  0  0  0  0  0  0  0
  150.8540  135.9164  155.1926 H   0  0  0  0  0  0  0  0  0  0  0  0
  151.5700  137.6403  153.6080 H   0  0  0  0  0  0  0  0  0  0  0  0
  152.4609  137.8032  155.0948 H   0  0  0  0  0  0  0  0  0  0  0  0
  153.6332  142.1967  159.6945 H   0  0  0  0  0  0  0  0  0  0  0  0
  153.1566  144.7730  158.9382 H   0  0  0  0  0  0  0  0  0  0  0  0
  151.1167  144.5107  157.0810 H   0  0  0  0  0  0  0  0  0  0  0  0
  149.1889  136.8889  153.7769 H   0  0  0  0  0  0  0  0  0  0  0  0
  1  2  1  0  0  0  0
  1 21  1  0  0  0  0
  1 22  1  0  0  0  0
  1 23  1  0  0  0  0
  2  3  1  0  0  0  0
  2 16  1  0  0  0  0
  2 24  1  0  0  0  0
  3  4  2  0  0  0  0
  3  5  1  0  0  0  0
  5  6  1  0  0  0  0
  5 25  1  0  0  0  0
  6 15  1  0  0  0  0
  6  7  1  0  0  0  0
  6 26  1  0  0  0  0
  7  8  1  0  0  0  0
  7 27  1  0  0  0  0
  7 28  1  0  0  0  0
  8  9  1  0  0  0  0
  8 29  1  0  0  0  0
  8 30  1  0  0  0  0
  9 10  1  0  0  0  0
  9 14  1  0  0  0  0
  9 41  1  0  0  0  0
 10 11  1  0  0  0  0
 10 31  1  0  0  0  0
 10 32  1  0  0  0  0
 11 12  1  0  0  0  0
 11 13  2  0  0  0  0
 12 33  1  0  0  0  0
 14 15  1  0  0  0  0
 14 34  1  0  0  0  0
 14 35  1  0  0  0  0
 15 36  1  0  0  0  0
 15 37  1  0  0  0  0
 16 20  1  0  0  0  0
 16 17  1  0  0  0  0
 17 18  2  0  0  0  0
 17 38  1  0  0  0  0
 18 19  1  0  0  0  0
 18 39  1  0  0  0  0
 19 20  2  0  0  0  0
 19 40  1  0  0  0  0
M  CHG  1   9   1
M  CHG  1  12  -1
M  END
> <s_m_source_file>
AV-unprocessed.smi

> <i_m_source_file_index>
560

> <i_lp_mmshare_version>
43012

> <i_f3d_flags>
0

> <s_epik_input>
bjFbY0hdW2NIXVtjSF1uMVtDQEhdKFtDSDNdKUMoPU8pW05IXVtDSF0yW0NIMl1bQ0gyXU4oW0NIMl1bQ0gyXTIpW0NIMl1DKD1PKVtOSDJd

> <s_epik_cmdline>
J2VwaWtfcHl0aG9uJywgJy1waCcsICc3LjAnLCAnLXRuJywgJzgnLCAnLW1hJywgJzIwMCcsICctbWV0YWxfYmluZGluZycsICctaW1hZScsICc8aW5maWxlLm1hZT4nLCAnLW9tYWUnLCAnPG91dGZpbGUubWFlPic=

> <r_lp_tautomer_probability>
1

> <r_epik_Ionization_Penalty>
5.71084

> <r_epik_Ionization_Penalty_Charging>
5.71081

> <r_epik_Ionization_Penalty_Neutral>
3.04611e-05

> <r_epik_State_Penalty>
6.71277

> <r_epik_Charging_Adjusted_Penalty>
12.4236

> <i_epik_Tot_Q>
0

> <i_epik_Tot_abs_Q>
2

> <r_epik_Metal_State_Penalty>
2.67562

> <b_epik_Metal_Only>
1

> <s_lp_Force_Field>
OPLS_2005

> <r_lp_Energy>
9.92131

> <b_lp_Chiralities_Consistent>
1

> <s_lp_Variant>
AV-unprocessed.smi:560-9

> <Gold.Version>
5.8.1

> <Gold.Id.Protein>
6NUR|6NUR_protein|mol2

> <Gold.PLP.Fitness>
48.2422

> <Gold.PLP.PLP>
-34.4335

> <Gold.PLP.part.hbond>
-3.0000

> <Gold.PLP.part.metal>
0.0000

> <Gold.PLP.part.buried>
-2.9601

> <Gold.PLP.part.nonpolar>
-28.9332

> <Gold.PLP.part.repulsive>
0.1873

> <Gold.PLP.ligand.clash>
0.0000

> <Gold.PLP.ligand.torsion>
0.6681

> <Gold.PLP.Chemscore.Hbond>
4.0000

> <Gold.PLP.Chemscore.CHOScore>
1.0000

> <Gold.PLP.Chemscore.Metal>
0.0000

> <Gold.Chemscore.Hbonds>
donor molecule, donor type, donor heavy atom, donor atom, acceptor molecule, acceptor atom, score
      L1  H     9    41       P1  7948  2.00
      L1  H    12    33       P1  7948  1.00
      P1  H  7997  8010       L1     4  1.00
      L1  C    19    40       P1  8028  0.78

> <Gold.PLP.Chemscore.Internal.Correction>
0.1448

> <Gold.Rescore>
     Score         DG    S(hbond)    S(metal)    S(lipo)     H(rot)  DE(clash)    DE(int)     intcor
     13.79     -17.14       2.63        0.00      78.62       2.47       0.15       3.21       ----

> <Gold.Chemscore.Fitness>
13.7859

> <Gold.Chemscore.DG>
-17.1449

> <Gold.Chemscore.ZeroCoef>
-5.4800

> <Gold.Chemscore.Hbond>
2.6340

> <Gold.Chemscore.Metal>
0.0000

> <Gold.Chemscore.Lipo>
78.6246

> <Gold.Chemscore.Internal_Hbond>
0.0000

> <Gold.Chemscore.DEClash>
0.1492

> <Gold.Chemscore.DEInternal>
3.2098

> <Gold.Chemscore.Rot>
2.4734

> <Gold.Chemscore.Internal.Correction>
   9.000000E+99

> <Gold.Chemscore.Hbonds>
donor molecule, donor type, donor heavy atom, donor atom, acceptor molecule, acceptor atom, score
      L1  H     9    41       P1  7948  0.93
      L1  H    12    33       P1  7948  0.59
      P1  H  7997  8010       L1     4  0.65

> <Gold.Chemscore.Hbond.Weighted>
-8.7976

> <Gold.Chemscore.Metal.Weighted>
-0.0000

> <Gold.Chemscore.Lipo.Weighted>
-9.1991

> <Gold.Chemscore.Internal_Hbond.Weighted>
0.0000

> <Gold.Chemscore.DEClash.Weighted>
0.1492

> <Gold.Chemscore.DEInternal.Weighted>
3.2098

> <Gold.Chemscore.Rot.Weighted>
6.3318

> <Gold.Chemscore.Internal.Correction.Weighted>
   9.000000E+99

> <Gold.Protein.RotatedTorsions>
[ 6907 6896 6895 6894 ] final  164.71 input  -60.11 | X-H torsion
[ 7974 7965 7964 7962 ] final -114.45 input  175.53 | X-H torsion
[ 8008 7997 7996 7995 ] final   71.11 input   59.86 | X-H torsion
[ 10167 10162 10161 10158 ] final -167.97 input  -65.29 | X-H torsion
[ 10718 10713 10712 10709 ] final    1.86 input   66.30 | X-H torsion
[ 10763 10752 10751 10750 ] final   49.20 input  -60.55 | X-H torsion
[ 11005 11000 10999 10996 ] final  -96.94 input  -57.11 | X-H torsion

> <Gold.Protein.ActiveResidues>
 VAL166  LYS551  ARG553  GLY616  TRP617  ASP618  TYR619  PRO620  LYS621  CYS622 
 ASP623  PHE694  ASN695  SER759  ASP760  ASP761  ALA762  ILE779  LEU786  VAL792 
 PHE793  MET794  SER795  GLU796  ALA797  LYS798  CYS799  TRP800  GLU811  SER814 

> <Gold.Protein.RotatedAtoms>
  151.9056  133.3548  159.3845 H   0  0  0  0  0  0  0  0  0  0  0  0  # atno 6907 bound_to 6896
  150.7070  134.4784  159.5468 H   0  0  0  0  0  0  0  0  0  0  0  0  # atno 6908 bound_to 6896
  152.2381  134.8256  160.0515 H   0  0  0  0  0  0  0  0  0  0  0  0  # atno 6909 bound_to 6896
  145.1200  140.8663  143.3820 H   0  0  0  0  0  0  0  0  0  0  0  0  # atno 7974 bound_to 7965
  155.7489  140.3489  155.5140 H   0  0  0  0  0  0  0  0  0  0  0  0  # atno 8008 bound_to 7997
  155.9023  140.1036  157.1362 H   0  0  0  0  0  0  0  0  0  0  0  0  # atno 8009 bound_to 7997
  154.4045  140.1283  156.4439 H   0  0  0  0  0  0  0  0  0  0  0  0  # atno 8010 bound_to 7997
  139.6015  144.1001  152.1748 H   0  0  0  0  0  0  0  0  0  0  0  0  # atno 10167 bound_to 10162
  156.8545  130.5565  149.5667 H   0  0  0  0  0  0  0  0  0  0  0  0  # atno 10718 bound_to 10713
  152.9788  135.5919  154.4051 H   0  0  0  0  0  0  0  0  0  0  0  0  # atno 10763 bound_to 10752
  154.3692  135.2767  155.2278 H   0  0  0  0  0  0  0  0  0  0  0  0  # atno 10764 bound_to 10752
  154.4241  135.6052  153.6082 H   0  0  0  0  0  0  0  0  0  0  0  0  # atno 10765 bound_to 10752
  141.1395  133.8134  157.0639 H   0  0  0  0  0  0  0  0  0  0  0  0  # atno 11005 bound_to 11000
  145.0751  139.3002  143.5812 LP  0  0  0  0  0  0  0  0  0  0  0  0  # atno 17320 bound_to 7965
  146.3521  140.0239  142.8656 LP  0  0  0  0  0  0  0  0  0  0  0  0  # atno 17321 bound_to 7965
  140.0598  144.5866  150.7271 LP  0  0  0  0  0  0  0  0  0  0  0  0  # atno 17342 bound_to 10162
  140.7253  143.2630  151.4141 LP  0  0  0  0  0  0  0  0  0  0  0  0  # atno 17343 bound_to 10162
  156.0810  130.5820  150.9563 LP  0  0  0  0  0  0  0  0  0  0  0  0  # atno 17370 bound_to 10713
  157.6285  131.0923  150.8488 LP  0  0  0  0  0  0  0  0  0  0  0  0  # atno 17371 bound_to 10713
  140.0554  134.9783  157.1211 LP  0  0  0  0  0  0  0  0  0  0  0  0  # atno 17394 bound_to 11000
  140.3927  134.2167  155.7165 LP  0  0  0  0  0  0  0  0  0  0  0  0  # atno 17395 bound_to 11000

$$$$
