AV-unprocessed.smi:1952|AV-procd|sdf|7887|dock6
  -GOLD-   2272010 43D 1   1.00000     0.00000
 Structure written by MMmdl.
 38 39  0  0  0  0  0  0  0  0  2 V2000
  153.4298  142.0176  161.3602 C   0  0  0  0  0  0  0  0  0  0  0  0
  152.7045  141.9223  160.0615 C   0  0  0  0  0  0  0  0  0  0  0  0
  151.8571  142.7716  159.4085 C   0  0  0  0  0  0  0  0  0  0  0  0
  151.5253  142.0549  158.2263 C   0  0  0  0  0  0  0  0  0  0  0  0
  150.7179  142.4840  157.2442 N   0  5  0  0  0  0  0  0  0  0  0  0
  150.5333  141.7293  156.1362 C   0  0  0  0  0  0  0  0  0  0  0  0
  151.3789  141.0188  155.5876 O   0  0  0  0  0  0  0  0  0  0  0  0
  149.2914  141.8016  155.6351 N   0  0  0  0  0  0  0  0  0  0  0  0
  148.7864  141.0823  154.4663 C   0  0  2  0  0  0  0  0  0  0  0  0
  147.4816  141.7283  153.9767 C   0  0  0  0  0  0  0  0  0  0  0  0
  148.5786  139.5935  154.8135 C   0  0  0  0  0  0  0  0  0  0  0  0
  149.7994  138.8185  155.0434 N   0  0  0  0  0  0  0  0  0  0  0  0
  150.7486  138.9112  153.9366 C   0  0  0  0  0  0  0  0  0  0  0  0
  152.0131  138.0733  154.1947 C   0  0  0  0  0  0  0  0  0  0  0  0
  151.6497  136.7192  154.4448 O   0  0  0  0  0  0  0  0  0  0  0  0
  150.7621  136.5862  155.5501 C   0  0  0  0  0  0  0  0  0  0  0  0
  149.4921  137.4145  155.2914 C   0  0  0  0  0  0  0  0  0  0  0  0
  152.1324  140.8819  158.1594 N   0  0  0  0  0  0  0  0  0  0  0  0
  152.8847  140.7858  159.3363 O   0  0  0  0  0  0  0  0  0  0  0  0
  154.0697  142.8999  161.3799 H   0  0  0  0  0  0  0  0  0  0  0  0
  154.0575  141.1417  161.5266 H   0  0  0  0  0  0  0  0  0  0  0  0
  152.7263  142.0912  162.1895 H   0  0  0  0  0  0  0  0  0  0  0  0
  151.5222  143.7472  159.7268 H   0  0  0  0  0  0  0  0  0  0  0  0
  148.6328  142.3926  156.1207 H   0  0  0  0  0  0  0  0  0  0  0  0
  149.5096  141.1511  153.6531 H   0  0  0  0  0  0  0  0  0  0  0  0
  147.0930  141.2084  153.1007 H   0  0  0  0  0  0  0  0  0  0  0  0
  147.6388  142.7706  153.6969 H   0  0  0  0  0  0  0  0  0  0  0  0
  146.7116  141.7035  154.7484 H   0  0  0  0  0  0  0  0  0  0  0  0
  147.9619  139.5453  155.7122 H   0  0  0  0  0  0  0  0  0  0  0  0
  147.9910  139.1201  154.0255 H   0  0  0  0  0  0  0  0  0  0  0  0
  150.2741  138.5772  153.0127 H   0  0  0  0  0  0  0  0  0  0  0  0
  151.0484  139.9470  153.7800 H   0  0  0  0  0  0  0  0  0  0  0  0
  152.6766  138.1118  153.3308 H   0  0  0  0  0  0  0  0  0  0  0  0
  152.5703  138.4702  155.0447 H   0  0  0  0  0  0  0  0  0  0  0  0
  150.5090  135.5341  155.6809 H   0  0  0  0  0  0  0  0  0  0  0  0
  151.2575  136.9138  156.4655 H   0  0  0  0  0  0  0  0  0  0  0  0
  148.8253  137.3275  156.1498 H   0  0  0  0  0  0  0  0  0  0  0  0
  148.9575  136.9962  154.4371 H   0  0  0  0  0  0  0  0  0  0  0  0
  1  2  1  0  0  0  0
  1 20  1  0  0  0  0
  1 21  1  0  0  0  0
  1 22  1  0  0  0  0
  2 19  1  0  0  0  0
  2  3  2  0  0  0  0
  3  4  1  0  0  0  0
  3 23  1  0  0  0  0
  4  5  1  0  0  0  0
  4 18  2  0  0  0  0
  5  6  1  0  0  0  0
  6  7  2  0  0  0  0
  6  8  1  0  0  0  0
  8  9  1  0  0  0  0
  8 24  1  0  0  0  0
  9 10  1  0  0  0  0
  9 11  1  0  0  0  0
  9 25  1  0  0  0  0
 10 26  1  0  0  0  0
 10 27  1  0  0  0  0
 10 28  1  0  0  0  0
 11 12  1  0  0  0  0
 11 29  1  0  0  0  0
 11 30  1  0  0  0  0
 12 17  1  0  0  0  0
 12 13  1  0  0  0  0
 13 14  1  0  0  0  0
 13 31  1  0  0  0  0
 13 32  1  0  0  0  0
 14 15  1  0  0  0  0
 14 33  1  0  0  0  0
 14 34  1  0  0  0  0
 15 16  1  0  0  0  0
 16 17  1  0  0  0  0
 16 35  1  0  0  0  0
 16 36  1  0  0  0  0
 17 37  1  0  0  0  0
 17 38  1  0  0  0  0
 18 19  1  0  0  0  0
M  CHG  1   5  -1
M  END
> <s_m_source_file>
AV-unprocessed.smi

> <i_m_source_file_index>
1952

> <i_lp_mmshare_version>
43012

> <i_f3d_flags>
0

> <s_epik_input>
W0NIM11jMVtjSF1jKG5vMSlbTkhdQyg9TylbTkhdW0NASF0oW0NIM10pW0NIMl1OMltDSDJdW0NIMl1PW0NIMl1bQ0gyXTI=

> <s_epik_cmdline>
J2VwaWtfcHl0aG9uJywgJy1waCcsICc3LjAnLCAnLXRuJywgJzgnLCAnLW1hJywgJzIwMCcsICctbWV0YWxfYmluZGluZycsICctaW1hZScsICc8aW5maWxlLm1hZT4nLCAnLW9tYWUnLCAnPG91dGZpbGUubWFlPic=

> <r_epik_Ionization_Penalty>
6.81701

> <r_epik_Ionization_Penalty_Charging>
6.50532

> <r_epik_Ionization_Penalty_Neutral>
0.311686

> <r_epik_State_Penalty>
6.70952

> <r_epik_Charging_Adjusted_Penalty>
13.2148

> <i_epik_Tot_Q>
-1

> <i_epik_Tot_abs_Q>
1

> <r_epik_Metal_State_Penalty>
2.64135

> <b_epik_Metal_Only>
1

> <s_lp_Force_Field>
OPLS_2005

> <r_lp_Energy>
18.9741

> <b_lp_Chiralities_Consistent>
1

> <s_lp_Variant>
AV-unprocessed.smi:1952-5

> <Gold.Version>
5.8.1

> <Gold.Id.Protein>
6NUR|6NUR_protein|mol2

> <Gold.PLP.Fitness>
39.3481

> <Gold.PLP.PLP>
-34.9518

> <Gold.PLP.part.hbond>
-3.0000

> <Gold.PLP.part.metal>
0.0000

> <Gold.PLP.part.buried>
-6.2047

> <Gold.PLP.part.nonpolar>
-26.5726

> <Gold.PLP.part.repulsive>
0.5219

> <Gold.PLP.ligand.clash>
0.0000

> <Gold.PLP.ligand.torsion>
0.5044

> <Gold.PLP.Chemscore.Hbond>
1.7831

> <Gold.PLP.Chemscore.CHOScore>
0.0000

> <Gold.PLP.Chemscore.Metal>
0.0000

> <Gold.Chemscore.Hbonds>
donor molecule, donor type, donor heavy atom, donor atom, acceptor molecule, acceptor atom, score
      L1  H     8    24       P1  8028  0.04
      P1  H  7989  7998       L1     7  0.51
      P1  H 10752 10763       L1    15  0.88

> <Gold.PLP.Chemscore.Internal.Correction>
0.0559

> <Gold.Rescore>
     Score         DG    S(hbond)    S(metal)    S(lipo)     H(rot)  DE(clash)    DE(int)     intcor
     10.18     -15.41       1.56        0.00      73.96       1.53       0.16       5.06       ----

> <Gold.Chemscore.Fitness>
10.1832

> <Gold.Chemscore.DG>
-15.4075

> <Gold.Chemscore.ZeroCoef>
-5.4800

> <Gold.Chemscore.Hbond>
1.5555

> <Gold.Chemscore.Metal>
0.0000

> <Gold.Chemscore.Lipo>
73.9597

> <Gold.Chemscore.Internal_Hbond>
0.0000

> <Gold.Chemscore.DEClash>
0.1648

> <Gold.Chemscore.DEInternal>
5.0595

> <Gold.Chemscore.Rot>
1.5317

> <Gold.Chemscore.Internal.Correction>
   9.000000E+99

> <Gold.Chemscore.Hbonds>
donor molecule, donor type, donor heavy atom, donor atom, acceptor molecule, acceptor atom, score
      L1  H     8    24       P1  8028  0.04
      P1  H  7989  7998       L1     7  0.49
      P1  H 10752 10763       L1    15  0.45

> <Gold.Chemscore.Hbond.Weighted>
-5.1953

> <Gold.Chemscore.Metal.Weighted>
-0.0000

> <Gold.Chemscore.Lipo.Weighted>
-8.6533

> <Gold.Chemscore.Internal_Hbond.Weighted>
0.0000

> <Gold.Chemscore.DEClash.Weighted>
0.1648

> <Gold.Chemscore.DEInternal.Weighted>
5.0595

> <Gold.Chemscore.Rot.Weighted>
3.9211

> <Gold.Chemscore.Internal.Correction.Weighted>
   9.000000E+99

> <Gold.Protein.RotatedTorsions>
[ 6907 6896 6895 6894 ] final -169.63 input  -60.11 | X-H torsion
[ 7974 7965 7964 7962 ] final   95.66 input  175.53 | X-H torsion
[ 8008 7997 7996 7995 ] final   15.46 input   59.86 | X-H torsion
[ 10167 10162 10161 10158 ] final -133.76 input  -65.29 | X-H torsion
[ 10718 10713 10712 10709 ] final -170.35 input   66.30 | X-H torsion
[ 10763 10752 10751 10750 ] final   69.67 input  -60.55 | X-H torsion
[ 11005 11000 10999 10996 ] final  100.37 input  -57.11 | X-H torsion

> <Gold.Protein.ActiveResidues>
 VAL166  LYS551  ARG553  GLY616  TRP617  ASP618  TYR619  PRO620  LYS621  CYS622 
 ASP623  PHE694  ASN695  SER759  ASP760  ASP761  ALA762  ILE779  LEU786  VAL792 
 PHE793  MET794  SER795  GLU796  ALA797  LYS798  CYS799  TRP800  GLU811  SER814 

> <Gold.Protein.RotatedAtoms>
  151.4947  133.3517  159.2858 H   0  0  0  0  0  0  0  0  0  0  0  0  # atno 6907 bound_to 6896
  150.8811  134.8204  159.7237 H   0  0  0  0  0  0  0  0  0  0  0  0  # atno 6908 bound_to 6896
  152.4763  134.4845  159.9728 H   0  0  0  0  0  0  0  0  0  0  0  0  # atno 6909 bound_to 6896
  145.4492  139.2294  143.3049 H   0  0  0  0  0  0  0  0  0  0  0  0  # atno 7974 bound_to 7965
  154.8629  140.2947  155.5528 H   0  0  0  0  0  0  0  0  0  0  0  0  # atno 8008 bound_to 7997
  156.3020  140.2474  156.3539 H   0  0  0  0  0  0  0  0  0  0  0  0  # atno 8009 bound_to 7997
  154.8899  140.0395  157.1821 H   0  0  0  0  0  0  0  0  0  0  0  0  # atno 8010 bound_to 7997
  139.8950  143.6676  152.2605 H   0  0  0  0  0  0  0  0  0  0  0  0  # atno 10167 bound_to 10162
  156.7248  130.9284  151.3100 H   0  0  0  0  0  0  0  0  0  0  0  0  # atno 10718 bound_to 10713
  153.0299  135.5202  154.7323 H   0  0  0  0  0  0  0  0  0  0  0  0  # atno 10763 bound_to 10752
  154.6347  135.2904  155.0177 H   0  0  0  0  0  0  0  0  0  0  0  0  # atno 10764 bound_to 10752
  154.1116  135.6621  153.4938 H   0  0  0  0  0  0  0  0  0  0  0  0  # atno 10765 bound_to 10752
  139.8771  134.9137  156.4746 H   0  0  0  0  0  0  0  0  0  0  0  0  # atno 11005 bound_to 11000
  146.2514  140.5249  142.8892 LP  0  0  0  0  0  0  0  0  0  0  0  0  # atno 17320 bound_to 7965
  144.8072  140.6321  143.6439 LP  0  0  0  0  0  0  0  0  0  0  0  0  # atno 17321 bound_to 7965
  139.7076  144.7625  151.1167 LP  0  0  0  0  0  0  0  0  0  0  0  0  # atno 17342 bound_to 10162
  140.7719  143.5374  150.9352 LP  0  0  0  0  0  0  0  0  0  0  0  0  # atno 17343 bound_to 10162
  157.6883  130.9207  150.0445 LP  0  0  0  0  0  0  0  0  0  0  0  0  # atno 17370 bound_to 10713
  156.1569  130.3643  149.9356 LP  0  0  0  0  0  0  0  0  0  0  0  0  # atno 17371 bound_to 10713
  140.8771  133.7945  155.9427 LP  0  0  0  0  0  0  0  0  0  0  0  0  # atno 17394 bound_to 11000
  140.8892  134.2516  157.5103 LP  0  0  0  0  0  0  0  0  0  0  0  0  # atno 17395 bound_to 11000

$$$$
