AV-unprocessed.smi:1629|AV-procd|sdf|6521|dock7
  -GOLD-   22720 7193D 1   1.00000     0.00000
 Structure written by MMmdl.
 44 45  0  0  0  0  0  0  0  0  1 V2000
  146.9367  133.9347  158.0851 C   0  0  0  0  0  0  0  0  0  0  0  0
  148.7094  134.4151  158.0287 S   0  0  0  0  0  0  0  0  0  0  0  0
  148.9964  135.3128  159.1578 O   0  0  0  0  0  0  0  0  0  0  0  0
  149.5135  133.2009  157.8218 O   0  0  0  0  0  0  0  0  0  0  0  0
  148.7894  135.3562  156.5844 N   0  0  0  0  0  0  0  0  0  0  0  0
  150.0969  135.7587  156.0562 C   0  0  0  0  0  0  0  0  0  0  0  0
  150.9569  136.4048  157.1706 C   0  0  0  0  0  0  0  0  0  0  0  0
  152.2015  137.1065  156.5986 C   0  0  0  0  0  0  0  0  0  0  0  0
  151.7623  138.0736  155.5816 N   0  0  0  0  0  0  0  0  0  0  0  0
  151.5943  139.4079  155.7625 C   0  0  0  0  0  0  0  0  0  0  0  0
  151.1764  140.1563  154.8779 O   0  0  0  0  0  0  0  0  0  0  0  0
  151.8875  139.8504  156.9988 N   0  0  0  0  0  0  0  0  0  0  0  0
  151.6241  141.1976  157.5030 C   0  0  0  0  0  0  0  0  0  0  0  0
  152.5876  141.5940  158.6416 C   0  0  0  0  0  0  0  0  0  0  0  0
  152.2960  142.9559  159.2521 C   0  0  0  0  0  0  0  0  0  0  0  0
  152.2256  144.1078  158.4397 C   0  0  0  0  0  0  0  0  0  0  0  0
  152.0079  145.3542  159.0572 C   0  0  0  0  0  0  0  0  0  0  0  0
  151.8615  145.3997  160.4565 C   0  0  0  0  0  0  0  0  0  0  0  0
  151.9321  144.1909  161.1775 C   0  0  0  0  0  0  0  0  0  0  0  0
  152.1407  142.9907  160.5946 N   0  0  0  0  0  0  0  0  0  0  0  0
  151.1967  137.3794  154.4208 C   0  0  0  0  0  0  0  0  0  0  0  0
  149.8800  136.7136  154.8602 C   0  0  0  0  0  0  0  0  0  0  0  0
  146.7560  133.3190  158.9661 H   0  0  0  0  0  0  0  0  0  0  0  0
  146.6849  133.3670  157.1895 H   0  0  0  0  0  0  0  0  0  0  0  0
  146.3170  134.8295  158.1352 H   0  0  0  0  0  0  0  0  0  0  0  0
  148.1572  136.1546  156.6353 H   0  0  0  0  0  0  0  0  0  0  0  0
  150.6142  134.8709  155.6908 H   0  0  0  0  0  0  0  0  0  0  0  0
  150.3621  137.1325  157.7201 H   0  0  0  0  0  0  0  0  0  0  0  0
  151.2639  135.6512  157.8963 H   0  0  0  0  0  0  0  0  0  0  0  0
  152.7886  137.5532  157.4012 H   0  0  0  0  0  0  0  0  0  0  0  0
  152.8616  136.3704  156.1377 H   0  0  0  0  0  0  0  0  0  0  0  0
  152.2405  139.1785  157.6643 H   0  0  0  0  0  0  0  0  0  0  0  0
  151.7179  141.9040  156.6781 H   0  0  0  0  0  0  0  0  0  0  0  0
  150.5941  141.2817  157.8529 H   0  0  0  0  0  0  0  0  0  0  0  0
  152.5398  140.8411  159.4293 H   0  0  0  0  0  0  0  0  0  0  0  0
  153.6154  141.5807  158.2766 H   0  0  0  0  0  0  0  0  0  0  0  0
  152.3547  144.0434  157.3694 H   0  0  0  0  0  0  0  0  0  0  0  0
  151.9612  146.2586  158.4688 H   0  0  0  0  0  0  0  0  0  0  0  0
  151.6964  146.3376  160.9654 H   0  0  0  0  0  0  0  0  0  0  0  0
  151.8206  144.1883  162.2515 H   0  0  0  0  0  0  0  0  0  0  0  0
  151.0197  138.0475  153.5765 H   0  0  0  0  0  0  0  0  0  0  0  0
  151.8985  136.6268  154.0585 H   0  0  0  0  0  0  0  0  0  0  0  0
  149.4383  136.1716  154.0233 H   0  0  0  0  0  0  0  0  0  0  0  0
  149.1654  137.4923  155.1334 H   0  0  0  0  0  0  0  0  0  0  0  0
  1  2  1  0  0  0  0
  1 23  1  0  0  0  0
  1 24  1  0  0  0  0
  1 25  1  0  0  0  0
  2  3  2  0  0  0  0
  2  4  2  0  0  0  0
  2  5  1  0  0  0  0
  5  6  1  0  0  0  0
  5 26  1  0  0  0  0
  6 22  1  0  0  0  0
  6  7  1  0  0  0  0
  6 27  1  0  0  0  0
  7  8  1  0  0  0  0
  7 28  1  0  0  0  0
  7 29  1  0  0  0  0
  8  9  1  0  0  0  0
  8 30  1  0  0  0  0
  8 31  1  0  0  0  0
  9 10  1  0  0  0  0
  9 21  1  0  0  0  0
 10 11  2  0  0  0  0
 10 12  1  0  0  0  0
 12 13  1  0  0  0  0
 12 32  1  0  0  0  0
 13 14  1  0  0  0  0
 13 33  1  0  0  0  0
 13 34  1  0  0  0  0
 14 15  1  0  0  0  0
 14 35  1  0  0  0  0
 14 36  1  0  0  0  0
 15 20  1  0  0  0  0
 15 16  2  0  0  0  0
 16 17  1  0  0  0  0
 16 37  1  0  0  0  0
 17 18  2  0  0  0  0
 17 38  1  0  0  0  0
 18 19  1  0  0  0  0
 18 39  1  0  0  0  0
 19 20  2  0  0  0  0
 19 40  1  0  0  0  0
 21 22  1  0  0  0  0
 21 41  1  0  0  0  0
 21 42  1  0  0  0  0
 22 43  1  0  0  0  0
 22 44  1  0  0  0  0
M  END
> <s_m_source_file>
AV-unprocessed.smi

> <i_m_source_file_index>
1629

> <i_lp_mmshare_version>
43012

> <i_f3d_flags>
0

> <s_epik_input>
W0NIM11TKD1PKSg9TylbTkhdW0NIXTFbQ0gyXVtDSDJdTihbQ0gyXVtDSDJdMSlDKD1PKVtOSF1bQ0gyXVtDSDJdYzJbY0hdW2NIXVtjSF1bY0hdbjI=

> <s_epik_cmdline>
J2VwaWtfcHl0aG9uJywgJy1waCcsICc3LjAnLCAnLXRuJywgJzgnLCAnLW1hJywgJzIwMCcsICctbWV0YWxfYmluZGluZycsICctaW1hZScsICc8aW5maWxlLm1hZT4nLCAnLW9tYWUnLCAnPG91dGZpbGUubWFlPic=

> <r_epik_Ionization_Penalty>
0.044864

> <r_epik_Ionization_Penalty_Charging>
0

> <r_epik_Ionization_Penalty_Neutral>
0.044864

> <r_epik_State_Penalty>
0.0379889

> <r_epik_Charging_Adjusted_Penalty>
0.0379889

> <i_epik_Tot_Q>
0

> <i_epik_Tot_abs_Q>
0

> <r_epik_Metal_State_Penalty>
0.04187

> <b_epik_Metal_Only>
0

> <s_lp_Force_Field>
OPLS_2005

> <r_lp_Energy>
21.9129

> <b_lp_Chiralities_Consistent>
1

> <s_lp_Variant>
AV-unprocessed.smi:1629-1

> <Gold.Version>
5.8.1

> <Gold.Id.Protein>
6NUR|6NUR_protein|mol2

> <Gold.PLP.Fitness>
44.5154

> <Gold.PLP.PLP>
-39.2433

> <Gold.PLP.part.hbond>
-2.9341

> <Gold.PLP.part.metal>
0.0000

> <Gold.PLP.part.buried>
-5.1951

> <Gold.PLP.part.nonpolar>
-32.1174

> <Gold.PLP.part.repulsive>
0.2146

> <Gold.PLP.ligand.clash>
0.0000

> <Gold.PLP.ligand.torsion>
0.4438

> <Gold.PLP.Chemscore.Hbond>
2.0000

> <Gold.PLP.Chemscore.CHOScore>
0.0000

> <Gold.PLP.Chemscore.Metal>
0.0000

> <Gold.Chemscore.Hbonds>
donor molecule, donor type, donor heavy atom, donor atom, acceptor molecule, acceptor atom, score
      P1  H  6896  6907       L1     3  1.00
      P1  H  7989  7998       L1    11  1.00

> <Gold.PLP.Chemscore.Internal.Correction>
0.1598

> <Gold.Rescore>
     Score         DG    S(hbond)    S(metal)    S(lipo)     H(rot)  DE(clash)    DE(int)     intcor
     17.76     -18.97       1.95        0.00     104.04       2.03       0.09       1.12       ----

> <Gold.Chemscore.Fitness>
17.7581

> <Gold.Chemscore.DG>
-18.9661

> <Gold.Chemscore.ZeroCoef>
-5.4800

> <Gold.Chemscore.Hbond>
1.9524

> <Gold.Chemscore.Metal>
0.0000

> <Gold.Chemscore.Lipo>
104.0350

> <Gold.Chemscore.Internal_Hbond>
0.0000

> <Gold.Chemscore.DEClash>
0.0890

> <Gold.Chemscore.DEInternal>
1.1190

> <Gold.Chemscore.Rot>
2.0340

> <Gold.Chemscore.Internal.Correction>
   9.000000E+99

> <Gold.Chemscore.Hbonds>
donor molecule, donor type, donor heavy atom, donor atom, acceptor molecule, acceptor atom, score
      P1  H  6896  6907       L1     3  0.30
      P1  H  7989  7998       L1    11  0.99

> <Gold.Chemscore.Hbond.Weighted>
-6.5211

> <Gold.Chemscore.Metal.Weighted>
-0.0000

> <Gold.Chemscore.Lipo.Weighted>
-12.1721

> <Gold.Chemscore.Internal_Hbond.Weighted>
0.0000

> <Gold.Chemscore.DEClash.Weighted>
0.0890

> <Gold.Chemscore.DEInternal.Weighted>
1.1190

> <Gold.Chemscore.Rot.Weighted>
5.2071

> <Gold.Chemscore.Internal.Correction.Weighted>
   9.000000E+99

> <Gold.Protein.RotatedTorsions>
[ 6907 6896 6895 6894 ] final  -59.10 input  -60.11 | X-H torsion
[ 7974 7965 7964 7962 ] final   93.25 input  175.53 | X-H torsion
[ 8008 7997 7996 7995 ] final -133.07 input   59.86 | X-H torsion
[ 10167 10162 10161 10158 ] final -150.11 input  -65.29 | X-H torsion
[ 10718 10713 10712 10709 ] final  -76.17 input   66.30 | X-H torsion
[ 10763 10752 10751 10750 ] final   97.44 input  -60.55 | X-H torsion
[ 11005 11000 10999 10996 ] final -148.72 input  -57.11 | X-H torsion

> <Gold.Protein.ActiveResidues>
 VAL166  LYS551  ARG553  GLY616  TRP617  ASP618  TYR619  PRO620  LYS621  CYS622 
 ASP623  PHE694  ASN695  SER759  ASP760  ASP761  ALA762  ILE779  LEU786  VAL792 
 PHE793  MET794  SER795  GLU796  ALA797  LYS798  CYS799  TRP800  GLU811  SER814 

> <Gold.Protein.RotatedAtoms>
  150.7956  134.7012  159.6550 H   0  0  0  0  0  0  0  0  0  0  0  0  # atno 6907 bound_to 6896
  152.4067  134.6191  160.0055 H   0  0  0  0  0  0  0  0  0  0  0  0  # atno 6908 bound_to 6896
  151.6446  133.3287  159.3174 H   0  0  0  0  0  0  0  0  0  0  0  0  # atno 6909 bound_to 6896
  145.4815  139.2278  143.2880 H   0  0  0  0  0  0  0  0  0  0  0  0  # atno 7974 bound_to 7965
  155.3394  140.0471  157.3044 H   0  0  0  0  0  0  0  0  0  0  0  0  # atno 8008 bound_to 7997
  154.5285  140.2249  155.8811 H   0  0  0  0  0  0  0  0  0  0  0  0  # atno 8009 bound_to 7997
  156.1764  140.3084  155.9074 H   0  0  0  0  0  0  0  0  0  0  0  0  # atno 8010 bound_to 7997
  139.7383  143.8701  152.2555 H   0  0  0  0  0  0  0  0  0  0  0  0  # atno 10167 bound_to 10162
  156.0184  130.4459  150.3153 H   0  0  0  0  0  0  0  0  0  0  0  0  # atno 10718 bound_to 10713
  153.2769  135.4183  155.1041 H   0  0  0  0  0  0  0  0  0  0  0  0  # atno 10763 bound_to 10752
  154.8476  135.3486  154.6166 H   0  0  0  0  0  0  0  0  0  0  0  0  # atno 10764 bound_to 10752
  153.6586  135.7049  153.5242 H   0  0  0  0  0  0  0  0  0  0  0  0  # atno 10765 bound_to 10752
  140.7583  134.3328  157.5108 H   0  0  0  0  0  0  0  0  0  0  0  0  # atno 11005 bound_to 11000
  146.2338  140.5601  142.8963 LP  0  0  0  0  0  0  0  0  0  0  0  0  # atno 17320 bound_to 7965
  144.7886  140.5987  143.6557 LP  0  0  0  0  0  0  0  0  0  0  0  0  # atno 17321 bound_to 7965
  139.8644  144.7100  150.9061 LP  0  0  0  0  0  0  0  0  0  0  0  0  # atno 17342 bound_to 10162
  140.7782  143.3790  151.1511 LP  0  0  0  0  0  0  0  0  0  0  0  0  # atno 17343 bound_to 10162
  157.1254  131.0257  151.2992 LP  0  0  0  0  0  0  0  0  0  0  0  0  # atno 17370 bound_to 10713
  157.4594  130.7644  149.7222 LP  0  0  0  0  0  0  0  0  0  0  0  0  # atno 17371 bound_to 10713
  139.8775  134.9186  156.3205 LP  0  0  0  0  0  0  0  0  0  0  0  0  # atno 17394 bound_to 11000
  140.9687  133.7341  156.0504 LP  0  0  0  0  0  0  0  0  0  0  0  0  # atno 17395 bound_to 11000

$$$$
