AV-unprocessed.smi:1005|AV-procd|sdf|4364|dock10
  -GOLD-   22720 2263D 1   1.00000     0.00000
 Structure written by MMmdl.
 56 58  0  0  0  0  0  0  0  0  2 V2000
  152.9422  142.8995  161.7553 C   0  0  0  0  0  0  0  0  0  0  0  0
  152.3701  142.5944  160.3822 C   0  0  0  0  0  0  0  0  0  0  0  0
  152.4121  141.2670  159.8996 C   0  0  0  0  0  0  0  0  0  0  0  0
  151.8889  140.9411  158.6293 C   0  0  0  0  0  0  0  0  0  0  0  0
  151.8222  139.7257  157.9700 N   0  0  0  0  0  0  0  0  0  0  0  0
  151.2261  140.0706  156.8327 C   0  0  0  0  0  0  0  0  0  0  0  0
  150.8896  141.3657  156.6802 N   0  0  0  0  0  0  0  0  0  0  0  0
  150.2217  141.9623  155.5373 C   0  0  0  0  0  0  0  0  0  0  0  0
  149.2757  140.9708  154.8346 C   0  0  2  0  0  0  0  0  0  0  0  0
  150.0415  140.2195  153.9163 O   0  0  0  0  0  0  0  0  0  0  0  0
  148.1312  141.6623  154.0591 C   0  0  0  0  0  0  0  0  0  0  0  0
  147.0842  142.2575  154.8899 N   0  0  0  0  0  0  0  0  0  0  0  0
  146.2283  141.2245  155.4626 C   0  0  0  0  0  0  0  0  0  0  0  0
  145.1106  141.8225  156.3322 C   0  0  0  0  0  0  0  0  0  0  0  0
  144.3454  142.7380  155.5553 O   0  0  0  0  0  0  0  0  0  0  0  0
  145.1273  143.7995  155.0130 C   0  0  2  0  0  0  0  0  0  0  0  0
  144.1954  144.7060  154.1900 C   0  0  0  0  0  0  0  0  0  0  0  0
  143.3383  145.5676  155.0433 N   0  3  0  0  0  0  0  0  0  0  0  0
  144.0816  146.2367  156.1356 C   0  0  0  0  0  0  0  0  0  0  0  0
  142.5542  146.5372  154.2471 C   0  0  0  0  0  0  0  0  0  0  0  0
  146.2468  143.1948  154.1416 C   0  0  0  0  0  0  0  0  0  0  0  0
  151.3173  141.9880  157.8483 C   0  0  0  0  0  0  0  0  0  0  0  0
  151.2707  143.3128  158.3171 C   0  0  0  0  0  0  0  0  0  0  0  0
  151.7995  143.6213  159.5879 C   0  0  0  0  0  0  0  0  0  0  0  0
  151.7440  145.0549  160.0846 C   0  0  0  0  0  0  0  0  0  0  0  0
  153.2913  141.9937  162.2522 H   0  0  0  0  0  0  0  0  0  0  0  0
  152.1859  143.3585  162.3922 H   0  0  0  0  0  0  0  0  0  0  0  0
  153.7875  143.5830  161.6725 H   0  0  0  0  0  0  0  0  0  0  0  0
  152.8467  140.4843  160.5039 H   0  0  0  0  0  0  0  0  0  0  0  0
  151.0136  139.3380  156.0678 H   0  0  0  0  0  0  0  0  0  0  0  0
  149.6748  142.8461  155.8679 H   0  0  0  0  0  0  0  0  0  0  0  0
  150.9881  142.3112  154.8437 H   0  0  0  0  0  0  0  0  0  0  0  0
  148.8891  140.2828  155.5850 H   0  0  0  0  0  0  0  0  0  0  0  0
  149.6284  140.2742  153.0680 H   0  0  0  0  0  0  0  0  0  0  0  0
  148.5361  142.4413  153.4132 H   0  0  0  0  0  0  0  0  0  0  0  0
  147.6918  140.9304  153.3795 H   0  0  0  0  0  0  0  0  0  0  0  0
  145.7838  140.6272  154.6648 H   0  0  0  0  0  0  0  0  0  0  0  0
  146.8259  140.5409  156.0670 H   0  0  0  0  0  0  0  0  0  0  0  0
  144.4555  141.0344  156.7035 H   0  0  0  0  0  0  0  0  0  0  0  0
  145.5272  142.3310  157.2030 H   0  0  0  0  0  0  0  0  0  0  0  0
  145.5837  144.3634  155.8271 H   0  0  0  0  0  0  0  0  0  0  0  0
  144.7720  145.3314  153.5066 H   0  0  0  0  0  0  0  0  0  0  0  0
  143.5671  144.0695  153.5647 H   0  0  0  0  0  0  0  0  0  0  0  0
  144.8504  146.8997  155.7364 H   0  0  0  0  0  0  0  0  0  0  0  0
  144.5618  145.5150  156.7956 H   0  0  0  0  0  0  0  0  0  0  0  0
  143.4055  146.8336  156.7487 H   0  0  0  0  0  0  0  0  0  0  0  0
  143.2099  147.2284  153.7161 H   0  0  0  0  0  0  0  0  0  0  0  0
  141.8915  147.1184  154.8892 H   0  0  0  0  0  0  0  0  0  0  0  0
  141.9314  146.0229  153.5140 H   0  0  0  0  0  0  0  0  0  0  0  0
  146.8491  144.0085  153.7408 H   0  0  0  0  0  0  0  0  0  0  0  0
  145.8036  142.6875  153.2831 H   0  0  0  0  0  0  0  0  0  0  0  0
  150.8298  144.0850  157.7042 H   0  0  0  0  0  0  0  0  0  0  0  0
  151.3365  145.7233  159.3255 H   0  0  0  0  0  0  0  0  0  0  0  0
  152.7417  145.4117  160.3410 H   0  0  0  0  0  0  0  0  0  0  0  0
  151.1112  145.1267  160.9694 H   0  0  0  0  0  0  0  0  0  0  0  0
  142.6623  144.9554  155.4787 H   0  0  0  0  0  0  0  0  0  0  0  0
  1  2  1  0  0  0  0
  1 26  1  0  0  0  0
  1 27  1  0  0  0  0
  1 28  1  0  0  0  0
  2 24  1  0  0  0  0
  2  3  2  0  0  0  0
  3  4  1  0  0  0  0
  3 29  1  0  0  0  0
  4 22  2  0  0  0  0
  4  5  1  0  0  0  0
  5  6  2  0  0  0  0
  6  7  1  0  0  0  0
  6 30  1  0  0  0  0
  7  8  1  0  0  0  0
  7 22  1  0  0  0  0
  8  9  1  0  0  0  0
  8 31  1  0  0  0  0
  8 32  1  0  0  0  0
  9 10  1  0  0  0  0
  9 11  1  0  0  0  0
  9 33  1  0  0  0  0
 10 34  1  0  0  0  0
 11 12  1  0  0  0  0
 11 35  1  0  0  0  0
 11 36  1  0  0  0  0
 12 21  1  0  0  0  0
 12 13  1  0  0  0  0
 13 14  1  0  0  0  0
 13 37  1  0  0  0  0
 13 38  1  0  0  0  0
 14 15  1  0  0  0  0
 14 39  1  0  0  0  0
 14 40  1  0  0  0  0
 15 16  1  0  0  0  0
 16 17  1  0  0  0  0
 16 21  1  0  0  0  0
 16 41  1  0  0  0  0
 17 18  1  0  0  0  0
 17 42  1  0  0  0  0
 17 43  1  0  0  0  0
 18 19  1  0  0  0  0
 18 20  1  0  0  0  0
 18 56  1  0  0  0  0
 19 44  1  0  0  0  0
 19 45  1  0  0  0  0
 19 46  1  0  0  0  0
 20 47  1  0  0  0  0
 20 48  1  0  0  0  0
 20 49  1  0  0  0  0
 21 50  1  0  0  0  0
 21 51  1  0  0  0  0
 22 23  1  0  0  0  0
 23 24  2  0  0  0  0
 23 52  1  0  0  0  0
 24 25  1  0  0  0  0
 25 53  1  0  0  0  0
 25 54  1  0  0  0  0
 25 55  1  0  0  0  0
M  CHG  1  18   1
M  END
> <s_m_source_file>
AV-unprocessed.smi

> <i_m_source_file_index>
1005

> <i_lp_mmshare_version>
43012

> <i_f3d_flags>
0

> <s_epik_input>
W0NIM11jKFtjSF0xKWMoW0NIM10pW2NIXWMoYzEyKW4oW2NIXW4yKVtDSDJdW0NASF0oW09IXSlbQ0gyXU4zW0NIMl1bQ0gyXU9bQ0BIXShbQ0gyXTMpW0NIMl1OKFtDSDNdKVtDSDNd

> <s_epik_cmdline>
J2VwaWtfcHl0aG9uJywgJy1waCcsICc3LjAnLCAnLXRuJywgJzgnLCAnLW1hJywgJzIwMCcsICctbWV0YWxfYmluZGluZycsICctaW1hZScsICc8aW5maWxlLm1hZT4nLCAnLW9tYWUnLCAnPG91dGZpbGUubWFlPic=

> <r_epik_Ionization_Penalty>
0.226781

> <r_epik_Ionization_Penalty_Charging>
0.00915946

> <r_epik_Ionization_Penalty_Neutral>
0.217622

> <r_epik_State_Penalty>
0.173018

> <r_epik_Charging_Adjusted_Penalty>
0.182178

> <i_epik_Tot_Q>
1

> <i_epik_Tot_abs_Q>
1

> <r_epik_Metal_State_Penalty>
0.0905268

> <b_epik_Metal_Only>
0

> <s_lp_Force_Field>
OPLS_2005

> <r_lp_Energy>
37.9452

> <b_lp_Chiralities_Consistent>
1

> <s_lp_Variant>
AV-unprocessed.smi:1005-3

> <Gold.Version>
5.8.1

> <Gold.Id.Protein>
6NUR|6NUR_protein|mol2

> <Gold.PLP.Fitness>
56.8540

> <Gold.PLP.PLP>
-53.2202

> <Gold.PLP.part.hbond>
-2.0000

> <Gold.PLP.part.metal>
0.0000

> <Gold.PLP.part.buried>
-7.5844

> <Gold.PLP.part.nonpolar>
-43.1194

> <Gold.PLP.part.repulsive>
0.4589

> <Gold.PLP.ligand.clash>
0.0000

> <Gold.PLP.ligand.torsion>
1.0066

> <Gold.PLP.Chemscore.Hbond>
1.8000

> <Gold.PLP.Chemscore.CHOScore>
0.0000

> <Gold.PLP.Chemscore.Metal>
0.0000

> <Gold.Chemscore.Hbonds>
donor molecule, donor type, donor heavy atom, donor atom, acceptor molecule, acceptor atom, score
      L1  H    10    34       P1  7957  1.00
      P1  H  7989  7998       L1    10  0.73

> <Gold.PLP.Chemscore.Internal.Correction>
0.2470

> <Gold.Rescore>
     Score         DG    S(hbond)    S(metal)    S(lipo)     H(rot)  DE(clash)    DE(int)     intcor
     18.52     -19.57       1.28        0.00     136.83       2.41       0.05       1.00       ----

> <Gold.Chemscore.Fitness>
18.5218

> <Gold.Chemscore.DG>
-19.5720

> <Gold.Chemscore.ZeroCoef>
-5.4800

> <Gold.Chemscore.Hbond>
1.2758

> <Gold.Chemscore.Metal>
0.0000

> <Gold.Chemscore.Lipo>
136.8333

> <Gold.Chemscore.Internal_Hbond>
0.0000

> <Gold.Chemscore.DEClash>
0.0456

> <Gold.Chemscore.DEInternal>
1.0045

> <Gold.Chemscore.Rot>
2.4136

> <Gold.Chemscore.Internal.Correction>
   9.000000E+99

> <Gold.Chemscore.Hbonds>
donor molecule, donor type, donor heavy atom, donor atom, acceptor molecule, acceptor atom, score
      L1  H    10    34       P1  7957  0.96
      P1  H  7989  7998       L1    10  0.14

> <Gold.Chemscore.Hbond.Weighted>
-4.2612

> <Gold.Chemscore.Metal.Weighted>
-0.0000

> <Gold.Chemscore.Lipo.Weighted>
-16.0095

> <Gold.Chemscore.Internal_Hbond.Weighted>
0.0000

> <Gold.Chemscore.DEClash.Weighted>
0.0456

> <Gold.Chemscore.DEInternal.Weighted>
1.0045

> <Gold.Chemscore.Rot.Weighted>
6.1788

> <Gold.Chemscore.Internal.Correction.Weighted>
   9.000000E+99

> <Gold.Protein.RotatedTorsions>
[ 6907 6896 6895 6894 ] final  -17.62 input  -60.11 | X-H torsion
[ 7974 7965 7964 7962 ] final  112.67 input  175.53 | X-H torsion
[ 8008 7997 7996 7995 ] final  -70.70 input   59.86 | X-H torsion
[ 10167 10162 10161 10158 ] final  -10.19 input  -65.29 | X-H torsion
[ 10718 10713 10712 10709 ] final  -80.86 input   66.30 | X-H torsion
[ 10763 10752 10751 10750 ] final   15.00 input  -60.55 | X-H torsion
[ 11005 11000 10999 10996 ] final   -3.05 input  -57.11 | X-H torsion

> <Gold.Protein.ActiveResidues>
 VAL166  LYS551  ARG553  GLY616  TRP617  ASP618  TYR619  PRO620  LYS621  CYS622 
 ASP623  PHE694  ASN695  SER759  ASP760  ASP761  ALA762  ILE779  LEU786  VAL792 
 PHE793  MET794  SER795  GLU796  ALA797  LYS798  CYS799  TRP800  GLU811  SER814 

> <Gold.Protein.RotatedAtoms>
  151.2905  135.0740  159.9202 H   0  0  0  0  0  0  0  0  0  0  0  0  # atno 6907 bound_to 6896
  152.5317  133.9937  159.7873 H   0  0  0  0  0  0  0  0  0  0  0  0  # atno 6908 bound_to 6896
  151.0206  133.5829  159.2702 H   0  0  0  0  0  0  0  0  0  0  0  0  # atno 6909 bound_to 6896
  145.2267  139.2838  143.4190 H   0  0  0  0  0  0  0  0  0  0  0  0  # atno 7974 bound_to 7965
  154.5032  140.0829  156.7841 H   0  0  0  0  0  0  0  0  0  0  0  0  # atno 8008 bound_to 7997
  155.3954  140.3434  155.4235 H   0  0  0  0  0  0  0  0  0  0  0  0  # atno 8009 bound_to 7997
  156.1483  140.1550  156.8799 H   0  0  0  0  0  0  0  0  0  0  0  0  # atno 8010 bound_to 7997
  140.7107  143.5775  150.9026 H   0  0  0  0  0  0  0  0  0  0  0  0  # atno 10167 bound_to 10162
  156.0061  130.4586  150.3864 H   0  0  0  0  0  0  0  0  0  0  0  0  # atno 10718 bound_to 10713
  153.1567  135.6788  153.8801 H   0  0  0  0  0  0  0  0  0  0  0  0  # atno 10763 bound_to 10752
  153.8210  135.3130  155.3411 H   0  0  0  0  0  0  0  0  0  0  0  0  # atno 10764 bound_to 10752
  154.7903  135.4838  154.0125 H   0  0  0  0  0  0  0  0  0  0  0  0  # atno 10765 bound_to 10752
  140.6650  133.9286  155.8459 H   0  0  0  0  0  0  0  0  0  0  0  0  # atno 11005 bound_to 11000
  146.3363  140.2589  142.8601 LP  0  0  0  0  0  0  0  0  0  0  0  0  # atno 17320 bound_to 7965
  144.9715  140.8373  143.5452 LP  0  0  0  0  0  0  0  0  0  0  0  0  # atno 17321 bound_to 7965
  139.9501  143.6281  152.3031 LP  0  0  0  0  0  0  0  0  0  0  0  0  # atno 17342 bound_to 10162
  139.6797  144.7656  151.1631 LP  0  0  0  0  0  0  0  0  0  0  0  0  # atno 17343 bound_to 10162
  157.1941  131.0422  151.2685 LP  0  0  0  0  0  0  0  0  0  0  0  0  # atno 17370 bound_to 10713
  157.4035  130.7346  149.6785 LP  0  0  0  0  0  0  0  0  0  0  0  0  # atno 17371 bound_to 10713
  141.0436  134.0586  157.3872 LP  0  0  0  0  0  0  0  0  0  0  0  0  # atno 17394 bound_to 11000
  139.9000  135.0161  156.7222 LP  0  0  0  0  0  0  0  0  0  0  0  0  # atno 17395 bound_to 11000

$$$$
