AV-unprocessed.smi:2855|AV-procd|sdf|10992|dock4
  -GOLD-   2272015443D 1   1.00000     0.00000
 Structure written by MMmdl.
 46 47  0  0  0  0  0  0  0  0  2 V2000
  152.7439  142.0860  160.0932 C   0  0  0  0  0  0  0  0  0  0  0  0
  151.8493  141.3209  159.1078 C   0  0  1  0  0  0  0  0  0  0  0  0
  151.6614  142.0976  157.7956 C   0  0  0  0  0  0  0  0  0  0  0  0
  150.7679  141.3352  156.8049 C   0  0  0  0  0  0  0  0  0  0  0  0
  151.3049  139.9156  156.4877 C   0  0  2  0  0  0  0  0  0  0  0  0
  150.4028  139.1642  155.4588 C   0  0  0  0  0  0  0  0  0  0  0  0
  151.1382  138.0159  154.7408 C   0  0  0  0  0  0  0  0  0  0  0  0
  149.8050  140.1090  154.3983 C   0  0  0  0  0  0  0  0  0  0  0  0
  151.5336  139.1316  157.8122 C   0  0  2  0  0  0  0  0  0  0  0  0
  150.2541  138.7705  158.4152 N   0  0  0  0  0  0  0  0  0  0  0  0
  149.8254  137.5343  158.7163 C   0  0  0  0  0  0  0  0  0  0  0  0
  150.5108  136.5268  158.5454 O   0  0  0  0  0  0  0  0  0  0  0  0
  148.4075  137.3961  159.2974 C   0  0  0  0  0  0  0  0  0  0  0  0
  148.1594  136.1185  159.9921 N   0  0  0  0  0  0  0  0  0  0  0  0
  148.3809  134.9318  159.2710 C   0  0  0  0  0  0  0  0  0  0  0  0
  148.2203  133.7186  159.8329 C   0  0  0  0  0  0  0  0  0  0  0  0
  147.8041  133.6536  161.2283 C   0  0  0  0  0  0  0  0  0  0  0  0
  147.6544  132.5545  161.7582 O   0  0  0  0  0  0  0  0  0  0  0  0
  147.6010  134.8329  161.8855 N   0  5  0  0  0  0  0  0  0  0  0  0
  147.7719  136.0598  161.3027 C   0  0  0  0  0  0  0  0  0  0  0  0
  147.6008  137.1117  161.9191 O   0  0  0  0  0  0  0  0  0  0  0  0
  152.4113  139.9199  158.8078 C   0  0  0  0  0  0  0  0  0  0  0  0
  153.7433  142.2403  159.6854 H   0  0  0  0  0  0  0  0  0  0  0  0
  152.8475  141.5412  161.0320 H   0  0  0  0  0  0  0  0  0  0  0  0
  152.3238  143.0649  160.3257 H   0  0  0  0  0  0  0  0  0  0  0  0
  150.8713  141.2063  159.5774 H   0  0  0  0  0  0  0  0  0  0  0  0
  151.2227  143.0745  158.0016 H   0  0  0  0  0  0  0  0  0  0  0  0
  152.6323  142.2869  157.3354 H   0  0  0  0  0  0  0  0  0  0  0  0
  149.7550  141.2678  157.2052 H   0  0  0  0  0  0  0  0  0  0  0  0
  150.6968  141.9333  155.8979 H   0  0  0  0  0  0  0  0  0  0  0  0
  152.2851  140.0396  156.0245 H   0  0  0  0  0  0  0  0  0  0  0  0
  149.5632  138.7196  155.9950 H   0  0  0  0  0  0  0  0  0  0  0  0
  152.0444  138.3709  154.2492 H   0  0  0  0  0  0  0  0  0  0  0  0
  150.5051  137.5592  153.9799 H   0  0  0  0  0  0  0  0  0  0  0  0
  151.4160  137.2173  155.4283 H   0  0  0  0  0  0  0  0  0  0  0  0
  150.5852  140.6624  153.8750 H   0  0  0  0  0  0  0  0  0  0  0  0
  149.1127  140.8289  154.8328 H   0  0  0  0  0  0  0  0  0  0  0  0
  149.2388  139.5516  153.6515 H   0  0  0  0  0  0  0  0  0  0  0  0
  152.0713  138.2114  157.5805 H   0  0  0  0  0  0  0  0  0  0  0  0
  149.6128  139.5316  158.5878 H   0  0  0  0  0  0  0  0  0  0  0  0
  148.2219  138.2357  159.9694 H   0  0  0  0  0  0  0  0  0  0  0  0
  147.6942  137.5226  158.4818 H   0  0  0  0  0  0  0  0  0  0  0  0
  148.6960  135.0684  158.2468 H   0  0  0  0  0  0  0  0  0  0  0  0
  148.3993  132.8164  159.2666 H   0  0  0  0  0  0  0  0  0  0  0  0
  153.4157  140.0163  158.3935 H   0  0  0  0  0  0  0  0  0  0  0  0
  152.5242  139.3563  159.7348 H   0  0  0  0  0  0  0  0  0  0  0  0
  1  2  1  0  0  0  0
  1 23  1  0  0  0  0
  1 24  1  0  0  0  0
  1 25  1  0  0  0  0
  2 22  1  0  0  0  0
  2  3  1  0  0  0  0
  2 26  1  0  0  0  0
  3  4  1  0  0  0  0
  3 27  1  0  0  0  0
  3 28  1  0  0  0  0
  4  5  1  0  0  0  0
  4 29  1  0  0  0  0
  4 30  1  0  0  0  0
  5  6  1  0  0  0  0
  5  9  1  0  0  0  0
  5 31  1  0  0  0  0
  6  7  1  0  0  0  0
  6  8  1  0  0  0  0
  6 32  1  0  0  0  0
  7 33  1  0  0  0  0
  7 34  1  0  0  0  0
  7 35  1  0  0  0  0
  8 36  1  0  0  0  0
  8 37  1  0  0  0  0
  8 38  1  0  0  0  0
  9 10  1  0  0  0  0
  9 22  1  0  0  0  0
  9 39  1  0  0  0  0
 10 11  1  0  0  0  0
 10 40  1  0  0  0  0
 11 12  2  0  0  0  0
 11 13  1  0  0  0  0
 13 14  1  0  0  0  0
 13 41  1  0  0  0  0
 13 42  1  0  0  0  0
 14 20  1  0  0  0  0
 14 15  1  0  0  0  0
 15 16  2  0  0  0  0
 15 43  1  0  0  0  0
 16 17  1  0  0  0  0
 16 44  1  0  0  0  0
 17 18  2  0  0  0  0
 17 19  1  0  0  0  0
 19 20  1  0  0  0  0
 20 21  2  0  0  0  0
 22 45  1  0  0  0  0
 22 46  1  0  0  0  0
M  CHG  1  19  -1
M  END
> <s_m_source_file>
AV-unprocessed.smi

> <i_m_source_file_index>
2855

> <i_lp_mmshare_version>
43012

> <i_f3d_flags>
0

> <s_epik_input>
W0NIM11bQ0BASF0xW0NIMl1bQ0gyXVtDQEBIXShbQ0hdKFtDSDNdKVtDSDNdKVtDQEhdKFtDSDJdMSlbTkhdQyg9TylbQ0gyXW4yW2NIXVtjSF1jKD1PKVtuSF1jMj1P

> <s_epik_cmdline>
J2VwaWtfcHl0aG9uJywgJy1waCcsICc3LjAnLCAnLXRuJywgJzgnLCAnLW1hJywgJzIwMCcsICctbWV0YWxfYmluZGluZycsICctaW1hZScsICc8aW5maWxlLm1hZT4nLCAnLW9tYWUnLCAnPG91dGZpbGUubWFlPic=

> <r_lp_tautomer_probability>
0.999537

> <r_epik_Ionization_Penalty>
3.12102

> <r_epik_Ionization_Penalty_Charging>
2.9581e-08

> <r_epik_Ionization_Penalty_Neutral>
3.12102

> <r_epik_State_Penalty>
3.12011

> <r_epik_Charging_Adjusted_Penalty>
3.12011

> <i_epik_Tot_Q>
-1

> <i_epik_Tot_abs_Q>
1

> <r_epik_Metal_State_Penalty>
0.463583

> <b_epik_Metal_Only>
1

> <s_lp_Force_Field>
OPLS_2005

> <r_lp_Energy>
20.8659

> <b_lp_Chiralities_Consistent>
1

> <s_lp_Variant>
AV-unprocessed.smi:2855-16

> <Gold.Version>
5.8.1

> <Gold.Id.Protein>
6NUR|6NUR_protein|mol2

> <Gold.PLP.Fitness>
43.2310

> <Gold.PLP.PLP>
-36.5592

> <Gold.PLP.part.hbond>
-3.0000

> <Gold.PLP.part.metal>
0.0000

> <Gold.PLP.part.buried>
-3.3253

> <Gold.PLP.part.nonpolar>
-29.9610

> <Gold.PLP.part.repulsive>
0.1516

> <Gold.PLP.ligand.clash>
0.0000

> <Gold.PLP.ligand.torsion>
0.6807

> <Gold.PLP.Chemscore.Hbond>
2.6651

> <Gold.PLP.Chemscore.CHOScore>
0.0000

> <Gold.PLP.Chemscore.Metal>
0.0000

> <Gold.Chemscore.Hbonds>
donor molecule, donor type, donor heavy atom, donor atom, acceptor molecule, acceptor atom, score
      P1  H  6896  6909       L1    12  0.92
      P1  H  6931  6943       L1    21  1.00
      P1  H  6934  6947       L1    21  0.42

> <Gold.PLP.Chemscore.Internal.Correction>
0.0378

> <Gold.Rescore>
     Score         DG    S(hbond)    S(metal)    S(lipo)     H(rot)  DE(clash)    DE(int)     intcor
     15.62     -17.87       2.58        0.00      71.81       1.81       0.03       2.23       ----

> <Gold.Chemscore.Fitness>
15.6166

> <Gold.Chemscore.DG>
-17.8742

> <Gold.Chemscore.ZeroCoef>
-5.4800

> <Gold.Chemscore.Hbond>
2.5826

> <Gold.Chemscore.Metal>
0.0000

> <Gold.Chemscore.Lipo>
71.8094

> <Gold.Chemscore.Internal_Hbond>
0.0000

> <Gold.Chemscore.DEClash>
0.0279

> <Gold.Chemscore.DEInternal>
2.2296

> <Gold.Chemscore.Rot>
1.8100

> <Gold.Chemscore.Internal.Correction>
   9.000000E+99

> <Gold.Chemscore.Hbonds>
donor molecule, donor type, donor heavy atom, donor atom, acceptor molecule, acceptor atom, score
      P1  H  6896  6909       L1    12  0.83
      P1  H  6931  6943       L1    21  0.86
      P1  H  6934  6947       L1    21  0.44

> <Gold.Chemscore.Hbond.Weighted>
-8.6259

> <Gold.Chemscore.Metal.Weighted>
-0.0000

> <Gold.Chemscore.Lipo.Weighted>
-8.4017

> <Gold.Chemscore.Internal_Hbond.Weighted>
0.0000

> <Gold.Chemscore.DEClash.Weighted>
0.0279

> <Gold.Chemscore.DEInternal.Weighted>
2.2296

> <Gold.Chemscore.Rot.Weighted>
4.6335

> <Gold.Chemscore.Internal.Correction.Weighted>
   9.000000E+99

> <Gold.Protein.RotatedTorsions>
[ 6907 6896 6895 6894 ] final   71.23 input  -60.11 | X-H torsion
[ 7974 7965 7964 7962 ] final -171.85 input  175.53 | X-H torsion
[ 8008 7997 7996 7995 ] final  171.83 input   59.86 | X-H torsion
[ 10167 10162 10161 10158 ] final  -17.30 input  -65.29 | X-H torsion
[ 10718 10713 10712 10709 ] final   85.74 input   66.30 | X-H torsion
[ 10763 10752 10751 10750 ] final   92.29 input  -60.55 | X-H torsion
[ 11005 11000 10999 10996 ] final  -51.95 input  -57.11 | X-H torsion

> <Gold.Protein.ActiveResidues>
 VAL166  LYS551  ARG553  GLY616  TRP617  ASP618  TYR619  PRO620  LYS621  CYS622 
 ASP623  PHE694  ASN695  SER759  ASP760  ASP761  ALA762  ILE779  LEU786  VAL792 
 PHE793  MET794  SER795  GLU796  ALA797  LYS798  CYS799  TRP800  GLU811  SER814 

> <Gold.Protein.RotatedAtoms>
  152.4798  134.4750  159.9647 H   0  0  0  0  0  0  0  0  0  0  0  0  # atno 6907 bound_to 6896
  151.4759  133.3552  159.2838 H   0  0  0  0  0  0  0  0  0  0  0  0  # atno 6908 bound_to 6896
  150.8862  134.8285  159.7321 H   0  0  0  0  0  0  0  0  0  0  0  0  # atno 6909 bound_to 6896
  144.7152  140.1861  143.6353 H   0  0  0  0  0  0  0  0  0  0  0  0  # atno 7974 bound_to 7965
  156.1233  140.1501  156.9172 H   0  0  0  0  0  0  0  0  0  0  0  0  # atno 8008 bound_to 7997
  154.4852  140.0867  156.7512 H   0  0  0  0  0  0  0  0  0  0  0  0  # atno 8009 bound_to 7997
  155.4388  140.3430  155.4290 H   0  0  0  0  0  0  0  0  0  0  0  0  # atno 8010 bound_to 7997
  140.7245  143.5030  150.9846 H   0  0  0  0  0  0  0  0  0  0  0  0  # atno 10167 bound_to 10162
  157.6919  131.0187  150.2867 H   0  0  0  0  0  0  0  0  0  0  0  0  # atno 10718 bound_to 10713
  153.2176  135.4366  155.0452 H   0  0  0  0  0  0  0  0  0  0  0  0  # atno 10763 bound_to 10752
  154.8233  135.3348  154.6975 H   0  0  0  0  0  0  0  0  0  0  0  0  # atno 10764 bound_to 10752
  153.7409  135.7005  153.5023 H   0  0  0  0  0  0  0  0  0  0  0  0  # atno 10765 bound_to 10752
  141.0898  133.6635  156.3952 H   0  0  0  0  0  0  0  0  0  0  0  0  # atno 11005 bound_to 11000
  145.8812  139.2324  143.1604 LP  0  0  0  0  0  0  0  0  0  0  0  0  # atno 17320 bound_to 7965
  145.9993  140.8534  143.0027 LP  0  0  0  0  0  0  0  0  0  0  0  0  # atno 17321 bound_to 7965
  139.8740  143.7156  152.3163 LP  0  0  0  0  0  0  0  0  0  0  0  0  # atno 17342 bound_to 10162
  139.7415  144.7558  151.0645 LP  0  0  0  0  0  0  0  0  0  0  0  0  # atno 17343 bound_to 10162
  156.3405  130.3814  149.7413 LP  0  0  0  0  0  0  0  0  0  0  0  0  # atno 17370 bound_to 10713
  156.4923  130.8091  151.3100 LP  0  0  0  0  0  0  0  0  0  0  0  0  # atno 17371 bound_to 10713
  140.5278  134.6242  157.5340 LP  0  0  0  0  0  0  0  0  0  0  0  0  # atno 17394 bound_to 11000
  139.9722  134.7274  156.0019 LP  0  0  0  0  0  0  0  0  0  0  0  0  # atno 17395 bound_to 11000

$$$$
