AV-unprocessed.smi:490|AV-procd|sdf|2704|dock1
  -GOLD-   2262023143D 1   1.00000     0.00000
 Structure written by MMmdl.
 49 51  0  0  0  0  0  0  0  0  1 V2000
  152.0598  145.4251  160.5716 C   0  0  0  0  0  0  0  0  0  0  0  0
  152.4872  143.9680  160.5250 C   0  0  0  0  0  0  0  0  0  0  0  0
  152.8962  143.3367  161.7172 C   0  0  0  0  0  0  0  0  0  0  0  0
  153.2964  141.9892  161.7086 C   0  0  0  0  0  0  0  0  0  0  0  0
  153.2803  141.2542  160.5076 C   0  0  0  0  0  0  0  0  0  0  0  0
  153.7110  139.7995  160.5090 C   0  0  0  0  0  0  0  0  0  0  0  0
  152.8579  141.8727  159.3093 C   0  0  0  0  0  0  0  0  0  0  0  0
  152.8373  141.1341  158.1532 O   0  0  0  0  0  0  0  0  0  0  0  0
  151.6882  140.3081  158.0198 C   0  0  0  0  0  0  0  0  0  0  0  0
  151.5705  139.8529  156.5532 C   0  0  1  0  0  0  0  0  0  0  0  0
  152.8240  139.3526  156.1371 O   0  0  0  0  0  0  0  0  0  0  0  0
  150.5182  138.7479  156.3167 C   0  0  0  0  0  0  0  0  0  0  0  0
  149.1475  139.2370  156.4138 N   0  0  0  0  0  0  0  0  0  0  0  0
  148.1404  138.7545  157.1860 C   0  0  0  0  0  0  0  0  0  0  0  0
  148.3271  137.5990  158.1217 C   0  0  0  0  0  0  0  0  0  0  0  0
  147.9021  137.8895  159.4359 O   0  0  0  0  0  0  0  0  0  0  0  0
  146.9694  139.3817  157.0721 N   0  0  0  0  0  0  0  0  0  0  0  0
  147.2446  140.3753  156.1541 C   0  0  0  0  0  0  0  0  0  0  0  0
  146.4096  141.3769  155.6095 C   0  0  0  0  0  0  0  0  0  0  0  0
  146.9186  142.2987  154.6717 C   0  0  0  0  0  0  0  0  0  0  0  0
  148.2678  142.2340  154.2680 C   0  0  0  0  0  0  0  0  0  0  0  0
  149.1167  141.2439  154.7984 C   0  0  0  0  0  0  0  0  0  0  0  0
  148.6026  140.3210  155.7298 C   0  0  0  0  0  0  0  0  0  0  0  0
  152.4789  143.2405  159.3088 C   0  0  0  0  0  0  0  0  0  0  0  0
  152.0652  143.9285  158.0136 C   0  0  0  0  0  0  0  0  0  0  0  0
  152.0286  145.7978  161.5958 H   0  0  0  0  0  0  0  0  0  0  0  0
  151.0644  145.5468  160.1432 H   0  0  0  0  0  0  0  0  0  0  0  0
  152.7586  146.0458  160.0107 H   0  0  0  0  0  0  0  0  0  0  0  0
  152.9089  143.8856  162.6475 H   0  0  0  0  0  0  0  0  0  0  0  0
  153.6126  141.5223  162.6300 H   0  0  0  0  0  0  0  0  0  0  0  0
  154.4842  139.6313  159.7590 H   0  0  0  0  0  0  0  0  0  0  0  0
  152.8635  139.1533  160.2809 H   0  0  0  0  0  0  0  0  0  0  0  0
  154.1123  139.5040  161.4785 H   0  0  0  0  0  0  0  0  0  0  0  0
  151.7417  139.4583  158.7018 H   0  0  0  0  0  0  0  0  0  0  0  0
  150.8050  140.8722  158.3116 H   0  0  0  0  0  0  0  0  0  0  0  0
  151.3285  140.7126  155.9291 H   0  0  0  0  0  0  0  0  0  0  0  0
  152.6833  138.5370  155.6807 H   0  0  0  0  0  0  0  0  0  0  0  0
  150.6540  138.3023  155.3309 H   0  0  0  0  0  0  0  0  0  0  0  0
  150.6538  137.9370  157.0333 H   0  0  0  0  0  0  0  0  0  0  0  0
  147.7586  136.7436  157.7546 H   0  0  0  0  0  0  0  0  0  0  0  0
  149.3719  137.2929  158.1392 H   0  0  0  0  0  0  0  0  0  0  0  0
  147.8151  137.0765  159.9095 H   0  0  0  0  0  0  0  0  0  0  0  0
  145.3751  141.4357  155.9142 H   0  0  0  0  0  0  0  0  0  0  0  0
  146.2713  143.0596  154.2610 H   0  0  0  0  0  0  0  0  0  0  0  0
  148.6501  142.9440  153.5493 H   0  0  0  0  0  0  0  0  0  0  0  0
  150.1491  141.1896  154.4860 H   0  0  0  0  0  0  0  0  0  0  0  0
  152.3009  143.3339  157.1316 H   0  0  0  0  0  0  0  0  0  0  0  0
  152.5807  144.8820  157.9003 H   0  0  0  0  0  0  0  0  0  0  0  0
  150.9916  144.1166  158.0160 H   0  0  0  0  0  0  0  0  0  0  0  0
  1  2  1  0  0  0  0
  1 26  1  0  0  0  0
  1 27  1  0  0  0  0
  1 28  1  0  0  0  0
  2 24  1  0  0  0  0
  2  3  2  0  0  0  0
  3  4  1  0  0  0  0
  3 29  1  0  0  0  0
  4  5  2  0  0  0  0
  4 30  1  0  0  0  0
  5  6  1  0  0  0  0
  5  7  1  0  0  0  0
  6 31  1  0  0  0  0
  6 32  1  0  0  0  0
  6 33  1  0  0  0  0
  7  8  1  0  0  0  0
  7 24  2  0  0  0  0
  8  9  1  0  0  0  0
  9 10  1  0  0  0  0
  9 34  1  0  0  0  0
  9 35  1  0  0  0  0
 10 11  1  0  0  0  0
 10 12  1  0  0  0  0
 10 36  1  0  0  0  0
 11 37  1  0  0  0  0
 12 13  1  0  0  0  0
 12 38  1  0  0  0  0
 12 39  1  0  0  0  0
 13 23  1  0  0  0  0
 13 14  1  0  0  0  0
 14 15  1  0  0  0  0
 14 17  2  0  0  0  0
 15 16  1  0  0  0  0
 15 40  1  0  0  0  0
 15 41  1  0  0  0  0
 16 42  1  0  0  0  0
 17 18  1  0  0  0  0
 18 23  2  0  0  0  0
 18 19  1  0  0  0  0
 19 20  2  0  0  0  0
 19 43  1  0  0  0  0
 20 21  1  0  0  0  0
 20 44  1  0  0  0  0
 21 22  2  0  0  0  0
 21 45  1  0  0  0  0
 22 23  1  0  0  0  0
 22 46  1  0  0  0  0
 24 25  1  0  0  0  0
 25 47  1  0  0  0  0
 25 48  1  0  0  0  0
 25 49  1  0  0  0  0
M  END
> <s_m_source_file>
AV-unprocessed.smi

> <i_m_source_file_index>
490

> <i_lp_mmshare_version>
43012

> <i_f3d_flags>
0

> <s_epik_input>
W0NIM11jMVtjSF1bY0hdYyhbQ0gzXSljKGMxW0NIM10pT1tDSDJdW0NASF0oW09IXSlbQ0gyXW4oYyhuMilbQ0gyXVtPSF0pYyhjMjMpW2NIXVtjSF1bY0hdW2NIXTM=

> <s_epik_cmdline>
J2VwaWtfcHl0aG9uJywgJy1waCcsICc3LjAnLCAnLXRuJywgJzgnLCAnLW1hJywgJzIwMCcsICctbWV0YWxfYmluZGluZycsICctaW1hZScsICc8aW5maWxlLm1hZT4nLCAnLW9tYWUnLCAnPG91dGZpbGUubWFlPic=

> <r_lp_tautomer_probability>
1

> <r_epik_Ionization_Penalty>
0.0555874

> <r_epik_Ionization_Penalty_Charging>
0

> <r_epik_Ionization_Penalty_Neutral>
0.0555874

> <r_epik_State_Penalty>
0.0478234

> <r_epik_Charging_Adjusted_Penalty>
0.0478234

> <i_epik_Tot_Q>
0

> <i_epik_Tot_abs_Q>
0

> <r_epik_Metal_State_Penalty>
4.98044e-05

> <b_epik_Metal_Only>
0

> <s_lp_Force_Field>
OPLS_2005

> <r_lp_Energy>
21.221

> <b_lp_Chiralities_Consistent>
1

> <s_lp_Variant>
AV-unprocessed.smi:490-2

> <Gold.Version>
5.8.1

> <Gold.Id.Protein>
6NUR|6NUR_protein|mol2

> <Gold.PLP.Fitness>
51.8921

> <Gold.PLP.PLP>
-48.2745

> <Gold.PLP.part.hbond>
-3.2939

> <Gold.PLP.part.metal>
0.0000

> <Gold.PLP.part.buried>
-2.4023

> <Gold.PLP.part.nonpolar>
-43.1176

> <Gold.PLP.part.repulsive>
0.0000

> <Gold.PLP.ligand.clash>
0.0000

> <Gold.PLP.ligand.torsion>
0.5933

> <Gold.PLP.Chemscore.Hbond>
1.4560

> <Gold.PLP.Chemscore.CHOScore>
0.0000

> <Gold.PLP.Chemscore.Metal>
0.0000

> <Gold.Chemscore.Hbonds>
donor molecule, donor type, donor heavy atom, donor atom, acceptor molecule, acceptor atom, score
      P1  H  6934  6947       L1    16  0.36
      P1  H  7997  8008       L1    11  1.00

> <Gold.PLP.Chemscore.Internal.Correction>
0.4361

> <Gold.Rescore>
     Score         DG    S(hbond)    S(metal)    S(lipo)     H(rot)  DE(clash)    DE(int)     intcor
     17.70     -18.45       1.21        0.00     140.32       2.93       0.13       0.62       ----

> <Gold.Chemscore.Fitness>
17.6974

> <Gold.Chemscore.DG>
-18.4524

> <Gold.Chemscore.ZeroCoef>
-5.4800

> <Gold.Chemscore.Hbond>
1.2126

> <Gold.Chemscore.Metal>
0.0000

> <Gold.Chemscore.Lipo>
140.3222

> <Gold.Chemscore.Internal_Hbond>
0.0000

> <Gold.Chemscore.DEClash>
0.1346

> <Gold.Chemscore.DEInternal>
0.6204

> <Gold.Chemscore.Rot>
2.9279

> <Gold.Chemscore.Internal.Correction>
   9.000000E+99

> <Gold.Chemscore.Hbonds>
donor molecule, donor type, donor heavy atom, donor atom, acceptor molecule, acceptor atom, score
      P1  H  6934  6947       L1    16  0.05
      P1  H  7997  8008       L1    11  1.00

> <Gold.Chemscore.Hbond.Weighted>
-4.0501

> <Gold.Chemscore.Metal.Weighted>
-0.0000

> <Gold.Chemscore.Lipo.Weighted>
-16.4177

> <Gold.Chemscore.Internal_Hbond.Weighted>
0.0000

> <Gold.Chemscore.DEClash.Weighted>
0.1346

> <Gold.Chemscore.DEInternal.Weighted>
0.6204

> <Gold.Chemscore.Rot.Weighted>
7.4954

> <Gold.Chemscore.Internal.Correction.Weighted>
   9.000000E+99

> <Gold.Protein.RotatedTorsions>
[ 6907 6896 6895 6894 ] final  147.91 input  -60.11 | X-H torsion
[ 7974 7965 7964 7962 ] final  175.48 input  175.53 | X-H torsion
[ 8008 7997 7996 7995 ] final  -50.20 input   59.86 | X-H torsion
[ 10167 10162 10161 10158 ] final  -84.26 input  -65.29 | X-H torsion
[ 10718 10713 10712 10709 ] final  -17.65 input   66.30 | X-H torsion
[ 10763 10752 10751 10750 ] final  -17.56 input  -60.55 | X-H torsion
[ 11005 11000 10999 10996 ] final  151.52 input  -57.11 | X-H torsion

> <Gold.Protein.ActiveResidues>
 VAL166  LYS551  ARG553  GLY616  TRP617  ASP618  TYR619  PRO620  LYS621  CYS622 
 ASP623  PHE694  ASN695  SER759  ASP760  ASP761  ALA762  ILE779  LEU786  VAL792 
 PHE793  MET794  SER795  GLU796  ALA797  LYS798  CYS799  TRP800  GLU811  SER814 

> <Gold.Protein.RotatedAtoms>
  152.1486  133.4507  159.4801 H   0  0  0  0  0  0  0  0  0  0  0  0  # atno 6907 bound_to 6896
  150.6893  134.2217  159.4408 H   0  0  0  0  0  0  0  0  0  0  0  0  # atno 6908 bound_to 6896
  152.0113  134.9874  160.0619 H   0  0  0  0  0  0  0  0  0  0  0  0  # atno 6909 bound_to 6896
  144.7201  139.9952  143.6440 H   0  0  0  0  0  0  0  0  0  0  0  0  # atno 7974 bound_to 7965
  154.4057  140.1278  156.4627 H   0  0  0  0  0  0  0  0  0  0  0  0  # atno 8008 bound_to 7997
  155.7257  140.3492  155.5016 H   0  0  0  0  0  0  0  0  0  0  0  0  # atno 8009 bound_to 7997
  155.9174  140.1046  157.1223 H   0  0  0  0  0  0  0  0  0  0  0  0  # atno 8010 bound_to 7997
  140.4149  143.2607  151.8968 H   0  0  0  0  0  0  0  0  0  0  0  0  # atno 10167 bound_to 10162
  156.5706  130.4748  149.6365 H   0  0  0  0  0  0  0  0  0  0  0  0  # atno 10718 bound_to 10713
  153.5758  135.7006  153.5484 H   0  0  0  0  0  0  0  0  0  0  0  0  # atno 10763 bound_to 10752
  153.3304  135.4049  155.1490 H   0  0  0  0  0  0  0  0  0  0  0  0  # atno 10764 bound_to 10752
  154.8626  135.3717  154.5283 H   0  0  0  0  0  0  0  0  0  0  0  0  # atno 10765 bound_to 10752
  140.1226  134.8854  157.2093 H   0  0  0  0  0  0  0  0  0  0  0  0  # atno 11005 bound_to 11000
  146.0379  139.3395  143.0715 LP  0  0  0  0  0  0  0  0  0  0  0  0  # atno 17320 bound_to 7965
  145.8371  140.9600  143.0819 LP  0  0  0  0  0  0  0  0  0  0  0  0  # atno 17321 bound_to 7965
  139.4782  144.5498  151.8403 LP  0  0  0  0  0  0  0  0  0  0  0  0  # atno 17342 bound_to 10162
  140.4597  144.1739  150.5905 LP  0  0  0  0  0  0  0  0  0  0  0  0  # atno 17343 bound_to 10162
  156.2718  130.7021  151.1821 LP  0  0  0  0  0  0  0  0  0  0  0  0  # atno 17370 bound_to 10713
  157.7349  131.0577  150.5499 LP  0  0  0  0  0  0  0  0  0  0  0  0  # atno 17371 bound_to 10713
  140.2945  134.3202  155.7306 LP  0  0  0  0  0  0  0  0  0  0  0  0  # atno 17394 bound_to 11000
  141.2155  133.7555  156.9552 LP  0  0  0  0  0  0  0  0  0  0  0  0  # atno 17395 bound_to 11000

$$$$
