AV-unprocessed.smi:1106|AV-procd|sdf|4779|dock5
  -GOLD-   22720 3323D 1   1.00000     0.00000
 Structure written by MMmdl.
 48 49  0  0  0  0  0  0  0  0  2 V2000
  154.1237  129.6288  154.7076 C   0  0  0  0  0  0  0  0  0  0  0  0
  152.9594  129.2579  155.6384 C   0  0  0  0  0  0  0  0  0  0  0  0
  151.6893  129.7545  155.1757 N   0  0  0  0  0  0  0  0  0  0  0  0
  150.8435  128.9794  154.4063 C   0  0  0  0  0  0  0  0  0  0  0  0
  149.6497  129.4228  153.9567 C   0  0  0  0  0  0  0  0  0  0  0  0
  148.7927  128.6013  153.1673 C   0  0  0  0  0  0  0  0  0  0  0  0
  148.1031  127.9462  152.5081 N   0  0  0  0  0  0  0  0  0  0  0  0
  149.1812  130.7724  154.2624 C   0  0  0  0  0  0  0  0  0  0  0  0
  148.0932  131.2186  153.8929 O   0  0  0  0  0  0  0  0  0  0  0  0
  150.0803  131.5472  155.0378 N   0  0  0  0  0  0  0  0  0  0  0  0
  149.6745  132.9053  155.3705 C   0  0  0  0  0  0  0  0  0  0  0  0
  149.1839  133.7324  154.1610 C   0  0  2  0  0  0  0  0  0  0  0  0
  149.8463  134.9798  154.2056 O   0  0  0  0  0  0  0  0  0  0  0  0
  147.6613  133.9865  154.1608 C   0  0  0  0  0  0  0  0  0  0  0  0
  147.1189  134.1886  152.7933 N   0  3  2  0  0  0  0  0  0  0  0  0
  145.8557  134.9698  152.7983 C   0  0  0  0  0  0  0  0  0  0  0  0
  145.3901  135.2869  151.3657 C   0  0  0  0  0  0  0  0  0  0  0  0
  145.2378  134.0181  150.5072 C   0  0  2  0  0  0  0  0  0  0  0  0
  143.9912  133.1948  150.8759 C   0  0  0  0  0  0  0  0  0  0  0  0
  146.5368  133.1951  150.5770 C   0  0  0  0  0  0  0  0  0  0  0  0
  146.9767  132.9222  152.0265 C   0  0  0  0  0  0  0  0  0  0  0  0
  151.3291  131.0794  155.5164 C   0  0  0  0  0  0  0  0  0  0  0  0
  152.0675  131.7857  156.2082 O   0  0  0  0  0  0  0  0  0  0  0  0
  155.0584  129.2024  155.0718 H   0  0  0  0  0  0  0  0  0  0  0  0
  154.2583  130.7086  154.6411 H   0  0  0  0  0  0  0  0  0  0  0  0
  153.9572  129.2492  153.6990 H   0  0  0  0  0  0  0  0  0  0  0  0
  152.8513  128.1744  155.7053 H   0  0  0  0  0  0  0  0  0  0  0  0
  153.1043  129.6208  156.6576 H   0  0  0  0  0  0  0  0  0  0  0  0
  151.1485  127.9740  154.1529 H   0  0  0  0  0  0  0  0  0  0  0  0
  148.9233  132.8652  156.1605 H   0  0  0  0  0  0  0  0  0  0  0  0
  150.5389  133.3749  155.8444 H   0  0  0  0  0  0  0  0  0  0  0  0
  149.4895  133.2336  153.2424 H   0  0  0  0  0  0  0  0  0  0  0  0
  149.4083  135.5745  153.6148 H   0  0  0  0  0  0  0  0  0  0  0  0
  147.1252  133.1594  154.6267 H   0  0  0  0  0  0  0  0  0  0  0  0
  147.4596  134.8639  154.7775 H   0  0  0  0  0  0  0  0  0  0  0  0
  145.0854  134.4192  153.3402 H   0  0  0  0  0  0  0  0  0  0  0  0
  146.0072  135.9071  153.3351 H   0  0  0  0  0  0  0  0  0  0  0  0
  144.4515  135.8415  151.3909 H   0  0  0  0  0  0  0  0  0  0  0  0
  146.1191  135.9494  150.8970 H   0  0  0  0  0  0  0  0  0  0  0  0
  145.1029  134.3342  149.4716 H   0  0  0  0  0  0  0  0  0  0  0  0
  144.0267  132.8296  151.9018 H   0  0  0  0  0  0  0  0  0  0  0  0
  143.8887  132.3287  150.2217 H   0  0  0  0  0  0  0  0  0  0  0  0
  143.0844  133.7911  150.7705 H   0  0  0  0  0  0  0  0  0  0  0  0
  146.4171  132.2543  150.0385 H   0  0  0  0  0  0  0  0  0  0  0  0
  147.3317  133.7374  150.0631 H   0  0  0  0  0  0  0  0  0  0  0  0
  147.9224  132.3821  152.0082 H   0  0  0  0  0  0  0  0  0  0  0  0
  146.2584  132.2702  152.5253 H   0  0  0  0  0  0  0  0  0  0  0  0
  147.7971  134.7571  152.3057 H   0  0  0  0  0  0  0  0  0  0  0  0
  1  2  1  0  0  0  0
  1 24  1  0  0  0  0
  1 25  1  0  0  0  0
  1 26  1  0  0  0  0
  2  3  1  0  0  0  0
  2 27  1  0  0  0  0
  2 28  1  0  0  0  0
  3 22  1  0  0  0  0
  3  4  1  0  0  0  0
  4  5  2  0  0  0  0
  4 29  1  0  0  0  0
  5  6  1  0  0  0  0
  5  8  1  0  0  0  0
  6  7  3  0  0  0  0
  8  9  2  0  0  0  0
  8 10  1  0  0  0  0
 10 11  1  0  0  0  0
 10 22  1  0  0  0  0
 11 12  1  0  0  0  0
 11 30  1  0  0  0  0
 11 31  1  0  0  0  0
 12 13  1  0  0  0  0
 12 14  1  0  0  0  0
 12 32  1  0  0  0  0
 13 33  1  0  0  0  0
 14 15  1  0  0  0  0
 14 34  1  0  0  0  0
 14 35  1  0  0  0  0
 15 21  1  0  0  0  0
 15 16  1  0  0  0  0
 15 48  1  0  0  0  0
 16 17  1  0  0  0  0
 16 36  1  0  0  0  0
 16 37  1  0  0  0  0
 17 18  1  0  0  0  0
 17 38  1  0  0  0  0
 17 39  1  0  0  0  0
 18 19  1  0  0  0  0
 18 20  1  0  0  0  0
 18 40  1  0  0  0  0
 19 41  1  0  0  0  0
 19 42  1  0  0  0  0
 19 43  1  0  0  0  0
 20 21  1  0  0  0  0
 20 44  1  0  0  0  0
 20 45  1  0  0  0  0
 21 46  1  0  0  0  0
 21 47  1  0  0  0  0
 22 23  2  0  0  0  0
M  CHG  1  15   1
M  END
> <s_m_source_file>
AV-unprocessed.smi

> <i_m_source_file_index>
1106

> <i_lp_mmshare_version>
43012

> <i_f3d_flags>
0

> <s_epik_input>
W0NIM11bQ0gyXW4xW2NIXWMoQyNOKWMoPU8pbihjMT1PKVtDSDJdW0NASF0oW09IXSlbQ0gyXU4yW0NIMl1bQ0gyXVtDSF0oW0NIM10pW0NIMl1bQ0gyXTI=

> <s_epik_cmdline>
J2VwaWtfcHl0aG9uJywgJy1waCcsICc3LjAnLCAnLXRuJywgJzgnLCAnLW1hJywgJzIwMCcsICctbWV0YWxfYmluZGluZycsICctaW1hZScsICc8aW5maWxlLm1hZT4nLCAnLW9tYWUnLCAnPG91dGZpbGUubWFlPic=

> <r_epik_Ionization_Penalty>
0.00136816

> <r_epik_Ionization_Penalty_Charging>
0.00136813

> <r_epik_Ionization_Penalty_Neutral>
3.19882e-08

> <r_epik_State_Penalty>
0.000910892

> <r_epik_Charging_Adjusted_Penalty>
0.00227902

> <i_epik_Tot_Q>
1

> <i_epik_Tot_abs_Q>
1

> <r_epik_Metal_State_Penalty>
-0

> <b_epik_Metal_Only>
0

> <s_lp_Force_Field>
OPLS_2005

> <r_lp_Energy>
29.5745

> <b_lp_Chiralities_Consistent>
1

> <s_lp_Variant>
AV-unprocessed.smi:1106-3

> <Gold.Version>
5.8.1

> <Gold.Id.Protein>
6NUR|6NUR_protein|mol2

> <Gold.PLP.Fitness>
48.3155

> <Gold.PLP.PLP>
-40.4455

> <Gold.PLP.part.hbond>
-2.5334

> <Gold.PLP.part.metal>
0.0000

> <Gold.PLP.part.buried>
-2.2874

> <Gold.PLP.part.nonpolar>
-35.1726

> <Gold.PLP.part.repulsive>
0.1956

> <Gold.PLP.ligand.clash>
0.0000

> <Gold.PLP.ligand.torsion>
1.6531

> <Gold.PLP.Chemscore.Hbond>
3.0000

> <Gold.PLP.Chemscore.CHOScore>
0.7085

> <Gold.PLP.Chemscore.Metal>
0.0000

> <Gold.Chemscore.Hbonds>
donor molecule, donor type, donor heavy atom, donor atom, acceptor molecule, acceptor atom, score
      L1  H    13    33       P1  7948  1.00
      L1  H    15    48       P1  7948  2.00
      L1  C     4    29       P1 10737  0.57

> <Gold.PLP.Chemscore.Internal.Correction>
0.0506

> <Gold.Rescore>
     Score         DG    S(hbond)    S(metal)    S(lipo)     H(rot)  DE(clash)    DE(int)     intcor
      8.57     -12.78       1.59        0.00      71.27       2.48       0.08       4.13       ----

> <Gold.Chemscore.Fitness>
8.5741

> <Gold.Chemscore.DG>
-12.7800

> <Gold.Chemscore.ZeroCoef>
-5.4800

> <Gold.Chemscore.Hbond>
1.5928

> <Gold.Chemscore.Metal>
0.0000

> <Gold.Chemscore.Lipo>
71.2696

> <Gold.Chemscore.Internal_Hbond>
0.0000

> <Gold.Chemscore.DEClash>
0.0788

> <Gold.Chemscore.DEInternal>
4.1271

> <Gold.Chemscore.Rot>
2.4838

> <Gold.Chemscore.Internal.Correction>
   9.000000E+99

> <Gold.Chemscore.Hbonds>
donor molecule, donor type, donor heavy atom, donor atom, acceptor molecule, acceptor atom, score
      L1  H    13    33       P1  7948  0.29
      L1  H    15    48       P1  7948  0.74

> <Gold.Chemscore.Hbond.Weighted>
-5.3199

> <Gold.Chemscore.Metal.Weighted>
-0.0000

> <Gold.Chemscore.Lipo.Weighted>
-8.3385

> <Gold.Chemscore.Internal_Hbond.Weighted>
0.0000

> <Gold.Chemscore.DEClash.Weighted>
0.0788

> <Gold.Chemscore.DEInternal.Weighted>
4.1271

> <Gold.Chemscore.Rot.Weighted>
6.3585

> <Gold.Chemscore.Internal.Correction.Weighted>
   9.000000E+99

> <Gold.Protein.RotatedTorsions>
[ 6907 6896 6895 6894 ] final  102.75 input  -60.11 | X-H torsion
[ 7974 7965 7964 7962 ] final   41.79 input  175.53 | X-H torsion
[ 8008 7997 7996 7995 ] final -140.11 input   59.86 | X-H torsion
[ 10167 10162 10161 10158 ] final   75.99 input  -65.29 | X-H torsion
[ 10718 10713 10712 10709 ] final -148.51 input   66.30 | X-H torsion
[ 10763 10752 10751 10750 ] final   73.49 input  -60.55 | X-H torsion
[ 11005 11000 10999 10996 ] final -128.66 input  -57.11 | X-H torsion

> <Gold.Protein.ActiveResidues>
 VAL166  LYS551  ARG553  GLY616  TRP617  ASP618  TYR619  PRO620  LYS621  CYS622 
 ASP623  PHE694  ASN695  SER759  ASP760  ASP761  ALA762  ILE779  LEU786  VAL792 
 PHE793  MET794  SER795  GLU796  ALA797  LYS798  CYS799  TRP800  GLU811  SER814 

> <Gold.Protein.RotatedAtoms>
  152.5315  133.9928  159.7858 H   0  0  0  0  0  0  0  0  0  0  0  0  # atno 6907 bound_to 6896
  151.0161  133.5912  159.2684 H   0  0  0  0  0  0  0  0  0  0  0  0  # atno 6908 bound_to 6896
  151.2968  135.0764  159.9277 H   0  0  0  0  0  0  0  0  0  0  0  0  # atno 6909 bound_to 6896
  146.0794  139.5375  142.9546 H   0  0  0  0  0  0  0  0  0  0  0  0  # atno 7974 bound_to 7965
  155.4560  140.0542  157.2996 H   0  0  0  0  0  0  0  0  0  0  0  0  # atno 8008 bound_to 7997
  154.4757  140.2060  155.9839 H   0  0  0  0  0  0  0  0  0  0  0  0  # atno 8009 bound_to 7997
  156.1128  140.3201  155.8101 H   0  0  0  0  0  0  0  0  0  0  0  0  # atno 8010 bound_to 7997
  139.9971  144.5714  150.7769 H   0  0  0  0  0  0  0  0  0  0  0  0  # atno 10167 bound_to 10162
  156.4211  130.8029  151.2252 H   0  0  0  0  0  0  0  0  0  0  0  0  # atno 10718 bound_to 10713
  153.0525  135.5061  154.7901 H   0  0  0  0  0  0  0  0  0  0  0  0  # atno 10763 bound_to 10752
  154.6753  135.2959  154.9690 H   0  0  0  0  0  0  0  0  0  0  0  0  # atno 10764 bound_to 10752
  154.0494  135.6706  153.4851 H   0  0  0  0  0  0  0  0  0  0  0  0  # atno 10765 bound_to 10752
  140.9498  134.1081  157.4073 H   0  0  0  0  0  0  0  0  0  0  0  0  # atno 11005 bound_to 11000
  145.6246  141.0316  143.1896 LP  0  0  0  0  0  0  0  0  0  0  0  0  # atno 17320 bound_to 7965
  144.7283  139.7805  143.7356 LP  0  0  0  0  0  0  0  0  0  0  0  0  # atno 17321 bound_to 7965
  140.7433  143.2844  151.3505 LP  0  0  0  0  0  0  0  0  0  0  0  0  # atno 17342 bound_to 10162
  139.6298  144.0742  152.2466 LP  0  0  0  0  0  0  0  0  0  0  0  0  # atno 17343 bound_to 10162
  157.7508  131.0227  150.3805 LP  0  0  0  0  0  0  0  0  0  0  0  0  # atno 17370 bound_to 10713
  156.4123  130.3936  149.6883 LP  0  0  0  0  0  0  0  0  0  0  0  0  # atno 17371 bound_to 10713
  139.8844  135.0062  156.6365 LP  0  0  0  0  0  0  0  0  0  0  0  0  # atno 17394 bound_to 11000
  140.7619  133.8810  155.8425 LP  0  0  0  0  0  0  0  0  0  0  0  0  # atno 17395 bound_to 11000

$$$$
