AV-unprocessed.smi:3278|AV-procd|sdf|12541|dock5
  -GOLD-   2272018453D 1   1.00000     0.00000
 Structure written by MMmdl.
 39 40  0  0  0  0  0  0  0  0  2 V2000
  145.4533  142.8321  154.2304 C   0  0  0  0  0  0  0  0  0  0  0  0
  146.5285  141.8700  154.3420 N   0  0  0  0  0  0  0  0  0  0  0  0
  147.5291  141.8024  155.2868 C   0  0  0  0  0  0  0  0  0  0  0  0
  148.3153  140.7243  154.9832 C   0  0  0  0  0  0  0  0  0  0  0  0
  149.5378  140.2111  155.7148 C   0  0  2  0  0  0  0  0  0  0  0  0
  150.1101  138.9792  154.9922 C   0  0  0  0  0  0  0  0  0  0  0  0
  149.2249  139.7788  157.0261 O   0  0  0  0  0  0  0  0  0  0  0  0
  150.6124  141.3126  155.8401 C   0  0  0  0  0  0  0  0  0  0  0  0
  150.1354  142.4553  156.6524 N   0  3  0  0  0  0  0  0  0  0  0  0
  151.1844  143.2066  157.3757 C   0  0  2  0  0  0  0  0  0  0  0  0
  151.7612  142.3728  158.5415 C   0  0  0  0  0  0  0  0  0  0  0  0
  152.8901  143.0975  159.2933 C   0  0  0  0  0  0  0  0  0  0  0  0
  152.4241  144.4166  159.9232 C   0  0  0  0  0  0  0  0  0  0  0  0
  151.8609  145.5801  158.6529 S   0  0  0  0  0  0  0  0  0  0  0  0
  150.5954  144.5371  157.8787 C   0  0  0  0  0  0  0  0  0  0  0  0
  147.6973  140.1950  153.8114 C   0  0  0  0  0  0  0  0  0  0  0  0
  146.6292  140.8780  153.4354 N   0  0  0  0  0  0  0  0  0  0  0  0
  145.5050  143.5484  155.0508 H   0  0  0  0  0  0  0  0  0  0  0  0
  144.4921  142.3185  154.2684 H   0  0  0  0  0  0  0  0  0  0  0  0
  145.5356  143.3693  153.2848 H   0  0  0  0  0  0  0  0  0  0  0  0
  147.5994  142.5204  156.0909 H   0  0  0  0  0  0  0  0  0  0  0  0
  150.4163  139.2203  153.9736 H   0  0  0  0  0  0  0  0  0  0  0  0
  149.3731  138.1772  154.9314 H   0  0  0  0  0  0  0  0  0  0  0  0
  150.9854  138.5831  155.5084 H   0  0  0  0  0  0  0  0  0  0  0  0
  148.2852  139.7764  157.1294 H   0  0  0  0  0  0  0  0  0  0  0  0
  151.5224  140.8983  156.2745 H   0  0  0  0  0  0  0  0  0  0  0  0
  150.8779  141.6806  154.8479 H   0  0  0  0  0  0  0  0  0  0  0  0
  149.6803  143.0963  156.0180 H   0  0  0  0  0  0  0  0  0  0  0  0
  151.9823  143.4385  156.6681 H   0  0  0  0  0  0  0  0  0  0  0  0
  150.9651  142.1153  159.2418 H   0  0  0  0  0  0  0  0  0  0  0  0
  152.1555  141.4273  158.1704 H   0  0  0  0  0  0  0  0  0  0  0  0
  153.2770  142.4441  160.0760 H   0  0  0  0  0  0  0  0  0  0  0  0
  153.7237  143.2870  158.6158 H   0  0  0  0  0  0  0  0  0  0  0  0
  151.6115  144.2373  160.6284 H   0  0  0  0  0  0  0  0  0  0  0  0
  153.2384  144.8764  160.4836 H   0  0  0  0  0  0  0  0  0  0  0  0
  150.1571  145.0963  157.0513 H   0  0  0  0  0  0  0  0  0  0  0  0
  149.7969  144.3570  158.5996 H   0  0  0  0  0  0  0  0  0  0  0  0
  147.9892  139.3338  153.2284 H   0  0  0  0  0  0  0  0  0  0  0  0
  149.4477  142.1263  157.3152 H   0  0  0  0  0  0  0  0  0  0  0  0
  1  2  1  0  0  0  0
  1 18  1  0  0  0  0
  1 19  1  0  0  0  0
  1 20  1  0  0  0  0
  2 17  1  0  0  0  0
  2  3  1  0  0  0  0
  3  4  2  0  0  0  0
  3 21  1  0  0  0  0
  4  5  1  0  0  0  0
  4 16  1  0  0  0  0
  5  6  1  0  0  0  0
  5  7  1  0  0  0  0
  5  8  1  0  0  0  0
  6 22  1  0  0  0  0
  6 23  1  0  0  0  0
  6 24  1  0  0  0  0
  7 25  1  0  0  0  0
  8  9  1  0  0  0  0
  8 26  1  0  0  0  0
  8 27  1  0  0  0  0
  9 10  1  0  0  0  0
  9 28  1  0  0  0  0
  9 39  1  0  0  0  0
 10 15  1  0  0  0  0
 10 11  1  0  0  0  0
 10 29  1  0  0  0  0
 11 12  1  0  0  0  0
 11 30  1  0  0  0  0
 11 31  1  0  0  0  0
 12 13  1  0  0  0  0
 12 32  1  0  0  0  0
 12 33  1  0  0  0  0
 13 14  1  0  0  0  0
 13 34  1  0  0  0  0
 13 35  1  0  0  0  0
 14 15  1  0  0  0  0
 15 36  1  0  0  0  0
 15 37  1  0  0  0  0
 16 17  2  0  0  0  0
 16 38  1  0  0  0  0
M  CHG  1   9   1
M  END
> <s_m_source_file>
AV-unprocessed.smi

> <i_m_source_file_index>
3278

> <i_lp_mmshare_version>
43012

> <i_f3d_flags>
0

> <s_epik_input>
W0NIM11uMVtjSF1jKFtjSF1uMSlbQ0BAXShbQ0gzXSkoW09IXSlbQ0gyXVtOSF1bQ0BASF0yW0NIMl1bQ0gyXVtDSDJdU1tDSDJdMg==

> <s_epik_cmdline>
J2VwaWtfcHl0aG9uJywgJy1waCcsICc3LjAnLCAnLXRuJywgJzgnLCAnLW1hJywgJzIwMCcsICctbWV0YWxfYmluZGluZycsICctaW1hZScsICc8aW5maWxlLm1hZT4nLCAnLW9tYWUnLCAnPG91dGZpbGUubWFlPic=

> <r_lp_tautomer_probability>
1

> <r_epik_Ionization_Penalty>
0.0185703

> <r_epik_Ionization_Penalty_Charging>
0.0185619

> <r_epik_Ionization_Penalty_Neutral>
8.47286e-06

> <r_epik_State_Penalty>
0.0147768

> <r_epik_Charging_Adjusted_Penalty>
0.0333386

> <i_epik_Tot_Q>
1

> <i_epik_Tot_abs_Q>
1

> <r_epik_Metal_State_Penalty>
0.0147782

> <b_epik_Metal_Only>
0

> <s_lp_Force_Field>
OPLS_2005

> <r_lp_Energy>
8.69531

> <b_lp_Chiralities_Consistent>
1

> <s_lp_Variant>
AV-unprocessed.smi:3278-2

> <Gold.Version>
5.8.1

> <Gold.Id.Protein>
6NUR|6NUR_protein|mol2

> <Gold.PLP.Fitness>
48.9113

> <Gold.PLP.PLP>
-38.8132

> <Gold.PLP.part.hbond>
-1.0000

> <Gold.PLP.part.metal>
0.0000

> <Gold.PLP.part.buried>
0.0936

> <Gold.PLP.part.nonpolar>
-37.7062

> <Gold.PLP.part.repulsive>
0.2529

> <Gold.PLP.ligand.clash>
0.0000

> <Gold.PLP.ligand.torsion>
0.2933

> <Gold.PLP.Chemscore.Hbond>
2.0000

> <Gold.PLP.Chemscore.CHOScore>
1.5533

> <Gold.PLP.Chemscore.Metal>
0.0000

> <Gold.Chemscore.Hbonds>
donor molecule, donor type, donor heavy atom, donor atom, acceptor molecule, acceptor atom, score
      L1  H     9    28       P1  8028  2.00
      L1  C     3    21       P1  8028  0.71
      L1  C    16    38       P1  7957  0.35

> <Gold.PLP.Chemscore.Internal.Correction>
0.0248

> <Gold.Rescore>
     Score         DG    S(hbond)    S(metal)    S(lipo)     H(rot)  DE(clash)    DE(int)     intcor
     16.24     -16.91       0.99        0.00     113.19       2.00       0.07       0.60       ----

> <Gold.Chemscore.Fitness>
16.2439

> <Gold.Chemscore.DG>
-16.9150

> <Gold.Chemscore.ZeroCoef>
-5.4800

> <Gold.Chemscore.Hbond>
0.9944

> <Gold.Chemscore.Metal>
0.0000

> <Gold.Chemscore.Lipo>
113.1904

> <Gold.Chemscore.Internal_Hbond>
0.0000

> <Gold.Chemscore.DEClash>
0.0681

> <Gold.Chemscore.DEInternal>
0.6031

> <Gold.Chemscore.Rot>
2.0038

> <Gold.Chemscore.Internal.Correction>
   9.000000E+99

> <Gold.Chemscore.Hbonds>
donor molecule, donor type, donor heavy atom, donor atom, acceptor molecule, acceptor atom, score
      L1  H     9    28       P1  8028  0.95

> <Gold.Chemscore.Hbond.Weighted>
-3.3214

> <Gold.Chemscore.Metal.Weighted>
-0.0000

> <Gold.Chemscore.Lipo.Weighted>
-13.2433

> <Gold.Chemscore.Internal_Hbond.Weighted>
0.0000

> <Gold.Chemscore.DEClash.Weighted>
0.0681

> <Gold.Chemscore.DEInternal.Weighted>
0.6031

> <Gold.Chemscore.Rot.Weighted>
5.1296

> <Gold.Chemscore.Internal.Correction.Weighted>
   9.000000E+99

> <Gold.Protein.RotatedTorsions>
[ 6907 6896 6895 6894 ] final   23.33 input  -60.11 | X-H torsion
[ 7974 7965 7964 7962 ] final  162.00 input  175.53 | X-H torsion
[ 8008 7997 7996 7995 ] final  -16.74 input   59.86 | X-H torsion
[ 10167 10162 10161 10158 ] final   50.04 input  -65.29 | X-H torsion
[ 10718 10713 10712 10709 ] final -142.30 input   66.30 | X-H torsion
[ 10763 10752 10751 10750 ] final -177.87 input  -60.55 | X-H torsion
[ 11005 11000 10999 10996 ] final   83.73 input  -57.11 | X-H torsion

> <Gold.Protein.ActiveResidues>
 VAL166  LYS551  ARG553  GLY616  TRP617  ASP618  TYR619  PRO620  LYS621  CYS622 
 ASP623  PHE694  ASN695  SER759  ASP760  ASP761  ALA762  ILE779  LEU786  VAL792 
 PHE793  MET794  SER795  GLU796  ALA797  LYS798  CYS799  TRP800  GLU811  SER814 

> <Gold.Protein.RotatedAtoms>
  151.9408  135.0214  160.0535 H   0  0  0  0  0  0  0  0  0  0  0  0  # atno 6907 bound_to 6896
  152.2038  133.4856  159.5081 H   0  0  0  0  0  0  0  0  0  0  0  0  # atno 6908 bound_to 6896
  150.6960  134.1473  159.4170 H   0  0  0  0  0  0  0  0  0  0  0  0  # atno 6909 bound_to 6896
  144.7658  139.7978  143.6316 H   0  0  0  0  0  0  0  0  0  0  0  0  # atno 7974 bound_to 7965
  154.5030  140.2161  155.9308 H   0  0  0  0  0  0  0  0  0  0  0  0  # atno 8008 bound_to 7997
  156.1458  140.3171  155.8535 H   0  0  0  0  0  0  0  0  0  0  0  0  # atno 8009 bound_to 7997
  155.4034  140.0486  157.3026 H   0  0  0  0  0  0  0  0  0  0  0  0  # atno 8010 bound_to 7997
  140.2766  144.3205  150.6275 H   0  0  0  0  0  0  0  0  0  0  0  0  # atno 10167 bound_to 10162
  156.3443  130.7654  151.1796 H   0  0  0  0  0  0  0  0  0  0  0  0  # atno 10718 bound_to 10713
  154.5548  135.2815  155.0975 H   0  0  0  0  0  0  0  0  0  0  0  0  # atno 10763 bound_to 10752
  154.2407  135.6357  153.5210 H   0  0  0  0  0  0  0  0  0  0  0  0  # atno 10764 bound_to 10752
  153.0012  135.5559  154.6124 H   0  0  0  0  0  0  0  0  0  0  0  0  # atno 10765 bound_to 10752
  139.9022  134.8165  156.2348 H   0  0  0  0  0  0  0  0  0  0  0  0  # atno 11005 bound_to 11000
  146.1763  139.4935  142.9895 LP  0  0  0  0  0  0  0  0  0  0  0  0  # atno 17320 bound_to 7965
  145.6476  141.0270  143.1778 LP  0  0  0  0  0  0  0  0  0  0  0  0  # atno 17321 bound_to 7965
  140.5846  143.2170  151.7365 LP  0  0  0  0  0  0  0  0  0  0  0  0  # atno 17342 bound_to 10162
  139.4974  144.4030  152.0162 LP  0  0  0  0  0  0  0  0  0  0  0  0  # atno 17343 bound_to 10162
  157.7452  131.0445  150.4799 LP  0  0  0  0  0  0  0  0  0  0  0  0  # atno 17370 bound_to 10713
  156.4984  130.4111  149.6367 LP  0  0  0  0  0  0  0  0  0  0  0  0  # atno 17371 bound_to 10713
  141.0322  133.6982  156.1450 LP  0  0  0  0  0  0  0  0  0  0  0  0  # atno 17394 bound_to 11000
  140.7079  134.4493  157.5583 LP  0  0  0  0  0  0  0  0  0  0  0  0  # atno 17395 bound_to 11000

$$$$
