AV-unprocessed.smi:3174|AV-procd|sdf|12121|dock5
  -GOLD-   2272017563D 1   1.00000     0.00000
 Structure written by MMmdl.
 32 33  0  0  0  0  0  0  0  0  1 V2000
  148.9603  144.9870  160.7288 C   0  0  0  0  0  0  0  0  0  0  0  0
  149.9639  143.9944  160.6113 O   0  0  0  0  0  0  0  0  0  0  0  0
  151.2637  144.5459  160.4825 C   0  0  0  0  0  0  0  0  0  0  0  0
  152.1889  143.9623  161.5631 C   0  0  0  0  0  0  0  0  0  0  0  0
  152.7819  142.6877  161.1424 N   0  0  0  0  0  0  0  0  0  0  0  0
  152.3758  142.2678  159.8864 N   0  0  0  0  0  0  0  0  0  0  0  0
  152.8341  141.1647  159.3886 C   0  0  0  0  0  0  0  0  0  0  0  0
  152.4238  140.6802  158.0411 C   0  0  0  0  0  0  0  0  0  0  0  0
  152.8413  139.6171  157.5784 O   0  0  0  0  0  0  0  0  0  0  0  0
  151.5741  141.4836  157.3771 N   0  0  0  0  0  0  0  0  0  0  0  0
  151.0420  141.2380  156.0761 C   0  0  0  0  0  0  0  0  0  0  0  0
  149.5434  141.3519  155.8977 C   0  0  0  0  0  0  0  0  0  0  0  0
  150.1963  139.9974  155.8866 C   0  0  0  0  0  0  0  0  0  0  0  0
  153.7775  140.3482  160.1337 C   0  0  0  0  0  0  0  0  0  0  0  0
  154.1661  140.7712  161.3564 C   0  0  0  0  0  0  0  0  0  0  0  0
  153.6656  142.0162  161.9414 C   0  0  0  0  0  0  0  0  0  0  0  0
  154.0102  142.4221  163.0508 O   0  0  0  0  0  0  0  0  0  0  0  0
  147.9851  144.5105  160.8270 H   0  0  0  0  0  0  0  0  0  0  0  0
  148.9347  145.6285  159.8471 H   0  0  0  0  0  0  0  0  0  0  0  0
  149.1217  145.6086  161.6104 H   0  0  0  0  0  0  0  0  0  0  0  0
  151.6616  144.3036  159.4961 H   0  0  0  0  0  0  0  0  0  0  0  0
  151.2274  145.6339  160.5587 H   0  0  0  0  0  0  0  0  0  0  0  0
  152.9528  144.6911  161.8388 H   0  0  0  0  0  0  0  0  0  0  0  0
  151.6110  143.7983  162.4741 H   0  0  0  0  0  0  0  0  0  0  0  0
  151.2827  142.3365  157.8329 H   0  0  0  0  0  0  0  0  0  0  0  0
  151.6489  141.5362  155.2223 H   0  0  0  0  0  0  0  0  0  0  0  0
  148.9452  141.6135  156.7686 H   0  0  0  0  0  0  0  0  0  0  0  0
  149.1798  141.7421  154.9494 H   0  0  0  0  0  0  0  0  0  0  0  0
  150.2702  139.4829  154.9305 H   0  0  0  0  0  0  0  0  0  0  0  0
  150.0320  139.3546  156.7495 H   0  0  0  0  0  0  0  0  0  0  0  0
  154.1641  139.4249  159.7269 H   0  0  0  0  0  0  0  0  0  0  0  0
  154.8675  140.1744  161.9208 H   0  0  0  0  0  0  0  0  0  0  0  0
  1  2  1  0  0  0  0
  1 18  1  0  0  0  0
  1 19  1  0  0  0  0
  1 20  1  0  0  0  0
  2  3  1  0  0  0  0
  3  4  1  0  0  0  0
  3 21  1  0  0  0  0
  3 22  1  0  0  0  0
  4  5  1  0  0  0  0
  4 23  1  0  0  0  0
  4 24  1  0  0  0  0
  5 16  1  0  0  0  0
  5  6  1  0  0  0  0
  6  7  2  0  0  0  0
  7  8  1  0  0  0  0
  7 14  1  0  0  0  0
  8  9  2  0  0  0  0
  8 10  1  0  0  0  0
 10 11  1  0  0  0  0
 10 25  1  0  0  0  0
 11 13  1  0  0  0  0
 11 12  1  0  0  0  0
 11 26  1  0  0  0  0
 12 13  1  0  0  0  0
 12 27  1  0  0  0  0
 12 28  1  0  0  0  0
 13 29  1  0  0  0  0
 13 30  1  0  0  0  0
 14 15  2  0  0  0  0
 14 31  1  0  0  0  0
 15 16  1  0  0  0  0
 15 32  1  0  0  0  0
 16 17  2  0  0  0  0
M  END
> <s_m_source_file>
AV-unprocessed.smi

> <i_m_source_file_index>
3174

> <i_lp_mmshare_version>
43012

> <i_f3d_flags>
0

> <s_epik_input>
W0NIM11PW0NIMl1bQ0gyXW4xbmMoW2NIXVtjSF1jMT1PKUMoPU8pW05IXVtDSF0yW0NIMl1bQ0gyXTI=

> <s_epik_cmdline>
J2VwaWtfcHl0aG9uJywgJy1waCcsICc3LjAnLCAnLXRuJywgJzgnLCAnLW1hJywgJzIwMCcsICctbWV0YWxfYmluZGluZycsICctaW1hZScsICc8aW5maWxlLm1hZT4nLCAnLW9tYWUnLCAnPG91dGZpbGUubWFlPic=

> <r_lp_tautomer_probability>
1

> <r_epik_Ionization_Penalty>
5.63485e-07

> <r_epik_Ionization_Penalty_Charging>
6.67133e-09

> <r_epik_Ionization_Penalty_Neutral>
5.56814e-07

> <r_epik_State_Penalty>
-0

> <r_epik_Charging_Adjusted_Penalty>
6.67133e-09

> <i_epik_Tot_Q>
0

> <i_epik_Tot_abs_Q>
0

> <r_epik_Metal_State_Penalty>
-0

> <b_epik_Metal_Only>
0

> <s_lp_Force_Field>
OPLS_2005

> <r_lp_Energy>
37.1062

> <b_lp_Chiralities_Consistent>
1

> <s_lp_Variant>
AV-unprocessed.smi:3174-1

> <Gold.Version>
5.8.1

> <Gold.Id.Protein>
6NUR|6NUR_protein|mol2

> <Gold.PLP.Fitness>
39.7083

> <Gold.PLP.PLP>
-37.6502

> <Gold.PLP.part.hbond>
-3.0000

> <Gold.PLP.part.metal>
0.0000

> <Gold.PLP.part.buried>
-5.0706

> <Gold.PLP.part.nonpolar>
-28.5686

> <Gold.PLP.part.repulsive>
0.2787

> <Gold.PLP.ligand.clash>
0.0000

> <Gold.PLP.ligand.torsion>
0.5584

> <Gold.PLP.Chemscore.Hbond>
1.0297

> <Gold.PLP.Chemscore.CHOScore>
0.0000

> <Gold.PLP.Chemscore.Metal>
0.0000

> <Gold.Chemscore.Hbonds>
donor molecule, donor type, donor heavy atom, donor atom, acceptor molecule, acceptor atom, score
      P1  H  6933  6944       L1     2  0.03
      P1  H  7997  8009       L1     9  1.00

> <Gold.PLP.Chemscore.Internal.Correction>
0.0857

> <Gold.Rescore>
     Score         DG    S(hbond)    S(metal)    S(lipo)     H(rot)  DE(clash)    DE(int)     intcor
     12.79     -13.46       0.97        0.00      77.13       1.68       0.09       0.59       ----

> <Gold.Chemscore.Fitness>
12.7868

> <Gold.Chemscore.DG>
-13.4591

> <Gold.Chemscore.ZeroCoef>
-5.4800

> <Gold.Chemscore.Hbond>
0.9714

> <Gold.Chemscore.Metal>
0.0000

> <Gold.Chemscore.Lipo>
77.1281

> <Gold.Chemscore.Internal_Hbond>
0.0000

> <Gold.Chemscore.DEClash>
0.0860

> <Gold.Chemscore.DEInternal>
0.5863

> <Gold.Chemscore.Rot>
1.6756

> <Gold.Chemscore.Internal.Correction>
   9.000000E+99

> <Gold.Chemscore.Hbonds>
donor molecule, donor type, donor heavy atom, donor atom, acceptor molecule, acceptor atom, score
      P1  H  7997  8009       L1     9  0.45

> <Gold.Chemscore.Hbond.Weighted>
-3.2445

> <Gold.Chemscore.Metal.Weighted>
-0.0000

> <Gold.Chemscore.Lipo.Weighted>
-9.0240

> <Gold.Chemscore.Internal_Hbond.Weighted>
0.0000

> <Gold.Chemscore.DEClash.Weighted>
0.0860

> <Gold.Chemscore.DEInternal.Weighted>
0.5863

> <Gold.Chemscore.Rot.Weighted>
4.2894

> <Gold.Chemscore.Internal.Correction.Weighted>
   9.000000E+99

> <Gold.Protein.RotatedTorsions>
[ 6907 6896 6895 6894 ] final  163.22 input  -60.11 | X-H torsion
[ 7974 7965 7964 7962 ] final -136.80 input  175.53 | X-H torsion
[ 8008 7997 7996 7995 ] final  158.12 input   59.86 | X-H torsion
[ 10167 10162 10161 10158 ] final   69.67 input  -65.29 | X-H torsion
[ 10718 10713 10712 10709 ] final   24.67 input   66.30 | X-H torsion
[ 10763 10752 10751 10750 ] final  -89.77 input  -60.55 | X-H torsion
[ 11005 11000 10999 10996 ] final -133.06 input  -57.11 | X-H torsion

> <Gold.Protein.ActiveResidues>
 VAL166  LYS551  ARG553  GLY616  TRP617  ASP618  TYR619  PRO620  LYS621  CYS622 
 ASP623  PHE694  ASN695  SER759  ASP760  ASP761  ALA762  ILE779  LEU786  VAL792 
 PHE793  MET794  SER795  GLU796  ALA797  LYS798  CYS799  TRP800  GLU811  SER814 

> <Gold.Protein.RotatedAtoms>
  151.9285  133.3604  159.3922 H   0  0  0  0  0  0  0  0  0  0  0  0  # atno 6907 bound_to 6896
  150.7022  134.4562  159.5368 H   0  0  0  0  0  0  0  0  0  0  0  0  # atno 6908 bound_to 6896
  152.2198  134.8423  160.0538 H   0  0  0  0  0  0  0  0  0  0  0  0  # atno 6909 bound_to 6896
  144.8896  140.6623  143.5154 H   0  0  0  0  0  0  0  0  0  0  0  0  # atno 7974 bound_to 7965
  156.2322  140.1867  156.7212 H   0  0  0  0  0  0  0  0  0  0  0  0  # atno 8008 bound_to 7997
  154.6043  140.0631  156.9437 H   0  0  0  0  0  0  0  0  0  0  0  0  # atno 8009 bound_to 7997
  155.2122  140.3301  155.4330 H   0  0  0  0  0  0  0  0  0  0  0  0  # atno 8010 bound_to 7997
  140.0653  144.5198  150.7265 H   0  0  0  0  0  0  0  0  0  0  0  0  # atno 10167 bound_to 10162
  157.1829  130.6811  149.6120 H   0  0  0  0  0  0  0  0  0  0  0  0  # atno 10718 bound_to 10713
  154.6587  135.5329  153.7991 H   0  0  0  0  0  0  0  0  0  0  0  0  # atno 10763 bound_to 10752
  153.0429  135.6500  154.0905 H   0  0  0  0  0  0  0  0  0  0  0  0  # atno 10764 bound_to 10752
  154.0815  135.2946  155.3269 H   0  0  0  0  0  0  0  0  0  0  0  0  # atno 10765 bound_to 10752
  140.9115  134.1562  157.4385 H   0  0  0  0  0  0  0  0  0  0  0  0  # atno 11005 bound_to 11000
  145.3807  139.1637  143.4282 LP  0  0  0  0  0  0  0  0  0  0  0  0  # atno 17320 bound_to 7965
  146.3045  140.3888  142.8692 LP  0  0  0  0  0  0  0  0  0  0  0  0  # atno 17321 bound_to 7965
  140.7152  143.2538  151.4456 LP  0  0  0  0  0  0  0  0  0  0  0  0  # atno 17342 bound_to 10162
  139.5869  144.1585  152.2040 LP  0  0  0  0  0  0  0  0  0  0  0  0  # atno 17343 bound_to 10162
  155.9722  130.4640  150.6204 LP  0  0  0  0  0  0  0  0  0  0  0  0  # atno 17370 bound_to 10713
  157.3935  131.0799  151.1373 LP  0  0  0  0  0  0  0  0  0  0  0  0  # atno 17371 bound_to 10713
  139.8758  134.9937  156.5659 LP  0  0  0  0  0  0  0  0  0  0  0  0  # atno 17394 bound_to 11000
  140.8104  133.8434  155.8805 LP  0  0  0  0  0  0  0  0  0  0  0  0  # atno 17395 bound_to 11000

$$$$
