AV-unprocessed.smi:3032|AV-procd|sdf|11558|dock6
  -GOLD-   2272016523D 1   1.00000     0.00000
 Structure written by MMmdl.
 37 38  0  0  0  0  0  0  0  0  1 V2000
  151.8900  145.0208  158.5573 C   0  0  0  0  0  0  0  0  0  0  0  0
  152.6695  144.1166  159.5226 C   0  0  1  0  0  0  0  0  0  0  0  0
  152.0037  144.0669  160.9112 C   0  0  0  0  0  0  0  0  0  0  0  0
  152.7756  143.1522  161.8758 C   0  0  0  0  0  0  0  0  0  0  0  0
  152.9358  141.7383  161.2956 C   0  0  0  0  0  0  0  0  0  0  0  0
  153.6196  141.7792  159.9134 C   0  0  1  0  0  0  0  0  0  0  0  0
  153.7607  140.3721  159.3196 C   0  0  0  0  0  0  0  0  0  0  0  0
  154.8586  139.8151  159.3007 O   0  0  0  0  0  0  0  0  0  0  0  0
  152.6345  139.7990  158.8644 N   0  0  0  0  0  0  0  0  0  0  0  0
  152.5228  138.4299  158.3659 C   0  0  0  0  0  0  0  0  0  0  0  0
  153.3559  138.2064  157.0884 C   0  0  0  0  0  0  0  0  0  0  0  0
  152.5835  138.3846  155.8187 C   0  0  0  0  0  0  0  0  0  0  0  0
  151.9987  139.5403  155.4956 N   0  0  0  0  0  0  0  0  0  0  0  0
  151.3419  139.3965  154.3260 N   0  0  0  0  0  0  0  0  0  0  0  0
  151.5923  138.1245  154.0211 C   0  0  0  0  0  0  0  0  0  0  0  0
  152.3668  137.4368  154.9132 N   0  0  0  0  0  0  0  0  0  0  0  0
  152.8311  142.6943  158.9523 C   0  0  0  0  0  0  0  0  0  0  0  0
  152.0097  140.4035  156.0201 H   0  0  0  0  0  0  0  0  0  0  0  0
  150.8771  144.6497  158.3975 H   0  0  0  0  0  0  0  0  0  0  0  0
  152.3819  145.0744  157.5856 H   0  0  0  0  0  0  0  0  0  0  0  0
  151.8153  146.0369  158.9450 H   0  0  0  0  0  0  0  0  0  0  0  0
  153.6653  144.5458  159.6421 H   0  0  0  0  0  0  0  0  0  0  0  0
  151.9418  145.0710  161.3323 H   0  0  0  0  0  0  0  0  0  0  0  0
  150.9778  143.7090  160.8158 H   0  0  0  0  0  0  0  0  0  0  0  0
  153.7593  143.5785  162.0759 H   0  0  0  0  0  0  0  0  0  0  0  0
  152.2585  143.1038  162.8346 H   0  0  0  0  0  0  0  0  0  0  0  0
  153.5174  141.1252  161.9854 H   0  0  0  0  0  0  0  0  0  0  0  0
  151.9535  141.2692  161.2181 H   0  0  0  0  0  0  0  0  0  0  0  0
  154.6187  142.1999  160.0418 H   0  0  0  0  0  0  0  0  0  0  0  0
  151.7813  140.3370  158.9101 H   0  0  0  0  0  0  0  0  0  0  0  0
  152.8653  137.7525  159.1484 H   0  0  0  0  0  0  0  0  0  0  0  0
  151.4793  138.1716  158.1780 H   0  0  0  0  0  0  0  0  0  0  0  0
  154.2046  138.8919  157.0801 H   0  0  0  0  0  0  0  0  0  0  0  0
  153.7776  137.2010  157.0980 H   0  0  0  0  0  0  0  0  0  0  0  0
  151.2024  137.6734  153.1206 H   0  0  0  0  0  0  0  0  0  0  0  0
  151.8451  142.2691  158.7552 H   0  0  0  0  0  0  0  0  0  0  0  0
  153.3406  142.7431  157.9887 H   0  0  0  0  0  0  0  0  0  0  0  0
  1  2  1  0  0  0  0
  1 19  1  0  0  0  0
  1 20  1  0  0  0  0
  1 21  1  0  0  0  0
  2 17  1  0  0  0  0
  2  3  1  0  0  0  0
  2 22  1  0  0  0  0
  3  4  1  0  0  0  0
  3 23  1  0  0  0  0
  3 24  1  0  0  0  0
  4  5  1  0  0  0  0
  4 25  1  0  0  0  0
  4 26  1  0  0  0  0
  5  6  1  0  0  0  0
  5 27  1  0  0  0  0
  5 28  1  0  0  0  0
  6  7  1  0  0  0  0
  6 17  1  0  0  0  0
  6 29  1  0  0  0  0
  7  8  2  0  0  0  0
  7  9  1  0  0  0  0
  9 10  1  0  0  0  0
  9 30  1  0  0  0  0
 10 11  1  0  0  0  0
 10 31  1  0  0  0  0
 10 32  1  0  0  0  0
 11 33  1  0  0  0  0
 11 34  1  0  0  0  0
 11 12  1  0  0  0  0
 12 16  2  0  0  0  0
 12 13  1  0  0  0  0
 13 18  1  0  0  0  0
 13 14  1  0  0  0  0
 14 15  2  0  0  0  0
 15 16  1  0  0  0  0
 15 35  1  0  0  0  0
 17 36  1  0  0  0  0
 17 37  1  0  0  0  0
M  END
> <s_m_source_file>
AV-unprocessed.smi

> <i_m_source_file_index>
3032

> <i_lp_mmshare_version>
43012

> <i_f3d_flags>
0

> <s_epik_input>
W0NIM11bQ0BASF0xW0NIMl1bQ0gyXVtDSDJdW0NASF0oW0NIMl0xKUMoPU8pW05IXVtDSDJdW0NIMl1jMm5uW2NIXVtuSF0y

> <s_epik_cmdline>
J2VwaWtfcHl0aG9uJywgJy1waCcsICc3LjAnLCAnLXRuJywgJzgnLCAnLW1hJywgJzIwMCcsICctbWV0YWxfYmluZGluZycsICctaW1hZScsICc8aW5maWxlLm1hZT4nLCAnLW9tYWUnLCAnPG91dGZpbGUubWFlPic=

> <r_lp_tautomer_probability>
0.948284

> <r_epik_Ionization_Penalty>
0.000474052

> <r_epik_Ionization_Penalty_Charging>
0

> <r_epik_Ionization_Penalty_Neutral>
0.000474052

> <r_epik_State_Penalty>
0.271807

> <r_epik_Charging_Adjusted_Penalty>
0.271807

> <i_epik_Tot_Q>
0

> <i_epik_Tot_abs_Q>
0

> <r_epik_Metal_State_Penalty>
0.397201

> <b_epik_Metal_Only>
0

> <s_lp_Force_Field>
OPLS_2005

> <r_lp_Energy>
10.7407

> <b_lp_Chiralities_Consistent>
1

> <s_lp_Variant>
AV-unprocessed.smi:3032-2

> <Gold.Version>
5.8.1

> <Gold.Id.Protein>
6NUR|6NUR_protein|mol2

> <Gold.PLP.Fitness>
50.2926

> <Gold.PLP.PLP>
-39.5628

> <Gold.PLP.part.hbond>
-3.0000

> <Gold.PLP.part.metal>
0.0000

> <Gold.PLP.part.buried>
-5.0377

> <Gold.PLP.part.nonpolar>
-30.5213

> <Gold.PLP.part.repulsive>
0.4730

> <Gold.PLP.ligand.clash>
0.0000

> <Gold.PLP.ligand.torsion>
0.5205

> <Gold.PLP.Chemscore.Hbond>
2.8160

> <Gold.PLP.Chemscore.CHOScore>
1.1019

> <Gold.PLP.Chemscore.Metal>
0.0000

> <Gold.Chemscore.Hbonds>
donor molecule, donor type, donor heavy atom, donor atom, acceptor molecule, acceptor atom, score
      P1  H  7989  7998       L1    14  1.00
      P1  H  7997  8009       L1     8  0.80
      P1  H 10752 10763       L1    16  0.66
      L1  C    15    35       P1  7949  1.00

> <Gold.PLP.Chemscore.Internal.Correction>
0.0172

> <Gold.Rescore>
     Score         DG    S(hbond)    S(metal)    S(lipo)     H(rot)  DE(clash)    DE(int)     intcor
     16.04     -16.28       1.67        0.00      93.84       2.25       0.02       0.22       ----

> <Gold.Chemscore.Fitness>
16.0411

> <Gold.Chemscore.DG>
-16.2800

> <Gold.Chemscore.ZeroCoef>
-5.4800

> <Gold.Chemscore.Hbond>
1.6709

> <Gold.Chemscore.Metal>
0.0000

> <Gold.Chemscore.Lipo>
93.8410

> <Gold.Chemscore.Internal_Hbond>
0.0000

> <Gold.Chemscore.DEClash>
0.0217

> <Gold.Chemscore.DEInternal>
0.2171

> <Gold.Chemscore.Rot>
2.2501

> <Gold.Chemscore.Internal.Correction>
   9.000000E+99

> <Gold.Chemscore.Hbonds>
donor molecule, donor type, donor heavy atom, donor atom, acceptor molecule, acceptor atom, score
      P1  H  7989  7998       L1    14  0.50
      P1  H  7997  8009       L1     8  0.11
      P1  H 10752 10763       L1    16  0.65

> <Gold.Chemscore.Hbond.Weighted>
-5.5809

> <Gold.Chemscore.Metal.Weighted>
-0.0000

> <Gold.Chemscore.Lipo.Weighted>
-10.9794

> <Gold.Chemscore.Internal_Hbond.Weighted>
0.0000

> <Gold.Chemscore.DEClash.Weighted>
0.0217

> <Gold.Chemscore.DEInternal.Weighted>
0.2171

> <Gold.Chemscore.Rot.Weighted>
5.7603

> <Gold.Chemscore.Internal.Correction.Weighted>
   9.000000E+99

> <Gold.Protein.RotatedTorsions>
[ 6907 6896 6895 6894 ] final   83.96 input  -60.11 | X-H torsion
[ 7974 7965 7964 7962 ] final  115.68 input  175.53 | X-H torsion
[ 8008 7997 7996 7995 ] final  115.79 input   59.86 | X-H torsion
[ 10167 10162 10161 10158 ] final -116.67 input  -65.29 | X-H torsion
[ 10718 10713 10712 10709 ] final -110.23 input   66.30 | X-H torsion
[ 10763 10752 10751 10750 ] final   59.76 input  -60.55 | X-H torsion
[ 11005 11000 10999 10996 ] final    9.50 input  -57.11 | X-H torsion

> <Gold.Protein.ActiveResidues>
 VAL166  LYS551  ARG553  GLY616  TRP617  ASP618  TYR619  PRO620  LYS621  CYS622 
 ASP623  PHE694  ASN695  SER759  ASP760  ASP761  ALA762  ILE779  LEU786  VAL792 
 PHE793  MET794  SER795  GLU796  ALA797  LYS798  CYS799  TRP800  GLU811  SER814 

> <Gold.Protein.RotatedAtoms>
  152.5340  134.2814  159.9008 H   0  0  0  0  0  0  0  0  0  0  0  0  # atno 6907 bound_to 6896
  151.2768  133.4222  159.2632 H   0  0  0  0  0  0  0  0  0  0  0  0  # atno 6908 bound_to 6896
  151.0319  134.9560  159.8172 H   0  0  0  0  0  0  0  0  0  0  0  0  # atno 6909 bound_to 6896
  145.1890  139.3010  143.4378 H   0  0  0  0  0  0  0  0  0  0  0  0  # atno 7974 bound_to 7965
  156.2402  140.2931  156.0424 H   0  0  0  0  0  0  0  0  0  0  0  0  # atno 8008 bound_to 7997
  155.1973  140.0408  157.2928 H   0  0  0  0  0  0  0  0  0  0  0  0  # atno 8009 bound_to 7997
  154.6154  140.2462  155.7623 H   0  0  0  0  0  0  0  0  0  0  0  0  # atno 8010 bound_to 7997
  140.0766  143.4827  152.1949 H   0  0  0  0  0  0  0  0  0  0  0  0  # atno 10167 bound_to 10162
  156.0579  130.5805  150.8209 H   0  0  0  0  0  0  0  0  0  0  0  0  # atno 10718 bound_to 10713
  152.9903  135.5560  154.5764 H   0  0  0  0  0  0  0  0  0  0  0  0  # atno 10763 bound_to 10752
  154.5154  135.2804  155.1309 H   0  0  0  0  0  0  0  0  0  0  0  0  # atno 10764 bound_to 10752
  154.2684  135.6368  153.5353 H   0  0  0  0  0  0  0  0  0  0  0  0  # atno 10765 bound_to 10752
  140.5250  134.0521  155.7856 H   0  0  0  0  0  0  0  0  0  0  0  0  # atno 11005 bound_to 11000
  146.3439  140.2096  142.8590 LP  0  0  0  0  0  0  0  0  0  0  0  0  # atno 17320 bound_to 7965
  145.0060  140.8673  143.5253 LP  0  0  0  0  0  0  0  0  0  0  0  0  # atno 17321 bound_to 7965
  139.5804  144.7507  151.3655 LP  0  0  0  0  0  0  0  0  0  0  0  0  # atno 17342 bound_to 10162
  140.7099  143.7418  150.7547 LP  0  0  0  0  0  0  0  0  0  0  0  0  # atno 17343 bound_to 10162
  157.5565  131.0945  150.9621 LP  0  0  0  0  0  0  0  0  0  0  0  0  # atno 17370 bound_to 10713
  156.9868  130.5548  149.5300 LP  0  0  0  0  0  0  0  0  0  0  0  0  # atno 17371 bound_to 10713
  141.1313  133.9297  157.2529 LP  0  0  0  0  0  0  0  0  0  0  0  0  # atno 17394 bound_to 11000
  139.9585  135.0160  156.9195 LP  0  0  0  0  0  0  0  0  0  0  0  0  # atno 17395 bound_to 11000

$$$$
