AV-unprocessed.smi:1564|AV-procd|sdf|6296|dock1
  -GOLD-   22720 6493D 1   1.00000     0.00000
 Structure written by MMmdl.
 43 44  0  0  0  0  0  0  0  0  2 V2000
  150.9982  141.0502  155.8375 C   0  0  0  0  0  0  0  0  0  0  0  0
  150.1122  141.6248  154.8831 O   0  0  0  0  0  0  0  0  0  0  0  0
  149.0540  140.8633  154.4313 C   0  0  0  0  0  0  0  0  0  0  0  0
  149.0749  139.4739  154.6629 C   0  0  0  0  0  0  0  0  0  0  0  0
  147.9994  138.6933  154.1991 C   0  0  0  0  0  0  0  0  0  0  0  0
  146.9383  139.3185  153.5133 C   0  0  0  0  0  0  0  0  0  0  0  0
  145.8630  138.5008  153.0695 N   0  0  0  0  0  0  0  0  0  0  0  0
  145.7543  137.1613  153.0990 C   0  0  0  0  0  0  0  0  0  0  0  0
  146.5983  136.3837  153.5431 O   0  0  0  0  0  0  0  0  0  0  0  0
  144.5816  136.7593  152.5897 N   0  0  0  0  0  0  0  0  0  0  0  0
  144.1568  135.3678  152.4798 C   0  0  1  0  0  0  0  0  0  0  0  0
  142.7467  135.0802  152.9800 C   0  0  0  0  0  0  0  0  0  0  0  0
  142.4584  133.7381  152.3081 C   0  0  0  0  0  0  0  0  0  0  0  0
  143.1041  133.7976  150.9724 N   0  3  2  0  0  0  0  0  0  0  0  0
  143.5965  132.4984  150.4309 C   0  0  0  0  0  0  0  0  0  0  0  0
  144.7604  131.9500  151.2794 C   0  0  0  0  0  0  0  0  0  0  0  0
  144.0612  132.6267  148.9659 C   0  0  0  0  0  0  0  0  0  0  0  0
  144.1069  134.8935  151.0246 C   0  0  0  0  0  0  0  0  0  0  0  0
  147.0037  140.7235  153.3431 C   0  0  0  0  0  0  0  0  0  0  0  0
  148.0323  141.4775  153.7853 N   0  0  0  0  0  0  0  0  0  0  0  0
  151.7740  141.7729  156.0899 H   0  0  0  0  0  0  0  0  0  0  0  0
  151.4910  140.1612  155.4416 H   0  0  0  0  0  0  0  0  0  0  0  0
  150.4759  140.7899  156.7594 H   0  0  0  0  0  0  0  0  0  0  0  0
  149.9017  139.0156  155.1852 H   0  0  0  0  0  0  0  0  0  0  0  0
  147.9948  137.6259  154.3665 H   0  0  0  0  0  0  0  0  0  0  0  0
  145.0554  139.0026  152.7304 H   0  0  0  0  0  0  0  0  0  0  0  0
  143.9432  137.4640  152.2501 H   0  0  0  0  0  0  0  0  0  0  0  0
  144.8609  134.7362  153.0259 H   0  0  0  0  0  0  0  0  0  0  0  0
  142.6790  135.0310  154.0673 H   0  0  0  0  0  0  0  0  0  0  0  0
  142.0484  135.8403  152.6261 H   0  0  0  0  0  0  0  0  0  0  0  0
  142.9143  132.9462  152.9051 H   0  0  0  0  0  0  0  0  0  0  0  0
  141.3906  133.5313  152.2311 H   0  0  0  0  0  0  0  0  0  0  0  0
  142.7734  131.7829  150.4651 H   0  0  0  0  0  0  0  0  0  0  0  0
  145.1253  131.0056  150.8746 H   0  0  0  0  0  0  0  0  0  0  0  0
  144.4726  131.7576  152.3121 H   0  0  0  0  0  0  0  0  0  0  0  0
  145.5996  132.6461  151.2937 H   0  0  0  0  0  0  0  0  0  0  0  0
  144.4745  131.6846  148.6038 H   0  0  0  0  0  0  0  0  0  0  0  0
  144.8363  133.3867  148.8611 H   0  0  0  0  0  0  0  0  0  0  0  0
  143.2441  132.8866  148.2933 H   0  0  0  0  0  0  0  0  0  0  0  0
  143.7676  135.6909  150.3618 H   0  0  0  0  0  0  0  0  0  0  0  0
  145.0998  134.5876  150.6943 H   0  0  0  0  0  0  0  0  0  0  0  0
  146.2178  141.2822  152.8604 H   0  0  0  0  0  0  0  0  0  0  0  0
  142.3871  134.1147  150.3353 H   0  0  0  0  0  0  0  0  0  0  0  0
  1  2  1  0  0  0  0
  1 21  1  0  0  0  0
  1 22  1  0  0  0  0
  1 23  1  0  0  0  0
  2  3  1  0  0  0  0
  3 20  1  0  0  0  0
  3  4  2  0  0  0  0
  4  5  1  0  0  0  0
  4 24  1  0  0  0  0
  5  6  2  0  0  0  0
  5 25  1  0  0  0  0
  6  7  1  0  0  0  0
  6 19  1  0  0  0  0
  7  8  1  0  0  0  0
  7 26  1  0  0  0  0
  8  9  2  0  0  0  0
  8 10  1  0  0  0  0
 10 11  1  0  0  0  0
 10 27  1  0  0  0  0
 11 18  1  0  0  0  0
 11 12  1  0  0  0  0
 11 28  1  0  0  0  0
 12 13  1  0  0  0  0
 12 29  1  0  0  0  0
 12 30  1  0  0  0  0
 13 14  1  0  0  0  0
 13 31  1  0  0  0  0
 13 32  1  0  0  0  0
 14 15  1  0  0  0  0
 14 18  1  0  0  0  0
 14 43  1  0  0  0  0
 15 16  1  0  0  0  0
 15 17  1  0  0  0  0
 15 33  1  0  0  0  0
 16 34  1  0  0  0  0
 16 35  1  0  0  0  0
 16 36  1  0  0  0  0
 17 37  1  0  0  0  0
 17 38  1  0  0  0  0
 17 39  1  0  0  0  0
 18 40  1  0  0  0  0
 18 41  1  0  0  0  0
 19 20  2  0  0  0  0
 19 42  1  0  0  0  0
M  CHG  1  14   1
M  END
> <s_m_source_file>
AV-unprocessed.smi

> <i_m_source_file_index>
1564

> <i_lp_mmshare_version>
43012

> <i_f3d_flags>
0

> <s_epik_input>
W0NIM11PYzFbY0hdW2NIXWMoW2NIXW4xKVtOSF1DKD1PKVtOSF1bQ0BASF0yW0NIMl1bQ0gyXU4oW0NIMl0yKVtDSF0oW0NIM10pW0NIM10=

> <s_epik_cmdline>
J2VwaWtfcHl0aG9uJywgJy1waCcsICc3LjAnLCAnLXRuJywgJzgnLCAnLW1hJywgJzIwMCcsICctbWV0YWxfYmluZGluZycsICctaW1hZScsICc8aW5maWxlLm1hZT4nLCAnLW9tYWUnLCAnPG91dGZpbGUubWFlPic=

> <r_lp_tautomer_probability>
1

> <r_epik_Ionization_Penalty>
0.000679474

> <r_epik_Ionization_Penalty_Charging>
0.000606352

> <r_epik_Ionization_Penalty_Neutral>
7.31222e-05

> <r_epik_State_Penalty>
0.000382168

> <r_epik_Charging_Adjusted_Penalty>
0.00098852

> <i_epik_Tot_Q>
1

> <i_epik_Tot_abs_Q>
1

> <r_epik_Metal_State_Penalty>
-0

> <b_epik_Metal_Only>
0

> <s_lp_Force_Field>
OPLS_2005

> <r_lp_Energy>
33.6805

> <b_lp_Chiralities_Consistent>
1

> <s_lp_Variant>
AV-unprocessed.smi:1564-4

> <Gold.Version>
5.8.1

> <Gold.Id.Protein>
6NUR|6NUR_protein|mol2

> <Gold.PLP.Fitness>
42.5917

> <Gold.PLP.PLP>
-32.6790

> <Gold.PLP.part.hbond>
-3.3349

> <Gold.PLP.part.metal>
0.0000

> <Gold.PLP.part.buried>
-3.4480

> <Gold.PLP.part.nonpolar>
-28.3580

> <Gold.PLP.part.repulsive>
1.7316

> <Gold.PLP.ligand.clash>
0.0000

> <Gold.PLP.ligand.torsion>
0.3434

> <Gold.PLP.Chemscore.Hbond>
3.0371

> <Gold.PLP.Chemscore.CHOScore>
0.4821

> <Gold.PLP.Chemscore.Metal>
0.0000

> <Gold.Chemscore.Hbonds>
donor molecule, donor type, donor heavy atom, donor atom, acceptor molecule, acceptor atom, score
      L1  H     7    26       P1 10175  1.00
      L1  H    14    43       P1 10186  2.00
      P1  H  7989  7998       L1     2  0.02
      L1  C    19    42       P1 10175  0.48

> <Gold.PLP.Chemscore.Internal.Correction>
0.0420

> <Gold.Rescore>
     Score         DG    S(hbond)    S(metal)    S(lipo)     H(rot)  DE(clash)    DE(int)     intcor
     15.52     -17.79       1.94        0.00      81.42       1.44       0.72       1.54       ----

> <Gold.Chemscore.Fitness>
15.5240

> <Gold.Chemscore.DG>
-17.7879

> <Gold.Chemscore.ZeroCoef>
-5.4800

> <Gold.Chemscore.Hbond>
1.9400

> <Gold.Chemscore.Metal>
0.0000

> <Gold.Chemscore.Lipo>
81.4197

> <Gold.Chemscore.Internal_Hbond>
0.0000

> <Gold.Chemscore.DEClash>
0.7245

> <Gold.Chemscore.DEInternal>
1.5393

> <Gold.Chemscore.Rot>
1.4445

> <Gold.Chemscore.Internal.Correction>
   9.000000E+99

> <Gold.Chemscore.Hbonds>
donor molecule, donor type, donor heavy atom, donor atom, acceptor molecule, acceptor atom, score
      L1  H     7    26       P1 10175  0.94
      L1  H    14    43       P1 10186  0.84

> <Gold.Chemscore.Hbond.Weighted>
-6.4797

> <Gold.Chemscore.Metal.Weighted>
-0.0000

> <Gold.Chemscore.Lipo.Weighted>
-9.5261

> <Gold.Chemscore.Internal_Hbond.Weighted>
0.0000

> <Gold.Chemscore.DEClash.Weighted>
0.7245

> <Gold.Chemscore.DEInternal.Weighted>
1.5393

> <Gold.Chemscore.Rot.Weighted>
3.6979

> <Gold.Chemscore.Internal.Correction.Weighted>
   9.000000E+99

> <Gold.Protein.RotatedTorsions>
[ 6907 6896 6895 6894 ] final    0.87 input  -60.11 | X-H torsion
[ 7974 7965 7964 7962 ] final  112.87 input  175.53 | X-H torsion
[ 8008 7997 7996 7995 ] final   40.48 input   59.86 | X-H torsion
[ 10167 10162 10161 10158 ] final   33.72 input  -65.29 | X-H torsion
[ 10718 10713 10712 10709 ] final  -74.19 input   66.30 | X-H torsion
[ 10763 10752 10751 10750 ] final   88.71 input  -60.55 | X-H torsion
[ 11005 11000 10999 10996 ] final  103.75 input  -57.11 | X-H torsion

> <Gold.Protein.ActiveResidues>
 VAL166  LYS551  ARG553  GLY616  TRP617  ASP618  TYR619  PRO620  LYS621  CYS622 
 ASP623  PHE694  ASN695  SER759  ASP760  ASP761  ALA762  ILE779  LEU786  VAL792 
 PHE793  MET794  SER795  GLU796  ALA797  LYS798  CYS799  TRP800  GLU811  SER814 

> <Gold.Protein.RotatedAtoms>
  151.5835  135.1057  160.0022 H   0  0  0  0  0  0  0  0  0  0  0  0  # atno 6907 bound_to 6896
  152.4342  133.7327  159.6607 H   0  0  0  0  0  0  0  0  0  0  0  0  # atno 6908 bound_to 6896
  150.8238  133.8137  159.3150 H   0  0  0  0  0  0  0  0  0  0  0  0  # atno 6909 bound_to 6896
  145.2241  139.2849  143.4203 H   0  0  0  0  0  0  0  0  0  0  0  0  # atno 7974 bound_to 7965
  155.2537  140.3354  155.4279 H   0  0  0  0  0  0  0  0  0  0  0  0  # atno 8008 bound_to 7997
  156.2204  140.1807  156.7533 H   0  0  0  0  0  0  0  0  0  0  0  0  # atno 8009 bound_to 7997
  154.5817  140.0652  156.9098 H   0  0  0  0  0  0  0  0  0  0  0  0  # atno 8010 bound_to 7997
  140.4381  144.1227  150.6169 H   0  0  0  0  0  0  0  0  0  0  0  0  # atno 10167 bound_to 10162
  156.0252  130.4411  150.2855 H   0  0  0  0  0  0  0  0  0  0  0  0  # atno 10718 bound_to 10713
  153.1796  135.4497  155.0011 H   0  0  0  0  0  0  0  0  0  0  0  0  # atno 10763 bound_to 10752
  154.8021  135.3260  154.7526 H   0  0  0  0  0  0  0  0  0  0  0  0  # atno 10764 bound_to 10752
  153.7991  135.6964  153.4913 H   0  0  0  0  0  0  0  0  0  0  0  0  # atno 10765 bound_to 10752
  139.8786  134.9275  156.5257 H   0  0  0  0  0  0  0  0  0  0  0  0  # atno 11005 bound_to 11000
  146.3369  140.2556  142.8600 LP  0  0  0  0  0  0  0  0  0  0  0  0  # atno 17320 bound_to 7965
  144.9738  140.8394  143.5439 LP  0  0  0  0  0  0  0  0  0  0  0  0  # atno 17321 bound_to 7965
  140.4350  143.2551  151.9547 LP  0  0  0  0  0  0  0  0  0  0  0  0  # atno 17342 bound_to 10162
  139.4788  144.5708  151.8091 LP  0  0  0  0  0  0  0  0  0  0  0  0  # atno 17343 bound_to 10162
  157.0959  131.0182  151.3104 LP  0  0  0  0  0  0  0  0  0  0  0  0  # atno 17370 bound_to 10713
  157.4818  130.7769  149.7421 LP  0  0  0  0  0  0  0  0  0  0  0  0  # atno 17371 bound_to 10713
  140.8418  133.8199  155.9082 LP  0  0  0  0  0  0  0  0  0  0  0  0  # atno 17394 bound_to 11000
  140.9230  134.2118  157.4914 LP  0  0  0  0  0  0  0  0  0  0  0  0  # atno 17395 bound_to 11000

$$$$
