AV-unprocessed.smi:1907|AV-procd|sdf|7731|dock7
  -GOLD-   22720 9473D 1   1.00000     0.00000
 Structure written by MMmdl.
 32 33  0  0  0  0  0  0  0  0  1 V2000
  149.8561  135.8759  155.1563 N   0  0  0  0  0  0  0  0  0  0  0  0
  151.0241  136.4521  155.4540 C   0  0  0  0  0  0  0  0  0  0  0  0
  151.6983  136.1092  156.4226 O   0  0  0  0  0  0  0  0  0  0  0  0
  151.5032  137.5777  154.5353 C   0  0  0  0  0  0  0  0  0  0  0  0
  150.6173  138.7808  154.6790 C   0  0  0  0  0  0  0  0  0  0  0  0
  149.3847  138.9748  154.1034 C   0  0  0  0  0  0  0  0  0  0  0  0
  148.7003  140.5217  154.5266 S   0  0  0  0  0  0  0  0  0  0  0  0
  150.1221  140.8382  155.5079 C   0  0  0  0  0  0  0  0  0  0  0  0
  150.3034  142.0595  156.2065 N   0  0  0  0  0  0  0  0  0  0  0  0
  151.0371  142.3231  157.3066 C   0  0  0  0  0  0  0  0  0  0  0  0
  151.6923  141.4229  157.8305 O   0  0  0  0  0  0  0  0  0  0  0  0
  151.0905  143.7485  157.9057 C   0  0  0  0  0  0  0  0  0  0  0  0
  152.5210  144.3131  157.9829 C   0  0  0  0  0  0  0  0  0  0  0  0
  153.0730  143.9455  159.3690 C   0  0  0  0  0  0  0  0  0  0  0  0
  151.8792  143.4597  160.2013 C   0  0  0  0  0  0  0  0  0  0  0  0
  150.6318  143.7741  159.3711 C   0  0  0  0  0  0  0  0  0  0  0  0
  151.0357  139.8639  155.4583 N   0  0  0  0  0  0  0  0  0  0  0  0
  149.5065  135.1241  155.7324 H   0  0  0  0  0  0  0  0  0  0  0  0
  149.3305  136.1886  154.3529 H   0  0  0  0  0  0  0  0  0  0  0  0
  152.5384  137.8267  154.7732 H   0  0  0  0  0  0  0  0  0  0  0  0
  151.5033  137.2220  153.5043 H   0  0  0  0  0  0  0  0  0  0  0  0
  148.8409  138.3030  153.4559 H   0  0  0  0  0  0  0  0  0  0  0  0
  149.8107  142.8499  155.8169 H   0  0  0  0  0  0  0  0  0  0  0  0
  150.4954  144.4228  157.2905 H   0  0  0  0  0  0  0  0  0  0  0  0
  153.1674  143.9558  157.1797 H   0  0  0  0  0  0  0  0  0  0  0  0
  152.4812  145.3990  157.8882 H   0  0  0  0  0  0  0  0  0  0  0  0
  153.8248  143.1591  159.2927 H   0  0  0  0  0  0  0  0  0  0  0  0
  153.5521  144.8091  159.8313 H   0  0  0  0  0  0  0  0  0  0  0  0
  151.9562  142.3825  160.3546 H   0  0  0  0  0  0  0  0  0  0  0  0
  151.8431  143.9264  161.1861 H   0  0  0  0  0  0  0  0  0  0  0  0
  150.2675  144.7728  159.6159 H   0  0  0  0  0  0  0  0  0  0  0  0
  149.8196  143.0767  159.5807 H   0  0  0  0  0  0  0  0  0  0  0  0
  1  2  1  0  0  0  0
  1 18  1  0  0  0  0
  1 19  1  0  0  0  0
  2  3  2  0  0  0  0
  2  4  1  0  0  0  0
  4  5  1  0  0  0  0
  4 20  1  0  0  0  0
  4 21  1  0  0  0  0
  5 17  1  0  0  0  0
  5  6  2  0  0  0  0
  6  7  1  0  0  0  0
  6 22  1  0  0  0  0
  7  8  1  0  0  0  0
  8  9  1  0  0  0  0
  8 17  2  0  0  0  0
  9 10  1  0  0  0  0
  9 23  1  0  0  0  0
 10 11  2  0  0  0  0
 10 12  1  0  0  0  0
 12 16  1  0  0  0  0
 12 13  1  0  0  0  0
 12 24  1  0  0  0  0
 13 14  1  0  0  0  0
 13 25  1  0  0  0  0
 13 26  1  0  0  0  0
 14 15  1  0  0  0  0
 14 27  1  0  0  0  0
 14 28  1  0  0  0  0
 15 16  1  0  0  0  0
 15 29  1  0  0  0  0
 15 30  1  0  0  0  0
 16 31  1  0  0  0  0
 16 32  1  0  0  0  0
M  END
> <s_m_source_file>
AV-unprocessed.smi

> <i_m_source_file_index>
1907

> <i_lp_mmshare_version>
43012

> <i_f3d_flags>
0

> <s_epik_input>
W05IMl1DKD1PKVtDSDJdYzFbY0hdc2MobjEpW05IXUMoPU8pW0NIXTJbQ0gyXVtDSDJdW0NIMl1bQ0gyXTI=

> <s_epik_cmdline>
J2VwaWtfcHl0aG9uJywgJy1waCcsICc3LjAnLCAnLXRuJywgJzgnLCAnLW1hJywgJzIwMCcsICctbWV0YWxfYmluZGluZycsICctaW1hZScsICc8aW5maWxlLm1hZT4nLCAnLW9tYWUnLCAnPG91dGZpbGUubWFlPic=

> <r_lp_tautomer_probability>
1

> <r_epik_Ionization_Penalty>
0.00017492

> <r_epik_Ionization_Penalty_Charging>
0

> <r_epik_Ionization_Penalty_Neutral>
0.00017492

> <r_epik_State_Penalty>
-0

> <r_epik_Charging_Adjusted_Penalty>
0

> <i_epik_Tot_Q>
0

> <i_epik_Tot_abs_Q>
0

> <r_epik_Metal_State_Penalty>
0.109333

> <b_epik_Metal_Only>
0

> <s_lp_Force_Field>
OPLS_2005

> <r_lp_Energy>
23.3326

> <b_lp_Chiralities_Consistent>
1

> <s_lp_Variant>
AV-unprocessed.smi:1907-1

> <Gold.Version>
5.8.1

> <Gold.Id.Protein>
6NUR|6NUR_protein|mol2

> <Gold.PLP.Fitness>
46.9404

> <Gold.PLP.PLP>
-36.3669

> <Gold.PLP.part.hbond>
-4.0000

> <Gold.PLP.part.metal>
0.0000

> <Gold.PLP.part.buried>
0.0212

> <Gold.PLP.part.nonpolar>
-31.8620

> <Gold.PLP.part.repulsive>
0.2410

> <Gold.PLP.ligand.clash>
0.0000

> <Gold.PLP.ligand.torsion>
0.5016

> <Gold.PLP.Chemscore.Hbond>
2.9730

> <Gold.PLP.Chemscore.CHOScore>
0.8769

> <Gold.PLP.Chemscore.Metal>
0.0000

> <Gold.Chemscore.Hbonds>
donor molecule, donor type, donor heavy atom, donor atom, acceptor molecule, acceptor atom, score
      L1  H     9    23       P1  8028  0.84
      P1  H  7989  7998       L1    17  0.03
      P1  H 10752 10764       L1     3  0.17
      L1  C     6    22       P1  7948  0.84

> <Gold.PLP.Chemscore.Internal.Correction>
0.0269

> <Gold.Rescore>
     Score         DG    S(hbond)    S(metal)    S(lipo)     H(rot)  DE(clash)    DE(int)     intcor
     15.34     -18.85       2.24        0.00      91.94       1.90       1.82       1.69       ----

> <Gold.Chemscore.Fitness>
15.3395

> <Gold.Chemscore.DG>
-18.8493

> <Gold.Chemscore.ZeroCoef>
-5.4800

> <Gold.Chemscore.Hbond>
2.2405

> <Gold.Chemscore.Metal>
0.0000

> <Gold.Chemscore.Lipo>
91.9412

> <Gold.Chemscore.Internal_Hbond>
0.0000

> <Gold.Chemscore.DEClash>
1.8159

> <Gold.Chemscore.DEInternal>
1.6939

> <Gold.Chemscore.Rot>
1.9028

> <Gold.Chemscore.Internal.Correction>
   9.000000E+99

> <Gold.Chemscore.Hbonds>
donor molecule, donor type, donor heavy atom, donor atom, acceptor molecule, acceptor atom, score
      L1  H     1    19       P1  7948  0.01
      L1  H     9    23       P1  8028  0.82

> <Gold.Chemscore.Hbond.Weighted>
-7.4833

> <Gold.Chemscore.Metal.Weighted>
-0.0000

> <Gold.Chemscore.Lipo.Weighted>
-10.7571

> <Gold.Chemscore.Internal_Hbond.Weighted>
0.0000

> <Gold.Chemscore.DEClash.Weighted>
1.8159

> <Gold.Chemscore.DEInternal.Weighted>
1.6939

> <Gold.Chemscore.Rot.Weighted>
4.8711

> <Gold.Chemscore.Internal.Correction.Weighted>
   9.000000E+99

> <Gold.Protein.RotatedTorsions>
[ 6907 6896 6895 6894 ] final   89.64 input  -60.11 | X-H torsion
[ 7974 7965 7964 7962 ] final  101.36 input  175.53 | X-H torsion
[ 8008 7997 7996 7995 ] final  123.05 input   59.86 | X-H torsion
[ 10167 10162 10161 10158 ] final  161.99 input  -65.29 | X-H torsion
[ 10718 10713 10712 10709 ] final  -94.42 input   66.30 | X-H torsion
[ 10763 10752 10751 10750 ] final  -35.85 input  -60.55 | X-H torsion
[ 11005 11000 10999 10996 ] final  -82.99 input  -57.11 | X-H torsion

> <Gold.Protein.ActiveResidues>
 VAL166  LYS551  ARG553  GLY616  TRP617  ASP618  TYR619  PRO620  LYS621  CYS622 
 ASP623  PHE694  ASN695  SER759  ASP760  ASP761  ALA762  ILE779  LEU786  VAL792 
 PHE793  MET794  SER795  GLU796  ALA797  LYS798  CYS799  TRP800  GLU811  SER814 

> <Gold.Protein.RotatedAtoms>
  152.5438  134.1935  159.8683 H   0  0  0  0  0  0  0  0  0  0  0  0  # atno 6907 bound_to 6896
  151.1929  133.4650  159.2602 H   0  0  0  0  0  0  0  0  0  0  0  0  # atno 6908 bound_to 6896
  151.1066  135.0015  159.8529 H   0  0  0  0  0  0  0  0  0  0  0  0  # atno 6909 bound_to 6896
  145.3733  139.2394  143.3443 H   0  0  0  0  0  0  0  0  0  0  0  0  # atno 7974 bound_to 7965
  156.2751  140.2772  156.1566 H   0  0  0  0  0  0  0  0  0  0  0  0  # atno 8008 bound_to 7997
  155.0798  140.0387  157.2653 H   0  0  0  0  0  0  0  0  0  0  0  0  # atno 8009 bound_to 7997
  154.6973  140.2642  155.6759 H   0  0  0  0  0  0  0  0  0  0  0  0  # atno 8010 bound_to 7997
  139.4855  144.4481  151.8865 H   0  0  0  0  0  0  0  0  0  0  0  0  # atno 10167 bound_to 10162
  156.0027  130.5067  150.5924 H   0  0  0  0  0  0  0  0  0  0  0  0  # atno 10718 bound_to 10713
  153.8701  135.6832  153.4775 H   0  0  0  0  0  0  0  0  0  0  0  0  # atno 10763 bound_to 10752
  153.1292  135.4705  154.9320 H   0  0  0  0  0  0  0  0  0  0  0  0  # atno 10764 bound_to 10752
  154.7718  135.3241  154.8124 H   0  0  0  0  0  0  0  0  0  0  0  0  # atno 10765 bound_to 10752
  141.1660  133.7272  156.8654 H   0  0  0  0  0  0  0  0  0  0  0  0  # atno 11005 bound_to 11000
  146.2875  140.4388  142.8752 LP  0  0  0  0  0  0  0  0  0  0  0  0  # atno 17320 bound_to 7965
  144.8560  140.7071  143.6137 LP  0  0  0  0  0  0  0  0  0  0  0  0  # atno 17321 bound_to 7965
  140.3937  144.2583  150.5898 LP  0  0  0  0  0  0  0  0  0  0  0  0  # atno 17342 bound_to 10162
  140.5122  143.2287  151.8517 LP  0  0  0  0  0  0  0  0  0  0  0  0  # atno 17343 bound_to 10162
  157.3787  131.0777  151.1496 LP  0  0  0  0  0  0  0  0  0  0  0  0  # atno 17370 bound_to 10713
  157.2225  130.6488  149.5817 LP  0  0  0  0  0  0  0  0  0  0  0  0  # atno 17371 bound_to 10713
  140.1819  134.9027  157.2958 LP  0  0  0  0  0  0  0  0  0  0  0  0  # atno 17394 bound_to 11000
  140.2386  134.3823  155.7490 LP  0  0  0  0  0  0  0  0  0  0  0  0  # atno 17395 bound_to 11000

$$$$
