AV-unprocessed.smi:2189|AV-procd|sdf|8884|dock1
  -GOLD-   2272012 83D 1   1.00000     0.00000
 Structure written by MMmdl.
 39 41  0  0  0  0  0  0  0  0  1 V2000
  150.1444  141.5398  157.1499 O   0  0  0  0  0  0  0  0  0  0  0  0
  151.0373  140.8701  157.6721 C   0  0  0  0  0  0  0  0  0  0  0  0
  151.3037  139.6138  157.2648 N   0  0  0  0  0  0  0  0  0  0  0  0
  150.5971  138.8820  156.2160 C   0  0  0  0  0  0  0  0  0  0  0  0
  150.6253  139.6225  154.8650 C   0  0  0  0  0  0  0  0  0  0  0  0
  149.2774  140.1876  154.4502 C   0  0  0  0  0  0  0  0  0  0  0  0
  148.1877  139.3326  154.1769 C   0  0  0  0  0  0  0  0  0  0  0  0
  146.9543  139.9116  153.8213 C   0  0  0  0  0  0  0  0  0  0  0  0
  146.8591  141.3146  153.7488 C   0  0  0  0  0  0  0  0  0  0  0  0
  148.0066  142.0799  154.0376 C   0  0  0  0  0  0  0  0  0  0  0  0
  149.1938  141.5353  154.3802 N   0  0  0  0  0  0  0  0  0  0  0  0
  151.9003  141.3267  158.7763 C   0  0  0  0  0  0  0  0  0  0  0  0
  151.9141  142.6471  159.1004 C   0  0  0  0  0  0  0  0  0  0  0  0
  152.7216  143.1552  160.1817 C   0  0  0  0  0  0  0  0  0  0  0  0
  153.4991  142.2926  160.8446 C   0  0  0  0  0  0  0  0  0  0  0  0
  153.5658  140.9343  160.5389 N   0  0  0  0  0  0  0  0  0  0  0  0
  154.5442  140.1384  161.2724 C   0  0  0  0  0  0  0  0  0  0  0  0
  153.9599  138.7861  161.6372 C   0  0  0  0  0  0  0  0  0  0  0  0
  153.6260  137.9413  160.0503 S   0  0  0  0  0  0  0  0  0  0  0  0
  154.9004  137.8090  159.3270 O   0  0  0  0  0  0  0  0  0  0  0  0
  152.8277  136.7388  160.3326 O   0  0  0  0  0  0  0  0  0  0  0  0
  152.6758  139.0905  159.2872 N   0  0  0  0  0  0  0  0  0  0  0  0
  152.7368  140.3695  159.5290 C   0  0  0  0  0  0  0  0  0  0  0  0
  152.0537  139.1226  157.7289 H   0  0  0  0  0  0  0  0  0  0  0  0
  150.9981  137.8732  156.1053 H   0  0  0  0  0  0  0  0  0  0  0  0
  149.5628  138.7614  156.5381 H   0  0  0  0  0  0  0  0  0  0  0  0
  151.3454  140.4404  154.9150 H   0  0  0  0  0  0  0  0  0  0  0  0
  150.9881  138.9522  154.0847 H   0  0  0  0  0  0  0  0  0  0  0  0
  148.2898  138.2597  154.2491 H   0  0  0  0  0  0  0  0  0  0  0  0
  146.0964  139.2908  153.6098 H   0  0  0  0  0  0  0  0  0  0  0  0
  145.9295  141.7937  153.4797 H   0  0  0  0  0  0  0  0  0  0  0  0
  147.9702  143.1584  153.9916 H   0  0  0  0  0  0  0  0  0  0  0  0
  151.3238  143.3661  158.5504 H   0  0  0  0  0  0  0  0  0  0  0  0
  152.6969  144.2011  160.4502 H   0  0  0  0  0  0  0  0  0  0  0  0
  154.1256  142.6129  161.6646 H   0  0  0  0  0  0  0  0  0  0  0  0
  155.4435  140.0241  160.6663 H   0  0  0  0  0  0  0  0  0  0  0  0
  154.8480  140.6475  162.1876 H   0  0  0  0  0  0  0  0  0  0  0  0
  154.6613  138.1837  162.2141 H   0  0  0  0  0  0  0  0  0  0  0  0
  153.0322  138.8771  162.2031 H   0  0  0  0  0  0  0  0  0  0  0  0
  1  2  2  0  0  0  0
  2  3  1  0  0  0  0
  2 12  1  0  0  0  0
  3  4  1  0  0  0  0
  3 24  1  0  0  0  0
  4  5  1  0  0  0  0
  4 25  1  0  0  0  0
  4 26  1  0  0  0  0
  5  6  1  0  0  0  0
  5 27  1  0  0  0  0
  5 28  1  0  0  0  0
  6 11  1  0  0  0  0
  6  7  2  0  0  0  0
  7  8  1  0  0  0  0
  7 29  1  0  0  0  0
  8  9  2  0  0  0  0
  8 30  1  0  0  0  0
  9 10  1  0  0  0  0
  9 31  1  0  0  0  0
 10 11  2  0  0  0  0
 10 32  1  0  0  0  0
 12 23  1  0  0  0  0
 12 13  2  0  0  0  0
 13 14  1  0  0  0  0
 13 33  1  0  0  0  0
 14 15  2  0  0  0  0
 14 34  1  0  0  0  0
 15 16  1  0  0  0  0
 15 35  1  0  0  0  0
 16 23  1  0  0  0  0
 16 17  1  0  0  0  0
 17 18  1  0  0  0  0
 17 36  1  0  0  0  0
 17 37  1  0  0  0  0
 18 19  1  0  0  0  0
 18 38  1  0  0  0  0
 18 39  1  0  0  0  0
 19 20  2  0  0  0  0
 19 21  2  0  0  0  0
 19 22  1  0  0  0  0
 22 23  2  0  0  0  0
M  END
> <s_m_source_file>
AV-unprocessed.smi

> <i_m_source_file_index>
2189

> <i_lp_mmshare_version>
43012

> <i_f3d_flags>
0

> <s_epik_input>
W0NIMl0xW0NIMl1TKD1PKSg9TylOPUMoTjEyKUMoPVtDSF1bQ0hdPVtDSF0yKUMoPU8pW05IXVtDSDJdW0NIMl1jM1tjSF1bY0hdW2NIXVtjSF1uMw==

> <s_epik_cmdline>
J2VwaWtfcHl0aG9uJywgJy1waCcsICc3LjAnLCAnLXRuJywgJzgnLCAnLW1hJywgJzIwMCcsICctbWV0YWxfYmluZGluZycsICctaW1hZScsICc8aW5maWxlLm1hZT4nLCAnLW9tYWUnLCAnPG91dGZpbGUubWFlPic=

> <r_epik_Ionization_Penalty>
0.0177355

> <r_epik_Ionization_Penalty_Charging>
8.06468e-09

> <r_epik_Ionization_Penalty_Neutral>
0.0177355

> <r_epik_State_Penalty>
0.0140338

> <r_epik_Charging_Adjusted_Penalty>
0.0140338

> <i_epik_Tot_Q>
0

> <i_epik_Tot_abs_Q>
0

> <r_epik_Metal_State_Penalty>
0.0535636

> <b_epik_Metal_Only>
0

> <s_lp_Force_Field>
OPLS_2005

> <r_lp_Energy>
27.3768

> <b_lp_Chiralities_Consistent>
1

> <s_lp_Variant>
AV-unprocessed.smi:2189-1

> <Gold.Version>
5.8.1

> <Gold.Id.Protein>
6NUR|6NUR_protein|mol2

> <Gold.PLP.Fitness>
47.0425

> <Gold.PLP.PLP>
-41.7238

> <Gold.PLP.part.hbond>
-2.3333

> <Gold.PLP.part.metal>
0.0000

> <Gold.PLP.part.buried>
-2.9072

> <Gold.PLP.part.nonpolar>
-36.6906

> <Gold.PLP.part.repulsive>
0.2953

> <Gold.PLP.ligand.clash>
0.0244

> <Gold.PLP.ligand.torsion>
0.4523

> <Gold.PLP.Chemscore.Hbond>
1.0225

> <Gold.PLP.Chemscore.CHOScore>
1.0000

> <Gold.PLP.Chemscore.Metal>
0.0000

> <Gold.Chemscore.Hbonds>
donor molecule, donor type, donor heavy atom, donor atom, acceptor molecule, acceptor atom, score
      P1  H  6896  6907       L1    21  1.00
      P1  H  8011  8017       L1    11  0.01
      L1  C    10    32       P1  8028  0.96

> <Gold.PLP.Chemscore.Internal.Correction>
0.1803

> <Gold.Rescore>
     Score         DG    S(hbond)    S(metal)    S(lipo)     H(rot)  DE(clash)    DE(int)     intcor
     13.77     -16.81       1.00        0.00     100.46       1.47       0.08       2.96       ----

> <Gold.Chemscore.Fitness>
13.7673

> <Gold.Chemscore.DG>
-16.8050

> <Gold.Chemscore.ZeroCoef>
-5.4800

> <Gold.Chemscore.Hbond>
0.9966

> <Gold.Chemscore.Metal>
0.0000

> <Gold.Chemscore.Lipo>
100.4636

> <Gold.Chemscore.Internal_Hbond>
0.0000

> <Gold.Chemscore.DEClash>
0.0775

> <Gold.Chemscore.DEInternal>
2.9602

> <Gold.Chemscore.Rot>
1.4679

> <Gold.Chemscore.Internal.Correction>
   9.000000E+99

> <Gold.Chemscore.Hbonds>
donor molecule, donor type, donor heavy atom, donor atom, acceptor molecule, acceptor atom, score
      P1  H  6896  6907       L1    21  1.00

> <Gold.Chemscore.Hbond.Weighted>
-3.3286

> <Gold.Chemscore.Metal.Weighted>
-0.0000

> <Gold.Chemscore.Lipo.Weighted>
-11.7542

> <Gold.Chemscore.Internal_Hbond.Weighted>
0.0000

> <Gold.Chemscore.DEClash.Weighted>
0.0775

> <Gold.Chemscore.DEInternal.Weighted>
2.9602

> <Gold.Chemscore.Rot.Weighted>
3.7578

> <Gold.Chemscore.Internal.Correction.Weighted>
   9.000000E+99

> <Gold.Protein.RotatedTorsions>
[ 6907 6896 6895 6894 ] final   24.71 input  -60.11 | X-H torsion
[ 7974 7965 7964 7962 ] final  -37.66 input  175.53 | X-H torsion
[ 8008 7997 7996 7995 ] final -121.20 input   59.86 | X-H torsion
[ 10167 10162 10161 10158 ] final   60.24 input  -65.29 | X-H torsion
[ 10718 10713 10712 10709 ] final -161.81 input   66.30 | X-H torsion
[ 10763 10752 10751 10750 ] final   54.29 input  -60.55 | X-H torsion
[ 11005 11000 10999 10996 ] final  104.49 input  -57.11 | X-H torsion

> <Gold.Protein.ActiveResidues>
 VAL166  LYS551  ARG553  GLY616  TRP617  ASP618  TYR619  PRO620  LYS621  CYS622 
 ASP623  PHE694  ASN695  SER759  ASP760  ASP761  ALA762  ILE779  LEU786  VAL792 
 PHE793  MET794  SER795  GLU796  ALA797  LYS798  CYS799  TRP800  GLU811  SER814 

> <Gold.Protein.RotatedAtoms>
  151.9617  135.0120  160.0547 H   0  0  0  0  0  0  0  0  0  0  0  0  # atno 6907 bound_to 6896
  152.1863  133.4737  159.4992 H   0  0  0  0  0  0  0  0  0  0  0  0  # atno 6908 bound_to 6896
  150.6926  134.1687  159.4247 H   0  0  0  0  0  0  0  0  0  0  0  0  # atno 6909 bound_to 6896
  146.0555  140.6422  142.9021 H   0  0  0  0  0  0  0  0  0  0  0  0  # atno 7974 bound_to 7965
  155.1442  140.0402  157.2806 H   0  0  0  0  0  0  0  0  0  0  0  0  # atno 8008 bound_to 7997
  154.6451  140.2556  155.7251 H   0  0  0  0  0  0  0  0  0  0  0  0  # atno 8009 bound_to 7997
  156.2551  140.2848  156.0861 H   0  0  0  0  0  0  0  0  0  0  0  0  # atno 8010 bound_to 7997
  140.1677  144.4308  150.6677 H   0  0  0  0  0  0  0  0  0  0  0  0  # atno 10167 bound_to 10162
  156.6016  130.8813  151.2915 H   0  0  0  0  0  0  0  0  0  0  0  0  # atno 10718 bound_to 10713
  152.9803  135.5750  154.4880 H   0  0  0  0  0  0  0  0  0  0  0  0  # atno 10763 bound_to 10752
  154.4419  135.2776  155.1844 H   0  0  0  0  0  0  0  0  0  0  0  0  # atno 10764 bound_to 10752
  154.3508  135.6209  153.5695 H   0  0  0  0  0  0  0  0  0  0  0  0  # atno 10765 bound_to 10752
  139.8792  134.9302  156.5370 H   0  0  0  0  0  0  0  0  0  0  0  0  # atno 11005 bound_to 11000
  144.7146  140.4162  143.7054 LP  0  0  0  0  0  0  0  0  0  0  0  0  # atno 17320 bound_to 7965
  145.6651  139.1588  143.2786 LP  0  0  0  0  0  0  0  0  0  0  0  0  # atno 17321 bound_to 7965
  140.6602  143.2250  151.5873 LP  0  0  0  0  0  0  0  0  0  0  0  0  # atno 17342 bound_to 10162
  139.5352  144.2802  152.1235 LP  0  0  0  0  0  0  0  0  0  0  0  0  # atno 17343 bound_to 10162
  157.7278  130.9648  150.1715 LP  0  0  0  0  0  0  0  0  0  0  0  0  # atno 17370 bound_to 10713
  156.2464  130.3696  149.8280 LP  0  0  0  0  0  0  0  0  0  0  0  0  # atno 17371 bound_to 10713
  140.8339  133.8258  155.9010 LP  0  0  0  0  0  0  0  0  0  0  0  0  # atno 17394 bound_to 11000
  140.9302  134.2031  157.4868 LP  0  0  0  0  0  0  0  0  0  0  0  0  # atno 17395 bound_to 11000

$$$$
