AV-unprocessed.smi:892|AV-procd|sdf|4065|dock1
  -GOLD-   22720 1553D 1   1.00000     0.00000
 Structure written by MMmdl.
 36 37  0  0  0  0  0  0  0  0  1 V2000
  146.8800  138.9852  152.0517 C   0  0  0  0  0  0  0  0  0  0  0  0
  148.0450  138.4746  152.7576 N   0  0  0  0  0  0  0  0  0  0  0  0
  148.7260  139.1626  153.6860 C   0  0  0  0  0  0  0  0  0  0  0  0
  148.4226  140.3014  154.0415 O   0  0  0  0  0  0  0  0  0  0  0  0
  149.9326  138.4609  154.3123 C   0  0  0  0  0  0  0  0  0  0  0  0
  150.7148  139.4138  155.1587 C   0  0  0  0  0  0  0  0  0  0  0  0
  151.9615  139.7500  154.8480 N   0  0  0  0  0  0  0  0  0  0  0  0
  152.3209  140.6413  155.8687 O   0  0  0  0  0  0  0  0  0  0  0  0
  151.2355  140.7397  156.6745 C   0  0  0  0  0  0  0  0  0  0  0  0
  151.3003  141.6270  157.8784 C   0  0  0  0  0  0  0  0  0  0  0  0
  151.3393  143.1153  157.4697 C   0  0  0  0  0  0  0  0  0  0  0  0
  150.9608  144.0716  158.6135 C   0  0  0  0  0  0  0  0  0  0  0  0
  152.1190  144.4927  159.5352 C   0  0  0  0  0  0  0  0  0  0  0  0
  153.1434  143.4028  159.8968 C   0  0  0  0  0  0  0  0  0  0  0  0
  152.5612  141.9983  160.1226 C   0  0  0  0  0  0  0  0  0  0  0  0
  152.4380  141.1873  158.8206 C   0  0  0  0  0  0  0  0  0  0  0  0
  150.2034  139.9989  156.2778 N   0  0  0  0  0  0  0  0  0  0  0  0
  146.4951  138.2250  151.3721 H   0  0  0  0  0  0  0  0  0  0  0  0
  147.1389  139.8677  151.4654 H   0  0  0  0  0  0  0  0  0  0  0  0
  146.0861  139.2513  152.7508 H   0  0  0  0  0  0  0  0  0  0  0  0
  148.3590  137.5444  152.5207 H   0  0  0  0  0  0  0  0  0  0  0  0
  149.5937  137.6194  154.9183 H   0  0  0  0  0  0  0  0  0  0  0  0
  150.5750  138.0500  153.5323 H   0  0  0  0  0  0  0  0  0  0  0  0
  150.3642  141.4646  158.4149 H   0  0  0  0  0  0  0  0  0  0  0  0
  152.3008  143.3828  157.0296 H   0  0  0  0  0  0  0  0  0  0  0  0
  150.6019  143.2613  156.6789 H   0  0  0  0  0  0  0  0  0  0  0  0
  150.5286  144.9779  158.1874 H   0  0  0  0  0  0  0  0  0  0  0  0
  150.1616  143.6292  159.2093 H   0  0  0  0  0  0  0  0  0  0  0  0
  152.6564  145.3240  159.0771 H   0  0  0  0  0  0  0  0  0  0  0  0
  151.6890  144.8950  160.4531 H   0  0  0  0  0  0  0  0  0  0  0  0
  153.9141  143.3554  159.1265 H   0  0  0  0  0  0  0  0  0  0  0  0
  153.6637  143.7205  160.8011 H   0  0  0  0  0  0  0  0  0  0  0  0
  153.2404  141.4570  160.7823 H   0  0  0  0  0  0  0  0  0  0  0  0
  151.6088  142.0464  160.6514 H   0  0  0  0  0  0  0  0  0  0  0  0
  152.2740  140.1422  159.0871 H   0  0  0  0  0  0  0  0  0  0  0  0
  153.3906  141.2080  158.2896 H   0  0  0  0  0  0  0  0  0  0  0  0
  1  2  1  0  0  0  0
  1 18  1  0  0  0  0
  1 19  1  0  0  0  0
  1 20  1  0  0  0  0
  2  3  1  0  0  0  0
  2 21  1  0  0  0  0
  3  4  2  0  0  0  0
  3  5  1  0  0  0  0
  5  6  1  0  0  0  0
  5 22  1  0  0  0  0
  5 23  1  0  0  0  0
  6 17  1  0  0  0  0
  6  7  2  0  0  0  0
  7  8  1  0  0  0  0
  8  9  1  0  0  0  0
  9 10  1  0  0  0  0
  9 17  2  0  0  0  0
 10 16  1  0  0  0  0
 10 11  1  0  0  0  0
 10 24  1  0  0  0  0
 11 12  1  0  0  0  0
 11 25  1  0  0  0  0
 11 26  1  0  0  0  0
 12 13  1  0  0  0  0
 12 27  1  0  0  0  0
 12 28  1  0  0  0  0
 13 14  1  0  0  0  0
 13 29  1  0  0  0  0
 13 30  1  0  0  0  0
 14 15  1  0  0  0  0
 14 31  1  0  0  0  0
 14 32  1  0  0  0  0
 15 16  1  0  0  0  0
 15 33  1  0  0  0  0
 15 34  1  0  0  0  0
 16 35  1  0  0  0  0
 16 36  1  0  0  0  0
M  END
> <s_m_source_file>
AV-unprocessed.smi

> <i_m_source_file_index>
892

> <i_lp_mmshare_version>
43012

> <i_f3d_flags>
0

> <s_epik_input>
W0NIM11bTkhdQyg9TylbQ0gyXWMxbm9jKG4xKVtDSF0yW0NIMl1bQ0gyXVtDSDJdW0NIMl1bQ0gyXVtDSDJdMg==

> <s_epik_cmdline>
J2VwaWtfcHl0aG9uJywgJy1waCcsICc3LjAnLCAnLXRuJywgJzgnLCAnLW1hJywgJzIwMCcsICctbWV0YWxfYmluZGluZycsICctaW1hZScsICc8aW5maWxlLm1hZT4nLCAnLW9tYWUnLCAnPG91dGZpbGUubWFlPic=

> <r_lp_tautomer_probability>
1

> <r_epik_Ionization_Penalty>
1.02916e-07

> <r_epik_Ionization_Penalty_Charging>
0

> <r_epik_Ionization_Penalty_Neutral>
1.02916e-07

> <r_epik_State_Penalty>
-0

> <r_epik_Charging_Adjusted_Penalty>
0

> <i_epik_Tot_Q>
0

> <i_epik_Tot_abs_Q>
0

> <r_epik_Metal_State_Penalty>
-0

> <b_epik_Metal_Only>
0

> <s_lp_Force_Field>
OPLS_2005

> <r_lp_Energy>
13.6586

> <b_lp_Chiralities_Consistent>
1

> <s_lp_Variant>
AV-unprocessed.smi:892-1

> <Gold.Version>
5.8.1

> <Gold.Id.Protein>
6NUR|6NUR_protein|mol2

> <Gold.PLP.Fitness>
43.2184

> <Gold.PLP.PLP>
-35.5009

> <Gold.PLP.part.hbond>
-4.3165

> <Gold.PLP.part.metal>
0.0000

> <Gold.PLP.part.buried>
-0.5300

> <Gold.PLP.part.nonpolar>
-31.4669

> <Gold.PLP.part.repulsive>
0.2156

> <Gold.PLP.ligand.clash>
0.0000

> <Gold.PLP.ligand.torsion>
0.1802

> <Gold.PLP.Chemscore.Hbond>
2.6663

> <Gold.PLP.Chemscore.CHOScore>
0.0000

> <Gold.PLP.Chemscore.Metal>
0.0000

> <Gold.Chemscore.Hbonds>
donor molecule, donor type, donor heavy atom, donor atom, acceptor molecule, acceptor atom, score
      L1  H     2    21       P1  7948  1.00
      P1  H  7989  7998       L1     7  0.91
      P1  H  7997  8008       L1     8  0.77

> <Gold.PLP.Chemscore.Internal.Correction>
0.0791

> <Gold.Rescore>
     Score         DG    S(hbond)    S(metal)    S(lipo)     H(rot)  DE(clash)    DE(int)     intcor
     14.10     -17.04       1.60        0.00      88.06       1.60       1.42       1.51       ----

> <Gold.Chemscore.Fitness>
14.1024

> <Gold.Chemscore.DG>
-17.0353

> <Gold.Chemscore.ZeroCoef>
-5.4800

> <Gold.Chemscore.Hbond>
1.6026

> <Gold.Chemscore.Metal>
0.0000

> <Gold.Chemscore.Lipo>
88.0560

> <Gold.Chemscore.Internal_Hbond>
0.0000

> <Gold.Chemscore.DEClash>
1.4236

> <Gold.Chemscore.DEInternal>
1.5093

> <Gold.Chemscore.Rot>
1.6016

> <Gold.Chemscore.Internal.Correction>
   9.000000E+99

> <Gold.Chemscore.Hbonds>
donor molecule, donor type, donor heavy atom, donor atom, acceptor molecule, acceptor atom, score
      L1  H     2    21       P1  7948  0.97
      P1  H  7989  7998       L1     7  0.08
      P1  H  7997  8008       L1     8  0.25

> <Gold.Chemscore.Hbond.Weighted>
-5.3528

> <Gold.Chemscore.Metal.Weighted>
-0.0000

> <Gold.Chemscore.Lipo.Weighted>
-10.3026

> <Gold.Chemscore.Internal_Hbond.Weighted>
0.0000

> <Gold.Chemscore.DEClash.Weighted>
1.4236

> <Gold.Chemscore.DEInternal.Weighted>
1.5093

> <Gold.Chemscore.Rot.Weighted>
4.1000

> <Gold.Chemscore.Internal.Correction.Weighted>
   9.000000E+99

> <Gold.Protein.RotatedTorsions>
[ 6907 6896 6895 6894 ] final  -56.81 input  -60.11 | X-H torsion
[ 7974 7965 7964 7962 ] final  -24.91 input  175.53 | X-H torsion
[ 8008 7997 7996 7995 ] final  -32.06 input   59.86 | X-H torsion
[ 10167 10162 10161 10158 ] final -160.31 input  -65.29 | X-H torsion
[ 10718 10713 10712 10709 ] final -176.84 input   66.30 | X-H torsion
[ 10763 10752 10751 10750 ] final  -52.03 input  -60.55 | X-H torsion
[ 11005 11000 10999 10996 ] final  127.73 input  -57.11 | X-H torsion

> <Gold.Protein.ActiveResidues>
 VAL166  LYS551  ARG553  GLY616  TRP617  ASP618  TYR619  PRO620  LYS621  CYS622 
 ASP623  PHE694  ASN695  SER759  ASP760  ASP761  ALA762  ILE779  LEU786  VAL792 
 PHE793  MET794  SER795  GLU796  ALA797  LYS798  CYS799  TRP800  GLU811  SER814 

> <Gold.Protein.RotatedAtoms>
  150.8137  134.7307  159.6710 H   0  0  0  0  0  0  0  0  0  0  0  0  # atno 6907 bound_to 6896
  152.4256  134.5870  159.9973 H   0  0  0  0  0  0  0  0  0  0  0  0  # atno 6908 bound_to 6896
  151.6073  133.3313  159.3096 H   0  0  0  0  0  0  0  0  0  0  0  0  # atno 6909 bound_to 6896
  146.1525  140.4815  142.8605 H   0  0  0  0  0  0  0  0  0  0  0  0  # atno 7974 bound_to 7965
  154.4192  140.1747  156.1667 H   0  0  0  0  0  0  0  0  0  0  0  0  # atno 8008 bound_to 7997
  155.9794  140.3379  155.6625 H   0  0  0  0  0  0  0  0  0  0  0  0  # atno 8009 bound_to 7997
  155.6520  140.0691  157.2574 H   0  0  0  0  0  0  0  0  0  0  0  0  # atno 8010 bound_to 7997
  139.6549  144.0017  152.2187 H   0  0  0  0  0  0  0  0  0  0  0  0  # atno 10167 bound_to 10162
  156.8207  130.9619  151.3112 H   0  0  0  0  0  0  0  0  0  0  0  0  # atno 10718 bound_to 10713
  154.1362  135.6512  153.4932 H   0  0  0  0  0  0  0  0  0  0  0  0  # atno 10763 bound_to 10752
  153.0180  135.5304  154.6951 H   0  0  0  0  0  0  0  0  0  0  0  0  # atno 10764 bound_to 10752
  154.6200  135.2963  155.0307 H   0  0  0  0  0  0  0  0  0  0  0  0  # atno 10765 bound_to 10752
  139.9523  134.9620  156.8897 H   0  0  0  0  0  0  0  0  0  0  0  0  # atno 11005 bound_to 11000
  144.7922  140.6053  143.6534 LP  0  0  0  0  0  0  0  0  0  0  0  0  # atno 17320 bound_to 7965
  145.4789  139.1497  143.3773 LP  0  0  0  0  0  0  0  0  0  0  0  0  # atno 17321 bound_to 7965
  139.9740  144.6474  150.7962 LP  0  0  0  0  0  0  0  0  0  0  0  0  # atno 17342 bound_to 10162
  140.7554  143.3047  151.2993 LP  0  0  0  0  0  0  0  0  0  0  0  0  # atno 17343 bound_to 10162
  157.6458  130.8843  149.9536 LP  0  0  0  0  0  0  0  0  0  0  0  0  # atno 17370 bound_to 10713
  156.0990  130.3657  150.0252 LP  0  0  0  0  0  0  0  0  0  0  0  0  # atno 17371 bound_to 10713
  140.5691  134.0461  155.7424 LP  0  0  0  0  0  0  0  0  0  0  0  0  # atno 17394 bound_to 11000
  141.1188  133.9496  157.2771 LP  0  0  0  0  0  0  0  0  0  0  0  0  # atno 17395 bound_to 11000

$$$$
