AV-unprocessed.smi:81|AV-procd|sdf|791|dock5
  -GOLD-   2262017163D 1   1.00000     0.00000
 Structure written by MMmdl.
 64 67  0  0  0  0  0  0  0  0  2 V2000
  154.2365  141.2679  160.7729 C   0  0  0  0  0  0  0  0  0  0  0  0
  153.0966  142.1891  160.3082 C   0  0  0  0  0  0  0  0  0  0  0  0
  152.5854  143.0141  161.4990 C   0  0  0  0  0  0  0  0  0  0  0  0
  151.9185  141.4235  159.6544 C   0  0  0  0  0  0  0  0  0  0  0  0
  152.1375  140.9746  158.2716 N   0  0  0  0  0  0  0  0  0  0  0  0
  152.3333  139.6346  158.2046 C   0  0  0  0  0  0  0  0  0  0  0  0
  153.5944  139.1287  158.2459 N   0  0  0  0  0  0  0  0  0  0  0  0
  153.7881  137.8092  158.1593 C   0  0  0  0  0  0  0  0  0  0  0  0
  152.8804  136.8394  158.0268 N   0  0  0  0  0  0  0  0  0  0  0  0
  151.6145  137.3457  157.9839 C   0  0  0  0  0  0  0  0  0  0  0  0
  151.2560  138.7192  158.0691 C   0  0  0  0  0  0  0  0  0  0  0  0
  149.8757  138.8587  158.0047 N   0  0  0  0  0  0  0  0  0  0  0  0
  149.4418  137.6347  157.8748 C   0  0  0  0  0  0  0  0  0  0  0  0
  150.4186  136.6642  157.8401 N   0  0  0  0  0  0  0  0  0  0  0  0
  150.2171  135.2315  157.6873 C   0  0  0  0  0  0  0  0  0  0  0  0
  150.9649  134.6315  156.4710 C   0  0  2  0  0  0  0  0  0  0  0  0
  152.3585  134.7292  156.7142 O   0  0  0  0  0  0  0  0  0  0  0  0
  150.6532  135.3842  155.1733 C   0  0  0  0  0  0  0  0  0  0  0  0
  149.8450  134.3871  154.3516 C   0  0  0  0  0  0  0  0  0  0  0  0
  150.3963  133.1408  154.7371 O   0  0  0  0  0  0  0  0  0  0  0  0
  150.5446  133.1734  156.1487 C   0  0  1  0  0  0  0  0  0  0  0  0
  151.4817  132.0499  156.6222 C   0  0  0  0  0  0  0  0  0  0  0  0
  151.5003  141.6304  157.1134 C   0  0  2  0  0  0  0  0  0  0  0  0
  151.8712  143.1308  156.9861 C   0  0  0  0  0  0  0  0  0  0  0  0
  151.2949  143.9615  158.1474 C   0  0  0  0  0  0  0  0  0  0  0  0
  149.8194  143.8235  158.2203 N   0  3  2  0  0  0  0  0  0  0  0  0
  149.2274  144.6720  159.2762 C   0  0  0  0  0  0  0  0  0  0  0  0
  149.3901  142.4069  158.3268 C   0  0  0  0  0  0  0  0  0  0  0  0
  149.9568  141.5680  157.1661 C   0  0  0  0  0  0  0  0  0  0  0  0
  153.8758  140.5156  161.4744 H   0  0  0  0  0  0  0  0  0  0  0  0
  155.0174  141.8385  161.2761 H   0  0  0  0  0  0  0  0  0  0  0  0
  154.7123  140.7516  159.9427 H   0  0  0  0  0  0  0  0  0  0  0  0
  153.5072  142.9015  159.5931 H   0  0  0  0  0  0  0  0  0  0  0  0
  152.1563  142.3743  162.2707 H   0  0  0  0  0  0  0  0  0  0  0  0
  151.8158  143.7206  161.1866 H   0  0  0  0  0  0  0  0  0  0  0  0
  153.3904  143.5920  161.9542 H   0  0  0  0  0  0  0  0  0  0  0  0
  151.6232  140.5845  160.2823 H   0  0  0  0  0  0  0  0  0  0  0  0
  151.0423  142.0730  159.6528 H   0  0  0  0  0  0  0  0  0  0  0  0
  154.8172  137.4839  158.1994 H   0  0  0  0  0  0  0  0  0  0  0  0
  148.3895  137.4039  157.7898 H   0  0  0  0  0  0  0  0  0  0  0  0
  150.5418  134.7400  158.6053 H   0  0  0  0  0  0  0  0  0  0  0  0
  149.1455  135.0440  157.6053 H   0  0  0  0  0  0  0  0  0  0  0  0
  152.4889  135.2492  157.4924 H   0  0  0  0  0  0  0  0  0  0  0  0
  150.1125  136.3181  155.3314 H   0  0  0  0  0  0  0  0  0  0  0  0
  151.5677  135.6289  154.6303 H   0  0  0  0  0  0  0  0  0  0  0  0
  148.7881  134.4223  154.6210 H   0  0  0  0  0  0  0  0  0  0  0  0
  149.9343  134.5544  153.2782 H   0  0  0  0  0  0  0  0  0  0  0  0
  149.5505  132.9875  156.5571 H   0  0  0  0  0  0  0  0  0  0  0  0
  151.6212  132.0808  157.7029 H   0  0  0  0  0  0  0  0  0  0  0  0
  152.4628  132.1184  156.1522 H   0  0  0  0  0  0  0  0  0  0  0  0
  151.0669  131.0736  156.3723 H   0  0  0  0  0  0  0  0  0  0  0  0
  151.8450  141.1242  156.2124 H   0  0  0  0  0  0  0  0  0  0  0  0
  152.9478  143.2839  156.9209 H   0  0  0  0  0  0  0  0  0  0  0  0
  151.4742  143.5163  156.0459 H   0  0  0  0  0  0  0  0  0  0  0  0
  151.7409  143.6530  159.0942 H   0  0  0  0  0  0  0  0  0  0  0  0
  151.5531  145.0115  158.0054 H   0  0  0  0  0  0  0  0  0  0  0  0
  149.5744  144.3666  160.2641 H   0  0  0  0  0  0  0  0  0  0  0  0
  148.1392  144.6047  159.2591 H   0  0  0  0  0  0  0  0  0  0  0  0
  149.4979  145.7177  159.1264 H   0  0  0  0  0  0  0  0  0  0  0  0
  149.7108  141.9973  159.2860 H   0  0  0  0  0  0  0  0  0  0  0  0
  148.3007  142.3574  158.3120 H   0  0  0  0  0  0  0  0  0  0  0  0
  149.5540  141.9490  156.2266 H   0  0  0  0  0  0  0  0  0  0  0  0
  149.5979  140.5421  157.2312 H   0  0  0  0  0  0  0  0  0  0  0  0
  149.4577  144.1654  157.3413 H   0  0  0  0  0  0  0  0  0  0  0  0
  1  2  1  0  0  0  0
  1 30  1  0  0  0  0
  1 31  1  0  0  0  0
  1 32  1  0  0  0  0
  2  3  1  0  0  0  0
  2  4  1  0  0  0  0
  2 33  1  0  0  0  0
  3 34  1  0  0  0  0
  3 35  1  0  0  0  0
  3 36  1  0  0  0  0
  4  5  1  0  0  0  0
  4 37  1  0  0  0  0
  4 38  1  0  0  0  0
  5  6  1  0  0  0  0
  5 23  1  0  0  0  0
  6 11  1  0  0  0  0
  6  7  2  0  0  0  0
  7  8  1  0  0  0  0
  8  9  2  0  0  0  0
  8 39  1  0  0  0  0
  9 10  1  0  0  0  0
 10 14  1  0  0  0  0
 10 11  2  0  0  0  0
 11 12  1  0  0  0  0
 12 13  2  0  0  0  0
 13 14  1  0  0  0  0
 13 40  1  0  0  0  0
 14 15  1  0  0  0  0
 15 16  1  0  0  0  0
 15 41  1  0  0  0  0
 15 42  1  0  0  0  0
 16 21  1  0  0  0  0
 16 17  1  0  0  0  0
 16 18  1  0  0  0  0
 17 43  1  0  0  0  0
 18 19  1  0  0  0  0
 18 44  1  0  0  0  0
 18 45  1  0  0  0  0
 19 20  1  0  0  0  0
 19 46  1  0  0  0  0
 19 47  1  0  0  0  0
 20 21  1  0  0  0  0
 21 22  1  0  0  0  0
 21 48  1  0  0  0  0
 22 49  1  0  0  0  0
 22 50  1  0  0  0  0
 22 51  1  0  0  0  0
 23 29  1  0  0  0  0
 23 24  1  0  0  0  0
 23 52  1  0  0  0  0
 24 25  1  0  0  0  0
 24 53  1  0  0  0  0
 24 54  1  0  0  0  0
 25 26  1  0  0  0  0
 25 55  1  0  0  0  0
 25 56  1  0  0  0  0
 26 27  1  0  0  0  0
 26 28  1  0  0  0  0
 26 64  1  0  0  0  0
 27 57  1  0  0  0  0
 27 58  1  0  0  0  0
 27 59  1  0  0  0  0
 28 29  1  0  0  0  0
 28 60  1  0  0  0  0
 28 61  1  0  0  0  0
 29 62  1  0  0  0  0
 29 63  1  0  0  0  0
M  CHG  1  26   1
M  END
> <s_m_source_file>
AV-unprocessed.smi

> <i_m_source_file_index>
81

> <i_lp_mmshare_version>
43012

> <i_f3d_flags>
0

> <s_epik_input>
W0NIMl0xW0NIMl1OKFtDSDNdKVtDSDJdW0NIMl1bQ0hdMU4oW0NIMl1bQ0hdKFtDSDNdKVtDSDNdKWMobltjSF1uMiljKGMyMyluW2NIXW4zW0NIMl1bQ0BAXTQoW09IXSlbQ0gyXVtDSDJdT1tDQEhdNFtDSDNd

> <s_epik_cmdline>
J2VwaWtfcHl0aG9uJywgJy1waCcsICc3LjAnLCAnLXRuJywgJzgnLCAnLW1hJywgJzIwMCcsICctbWV0YWxfYmluZGluZycsICctaW1hZScsICc8aW5maWxlLm1hZT4nLCAnLW9tYWUnLCAnPG91dGZpbGUubWFlPic=

> <r_lp_tautomer_probability>
1

> <r_epik_Ionization_Penalty>
0.00272708

> <r_epik_Ionization_Penalty_Charging>
0.00158983

> <r_epik_Ionization_Penalty_Neutral>
0.00113725

> <r_epik_State_Penalty>
-0

> <r_epik_Charging_Adjusted_Penalty>
0.00158983

> <i_epik_Tot_Q>
1

> <i_epik_Tot_abs_Q>
1

> <r_epik_Metal_State_Penalty>
-0

> <b_epik_Metal_Only>
0

> <s_lp_Force_Field>
OPLS_2005

> <r_lp_Energy>
49.6566

> <b_lp_Chiralities_Consistent>
1

> <s_lp_Variant>
AV-unprocessed.smi:81-6

> <Gold.Version>
5.8.1

> <Gold.Id.Protein>
6NUR|6NUR_protein|mol2

> <Gold.PLP.Fitness>
47.1974

> <Gold.PLP.PLP>
-38.7822

> <Gold.PLP.part.hbond>
-4.1112

> <Gold.PLP.part.metal>
0.0000

> <Gold.PLP.part.buried>
-0.3289

> <Gold.PLP.part.nonpolar>
-33.2545

> <Gold.PLP.part.repulsive>
0.1139

> <Gold.PLP.ligand.clash>
0.0000

> <Gold.PLP.ligand.torsion>
2.0735

> <Gold.PLP.Chemscore.Hbond>
3.7440

> <Gold.PLP.Chemscore.CHOScore>
0.0000

> <Gold.PLP.Chemscore.Metal>
0.0000

> <Gold.Chemscore.Hbonds>
donor molecule, donor type, donor heavy atom, donor atom, acceptor molecule, acceptor atom, score
      L1  H    26    64       P1  8028  1.90
      P1  H  7997  8008       L1     7  1.00
      P1  H 10752 10763       L1    17  0.93

> <Gold.PLP.Chemscore.Internal.Correction>
1.3302

> <Gold.Rescore>
     Score         DG    S(hbond)    S(metal)    S(lipo)     H(rot)  DE(clash)    DE(int)     intcor
      8.70     -18.95       1.72        0.00     116.74       2.32       3.88       6.37       ----

> <Gold.Chemscore.Fitness>
8.7033

> <Gold.Chemscore.DG>
-18.9498

> <Gold.Chemscore.ZeroCoef>
-5.4800

> <Gold.Chemscore.Hbond>
1.7190

> <Gold.Chemscore.Metal>
0.0000

> <Gold.Chemscore.Lipo>
116.7372

> <Gold.Chemscore.Internal_Hbond>
0.0000

> <Gold.Chemscore.DEClash>
3.8773

> <Gold.Chemscore.DEInternal>
6.3693

> <Gold.Chemscore.Rot>
2.3163

> <Gold.Chemscore.Internal.Correction>
   9.000000E+99

> <Gold.Chemscore.Hbonds>
donor molecule, donor type, donor heavy atom, donor atom, acceptor molecule, acceptor atom, score
      L1  H    26    64       P1  8028  0.22
      P1  H  7997  8008       L1     7  0.65
      P1  H 10752 10763       L1    17  0.66

> <Gold.Chemscore.Hbond.Weighted>
-5.7413

> <Gold.Chemscore.Metal.Weighted>
-0.0000

> <Gold.Chemscore.Lipo.Weighted>
-13.6582

> <Gold.Chemscore.Internal_Hbond.Weighted>
0.0000

> <Gold.Chemscore.DEClash.Weighted>
3.8773

> <Gold.Chemscore.DEInternal.Weighted>
6.3693

> <Gold.Chemscore.Rot.Weighted>
5.9297

> <Gold.Chemscore.Internal.Correction.Weighted>
   9.000000E+99

> <Gold.Protein.RotatedTorsions>
[ 6907 6896 6895 6894 ] final -112.23 input  -60.11 | X-H torsion
[ 7974 7965 7964 7962 ] final   25.28 input  175.53 | X-H torsion
[ 8008 7997 7996 7995 ] final -108.30 input   59.86 | X-H torsion
[ 10167 10162 10161 10158 ] final   21.48 input  -65.29 | X-H torsion
[ 10718 10713 10712 10709 ] final -108.59 input   66.30 | X-H torsion
[ 10763 10752 10751 10750 ] final  103.39 input  -60.55 | X-H torsion
[ 11005 11000 10999 10996 ] final   26.39 input  -57.11 | X-H torsion

> <Gold.Protein.ActiveResidues>
 VAL166  LYS551  ARG553  GLY616  TRP617  ASP618  TYR619  PRO620  LYS621  CYS622 
 ASP623  PHE694  ASN695  SER759  ASP760  ASP761  ALA762  ILE779  LEU786  VAL792 
 PHE793  MET794  SER795  GLU796  ALA797  LYS798  CYS799  TRP800  GLU811  SER814 

> <Gold.Protein.RotatedAtoms>
  150.7744  133.9119  159.3371 H   0  0  0  0  0  0  0  0  0  0  0  0  # atno 6907 bound_to 6896
  151.6998  135.0930  160.0258 H   0  0  0  0  0  0  0  0  0  0  0  0  # atno 6908 bound_to 6896
  152.3775  133.6462  159.6170 H   0  0  0  0  0  0  0  0  0  0  0  0  # atno 6909 bound_to 6896
  146.1896  139.7487  142.8841 H   0  0  0  0  0  0  0  0  0  0  0  0  # atno 7974 bound_to 7965
  154.9422  140.0402  157.2102 H   0  0  0  0  0  0  0  0  0  0  0  0  # atno 8008 bound_to 7997
  154.8058  140.2859  155.5866 H   0  0  0  0  0  0  0  0  0  0  0  0  # atno 8009 bound_to 7997
  156.2966  140.2546  156.2936 H   0  0  0  0  0  0  0  0  0  0  0  0  # atno 8010 bound_to 7997
  140.5423  143.9656  150.6526 H   0  0  0  0  0  0  0  0  0  0  0  0  # atno 10167 bound_to 10162
  156.0493  130.5721  150.7983 H   0  0  0  0  0  0  0  0  0  0  0  0  # atno 10718 bound_to 10713
  153.3520  135.3978  155.1653 H   0  0  0  0  0  0  0  0  0  0  0  0  # atno 10763 bound_to 10752
  154.8664  135.3659  154.5210 H   0  0  0  0  0  0  0  0  0  0  0  0  # atno 10764 bound_to 10752
  153.5662  135.7080  153.5585 H   0  0  0  0  0  0  0  0  0  0  0  0  # atno 10765 bound_to 10752
  140.3375  134.2369  155.7694 H   0  0  0  0  0  0  0  0  0  0  0  0  # atno 11005 bound_to 11000
  145.3833  141.0361  143.3165 LP  0  0  0  0  0  0  0  0  0  0  0  0  # atno 17320 bound_to 7965
  144.8461  139.5394  143.6878 LP  0  0  0  0  0  0  0  0  0  0  0  0  # atno 17321 bound_to 7965
  140.3059  143.3229  152.0926 LP  0  0  0  0  0  0  0  0  0  0  0  0  # atno 17342 bound_to 10162
  139.4993  144.6667  151.6339 LP  0  0  0  0  0  0  0  0  0  0  0  0  # atno 17343 bound_to 10162
  157.5403  131.0940  150.9836 LP  0  0  0  0  0  0  0  0  0  0  0  0  # atno 17370 bound_to 10713
  157.0120  130.5640  149.5322 LP  0  0  0  0  0  0  0  0  0  0  0  0  # atno 17371 bound_to 10713
  141.2047  133.7879  157.0272 LP  0  0  0  0  0  0  0  0  0  0  0  0  # atno 17394 bound_to 11000
  140.0808  134.9649  157.1622 LP  0  0  0  0  0  0  0  0  0  0  0  0  # atno 17395 bound_to 11000

$$$$
