AV-unprocessed.smi:2061|AV-procd|sdf|8378|dock1
  -GOLD-   2272011 53D 1   1.00000     0.00000
 Structure written by MMmdl.
 44 45  0  0  0  0  0  0  0  0  2 V2000
  145.6646  133.1958  162.0528 C   0  0  0  0  0  0  0  0  0  0  0  0
  146.3880  134.4741  161.7992 C   0  0  0  0  0  0  0  0  0  0  0  0
  146.7875  135.1031  160.6543 C   0  0  0  0  0  0  0  0  0  0  0  0
  147.4184  136.2832  161.1350 C   0  0  0  0  0  0  0  0  0  0  0  0
  147.9954  137.2331  160.3828 N   0  5  0  0  0  0  0  0  0  0  0  0
  148.9545  136.9055  159.4864 C   0  0  0  0  0  0  0  0  0  0  0  0
  149.1330  135.7959  158.9787 O   0  0  0  0  0  0  0  0  0  0  0  0
  149.7601  137.9271  159.1616 N   0  0  0  0  0  0  0  0  0  0  0  0
  150.8911  137.8669  158.2383 C   0  0  0  0  0  0  0  0  0  0  0  0
  151.5090  139.2609  157.9226 C   0  0  2  0  0  0  0  0  0  0  0  0
  152.1234  139.2234  156.4996 C   0  0  0  0  0  0  0  0  0  0  0  0
  152.4720  139.7246  158.9500 N   0  0  0  0  0  0  0  0  0  0  0  0
  153.6690  138.8812  159.0158 C   0  0  0  0  0  0  0  0  0  0  0  0
  154.6699  139.3416  160.0905 C   0  0  1  0  0  0  0  0  0  0  0  0
  155.9492  138.4979  160.0839 C   0  0  0  0  0  0  0  0  0  0  0  0
  155.0359  140.6965  159.8522 O   0  0  0  0  0  0  0  0  0  0  0  0
  153.9391  141.6034  159.7681 C   0  0  2  0  0  0  0  0  0  0  0  0
  153.3259  141.8929  161.1490 C   0  0  0  0  0  0  0  0  0  0  0  0
  152.9085  141.1089  158.7333 C   0  0  0  0  0  0  0  0  0  0  0  0
  147.4174  136.3547  162.4555 N   0  0  0  0  0  0  0  0  0  0  0  0
  146.7537  135.2009  162.8890 O   0  0  0  0  0  0  0  0  0  0  0  0
  146.3248  132.3428  161.8954 H   0  0  0  0  0  0  0  0  0  0  0  0
  144.8130  133.0939  161.3801 H   0  0  0  0  0  0  0  0  0  0  0  0
  145.2923  133.1516  163.0765 H   0  0  0  0  0  0  0  0  0  0  0  0
  146.6486  134.7750  159.6353 H   0  0  0  0  0  0  0  0  0  0  0  0
  149.5770  138.8177  159.5996 H   0  0  0  0  0  0  0  0  0  0  0  0
  151.6163  137.1856  158.6807 H   0  0  0  0  0  0  0  0  0  0  0  0
  150.5495  137.3956  157.3164 H   0  0  0  0  0  0  0  0  0  0  0  0
  150.6858  139.9765  157.8926 H   0  0  0  0  0  0  0  0  0  0  0  0
  151.4309  138.8293  155.7567 H   0  0  0  0  0  0  0  0  0  0  0  0
  153.0190  138.6019  156.4733 H   0  0  0  0  0  0  0  0  0  0  0  0
  152.3886  140.2149  156.1362 H   0  0  0  0  0  0  0  0  0  0  0  0
  153.4012  137.8541  159.2553 H   0  0  0  0  0  0  0  0  0  0  0  0
  154.1590  138.8613  158.0410 H   0  0  0  0  0  0  0  0  0  0  0  0
  154.2106  139.2563  161.0757 H   0  0  0  0  0  0  0  0  0  0  0  0
  155.7287  137.4477  160.2769 H   0  0  0  0  0  0  0  0  0  0  0  0
  156.6434  138.8379  160.8528 H   0  0  0  0  0  0  0  0  0  0  0  0
  156.4597  138.5620  159.1225 H   0  0  0  0  0  0  0  0  0  0  0  0
  154.3512  142.5444  159.4029 H   0  0  0  0  0  0  0  0  0  0  0  0
  152.5713  142.6767  161.0807 H   0  0  0  0  0  0  0  0  0  0  0  0
  154.0894  142.2299  161.8505 H   0  0  0  0  0  0  0  0  0  0  0  0
  152.8422  141.0146  161.5759 H   0  0  0  0  0  0  0  0  0  0  0  0
  153.3387  141.1989  157.7345 H   0  0  0  0  0  0  0  0  0  0  0  0
  152.0652  141.7949  158.7721 H   0  0  0  0  0  0  0  0  0  0  0  0
  1  2  1  0  0  0  0
  1 22  1  0  0  0  0
  1 23  1  0  0  0  0
  1 24  1  0  0  0  0
  2 21  1  0  0  0  0
  2  3  2  0  0  0  0
  3  4  1  0  0  0  0
  3 25  1  0  0  0  0
  4  5  1  0  0  0  0
  4 20  2  0  0  0  0
  5  6  1  0  0  0  0
  6  7  2  0  0  0  0
  6  8  1  0  0  0  0
  8  9  1  0  0  0  0
  8 26  1  0  0  0  0
  9 10  1  0  0  0  0
  9 27  1  0  0  0  0
  9 28  1  0  0  0  0
 10 11  1  0  0  0  0
 10 12  1  0  0  0  0
 10 29  1  0  0  0  0
 11 30  1  0  0  0  0
 11 31  1  0  0  0  0
 11 32  1  0  0  0  0
 12 19  1  0  0  0  0
 12 13  1  0  0  0  0
 13 14  1  0  0  0  0
 13 33  1  0  0  0  0
 13 34  1  0  0  0  0
 14 15  1  0  0  0  0
 14 16  1  0  0  0  0
 14 35  1  0  0  0  0
 15 36  1  0  0  0  0
 15 37  1  0  0  0  0
 15 38  1  0  0  0  0
 16 17  1  0  0  0  0
 17 18  1  0  0  0  0
 17 19  1  0  0  0  0
 17 39  1  0  0  0  0
 18 40  1  0  0  0  0
 18 41  1  0  0  0  0
 18 42  1  0  0  0  0
 19 43  1  0  0  0  0
 19 44  1  0  0  0  0
 20 21  1  0  0  0  0
M  CHG  1   5  -1
M  END
> <s_m_source_file>
AV-unprocessed.smi

> <i_m_source_file_index>
2061

> <i_lp_mmshare_version>
43012

> <i_f3d_flags>
0

> <s_epik_input>
W0NIM11jMVtjSF1jKG5vMSlbTkhdQyg9TylbTkhdW0NIMl1bQ0BIXShbQ0gzXSlOMltDSDJdW0NAQEhdKFtDSDNdKU9bQ0BASF0oW0NIM10pW0NIMl0y

> <s_epik_cmdline>
J2VwaWtfcHl0aG9uJywgJy1waCcsICc3LjAnLCAnLXRuJywgJzgnLCAnLW1hJywgJzIwMCcsICctbWV0YWxfYmluZGluZycsICctaW1hZScsICc8aW5maWxlLm1hZT4nLCAnLW9tYWUnLCAnPG91dGZpbGUubWFlPic=

> <r_epik_Ionization_Penalty>
6.88367

> <r_epik_Ionization_Penalty_Charging>
6.57198

> <r_epik_Ionization_Penalty_Neutral>
0.311681

> <r_epik_State_Penalty>
6.77619

> <r_epik_Charging_Adjusted_Penalty>
13.3482

> <i_epik_Tot_Q>
-1

> <i_epik_Tot_abs_Q>
1

> <r_epik_Metal_State_Penalty>
2.70524

> <b_epik_Metal_Only>
1

> <s_lp_Force_Field>
OPLS_2005

> <r_lp_Energy>
23.679

> <b_lp_Chiralities_Consistent>
1

> <s_lp_Variant>
AV-unprocessed.smi:2061-19

> <Gold.Version>
5.8.1

> <Gold.Id.Protein>
6NUR|6NUR_protein|mol2

> <Gold.PLP.Fitness>
43.1474

> <Gold.PLP.PLP>
-33.0287

> <Gold.PLP.part.hbond>
-3.0829

> <Gold.PLP.part.metal>
0.0000

> <Gold.PLP.part.buried>
-6.4469

> <Gold.PLP.part.nonpolar>
-25.4868

> <Gold.PLP.part.repulsive>
1.6288

> <Gold.PLP.ligand.clash>
0.0000

> <Gold.PLP.ligand.torsion>
0.9636

> <Gold.PLP.Chemscore.Hbond>
3.9715

> <Gold.PLP.Chemscore.CHOScore>
0.0000

> <Gold.PLP.Chemscore.Metal>
0.0000

> <Gold.Chemscore.Hbonds>
donor molecule, donor type, donor heavy atom, donor atom, acceptor molecule, acceptor atom, score
      P1  H  6896  6907       L1     7  0.99
      P1  H  6931  6943       L1     5  1.11
      P1  H  6934  6947       L1     5  1.49

> <Gold.PLP.Chemscore.Internal.Correction>
0.1314

> <Gold.Rescore>
     Score         DG    S(hbond)    S(metal)    S(lipo)     H(rot)  DE(clash)    DE(int)     intcor
     13.66     -16.56       1.75        0.00      78.06       1.52       0.92       1.98       ----

> <Gold.Chemscore.Fitness>
13.6581

> <Gold.Chemscore.DG>
-16.5604

> <Gold.Chemscore.ZeroCoef>
-5.4800

> <Gold.Chemscore.Hbond>
1.7472

> <Gold.Chemscore.Metal>
0.0000

> <Gold.Chemscore.Lipo>
78.0631

> <Gold.Chemscore.Internal_Hbond>
0.0000

> <Gold.Chemscore.DEClash>
0.9229

> <Gold.Chemscore.DEInternal>
1.9793

> <Gold.Chemscore.Rot>
1.5190

> <Gold.Chemscore.Internal.Correction>
   9.000000E+99

> <Gold.Chemscore.Hbonds>
donor molecule, donor type, donor heavy atom, donor atom, acceptor molecule, acceptor atom, score
      P1  H  6896  6907       L1     7  0.86
      P1  H  6931  6943       L1     5  0.06
      P1  H  6934  6947       L1     5  0.46

> <Gold.Chemscore.Hbond.Weighted>
-5.8356

> <Gold.Chemscore.Metal.Weighted>
-0.0000

> <Gold.Chemscore.Lipo.Weighted>
-9.1334

> <Gold.Chemscore.Internal_Hbond.Weighted>
0.0000

> <Gold.Chemscore.DEClash.Weighted>
0.9229

> <Gold.Chemscore.DEInternal.Weighted>
1.9793

> <Gold.Chemscore.Rot.Weighted>
3.8886

> <Gold.Chemscore.Internal.Correction.Weighted>
   9.000000E+99

> <Gold.Protein.RotatedTorsions>
[ 6907 6896 6895 6894 ] final  -57.26 input  -60.11 | X-H torsion
[ 7974 7965 7964 7962 ] final  -32.96 input  175.53 | X-H torsion
[ 8008 7997 7996 7995 ] final -116.55 input   59.86 | X-H torsion
[ 10167 10162 10161 10158 ] final -145.67 input  -65.29 | X-H torsion
[ 10718 10713 10712 10709 ] final  -50.10 input   66.30 | X-H torsion
[ 10763 10752 10751 10750 ] final  -17.52 input  -60.55 | X-H torsion
[ 11005 11000 10999 10996 ] final -144.34 input  -57.11 | X-H torsion

> <Gold.Protein.ActiveResidues>
 VAL166  LYS551  ARG553  GLY616  TRP617  ASP618  TYR619  PRO620  LYS621  CYS622 
 ASP623  PHE694  ASN695  SER759  ASP760  ASP761  ALA762  ILE779  LEU786  VAL792 
 PHE793  MET794  SER795  GLU796  ALA797  LYS798  CYS799  TRP800  GLU811  SER814 

> <Gold.Protein.RotatedAtoms>
  150.8101  134.7250  159.6679 H   0  0  0  0  0  0  0  0  0  0  0  0  # atno 6907 bound_to 6896
  152.4220  134.5934  159.9990 H   0  0  0  0  0  0  0  0  0  0  0  0  # atno 6908 bound_to 6896
  151.6146  133.3307  159.3111 H   0  0  0  0  0  0  0  0  0  0  0  0  # atno 6909 bound_to 6896
  146.0949  140.5857  142.8847 H   0  0  0  0  0  0  0  0  0  0  0  0  # atno 7974 bound_to 7965
  155.0697  140.0393  157.2604 H   0  0  0  0  0  0  0  0  0  0  0  0  # atno 8008 bound_to 7997
  154.6993  140.2670  155.6711 H   0  0  0  0  0  0  0  0  0  0  0  0  # atno 8009 bound_to 7997
  156.2755  140.2744  156.1598 H   0  0  0  0  0  0  0  0  0  0  0  0  # atno 8010 bound_to 7997
  139.7784  143.8136  152.2635 H   0  0  0  0  0  0  0  0  0  0  0  0  # atno 10167 bound_to 10162
  156.1832  130.4151  149.9477 H   0  0  0  0  0  0  0  0  0  0  0  0  # atno 10718 bound_to 10713
  153.5751  135.7006  153.5487 H   0  0  0  0  0  0  0  0  0  0  0  0  # atno 10763 bound_to 10752
  153.3310  135.4047  155.1495 H   0  0  0  0  0  0  0  0  0  0  0  0  # atno 10764 bound_to 10752
  154.8627  135.3719  154.5276 H   0  0  0  0  0  0  0  0  0  0  0  0  # atno 10765 bound_to 10752
  140.8034  134.2830  157.4970 H   0  0  0  0  0  0  0  0  0  0  0  0  # atno 11005 bound_to 11000
  144.7387  140.4882  143.6885 LP  0  0  0  0  0  0  0  0  0  0  0  0  # atno 17320 bound_to 7965
  145.5968  139.1500  143.3151 LP  0  0  0  0  0  0  0  0  0  0  0  0  # atno 17321 bound_to 7965
  139.8191  144.7303  150.9595 LP  0  0  0  0  0  0  0  0  0  0  0  0  # atno 17342 bound_to 10162
  140.7817  143.4176  151.0893 LP  0  0  0  0  0  0  0  0  0  0  0  0  # atno 17343 bound_to 10162
  156.7241  130.9018  151.3620 LP  0  0  0  0  0  0  0  0  0  0  0  0  # atno 17370 bound_to 10713
  157.6882  130.9206  150.0442 LP  0  0  0  0  0  0  0  0  0  0  0  0  # atno 17371 bound_to 10713
  139.8720  134.9442  156.3875 LP  0  0  0  0  0  0  0  0  0  0  0  0  # atno 17394 bound_to 11000
  140.9272  133.7604  155.9979 LP  0  0  0  0  0  0  0  0  0  0  0  0  # atno 17395 bound_to 11000

$$$$
