AV-unprocessed.smi:2355|AV-procd|sdf|9390|dock10
  -GOLD-   2272013 23D 1   1.00000     0.00000
 Structure written by MMmdl.
 49 50  0  0  0  0  0  0  0  0  2 V2000
  151.0178  145.2543  160.1171 C   0  0  0  0  0  0  0  0  0  0  0  0
  151.6913  144.1140  159.3833 C   0  0  0  0  0  0  0  0  0  0  0  0
  153.0513  143.8270  159.6056 C   0  0  0  0  0  0  0  0  0  0  0  0
  153.6306  142.7579  158.8951 C   0  0  0  0  0  0  0  0  0  0  0  0
  155.0877  142.3944  159.0881 C   0  0  0  0  0  0  0  0  0  0  0  0
  152.9421  141.9994  158.0156 N   0  0  0  0  0  0  0  0  0  0  0  0
  151.6307  142.2651  157.7952 C   0  0  0  0  0  0  0  0  0  0  0  0
  150.8246  141.5342  156.8827 N   0  0  0  0  0  0  0  0  0  0  0  0
  151.1836  140.4883  156.1186 C   0  0  0  0  0  0  0  0  0  0  0  0
  152.2731  139.9170  156.1618 O   0  0  0  0  0  0  0  0  0  0  0  0
  150.1991  140.1386  155.2765 N   0  0  0  0  0  0  0  0  0  0  0  0
  150.2388  139.0422  154.3044 C   0  0  1  0  0  0  0  0  0  0  0  0
  151.5521  139.1621  153.5130 C   0  0  0  0  0  0  0  0  0  0  0  0
  150.0729  137.6625  155.0053 C   0  0  2  0  0  0  0  0  0  0  0  0
  151.2887  136.7307  154.8109 C   0  0  0  0  0  0  0  0  0  0  0  0
  148.7871  137.0068  154.6206 N   0  3  0  0  0  0  0  0  0  0  0  0
  148.4892  135.7199  155.2987 C   0  0  0  0  0  0  0  0  0  0  0  0
  147.2549  135.0688  154.6545 C   0  0  0  0  0  0  0  0  0  0  0  0
  146.1508  135.9623  154.7454 O   0  0  0  0  0  0  0  0  0  0  0  0
  146.3879  137.1822  154.0514 C   0  0  0  0  0  0  0  0  0  0  0  0
  147.6063  137.9014  154.6570 C   0  0  0  0  0  0  0  0  0  0  0  0
  150.9739  143.3229  158.4627 C   0  0  0  0  0  0  0  0  0  0  0  0
  151.3329  145.2767  161.1607 H   0  0  0  0  0  0  0  0  0  0  0  0
  149.9325  145.1511  160.0932 H   0  0  0  0  0  0  0  0  0  0  0  0
  151.2830  146.2062  159.6569 H   0  0  0  0  0  0  0  0  0  0  0  0
  153.6336  144.4120  160.3026 H   0  0  0  0  0  0  0  0  0  0  0  0
  155.6324  143.2021  159.5777 H   0  0  0  0  0  0  0  0  0  0  0  0
  155.5653  142.1981  158.1278 H   0  0  0  0  0  0  0  0  0  0  0  0
  155.1736  141.4996  159.7051 H   0  0  0  0  0  0  0  0  0  0  0  0
  149.8777  141.8676  156.7780 H   0  0  0  0  0  0  0  0  0  0  0  0
  149.3392  140.6664  155.3187 H   0  0  0  0  0  0  0  0  0  0  0  0
  149.4258  139.1744  153.5886 H   0  0  0  0  0  0  0  0  0  0  0  0
  151.5879  138.4595  152.6808 H   0  0  0  0  0  0  0  0  0  0  0  0
  152.4189  138.9752  154.1479 H   0  0  0  0  0  0  0  0  0  0  0  0
  151.6623  140.1603  153.0876 H   0  0  0  0  0  0  0  0  0  0  0  0
  150.0067  137.8753  156.0734 H   0  0  0  0  0  0  0  0  0  0  0  0
  152.1814  137.1378  155.2846 H   0  0  0  0  0  0  0  0  0  0  0  0
  151.5194  136.5813  153.7559 H   0  0  0  0  0  0  0  0  0  0  0  0
  151.1181  135.7517  155.2586 H   0  0  0  0  0  0  0  0  0  0  0  0
  149.3415  135.0447  155.2274 H   0  0  0  0  0  0  0  0  0  0  0  0
  148.2973  135.8846  156.3596 H   0  0  0  0  0  0  0  0  0  0  0  0
  147.4476  134.8103  153.6119 H   0  0  0  0  0  0  0  0  0  0  0  0
  147.0049  134.1427  155.1721 H   0  0  0  0  0  0  0  0  0  0  0  0
  146.5431  136.9832  152.9897 H   0  0  0  0  0  0  0  0  0  0  0  0
  145.5016  137.8120  154.1307 H   0  0  0  0  0  0  0  0  0  0  0  0
  147.3946  138.1985  155.6848 H   0  0  0  0  0  0  0  0  0  0  0  0
  147.8070  138.8122  154.0919 H   0  0  0  0  0  0  0  0  0  0  0  0
  149.9296  143.5260  158.2731 H   0  0  0  0  0  0  0  0  0  0  0  0
  148.9043  136.7742  153.6445 H   0  0  0  0  0  0  0  0  0  0  0  0
  1  2  1  0  0  0  0
  1 23  1  0  0  0  0
  1 24  1  0  0  0  0
  1 25  1  0  0  0  0
  2 22  1  0  0  0  0
  2  3  2  0  0  0  0
  3  4  1  0  0  0  0
  3 26  1  0  0  0  0
  4  5  1  0  0  0  0
  4  6  2  0  0  0  0
  5 27  1  0  0  0  0
  5 28  1  0  0  0  0
  5 29  1  0  0  0  0
  6  7  1  0  0  0  0
  7  8  1  0  0  0  0
  7 22  2  0  0  0  0
  8  9  1  0  0  0  0
  8 30  1  0  0  0  0
  9 10  2  0  0  0  0
  9 11  1  0  0  0  0
 11 12  1  0  0  0  0
 11 31  1  0  0  0  0
 12 13  1  0  0  0  0
 12 14  1  0  0  0  0
 12 32  1  0  0  0  0
 13 33  1  0  0  0  0
 13 34  1  0  0  0  0
 13 35  1  0  0  0  0
 14 15  1  0  0  0  0
 14 16  1  0  0  0  0
 14 36  1  0  0  0  0
 15 37  1  0  0  0  0
 15 38  1  0  0  0  0
 15 39  1  0  0  0  0
 16 21  1  0  0  0  0
 16 17  1  0  0  0  0
 16 49  1  0  0  0  0
 17 18  1  0  0  0  0
 17 40  1  0  0  0  0
 17 41  1  0  0  0  0
 18 19  1  0  0  0  0
 18 42  1  0  0  0  0
 18 43  1  0  0  0  0
 19 20  1  0  0  0  0
 20 21  1  0  0  0  0
 20 44  1  0  0  0  0
 20 45  1  0  0  0  0
 21 46  1  0  0  0  0
 21 47  1  0  0  0  0
 22 48  1  0  0  0  0
M  CHG  1  16   1
M  END
> <s_m_source_file>
AV-unprocessed.smi

> <i_m_source_file_index>
2355

> <i_lp_mmshare_version>
43012

> <i_f3d_flags>
0

> <s_epik_input>
W0NIM11jMVtjSF1jKFtDSDNdKW5jKFtjSF0xKVtOSF1DKD1PKVtOSF1bQ0BIXShbQ0gzXSlbQ0BIXShbQ0gzXSlOMltDSDJdW0NIMl1PW0NIMl1bQ0gyXTI=

> <s_epik_cmdline>
J2VwaWtfcHl0aG9uJywgJy1waCcsICc3LjAnLCAnLXRuJywgJzgnLCAnLW1hJywgJzIwMCcsICctbWV0YWxfYmluZGluZycsICctaW1hZScsICc8aW5maWxlLm1hZT4nLCAnLW9tYWUnLCAnPG91dGZpbGUubWFlPic=

> <r_epik_Ionization_Penalty>
0.602711

> <r_epik_Ionization_Penalty_Charging>
0.602531

> <r_epik_Ionization_Penalty_Neutral>
0.000180055

> <r_epik_State_Penalty>
0.617039

> <r_epik_Charging_Adjusted_Penalty>
1.21957

> <i_epik_Tot_Q>
1

> <i_epik_Tot_abs_Q>
1

> <r_epik_Metal_State_Penalty>
0.617075

> <b_epik_Metal_Only>
0

> <s_lp_Force_Field>
OPLS_2005

> <r_lp_Energy>
26.6532

> <b_lp_Chiralities_Consistent>
1

> <s_lp_Variant>
AV-unprocessed.smi:2355-6

> <Gold.Version>
5.8.1

> <Gold.Id.Protein>
6NUR|6NUR_protein|mol2

> <Gold.PLP.Fitness>
46.1143

> <Gold.PLP.PLP>
-43.3869

> <Gold.PLP.part.hbond>
-1.0000

> <Gold.PLP.part.metal>
0.0000

> <Gold.PLP.part.buried>
-5.7137

> <Gold.PLP.part.nonpolar>
-37.9654

> <Gold.PLP.part.repulsive>
0.6908

> <Gold.PLP.ligand.clash>
0.0000

> <Gold.PLP.ligand.torsion>
1.7036

> <Gold.PLP.Chemscore.Hbond>
2.0000

> <Gold.PLP.Chemscore.CHOScore>
0.0000

> <Gold.PLP.Chemscore.Metal>
0.0000

> <Gold.Chemscore.Hbonds>
donor molecule, donor type, donor heavy atom, donor atom, acceptor molecule, acceptor atom, score
      L1  H    16    49       P1  7948  2.00

> <Gold.PLP.Chemscore.Internal.Correction>
0.1347

> <Gold.Rescore>
     Score         DG    S(hbond)    S(metal)    S(lipo)     H(rot)  DE(clash)    DE(int)     intcor
     13.91     -17.56       1.00        0.00     106.33       1.45       0.12       3.53       ----

> <Gold.Chemscore.Fitness>
13.9092

> <Gold.Chemscore.DG>
-17.5577

> <Gold.Chemscore.ZeroCoef>
-5.4800

> <Gold.Chemscore.Hbond>
0.9999

> <Gold.Chemscore.Metal>
0.0000

> <Gold.Chemscore.Lipo>
106.3261

> <Gold.Chemscore.Internal_Hbond>
0.0000

> <Gold.Chemscore.DEClash>
0.1161

> <Gold.Chemscore.DEInternal>
3.5324

> <Gold.Chemscore.Rot>
1.4462

> <Gold.Chemscore.Internal.Correction>
   9.000000E+99

> <Gold.Chemscore.Hbonds>
donor molecule, donor type, donor heavy atom, donor atom, acceptor molecule, acceptor atom, score
      L1  H    16    49       P1  7948  1.00

> <Gold.Chemscore.Hbond.Weighted>
-3.3398

> <Gold.Chemscore.Metal.Weighted>
-0.0000

> <Gold.Chemscore.Lipo.Weighted>
-12.4401

> <Gold.Chemscore.Internal_Hbond.Weighted>
0.0000

> <Gold.Chemscore.DEClash.Weighted>
0.1161

> <Gold.Chemscore.DEInternal.Weighted>
3.5324

> <Gold.Chemscore.Rot.Weighted>
3.7023

> <Gold.Chemscore.Internal.Correction.Weighted>
   9.000000E+99

> <Gold.Protein.RotatedTorsions>
[ 6907 6896 6895 6894 ] final -155.70 input  -60.11 | X-H torsion
[ 7974 7965 7964 7962 ] final   88.41 input  175.53 | X-H torsion
[ 8008 7997 7996 7995 ] final   20.56 input   59.86 | X-H torsion
[ 10167 10162 10161 10158 ] final   19.09 input  -65.29 | X-H torsion
[ 10718 10713 10712 10709 ] final  127.33 input   66.30 | X-H torsion
[ 10763 10752 10751 10750 ] final  -37.04 input  -60.55 | X-H torsion
[ 11005 11000 10999 10996 ] final  114.29 input  -57.11 | X-H torsion

> <Gold.Protein.ActiveResidues>
 VAL166  LYS551  ARG553  GLY616  TRP617  ASP618  TYR619  PRO620  LYS621  CYS622 
 ASP623  PHE694  ASN695  SER759  ASP760  ASP761  ALA762  ILE779  LEU786  VAL792 
 PHE793  MET794  SER795  GLU796  ALA797  LYS798  CYS799  TRP800  GLU811  SER814 

> <Gold.Protein.RotatedAtoms>
  151.2764  133.4230  159.2624 H   0  0  0  0  0  0  0  0  0  0  0  0  # atno 6907 bound_to 6896
  151.0399  134.9600  159.8166 H   0  0  0  0  0  0  0  0  0  0  0  0  # atno 6908 bound_to 6896
  152.5363  134.2723  159.9028 H   0  0  0  0  0  0  0  0  0  0  0  0  # atno 6909 bound_to 6896
  145.5460  139.2292  143.2539 H   0  0  0  0  0  0  0  0  0  0  0  0  # atno 7974 bound_to 7965
  154.9374  140.3048  155.5137 H   0  0  0  0  0  0  0  0  0  0  0  0  # atno 8008 bound_to 7997
  156.2999  140.2342  156.4377 H   0  0  0  0  0  0  0  0  0  0  0  0  # atno 8009 bound_to 7997
  154.8178  140.0425  157.1378 H   0  0  0  0  0  0  0  0  0  0  0  0  # atno 8010 bound_to 7997
  140.5605  143.9346  150.6639 H   0  0  0  0  0  0  0  0  0  0  0  0  # atno 10167 bound_to 10162
  157.5342  131.1098  150.8961 H   0  0  0  0  0  0  0  0  0  0  0  0  # atno 10718 bound_to 10713
  153.8898  135.6813  153.4761 H   0  0  0  0  0  0  0  0  0  0  0  0  # atno 10763 bound_to 10752
  153.1187  135.4749  154.9157 H   0  0  0  0  0  0  0  0  0  0  0  0  # atno 10764 bound_to 10752
  154.7628  135.3215  154.8298 H   0  0  0  0  0  0  0  0  0  0  0  0  # atno 10765 bound_to 10752
  139.8976  134.9565  156.6869 H   0  0  0  0  0  0  0  0  0  0  0  0  # atno 11005 bound_to 11000
  146.1949  140.6281  142.9129 LP  0  0  0  0  0  0  0  0  0  0  0  0  # atno 17320 bound_to 7965
  144.7553  140.5292  143.6773 LP  0  0  0  0  0  0  0  0  0  0  0  0  # atno 17321 bound_to 7965
  140.2795  143.3399  152.1164 LP  0  0  0  0  0  0  0  0  0  0  0  0  # atno 17342 bound_to 10162
  139.5068  144.6820  151.5984 LP  0  0  0  0  0  0  0  0  0  0  0  0  # atno 17343 bound_to 10162
  156.9534  130.5428  149.5283 LP  0  0  0  0  0  0  0  0  0  0  0  0  # atno 17370 bound_to 10713
  156.0446  130.5524  150.8850 LP  0  0  0  0  0  0  0  0  0  0  0  0  # atno 17371 bound_to 10713
  140.7255  133.9103  155.8176 LP  0  0  0  0  0  0  0  0  0  0  0  0  # atno 17394 bound_to 11000
  141.0194  134.0910  157.4137 LP  0  0  0  0  0  0  0  0  0  0  0  0  # atno 17395 bound_to 11000

$$$$
