AV-unprocessed.smi:1964|AV-procd|sdf|7931|dock6
  -GOLD-   2272010103D 1   1.00000     0.00000
 Structure written by MMmdl.
 46 48  0  0  0  0  0  0  0  0  1 V2000
  152.1079  143.5880  160.8145 C   0  0  0  0  0  0  0  0  0  0  0  0
  153.1551  142.4626  160.7255 C   0  0  1  0  0  0  0  0  0  0  0  0
  153.6641  142.0797  162.1299 C   0  0  0  0  0  0  0  0  0  0  0  0
  154.7254  140.9704  162.0718 C   0  0  0  0  0  0  0  0  0  0  0  0
  154.1915  139.7333  161.3369 C   0  0  0  0  0  0  0  0  0  0  0  0
  153.6942  140.0999  159.9313 C   0  0  0  0  0  0  0  0  0  0  0  0
  152.6250  141.2117  159.9813 C   0  0  2  0  0  0  0  0  0  0  0  0
  152.2114  141.5705  158.6286 N   0  0  0  0  0  0  0  0  0  0  0  0
  150.9457  141.7124  158.2006 C   0  0  0  0  0  0  0  0  0  0  0  0
  149.9705  141.5165  158.9246 O   0  0  0  0  0  0  0  0  0  0  0  0
  150.7206  142.1507  156.7425 C   0  0  0  0  0  0  0  0  0  0  0  0
  150.3592  141.0532  155.8147 N   0  0  0  0  0  0  0  0  0  0  0  0
  151.3306  140.0588  155.5320 C   0  0  0  0  0  0  0  0  0  0  0  0
  152.4469  140.0958  156.0517 O   0  0  0  0  0  0  0  0  0  0  0  0
  150.9081  139.0116  154.6051 C   0  0  0  0  0  0  0  0  0  0  0  0
  151.8727  138.0210  154.2582 C   0  0  0  0  0  0  0  0  0  0  0  0
  152.6427  137.2115  153.9565 N   0  0  0  0  0  0  0  0  0  0  0  0
  149.6564  138.9921  154.1030 C   0  0  0  0  0  0  0  0  0  0  0  0
  148.7088  139.9340  154.4394 N   0  0  0  0  0  0  0  0  0  0  0  0
  147.4246  139.9686  153.7990 C   0  0  0  0  0  0  0  0  0  0  0  0
  147.3296  139.9805  152.2855 C   0  0  0  0  0  0  0  0  0  0  0  0
  147.0006  141.2259  153.0710 C   0  0  0  0  0  0  0  0  0  0  0  0
  149.0526  141.0231  155.2691 C   0  0  0  0  0  0  0  0  0  0  0  0
  148.2406  141.9175  155.5181 O   0  0  0  0  0  0  0  0  0  0  0  0
  151.2120  143.2532  161.3380 H   0  0  0  0  0  0  0  0  0  0  0  0
  151.8052  143.9388  159.8277 H   0  0  0  0  0  0  0  0  0  0  0  0
  152.5047  144.4486  161.3535 H   0  0  0  0  0  0  0  0  0  0  0  0
  154.0048  142.8545  160.1637 H   0  0  0  0  0  0  0  0  0  0  0  0
  154.0834  142.9552  162.6265 H   0  0  0  0  0  0  0  0  0  0  0  0
  152.8271  141.7481  162.7462 H   0  0  0  0  0  0  0  0  0  0  0  0
  155.6167  141.3417  161.5647 H   0  0  0  0  0  0  0  0  0  0  0  0
  155.0345  140.6982  163.0813 H   0  0  0  0  0  0  0  0  0  0  0  0
  154.9712  138.9743  161.2694 H   0  0  0  0  0  0  0  0  0  0  0  0
  153.3756  139.2901  161.9094 H   0  0  0  0  0  0  0  0  0  0  0  0
  154.5385  140.4269  159.3224 H   0  0  0  0  0  0  0  0  0  0  0  0
  153.2923  139.2094  159.4467 H   0  0  0  0  0  0  0  0  0  0  0  0
  151.7551  140.8366  160.5243 H   0  0  0  0  0  0  0  0  0  0  0  0
  152.9512  141.7449  157.9642 H   0  0  0  0  0  0  0  0  0  0  0  0
  149.9593  142.9320  156.7398 H   0  0  0  0  0  0  0  0  0  0  0  0
  151.6196  142.6661  156.4005 H   0  0  0  0  0  0  0  0  0  0  0  0
  149.3803  138.2028  153.4184 H   0  0  0  0  0  0  0  0  0  0  0  0
  146.6322  139.4330  154.3190 H   0  0  0  0  0  0  0  0  0  0  0  0
  148.2545  139.9859  151.7114 H   0  0  0  0  0  0  0  0  0  0  0  0
  146.5035  139.4372  151.8316 H   0  0  0  0  0  0  0  0  0  0  0  0
  145.9538  141.5155  153.1384 H   0  0  0  0  0  0  0  0  0  0  0  0
  147.7086  142.0507  153.0145 H   0  0  0  0  0  0  0  0  0  0  0  0
  1  2  1  0  0  0  0
  1 25  1  0  0  0  0
  1 26  1  0  0  0  0
  1 27  1  0  0  0  0
  2  7  1  0  0  0  0
  2  3  1  0  0  0  0
  2 28  1  0  0  0  0
  3  4  1  0  0  0  0
  3 29  1  0  0  0  0
  3 30  1  0  0  0  0
  4  5  1  0  0  0  0
  4 31  1  0  0  0  0
  4 32  1  0  0  0  0
  5  6  1  0  0  0  0
  5 33  1  0  0  0  0
  5 34  1  0  0  0  0
  6  7  1  0  0  0  0
  6 35  1  0  0  0  0
  6 36  1  0  0  0  0
  7  8  1  0  0  0  0
  7 37  1  0  0  0  0
  8  9  1  0  0  0  0
  8 38  1  0  0  0  0
  9 10  2  0  0  0  0
  9 11  1  0  0  0  0
 11 12  1  0  0  0  0
 11 39  1  0  0  0  0
 11 40  1  0  0  0  0
 12 23  1  0  0  0  0
 12 13  1  0  0  0  0
 13 14  2  0  0  0  0
 13 15  1  0  0  0  0
 15 16  1  0  0  0  0
 15 18  2  0  0  0  0
 16 17  3  0  0  0  0
 18 19  1  0  0  0  0
 18 41  1  0  0  0  0
 19 20  1  0  0  0  0
 19 23  1  0  0  0  0
 20 22  1  0  0  0  0
 20 21  1  0  0  0  0
 20 42  1  0  0  0  0
 21 22  1  0  0  0  0
 21 43  1  0  0  0  0
 21 44  1  0  0  0  0
 22 45  1  0  0  0  0
 22 46  1  0  0  0  0
 23 24  2  0  0  0  0
M  END
> <s_m_source_file>
AV-unprocessed.smi

> <i_m_source_file_index>
1964

> <i_lp_mmshare_version>
43012

> <i_f3d_flags>
0

> <s_epik_input>
W0NIM11bQ0BASF0xW0NIMl1bQ0gyXVtDSDJdW0NIMl1bQ0BIXTFbTkhdQyg9TylbQ0gyXW4yYyg9TyljKEMjTilbY0hdbihjMj1PKVtDSF0zW0NIMl1bQ0gyXTM=

> <s_epik_cmdline>
J2VwaWtfcHl0aG9uJywgJy1waCcsICc3LjAnLCAnLXRuJywgJzgnLCAnLW1hJywgJzIwMCcsICctbWV0YWxfYmluZGluZycsICctaW1hZScsICc8aW5maWxlLm1hZT4nLCAnLW9tYWUnLCAnPG91dGZpbGUubWFlPic=

> <r_lp_tautomer_probability>
1

> <r_epik_Ionization_Penalty>
1.91372e-08

> <r_epik_Ionization_Penalty_Charging>
9.0283e-11

> <r_epik_Ionization_Penalty_Neutral>
1.90469e-08

> <r_epik_State_Penalty>
-0

> <r_epik_Charging_Adjusted_Penalty>
9.0283e-11

> <i_epik_Tot_Q>
0

> <i_epik_Tot_abs_Q>
0

> <r_epik_Metal_State_Penalty>
-0

> <b_epik_Metal_Only>
0

> <s_lp_Force_Field>
OPLS_2005

> <r_lp_Energy>
35.2183

> <b_lp_Chiralities_Consistent>
1

> <s_lp_Variant>
AV-unprocessed.smi:1964-4

> <Gold.Version>
5.8.1

> <Gold.Id.Protein>
6NUR|6NUR_protein|mol2

> <Gold.PLP.Fitness>
51.5516

> <Gold.PLP.PLP>
-44.2952

> <Gold.PLP.part.hbond>
-2.4436

> <Gold.PLP.part.metal>
0.0000

> <Gold.PLP.part.buried>
3.4383

> <Gold.PLP.part.nonpolar>
-46.4115

> <Gold.PLP.part.repulsive>
2.2329

> <Gold.PLP.ligand.clash>
0.0000

> <Gold.PLP.ligand.torsion>
0.5957

> <Gold.PLP.Chemscore.Hbond>
1.7360

> <Gold.PLP.Chemscore.CHOScore>
1.0156

> <Gold.PLP.Chemscore.Metal>
0.0000

> <Gold.Chemscore.Hbonds>
donor molecule, donor type, donor heavy atom, donor atom, acceptor molecule, acceptor atom, score
      P1  H  7997  8008       L1    14  1.00
      P1  H 10752 10765       L1    17  0.70
      L1  C    18    41       P1  7948  1.00
      L1  C    18    41       P1  7957  0.01

> <Gold.PLP.Chemscore.Internal.Correction>
0.1930

> <Gold.Rescore>
     Score         DG    S(hbond)    S(metal)    S(lipo)     H(rot)  DE(clash)    DE(int)     intcor
     15.53     -19.45       1.65        0.00     109.60       1.70       1.03       2.89       ----

> <Gold.Chemscore.Fitness>
15.5289

> <Gold.Chemscore.DG>
-19.4471

> <Gold.Chemscore.ZeroCoef>
-5.4800

> <Gold.Chemscore.Hbond>
1.6484

> <Gold.Chemscore.Metal>
0.0000

> <Gold.Chemscore.Lipo>
109.5991

> <Gold.Chemscore.Internal_Hbond>
0.0000

> <Gold.Chemscore.DEClash>
1.0268

> <Gold.Chemscore.DEInternal>
2.8914

> <Gold.Chemscore.Rot>
1.7038

> <Gold.Chemscore.Internal.Correction>
   9.000000E+99

> <Gold.Chemscore.Hbonds>
donor molecule, donor type, donor heavy atom, donor atom, acceptor molecule, acceptor atom, score
      P1  H  7997  8008       L1    14  0.99
      P1  H 10752 10765       L1    17  0.65

> <Gold.Chemscore.Hbond.Weighted>
-5.5057

> <Gold.Chemscore.Metal.Weighted>
-0.0000

> <Gold.Chemscore.Lipo.Weighted>
-12.8231

> <Gold.Chemscore.Internal_Hbond.Weighted>
0.0000

> <Gold.Chemscore.DEClash.Weighted>
1.0268

> <Gold.Chemscore.DEInternal.Weighted>
2.8914

> <Gold.Chemscore.Rot.Weighted>
4.3618

> <Gold.Chemscore.Internal.Correction.Weighted>
   9.000000E+99

> <Gold.Protein.RotatedTorsions>
[ 6907 6896 6895 6894 ] final   51.80 input  -60.11 | X-H torsion
[ 7974 7965 7964 7962 ] final  160.51 input  175.53 | X-H torsion
[ 8008 7997 7996 7995 ] final  -37.09 input   59.86 | X-H torsion
[ 10167 10162 10161 10158 ] final  -95.10 input  -65.29 | X-H torsion
[ 10718 10713 10712 10709 ] final  110.81 input   66.30 | X-H torsion
[ 10763 10752 10751 10750 ] final  143.44 input  -60.55 | X-H torsion
[ 11005 11000 10999 10996 ] final  142.74 input  -57.11 | X-H torsion

> <Gold.Protein.ActiveResidues>
 VAL166  LYS551  ARG553  GLY616  TRP617  ASP618  TYR619  PRO620  LYS621  CYS622 
 ASP623  PHE694  ASN695  SER759  ASP760  ASP761  ALA762  ILE779  LEU786  VAL792 
 PHE793  MET794  SER795  GLU796  ALA797  LYS798  CYS799  TRP800  GLU811  SER814 

> <Gold.Protein.RotatedAtoms>
  152.3165  134.7433  160.0323 H   0  0  0  0  0  0  0  0  0  0  0  0  # atno 6907 bound_to 6896
  151.7896  133.3352  159.3503 H   0  0  0  0  0  0  0  0  0  0  0  0  # atno 6908 bound_to 6896
  150.7347  134.5785  159.5971 H   0  0  0  0  0  0  0  0  0  0  0  0  # atno 6909 bound_to 6896
  144.7733  139.7767  143.6288 H   0  0  0  0  0  0  0  0  0  0  0  0  # atno 7974 bound_to 7965
  154.4060  140.1613  156.2480 H   0  0  0  0  0  0  0  0  0  0  0  0  # atno 8008 bound_to 7997
  155.9144  140.3425  155.6101 H   0  0  0  0  0  0  0  0  0  0  0  0  # atno 8009 bound_to 7997
  155.7297  140.0779  157.2285 H   0  0  0  0  0  0  0  0  0  0  0  0  # atno 8010 bound_to 7997
  140.3076  143.3124  152.0182 H   0  0  0  0  0  0  0  0  0  0  0  0  # atno 10167 bound_to 10162
  157.6476  131.0939  150.6657 H   0  0  0  0  0  0  0  0  0  0  0  0  # atno 10718 bound_to 10713
  153.9724  135.2949  155.3426 H   0  0  0  0  0  0  0  0  0  0  0  0  # atno 10763 bound_to 10752
  154.7315  135.5066  153.8974 H   0  0  0  0  0  0  0  0  0  0  0  0  # atno 10764 bound_to 10752
  153.0893  135.6703  153.9998 H   0  0  0  0  0  0  0  0  0  0  0  0  # atno 10765 bound_to 10752
  140.0500  134.9261  157.0999 H   0  0  0  0  0  0  0  0  0  0  0  0  # atno 11005 bound_to 11000
  146.1896  139.5129  142.9814 LP  0  0  0  0  0  0  0  0  0  0  0  0  # atno 17320 bound_to 7965
  145.6259  141.0313  143.1890 LP  0  0  0  0  0  0  0  0  0  0  0  0  # atno 17321 bound_to 7965
  139.4901  144.6409  151.6880 LP  0  0  0  0  0  0  0  0  0  0  0  0  # atno 17342 bound_to 10162
  140.5596  144.0290  150.6163 LP  0  0  0  0  0  0  0  0  0  0  0  0  # atno 17343 bound_to 10162
  156.6972  130.4612  149.5583 LP  0  0  0  0  0  0  0  0  0  0  0  0  # atno 17370 bound_to 10713
  156.1820  130.6505  151.0963 LP  0  0  0  0  0  0  0  0  0  0  0  0  # atno 17371 bound_to 10713
  140.3933  134.2161  155.7165 LP  0  0  0  0  0  0  0  0  0  0  0  0  # atno 17394 bound_to 11000
  141.1925  133.8170  157.0835 LP  0  0  0  0  0  0  0  0  0  0  0  0  # atno 17395 bound_to 11000

$$$$
