AV-unprocessed.smi:2215|AV-procd|sdf|8962|dock2
  -GOLD-   2272012183D 1   1.00000     0.00000
 Structure written by MMmdl.
 40 41  0  0  0  0  0  0  0  0  1 V2000
  153.1611  142.9864  162.0028 C   0  0  0  0  0  0  0  0  0  0  0  0
  152.4142  142.9267  160.6869 C   0  0  0  0  0  0  0  0  0  0  0  0
  151.8386  144.0800  160.1211 C   0  0  0  0  0  0  0  0  0  0  0  0
  151.1523  143.9648  158.8969 C   0  0  0  0  0  0  0  0  0  0  0  0
  151.0582  142.7031  158.2676 C   0  0  0  0  0  0  0  0  0  0  0  0
  150.3395  142.6956  157.0424 N   0  0  0  0  0  0  0  0  0  0  0  0
  150.0896  141.6537  156.2299 C   0  0  0  0  0  0  0  0  0  0  0  0
  150.4772  140.4988  156.4105 O   0  0  0  0  0  0  0  0  0  0  0  0
  149.3540  142.0296  155.1739 N   0  0  0  0  0  0  0  0  0  0  0  0
  148.9087  141.1447  154.1017 C   0  0  0  0  0  0  0  0  0  0  0  0
  147.8531  140.1180  154.5733 C   0  0  2  0  0  0  0  0  0  0  0  0
  148.4625  138.9410  155.3698 C   0  0  0  0  0  0  0  0  0  0  0  0
  147.3772  137.9689  155.8597 C   0  0  0  0  0  0  0  0  0  0  0  0
  146.5211  137.4481  154.6958 C   0  0  0  0  0  0  0  0  0  0  0  0
  145.9092  138.6074  153.8905 C   0  0  0  0  0  0  0  0  0  0  0  0
  146.9787  139.6042  153.4036 C   0  0  2  0  0  0  0  0  0  0  0  0
  147.7709  138.9840  152.4077 O   0  0  0  0  0  0  0  0  0  0  0  0
  151.6198  141.5982  158.8188 N   0  0  0  0  0  0  0  0  0  0  0  0
  152.2769  141.7093  159.9923 C   0  0  0  0  0  0  0  0  0  0  0  0
  153.0333  143.9553  162.4866 H   0  0  0  0  0  0  0  0  0  0  0  0
  154.2264  142.8228  161.8395 H   0  0  0  0  0  0  0  0  0  0  0  0
  152.7947  142.2166  162.6822 H   0  0  0  0  0  0  0  0  0  0  0  0
  151.9178  145.0381  160.6133 H   0  0  0  0  0  0  0  0  0  0  0  0
  150.7025  144.8395  158.4502 H   0  0  0  0  0  0  0  0  0  0  0  0
  149.9601  143.5862  156.7579 H   0  0  0  0  0  0  0  0  0  0  0  0
  149.0800  142.9988  155.1047 H   0  0  0  0  0  0  0  0  0  0  0  0
  148.5146  141.7407  153.2766 H   0  0  0  0  0  0  0  0  0  0  0  0
  149.7878  140.6300  153.7135 H   0  0  0  0  0  0  0  0  0  0  0  0
  147.1795  140.6438  155.2522 H   0  0  0  0  0  0  0  0  0  0  0  0
  149.1836  138.4055  154.7512 H   0  0  0  0  0  0  0  0  0  0  0  0
  149.0162  139.3124  156.2324 H   0  0  0  0  0  0  0  0  0  0  0  0
  147.8383  137.1320  156.3849 H   0  0  0  0  0  0  0  0  0  0  0  0
  146.7375  138.4733  156.5852 H   0  0  0  0  0  0  0  0  0  0  0  0
  147.1326  136.8252  154.0420 H   0  0  0  0  0  0  0  0  0  0  0  0
  145.7286  136.8044  155.0782 H   0  0  0  0  0  0  0  0  0  0  0  0
  145.3411  138.2179  153.0448 H   0  0  0  0  0  0  0  0  0  0  0  0
  145.1914  139.1355  154.5195 H   0  0  0  0  0  0  0  0  0  0  0  0
  146.4785  140.4510  152.9322 H   0  0  0  0  0  0  0  0  0  0  0  0
  148.4928  139.5577  152.2012 H   0  0  0  0  0  0  0  0  0  0  0  0
  152.7037  140.7994  160.3880 H   0  0  0  0  0  0  0  0  0  0  0  0
  1  2  1  0  0  0  0
  1 20  1  0  0  0  0
  1 21  1  0  0  0  0
  1 22  1  0  0  0  0
  2 19  1  0  0  0  0
  2  3  2  0  0  0  0
  3  4  1  0  0  0  0
  3 23  1  0  0  0  0
  4  5  2  0  0  0  0
  4 24  1  0  0  0  0
  5  6  1  0  0  0  0
  5 18  1  0  0  0  0
  6  7  1  0  0  0  0
  6 25  1  0  0  0  0
  7  8  2  0  0  0  0
  7  9  1  0  0  0  0
  9 10  1  0  0  0  0
  9 26  1  0  0  0  0
 10 11  1  0  0  0  0
 10 27  1  0  0  0  0
 10 28  1  0  0  0  0
 11 16  1  0  0  0  0
 11 12  1  0  0  0  0
 11 29  1  0  0  0  0
 12 13  1  0  0  0  0
 12 30  1  0  0  0  0
 12 31  1  0  0  0  0
 13 14  1  0  0  0  0
 13 32  1  0  0  0  0
 13 33  1  0  0  0  0
 14 15  1  0  0  0  0
 14 34  1  0  0  0  0
 14 35  1  0  0  0  0
 15 16  1  0  0  0  0
 15 36  1  0  0  0  0
 15 37  1  0  0  0  0
 16 17  1  0  0  0  0
 16 38  1  0  0  0  0
 17 39  1  0  0  0  0
 18 19  2  0  0  0  0
 19 40  1  0  0  0  0
M  END
> <s_m_source_file>
AV-unprocessed.smi

> <i_m_source_file_index>
2215

> <i_lp_mmshare_version>
43012

> <i_f3d_flags>
0

> <s_epik_input>
W0NIM11jMVtjSF1bY0hdYyhuW2NIXTEpW05IXUMoPU8pW05IXVtDSDJdW0NAQEhdMltDSDJdW0NIMl1bQ0gyXVtDSDJdW0NASF0yW09IXQ==

> <s_epik_cmdline>
J2VwaWtfcHl0aG9uJywgJy1waCcsICc3LjAnLCAnLXRuJywgJzgnLCAnLW1hJywgJzIwMCcsICctbWV0YWxfYmluZGluZycsICctaW1hZScsICc8aW5maWxlLm1hZT4nLCAnLW9tYWUnLCAnPG91dGZpbGUubWFlPic=

> <r_lp_tautomer_probability>
1

> <r_epik_Ionization_Penalty>
6.08491e-05

> <r_epik_Ionization_Penalty_Charging>
0

> <r_epik_Ionization_Penalty_Neutral>
6.08491e-05

> <r_epik_State_Penalty>
-0

> <r_epik_Charging_Adjusted_Penalty>
0

> <i_epik_Tot_Q>
0

> <i_epik_Tot_abs_Q>
0

> <r_epik_Metal_State_Penalty>
-0

> <b_epik_Metal_Only>
0

> <s_lp_Force_Field>
OPLS_2005

> <r_lp_Energy>
16.4092

> <b_lp_Chiralities_Consistent>
1

> <s_lp_Variant>
AV-unprocessed.smi:2215-3

> <Gold.Version>
5.8.1

> <Gold.Id.Protein>
6NUR|6NUR_protein|mol2

> <Gold.PLP.Fitness>
41.9539

> <Gold.PLP.PLP>
-33.5736

> <Gold.PLP.part.hbond>
-3.5084

> <Gold.PLP.part.metal>
0.0000

> <Gold.PLP.part.buried>
-5.6767

> <Gold.PLP.part.nonpolar>
-24.6114

> <Gold.PLP.part.repulsive>
0.2304

> <Gold.PLP.ligand.clash>
0.0000

> <Gold.PLP.ligand.torsion>
0.2324

> <Gold.PLP.Chemscore.Hbond>
2.9440

> <Gold.PLP.Chemscore.CHOScore>
0.0000

> <Gold.PLP.Chemscore.Metal>
0.0000

> <Gold.Chemscore.Hbonds>
donor molecule, donor type, donor heavy atom, donor atom, acceptor molecule, acceptor atom, score
      L1  H     6    25       P1  8028  1.00
      L1  H     9    26       P1  8028  1.00
      L1  H    17    39       P1  7957  0.96

> <Gold.PLP.Chemscore.Internal.Correction>
0.0130

> <Gold.Rescore>
     Score         DG    S(hbond)    S(metal)    S(lipo)     H(rot)  DE(clash)    DE(int)     intcor
     17.09     -20.35       2.91        0.00      81.79       1.73       0.26       3.00       ----

> <Gold.Chemscore.Fitness>
17.0866

> <Gold.Chemscore.DG>
-20.3450

> <Gold.Chemscore.ZeroCoef>
-5.4800

> <Gold.Chemscore.Hbond>
2.9144

> <Gold.Chemscore.Metal>
0.0000

> <Gold.Chemscore.Lipo>
81.7922

> <Gold.Chemscore.Internal_Hbond>
0.0000

> <Gold.Chemscore.DEClash>
0.2596

> <Gold.Chemscore.DEInternal>
2.9988

> <Gold.Chemscore.Rot>
1.7339

> <Gold.Chemscore.Internal.Correction>
   9.000000E+99

> <Gold.Chemscore.Hbonds>
donor molecule, donor type, donor heavy atom, donor atom, acceptor molecule, acceptor atom, score
      L1  H     6    25       P1  8028  0.98
      L1  H     9    26       P1  8028  0.99
      L1  H    17    39       P1  7957  0.90

> <Gold.Chemscore.Hbond.Weighted>
-9.7340

> <Gold.Chemscore.Metal.Weighted>
-0.0000

> <Gold.Chemscore.Lipo.Weighted>
-9.5697

> <Gold.Chemscore.Internal_Hbond.Weighted>
0.0000

> <Gold.Chemscore.DEClash.Weighted>
0.2596

> <Gold.Chemscore.DEInternal.Weighted>
2.9988

> <Gold.Chemscore.Rot.Weighted>
4.4387

> <Gold.Chemscore.Internal.Correction.Weighted>
   9.000000E+99

> <Gold.Protein.RotatedTorsions>
[ 6907 6896 6895 6894 ] final   52.16 input  -60.11 | X-H torsion
[ 7974 7965 7964 7962 ] final  174.33 input  175.53 | X-H torsion
[ 8008 7997 7996 7995 ] final   59.57 input   59.86 | X-H torsion
[ 10167 10162 10161 10158 ] final  173.47 input  -65.29 | X-H torsion
[ 10718 10713 10712 10709 ] final -137.00 input   66.30 | X-H torsion
[ 10763 10752 10751 10750 ] final    2.36 input  -60.55 | X-H torsion
[ 11005 11000 10999 10996 ] final  138.57 input  -57.11 | X-H torsion

> <Gold.Protein.ActiveResidues>
 VAL166  LYS551  ARG553  GLY616  TRP617  ASP618  TYR619  PRO620  LYS621  CYS622 
 ASP623  PHE694  ASN695  SER759  ASP760  ASP761  ALA762  ILE779  LEU786  VAL792 
 PHE793  MET794  SER795  GLU796  ALA797  LYS798  CYS799  TRP800  GLU811  SER814 

> <Gold.Protein.RotatedAtoms>
  152.3203  134.7388  160.0314 H   0  0  0  0  0  0  0  0  0  0  0  0  # atno 6907 bound_to 6896
  151.7839  133.3347  159.3487 H   0  0  0  0  0  0  0  0  0  0  0  0  # atno 6908 bound_to 6896
  150.7366  134.5837  159.5996 H   0  0  0  0  0  0  0  0  0  0  0  0  # atno 6909 bound_to 6896
  144.7224  139.9781  143.6438 H   0  0  0  0  0  0  0  0  0  0  0  0  # atno 7974 bound_to 7965
  155.5684  140.3489  155.4509 H   0  0  0  0  0  0  0  0  0  0  0  0  # atno 8008 bound_to 7997
  156.0463  140.1307  157.0126 H   0  0  0  0  0  0  0  0  0  0  0  0  # atno 8009 bound_to 7997
  154.4414  140.1014  156.6295 H   0  0  0  0  0  0  0  0  0  0  0  0  # atno 8010 bound_to 7997
  139.5109  144.3257  152.0160 H   0  0  0  0  0  0  0  0  0  0  0  0  # atno 10167 bound_to 10162
  156.2832  130.7333  151.1336 H   0  0  0  0  0  0  0  0  0  0  0  0  # atno 10718 bound_to 10713
  153.2965  135.6952  153.7243 H   0  0  0  0  0  0  0  0  0  0  0  0  # atno 10763 bound_to 10752
  153.6174  135.3433  155.3000 H   0  0  0  0  0  0  0  0  0  0  0  0  # atno 10764 bound_to 10752
  154.8539  135.4378  154.2063 H   0  0  0  0  0  0  0  0  0  0  0  0  # atno 10765 bound_to 10752
  140.0193  134.9404  157.0441 H   0  0  0  0  0  0  0  0  0  0  0  0  # atno 11005 bound_to 11000
  146.0510  139.3511  143.0640 LP  0  0  0  0  0  0  0  0  0  0  0  0  # atno 17320 bound_to 7965
  145.8215  140.9676  143.0896 LP  0  0  0  0  0  0  0  0  0  0  0  0  # atno 17321 bound_to 7965
  140.2697  144.3977  150.6155 LP  0  0  0  0  0  0  0  0  0  0  0  0  # atno 17342 bound_to 10162
  140.6097  143.2169  151.6910 LP  0  0  0  0  0  0  0  0  0  0  0  0  # atno 17343 bound_to 10162
  157.7321  131.0603  150.5646 LP  0  0  0  0  0  0  0  0  0  0  0  0  # atno 17370 bound_to 10713
  156.5754  130.4290  149.6000 LP  0  0  0  0  0  0  0  0  0  0  0  0  # atno 17371 bound_to 10713
  140.4415  134.1676  155.7174 LP  0  0  0  0  0  0  0  0  0  0  0  0  # atno 17394 bound_to 11000
  141.1763  133.8506  157.1408 LP  0  0  0  0  0  0  0  0  0  0  0  0  # atno 17395 bound_to 11000

$$$$
