AV-unprocessed.smi:3116|AV-procd|sdf|11868|dock1
  -GOLD-   2272017253D 1   1.00000     0.00000
 Structure written by MMmdl.
 34 34  0  0  0  0  0  0  0  0  2 V2000
  146.5707  138.7126  151.5651 C   0  0  0  0  0  0  0  0  0  0  0  0
  147.0558  138.8940  153.0154 C   0  0  2  0  0  0  0  0  0  0  0  0
  148.5332  138.8368  153.0938 N   0  3  0  0  0  0  0  0  0  0  0  0
  149.1281  139.0720  154.4301 C   0  0  1  0  0  0  0  0  0  0  0  0
  150.2118  138.0104  154.6898 C   0  0  0  0  0  0  0  0  0  0  0  0
  149.6131  140.5420  154.5453 C   0  0  1  0  0  0  0  0  0  0  0  0
  148.4774  141.5611  154.3263 C   0  0  0  0  0  0  0  0  0  0  0  0
  150.3489  140.8034  155.7804 N   0  0  0  0  0  0  0  0  0  0  0  0
  150.0943  141.7770  156.7255 C   0  0  0  0  0  0  0  0  0  0  0  0
  151.0538  141.6752  157.6911 C   0  0  0  0  0  0  0  0  0  0  0  0
  151.8691  140.5990  157.2445 C   0  0  0  0  0  0  0  0  0  0  0  0
  151.4500  140.0850  156.1000 N   0  0  0  0  0  0  0  0  0  0  0  0
  146.4332  137.8202  153.9159 C   0  0  0  0  0  0  0  0  0  0  0  0
  146.7701  136.5511  153.6712 N   0  0  0  0  0  0  0  0  0  0  0  0
  145.6692  138.1281  154.8294 O   0  0  0  0  0  0  0  0  0  0  0  0
  145.4817  138.7385  151.5050 H   0  0  0  0  0  0  0  0  0  0  0  0
  146.9023  137.7597  151.1499 H   0  0  0  0  0  0  0  0  0  0  0  0
  146.9443  139.5025  150.9138 H   0  0  0  0  0  0  0  0  0  0  0  0
  146.7332  139.8674  153.3895 H   0  0  0  0  0  0  0  0  0  0  0  0
  148.8206  137.9161  152.7937 H   0  0  0  0  0  0  0  0  0  0  0  0
  148.3560  138.9271  155.1870 H   0  0  0  0  0  0  0  0  0  0  0  0
  150.6819  138.1451  155.6635 H   0  0  0  0  0  0  0  0  0  0  0  0
  150.9954  138.0349  153.9324 H   0  0  0  0  0  0  0  0  0  0  0  0
  149.7813  137.0087  154.6762 H   0  0  0  0  0  0  0  0  0  0  0  0
  150.3186  140.7111  153.7300 H   0  0  0  0  0  0  0  0  0  0  0  0
  148.0042  141.4161  153.3550 H   0  0  0  0  0  0  0  0  0  0  0  0
  148.8594  142.5823  154.3525 H   0  0  0  0  0  0  0  0  0  0  0  0
  147.6993  141.4827  155.0854 H   0  0  0  0  0  0  0  0  0  0  0  0
  149.2593  142.4561  156.6342 H   0  0  0  0  0  0  0  0  0  0  0  0
  151.1582  142.2783  158.5809 H   0  0  0  0  0  0  0  0  0  0  0  0
  152.7482  140.1814  157.7126 H   0  0  0  0  0  0  0  0  0  0  0  0
  146.3848  135.8046  154.2320 H   0  0  0  0  0  0  0  0  0  0  0  0
  147.4097  136.3396  152.9183 H   0  0  0  0  0  0  0  0  0  0  0  0
  148.9126  139.5079  152.4416 H   0  0  0  0  0  0  0  0  0  0  0  0
  1  2  1  0  0  0  0
  1 16  1  0  0  0  0
  1 17  1  0  0  0  0
  1 18  1  0  0  0  0
  2  3  1  0  0  0  0
  2 13  1  0  0  0  0
  2 19  1  0  0  0  0
  3  4  1  0  0  0  0
  3 20  1  0  0  0  0
  3 34  1  0  0  0  0
  4  5  1  0  0  0  0
  4  6  1  0  0  0  0
  4 21  1  0  0  0  0
  5 22  1  0  0  0  0
  5 23  1  0  0  0  0
  5 24  1  0  0  0  0
  6  7  1  0  0  0  0
  6  8  1  0  0  0  0
  6 25  1  0  0  0  0
  7 26  1  0  0  0  0
  7 27  1  0  0  0  0
  7 28  1  0  0  0  0
  8 12  1  0  0  0  0
  8  9  1  0  0  0  0
  9 10  2  0  0  0  0
  9 29  1  0  0  0  0
 10 11  1  0  0  0  0
 10 30  1  0  0  0  0
 11 12  2  0  0  0  0
 11 31  1  0  0  0  0
 13 14  1  0  0  0  0
 13 15  2  0  0  0  0
 14 32  1  0  0  0  0
 14 33  1  0  0  0  0
M  CHG  1   3   1
M  END
> <s_m_source_file>
AV-unprocessed.smi

> <i_m_source_file_index>
3116

> <i_lp_mmshare_version>
43012

> <i_f3d_flags>
0

> <s_epik_input>
W05IMl1DKD1PKVtDQEhdKFtDSDNdKVtOSF1bQ0BIXShbQ0gzXSlbQ0BIXShbQ0gzXSluMVtjSF1bY0hdW2NIXW4x

> <s_epik_cmdline>
J2VwaWtfcHl0aG9uJywgJy1waCcsICc3LjAnLCAnLXRuJywgJzgnLCAnLW1hJywgJzIwMCcsICctbWV0YWxfYmluZGluZycsICctaW1hZScsICc8aW5maWxlLm1hZT4nLCAnLW9tYWUnLCAnPG91dGZpbGUubWFlPic=

> <r_lp_tautomer_probability>
1

> <r_epik_Ionization_Penalty>
0.15658

> <r_epik_Ionization_Penalty_Charging>
0.156568

> <r_epik_Ionization_Penalty_Neutral>
1.19778e-05

> <r_epik_State_Penalty>
0.145866

> <r_epik_Charging_Adjusted_Penalty>
0.302434

> <i_epik_Tot_Q>
1

> <i_epik_Tot_abs_Q>
1

> <r_epik_Metal_State_Penalty>
0.146064

> <b_epik_Metal_Only>
0

> <s_lp_Force_Field>
OPLS_2005

> <r_lp_Energy>
10.9082

> <b_lp_Chiralities_Consistent>
1

> <s_lp_Variant>
AV-unprocessed.smi:3116-7

> <Gold.Version>
5.8.1

> <Gold.Id.Protein>
6NUR|6NUR_protein|mol2

> <Gold.PLP.Fitness>
42.7851

> <Gold.PLP.PLP>
-28.8828

> <Gold.PLP.part.hbond>
-2.8618

> <Gold.PLP.part.metal>
0.0000

> <Gold.PLP.part.buried>
-2.7829

> <Gold.PLP.part.nonpolar>
-24.9199

> <Gold.PLP.part.repulsive>
0.1458

> <Gold.PLP.ligand.clash>
0.0000

> <Gold.PLP.ligand.torsion>
0.6894

> <Gold.PLP.Chemscore.Hbond>
4.0000

> <Gold.PLP.Chemscore.CHOScore>
1.0000

> <Gold.PLP.Chemscore.Metal>
0.0000

> <Gold.Chemscore.Hbonds>
donor molecule, donor type, donor heavy atom, donor atom, acceptor molecule, acceptor atom, score
      L1  H     3    20       P1  7948  2.00
      L1  H     3    34       P1  7957  1.00
      L1  H    14    33       P1  7948  1.00
      L1  C     9    29       P1  8028  1.00

> <Gold.PLP.Chemscore.Internal.Correction>
0.2811

> <Gold.Rescore>
     Score         DG    S(hbond)    S(metal)    S(lipo)     H(rot)  DE(clash)    DE(int)     intcor
     14.56     -16.69       2.97        0.00      64.61       2.45       0.06       2.07       ----

> <Gold.Chemscore.Fitness>
14.5621

> <Gold.Chemscore.DG>
-16.6910

> <Gold.Chemscore.ZeroCoef>
-5.4800

> <Gold.Chemscore.Hbond>
2.9683

> <Gold.Chemscore.Metal>
0.0000

> <Gold.Chemscore.Lipo>
64.6150

> <Gold.Chemscore.Internal_Hbond>
0.0000

> <Gold.Chemscore.DEClash>
0.0580

> <Gold.Chemscore.DEInternal>
2.0708

> <Gold.Chemscore.Rot>
2.4465

> <Gold.Chemscore.Internal.Correction>
   9.000000E+99

> <Gold.Chemscore.Hbonds>
donor molecule, donor type, donor heavy atom, donor atom, acceptor molecule, acceptor atom, score
      L1  H     3    20       P1  7948  1.00
      L1  H     3    34       P1  7957  0.94
      L1  H    14    33       P1  7948  1.00

> <Gold.Chemscore.Hbond.Weighted>
-9.9141

> <Gold.Chemscore.Metal.Weighted>
-0.0000

> <Gold.Chemscore.Lipo.Weighted>
-7.5599

> <Gold.Chemscore.Internal_Hbond.Weighted>
0.0000

> <Gold.Chemscore.DEClash.Weighted>
0.0580

> <Gold.Chemscore.DEInternal.Weighted>
2.0708

> <Gold.Chemscore.Rot.Weighted>
6.2631

> <Gold.Chemscore.Internal.Correction.Weighted>
   9.000000E+99

> <Gold.Protein.RotatedTorsions>
[ 6907 6896 6895 6894 ] final   63.56 input  -60.11 | X-H torsion
[ 7974 7965 7964 7962 ] final  -75.58 input  175.53 | X-H torsion
[ 8008 7997 7996 7995 ] final   57.08 input   59.86 | X-H torsion
[ 10167 10162 10161 10158 ] final  -57.91 input  -65.29 | X-H torsion
[ 10718 10713 10712 10709 ] final -116.35 input   66.30 | X-H torsion
[ 10763 10752 10751 10750 ] final  -14.02 input  -60.55 | X-H torsion
[ 11005 11000 10999 10996 ] final   17.52 input  -57.11 | X-H torsion

> <Gold.Protein.ActiveResidues>
 VAL166  LYS551  ARG553  GLY616  TRP617  ASP618  TYR619  PRO620  LYS621  CYS622 
 ASP623  PHE694  ASN695  SER759  ASP760  ASP761  ALA762  ILE779  LEU786  VAL792 
 PHE793  MET794  SER795  GLU796  ALA797  LYS798  CYS799  TRP800  GLU811  SER814 

> <Gold.Protein.RotatedAtoms>
  152.4263  134.5862  159.9961 H   0  0  0  0  0  0  0  0  0  0  0  0  # atno 6907 bound_to 6896
  151.5998  133.3352  159.3053 H   0  0  0  0  0  0  0  0  0  0  0  0  # atno 6908 bound_to 6896
  150.8153  134.7367  159.6789 H   0  0  0  0  0  0  0  0  0  0  0  0  # atno 6909 bound_to 6896
  145.6241  140.9355  143.1122 H   0  0  0  0  0  0  0  0  0  0  0  0  # atno 7974 bound_to 7965
  155.5279  140.3481  155.4420 H   0  0  0  0  0  0  0  0  0  0  0  0  # atno 8008 bound_to 7997
  156.0739  140.1370  156.9822 H   0  0  0  0  0  0  0  0  0  0  0  0  # atno 8009 bound_to 7997
  154.4543  140.0960  156.6685 H   0  0  0  0  0  0  0  0  0  0  0  0  # atno 8010 bound_to 7997
  140.6229  143.2427  151.5435 H   0  0  0  0  0  0  0  0  0  0  0  0  # atno 10167 bound_to 10162
  156.0958  130.6131  150.9024 H   0  0  0  0  0  0  0  0  0  0  0  0  # atno 10718 bound_to 10713
  153.5220  135.7015  153.5726 H   0  0  0  0  0  0  0  0  0  0  0  0  # atno 10763 bound_to 10752
  153.3771  135.3929  155.1830 H   0  0  0  0  0  0  0  0  0  0  0  0  # atno 10764 bound_to 10752
  154.8693  135.3826  154.4709 H   0  0  0  0  0  0  0  0  0  0  0  0  # atno 10765 bound_to 10752
  140.4351  134.1380  155.7684 H   0  0  0  0  0  0  0  0  0  0  0  0  # atno 11005 bound_to 11000
  144.7219  139.8001  143.7379 LP  0  0  0  0  0  0  0  0  0  0  0  0  # atno 17320 bound_to 7965
  146.1408  139.4464  143.0110 LP  0  0  0  0  0  0  0  0  0  0  0  0  # atno 17321 bound_to 7965
  139.5455  144.2534  152.1433 LP  0  0  0  0  0  0  0  0  0  0  0  0  # atno 17342 bound_to 10162
  140.1758  144.4892  150.6555 LP  0  0  0  0  0  0  0  0  0  0  0  0  # atno 17343 bound_to 10162
  157.6118  131.0936  150.8781 LP  0  0  0  0  0  0  0  0  0  0  0  0  # atno 17370 bound_to 10713
  156.8920  130.5216  149.5286 LP  0  0  0  0  0  0  0  0  0  0  0  0  # atno 17371 bound_to 10713
  141.1729  133.8572  157.1513 LP  0  0  0  0  0  0  0  0  0  0  0  0  # atno 17394 bound_to 11000
  140.0108  134.9989  157.0390 LP  0  0  0  0  0  0  0  0  0  0  0  0  # atno 17395 bound_to 11000

$$$$
