AV-unprocessed.smi:837|AV-procd|sdf|3893|dock3
  -GOLD-   22720 1353D 1   1.00000     0.00000
 Structure written by MMmdl.
 49 51  0  0  0  0  0  0  0  0  1 V2000
  145.0605  135.4414  152.7850 C   0  0  0  0  0  0  0  0  0  0  0  0
  144.5328  134.2207  152.0021 C   0  0  1  0  0  0  0  0  0  0  0  0
  144.4054  134.5492  150.4989 C   0  0  0  0  0  0  0  0  0  0  0  0
  143.7910  133.3809  149.7120 C   0  0  0  0  0  0  0  0  0  0  0  0
  144.5923  132.0864  149.9093 C   0  0  0  0  0  0  0  0  0  0  0  0
  144.7304  131.7397  151.4025 C   0  0  0  0  0  0  0  0  0  0  0  0
  145.3266  132.8974  152.2429 C   0  0  2  0  0  0  0  0  0  0  0  0
  145.3224  132.5304  153.6485 N   0  0  0  0  0  0  0  0  0  0  0  0
  146.5500  132.4320  154.1732 C   0  0  0  0  0  0  0  0  0  0  0  0
  146.8015  132.1163  155.3352 O   0  0  0  0  0  0  0  0  0  0  0  0
  147.4437  132.7340  153.2153 N   0  0  0  0  0  0  0  0  0  0  0  0
  148.9006  132.7029  153.4021 C   0  0  0  0  0  0  0  0  0  0  0  0
  149.3918  133.6268  154.5266 C   0  0  0  0  0  0  0  0  0  0  0  0
  149.9458  133.1713  155.5286 O   0  0  0  0  0  0  0  0  0  0  0  0
  149.1703  134.9372  154.3451 N   0  0  0  0  0  0  0  0  0  0  0  0
  149.5474  135.9862  155.2849 C   0  0  0  0  0  0  0  0  0  0  0  0
  150.8767  136.6491  154.8879 C   0  0  0  0  0  0  0  0  0  0  0  0
  150.8959  138.1287  155.2172 C   0  0  0  0  0  0  0  0  0  0  0  0
  151.4281  138.5895  156.4390 C   0  0  0  0  0  0  0  0  0  0  0  0
  151.4296  139.9737  156.6984 C   0  0  0  0  0  0  0  0  0  0  0  0
  150.8975  140.8397  155.7222 C   0  0  0  0  0  0  0  0  0  0  0  0
  150.3861  140.4095  154.5485 N   0  0  0  0  0  0  0  0  0  0  0  0
  150.3883  139.0807  154.3074 C   0  0  0  0  0  0  0  0  0  0  0  0
  146.8401  133.0198  152.0535 C   0  0  0  0  0  0  0  0  0  0  0  0
  147.3908  133.3274  150.9961 O   0  0  0  0  0  0  0  0  0  0  0  0
  146.0598  135.7310  152.4590 H   0  0  0  0  0  0  0  0  0  0  0  0
  145.1017  135.2464  153.8566 H   0  0  0  0  0  0  0  0  0  0  0  0
  144.4098  136.3041  152.6409 H   0  0  0  0  0  0  0  0  0  0  0  0
  143.5198  134.0460  152.3686 H   0  0  0  0  0  0  0  0  0  0  0  0
  143.7823  135.4345  150.3660 H   0  0  0  0  0  0  0  0  0  0  0  0
  145.3799  134.8024  150.0808 H   0  0  0  0  0  0  0  0  0  0  0  0
  142.7613  133.2248  150.0363 H   0  0  0  0  0  0  0  0  0  0  0  0
  143.7457  133.6304  148.6515 H   0  0  0  0  0  0  0  0  0  0  0  0
  144.1010  131.2663  149.3853 H   0  0  0  0  0  0  0  0  0  0  0  0
  145.5763  132.1894  149.4517 H   0  0  0  0  0  0  0  0  0  0  0  0
  143.7463  131.4805  151.7955 H   0  0  0  0  0  0  0  0  0  0  0  0
  145.3384  130.8394  151.5076 H   0  0  0  0  0  0  0  0  0  0  0  0
  144.4714  132.3519  154.1616 H   0  0  0  0  0  0  0  0  0  0  0  0
  149.2252  131.6828  153.6149 H   0  0  0  0  0  0  0  0  0  0  0  0
  149.4024  132.9858  152.4752 H   0  0  0  0  0  0  0  0  0  0  0  0
  148.7090  135.2289  153.4954 H   0  0  0  0  0  0  0  0  0  0  0  0
  148.7526  136.7316  155.3511 H   0  0  0  0  0  0  0  0  0  0  0  0
  149.6358  135.5381  156.2752 H   0  0  0  0  0  0  0  0  0  0  0  0
  151.7073  136.1601  155.3992 H   0  0  0  0  0  0  0  0  0  0  0  0
  151.0588  136.5248  153.8192 H   0  0  0  0  0  0  0  0  0  0  0  0
  151.8301  137.8967  157.1639 H   0  0  0  0  0  0  0  0  0  0  0  0
  151.8294  140.3625  157.6233 H   0  0  0  0  0  0  0  0  0  0  0  0
  150.8829  141.9068  155.8886 H   0  0  0  0  0  0  0  0  0  0  0  0
  149.9754  138.7688  153.3592 H   0  0  0  0  0  0  0  0  0  0  0  0
  1  2  1  0  0  0  0
  1 26  1  0  0  0  0
  1 27  1  0  0  0  0
  1 28  1  0  0  0  0
  2  7  1  0  0  0  0
  2  3  1  0  0  0  0
  2 29  1  0  0  0  0
  3  4  1  0  0  0  0
  3 30  1  0  0  0  0
  3 31  1  0  0  0  0
  4  5  1  0  0  0  0
  4 32  1  0  0  0  0
  4 33  1  0  0  0  0
  5  6  1  0  0  0  0
  5 34  1  0  0  0  0
  5 35  1  0  0  0  0
  6  7  1  0  0  0  0
  6 36  1  0  0  0  0
  6 37  1  0  0  0  0
  7 24  1  0  0  0  0
  7  8  1  0  0  0  0
  8  9  1  0  0  0  0
  8 38  1  0  0  0  0
  9 10  2  0  0  0  0
  9 11  1  0  0  0  0
 11 12  1  0  0  0  0
 11 24  1  0  0  0  0
 12 13  1  0  0  0  0
 12 39  1  0  0  0  0
 12 40  1  0  0  0  0
 13 14  2  0  0  0  0
 13 15  1  0  0  0  0
 15 16  1  0  0  0  0
 15 41  1  0  0  0  0
 16 17  1  0  0  0  0
 16 42  1  0  0  0  0
 16 43  1  0  0  0  0
 17 18  1  0  0  0  0
 17 44  1  0  0  0  0
 17 45  1  0  0  0  0
 18 23  1  0  0  0  0
 18 19  2  0  0  0  0
 19 20  1  0  0  0  0
 19 46  1  0  0  0  0
 20 21  2  0  0  0  0
 20 47  1  0  0  0  0
 21 22  1  0  0  0  0
 21 48  1  0  0  0  0
 22 23  2  0  0  0  0
 23 49  1  0  0  0  0
 24 25  2  0  0  0  0
M  END
> <s_m_source_file>
AV-unprocessed.smi

> <i_m_source_file_index>
837

> <i_lp_mmshare_version>
43012

> <i_f3d_flags>
0

> <s_epik_input>
W0NIMl0xW0NIMl1bQ0gyXVtDSDJdW0NAQEhdKFtDSDNdKVtDQEBdMTJbTkhdQyg9TylOKEMyPU8pW0NIMl1DKD1PKVtOSF1bQ0gyXVtDSDJdYzNbY0hdW2NIXVtjSF1uW2NIXTM=

> <s_epik_cmdline>
J2VwaWtfcHl0aG9uJywgJy1waCcsICc3LjAnLCAnLXRuJywgJzgnLCAnLW1hJywgJzIwMCcsICctbWV0YWxfYmluZGluZycsICctaW1hZScsICc8aW5maWxlLm1hZT4nLCAnLW9tYWUnLCAnPG91dGZpbGUubWFlPic=

> <r_lp_tautomer_probability>
1

> <r_epik_Ionization_Penalty>
0.0127837

> <r_epik_Ionization_Penalty_Charging>
0

> <r_epik_Ionization_Penalty_Neutral>
0.0127837

> <r_epik_State_Penalty>
0.00987657

> <r_epik_Charging_Adjusted_Penalty>
0.00987657

> <i_epik_Tot_Q>
0

> <i_epik_Tot_abs_Q>
0

> <r_epik_Metal_State_Penalty>
0.0309865

> <b_epik_Metal_Only>
0

> <s_lp_Force_Field>
OPLS_2005

> <r_lp_Energy>
18.239

> <b_lp_Chiralities_Consistent>
1

> <s_lp_Variant>
AV-unprocessed.smi:837-2

> <Gold.Version>
5.8.1

> <Gold.Id.Protein>
6NUR|6NUR_protein|mol2

> <Gold.PLP.Fitness>
48.0314

> <Gold.PLP.PLP>
-37.9515

> <Gold.PLP.part.hbond>
-3.0000

> <Gold.PLP.part.metal>
0.0000

> <Gold.PLP.part.buried>
-0.9750

> <Gold.PLP.part.nonpolar>
-34.6169

> <Gold.PLP.part.repulsive>
1.2655

> <Gold.PLP.ligand.clash>
0.0000

> <Gold.PLP.ligand.torsion>
0.7769

> <Gold.PLP.Chemscore.Hbond>
2.8640

> <Gold.PLP.Chemscore.CHOScore>
0.9967

> <Gold.PLP.Chemscore.Metal>
0.0000

> <Gold.Chemscore.Hbonds>
donor molecule, donor type, donor heavy atom, donor atom, acceptor molecule, acceptor atom, score
      L1  H     8    38       P1 10957  1.00
      L1  H    15    41       P1  7948  0.85
      P1  H  7989  7998       L1    22  0.95
      L1  C    23    49       P1  7957  0.94

> <Gold.PLP.Chemscore.Internal.Correction>
0.0518

> <Gold.Rescore>
     Score         DG    S(hbond)    S(metal)    S(lipo)     H(rot)  DE(clash)    DE(int)     intcor
     16.35     -19.48       2.34        0.00      93.57       1.86       2.38       0.75       ----

> <Gold.Chemscore.Fitness>
16.3504

> <Gold.Chemscore.DG>
-19.4846

> <Gold.Chemscore.ZeroCoef>
-5.4800

> <Gold.Chemscore.Hbond>
2.3375

> <Gold.Chemscore.Metal>
0.0000

> <Gold.Chemscore.Lipo>
93.5653

> <Gold.Chemscore.Internal_Hbond>
0.0000

> <Gold.Chemscore.DEClash>
2.3800

> <Gold.Chemscore.DEInternal>
0.7542

> <Gold.Chemscore.Rot>
1.8553

> <Gold.Chemscore.Internal.Correction>
   9.000000E+99

> <Gold.Chemscore.Hbonds>
donor molecule, donor type, donor heavy atom, donor atom, acceptor molecule, acceptor atom, score
      L1  H     8    38       P1 10957  0.44
      L1  H    15    41       P1  7948  0.70
      P1  H  7989  7998       L1    22  0.05

> <Gold.Chemscore.Hbond.Weighted>
-7.8072

> <Gold.Chemscore.Metal.Weighted>
-0.0000

> <Gold.Chemscore.Lipo.Weighted>
-10.9471

> <Gold.Chemscore.Internal_Hbond.Weighted>
0.0000

> <Gold.Chemscore.DEClash.Weighted>
2.3800

> <Gold.Chemscore.DEInternal.Weighted>
0.7542

> <Gold.Chemscore.Rot.Weighted>
4.7497

> <Gold.Chemscore.Internal.Correction.Weighted>
   9.000000E+99

> <Gold.Protein.RotatedTorsions>
[ 6907 6896 6895 6894 ] final -163.11 input  -60.11 | X-H torsion
[ 7974 7965 7964 7962 ] final  -91.35 input  175.53 | X-H torsion
[ 8008 7997 7996 7995 ] final  -61.14 input   59.86 | X-H torsion
[ 10167 10162 10161 10158 ] final    9.99 input  -65.29 | X-H torsion
[ 10718 10713 10712 10709 ] final -118.42 input   66.30 | X-H torsion
[ 10763 10752 10751 10750 ] final -140.41 input  -60.55 | X-H torsion
[ 11005 11000 10999 10996 ] final   83.60 input  -57.11 | X-H torsion

> <Gold.Protein.ActiveResidues>
 VAL166  LYS551  ARG553  GLY616  TRP617  ASP618  TYR619  PRO620  LYS621  CYS622 
 ASP623  PHE694  ASN695  SER759  ASP760  ASP761  ALA762  ILE779  LEU786  VAL792 
 PHE793  MET794  SER795  GLU796  ALA797  LYS798  CYS799  TRP800  GLU811  SER814 

> <Gold.Protein.RotatedAtoms>
  151.3909  133.3789  159.2720 H   0  0  0  0  0  0  0  0  0  0  0  0  # atno 6907 bound_to 6896
  150.9506  134.8907  159.7680 H   0  0  0  0  0  0  0  0  0  0  0  0  # atno 6908 bound_to 6896
  152.5110  134.3864  159.9421 H   0  0  0  0  0  0  0  0  0  0  0  0  # atno 6909 bound_to 6896
  145.4142  140.9547  143.2217 H   0  0  0  0  0  0  0  0  0  0  0  0  # atno 7974 bound_to 7965
  154.4433  140.1024  156.6384 H   0  0  0  0  0  0  0  0  0  0  0  0  # atno 8008 bound_to 7997
  155.5529  140.3486  155.4454 H   0  0  0  0  0  0  0  0  0  0  0  0  # atno 8009 bound_to 7997
  156.0516  140.1305  157.0033 H   0  0  0  0  0  0  0  0  0  0  0  0  # atno 8010 bound_to 7997
  140.6221  143.8181  150.7188 H   0  0  0  0  0  0  0  0  0  0  0  0  # atno 10167 bound_to 10162
  156.1105  130.6245  150.9289 H   0  0  0  0  0  0  0  0  0  0  0  0  # atno 10718 bound_to 10713
  154.8579  135.3554  154.5702 H   0  0  0  0  0  0  0  0  0  0  0  0  # atno 10763 bound_to 10752
  153.6315  135.7002  153.5278 H   0  0  0  0  0  0  0  0  0  0  0  0  # atno 10764 bound_to 10752
  153.3045  135.4196  155.1241 H   0  0  0  0  0  0  0  0  0  0  0  0  # atno 10765 bound_to 10752
  139.9026  134.8156  156.2332 H   0  0  0  0  0  0  0  0  0  0  0  0  # atno 11005 bound_to 11000
  144.8288  139.5664  143.6953 LP  0  0  0  0  0  0  0  0  0  0  0  0  # atno 17320 bound_to 7965
  146.2689  139.6587  142.9310 LP  0  0  0  0  0  0  0  0  0  0  0  0  # atno 17321 bound_to 7965
  140.1773  143.4144  152.1958 LP  0  0  0  0  0  0  0  0  0  0  0  0  # atno 17342 bound_to 10162
  139.5448  144.7289  151.4619 LP  0  0  0  0  0  0  0  0  0  0  0  0  # atno 17343 bound_to 10162
  157.6286  131.0923  150.8486 LP  0  0  0  0  0  0  0  0  0  0  0  0  # atno 17370 bound_to 10713
  156.8597  130.5109  149.5305 LP  0  0  0  0  0  0  0  0  0  0  0  0  # atno 17371 bound_to 10713
  141.0332  133.6977  156.1467 LP  0  0  0  0  0  0  0  0  0  0  0  0  # atno 17394 bound_to 11000
  140.7065  134.4508  157.5584 LP  0  0  0  0  0  0  0  0  0  0  0  0  # atno 17395 bound_to 11000

$$$$
