AV-unprocessed.smi:1047|AV-procd|sdf|4592|dock7
  -GOLD-   22720 3 73D 1   1.00000     0.00000
 Structure written by MMmdl.
 55 57  0  0  0  0  0  0  0  0  1 V2000
  155.2470  144.2877  165.2936 C   0  0  0  0  0  0  0  0  0  0  0  0
  155.1324  142.8096  164.8947 C   0  0  0  0  0  0  0  0  0  0  0  0
  155.8608  141.8810  165.7571 N   0  0  0  0  0  0  0  0  0  0  0  0
  155.3589  141.9346  167.1253 C   0  0  0  0  0  0  0  0  0  0  0  0
  156.1113  140.9638  168.0500 C   0  0  0  0  0  0  0  0  0  0  0  0
  156.0190  139.6433  167.5254 O   0  0  0  0  0  0  0  0  0  0  0  0
  156.5492  139.5277  166.2074 C   0  0  1  0  0  0  0  0  0  0  0  0
  156.4027  138.0625  165.7702 C   0  0  0  0  0  0  0  0  0  0  0  0
  156.2185  137.9520  164.3261 N   0  0  0  0  0  0  0  0  0  0  0  0
  154.9091  137.4297  163.9469 C   0  0  0  0  0  0  0  0  0  0  0  0
  154.5278  137.8570  162.5196 C   0  0  2  0  0  0  0  0  0  0  0  0
  155.1320  136.9581  161.6103 O   0  0  0  0  0  0  0  0  0  0  0  0
  155.0094  139.2869  162.2074 C   0  0  0  0  0  0  0  0  0  0  0  0
  154.4098  139.8296  161.0007 N   0  0  0  0  0  0  0  0  0  0  0  0
  154.3744  139.2514  159.7850 C   0  0  0  0  0  0  0  0  0  0  0  0
  153.7654  139.9195  158.8096 N   0  0  0  0  0  0  0  0  0  0  0  0
  153.3586  141.0664  159.4700 C   0  0  0  0  0  0  0  0  0  0  0  0
  152.6488  142.1922  158.9980 C   0  0  0  0  0  0  0  0  0  0  0  0
  152.3359  143.2663  159.8613 C   0  0  0  0  0  0  0  0  0  0  0  0
  151.5688  144.4563  159.3122 C   0  0  0  0  0  0  0  0  0  0  0  0
  152.7379  143.2252  161.2207 C   0  0  0  0  0  0  0  0  0  0  0  0
  152.4184  144.3700  162.1658 C   0  0  0  0  0  0  0  0  0  0  0  0
  153.4456  142.1069  161.7092 C   0  0  0  0  0  0  0  0  0  0  0  0
  153.7482  141.0428  160.8412 C   0  0  0  0  0  0  0  0  0  0  0  0
  155.7895  140.5012  165.2814 C   0  0  0  0  0  0  0  0  0  0  0  0
  154.5917  144.9023  164.6761 H   0  0  0  0  0  0  0  0  0  0  0  0
  156.2601  144.6679  165.1664 H   0  0  0  0  0  0  0  0  0  0  0  0
  154.9571  144.4372  166.3338 H   0  0  0  0  0  0  0  0  0  0  0  0
  154.0734  142.5489  164.9137 H   0  0  0  0  0  0  0  0  0  0  0  0
  155.4532  142.6852  163.8595 H   0  0  0  0  0  0  0  0  0  0  0  0
  155.4534  142.9489  167.5152 H   0  0  0  0  0  0  0  0  0  0  0  0
  154.2948  141.6929  167.1394 H   0  0  0  0  0  0  0  0  0  0  0  0
  157.1588  141.2539  168.1470 H   0  0  0  0  0  0  0  0  0  0  0  0
  155.6799  140.9813  169.0509 H   0  0  0  0  0  0  0  0  0  0  0  0
  157.6084  139.7914  166.2390 H   0  0  0  0  0  0  0  0  0  0  0  0
  157.3022  137.5174  166.0593 H   0  0  0  0  0  0  0  0  0  0  0  0
  155.5727  137.5935  166.3000 H   0  0  0  0  0  0  0  0  0  0  0  0
  156.9486  137.3671  163.9323 H   0  0  0  0  0  0  0  0  0  0  0  0
  154.9413  136.3404  163.9914 H   0  0  0  0  0  0  0  0  0  0  0  0
  154.1438  137.7434  164.6583 H   0  0  0  0  0  0  0  0  0  0  0  0
  153.4448  137.8128  162.3929 H   0  0  0  0  0  0  0  0  0  0  0  0
  154.7013  136.1205  161.6901 H   0  0  0  0  0  0  0  0  0  0  0  0
  154.7650  139.9545  163.0348 H   0  0  0  0  0  0  0  0  0  0  0  0
  156.0948  139.3111  162.1013 H   0  0  0  0  0  0  0  0  0  0  0  0
  154.8203  138.2838  159.6070 H   0  0  0  0  0  0  0  0  0  0  0  0
  152.3448  142.2236  157.9623 H   0  0  0  0  0  0  0  0  0  0  0  0
  150.6364  144.5953  159.8597 H   0  0  0  0  0  0  0  0  0  0  0  0
  151.3204  144.3188  158.2593 H   0  0  0  0  0  0  0  0  0  0  0  0
  152.1619  145.3666  159.4004 H   0  0  0  0  0  0  0  0  0  0  0  0
  152.8293  144.1916  163.1596 H   0  0  0  0  0  0  0  0  0  0  0  0
  151.3398  144.4931  162.2659 H   0  0  0  0  0  0  0  0  0  0  0  0
  152.8411  145.3033  161.7932 H   0  0  0  0  0  0  0  0  0  0  0  0
  153.7588  142.0628  162.7418 H   0  0  0  0  0  0  0  0  0  0  0  0
  154.7459  140.1913  165.2050 H   0  0  0  0  0  0  0  0  0  0  0  0
  156.2094  140.4295  164.2785 H   0  0  0  0  0  0  0  0  0  0  0  0
  1  2  1  0  0  0  0
  1 26  1  0  0  0  0
  1 27  1  0  0  0  0
  1 28  1  0  0  0  0
  2  3  1  0  0  0  0
  2 29  1  0  0  0  0
  2 30  1  0  0  0  0
  3 25  1  0  0  0  0
  3  4  1  0  0  0  0
  4  5  1  0  0  0  0
  4 31  1  0  0  0  0
  4 32  1  0  0  0  0
  5  6  1  0  0  0  0
  5 33  1  0  0  0  0
  5 34  1  0  0  0  0
  6  7  1  0  0  0  0
  7  8  1  0  0  0  0
  7 25  1  0  0  0  0
  7 35  1  0  0  0  0
  8  9  1  0  0  0  0
  8 36  1  0  0  0  0
  8 37  1  0  0  0  0
  9 10  1  0  0  0  0
  9 38  1  0  0  0  0
 10 11  1  0  0  0  0
 10 39  1  0  0  0  0
 10 40  1  0  0  0  0
 11 12  1  0  0  0  0
 11 13  1  0  0  0  0
 11 41  1  0  0  0  0
 12 42  1  0  0  0  0
 13 14  1  0  0  0  0
 13 43  1  0  0  0  0
 13 44  1  0  0  0  0
 14 24  1  0  0  0  0
 14 15  1  0  0  0  0
 15 16  2  0  0  0  0
 15 45  1  0  0  0  0
 16 17  1  0  0  0  0
 17 24  2  0  0  0  0
 17 18  1  0  0  0  0
 18 19  2  0  0  0  0
 18 46  1  0  0  0  0
 19 20  1  0  0  0  0
 19 21  1  0  0  0  0
 20 47  1  0  0  0  0
 20 48  1  0  0  0  0
 20 49  1  0  0  0  0
 21 22  1  0  0  0  0
 21 23  2  0  0  0  0
 22 50  1  0  0  0  0
 22 51  1  0  0  0  0
 22 52  1  0  0  0  0
 23 24  1  0  0  0  0
 23 53  1  0  0  0  0
 25 54  1  0  0  0  0
 25 55  1  0  0  0  0
M  END
> <s_m_source_file>
AV-unprocessed.smi

> <i_m_source_file_index>
1047

> <i_lp_mmshare_version>
43012

> <i_f3d_flags>
0

> <s_epik_input>
W0NIM11bQ0gyXU4xW0NIMl1bQ0gyXU9bQ0BIXShbQ0gyXTEpW0NIMl1bTkhdW0NIMl1bQ0BIXShbT0hdKVtDSDJdbihbY0hdbjIpYyhjMjMpW2NIXWMoW0NIM10pYyhbY0hdMylbQ0gzXQ==

> <s_epik_cmdline>
J2VwaWtfcHl0aG9uJywgJy1waCcsICc3LjAnLCAnLXRuJywgJzgnLCAnLW1hJywgJzIwMCcsICctbWV0YWxfYmluZGluZycsICctaW1hZScsICc8aW5maWxlLm1hZT4nLCAnLW9tYWUnLCAnPG91dGZpbGUubWFlPic=

> <r_epik_Ionization_Penalty>
2.74124

> <r_epik_Ionization_Penalty_Charging>
0

> <r_epik_Ionization_Penalty_Neutral>
2.74124

> <r_epik_State_Penalty>
2.37482

> <r_epik_Charging_Adjusted_Penalty>
2.37482

> <i_epik_Tot_Q>
0

> <i_epik_Tot_abs_Q>
0

> <r_epik_Metal_State_Penalty>
2.25944

> <b_epik_Metal_Only>
0

> <s_lp_Force_Field>
OPLS_2005

> <r_lp_Energy>
35.4924

> <b_lp_Chiralities_Consistent>
1

> <s_lp_Variant>
AV-unprocessed.smi:1047-33

> <Gold.Version>
5.8.1

> <Gold.Id.Protein>
6NUR|6NUR_protein|mol2

> <Gold.PLP.Fitness>
56.1351

> <Gold.PLP.PLP>
-55.6409

> <Gold.PLP.part.hbond>
-2.0000

> <Gold.PLP.part.metal>
0.0000

> <Gold.PLP.part.buried>
-4.9594

> <Gold.PLP.part.nonpolar>
-46.4126

> <Gold.PLP.part.repulsive>
0.1148

> <Gold.PLP.ligand.clash>
0.0000

> <Gold.PLP.ligand.torsion>
1.2755

> <Gold.PLP.Chemscore.Hbond>
1.0000

> <Gold.PLP.Chemscore.CHOScore>
0.0000

> <Gold.PLP.Chemscore.Metal>
0.0000

> <Gold.Chemscore.Hbonds>
donor molecule, donor type, donor heavy atom, donor atom, acceptor molecule, acceptor atom, score
      P1  H  7997  8008       L1    16  1.00

> <Gold.PLP.Chemscore.Internal.Correction>
0.0451

> <Gold.Rescore>
     Score         DG    S(hbond)    S(metal)    S(lipo)     H(rot)  DE(clash)    DE(int)     intcor
     18.51     -20.16       0.89        0.00     155.43       2.52       0.23       1.42       ----

> <Gold.Chemscore.Fitness>
18.5085

> <Gold.Chemscore.DG>
-20.1601

> <Gold.Chemscore.ZeroCoef>
-5.4800

> <Gold.Chemscore.Hbond>
0.8850

> <Gold.Chemscore.Metal>
0.0000

> <Gold.Chemscore.Lipo>
155.4255

> <Gold.Chemscore.Internal_Hbond>
0.0000

> <Gold.Chemscore.DEClash>
0.2291

> <Gold.Chemscore.DEInternal>
1.4226

> <Gold.Chemscore.Rot>
2.5237

> <Gold.Chemscore.Internal.Correction>
   9.000000E+99

> <Gold.Chemscore.Hbonds>
donor molecule, donor type, donor heavy atom, donor atom, acceptor molecule, acceptor atom, score
      P1  H  7997  8008       L1    16  0.65

> <Gold.Chemscore.Hbond.Weighted>
-2.9560

> <Gold.Chemscore.Metal.Weighted>
-0.0000

> <Gold.Chemscore.Lipo.Weighted>
-18.1848

> <Gold.Chemscore.Internal_Hbond.Weighted>
0.0000

> <Gold.Chemscore.DEClash.Weighted>
0.2291

> <Gold.Chemscore.DEInternal.Weighted>
1.4226

> <Gold.Chemscore.Rot.Weighted>
6.4607

> <Gold.Chemscore.Internal.Correction.Weighted>
   9.000000E+99

> <Gold.Protein.RotatedTorsions>
[ 6907 6896 6895 6894 ] final  169.20 input  -60.11 | X-H torsion
[ 7974 7965 7964 7962 ] final -139.80 input  175.53 | X-H torsion
[ 8008 7997 7996 7995 ] final -111.22 input   59.86 | X-H torsion
[ 10167 10162 10161 10158 ] final  -63.71 input  -65.29 | X-H torsion
[ 10718 10713 10712 10709 ] final  127.45 input   66.30 | X-H torsion
[ 10763 10752 10751 10750 ] final -124.76 input  -60.55 | X-H torsion
[ 11005 11000 10999 10996 ] final  -92.38 input  -57.11 | X-H torsion

> <Gold.Protein.ActiveResidues>
 VAL166  LYS551  ARG553  GLY616  TRP617  ASP618  TYR619  PRO620  LYS621  CYS622 
 ASP623  PHE694  ASN695  SER759  ASP760  ASP761  ALA762  ILE779  LEU786  VAL792 
 PHE793  MET794  SER795  GLU796  ALA797  LYS798  CYS799  TRP800  GLU811  SER814 

> <Gold.Protein.RotatedAtoms>
  151.8357  133.3415  159.3626 H   0  0  0  0  0  0  0  0  0  0  0  0  # atno 6907 bound_to 6896
  150.7250  134.5440  159.5771 H   0  0  0  0  0  0  0  0  0  0  0  0  # atno 6908 bound_to 6896
  152.2903  134.7730  160.0430 H   0  0  0  0  0  0  0  0  0  0  0  0  # atno 6909 bound_to 6896
  144.8648  140.6275  143.5305 H   0  0  0  0  0  0  0  0  0  0  0  0  # atno 7974 bound_to 7965
  154.9865  140.0395  157.2300 H   0  0  0  0  0  0  0  0  0  0  0  0  # atno 8008 bound_to 7997
  154.7667  140.2794  155.6148 H   0  0  0  0  0  0  0  0  0  0  0  0  # atno 8009 bound_to 7997
  156.2914  140.2618  156.2459 H   0  0  0  0  0  0  0  0  0  0  0  0  # atno 8010 bound_to 7997
  140.5852  143.2333  151.6258 H   0  0  0  0  0  0  0  0  0  0  0  0  # atno 10167 bound_to 10162
  157.5332  131.1098  150.8977 H   0  0  0  0  0  0  0  0  0  0  0  0  # atno 10718 bound_to 10713
  154.8727  135.4053  154.3157 H   0  0  0  0  0  0  0  0  0  0  0  0  # atno 10763 bound_to 10752
  153.3994  135.7017  153.6443 H   0  0  0  0  0  0  0  0  0  0  0  0  # atno 10764 bound_to 10752
  153.5192  135.3691  155.2594 H   0  0  0  0  0  0  0  0  0  0  0  0  # atno 10765 bound_to 10752
  141.1523  133.7817  157.0012 H   0  0  0  0  0  0  0  0  0  0  0  0  # atno 11005 bound_to 11000
  145.4243  139.1559  143.4057 LP  0  0  0  0  0  0  0  0  0  0  0  0  # atno 17320 bound_to 7965
  146.2887  140.4356  142.8748 LP  0  0  0  0  0  0  0  0  0  0  0  0  # atno 17321 bound_to 7965
  139.5193  144.3257  152.0871 LP  0  0  0  0  0  0  0  0  0  0  0  0  # atno 17342 bound_to 10162
  140.2413  144.4266  150.6259 LP  0  0  0  0  0  0  0  0  0  0  0  0  # atno 17343 bound_to 10162
  156.9552  130.5434  149.5284 LP  0  0  0  0  0  0  0  0  0  0  0  0  # atno 17370 bound_to 10713
  156.0438  130.5517  150.8833 LP  0  0  0  0  0  0  0  0  0  0  0  0  # atno 17371 bound_to 10713
  140.0939  134.9576  157.1818 LP  0  0  0  0  0  0  0  0  0  0  0  0  # atno 17394 bound_to 11000
  140.3409  134.2705  155.7212 LP  0  0  0  0  0  0  0  0  0  0  0  0  # atno 17395 bound_to 11000

$$$$
