AV-unprocessed.smi:2895|AV-procd|sdf|11131|dock9
  -GOLD-   2272016 03D 1   1.00000     0.00000
 Structure written by MMmdl.
 53 56  0  0  0  0  0  0  0  0  2 V2000
  148.3889  142.0816  154.1758 O   0  0  0  0  0  0  0  0  0  0  0  0
  147.8065  141.1898  154.7944 C   0  0  0  0  0  0  0  0  0  0  0  0
  147.9191  141.0569  156.1270 N   0  0  0  0  0  0  0  0  0  0  0  0
  148.7334  141.9035  156.9916 C   0  0  0  0  0  0  0  0  0  0  0  0
  150.2245  141.5368  156.9048 C   0  0  0  0  0  0  0  0  0  0  0  0
  151.0767  142.3746  157.8380 C   0  0  0  0  0  0  0  0  0  0  0  0
  151.7687  141.7752  158.9105 C   0  0  0  0  0  0  0  0  0  0  0  0
  152.5486  142.5959  159.7496 C   0  0  0  0  0  0  0  0  0  0  0  0
  152.6677  143.9303  159.5792 N   0  0  0  0  0  0  0  0  0  0  0  0
  152.0020  144.4969  158.5497 C   0  0  0  0  0  0  0  0  0  0  0  0
  151.1960  143.7674  157.6529 C   0  0  0  0  0  0  0  0  0  0  0  0
  146.9835  140.2897  154.1987 N   0  0  0  0  0  0  0  0  0  0  0  0
  146.4279  139.0758  154.8176 C   0  0  0  0  0  0  0  0  0  0  0  0
  147.1148  137.8414  154.2003 C   0  0  0  0  0  0  0  0  0  0  0  0
  146.9719  137.8056  152.7160 N   0  3  0  0  0  0  0  0  0  0  0  0
  145.6369  137.3397  152.2318 C   0  0  1  0  0  0  0  0  0  0  0  0
  145.6250  136.9006  150.7468 C   0  0  0  0  0  0  0  0  0  0  0  0
  144.9374  135.5233  150.7914 C   0  0  1  0  0  0  0  0  0  0  0  0
  145.9339  134.4896  151.3427 C   0  0  0  0  0  0  0  0  0  0  0  0
  146.0348  134.8822  152.8273 C   0  0  0  0  0  0  0  0  0  0  0  0
  145.0678  136.0814  152.9359 C   0  0  2  0  0  0  0  0  0  0  0  0
  143.9698  135.6747  151.9586 C   0  0  0  0  0  0  0  0  0  0  0  0
  147.4075  139.0913  152.0975 C   0  0  0  0  0  0  0  0  0  0  0  0
  146.7289  140.3114  152.7540 C   0  0  0  0  0  0  0  0  0  0  0  0
  147.3999  140.3163  156.5756 H   0  0  0  0  0  0  0  0  0  0  0  0
  148.5788  142.9532  156.7357 H   0  0  0  0  0  0  0  0  0  0  0  0
  148.3804  141.7780  158.0155 H   0  0  0  0  0  0  0  0  0  0  0  0
  150.3628  140.4804  157.1403 H   0  0  0  0  0  0  0  0  0  0  0  0
  150.5920  141.6752  155.8872 H   0  0  0  0  0  0  0  0  0  0  0  0
  151.7060  140.7112  159.0873 H   0  0  0  0  0  0  0  0  0  0  0  0
  153.0917  142.1686  160.5795 H   0  0  0  0  0  0  0  0  0  0  0  0
  152.1144  145.5650  158.4368 H   0  0  0  0  0  0  0  0  0  0  0  0
  150.6836  144.2694  156.8454 H   0  0  0  0  0  0  0  0  0  0  0  0
  146.5345  139.0416  155.9016 H   0  0  0  0  0  0  0  0  0  0  0  0
  145.3533  139.0424  154.6351 H   0  0  0  0  0  0  0  0  0  0  0  0
  148.1804  137.8795  154.4303 H   0  0  0  0  0  0  0  0  0  0  0  0
  146.7549  136.9258  154.6665 H   0  0  0  0  0  0  0  0  0  0  0  0
  144.9175  138.1489  152.3626 H   0  0  0  0  0  0  0  0  0  0  0  0
  145.0515  137.6073  150.1457 H   0  0  0  0  0  0  0  0  0  0  0  0
  146.6206  136.8245  150.3075 H   0  0  0  0  0  0  0  0  0  0  0  0
  144.4816  135.2289  149.8455 H   0  0  0  0  0  0  0  0  0  0  0  0
  145.5400  133.4775  151.2398 H   0  0  0  0  0  0  0  0  0  0  0  0
  146.8979  134.5256  150.8340 H   0  0  0  0  0  0  0  0  0  0  0  0
  145.6983  134.0594  153.4597 H   0  0  0  0  0  0  0  0  0  0  0  0
  147.0545  135.1279  153.1240 H   0  0  0  0  0  0  0  0  0  0  0  0
  144.7050  136.2652  153.9474 H   0  0  0  0  0  0  0  0  0  0  0  0
  143.2178  136.4497  151.7998 H   0  0  0  0  0  0  0  0  0  0  0  0
  143.4702  134.7429  152.2306 H   0  0  0  0  0  0  0  0  0  0  0  0
  148.4877  139.1752  152.2248 H   0  0  0  0  0  0  0  0  0  0  0  0
  147.2356  139.0983  151.0218 H   0  0  0  0  0  0  0  0  0  0  0  0
  145.6526  140.2943  152.5798 H   0  0  0  0  0  0  0  0  0  0  0  0
  147.0817  141.2263  152.2764 H   0  0  0  0  0  0  0  0  0  0  0  0
  147.6215  137.1025  152.3934 H   0  0  0  0  0  0  0  0  0  0  0  0
  1  2  2  0  0  0  0
  2  3  1  0  0  0  0
  2 12  1  0  0  0  0
  3  4  1  0  0  0  0
  3 25  1  0  0  0  0
  4  5  1  0  0  0  0
  4 26  1  0  0  0  0
  4 27  1  0  0  0  0
  5  6  1  0  0  0  0
  5 28  1  0  0  0  0
  5 29  1  0  0  0  0
  6 11  1  0  0  0  0
  6  7  2  0  0  0  0
  7  8  1  0  0  0  0
  7 30  1  0  0  0  0
  8  9  2  0  0  0  0
  8 31  1  0  0  0  0
  9 10  1  0  0  0  0
 10 11  2  0  0  0  0
 10 32  1  0  0  0  0
 11 33  1  0  0  0  0
 12 24  1  0  0  0  0
 12 13  1  0  0  0  0
 13 14  1  0  0  0  0
 13 34  1  0  0  0  0
 13 35  1  0  0  0  0
 14 15  1  0  0  0  0
 14 36  1  0  0  0  0
 14 37  1  0  0  0  0
 15 16  1  0  0  0  0
 15 23  1  0  0  0  0
 15 53  1  0  0  0  0
 16 21  1  0  0  0  0
 16 17  1  0  0  0  0
 16 38  1  0  0  0  0
 17 18  1  0  0  0  0
 17 39  1  0  0  0  0
 17 40  1  0  0  0  0
 18 22  1  0  0  0  0
 18 19  1  0  0  0  0
 18 41  1  0  0  0  0
 19 20  1  0  0  0  0
 19 42  1  0  0  0  0
 19 43  1  0  0  0  0
 20 21  1  0  0  0  0
 20 44  1  0  0  0  0
 20 45  1  0  0  0  0
 21 22  1  0  0  0  0
 21 46  1  0  0  0  0
 22 47  1  0  0  0  0
 22 48  1  0  0  0  0
 23 24  1  0  0  0  0
 23 49  1  0  0  0  0
 23 50  1  0  0  0  0
 24 51  1  0  0  0  0
 24 52  1  0  0  0  0
M  CHG  1  15   1
M  END
> <s_m_source_file>
AV-unprocessed.smi

> <i_m_source_file_index>
2895

> <i_lp_mmshare_version>
43012

> <i_f3d_flags>
0

> <s_epik_input>
W0NIMl0xW0NIMl1bQ0BASF0oW0NIMl0yKVtDQEBIXShbQ0gyXVtDQEhdMTIpTihbQ0gyXVtDSDJdMylbQ0gyXVtDSDJdTjNDKD1PKVtOSF1bQ0gyXVtDSDJdYzRbY0hdW2NIXW5bY0hdW2NIXTQ=

> <s_epik_cmdline>
J2VwaWtfcHl0aG9uJywgJy1waCcsICc3LjAnLCAnLXRuJywgJzgnLCAnLW1hJywgJzIwMCcsICctbWV0YWxfYmluZGluZycsICctaW1hZScsICc8aW5maWxlLm1hZT4nLCAnLW9tYWUnLCAnPG91dGZpbGUubWFlPic=

> <r_epik_Ionization_Penalty>
0.0566172

> <r_epik_Ionization_Penalty_Charging>
0.00262064

> <r_epik_Ionization_Penalty_Neutral>
0.0539965

> <r_epik_State_Penalty>
0.0463959

> <r_epik_Charging_Adjusted_Penalty>
0.0490165

> <i_epik_Tot_Q>
1

> <i_epik_Tot_abs_Q>
1

> <r_epik_Metal_State_Penalty>
0.0424856

> <b_epik_Metal_Only>
0

> <s_lp_Force_Field>
OPLS_2005

> <r_lp_Energy>
99.8283

> <b_lp_Chiralities_Consistent>
1

> <s_lp_Variant>
AV-unprocessed.smi:2895-4

> <Gold.Version>
5.8.1

> <Gold.Id.Protein>
6NUR|6NUR_protein|mol2

> <Gold.PLP.Fitness>
44.8618

> <Gold.PLP.PLP>
-38.4475

> <Gold.PLP.part.hbond>
-2.0000

> <Gold.PLP.part.metal>
0.0000

> <Gold.PLP.part.buried>
5.1386

> <Gold.PLP.part.nonpolar>
-42.8820

> <Gold.PLP.part.repulsive>
0.2451

> <Gold.PLP.ligand.clash>
0.0000

> <Gold.PLP.ligand.torsion>
0.3201

> <Gold.PLP.Chemscore.Hbond>
2.3245

> <Gold.PLP.Chemscore.CHOScore>
0.0000

> <Gold.PLP.Chemscore.Metal>
0.0000

> <Gold.Chemscore.Hbonds>
donor molecule, donor type, donor heavy atom, donor atom, acceptor molecule, acceptor atom, score
      L1  H    15    53       P1  7948  2.00
      P1  H  8011  8017       L1     1  0.09

> <Gold.PLP.Chemscore.Internal.Correction>
0.0811

> <Gold.Rescore>
     Score         DG    S(hbond)    S(metal)    S(lipo)     H(rot)  DE(clash)    DE(int)     intcor
     17.62     -21.66       1.39        0.00     128.60       1.37       3.71       0.33       ----

> <Gold.Chemscore.Fitness>
17.6245

> <Gold.Chemscore.DG>
-21.6622

> <Gold.Chemscore.ZeroCoef>
-5.4800

> <Gold.Chemscore.Hbond>
1.3927

> <Gold.Chemscore.Metal>
0.0000

> <Gold.Chemscore.Lipo>
128.5958

> <Gold.Chemscore.Internal_Hbond>
0.0000

> <Gold.Chemscore.DEClash>
3.7064

> <Gold.Chemscore.DEInternal>
0.3314

> <Gold.Chemscore.Rot>
1.3731

> <Gold.Chemscore.Internal.Correction>
   9.000000E+99

> <Gold.Chemscore.Hbonds>
donor molecule, donor type, donor heavy atom, donor atom, acceptor molecule, acceptor atom, score
      L1  H    15    53       P1  7948  1.00
      P1  H  8011  8017       L1     1  0.09

> <Gold.Chemscore.Hbond.Weighted>
-4.6517

> <Gold.Chemscore.Metal.Weighted>
-0.0000

> <Gold.Chemscore.Lipo.Weighted>
-15.0457

> <Gold.Chemscore.Internal_Hbond.Weighted>
0.0000

> <Gold.Chemscore.DEClash.Weighted>
3.7064

> <Gold.Chemscore.DEInternal.Weighted>
0.3314

> <Gold.Chemscore.Rot.Weighted>
3.5152

> <Gold.Chemscore.Internal.Correction.Weighted>
   9.000000E+99

> <Gold.Protein.RotatedTorsions>
[ 6907 6896 6895 6894 ] final    5.78 input  -60.11 | X-H torsion
[ 7974 7965 7964 7962 ] final   -1.31 input  175.53 | X-H torsion
[ 8008 7997 7996 7995 ] final   37.03 input   59.86 | X-H torsion
[ 10167 10162 10161 10158 ] final   20.25 input  -65.29 | X-H torsion
[ 10718 10713 10712 10709 ] final  -26.22 input   66.30 | X-H torsion
[ 10763 10752 10751 10750 ] final   97.55 input  -60.55 | X-H torsion
[ 11005 11000 10999 10996 ] final  162.50 input  -57.11 | X-H torsion

> <Gold.Protein.ActiveResidues>
 VAL166  LYS551  ARG553  GLY616  TRP617  ASP618  TYR619  PRO620  LYS621  CYS622 
 ASP623  PHE694  ASN695  SER759  ASP760  ASP761  ALA762  ILE779  LEU786  VAL792 
 PHE793  MET794  SER795  GLU796  ALA797  LYS798  CYS799  TRP800  GLU811  SER814 

> <Gold.Protein.RotatedAtoms>
  151.6631  135.0986  160.0183 H   0  0  0  0  0  0  0  0  0  0  0  0  # atno 6907 bound_to 6896
  152.3935  133.6709  159.6265 H   0  0  0  0  0  0  0  0  0  0  0  0  # atno 6908 bound_to 6896
  150.7846  133.8830  159.3332 H   0  0  0  0  0  0  0  0  0  0  0  0  # atno 6909 bound_to 6896
  146.2418  140.1401  142.8336 H   0  0  0  0  0  0  0  0  0  0  0  0  # atno 7974 bound_to 7965
  155.1970  140.3312  155.4349 H   0  0  0  0  0  0  0  0  0  0  0  0  # atno 8008 bound_to 7997
  156.2421  140.1900  156.7010 H   0  0  0  0  0  0  0  0  0  0  0  0  # atno 8009 bound_to 7997
  154.6167  140.0601  156.9549 H   0  0  0  0  0  0  0  0  0  0  0  0  # atno 8010 bound_to 7997
  140.5518  143.9496  150.6583 H   0  0  0  0  0  0  0  0  0  0  0  0  # atno 10167 bound_to 10162
  156.4541  130.4490  149.6970 H   0  0  0  0  0  0  0  0  0  0  0  0  # atno 10718 bound_to 10713
  153.2782  135.4179  155.1053 H   0  0  0  0  0  0  0  0  0  0  0  0  # atno 10763 bound_to 10752
  154.8480  135.3489  154.6148 H   0  0  0  0  0  0  0  0  0  0  0  0  # atno 10764 bound_to 10752
  153.6569  135.7050  153.5248 H   0  0  0  0  0  0  0  0  0  0  0  0  # atno 10765 bound_to 10752
  140.2264  134.8157  157.3272 H   0  0  0  0  0  0  0  0  0  0  0  0  # atno 11005 bound_to 11000
  145.0253  140.8827  143.5142 LP  0  0  0  0  0  0  0  0  0  0  0  0  # atno 17320 bound_to 7965
  145.1457  139.2545  143.5467 LP  0  0  0  0  0  0  0  0  0  0  0  0  # atno 17321 bound_to 7965
  140.2924  143.3315  152.1050 LP  0  0  0  0  0  0  0  0  0  0  0  0  # atno 17342 bound_to 10162
  139.5030  144.6747  151.6157 LP  0  0  0  0  0  0  0  0  0  0  0  0  # atno 17343 bound_to 10162
  156.3785  130.7567  151.2557 LP  0  0  0  0  0  0  0  0  0  0  0  0  # atno 17370 bound_to 10713
  157.7501  131.0302  150.4129 LP  0  0  0  0  0  0  0  0  0  0  0  0  # atno 17371 bound_to 10713
  140.1796  134.4506  155.7780 LP  0  0  0  0  0  0  0  0  0  0  0  0  # atno 17394 bound_to 11000
  141.2220  133.6978  156.7846 LP  0  0  0  0  0  0  0  0  0  0  0  0  # atno 17395 bound_to 11000

$$$$
