AV-unprocessed.smi:109|AV-procd|sdf|1052|dock4
  -GOLD-   2262018103D 1   1.00000     0.00000
 Structure written by MMmdl.
 58 61  0  0  0  0  0  0  0  0  1 V2000
  147.8938  137.1884  160.5953 O   0  0  0  0  0  0  0  0  0  0  0  0
  148.4210  136.8225  159.3385 C   0  0  0  0  0  0  0  0  0  0  0  0
  147.6174  137.4992  158.2166 C   0  0  0  0  0  0  0  0  0  0  0  0
  148.2162  137.2501  156.8145 C   0  0  1  0  0  0  0  0  0  0  0  0
  147.1424  137.1626  155.8248 N   0  0  0  0  0  0  0  0  0  0  0  0
  147.0120  136.0925  155.0093 C   0  0  0  0  0  0  0  0  0  0  0  0
  148.0070  135.1769  154.8780 N   0  0  0  0  0  0  0  0  0  0  0  0
  147.8428  134.1227  154.0739 C   0  0  0  0  0  0  0  0  0  0  0  0
  146.7841  133.7995  153.3286 N   0  0  0  0  0  0  0  0  0  0  0  0
  145.7811  134.7161  153.4531 C   0  0  0  0  0  0  0  0  0  0  0  0
  145.8212  135.8834  154.2664 C   0  0  0  0  0  0  0  0  0  0  0  0
  144.6290  136.5842  154.1442 N   0  0  0  0  0  0  0  0  0  0  0  0
  143.9271  135.8684  153.3074 C   0  0  0  0  0  0  0  0  0  0  0  0
  144.5411  134.7261  152.8431 N   0  0  0  0  0  0  0  0  0  0  0  0
  143.9697  133.7171  151.8919 C   0  0  2  0  0  0  0  0  0  0  0  0
  144.6086  132.4890  152.0793 O   0  0  0  0  0  0  0  0  0  0  0  0
  145.2292  132.0606  150.8699 C   0  0  1  0  0  0  0  0  0  0  0  0
  145.2868  130.5247  150.7972 C   0  0  0  0  0  0  0  0  0  0  0  0
  146.4343  130.0427  151.4636 O   0  0  0  0  0  0  0  0  0  0  0  0
  144.4590  132.7851  149.7560 C   0  0  1  0  0  0  0  0  0  0  0  0
  143.2780  132.0884  149.4035 O   0  0  0  0  0  0  0  0  0  0  0  0
  144.1154  134.1149  150.4082 C   0  0  2  0  0  0  0  0  0  0  0  0
  145.1327  135.0698  150.1635 O   0  0  0  0  0  0  0  0  0  0  0  0
  149.2780  138.2975  156.3807 C   0  0  0  0  0  0  0  0  0  0  0  0
  149.9285  137.9610  155.0214 C   0  0  0  0  0  0  0  0  0  0  0  0
  150.8948  139.0693  154.5718 C   0  0  0  0  0  0  0  0  0  0  0  0
  151.9710  139.3350  155.6361 C   0  0  0  0  0  0  0  0  0  0  0  0
  151.3373  139.6652  156.9967 C   0  0  0  0  0  0  0  0  0  0  0  0
  150.3692  138.5577  157.4446 C   0  0  0  0  0  0  0  0  0  0  0  0
  142.9271  133.6138  152.1951 H   0  0  0  0  0  0  0  0  0  0  0  0
  146.2491  132.4463  150.8813 H   0  0  0  0  0  0  0  0  0  0  0  0
  145.0617  132.9040  148.8545 H   0  0  0  0  0  0  0  0  0  0  0  0
  143.1736  134.5287  150.0453 H   0  0  0  0  0  0  0  0  0  0  0  0
  147.1158  136.6761  160.7547 H   0  0  0  0  0  0  0  0  0  0  0  0
  149.4692  137.1197  159.2941 H   0  0  0  0  0  0  0  0  0  0  0  0
  148.3852  135.7367  159.2460 H   0  0  0  0  0  0  0  0  0  0  0  0
  146.5835  137.1532  158.2508 H   0  0  0  0  0  0  0  0  0  0  0  0
  147.5876  138.5684  158.4236 H   0  0  0  0  0  0  0  0  0  0  0  0
  148.7163  136.2825  156.8663 H   0  0  0  0  0  0  0  0  0  0  0  0
  146.5433  137.9731  155.7597 H   0  0  0  0  0  0  0  0  0  0  0  0
  148.6768  133.4388  154.0216 H   0  0  0  0  0  0  0  0  0  0  0  0
  142.9306  136.1556  153.0050 H   0  0  0  0  0  0  0  0  0  0  0  0
  144.4072  130.0994  151.2811 H   0  0  0  0  0  0  0  0  0  0  0  0
  145.2832  130.1701  149.7664 H   0  0  0  0  0  0  0  0  0  0  0  0
  147.1980  130.4356  151.0691 H   0  0  0  0  0  0  0  0  0  0  0  0
  142.5554  132.6971  149.4302 H   0  0  0  0  0  0  0  0  0  0  0  0
  145.3949  135.0017  149.2582 H   0  0  0  0  0  0  0  0  0  0  0  0
  148.7490  139.2404  156.2329 H   0  0  0  0  0  0  0  0  0  0  0  0
  150.4761  137.0207  155.0803 H   0  0  0  0  0  0  0  0  0  0  0  0
  149.1567  137.8227  154.2635 H   0  0  0  0  0  0  0  0  0  0  0  0
  151.3660  138.7907  153.6286 H   0  0  0  0  0  0  0  0  0  0  0  0
  150.3360  139.9860  154.3793 H   0  0  0  0  0  0  0  0  0  0  0  0
  152.6109  138.4573  155.7348 H   0  0  0  0  0  0  0  0  0  0  0  0
  152.6158  140.1544  155.3171 H   0  0  0  0  0  0  0  0  0  0  0  0
  152.1177  139.8015  157.7461 H   0  0  0  0  0  0  0  0  0  0  0  0
  150.8030  140.6139  156.9313 H   0  0  0  0  0  0  0  0  0  0  0  0
  149.9136  138.8395  158.3942 H   0  0  0  0  0  0  0  0  0  0  0  0
  150.9377  137.6466  157.6324 H   0  0  0  0  0  0  0  0  0  0  0  0
  1  2  1  0  0  0  0
  1 34  1  0  0  0  0
  2  3  1  0  0  0  0
  2 35  1  0  0  0  0
  2 36  1  0  0  0  0
  3  4  1  0  0  0  0
  3 37  1  0  0  0  0
  3 38  1  0  0  0  0
  4  5  1  0  0  0  0
  4 24  1  0  0  0  0
  4 39  1  0  0  0  0
  5  6  1  0  0  0  0
  5 40  1  0  0  0  0
  6 11  1  0  0  0  0
  6  7  2  0  0  0  0
  7  8  1  0  0  0  0
  8  9  2  0  0  0  0
  8 41  1  0  0  0  0
  9 10  1  0  0  0  0
 10 14  1  0  0  0  0
 10 11  2  0  0  0  0
 11 12  1  0  0  0  0
 12 13  2  0  0  0  0
 13 14  1  0  0  0  0
 13 42  1  0  0  0  0
 14 15  1  0  0  0  0
 15 30  1  0  0  0  0
 15 22  1  0  0  0  0
 15 16  1  0  0  0  0
 16 17  1  0  0  0  0
 17 31  1  0  0  0  0
 17 18  1  0  0  0  0
 17 20  1  0  0  0  0
 18 19  1  0  0  0  0
 18 43  1  0  0  0  0
 18 44  1  0  0  0  0
 19 45  1  0  0  0  0
 20 32  1  0  0  0  0
 20 21  1  0  0  0  0
 20 22  1  0  0  0  0
 21 46  1  0  0  0  0
 22 33  1  0  0  0  0
 22 23  1  0  0  0  0
 23 47  1  0  0  0  0
 24 29  1  0  0  0  0
 24 25  1  0  0  0  0
 24 48  1  0  0  0  0
 25 26  1  0  0  0  0
 25 49  1  0  0  0  0
 25 50  1  0  0  0  0
 26 27  1  0  0  0  0
 26 51  1  0  0  0  0
 26 52  1  0  0  0  0
 27 28  1  0  0  0  0
 27 53  1  0  0  0  0
 27 54  1  0  0  0  0
 28 29  1  0  0  0  0
 28 55  1  0  0  0  0
 28 56  1  0  0  0  0
 29 57  1  0  0  0  0
 29 58  1  0  0  0  0
M  END
> <s_m_source_file>
AV-unprocessed.smi

> <i_m_source_file_index>
109

> <i_lp_mmshare_version>
43012

> <i_f3d_flags>
0

> <s_epik_input>
W0NIMl0xW0NIMl1bQ0gyXVtDSDJdW0NIMl1bQ0hdMVtDQEhdKFtDSDJdW0NIMl1bT0hdKVtOSF1jKG5bY0hdbjIpYyhjMjMpbltjSF1uM1tDQEBIXTRPW0NASF0oW0NIMl1bT0hdKVtDQEBIXShbT0hdKVtDQEhdNFtPSF0=

> <s_epik_cmdline>
J2VwaWtfcHl0aG9uJywgJy1waCcsICc3LjAnLCAnLXRuJywgJzgnLCAnLW1hJywgJzIwMCcsICctbWV0YWxfYmluZGluZycsICctaW1hZScsICc8aW5maWxlLm1hZT4nLCAnLW9tYWUnLCAnPG91dGZpbGUubWFlPic=

> <r_lp_tautomer_probability>
1

> <r_epik_Ionization_Penalty>
0.000793976

> <r_epik_Ionization_Penalty_Charging>
0

> <r_epik_Ionization_Penalty_Neutral>
0.000793976

> <r_epik_State_Penalty>
-0

> <r_epik_Charging_Adjusted_Penalty>
0

> <i_epik_Tot_Q>
0

> <i_epik_Tot_abs_Q>
0

> <r_epik_Metal_State_Penalty>
-0

> <b_epik_Metal_Only>
0

> <s_epik_Chemistry_Notes>
This compound contains an acetal/aminal-like group ( X-CH(R)-Y where X, Y are N, S, or O) that may be acid/base labile, releasing an aldehyde.

> <s_lp_Force_Field>
OPLS_2005

> <r_lp_Energy>
55.7279

> <b_lp_Chiralities_Consistent>
1

> <s_lp_Variant>
AV-unprocessed.smi:109-22

> <Gold.Version>
5.8.1

> <Gold.Id.Protein>
6NUR|6NUR_protein|mol2

> <Gold.PLP.Fitness>
46.2542

> <Gold.PLP.PLP>
-34.3699

> <Gold.PLP.part.hbond>
-6.2746

> <Gold.PLP.part.metal>
0.0000

> <Gold.PLP.part.buried>
-6.3507

> <Gold.PLP.part.nonpolar>
-22.4566

> <Gold.PLP.part.repulsive>
0.3741

> <Gold.PLP.ligand.clash>
0.0000

> <Gold.PLP.ligand.torsion>
1.5182

> <Gold.PLP.Chemscore.Hbond>
4.8513

> <Gold.PLP.Chemscore.CHOScore>
0.0000

> <Gold.PLP.Chemscore.Metal>
0.0000

> <Gold.Chemscore.Hbonds>
donor molecule, donor type, donor heavy atom, donor atom, acceptor molecule, acceptor atom, score
      L1  H    19    45       P1 10747  1.00
      L1  H    21    46       P1 10186  0.29
      L1  H    23    47       P1  7921  1.00
      P1  H  6931  6943       L1     1  0.78
      P1  H  6934  6947       L1     1  0.82
      P1  H 10785 10796       L1    21  0.93

> <Gold.PLP.Chemscore.Internal.Correction>
0.3671

> <Gold.Rescore>
     Score         DG    S(hbond)    S(metal)    S(lipo)     H(rot)  DE(clash)    DE(int)     intcor
     12.20     -16.28       4.85        0.00      73.37       5.47       1.33       2.76       ----

> <Gold.Chemscore.Fitness>
12.1956

> <Gold.Chemscore.DG>
-16.2827

> <Gold.Chemscore.ZeroCoef>
-5.4800

> <Gold.Chemscore.Hbond>
4.8537

> <Gold.Chemscore.Metal>
0.0000

> <Gold.Chemscore.Lipo>
73.3745

> <Gold.Chemscore.Internal_Hbond>
0.0000

> <Gold.Chemscore.DEClash>
1.3288

> <Gold.Chemscore.DEInternal>
2.7583

> <Gold.Chemscore.Rot>
5.4662

> <Gold.Chemscore.Internal.Correction>
   9.000000E+99

> <Gold.Chemscore.Hbonds>
donor molecule, donor type, donor heavy atom, donor atom, acceptor molecule, acceptor atom, score
      L1  H    19    45       P1 10747  0.97
      L1  H    21    46       P1 10186  0.29
      L1  H    23    47       P1  7921  1.00
      P1  H  6931  6943       L1     1  0.71
      P1  H  6934  6947       L1     1  0.23
      P1  H 10785 10796       L1    21  0.86

> <Gold.Chemscore.Hbond.Weighted>
-16.2114

> <Gold.Chemscore.Metal.Weighted>
-0.0000

> <Gold.Chemscore.Lipo.Weighted>
-8.5848

> <Gold.Chemscore.Internal_Hbond.Weighted>
0.0000

> <Gold.Chemscore.DEClash.Weighted>
1.3288

> <Gold.Chemscore.DEInternal.Weighted>
2.7583

> <Gold.Chemscore.Rot.Weighted>
13.9935

> <Gold.Chemscore.Internal.Correction.Weighted>
   9.000000E+99

> <Gold.Protein.RotatedTorsions>
[ 6907 6896 6895 6894 ] final  148.79 input  -60.11 | X-H torsion
[ 7974 7965 7964 7962 ] final  -37.66 input  175.53 | X-H torsion
[ 8008 7997 7996 7995 ] final  167.89 input   59.86 | X-H torsion
[ 10167 10162 10161 10158 ] final  -99.97 input  -65.29 | X-H torsion
[ 10718 10713 10712 10709 ] final   58.30 input   66.30 | X-H torsion
[ 10763 10752 10751 10750 ] final  147.99 input  -60.55 | X-H torsion
[ 11005 11000 10999 10996 ] final  -83.25 input  -57.11 | X-H torsion

> <Gold.Protein.ActiveResidues>
 VAL166  LYS551  ARG553  GLY616  TRP617  ASP618  TYR619  PRO620  LYS621  CYS622 
 ASP623  PHE694  ASN695  SER759  ASP760  ASP761  ALA762  ILE779  LEU786  VAL792 
 PHE793  MET794  SER795  GLU796  ALA797  LYS798  CYS799  TRP800  GLU811  SER814 

> <Gold.Protein.RotatedAtoms>
  152.1367  133.4439  159.4746 H   0  0  0  0  0  0  0  0  0  0  0  0  # atno 6907 bound_to 6896
  150.6882  134.2355  159.4460 H   0  0  0  0  0  0  0  0  0  0  0  0  # atno 6908 bound_to 6896
  152.0242  134.9804  160.0622 H   0  0  0  0  0  0  0  0  0  0  0  0  # atno 6909 bound_to 6896
  146.0555  140.6422  142.9022 H   0  0  0  0  0  0  0  0  0  0  0  0  # atno 7974 bound_to 7965
  156.1594  140.1605  156.8637 H   0  0  0  0  0  0  0  0  0  0  0  0  # atno 8008 bound_to 7997
  154.5146  140.0792  156.8092 H   0  0  0  0  0  0  0  0  0  0  0  0  # atno 8009 bound_to 7997
  155.3737  140.3401  155.4246 H   0  0  0  0  0  0  0  0  0  0  0  0  # atno 8010 bound_to 7997
  140.2568  143.3434  152.0663 H   0  0  0  0  0  0  0  0  0  0  0  0  # atno 10167 bound_to 10162
  157.5585  130.8818  149.9073 H   0  0  0  0  0  0  0  0  0  0  0  0  # atno 10718 bound_to 10713
  154.0473  135.2884  155.3346 H   0  0  0  0  0  0  0  0  0  0  0  0  # atno 10763 bound_to 10752
  154.6891  135.5233  153.8371 H   0  0  0  0  0  0  0  0  0  0  0  0  # atno 10764 bound_to 10752
  153.0575  135.6601  154.0672 H   0  0  0  0  0  0  0  0  0  0  0  0  # atno 10765 bound_to 10752
  141.1659  133.7285  156.8692 H   0  0  0  0  0  0  0  0  0  0  0  0  # atno 11005 bound_to 11000
  144.7146  140.4162  143.7054 LP  0  0  0  0  0  0  0  0  0  0  0  0  # atno 17320 bound_to 7965
  145.6651  139.1588  143.2786 LP  0  0  0  0  0  0  0  0  0  0  0  0  # atno 17321 bound_to 7965
  139.5029  144.6744  151.6165 LP  0  0  0  0  0  0  0  0  0  0  0  0  # atno 17342 bound_to 10162
  140.5997  143.9632  150.6378 LP  0  0  0  0  0  0  0  0  0  0  0  0  # atno 17343 bound_to 10162
  156.0640  130.3695  150.0918 LP  0  0  0  0  0  0  0  0  0  0  0  0  # atno 17370 bound_to 10713
  156.9084  130.9643  151.3566 LP  0  0  0  0  0  0  0  0  0  0  0  0  # atno 17371 bound_to 10713
  140.1794  134.9044  157.2930 LP  0  0  0  0  0  0  0  0  0  0  0  0  # atno 17394 bound_to 11000
  140.2412  134.3793  155.7480 LP  0  0  0  0  0  0  0  0  0  0  0  0  # atno 17395 bound_to 11000

$$$$
