AV-unprocessed.smi:1017|AV-procd|sdf|4438|dock10
  -GOLD-   22720 2393D 1   1.00000     0.00000
 Structure written by MMmdl.
 44 45  0  0  0  0  0  0  0  0  1 V2000
  152.2377  144.8926  158.8401 C   0  0  0  0  0  0  0  0  0  0  0  0
  151.7730  143.7799  158.0965 O   0  0  0  0  0  0  0  0  0  0  0  0
  152.1237  142.5430  158.6933 C   0  0  0  0  0  0  0  0  0  0  0  0
  151.5645  141.4004  157.8320 C   0  0  0  0  0  0  0  0  0  0  0  0
  150.1898  141.6725  157.3989 N   0  0  0  0  0  0  0  0  0  0  0  0
  149.4044  142.2833  158.3623 N   0  0  0  0  0  0  0  0  0  0  0  0
  148.1707  142.5751  158.1098 C   0  0  0  0  0  0  0  0  0  0  0  0
  147.3386  143.2383  159.1540 C   0  0  0  0  0  0  0  0  0  0  0  0
  147.8563  143.6924  160.1748 O   0  0  0  0  0  0  0  0  0  0  0  0
  146.0177  143.3070  158.8982 N   0  0  0  0  0  0  0  0  0  0  0  0
  144.9300  143.8996  159.6943 C   0  0  0  0  0  0  0  0  0  0  0  0
  144.8125  143.1729  161.0656 C   0  0  0  0  0  0  0  0  0  0  0  0
  143.7998  143.6746  161.7739 F   0  0  0  0  0  0  0  0  0  0  0  0
  144.5859  141.8710  160.8818 F   0  0  0  0  0  0  0  0  0  0  0  0
  145.9186  143.3057  161.7971 F   0  0  0  0  0  0  0  0  0  0  0  0
  145.1190  145.4312  159.8913 C   0  0  0  0  0  0  0  0  0  0  0  0
  145.1175  146.2142  158.5655 C   0  0  0  0  0  0  0  0  0  0  0  0
  143.8248  145.9611  157.7773 C   0  0  0  0  0  0  0  0  0  0  0  0
  143.5988  144.4593  157.5516 C   0  0  0  0  0  0  0  0  0  0  0  0
  143.6243  143.6814  158.8824 C   0  0  0  0  0  0  0  0  0  0  0  0
  147.5852  142.2653  156.8108 C   0  0  0  0  0  0  0  0  0  0  0  0
  148.3645  141.6680  155.8831 C   0  0  0  0  0  0  0  0  0  0  0  0
  149.7629  141.3283  156.1468 C   0  0  0  0  0  0  0  0  0  0  0  0
  150.4893  140.7796  155.3187 O   0  0  0  0  0  0  0  0  0  0  0  0
  151.9476  145.8152  158.3371 H   0  0  0  0  0  0  0  0  0  0  0  0
  153.3251  144.8838  158.9258 H   0  0  0  0  0  0  0  0  0  0  0  0
  151.8071  144.9054  159.8423 H   0  0  0  0  0  0  0  0  0  0  0  0
  153.2093  142.4650  158.7727 H   0  0  0  0  0  0  0  0  0  0  0  0
  151.7136  142.4865  159.7031 H   0  0  0  0  0  0  0  0  0  0  0  0
  152.2078  141.2572  156.9618 H   0  0  0  0  0  0  0  0  0  0  0  0
  151.6091  140.4597  158.3836 H   0  0  0  0  0  0  0  0  0  0  0  0
  145.7206  142.8933  158.0265 H   0  0  0  0  0  0  0  0  0  0  0  0
  144.3103  145.8135  160.5152 H   0  0  0  0  0  0  0  0  0  0  0  0
  146.0316  145.6503  160.4443 H   0  0  0  0  0  0  0  0  0  0  0  0
  145.2230  147.2803  158.7671 H   0  0  0  0  0  0  0  0  0  0  0  0
  145.9805  145.9313  157.9616 H   0  0  0  0  0  0  0  0  0  0  0  0
  142.9781  146.3794  158.3231 H   0  0  0  0  0  0  0  0  0  0  0  0
  143.8636  146.4813  156.8197 H   0  0  0  0  0  0  0  0  0  0  0  0
  142.6421  144.3033  157.0524 H   0  0  0  0  0  0  0  0  0  0  0  0
  144.3610  144.0714  156.8749 H   0  0  0  0  0  0  0  0  0  0  0  0
  143.4789  142.6191  158.6817 H   0  0  0  0  0  0  0  0  0  0  0  0
  142.7638  143.9923  159.4757 H   0  0  0  0  0  0  0  0  0  0  0  0
  146.5580  142.4986  156.5725 H   0  0  0  0  0  0  0  0  0  0  0  0
  147.9442  141.4332  154.9162 H   0  0  0  0  0  0  0  0  0  0  0  0
  1  2  1  0  0  0  0
  1 25  1  0  0  0  0
  1 26  1  0  0  0  0
  1 27  1  0  0  0  0
  2  3  1  0  0  0  0
  3  4  1  0  0  0  0
  3 28  1  0  0  0  0
  3 29  1  0  0  0  0
  4  5  1  0  0  0  0
  4 30  1  0  0  0  0
  4 31  1  0  0  0  0
  5 23  1  0  0  0  0
  5  6  1  0  0  0  0
  6  7  2  0  0  0  0
  7  8  1  0  0  0  0
  7 21  1  0  0  0  0
  8  9  2  0  0  0  0
  8 10  1  0  0  0  0
 10 11  1  0  0  0  0
 10 32  1  0  0  0  0
 11 20  1  0  0  0  0
 11 12  1  0  0  0  0
 11 16  1  0  0  0  0
 12 13  1  0  0  0  0
 12 14  1  0  0  0  0
 12 15  1  0  0  0  0
 16 17  1  0  0  0  0
 16 33  1  0  0  0  0
 16 34  1  0  0  0  0
 17 18  1  0  0  0  0
 17 35  1  0  0  0  0
 17 36  1  0  0  0  0
 18 19  1  0  0  0  0
 18 37  1  0  0  0  0
 18 38  1  0  0  0  0
 19 20  1  0  0  0  0
 19 39  1  0  0  0  0
 19 40  1  0  0  0  0
 20 41  1  0  0  0  0
 20 42  1  0  0  0  0
 21 22  2  0  0  0  0
 21 43  1  0  0  0  0
 22 23  1  0  0  0  0
 22 44  1  0  0  0  0
 23 24  2  0  0  0  0
M  END
> <s_m_source_file>
AV-unprocessed.smi

> <i_m_source_file_index>
1017

> <i_lp_mmshare_version>
43012

> <i_f3d_flags>
0

> <s_epik_input>
W0NIM11PW0NIMl1bQ0gyXW4xbmMoW2NIXVtjSF1jMT1PKUMoPU8pW05IXUMyKEMoRikoRilGKVtDSDJdW0NIMl1bQ0gyXVtDSDJdW0NIMl0y

> <s_epik_cmdline>
J2VwaWtfcHl0aG9uJywgJy1waCcsICc3LjAnLCAnLXRuJywgJzgnLCAnLW1hJywgJzIwMCcsICctbWV0YWxfYmluZGluZycsICctaW1hZScsICc8aW5maWxlLm1hZT4nLCAnLW9tYWUnLCAnPG91dGZpbGUubWFlPic=

> <r_lp_tautomer_probability>
1

> <r_epik_Ionization_Penalty>
9.29602e-06

> <r_epik_Ionization_Penalty_Charging>
4.97824e-09

> <r_epik_Ionization_Penalty_Neutral>
9.29104e-06

> <r_epik_State_Penalty>
-0

> <r_epik_Charging_Adjusted_Penalty>
4.97824e-09

> <i_epik_Tot_Q>
0

> <i_epik_Tot_abs_Q>
0

> <r_epik_Metal_State_Penalty>
0.00907788

> <b_epik_Metal_Only>
0

> <s_lp_Force_Field>
OPLS_2005

> <r_lp_Energy>
35.4859

> <b_lp_Chiralities_Consistent>
1

> <s_lp_Variant>
AV-unprocessed.smi:1017-1

> <Gold.Version>
5.8.1

> <Gold.Id.Protein>
6NUR|6NUR_protein|mol2

> <Gold.PLP.Fitness>
39.2198

> <Gold.PLP.PLP>
-35.1053

> <Gold.PLP.part.hbond>
-2.0000

> <Gold.PLP.part.metal>
0.0000

> <Gold.PLP.part.buried>
-4.0069

> <Gold.PLP.part.nonpolar>
-29.0454

> <Gold.PLP.part.repulsive>
0.4596

> <Gold.PLP.ligand.clash>
0.0000

> <Gold.PLP.ligand.torsion>
0.4380

> <Gold.PLP.Chemscore.Hbond>
1.6339

> <Gold.PLP.Chemscore.CHOScore>
0.0000

> <Gold.PLP.Chemscore.Metal>
0.0000

> <Gold.Chemscore.Hbonds>
donor molecule, donor type, donor heavy atom, donor atom, acceptor molecule, acceptor atom, score
      P1  H  6933  6944       L1     9  1.00
      P1  H  7989  7998       L1    24  0.61

> <Gold.PLP.Chemscore.Internal.Correction>
0.0887

> <Gold.Rescore>
     Score         DG    S(hbond)    S(metal)    S(lipo)     H(rot)  DE(clash)    DE(int)     intcor
     10.65     -14.10       1.67        0.00      63.11       1.70       0.28       3.18       ----

> <Gold.Chemscore.Fitness>
10.6454

> <Gold.Chemscore.DG>
-14.1046

> <Gold.Chemscore.ZeroCoef>
-5.4800

> <Gold.Chemscore.Hbond>
1.6730

> <Gold.Chemscore.Metal>
0.0000

> <Gold.Chemscore.Lipo>
63.1132

> <Gold.Chemscore.Internal_Hbond>
0.0000

> <Gold.Chemscore.DEClash>
0.2801

> <Gold.Chemscore.DEInternal>
3.1790

> <Gold.Chemscore.Rot>
1.6982

> <Gold.Chemscore.Internal.Correction>
   9.000000E+99

> <Gold.Chemscore.Hbonds>
donor molecule, donor type, donor heavy atom, donor atom, acceptor molecule, acceptor atom, score
      P1  H  6933  6944       L1     9  0.89
      P1  H  7989  7998       L1    24  0.59

> <Gold.Chemscore.Hbond.Weighted>
-5.5877

> <Gold.Chemscore.Metal.Weighted>
-0.0000

> <Gold.Chemscore.Lipo.Weighted>
-7.3842

> <Gold.Chemscore.Internal_Hbond.Weighted>
0.0000

> <Gold.Chemscore.DEClash.Weighted>
0.2801

> <Gold.Chemscore.DEInternal.Weighted>
3.1790

> <Gold.Chemscore.Rot.Weighted>
4.3474

> <Gold.Chemscore.Internal.Correction.Weighted>
   9.000000E+99

> <Gold.Protein.RotatedTorsions>
[ 6907 6896 6895 6894 ] final -179.65 input  -60.11 | X-H torsion
[ 7974 7965 7964 7962 ] final  167.94 input  175.53 | X-H torsion
[ 8008 7997 7996 7995 ] final  174.42 input   59.86 | X-H torsion
[ 10167 10162 10161 10158 ] final -135.51 input  -65.29 | X-H torsion
[ 10718 10713 10712 10709 ] final   26.34 input   66.30 | X-H torsion
[ 10763 10752 10751 10750 ] final  173.64 input  -60.55 | X-H torsion
[ 11005 11000 10999 10996 ] final   68.47 input  -57.11 | X-H torsion

> <Gold.Protein.ActiveResidues>
 VAL166  LYS551  ARG553  GLY616  TRP617  ASP618  TYR619  PRO620  LYS621  CYS622 
 ASP623  PHE694  ASN695  SER759  ASP760  ASP761  ALA762  ILE779  LEU786  VAL792 
 PHE793  MET794  SER795  GLU796  ALA797  LYS798  CYS799  TRP800  GLU811  SER814 

> <Gold.Protein.RotatedAtoms>
  151.6568  133.3318  159.3164 H   0  0  0  0  0  0  0  0  0  0  0  0  # atno 6907 bound_to 6896
  150.7933  134.6977  159.6542 H   0  0  0  0  0  0  0  0  0  0  0  0  # atno 6908 bound_to 6896
  152.4016  134.6280  160.0119 H   0  0  0  0  0  0  0  0  0  0  0  0  # atno 6909 bound_to 6896
  144.7406  139.8835  143.6398 H   0  0  0  0  0  0  0  0  0  0  0  0  # atno 7974 bound_to 7965
  156.0976  140.1435  156.9510 H   0  0  0  0  0  0  0  0  0  0  0  0  # atno 8008 bound_to 7997
  154.4681  140.0919  156.7120 H   0  0  0  0  0  0  0  0  0  0  0  0  # atno 8009 bound_to 7997
  155.4815  140.3445  155.4343 H   0  0  0  0  0  0  0  0  0  0  0  0  # atno 8010 bound_to 7997
  139.8771  143.6885  152.2632 H   0  0  0  0  0  0  0  0  0  0  0  0  # atno 10167 bound_to 10162
  157.2054  130.6909  149.6206 H   0  0  0  0  0  0  0  0  0  0  0  0  # atno 10718 bound_to 10713
  154.4428  135.2762  155.1835 H   0  0  0  0  0  0  0  0  0  0  0  0  # atno 10763 bound_to 10752
  154.3695  135.6112  153.5736 H   0  0  0  0  0  0  0  0  0  0  0  0  # atno 10764 bound_to 10752
  152.9842  135.5854  154.4759 H   0  0  0  0  0  0  0  0  0  0  0  0  # atno 10765 bound_to 10752
  139.9709  134.6901  156.0448 H   0  0  0  0  0  0  0  0  0  0  0  0  # atno 11005 bound_to 11000
  146.1194  139.4210  143.0238 LP  0  0  0  0  0  0  0  0  0  0  0  0  # atno 17320 bound_to 7965
  145.7327  141.0036  143.1343 LP  0  0  0  0  0  0  0  0  0  0  0  0  # atno 17321 bound_to 7965
  139.7230  144.7599  151.0924 LP  0  0  0  0  0  0  0  0  0  0  0  0  # atno 17342 bound_to 10162
  140.7751  143.5184  150.9567 LP  0  0  0  0  0  0  0  0  0  0  0  0  # atno 17343 bound_to 10162
  155.9696  130.4568  150.5941 LP  0  0  0  0  0  0  0  0  0  0  0  0  # atno 17370 bound_to 10713
  157.3725  131.0768  151.1546 LP  0  0  0  0  0  0  0  0  0  0  0  0  # atno 17371 bound_to 10713
  141.1389  133.6569  156.3672 LP  0  0  0  0  0  0  0  0  0  0  0  0  # atno 17394 bound_to 11000
  140.5295  134.6227  157.5345 LP  0  0  0  0  0  0  0  0  0  0  0  0  # atno 17395 bound_to 11000

$$$$
