AV-unprocessed.smi:1228|AV-procd|sdf|5149|dock3
  -GOLD-   22720 4223D 1   1.00000     0.00000
 Structure written by MMmdl.
 43 45  0  0  0  0  0  0  0  0  1 V2000
  150.6588  140.6281  155.4964 C   0  0  0  0  0  0  0  0  0  0  0  0
  149.3059  140.6227  154.8481 C   0  0  0  0  0  0  0  0  0  0  0  0
  148.5688  139.5027  154.3644 C   0  0  0  0  0  0  0  0  0  0  0  0
  147.4244  140.0795  153.8852 C   0  0  0  0  0  0  0  0  0  0  0  0
  146.3468  139.4880  153.3042 N   0  0  0  0  0  0  0  0  0  0  0  0
  146.2041  138.2144  152.8974 C   0  0  0  0  0  0  0  0  0  0  0  0
  147.0621  137.3357  152.9847 O   0  0  0  0  0  0  0  0  0  0  0  0
  144.9881  138.0093  152.3709 N   0  0  0  0  0  0  0  0  0  0  0  0
  144.5057  136.7395  151.8357 C   0  0  0  0  0  0  0  0  0  0  0  0
  144.0876  135.7872  152.9702 C   0  0  0  0  0  0  0  0  0  0  0  0
  143.7293  134.3953  152.4207 C   0  0  0  0  0  0  0  0  0  0  0  0
  144.8644  133.8312  151.6894 N   0  0  0  0  0  0  0  0  0  0  0  0
  144.5070  132.5017  151.2221 C   0  0  0  0  0  0  0  0  0  0  0  0
  145.2250  131.9738  150.0012 C   0  0  0  0  0  0  0  0  0  0  0  0
  143.7791  132.3958  149.9014 C   0  0  0  0  0  0  0  0  0  0  0  0
  145.1771  134.6709  150.5329 C   0  0  0  0  0  0  0  0  0  0  0  0
  145.6081  136.0731  150.9979 C   0  0  0  0  0  0  0  0  0  0  0  0
  147.4979  141.4410  154.0786 N   0  0  0  0  0  0  0  0  0  0  0  0
  146.5358  142.4727  153.7427 C   0  0  0  0  0  0  0  0  0  0  0  0
  148.6633  141.7723  154.6753 N   0  0  0  0  0  0  0  0  0  0  0  0
  151.0493  139.6157  155.6015 H   0  0  0  0  0  0  0  0  0  0  0  0
  150.6163  141.0713  156.4916 H   0  0  0  0  0  0  0  0  0  0  0  0
  151.3749  141.2000  154.9060 H   0  0  0  0  0  0  0  0  0  0  0  0
  148.8510  138.4607  154.3784 H   0  0  0  0  0  0  0  0  0  0  0  0
  145.5507  140.0918  153.1613 H   0  0  0  0  0  0  0  0  0  0  0  0
  144.3464  138.7878  152.3374 H   0  0  0  0  0  0  0  0  0  0  0  0
  143.6462  136.9222  151.1874 H   0  0  0  0  0  0  0  0  0  0  0  0
  144.8965  135.6921  153.6962 H   0  0  0  0  0  0  0  0  0  0  0  0
  143.2337  136.1971  153.5107 H   0  0  0  0  0  0  0  0  0  0  0  0
  143.4660  133.7361  153.2488 H   0  0  0  0  0  0  0  0  0  0  0  0
  142.8552  134.4577  151.7703 H   0  0  0  0  0  0  0  0  0  0  0  0
  144.2362  131.7487  151.9607 H   0  0  0  0  0  0  0  0  0  0  0  0
  145.9676  132.6143  149.5289 H   0  0  0  0  0  0  0  0  0  0  0  0
  145.4418  130.9080  149.9698 H   0  0  0  0  0  0  0  0  0  0  0  0
  143.0319  131.6109  149.8025 H   0  0  0  0  0  0  0  0  0  0  0  0
  143.5619  133.3163  149.3626 H   0  0  0  0  0  0  0  0  0  0  0  0
  145.9844  134.2145  149.9589 H   0  0  0  0  0  0  0  0  0  0  0  0
  144.3126  134.7396  149.8707 H   0  0  0  0  0  0  0  0  0  0  0  0
  145.8448  136.6918  150.1317 H   0  0  0  0  0  0  0  0  0  0  0  0
  146.5265  135.9930  151.5820 H   0  0  0  0  0  0  0  0  0  0  0  0
  146.2524  142.3833  152.6935 H   0  0  0  0  0  0  0  0  0  0  0  0
  146.9612  143.4633  153.9091 H   0  0  0  0  0  0  0  0  0  0  0  0
  145.6471  142.3593  154.3638 H   0  0  0  0  0  0  0  0  0  0  0  0
  1  2  1  0  0  0  0
  1 21  1  0  0  0  0
  1 22  1  0  0  0  0
  1 23  1  0  0  0  0
  2 20  2  0  0  0  0
  2  3  1  0  0  0  0
  3  4  2  0  0  0  0
  3 24  1  0  0  0  0
  4  5  1  0  0  0  0
  4 18  1  0  0  0  0
  5  6  1  0  0  0  0
  5 25  1  0  0  0  0
  6  7  2  0  0  0  0
  6  8  1  0  0  0  0
  8  9  1  0  0  0  0
  8 26  1  0  0  0  0
  9 17  1  0  0  0  0
  9 10  1  0  0  0  0
  9 27  1  0  0  0  0
 10 11  1  0  0  0  0
 10 28  1  0  0  0  0
 10 29  1  0  0  0  0
 11 12  1  0  0  0  0
 11 30  1  0  0  0  0
 11 31  1  0  0  0  0
 12 13  1  0  0  0  0
 12 16  1  0  0  0  0
 13 15  1  0  0  0  0
 13 14  1  0  0  0  0
 13 32  1  0  0  0  0
 14 15  1  0  0  0  0
 14 33  1  0  0  0  0
 14 34  1  0  0  0  0
 15 35  1  0  0  0  0
 15 36  1  0  0  0  0
 16 17  1  0  0  0  0
 16 37  1  0  0  0  0
 16 38  1  0  0  0  0
 17 39  1  0  0  0  0
 17 40  1  0  0  0  0
 18 19  1  0  0  0  0
 18 20  1  0  0  0  0
 19 41  1  0  0  0  0
 19 42  1  0  0  0  0
 19 43  1  0  0  0  0
M  END
> <s_m_source_file>
AV-unprocessed.smi

> <i_m_source_file_index>
1228

> <i_lp_mmshare_version>
43012

> <i_f3d_flags>
0

> <s_epik_input>
W0NIM11jMVtjSF1jKG4objEpW0NIM10pW05IXUMoPU8pW05IXVtDSF0yW0NIMl1bQ0gyXU4oW0NIMl1bQ0gyXTIpW0NIXTNbQ0gyXVtDSDJdMw==

> <s_epik_cmdline>
J2VwaWtfcHl0aG9uJywgJy1waCcsICc3LjAnLCAnLXRuJywgJzgnLCAnLW1hJywgJzIwMCcsICctbWV0YWxfYmluZGluZycsICctaW1hZScsICc8aW5maWxlLm1hZT4nLCAnLW9tYWUnLCAnPG91dGZpbGUubWFlPic=

> <r_lp_tautomer_probability>
1

> <r_epik_Ionization_Penalty>
1.01084

> <r_epik_Ionization_Penalty_Charging>
0

> <r_epik_Ionization_Penalty_Neutral>
1.01084

> <r_epik_State_Penalty>
1.06014

> <r_epik_Charging_Adjusted_Penalty>
1.06014

> <i_epik_Tot_Q>
0

> <i_epik_Tot_abs_Q>
0

> <r_epik_Metal_State_Penalty>
1.06013

> <b_epik_Metal_Only>
0

> <s_lp_Force_Field>
OPLS_2005

> <r_lp_Energy>
22.8061

> <b_lp_Chiralities_Consistent>
1

> <s_lp_Variant>
AV-unprocessed.smi:1228-3

> <Gold.Version>
5.8.1

> <Gold.Id.Protein>
6NUR|6NUR_protein|mol2

> <Gold.PLP.Fitness>
40.1340

> <Gold.PLP.PLP>
-34.9023

> <Gold.PLP.part.hbond>
-3.0000

> <Gold.PLP.part.metal>
0.0000

> <Gold.PLP.part.buried>
-3.5751

> <Gold.PLP.part.nonpolar>
-33.1050

> <Gold.PLP.part.repulsive>
4.7372

> <Gold.PLP.ligand.clash>
0.2428

> <Gold.PLP.ligand.torsion>
0.8466

> <Gold.PLP.Chemscore.Hbond>
2.0000

> <Gold.PLP.Chemscore.CHOScore>
0.0000

> <Gold.PLP.Chemscore.Metal>
0.0000

> <Gold.Chemscore.Hbonds>
donor molecule, donor type, donor heavy atom, donor atom, acceptor molecule, acceptor atom, score
      L1  H     5    25       P1 10175  1.00
      L1  H     8    26       P1 10175  1.00

> <Gold.PLP.Chemscore.Internal.Correction>
1.1678

> <Gold.Rescore>
     Score         DG    S(hbond)    S(metal)    S(lipo)     H(rot)  DE(clash)    DE(int)     intcor
     13.35     -16.73       1.93        0.00      67.18       1.19       0.20       3.18       ----

> <Gold.Chemscore.Fitness>
13.3527

> <Gold.Chemscore.DG>
-16.7317

> <Gold.Chemscore.ZeroCoef>
-5.4800

> <Gold.Chemscore.Hbond>
1.9313

> <Gold.Chemscore.Metal>
0.0000

> <Gold.Chemscore.Lipo>
67.1780

> <Gold.Chemscore.Internal_Hbond>
0.0000

> <Gold.Chemscore.DEClash>
0.1999

> <Gold.Chemscore.DEInternal>
3.1792

> <Gold.Chemscore.Rot>
1.1948

> <Gold.Chemscore.Internal.Correction>
   9.000000E+99

> <Gold.Chemscore.Hbonds>
donor molecule, donor type, donor heavy atom, donor atom, acceptor molecule, acceptor atom, score
      L1  H     5    25       P1 10175  0.90
      L1  H     8    26       P1 10175  1.00

> <Gold.Chemscore.Hbond.Weighted>
-6.4506

> <Gold.Chemscore.Metal.Weighted>
-0.0000

> <Gold.Chemscore.Lipo.Weighted>
-7.8598

> <Gold.Chemscore.Internal_Hbond.Weighted>
0.0000

> <Gold.Chemscore.DEClash.Weighted>
0.1999

> <Gold.Chemscore.DEInternal.Weighted>
3.1792

> <Gold.Chemscore.Rot.Weighted>
3.0587

> <Gold.Chemscore.Internal.Correction.Weighted>
   9.000000E+99

> <Gold.Protein.RotatedTorsions>
[ 6907 6896 6895 6894 ] final   94.62 input  -60.11 | X-H torsion
[ 7974 7965 7964 7962 ] final  178.84 input  175.53 | X-H torsion
[ 8008 7997 7996 7995 ] final   20.01 input   59.86 | X-H torsion
[ 10167 10162 10161 10158 ] final  121.31 input  -65.29 | X-H torsion
[ 10718 10713 10712 10709 ] final  144.86 input   66.30 | X-H torsion
[ 10763 10752 10751 10750 ] final   35.22 input  -60.55 | X-H torsion
[ 11005 11000 10999 10996 ] final   64.07 input  -57.11 | X-H torsion

> <Gold.Protein.ActiveResidues>
 VAL166  LYS551  ARG553  GLY616  TRP617  ASP618  TYR619  PRO620  LYS621  CYS622 
 ASP623  PHE694  ASN695  SER759  ASP760  ASP761  ALA762  ILE779  LEU786  VAL792 
 PHE793  MET794  SER795  GLU796  ALA797  LYS798  CYS799  TRP800  GLU811  SER814 

> <Gold.Protein.RotatedAtoms>
  152.5448  134.1166  159.8380 H   0  0  0  0  0  0  0  0  0  0  0  0  # atno 6907 bound_to 6896
  151.1227  133.5085  159.2609 H   0  0  0  0  0  0  0  0  0  0  0  0  # atno 6908 bound_to 6896
  151.1762  135.0350  159.8827 H   0  0  0  0  0  0  0  0  0  0  0  0  # atno 6909 bound_to 6896
  144.7152  140.0459  143.6436 H   0  0  0  0  0  0  0  0  0  0  0  0  # atno 7974 bound_to 7965
  154.9293  140.3038  155.5176 H   0  0  0  0  0  0  0  0  0  0  0  0  # atno 8008 bound_to 7997
  156.3004  140.2357  156.4288 H   0  0  0  0  0  0  0  0  0  0  0  0  # atno 8009 bound_to 7997
  154.8253  140.0421  157.1428 H   0  0  0  0  0  0  0  0  0  0  0  0  # atno 8010 bound_to 7997
  139.5927  144.7031  151.3250 H   0  0  0  0  0  0  0  0  0  0  0  0  # atno 10167 bound_to 10162
  157.3521  131.0952  151.0991 H   0  0  0  0  0  0  0  0  0  0  0  0  # atno 10718 bound_to 10713
  153.0129  135.6339  154.1792 H   0  0  0  0  0  0  0  0  0  0  0  0  # atno 10763 bound_to 10752
  154.1533  135.2827  155.3131 H   0  0  0  0  0  0  0  0  0  0  0  0  # atno 10764 bound_to 10752
  154.6037  135.5579  153.7461 H   0  0  0  0  0  0  0  0  0  0  0  0  # atno 10765 bound_to 10752
  139.9983  134.6482  155.9973 H   0  0  0  0  0  0  0  0  0  0  0  0  # atno 11005 bound_to 11000
  145.9985  139.3072  143.0942 LP  0  0  0  0  0  0  0  0  0  0  0  0  # atno 17320 bound_to 7965
  145.8821  140.9356  143.0596 LP  0  0  0  0  0  0  0  0  0  0  0  0  # atno 17321 bound_to 7965
  140.7187  143.7196  150.7706 LP  0  0  0  0  0  0  0  0  0  0  0  0  # atno 17342 bound_to 10162
  140.0756  143.5019  152.2557 LP  0  0  0  0  0  0  0  0  0  0  0  0  # atno 17343 bound_to 10162
  157.2162  130.6460  149.5793 LP  0  0  0  0  0  0  0  0  0  0  0  0  # atno 17370 bound_to 10713
  155.9723  130.4644  150.6216 LP  0  0  0  0  0  0  0  0  0  0  0  0  # atno 17371 bound_to 10713
  141.1622  133.6538  156.4357 LP  0  0  0  0  0  0  0  0  0  0  0  0  # atno 17394 bound_to 11000
  140.4776  134.6695  157.5157 LP  0  0  0  0  0  0  0  0  0  0  0  0  # atno 17395 bound_to 11000

$$$$
