AV-unprocessed.smi:623|AV-procd|sdf|3096|dock8
  -GOLD-   22720 0 13D 1   1.00000     0.00000
 Structure written by MMmdl.
 44 46  0  0  0  0  0  0  0  0  2 V2000
  151.6223  140.7271  156.7821 C   0  0  0  0  0  0  0  0  0  0  0  0
  150.8701  139.4470  156.3203 C   0  0  0  0  0  0  0  0  0  0  0  0
  149.3898  139.6736  156.7385 C   0  0  0  0  0  0  0  0  0  0  0  0
  151.0619  139.1007  154.8300 C   0  0  1  0  0  0  0  0  0  0  0  0
  152.5781  138.8238  154.7158 C   0  0  0  0  0  0  0  0  0  0  0  0
  152.8978  138.1462  156.0650 C   0  0  0  0  0  0  0  0  0  0  0  0
  151.5135  138.1023  156.7625 C   0  0  1  0  0  0  0  0  0  0  0  0
  151.6245  137.8758  158.2838 C   0  0  0  0  0  0  0  0  0  0  0  0
  150.7105  137.0124  155.9881 C   0  0  1  0  0  0  0  0  0  0  0  0
  149.5476  136.5393  156.7290 N   0  0  0  0  0  0  0  0  0  0  0  0
  149.4441  135.3926  157.4177 C   0  0  0  0  0  0  0  0  0  0  0  0
  150.3695  134.5884  157.5217 O   0  0  0  0  0  0  0  0  0  0  0  0
  148.0890  135.0826  158.0788 C   0  0  0  0  0  0  0  0  0  0  0  0
  147.9659  135.5772  159.4636 N   0  0  0  0  0  0  0  0  0  0  0  0
  147.6765  134.6323  160.4639 C   0  0  0  0  0  0  0  0  0  0  0  0
  147.4933  134.9904  161.7489 C   0  0  0  0  0  0  0  0  0  0  0  0
  147.6035  136.4023  162.0939 C   0  0  0  0  0  0  0  0  0  0  0  0
  147.4355  136.7484  163.2613 O   0  0  0  0  0  0  0  0  0  0  0  0
  147.8897  137.2807  161.0888 N   0  5  0  0  0  0  0  0  0  0  0  0
  148.0686  136.9025  159.7854 C   0  0  0  0  0  0  0  0  0  0  0  0
  148.3048  137.7142  158.8904 O   0  0  0  0  0  0  0  0  0  0  0  0
  150.3478  137.7388  154.6719 C   0  0  0  0  0  0  0  0  0  0  0  0
  151.2068  141.6117  156.2987 H   0  0  0  0  0  0  0  0  0  0  0  0
  152.6895  140.7380  156.5741 H   0  0  0  0  0  0  0  0  0  0  0  0
  151.5150  140.8706  157.8577 H   0  0  0  0  0  0  0  0  0  0  0  0
  148.6907  138.9099  156.4101 H   0  0  0  0  0  0  0  0  0  0  0  0
  149.0157  140.6124  156.3293 H   0  0  0  0  0  0  0  0  0  0  0  0
  149.2971  139.7383  157.8229 H   0  0  0  0  0  0  0  0  0  0  0  0
  150.7061  139.8584  154.1311 H   0  0  0  0  0  0  0  0  0  0  0  0
  152.8183  138.1822  153.8672 H   0  0  0  0  0  0  0  0  0  0  0  0
  153.1466  139.7456  154.5906 H   0  0  0  0  0  0  0  0  0  0  0  0
  153.3349  137.1557  155.9333 H   0  0  0  0  0  0  0  0  0  0  0  0
  153.6223  138.7287  156.6347 H   0  0  0  0  0  0  0  0  0  0  0  0
  152.0592  136.8998  158.5014 H   0  0  0  0  0  0  0  0  0  0  0  0
  150.6523  137.9202  158.7752 H   0  0  0  0  0  0  0  0  0  0  0  0
  152.2581  138.6293  158.7511 H   0  0  0  0  0  0  0  0  0  0  0  0
  151.3412  136.1447  155.7852 H   0  0  0  0  0  0  0  0  0  0  0  0
  148.7345  137.1386  156.7112 H   0  0  0  0  0  0  0  0  0  0  0  0
  147.3012  135.5155  157.4609 H   0  0  0  0  0  0  0  0  0  0  0  0
  147.9205  134.0054  158.0386 H   0  0  0  0  0  0  0  0  0  0  0  0
  147.6012  133.6106  160.1219 H   0  0  0  0  0  0  0  0  0  0  0  0
  147.2646  134.2527  162.5038 H   0  0  0  0  0  0  0  0  0  0  0  0
  149.2717  137.8654  154.5508 H   0  0  0  0  0  0  0  0  0  0  0  0
  150.6965  137.1889  153.7970 H   0  0  0  0  0  0  0  0  0  0  0  0
  1  2  1  0  0  0  0
  1 23  1  0  0  0  0
  1 24  1  0  0  0  0
  1 25  1  0  0  0  0
  2  7  1  0  0  0  0
  2  3  1  0  0  0  0
  2  4  1  0  0  0  0
  3 26  1  0  0  0  0
  3 27  1  0  0  0  0
  3 28  1  0  0  0  0
  4 22  1  0  0  0  0
  4  5  1  0  0  0  0
  4 29  1  0  0  0  0
  5  6  1  0  0  0  0
  5 30  1  0  0  0  0
  5 31  1  0  0  0  0
  6  7  1  0  0  0  0
  6 32  1  0  0  0  0
  6 33  1  0  0  0  0
  7  8  1  0  0  0  0
  7  9  1  0  0  0  0
  8 34  1  0  0  0  0
  8 35  1  0  0  0  0
  8 36  1  0  0  0  0
  9 10  1  0  0  0  0
  9 22  1  0  0  0  0
  9 37  1  0  0  0  0
 10 11  1  0  0  0  0
 10 38  1  0  0  0  0
 11 12  2  0  0  0  0
 11 13  1  0  0  0  0
 13 14  1  0  0  0  0
 13 39  1  0  0  0  0
 13 40  1  0  0  0  0
 14 20  1  0  0  0  0
 14 15  1  0  0  0  0
 15 16  2  0  0  0  0
 15 41  1  0  0  0  0
 16 17  1  0  0  0  0
 16 42  1  0  0  0  0
 17 18  2  0  0  0  0
 17 19  1  0  0  0  0
 19 20  1  0  0  0  0
 20 21  2  0  0  0  0
 22 43  1  0  0  0  0
 22 44  1  0  0  0  0
M  CHG  1  19  -1
M  END
> <s_m_source_file>
AV-unprocessed.smi

> <i_m_source_file_index>
623

> <i_lp_mmshare_version>
43012

> <i_f3d_flags>
0

> <s_epik_input>
W0NIM11bQ0BdMTJDKFtDSDNdKShbQ0gzXSlbQ0BIXShbQ0gyXVtDSDJdMSlbQ0gyXVtDQEBIXTJbTkhdQyg9TylbQ0gyXW4zW2NIXVtjSF1jKD1PKVtuSF1jMz1P

> <s_epik_cmdline>
J2VwaWtfcHl0aG9uJywgJy1waCcsICc3LjAnLCAnLXRuJywgJzgnLCAnLW1hJywgJzIwMCcsICctbWV0YWxfYmluZGluZycsICctaW1hZScsICc8aW5maWxlLm1hZT4nLCAnLW9tYWUnLCAnPG91dGZpbGUubWFlPic=

> <r_lp_tautomer_probability>
0.999537

> <r_epik_Ionization_Penalty>
3.12624

> <r_epik_Ionization_Penalty_Charging>
3.01273e-08

> <r_epik_Ionization_Penalty_Neutral>
3.12624

> <r_epik_State_Penalty>
3.12534

> <r_epik_Charging_Adjusted_Penalty>
3.12534

> <i_epik_Tot_Q>
-1

> <i_epik_Tot_abs_Q>
1

> <r_epik_Metal_State_Penalty>
0.46406

> <b_epik_Metal_Only>
1

> <s_lp_Force_Field>
OPLS_2005

> <r_lp_Energy>
63.0449

> <b_lp_Chiralities_Consistent>
1

> <s_lp_Variant>
AV-unprocessed.smi:623-6

> <Gold.Version>
5.8.1

> <Gold.Id.Protein>
6NUR|6NUR_protein|mol2

> <Gold.PLP.Fitness>
42.5172

> <Gold.PLP.PLP>
-31.2958

> <Gold.PLP.part.hbond>
-3.1156

> <Gold.PLP.part.metal>
0.0000

> <Gold.PLP.part.buried>
-4.8642

> <Gold.PLP.part.nonpolar>
-24.3998

> <Gold.PLP.part.repulsive>
0.0491

> <Gold.PLP.ligand.clash>
0.0000

> <Gold.PLP.ligand.torsion>
0.6600

> <Gold.PLP.Chemscore.Hbond>
4.1760

> <Gold.PLP.Chemscore.CHOScore>
0.0000

> <Gold.PLP.Chemscore.Metal>
0.0000

> <Gold.Chemscore.Hbonds>
donor molecule, donor type, donor heavy atom, donor atom, acceptor molecule, acceptor atom, score
      P1  H  6896  6908       L1    12  0.66
      P1  H  6931  6943       L1    19  1.73
      P1  H  6934  6947       L1    19  1.50

> <Gold.PLP.Chemscore.Internal.Correction>
0.0134

> <Gold.Rescore>
     Score         DG    S(hbond)    S(metal)    S(lipo)     H(rot)  DE(clash)    DE(int)     intcor
     13.23     -15.13       1.72        0.00      68.99       1.63       0.00       1.90       ----

> <Gold.Chemscore.Fitness>
13.2258

> <Gold.Chemscore.DG>
-15.1288

> <Gold.Chemscore.ZeroCoef>
-5.4800

> <Gold.Chemscore.Hbond>
1.7232

> <Gold.Chemscore.Metal>
0.0000

> <Gold.Chemscore.Lipo>
68.9889

> <Gold.Chemscore.Internal_Hbond>
0.0000

> <Gold.Chemscore.DEClash>
0.0009

> <Gold.Chemscore.DEInternal>
1.9021

> <Gold.Chemscore.Rot>
1.6322

> <Gold.Chemscore.Internal.Correction>
   9.000000E+99

> <Gold.Chemscore.Hbonds>
donor molecule, donor type, donor heavy atom, donor atom, acceptor molecule, acceptor atom, score
      P1  H  6896  6908       L1    12  0.58
      P1  H  6931  6943       L1    19  0.19
      P1  H  6934  6947       L1    19  0.30

> <Gold.Chemscore.Hbond.Weighted>
-5.7554

> <Gold.Chemscore.Metal.Weighted>
-0.0000

> <Gold.Chemscore.Lipo.Weighted>
-8.0717

> <Gold.Chemscore.Internal_Hbond.Weighted>
0.0000

> <Gold.Chemscore.DEClash.Weighted>
0.0009

> <Gold.Chemscore.DEInternal.Weighted>
1.9021

> <Gold.Chemscore.Rot.Weighted>
4.1783

> <Gold.Chemscore.Internal.Correction.Weighted>
   9.000000E+99

> <Gold.Protein.RotatedTorsions>
[ 6907 6896 6895 6894 ] final  131.58 input  -60.11 | X-H torsion
[ 7974 7965 7964 7962 ] final  164.53 input  175.53 | X-H torsion
[ 8008 7997 7996 7995 ] final  -58.16 input   59.86 | X-H torsion
[ 10167 10162 10161 10158 ] final -131.63 input  -65.29 | X-H torsion
[ 10718 10713 10712 10709 ] final  -14.05 input   66.30 | X-H torsion
[ 10763 10752 10751 10750 ] final   53.03 input  -60.55 | X-H torsion
[ 11005 11000 10999 10996 ] final  135.01 input  -57.11 | X-H torsion

> <Gold.Protein.ActiveResidues>
 VAL166  LYS551  ARG553  GLY616  TRP617  ASP618  TYR619  PRO620  LYS621  CYS622 
 ASP623  PHE694  ASN695  SER759  ASP760  ASP761  ALA762  ILE779  LEU786  VAL792 
 PHE793  MET794  SER795  GLU796  ALA797  LYS798  CYS799  TRP800  GLU811  SER814 

> <Gold.Protein.RotatedAtoms>
  152.3411  133.6068  159.5877 H   0  0  0  0  0  0  0  0  0  0  0  0  # atno 6907 bound_to 6896
  150.7479  133.9720  159.3557 H   0  0  0  0  0  0  0  0  0  0  0  0  # atno 6908 bound_to 6896
  151.7584  135.0817  160.0393 H   0  0  0  0  0  0  0  0  0  0  0  0  # atno 6909 bound_to 6896
  144.7541  139.8339  143.6356 H   0  0  0  0  0  0  0  0  0  0  0  0  # atno 7974 bound_to 7965
  154.4297  140.1090  156.5913 H   0  0  0  0  0  0  0  0  0  0  0  0  # atno 8008 bound_to 7997
  155.6009  140.3493  155.4574 H   0  0  0  0  0  0  0  0  0  0  0  0  # atno 8009 bound_to 7997
  156.0174  140.1232  157.0382 H   0  0  0  0  0  0  0  0  0  0  0  0  # atno 8010 bound_to 7997
  139.9170  143.6427  152.2562 H   0  0  0  0  0  0  0  0  0  0  0  0  # atno 10167 bound_to 10162
  156.6214  130.4876  149.6163 H   0  0  0  0  0  0  0  0  0  0  0  0  # atno 10718 bound_to 10713
  152.9792  135.5792  154.4675 H   0  0  0  0  0  0  0  0  0  0  0  0  # atno 10763 bound_to 10752
  154.4242  135.2772  155.1957 H   0  0  0  0  0  0  0  0  0  0  0  0  # atno 10764 bound_to 10752
  154.3693  135.6171  153.5785 H   0  0  0  0  0  0  0  0  0  0  0  0  # atno 10765 bound_to 10752
  139.9952  134.9500  156.9948 H   0  0  0  0  0  0  0  0  0  0  0  0  # atno 11005 bound_to 11000
  146.1529  139.4618  143.0037 LP  0  0  0  0  0  0  0  0  0  0  0  0  # atno 17320 bound_to 7965
  145.6840  141.0183  143.1591 LP  0  0  0  0  0  0  0  0  0  0  0  0  # atno 17321 bound_to 7965
  139.6894  144.7648  151.1465 LP  0  0  0  0  0  0  0  0  0  0  0  0  # atno 17342 bound_to 10162
  140.7672  143.5610  150.9099 LP  0  0  0  0  0  0  0  0  0  0  0  0  # atno 17343 bound_to 10162
  156.2308  130.6793  151.1462 LP  0  0  0  0  0  0  0  0  0  0  0  0  # atno 17370 bound_to 10713
  157.7226  131.0671  150.6070 LP  0  0  0  0  0  0  0  0  0  0  0  0  # atno 17371 bound_to 10713
  140.4832  134.1268  155.7220 LP  0  0  0  0  0  0  0  0  0  0  0  0  # atno 17394 bound_to 11000
  141.1598  133.8813  157.1878 LP  0  0  0  0  0  0  0  0  0  0  0  0  # atno 17395 bound_to 11000

$$$$
