AV-unprocessed.smi:118|AV-procd|sdf|1132|dock6
  -GOLD-   2262018263D 1   1.00000     0.00000
 Structure written by MMmdl.
 41 44  0  0  0  0  0  0  0  0  1 V2000
  149.8947  137.4631  160.1740 O   0  0  0  0  0  0  0  0  0  0  0  0
  149.2903  137.2858  159.1154 C   0  0  0  0  0  0  0  0  0  0  0  0
  149.5115  138.2328  157.9251 C   0  0  0  0  0  0  0  0  0  0  0  0
  150.5792  139.2289  158.1627 N   0  0  0  0  0  0  0  0  0  0  0  0
  151.8283  138.7879  158.6657 C   0  0  0  0  0  0  0  0  0  0  0  0
  152.0418  137.5958  158.8914 O   0  0  0  0  0  0  0  0  0  0  0  0
  152.8183  139.8338  158.8969 C   0  0  0  0  0  0  0  0  0  0  0  0
  154.0383  139.5054  159.3549 F   0  0  0  0  0  0  0  0  0  0  0  0
  152.5301  141.1298  158.6578 C   0  0  0  0  0  0  0  0  0  0  0  0
  151.2974  141.5490  158.1892 N   0  0  0  0  0  0  0  0  0  0  0  0
  150.9868  143.0092  157.9296 C   0  0  1  0  0  0  0  0  0  0  0  0
  149.8792  143.5090  158.8792 C   0  0  0  0  0  0  0  0  0  0  0  0
  150.5052  144.7344  159.5154 C   0  0  0  0  0  0  0  0  0  0  0  0
  151.9872  144.3964  159.4633 C   0  0  0  0  0  0  0  0  0  0  0  0
  152.1196  143.7897  158.1848 O   0  0  0  0  0  0  0  0  0  0  0  0
  150.2947  140.5931  157.9166 C   0  0  0  0  0  0  0  0  0  0  0  0
  149.1950  140.9435  157.4823 O   0  0  0  0  0  0  0  0  0  0  0  0
  148.4049  136.2960  158.9023 N   0  0  0  0  0  0  0  0  0  0  0  0
  147.9765  135.2836  159.8049 C   0  0  0  0  0  0  0  0  0  0  0  0
  147.7094  133.9472  159.4098 C   0  0  0  0  0  0  0  0  0  0  0  0
  147.2699  132.9886  160.3500 C   0  0  0  0  0  0  0  0  0  0  0  0
  147.0758  133.3423  161.7008 C   0  0  0  0  0  0  0  0  0  0  0  0
  147.3218  134.6700  162.0935 C   0  0  0  0  0  0  0  0  0  0  0  0
  147.7629  135.6331  161.1567 C   0  0  0  0  0  0  0  0  0  0  0  0
  147.9564  136.8971  161.7115 N   0  0  0  0  0  0  0  0  0  0  0  0
  147.5743  136.6215  163.1658 S   0  0  0  0  0  0  0  0  0  0  0  0
  147.1661  135.1647  163.3841 N   0  0  0  0  0  0  0  0  0  0  0  0
  149.7186  137.6266  157.0421 H   0  0  0  0  0  0  0  0  0  0  0  0
  148.5709  138.7325  157.6868 H   0  0  0  0  0  0  0  0  0  0  0  0
  153.3093  141.8522  158.8466 H   0  0  0  0  0  0  0  0  0  0  0  0
  150.7294  143.0682  156.8706 H   0  0  0  0  0  0  0  0  0  0  0  0
  148.9648  143.7325  158.3289 H   0  0  0  0  0  0  0  0  0  0  0  0
  149.6607  142.7564  159.6388 H   0  0  0  0  0  0  0  0  0  0  0  0
  150.3022  145.6176  158.9083 H   0  0  0  0  0  0  0  0  0  0  0  0
  150.1444  144.9222  160.5269 H   0  0  0  0  0  0  0  0  0  0  0  0
  152.6255  145.2746  159.5607 H   0  0  0  0  0  0  0  0  0  0  0  0
  152.2526  143.6866  160.2481 H   0  0  0  0  0  0  0  0  0  0  0  0
  147.9155  136.3233  158.0196 H   0  0  0  0  0  0  0  0  0  0  0  0
  147.8226  133.6357  158.3829 H   0  0  0  0  0  0  0  0  0  0  0  0
  147.0755  131.9757  160.0295 H   0  0  0  0  0  0  0  0  0  0  0  0
  146.7386  132.6086  162.4180 H   0  0  0  0  0  0  0  0  0  0  0  0
  1  2  2  0  0  0  0
  2  3  1  0  0  0  0
  2 18  1  0  0  0  0
  3  4  1  0  0  0  0
  3 28  1  0  0  0  0
  3 29  1  0  0  0  0
  4 16  1  0  0  0  0
  4  5  1  0  0  0  0
  5  6  2  0  0  0  0
  5  7  1  0  0  0  0
  7  8  1  0  0  0  0
  7  9  2  0  0  0  0
  9 10  1  0  0  0  0
  9 30  1  0  0  0  0
 10 11  1  0  0  0  0
 10 16  1  0  0  0  0
 11 15  1  0  0  0  0
 11 12  1  0  0  0  0
 11 31  1  0  0  0  0
 12 13  1  0  0  0  0
 12 32  1  0  0  0  0
 12 33  1  0  0  0  0
 13 14  1  0  0  0  0
 13 34  1  0  0  0  0
 13 35  1  0  0  0  0
 14 15  1  0  0  0  0
 14 36  1  0  0  0  0
 14 37  1  0  0  0  0
 16 17  2  0  0  0  0
 18 19  1  0  0  0  0
 18 38  1  0  0  0  0
 19 24  1  0  0  0  0
 19 20  2  0  0  0  0
 20 21  1  0  0  0  0
 20 39  1  0  0  0  0
 21 22  2  0  0  0  0
 21 40  1  0  0  0  0
 22 23  1  0  0  0  0
 22 41  1  0  0  0  0
 23 27  1  0  0  0  0
 23 24  2  0  0  0  0
 24 25  1  0  0  0  0
 25 26  2  0  0  0  0
 26 27  2  0  0  0  0
M  END
> <s_m_source_file>
AV-unprocessed.smi

> <i_m_source_file_index>
118

> <i_lp_mmshare_version>
43012

> <i_f3d_flags>
0

> <s_epik_input>
TjE9Uz1OYyhjMTIpYyhbY0hdW2NIXVtjSF0yKVtOSF1DKD1PKVtDSDJdbjNjKD1PKWMoRilbY0hdbihjMz1PKVtDQEBIXTRbQ0gyXVtDSDJdW0NIMl1PNA==

> <s_epik_cmdline>
J2VwaWtfcHl0aG9uJywgJy1waCcsICc3LjAnLCAnLXRuJywgJzgnLCAnLW1hJywgJzIwMCcsICctbWV0YWxfYmluZGluZycsICctaW1hZScsICc8aW5maWxlLm1hZT4nLCAnLW9tYWUnLCAnPG91dGZpbGUubWFlPic=

> <r_lp_tautomer_probability>
1

> <r_epik_Ionization_Penalty>
1.81156e-06

> <r_epik_Ionization_Penalty_Charging>
3.88729e-08

> <r_epik_Ionization_Penalty_Neutral>
1.77269e-06

> <r_epik_State_Penalty>
-0

> <r_epik_Charging_Adjusted_Penalty>
3.88729e-08

> <i_epik_Tot_Q>
0

> <i_epik_Tot_abs_Q>
0

> <r_epik_Metal_State_Penalty>
-0

> <b_epik_Metal_Only>
0

> <s_epik_Chemistry_Notes>
This compound contains an acetal/aminal-like group ( X-CH(R)-Y where X, Y are N, S, or O) that may be acid/base labile, releasing an aldehyde.

> <s_lp_Force_Field>
OPLS_2005

> <r_lp_Energy>
52.0747

> <b_lp_Chiralities_Consistent>
1

> <s_lp_Variant>
AV-unprocessed.smi:118-2

> <Gold.Version>
5.8.1

> <Gold.Id.Protein>
6NUR|6NUR_protein|mol2

> <Gold.PLP.Fitness>
47.2622

> <Gold.PLP.PLP>
-45.1571

> <Gold.PLP.part.hbond>
-2.8101

> <Gold.PLP.part.metal>
0.0000

> <Gold.PLP.part.buried>
-8.0043

> <Gold.PLP.part.nonpolar>
-35.0781

> <Gold.PLP.part.repulsive>
0.2195

> <Gold.PLP.ligand.clash>
0.0000

> <Gold.PLP.ligand.torsion>
0.4535

> <Gold.PLP.Chemscore.Hbond>
1.0000

> <Gold.PLP.Chemscore.CHOScore>
0.0000

> <Gold.PLP.Chemscore.Metal>
0.0000

> <Gold.Chemscore.Hbonds>
donor molecule, donor type, donor heavy atom, donor atom, acceptor molecule, acceptor atom, score
      P1  H  6931  6943       L1    25  1.00
      P1  H  6934  6947       L1    25  0.08

> <Gold.PLP.Chemscore.Internal.Correction>
0.0122

> <Gold.Rescore>
     Score         DG    S(hbond)    S(metal)    S(lipo)     H(rot)  DE(clash)    DE(int)     intcor
      7.18     -16.02       2.02        0.00      71.75       1.80       0.13       8.71       ----

> <Gold.Chemscore.Fitness>
7.1826

> <Gold.Chemscore.DG>
-16.0187

> <Gold.Chemscore.ZeroCoef>
-5.4800

> <Gold.Chemscore.Hbond>
2.0200

> <Gold.Chemscore.Metal>
0.0000

> <Gold.Chemscore.Lipo>
71.7459

> <Gold.Chemscore.Internal_Hbond>
0.0000

> <Gold.Chemscore.DEClash>
0.1257

> <Gold.Chemscore.DEInternal>
8.7104

> <Gold.Chemscore.Rot>
1.7977

> <Gold.Chemscore.Internal.Correction>
   9.000000E+99

> <Gold.Chemscore.Hbonds>
donor molecule, donor type, donor heavy atom, donor atom, acceptor molecule, acceptor atom, score
      P1  H  6931  6943       L1    25  0.26
      P1  H  6934  6947       L1    25  0.08

> <Gold.Chemscore.Hbond.Weighted>
-6.7467

> <Gold.Chemscore.Metal.Weighted>
-0.0000

> <Gold.Chemscore.Lipo.Weighted>
-8.3943

> <Gold.Chemscore.Internal_Hbond.Weighted>
0.0000

> <Gold.Chemscore.DEClash.Weighted>
0.1257

> <Gold.Chemscore.DEInternal.Weighted>
8.7104

> <Gold.Chemscore.Rot.Weighted>
4.6022

> <Gold.Chemscore.Internal.Correction.Weighted>
   9.000000E+99

> <Gold.Protein.RotatedTorsions>
[ 6907 6896 6895 6894 ] final -150.70 input  -60.11 | X-H torsion
[ 7974 7965 7964 7962 ] final  155.73 input  175.53 | X-H torsion
[ 8008 7997 7996 7995 ] final  -12.16 input   59.86 | X-H torsion
[ 10167 10162 10161 10158 ] final  116.30 input  -65.29 | X-H torsion
[ 10718 10713 10712 10709 ] final -133.36 input   66.30 | X-H torsion
[ 10763 10752 10751 10750 ] final   49.67 input  -60.55 | X-H torsion
[ 11005 11000 10999 10996 ] final -106.55 input  -57.11 | X-H torsion

> <Gold.Protein.ActiveResidues>
 VAL166  LYS551  ARG553  GLY616  TRP617  ASP618  TYR619  PRO620  LYS621  CYS622 
 ASP623  PHE694  ASN695  SER759  ASP760  ASP761  ALA762  ILE779  LEU786  VAL792 
 PHE793  MET794  SER795  GLU796  ALA797  LYS798  CYS799  TRP800  GLU811  SER814 

> <Gold.Protein.RotatedAtoms>
  151.2024  133.4603  159.2596 H   0  0  0  0  0  0  0  0  0  0  0  0  # atno 6907 bound_to 6896
  151.1056  134.9998  159.8480 H   0  0  0  0  0  0  0  0  0  0  0  0  # atno 6908 bound_to 6896
  152.5447  134.1947  159.8741 H   0  0  0  0  0  0  0  0  0  0  0  0  # atno 6909 bound_to 6896
  144.8006  139.7108  143.6183 H   0  0  0  0  0  0  0  0  0  0  0  0  # atno 7974 bound_to 7965
  154.5402  140.2283  155.8654 H   0  0  0  0  0  0  0  0  0  0  0  0  # atno 8008 bound_to 7997
  156.1851  140.3091  155.9184 H   0  0  0  0  0  0  0  0  0  0  0  0  # atno 8009 bound_to 7997
  155.3274  140.0443  157.3032 H   0  0  0  0  0  0  0  0  0  0  0  0  # atno 8010 bound_to 7997
  139.6256  144.7108  151.2540 H   0  0  0  0  0  0  0  0  0  0  0  0  # atno 10167 bound_to 10162
  156.2441  130.7113  151.0987 H   0  0  0  0  0  0  0  0  0  0  0  0  # atno 10718 bound_to 10713
  152.9786  135.5904  154.4127 H   0  0  0  0  0  0  0  0  0  0  0  0  # atno 10763 bound_to 10752
  154.3760  135.2767  155.2241 H   0  0  0  0  0  0  0  0  0  0  0  0  # atno 10764 bound_to 10752
  154.4175  135.6067  153.6044 H   0  0  0  0  0  0  0  0  0  0  0  0  # atno 10765 bound_to 10752
  141.0999  133.8904  157.1870 H   0  0  0  0  0  0  0  0  0  0  0  0  # atno 11005 bound_to 11000
  146.2287  139.5771  142.9570 LP  0  0  0  0  0  0  0  0  0  0  0  0  # atno 17320 bound_to 7965
  145.5562  141.0409  143.2251 LP  0  0  0  0  0  0  0  0  0  0  0  0  # atno 17321 bound_to 7965
  140.7409  143.6573  150.8195 LP  0  0  0  0  0  0  0  0  0  0  0  0  # atno 17342 bound_to 10162
  140.0191  143.5561  152.2808 LP  0  0  0  0  0  0  0  0  0  0  0  0  # atno 17343 bound_to 10162
  157.7188  131.0694  150.6222 LP  0  0  0  0  0  0  0  0  0  0  0  0  # atno 17370 bound_to 10713
  156.6297  130.4428  149.5791 LP  0  0  0  0  0  0  0  0  0  0  0  0  # atno 17371 bound_to 10713
  139.9847  135.0086  156.9833 LP  0  0  0  0  0  0  0  0  0  0  0  0  # atno 17394 bound_to 11000
  140.5049  134.1060  155.7258 LP  0  0  0  0  0  0  0  0  0  0  0  0  # atno 17395 bound_to 11000

$$$$
