AV-unprocessed.smi:34|AV-procd|sdf|237|dock6
  -GOLD-   2262015583D 1   1.00000     0.00000
 Structure written by MMmdl.
 54 58  0  0  0  0  0  0  0  0  2 V2000
  153.4895  135.4641  161.8902 O   0  0  0  0  0  0  0  0  0  0  0  0
  153.0890  134.3868  161.4437 C   0  0  0  0  0  0  0  0  0  0  0  0
  152.9770  134.0134  160.1438 N   0  5  0  0  0  0  0  0  0  0  0  0
  153.4176  134.8278  159.1731 C   0  0  0  0  0  0  0  0  0  0  0  0
  154.7357  134.8603  158.8498 N   0  0  0  0  0  0  0  0  0  0  0  0
  155.1729  135.6660  157.8750 C   0  0  0  0  0  0  0  0  0  0  0  0
  154.4758  136.5049  157.1029 N   0  0  0  0  0  0  0  0  0  0  0  0
  153.1473  136.4762  157.4132 C   0  0  0  0  0  0  0  0  0  0  0  0
  152.5495  135.6686  158.4239 C   0  0  0  0  0  0  0  0  0  0  0  0
  151.1790  135.8775  158.4744 N   0  0  0  0  0  0  0  0  0  0  0  0
  151.0096  136.7826  157.5132 C   0  0  0  0  0  0  0  0  0  0  0  0
  152.1060  137.1915  156.8443 N   0  0  0  0  0  0  0  0  0  0  0  0
  152.1733  138.1813  155.7289 C   0  0  2  0  0  0  0  0  0  0  0  0
  151.6142  139.3735  156.1835 O   0  0  0  0  0  0  0  0  0  0  0  0
  150.9659  140.0043  155.0920 C   0  0  2  0  0  0  0  0  0  0  0  0
  149.9733  141.0652  155.5841 C   0  0  0  0  0  0  0  0  0  0  0  0
  150.5722  141.8205  156.6246 O   0  0  0  0  0  0  0  0  0  0  0  0
  149.8986  142.0451  157.7697 C   0  0  0  0  0  0  0  0  0  0  0  0
  148.8213  141.5119  158.0433 O   0  0  0  0  0  0  0  0  0  0  0  0
  150.5916  143.0116  158.6698 C   0  0  0  0  0  0  0  0  0  0  0  0
  149.8744  143.6025  159.7361 C   0  0  0  0  0  0  0  0  0  0  0  0
  150.5013  144.5204  160.6009 C   0  0  0  0  0  0  0  0  0  0  0  0
  151.8536  144.8588  160.4103 C   0  0  0  0  0  0  0  0  0  0  0  0
  152.5785  144.2776  159.3536 C   0  0  0  0  0  0  0  0  0  0  0  0
  151.9530  143.3594  158.4875 C   0  0  0  0  0  0  0  0  0  0  0  0
  150.3446  138.8369  154.3214 C   0  0  2  0  0  0  0  0  0  0  0  0
  149.1735  138.4814  154.8521 F   0  0  0  0  0  0  0  0  0  0  0  0
  151.3530  137.7098  154.5132 C   0  0  1  0  0  0  0  0  0  0  0  0
  152.1533  137.5849  153.3550 O   0  0  0  0  0  0  0  0  0  0  0  0
  152.7243  133.2916  162.4101 C   0  0  0  0  0  0  0  0  0  0  0  0
  152.6872  131.9499  161.9668 C   0  0  0  0  0  0  0  0  0  0  0  0
  152.3733  130.9082  162.8614 C   0  0  0  0  0  0  0  0  0  0  0  0
  152.1022  131.1961  164.2122 C   0  0  0  0  0  0  0  0  0  0  0  0
  152.1500  132.5266  164.6687 C   0  0  0  0  0  0  0  0  0  0  0  0
  152.4641  133.5689  163.7747 C   0  0  0  0  0  0  0  0  0  0  0  0
  156.2353  135.6328  157.6853 H   0  0  0  0  0  0  0  0  0  0  0  0
  150.0291  137.1718  157.2821 H   0  0  0  0  0  0  0  0  0  0  0  0
  153.2366  138.3101  155.5195 H   0  0  0  0  0  0  0  0  0  0  0  0
  151.7363  140.4754  154.4786 H   0  0  0  0  0  0  0  0  0  0  0  0
  149.6715  141.7152  154.7615 H   0  0  0  0  0  0  0  0  0  0  0  0
  149.0720  140.5833  155.9649 H   0  0  0  0  0  0  0  0  0  0  0  0
  148.8343  143.3594  159.9008 H   0  0  0  0  0  0  0  0  0  0  0  0
  149.9432  144.9658  161.4114 H   0  0  0  0  0  0  0  0  0  0  0  0
  152.3342  145.5631  161.0733 H   0  0  0  0  0  0  0  0  0  0  0  0
  153.6170  144.5357  159.2065 H   0  0  0  0  0  0  0  0  0  0  0  0
  152.5390  142.9313  157.6872 H   0  0  0  0  0  0  0  0  0  0  0  0
  150.1496  139.0800  153.2760 H   0  0  0  0  0  0  0  0  0  0  0  0
  150.8602  136.7563  154.7106 H   0  0  0  0  0  0  0  0  0  0  0  0
  151.7814  136.9116  152.8055 H   0  0  0  0  0  0  0  0  0  0  0  0
  152.8945  131.7116  160.9335 H   0  0  0  0  0  0  0  0  0  0  0  0
  152.3422  129.8875  162.5103 H   0  0  0  0  0  0  0  0  0  0  0  0
  151.8621  130.3976  164.8984 H   0  0  0  0  0  0  0  0  0  0  0  0
  151.9496  132.7493  165.7062 H   0  0  0  0  0  0  0  0  0  0  0  0
  152.5070  134.5818  164.1482 H   0  0  0  0  0  0  0  0  0  0  0  0
  1  2  2  0  0  0  0
  2  3  1  0  0  0  0
  2 30  1  0  0  0  0
  3  4  1  0  0  0  0
  4  9  1  0  0  0  0
  4  5  2  0  0  0  0
  5  6  1  0  0  0  0
  6  7  2  0  0  0  0
  6 36  1  0  0  0  0
  7  8  1  0  0  0  0
  8 12  1  0  0  0  0
  8  9  2  0  0  0  0
  9 10  1  0  0  0  0
 10 11  2  0  0  0  0
 11 12  1  0  0  0  0
 11 37  1  0  0  0  0
 12 13  1  0  0  0  0
 13 28  1  0  0  0  0
 13 14  1  0  0  0  0
 13 38  1  0  0  0  0
 14 15  1  0  0  0  0
 15 16  1  0  0  0  0
 15 26  1  0  0  0  0
 15 39  1  0  0  0  0
 16 17  1  0  0  0  0
 16 40  1  0  0  0  0
 16 41  1  0  0  0  0
 17 18  1  0  0  0  0
 18 19  2  0  0  0  0
 18 20  1  0  0  0  0
 20 25  1  0  0  0  0
 20 21  2  0  0  0  0
 21 22  1  0  0  0  0
 21 42  1  0  0  0  0
 22 23  2  0  0  0  0
 22 43  1  0  0  0  0
 23 24  1  0  0  0  0
 23 44  1  0  0  0  0
 24 25  2  0  0  0  0
 24 45  1  0  0  0  0
 25 46  1  0  0  0  0
 26 27  1  0  0  0  0
 26 28  1  0  0  0  0
 26 47  1  0  0  0  0
 28 29  1  0  0  0  0
 28 48  1  0  0  0  0
 29 49  1  0  0  0  0
 30 35  1  0  0  0  0
 30 31  2  0  0  0  0
 31 32  1  0  0  0  0
 31 50  1  0  0  0  0
 32 33  2  0  0  0  0
 32 51  1  0  0  0  0
 33 34  1  0  0  0  0
 33 52  1  0  0  0  0
 34 35  2  0  0  0  0
 34 53  1  0  0  0  0
 35 54  1  0  0  0  0
M  CHG  1   3  -1
M  END
> <s_m_source_file>
AV-unprocessed.smi

> <i_m_source_file_index>
34

> <i_lp_mmshare_version>
43012

> <i_f3d_flags>
0

> <s_epik_input>
W2NIXTFbY0hdW2NIXVtjSF1bY0hdYzFDKD1PKVtOSF1jKG5bY0hdbjIpYyhjMjMpbltjSF1uM1tDQEBIXTRPW0NASF0oW0NAQEhdKEYpW0NASF00W09IXSlbQ0gyXU9DKD1PKWM1W2NIXVtjSF1bY0hdW2NIXVtjSF01

> <s_epik_cmdline>
J2VwaWtfcHl0aG9uJywgJy1waCcsICc3LjAnLCAnLXRuJywgJzgnLCAnLW1hJywgJzIwMCcsICctbWV0YWxfYmluZGluZycsICctaW1hZScsICc8aW5maWxlLm1hZT4nLCAnLW9tYWUnLCAnPG91dGZpbGUubWFlPic=

> <r_lp_tautomer_probability>
1

> <r_epik_Ionization_Penalty>
4.33227

> <r_epik_Ionization_Penalty_Charging>
3.41027

> <r_epik_Ionization_Penalty_Neutral>
0.922001

> <r_epik_State_Penalty>
3.41358

> <r_epik_Charging_Adjusted_Penalty>
6.82385

> <i_epik_Tot_Q>
-1

> <i_epik_Tot_abs_Q>
1

> <r_epik_Metal_State_Penalty>
0.496292

> <b_epik_Metal_Only>
1

> <s_epik_Chemistry_Notes>
This compound has an ester and may undergo hydrolysis at high or low pH. This compound contains an acetal/aminal-like group ( X-CH(R)-Y where X, Y are N, S, or O) that may be acid/base labile, releasing an aldehyde.

> <s_lp_Force_Field>
OPLS_2005

> <r_lp_Energy>
44.3344

> <b_lp_Chiralities_Consistent>
1

> <s_lp_Variant>
AV-unprocessed.smi:34-23

> <Gold.Version>
5.8.1

> <Gold.Id.Protein>
6NUR|6NUR_protein|mol2

> <Gold.PLP.Fitness>
60.3219

> <Gold.PLP.PLP>
-52.5062

> <Gold.PLP.part.hbond>
-4.2767

> <Gold.PLP.part.metal>
0.0000

> <Gold.PLP.part.buried>
-0.4881

> <Gold.PLP.part.nonpolar>
-48.5034

> <Gold.PLP.part.repulsive>
0.1827

> <Gold.PLP.ligand.clash>
0.0000

> <Gold.PLP.ligand.torsion>
1.5659

> <Gold.PLP.Chemscore.Hbond>
3.3840

> <Gold.PLP.Chemscore.CHOScore>
0.0000

> <Gold.PLP.Chemscore.Metal>
0.0000

> <Gold.Chemscore.Hbonds>
donor molecule, donor type, donor heavy atom, donor atom, acceptor molecule, acceptor atom, score
      L1  H    29    49       P1  7949  1.00
      P1  H  6896  6907       L1    10  0.22

> <Gold.PLP.Chemscore.Internal.Correction>
0.7956

> <Gold.Rescore>
     Score         DG    S(hbond)    S(metal)    S(lipo)     H(rot)  DE(clash)    DE(int)     intcor
     14.58     -17.34       1.14        0.00     127.90       2.69       1.11       1.65       ----

> <Gold.Chemscore.Fitness>
14.5824

> <Gold.Chemscore.DG>
-17.3399

> <Gold.Chemscore.ZeroCoef>
-5.4800

> <Gold.Chemscore.Hbond>
1.1356

> <Gold.Chemscore.Metal>
0.0000

> <Gold.Chemscore.Lipo>
127.9009

> <Gold.Chemscore.Internal_Hbond>
0.0000

> <Gold.Chemscore.DEClash>
1.1092

> <Gold.Chemscore.DEInternal>
1.6483

> <Gold.Chemscore.Rot>
2.6944

> <Gold.Chemscore.Internal.Correction>
   9.000000E+99

> <Gold.Chemscore.Hbonds>
donor molecule, donor type, donor heavy atom, donor atom, acceptor molecule, acceptor atom, score
      L1  H    29    49       P1  7949  1.00
      P1  H  6896  6907       L1    10  0.01

> <Gold.Chemscore.Hbond.Weighted>
-3.7930

> <Gold.Chemscore.Metal.Weighted>
-0.0000

> <Gold.Chemscore.Lipo.Weighted>
-14.9644

> <Gold.Chemscore.Internal_Hbond.Weighted>
0.0000

> <Gold.Chemscore.DEClash.Weighted>
1.1092

> <Gold.Chemscore.DEInternal.Weighted>
1.6483

> <Gold.Chemscore.Rot.Weighted>
6.8975

> <Gold.Chemscore.Internal.Correction.Weighted>
   9.000000E+99

> <Gold.Protein.RotatedTorsions>
[ 6907 6896 6895 6894 ] final  -27.91 input  -60.11 | X-H torsion
[ 7974 7965 7964 7962 ] final -124.35 input  175.53 | X-H torsion
[ 8008 7997 7996 7995 ] final -152.70 input   59.86 | X-H torsion
[ 10167 10162 10161 10158 ] final -159.75 input  -65.29 | X-H torsion
[ 10718 10713 10712 10709 ] final   13.26 input   66.30 | X-H torsion
[ 10763 10752 10751 10750 ] final -123.51 input  -60.55 | X-H torsion
[ 11005 11000 10999 10996 ] final   92.29 input  -57.11 | X-H torsion

> <Gold.Protein.ActiveResidues>
 VAL166  LYS551  ARG553  GLY616  TRP617  ASP618  TYR619  PRO620  LYS621  CYS622 
 ASP623  PHE694  ASN695  SER759  ASP760  ASP761  ALA762  ILE779  LEU786  VAL792 
 PHE793  MET794  SER795  GLU796  ALA797  LYS798  CYS799  TRP800  GLU811  SER814 

> <Gold.Protein.RotatedAtoms>
  151.1403  135.0176  159.8622 H   0  0  0  0  0  0  0  0  0  0  0  0  # atno 6907 bound_to 6896
  152.5452  134.1506  159.8527 H   0  0  0  0  0  0  0  0  0  0  0  0  # atno 6908 bound_to 6896
  151.1581  133.4817  159.2627 H   0  0  0  0  0  0  0  0  0  0  0  0  # atno 6909 bound_to 6896
  145.0090  140.7889  143.4450 H   0  0  0  0  0  0  0  0  0  0  0  0  # atno 7974 bound_to 7965
  155.6593  140.0720  157.2560 H   0  0  0  0  0  0  0  0  0  0  0  0  # atno 8008 bound_to 7997
  154.4146  140.1719  156.1809 H   0  0  0  0  0  0  0  0  0  0  0  0  # atno 8009 bound_to 7997
  155.9711  140.3362  155.6580 H   0  0  0  0  0  0  0  0  0  0  0  0  # atno 8010 bound_to 7997
  139.6591  143.9945  152.2213 H   0  0  0  0  0  0  0  0  0  0  0  0  # atno 10167 bound_to 10162
  157.0221  130.6159  149.5722 H   0  0  0  0  0  0  0  0  0  0  0  0  # atno 10718 bound_to 10713
  154.8709  135.4095  154.2956 H   0  0  0  0  0  0  0  0  0  0  0  0  # atno 10763 bound_to 10752
  153.3824  135.7012  153.6561 H   0  0  0  0  0  0  0  0  0  0  0  0  # atno 10764 bound_to 10752
  153.5377  135.3654  155.2676 H   0  0  0  0  0  0  0  0  0  0  0  0  # atno 10765 bound_to 10752
  139.8825  134.8724  156.3552 H   0  0  0  0  0  0  0  0  0  0  0  0  # atno 11005 bound_to 11000
  145.2049  139.2233  143.5173 LP  0  0  0  0  0  0  0  0  0  0  0  0  # atno 17320 bound_to 7965
  146.3466  140.1875  142.8589 LP  0  0  0  0  0  0  0  0  0  0  0  0  # atno 17321 bound_to 7965
  139.9679  144.6514  150.8017 LP  0  0  0  0  0  0  0  0  0  0  0  0  # atno 17342 bound_to 10162
  140.7572  143.3082  151.2910 LP  0  0  0  0  0  0  0  0  0  0  0  0  # atno 17343 bound_to 10162
  156.0098  130.5189  150.7952 LP  0  0  0  0  0  0  0  0  0  0  0  0  # atno 17370 bound_to 10713
  157.5241  131.0933  151.0040 LP  0  0  0  0  0  0  0  0  0  0  0  0  # atno 17371 bound_to 10713
  140.9567  133.7415  156.0345 LP  0  0  0  0  0  0  0  0  0  0  0  0  # atno 17394 bound_to 11000
  140.8040  134.3476  157.5431 LP  0  0  0  0  0  0  0  0  0  0  0  0  # atno 17395 bound_to 11000

$$$$
