AV-unprocessed.smi:1856|AV-procd|sdf|7538|dock5
  -GOLD-   22720 9253D 1   1.00000     0.00000
 Structure written by MMmdl.
 45 46  0  0  0  0  0  0  0  0  2 V2000
  146.0491  142.8778  154.1255 C   0  0  0  0  0  0  0  0  0  0  0  0
  145.6945  143.2312  155.5738 C   0  0  0  0  0  0  0  0  0  0  0  0
  145.6640  141.9944  156.4909 C   0  0  0  0  0  0  0  0  0  0  0  0
  147.0534  141.4478  156.8354 C   0  0  0  0  0  0  0  0  0  0  0  0
  147.4201  141.3353  158.0057 O   0  0  0  0  0  0  0  0  0  0  0  0
  147.8302  141.1190  155.7908 N   0  0  0  0  0  0  0  0  0  0  0  0
  149.1833  140.5756  155.8869 C   0  0  1  0  0  0  0  0  0  0  0  0
  149.7668  140.3853  154.4810 C   0  0  0  0  0  0  0  0  0  0  0  0
  150.0927  141.4323  156.7211 C   0  0  0  0  0  0  0  0  0  0  0  0
  150.0861  142.7960  156.7743 N   0  3  0  0  0  0  0  0  0  0  0  0
  151.0623  143.2414  157.6651 C   0  0  0  0  0  0  0  0  0  0  0  0
  151.4201  144.5274  158.0570 C   0  0  0  0  0  0  0  0  0  0  0  0
  152.4678  144.6342  158.9952 C   0  0  0  0  0  0  0  0  0  0  0  0
  153.1169  143.4906  159.5042 C   0  0  0  0  0  0  0  0  0  0  0  0
  152.7462  142.1918  159.0972 C   0  0  0  0  0  0  0  0  0  0  0  0
  151.7079  142.0955  158.1711 C   0  0  0  0  0  0  0  0  0  0  0  0
  151.0842  141.0043  157.5563 N   0  0  0  0  0  0  0  0  0  0  0  0
  151.5518  139.6457  157.8729 C   0  0  0  0  0  0  0  0  0  0  0  0
  151.8855  138.8168  156.6178 C   0  0  2  0  0  0  0  0  0  0  0  0
  152.5213  137.4672  156.9717 C   0  0  0  0  0  0  0  0  0  0  0  0
  152.7801  139.5296  155.7885 O   0  0  0  0  0  0  0  0  0  0  0  0
  146.0614  143.7710  153.5005 H   0  0  0  0  0  0  0  0  0  0  0  0
  145.3232  142.1842  153.7002 H   0  0  0  0  0  0  0  0  0  0  0  0
  147.0340  142.4146  154.0632 H   0  0  0  0  0  0  0  0  0  0  0  0
  146.4198  143.9550  155.9484 H   0  0  0  0  0  0  0  0  0  0  0  0
  144.7235  143.7284  155.5898 H   0  0  0  0  0  0  0  0  0  0  0  0
  145.1484  142.2400  157.4201 H   0  0  0  0  0  0  0  0  0  0  0  0
  145.0906  141.1983  156.0142 H   0  0  0  0  0  0  0  0  0  0  0  0
  147.4515  141.2384  154.8624 H   0  0  0  0  0  0  0  0  0  0  0  0
  149.1072  139.5936  156.3557 H   0  0  0  0  0  0  0  0  0  0  0  0
  150.7514  139.9187  154.5267 H   0  0  0  0  0  0  0  0  0  0  0  0
  149.8740  141.3377  153.9607 H   0  0  0  0  0  0  0  0  0  0  0  0
  149.1279  139.7432  153.8738 H   0  0  0  0  0  0  0  0  0  0  0  0
  150.9240  145.4048  157.6687 H   0  0  0  0  0  0  0  0  0  0  0  0
  152.7798  145.6126  159.3317 H   0  0  0  0  0  0  0  0  0  0  0  0
  153.9154  143.6116  160.2221 H   0  0  0  0  0  0  0  0  0  0  0  0
  153.2482  141.3219  159.4946 H   0  0  0  0  0  0  0  0  0  0  0  0
  152.4275  139.7328  158.5168 H   0  0  0  0  0  0  0  0  0  0  0  0
  150.7868  139.1504  158.4719 H   0  0  0  0  0  0  0  0  0  0  0  0
  150.9750  138.6361  156.0459 H   0  0  0  0  0  0  0  0  0  0  0  0
  151.8525  136.8715  157.5935 H   0  0  0  0  0  0  0  0  0  0  0  0
  153.4554  137.5986  157.5193 H   0  0  0  0  0  0  0  0  0  0  0  0
  152.7402  136.8874  156.0743 H   0  0  0  0  0  0  0  0  0  0  0  0
  152.8471  139.0826  154.9583 H   0  0  0  0  0  0  0  0  0  0  0  0
  149.4471  143.3756  156.2458 H   0  0  0  0  0  0  0  0  0  0  0  0
  1  2  1  0  0  0  0
  1 22  1  0  0  0  0
  1 23  1  0  0  0  0
  1 24  1  0  0  0  0
  2  3  1  0  0  0  0
  2 25  1  0  0  0  0
  2 26  1  0  0  0  0
  3  4  1  0  0  0  0
  3 27  1  0  0  0  0
  3 28  1  0  0  0  0
  4  5  2  0  0  0  0
  4  6  1  0  0  0  0
  6  7  1  0  0  0  0
  6 29  1  0  0  0  0
  7  8  1  0  0  0  0
  7  9  1  0  0  0  0
  7 30  1  0  0  0  0
  8 31  1  0  0  0  0
  8 32  1  0  0  0  0
  8 33  1  0  0  0  0
  9 17  1  0  0  0  0
  9 10  2  0  0  0  0
 10 11  1  0  0  0  0
 10 45  1  0  0  0  0
 11 16  2  0  0  0  0
 11 12  1  0  0  0  0
 12 13  2  0  0  0  0
 12 34  1  0  0  0  0
 13 14  1  0  0  0  0
 13 35  1  0  0  0  0
 14 15  2  0  0  0  0
 14 36  1  0  0  0  0
 15 16  1  0  0  0  0
 15 37  1  0  0  0  0
 16 17  1  0  0  0  0
 17 18  1  0  0  0  0
 18 19  1  0  0  0  0
 18 38  1  0  0  0  0
 18 39  1  0  0  0  0
 19 20  1  0  0  0  0
 19 21  1  0  0  0  0
 19 40  1  0  0  0  0
 20 41  1  0  0  0  0
 20 42  1  0  0  0  0
 20 43  1  0  0  0  0
 21 44  1  0  0  0  0
M  CHG  1  10   1
M  END
> <s_m_source_file>
AV-unprocessed.smi

> <i_m_source_file_index>
1856

> <i_lp_mmshare_version>
43012

> <i_f3d_flags>
0

> <s_epik_input>
W0NIM11bQ0gyXVtDSDJdQyg9TylbTkhdW0NASF0oW0NIM10pYyhuMSluKFtDSDJdW0NASF0oW0NIM10pW09IXSljKGMxMilbY0hdW2NIXVtjSF1bY0hdMg==

> <s_epik_cmdline>
J2VwaWtfcHl0aG9uJywgJy1waCcsICc3LjAnLCAnLXRuJywgJzgnLCAnLW1hJywgJzIwMCcsICctbWV0YWxfYmluZGluZycsICctaW1hZScsICc8aW5maWxlLm1hZT4nLCAnLW9tYWUnLCAnPG91dGZpbGUubWFlPic=

> <r_epik_Ionization_Penalty>
0.945588

> <r_epik_Ionization_Penalty_Charging>
0.945588

> <r_epik_Ionization_Penalty_Neutral>
8.64698e-08

> <r_epik_State_Penalty>
0.989378

> <r_epik_Charging_Adjusted_Penalty>
1.93497

> <i_epik_Tot_Q>
1

> <i_epik_Tot_abs_Q>
1

> <r_epik_Metal_State_Penalty>
1.10045

> <b_epik_Metal_Only>
0

> <s_lp_Force_Field>
OPLS_2005

> <r_lp_Energy>
6.55933

> <b_lp_Chiralities_Consistent>
1

> <s_lp_Variant>
AV-unprocessed.smi:1856-6

> <Gold.Version>
5.8.1

> <Gold.Id.Protein>
6NUR|6NUR_protein|mol2

> <Gold.PLP.Fitness>
48.5945

> <Gold.PLP.PLP>
-41.2690

> <Gold.PLP.part.hbond>
-2.2573

> <Gold.PLP.part.metal>
0.0000

> <Gold.PLP.part.buried>
-5.0695

> <Gold.PLP.part.nonpolar>
-34.6295

> <Gold.PLP.part.repulsive>
0.0854

> <Gold.PLP.ligand.clash>
0.0000

> <Gold.PLP.ligand.torsion>
0.8672

> <Gold.PLP.Chemscore.Hbond>
3.0000

> <Gold.PLP.Chemscore.CHOScore>
0.0000

> <Gold.PLP.Chemscore.Metal>
0.0000

> <Gold.Chemscore.Hbonds>
donor molecule, donor type, donor heavy atom, donor atom, acceptor molecule, acceptor atom, score
      L1  H    10    45       P1  8028  2.00
      P1  H  7997  8010       L1    21  1.00

> <Gold.PLP.Chemscore.Internal.Correction>
0.0599

> <Gold.Rescore>
     Score         DG    S(hbond)    S(metal)    S(lipo)     H(rot)  DE(clash)    DE(int)     intcor
     16.74     -17.40       1.89        0.00     102.87       2.52       0.01       0.65       ----

> <Gold.Chemscore.Fitness>
16.7378

> <Gold.Chemscore.DG>
-17.4031

> <Gold.Chemscore.ZeroCoef>
-5.4800

> <Gold.Chemscore.Hbond>
1.8947

> <Gold.Chemscore.Metal>
0.0000

> <Gold.Chemscore.Lipo>
102.8708

> <Gold.Chemscore.Internal_Hbond>
0.0000

> <Gold.Chemscore.DEClash>
0.0149

> <Gold.Chemscore.DEInternal>
0.6505

> <Gold.Chemscore.Rot>
2.5161

> <Gold.Chemscore.Internal.Correction>
   9.000000E+99

> <Gold.Chemscore.Hbonds>
donor molecule, donor type, donor heavy atom, donor atom, acceptor molecule, acceptor atom, score
      L1  H    10    45       P1  8028  0.95
      P1  H  7997  8010       L1    21  0.25

> <Gold.Chemscore.Hbond.Weighted>
-6.3284

> <Gold.Chemscore.Metal.Weighted>
-0.0000

> <Gold.Chemscore.Lipo.Weighted>
-12.0359

> <Gold.Chemscore.Internal_Hbond.Weighted>
0.0000

> <Gold.Chemscore.DEClash.Weighted>
0.0149

> <Gold.Chemscore.DEInternal.Weighted>
0.6505

> <Gold.Chemscore.Rot.Weighted>
6.4412

> <Gold.Chemscore.Internal.Correction.Weighted>
   9.000000E+99

> <Gold.Protein.RotatedTorsions>
[ 6907 6896 6895 6894 ] final   20.73 input  -60.11 | X-H torsion
[ 7974 7965 7964 7962 ] final -115.99 input  175.53 | X-H torsion
[ 8008 7997 7996 7995 ] final  103.32 input   59.86 | X-H torsion
[ 10167 10162 10161 10158 ] final  147.42 input  -65.29 | X-H torsion
[ 10718 10713 10712 10709 ] final   33.14 input   66.30 | X-H torsion
[ 10763 10752 10751 10750 ] final  -11.53 input  -60.55 | X-H torsion
[ 11005 11000 10999 10996 ] final  -49.80 input  -57.11 | X-H torsion

> <Gold.Protein.ActiveResidues>
 VAL166  LYS551  ARG553  GLY616  TRP617  ASP618  TYR619  PRO620  LYS621  CYS622 
 ASP623  PHE694  ASN695  SER759  ASP760  ASP761  ALA762  ILE779  LEU786  VAL792 
 PHE793  MET794  SER795  GLU796  ALA797  LYS798  CYS799  TRP800  GLU811  SER814 

> <Gold.Protein.RotatedAtoms>
  151.9009  135.0379  160.0505 H   0  0  0  0  0  0  0  0  0  0  0  0  # atno 6907 bound_to 6896
  152.2359  133.5091  159.5250 H   0  0  0  0  0  0  0  0  0  0  0  0  # atno 6908 bound_to 6896
  150.7039  134.1070  159.4029 H   0  0  0  0  0  0  0  0  0  0  0  0  # atno 6909 bound_to 6896
  145.1020  140.8558  143.3920 H   0  0  0  0  0  0  0  0  0  0  0  0  # atno 7974 bound_to 7965
  156.1473  140.3167  155.8591 H   0  0  0  0  0  0  0  0  0  0  0  0  # atno 8008 bound_to 7997
  155.4040  140.0501  157.3052 H   0  0  0  0  0  0  0  0  0  0  0  0  # atno 8009 bound_to 7997
  154.5027  140.2135  155.9325 H   0  0  0  0  0  0  0  0  0  0  0  0  # atno 8010 bound_to 7997
  139.4890  144.5756  151.6971 H   0  0  0  0  0  0  0  0  0  0  0  0  # atno 10167 bound_to 10162
  157.2941  130.7317  149.6628 H   0  0  0  0  0  0  0  0  0  0  0  0  # atno 10718 bound_to 10713
  153.4851  135.7017  153.5916 H   0  0  0  0  0  0  0  0  0  0  0  0  # atno 10763 bound_to 10752
  153.4113  135.3848  155.2052 H   0  0  0  0  0  0  0  0  0  0  0  0  # atno 10764 bound_to 10752
  154.8720  135.3905  154.4305 H   0  0  0  0  0  0  0  0  0  0  0  0  # atno 10765 bound_to 10752
  141.0780  133.6661  156.3638 H   0  0  0  0  0  0  0  0  0  0  0  0  # atno 11005 bound_to 11000
  145.0944  139.2867  143.5718 LP  0  0  0  0  0  0  0  0  0  0  0  0  # atno 17320 bound_to 7965
  146.3529  140.0492  142.8637 LP  0  0  0  0  0  0  0  0  0  0  0  0  # atno 17321 bound_to 7965
  140.5352  144.0667  150.6068 LP  0  0  0  0  0  0  0  0  0  0  0  0  # atno 17342 bound_to 10162
  140.3671  143.2875  152.0320 LP  0  0  0  0  0  0  0  0  0  0  0  0  # atno 17343 bound_to 10162
  155.9668  130.4300  150.4856 LP  0  0  0  0  0  0  0  0  0  0  0  0  # atno 17370 bound_to 10713
  157.2825  131.0609  151.2188 LP  0  0  0  0  0  0  0  0  0  0  0  0  # atno 17371 bound_to 10713
  140.5532  134.6007  157.5413 LP  0  0  0  0  0  0  0  0  0  0  0  0  # atno 17394 bound_to 11000
  139.9592  134.7481  156.0273 LP  0  0  0  0  0  0  0  0  0  0  0  0  # atno 17395 bound_to 11000

$$$$
