AV-unprocessed.smi:171|AV-procd|sdf|1417|dock8
  -GOLD-   2262019183D 1   1.00000     0.00000
 Structure written by MMmdl.
 56 59  0  0  0  0  0  0  0  0  1 V2000
  151.9843  144.1631  159.1408 C   0  0  0  0  0  0  0  0  0  0  0  0
  151.5572  142.8500  158.4635 C   0  0  0  0  0  0  0  0  0  0  0  0
  152.4385  141.6868  158.9435 C   0  0  0  0  0  0  0  0  0  0  0  0
  151.5744  142.9425  156.9194 C   0  0  0  0  0  0  0  0  0  0  0  0
  150.8125  141.8174  156.1768 C   0  0  1  0  0  0  0  0  0  0  0  0
  151.6274  140.5046  156.2131 C   0  0  0  0  0  0  0  0  0  0  0  0
  152.6728  140.4227  155.5716 O   0  0  0  0  0  0  0  0  0  0  0  0
  151.1751  139.4708  156.9457 N   0  0  0  0  0  0  0  0  0  0  0  0
  149.9391  139.4509  157.7281 C   0  0  0  0  0  0  0  0  0  0  0  0
  149.3658  140.8573  157.9713 C   0  0  0  0  0  0  0  0  0  0  0  0
  149.4699  141.6574  156.7553 N   0  0  0  0  0  0  0  0  0  0  0  0
  148.4044  141.5664  155.9210 C   0  0  0  0  0  0  0  0  0  0  0  0
  148.5917  141.3573  154.5909 N   0  0  0  0  0  0  0  0  0  0  0  0
  147.5407  141.2602  153.7716 C   0  0  0  0  0  0  0  0  0  0  0  0
  146.2416  141.3388  154.0674 N   0  0  0  0  0  0  0  0  0  0  0  0
  146.0491  141.5453  155.4019 C   0  0  0  0  0  0  0  0  0  0  0  0
  147.0663  141.6691  156.3891 C   0  0  0  0  0  0  0  0  0  0  0  0
  146.4951  141.8839  157.6367 N   0  0  0  0  0  0  0  0  0  0  0  0
  145.2115  141.8854  157.4008 C   0  0  0  0  0  0  0  0  0  0  0  0
  144.8536  141.6796  156.0868 N   0  0  0  0  0  0  0  0  0  0  0  0
  143.5029  141.6421  155.5451 C   0  0  0  0  0  0  0  0  0  0  0  0
  142.7077  142.9575  155.7359 C   0  0  2  0  0  0  0  0  0  0  0  0
  141.5255  142.8869  154.9557 O   0  0  0  0  0  0  0  0  0  0  0  0
  143.4756  144.2251  155.3331 C   0  0  0  0  0  0  0  0  0  0  0  0
  143.5858  145.0303  156.6253 C   0  0  0  0  0  0  0  0  0  0  0  0
  142.4609  144.6143  157.3790 O   0  0  0  0  0  0  0  0  0  0  0  0
  142.3591  143.2078  157.2222 C   0  0  1  0  0  0  0  0  0  0  0  0
  140.9982  142.6927  157.7182 C   0  0  0  0  0  0  0  0  0  0  0  0
  152.9781  144.4723  158.8162 H   0  0  0  0  0  0  0  0  0  0  0  0
  152.0080  144.0542  160.2255 H   0  0  0  0  0  0  0  0  0  0  0  0
  151.2907  144.9739  158.9183 H   0  0  0  0  0  0  0  0  0  0  0  0
  150.5401  142.6262  158.7875 H   0  0  0  0  0  0  0  0  0  0  0  0
  153.4817  141.8387  158.6644 H   0  0  0  0  0  0  0  0  0  0  0  0
  152.1124  140.7406  158.5110 H   0  0  0  0  0  0  0  0  0  0  0  0
  152.3958  141.5821  160.0280 H   0  0  0  0  0  0  0  0  0  0  0  0
  151.1616  143.9086  156.6243 H   0  0  0  0  0  0  0  0  0  0  0  0
  152.6124  142.9548  156.5828 H   0  0  0  0  0  0  0  0  0  0  0  0
  150.7439  142.1088  155.1280 H   0  0  0  0  0  0  0  0  0  0  0  0
  151.7275  138.6257  156.9502 H   0  0  0  0  0  0  0  0  0  0  0  0
  149.2131  138.8514  157.1775 H   0  0  0  0  0  0  0  0  0  0  0  0
  150.1135  138.9413  158.6760 H   0  0  0  0  0  0  0  0  0  0  0  0
  148.3400  140.7881  158.3353 H   0  0  0  0  0  0  0  0  0  0  0  0
  149.9306  141.3553  158.7598 H   0  0  0  0  0  0  0  0  0  0  0  0
  147.7743  141.0957  152.7301 H   0  0  0  0  0  0  0  0  0  0  0  0
  144.4844  142.0359  158.1854 H   0  0  0  0  0  0  0  0  0  0  0  0
  143.5702  141.3950  154.4848 H   0  0  0  0  0  0  0  0  0  0  0  0
  142.9714  140.8139  156.0153 H   0  0  0  0  0  0  0  0  0  0  0  0
  141.6952  142.3318  154.2095 H   0  0  0  0  0  0  0  0  0  0  0  0
  144.4623  144.0273  154.9165 H   0  0  0  0  0  0  0  0  0  0  0  0
  142.9248  144.8023  154.5887 H   0  0  0  0  0  0  0  0  0  0  0  0
  144.4996  144.7749  157.1644 H   0  0  0  0  0  0  0  0  0  0  0  0
  143.5795  146.1069  156.4530 H   0  0  0  0  0  0  0  0  0  0  0  0
  143.1377  142.7705  157.8501 H   0  0  0  0  0  0  0  0  0  0  0  0
  140.9062  141.6176  157.5612 H   0  0  0  0  0  0  0  0  0  0  0  0
  140.1688  143.1819  157.2070 H   0  0  0  0  0  0  0  0  0  0  0  0
  140.8799  142.8824  158.7850 H   0  0  0  0  0  0  0  0  0  0  0  0
  1  2  1  0  0  0  0
  1 29  1  0  0  0  0
  1 30  1  0  0  0  0
  1 31  1  0  0  0  0
  2  3  1  0  0  0  0
  2  4  1  0  0  0  0
  2 32  1  0  0  0  0
  3 33  1  0  0  0  0
  3 34  1  0  0  0  0
  3 35  1  0  0  0  0
  4  5  1  0  0  0  0
  4 36  1  0  0  0  0
  4 37  1  0  0  0  0
  5 11  1  0  0  0  0
  5  6  1  0  0  0  0
  5 38  1  0  0  0  0
  6  7  2  0  0  0  0
  6  8  1  0  0  0  0
  8  9  1  0  0  0  0
  8 39  1  0  0  0  0
  9 10  1  0  0  0  0
  9 40  1  0  0  0  0
  9 41  1  0  0  0  0
 10 11  1  0  0  0  0
 10 42  1  0  0  0  0
 10 43  1  0  0  0  0
 11 12  1  0  0  0  0
 12 17  1  0  0  0  0
 12 13  2  0  0  0  0
 13 14  1  0  0  0  0
 14 15  2  0  0  0  0
 14 44  1  0  0  0  0
 15 16  1  0  0  0  0
 16 20  1  0  0  0  0
 16 17  2  0  0  0  0
 17 18  1  0  0  0  0
 18 19  2  0  0  0  0
 19 20  1  0  0  0  0
 19 45  1  0  0  0  0
 20 21  1  0  0  0  0
 21 22  1  0  0  0  0
 21 46  1  0  0  0  0
 21 47  1  0  0  0  0
 22 27  1  0  0  0  0
 22 23  1  0  0  0  0
 22 24  1  0  0  0  0
 23 48  1  0  0  0  0
 24 25  1  0  0  0  0
 24 49  1  0  0  0  0
 24 50  1  0  0  0  0
 25 26  1  0  0  0  0
 25 51  1  0  0  0  0
 25 52  1  0  0  0  0
 26 27  1  0  0  0  0
 27 28  1  0  0  0  0
 27 53  1  0  0  0  0
 28 54  1  0  0  0  0
 28 55  1  0  0  0  0
 28 56  1  0  0  0  0
M  END
> <s_m_source_file>
AV-unprocessed.smi

> <i_m_source_file_index>
171

> <i_lp_mmshare_version>
43012

> <i_f3d_flags>
0

> <s_epik_input>
W0NIM11bQ0hdKFtDSDNdKVtDSDJdW0NAQEhdMUMoPU8pW05IXVtDSDJdW0NIMl1OMWMobltjSF1uMiljKGMyMyluW2NIXW4zW0NIMl1bQ0BAXTQoW09IXSlbQ0gyXVtDSDJdT1tDQEhdNFtDSDNd

> <s_epik_cmdline>
J2VwaWtfcHl0aG9uJywgJy1waCcsICc3LjAnLCAnLXRuJywgJzgnLCAnLW1hJywgJzIwMCcsICctbWV0YWxfYmluZGluZycsICctaW1hZScsICc8aW5maWxlLm1hZT4nLCAnLW9tYWUnLCAnPG91dGZpbGUubWFlPic=

> <r_lp_tautomer_probability>
1

> <r_epik_Ionization_Penalty>
0.000670584

> <r_epik_Ionization_Penalty_Charging>
0

> <r_epik_Ionization_Penalty_Neutral>
0.000670584

> <r_epik_State_Penalty>
0.000304767

> <r_epik_Charging_Adjusted_Penalty>
0.000304767

> <i_epik_Tot_Q>
0

> <i_epik_Tot_abs_Q>
0

> <r_epik_Metal_State_Penalty>
-0

> <b_epik_Metal_Only>
0

> <s_lp_Force_Field>
OPLS_2005

> <r_lp_Energy>
42.7698

> <b_lp_Chiralities_Consistent>
1

> <s_lp_Variant>
AV-unprocessed.smi:171-4

> <Gold.Version>
5.8.1

> <Gold.Id.Protein>
6NUR|6NUR_protein|mol2

> <Gold.PLP.Fitness>
41.0709

> <Gold.PLP.PLP>
-33.1788

> <Gold.PLP.part.hbond>
-2.0000

> <Gold.PLP.part.metal>
0.0000

> <Gold.PLP.part.buried>
-5.5437

> <Gold.PLP.part.nonpolar>
-25.6079

> <Gold.PLP.part.repulsive>
0.4821

> <Gold.PLP.ligand.clash>
0.0000

> <Gold.PLP.ligand.torsion>
0.7082

> <Gold.PLP.Chemscore.Hbond>
2.0000

> <Gold.PLP.Chemscore.CHOScore>
1.0000

> <Gold.PLP.Chemscore.Metal>
0.0000

> <Gold.Chemscore.Hbonds>
donor molecule, donor type, donor heavy atom, donor atom, acceptor molecule, acceptor atom, score
      L1  H    23    48       P1 10174  0.31
      P1  H  7989  7998       L1     7  0.08
      P1  H  7997  8009       L1     7  0.96
      L1  C    14    44       P1  7957  0.79

> <Gold.PLP.Chemscore.Internal.Correction>
0.3085

> <Gold.Rescore>
     Score         DG    S(hbond)    S(metal)    S(lipo)     H(rot)  DE(clash)    DE(int)     intcor
     12.11     -15.60       2.00        0.00      79.58       2.29       1.67       1.82       ----

> <Gold.Chemscore.Fitness>
12.1114

> <Gold.Chemscore.DG>
-15.5989

> <Gold.Chemscore.ZeroCoef>
-5.4800

> <Gold.Chemscore.Hbond>
1.9992

> <Gold.Chemscore.Metal>
0.0000

> <Gold.Chemscore.Lipo>
79.5833

> <Gold.Chemscore.Internal_Hbond>
0.0000

> <Gold.Chemscore.DEClash>
1.6699

> <Gold.Chemscore.DEInternal>
1.8176

> <Gold.Chemscore.Rot>
2.2928

> <Gold.Chemscore.Internal.Correction>
   9.000000E+99

> <Gold.Chemscore.Hbonds>
donor molecule, donor type, donor heavy atom, donor atom, acceptor molecule, acceptor atom, score
      L1  H    23    48       P1 10174  0.28
      P1  H  7989  7998       L1     7  0.01
      P1  H  7997  8009       L1     7  0.92

> <Gold.Chemscore.Hbond.Weighted>
-6.6772

> <Gold.Chemscore.Metal.Weighted>
-0.0000

> <Gold.Chemscore.Lipo.Weighted>
-9.3113

> <Gold.Chemscore.Internal_Hbond.Weighted>
0.0000

> <Gold.Chemscore.DEClash.Weighted>
1.6699

> <Gold.Chemscore.DEInternal.Weighted>
1.8176

> <Gold.Chemscore.Rot.Weighted>
5.8696

> <Gold.Chemscore.Internal.Correction.Weighted>
   9.000000E+99

> <Gold.Protein.RotatedTorsions>
[ 6907 6896 6895 6894 ] final  -12.42 input  -60.11 | X-H torsion
[ 7974 7965 7964 7962 ] final   45.34 input  175.53 | X-H torsion
[ 8008 7997 7996 7995 ] final -135.22 input   59.86 | X-H torsion
[ 10167 10162 10161 10158 ] final   62.27 input  -65.29 | X-H torsion
[ 10718 10713 10712 10709 ] final  -31.72 input   66.30 | X-H torsion
[ 10763 10752 10751 10750 ] final   67.82 input  -60.55 | X-H torsion
[ 11005 11000 10999 10996 ] final   92.17 input  -57.11 | X-H torsion

> <Gold.Protein.ActiveResidues>
 VAL166  LYS551  ARG553  GLY616  TRP617  ASP618  TYR619  PRO620  LYS621  CYS622 
 ASP623  PHE694  ASN695  SER759  ASP760  ASP761  ALA762  ILE779  LEU786  VAL792 
 PHE793  MET794  SER795  GLU796  ALA797  LYS798  CYS799  TRP800  GLU811  SER814 

> <Gold.Protein.RotatedAtoms>
  151.3707  135.0922  159.9464 H   0  0  0  0  0  0  0  0  0  0  0  0  # atno 6907 bound_to 6896
  152.5136  133.9167  159.7525 H   0  0  0  0  0  0  0  0  0  0  0  0  # atno 6908 bound_to 6896
  150.9580  133.6421  159.2788 H   0  0  0  0  0  0  0  0  0  0  0  0  # atno 6909 bound_to 6896
  146.0489  139.4975  142.9731 H   0  0  0  0  0  0  0  0  0  0  0  0  # atno 7974 bound_to 7965
  155.3751  140.0490  157.3045 H   0  0  0  0  0  0  0  0  0  0  0  0  # atno 8008 bound_to 7997
  154.5110  140.2191  155.9119 H   0  0  0  0  0  0  0  0  0  0  0  0  # atno 8009 bound_to 7997
  156.1583  140.3122  155.8768 H   0  0  0  0  0  0  0  0  0  0  0  0  # atno 8010 bound_to 7997
  140.1458  144.4510  150.6786 H   0  0  0  0  0  0  0  0  0  0  0  0  # atno 10167 bound_to 10162
  156.3837  130.4360  149.7448 H   0  0  0  0  0  0  0  0  0  0  0  0  # atno 10718 bound_to 10713
  153.0205  135.5270  154.7039 H   0  0  0  0  0  0  0  0  0  0  0  0  # atno 10763 bound_to 10752
  154.6140  135.2881  155.0403 H   0  0  0  0  0  0  0  0  0  0  0  0  # atno 10764 bound_to 10752
  154.1414  135.6577  153.4995 H   0  0  0  0  0  0  0  0  0  0  0  0  # atno 10765 bound_to 10752
  139.8827  134.8717  156.3534 H   0  0  0  0  0  0  0  0  0  0  0  0  # atno 11005 bound_to 11000
  145.6759  141.0204  143.1633 LP  0  0  0  0  0  0  0  0  0  0  0  0  # atno 17320 bound_to 7965
  144.7112  139.8364  143.7414 LP  0  0  0  0  0  0  0  0  0  0  0  0  # atno 17321 bound_to 7965
  140.6733  143.2294  151.5571 LP  0  0  0  0  0  0  0  0  0  0  0  0  # atno 17342 bound_to 10162
  139.5450  144.2546  152.1424 LP  0  0  0  0  0  0  0  0  0  0  0  0  # atno 17343 bound_to 10162
  156.4529  130.7915  151.2936 LP  0  0  0  0  0  0  0  0  0  0  0  0  # atno 17370 bound_to 10713
  157.7494  131.0090  150.3249 LP  0  0  0  0  0  0  0  0  0  0  0  0  # atno 17371 bound_to 10713
  140.9578  133.7408  156.0360 LP  0  0  0  0  0  0  0  0  0  0  0  0  # atno 17394 bound_to 11000
  140.8026  134.3491  157.5435 LP  0  0  0  0  0  0  0  0  0  0  0  0  # atno 17395 bound_to 11000

$$$$
