AV-unprocessed.smi:3126|AV-procd|sdf|11911|dock10
  -GOLD-   2272017293D 1   1.00000     0.00000
 Structure written by MMmdl.
 42 43  0  0  0  0  0  0  0  0  2 V2000
  153.3854  142.4320  162.4852 C   0  0  0  0  0  0  0  0  0  0  0  0
  153.3432  142.2077  160.9672 C   0  0  0  0  0  0  0  0  0  0  0  0
  152.1715  142.9166  160.2573 C   0  0  1  0  0  0  0  0  0  0  0  0
  152.2094  144.4345  160.5237 C   0  0  0  0  0  0  0  0  0  0  0  0
  151.0453  145.1609  159.8338 C   0  0  0  0  0  0  0  0  0  0  0  0
  151.0376  144.8831  158.3241 C   0  0  0  0  0  0  0  0  0  0  0  0
  150.9836  143.3729  158.0323 C   0  0  1  0  0  0  0  0  0  0  0  0
  151.0023  143.1480  156.5693 N   0  3  0  0  0  0  0  0  0  0  0  0
  150.5569  141.8095  156.1290 C   0  0  0  0  0  0  0  0  0  0  0  0
  151.7449  140.8457  156.0160 C   0  0  0  0  0  0  0  0  0  0  0  0
  151.3143  139.4645  155.5633 C   0  0  0  0  0  0  0  0  0  0  0  0
  149.9584  139.1775  155.3021 C   0  0  0  0  0  0  0  0  0  0  0  0
  149.6092  137.8815  154.8766 C   0  0  0  0  0  0  0  0  0  0  0  0
  150.6333  136.9246  154.7304 C   0  0  0  0  0  0  0  0  0  0  0  0
  151.9347  137.1886  154.9771 N   0  0  0  0  0  0  0  0  0  0  0  0
  152.2612  138.4333  155.3854 C   0  0  0  0  0  0  0  0  0  0  0  0
  152.1511  142.6463  158.7363 C   0  0  0  0  0  0  0  0  0  0  0  0
  154.2708  141.9653  162.9174 H   0  0  0  0  0  0  0  0  0  0  0  0
  152.5168  142.0033  162.9838 H   0  0  0  0  0  0  0  0  0  0  0  0
  153.4228  143.4948  162.7254 H   0  0  0  0  0  0  0  0  0  0  0  0
  154.2836  142.5699  160.5500 H   0  0  0  0  0  0  0  0  0  0  0  0
  153.3144  141.1381  160.7558 H   0  0  0  0  0  0  0  0  0  0  0  0
  151.2431  142.5321  160.6828 H   0  0  0  0  0  0  0  0  0  0  0  0
  152.1693  144.6269  161.5965 H   0  0  0  0  0  0  0  0  0  0  0  0
  153.1560  144.8479  160.1724 H   0  0  0  0  0  0  0  0  0  0  0  0
  150.0997  144.8387  160.2721 H   0  0  0  0  0  0  0  0  0  0  0  0
  151.1190  146.2338  160.0137 H   0  0  0  0  0  0  0  0  0  0  0  0
  150.1839  145.3842  157.8660 H   0  0  0  0  0  0  0  0  0  0  0  0
  151.9305  145.3180  157.8720 H   0  0  0  0  0  0  0  0  0  0  0  0
  150.0394  142.9895  158.4225 H   0  0  0  0  0  0  0  0  0  0  0  0
  150.3784  143.8231  156.1506 H   0  0  0  0  0  0  0  0  0  0  0  0
  149.8295  141.4100  156.8358 H   0  0  0  0  0  0  0  0  0  0  0  0
  150.0568  141.8957  155.1634 H   0  0  0  0  0  0  0  0  0  0  0  0
  152.4799  141.2367  155.3108 H   0  0  0  0  0  0  0  0  0  0  0  0
  152.2539  140.7611  156.9772 H   0  0  0  0  0  0  0  0  0  0  0  0
  149.1985  139.9359  155.4224 H   0  0  0  0  0  0  0  0  0  0  0  0
  148.5810  137.6260  154.6663 H   0  0  0  0  0  0  0  0  0  0  0  0
  150.4014  135.9215  154.4043 H   0  0  0  0  0  0  0  0  0  0  0  0
  153.3099  138.6125  155.5716 H   0  0  0  0  0  0  0  0  0  0  0  0
  153.0983  142.9617  158.2960 H   0  0  0  0  0  0  0  0  0  0  0  0
  152.0726  141.5743  158.5626 H   0  0  0  0  0  0  0  0  0  0  0  0
  151.9359  143.3193  156.2241 H   0  0  0  0  0  0  0  0  0  0  0  0
  1  2  1  0  0  0  0
  1 18  1  0  0  0  0
  1 19  1  0  0  0  0
  1 20  1  0  0  0  0
  2  3  1  0  0  0  0
  2 21  1  0  0  0  0
  2 22  1  0  0  0  0
  3 17  1  0  0  0  0
  3  4  1  0  0  0  0
  3 23  1  0  0  0  0
  4  5  1  0  0  0  0
  4 24  1  0  0  0  0
  4 25  1  0  0  0  0
  5  6  1  0  0  0  0
  5 26  1  0  0  0  0
  5 27  1  0  0  0  0
  6  7  1  0  0  0  0
  6 28  1  0  0  0  0
  6 29  1  0  0  0  0
  7  8  1  0  0  0  0
  7 17  1  0  0  0  0
  7 30  1  0  0  0  0
  8  9  1  0  0  0  0
  8 31  1  0  0  0  0
  8 42  1  0  0  0  0
  9 10  1  0  0  0  0
  9 32  1  0  0  0  0
  9 33  1  0  0  0  0
 10 11  1  0  0  0  0
 10 34  1  0  0  0  0
 10 35  1  0  0  0  0
 11 16  1  0  0  0  0
 11 12  2  0  0  0  0
 12 13  1  0  0  0  0
 12 36  1  0  0  0  0
 13 14  2  0  0  0  0
 13 37  1  0  0  0  0
 14 15  1  0  0  0  0
 14 38  1  0  0  0  0
 15 16  2  0  0  0  0
 16 39  1  0  0  0  0
 17 40  1  0  0  0  0
 17 41  1  0  0  0  0
M  CHG  1   8   1
M  END
> <s_m_source_file>
AV-unprocessed.smi

> <i_m_source_file_index>
3126

> <i_lp_mmshare_version>
43012

> <i_f3d_flags>
0

> <s_epik_input>
W0NIM11bQ0gyXVtDQEBIXTFbQ0gyXVtDSDJdW0NIMl1bQ0BIXShbQ0gyXTEpW05IXVtDSDJdW0NIMl1jMltjSF1bY0hdW2NIXW5bY0hdMg==

> <s_epik_cmdline>
J2VwaWtfcHl0aG9uJywgJy1waCcsICc3LjAnLCAnLXRuJywgJzgnLCAnLW1hJywgJzIwMCcsICctbWV0YWxfYmluZGluZycsICctaW1hZScsICc8aW5maWxlLm1hZT4nLCAnLW9tYWUnLCAnPG91dGZpbGUubWFlPic=

> <r_lp_tautomer_probability>
1

> <r_epik_Ionization_Penalty>
0.000947364

> <r_epik_Ionization_Penalty_Charging>
0.000286103

> <r_epik_Ionization_Penalty_Neutral>
0.000661261

> <r_epik_State_Penalty>
-0

> <r_epik_Charging_Adjusted_Penalty>
0.000286103

> <i_epik_Tot_Q>
1

> <i_epik_Tot_abs_Q>
1

> <r_epik_Metal_State_Penalty>
-0

> <b_epik_Metal_Only>
0

> <s_lp_Force_Field>
OPLS_2005

> <r_lp_Energy>
13.7456

> <b_lp_Chiralities_Consistent>
1

> <s_lp_Variant>
AV-unprocessed.smi:3126-2

> <Gold.Version>
5.8.1

> <Gold.Id.Protein>
6NUR|6NUR_protein|mol2

> <Gold.PLP.Fitness>
52.3305

> <Gold.PLP.PLP>
-43.8776

> <Gold.PLP.part.hbond>
-2.0000

> <Gold.PLP.part.metal>
0.0000

> <Gold.PLP.part.buried>
-5.9091

> <Gold.PLP.part.nonpolar>
-36.6634

> <Gold.PLP.part.repulsive>
0.1649

> <Gold.PLP.ligand.clash>
0.0000

> <Gold.PLP.ligand.torsion>
0.3319

> <Gold.PLP.Chemscore.Hbond>
2.9600

> <Gold.PLP.Chemscore.CHOScore>
0.0757

> <Gold.PLP.Chemscore.Metal>
0.0000

> <Gold.Chemscore.Hbonds>
donor molecule, donor type, donor heavy atom, donor atom, acceptor molecule, acceptor atom, score
      L1  H     8    31       P1  8028  2.00
      P1  H 10752 10763       L1    15  0.94
      L1  C    14    38       P1  7948  0.03

> <Gold.PLP.Chemscore.Internal.Correction>
0.0097

> <Gold.Rescore>
     Score         DG    S(hbond)    S(metal)    S(lipo)     H(rot)  DE(clash)    DE(int)     intcor
     23.57     -23.93       1.96        0.00     131.43       1.35       0.00       0.36       ----

> <Gold.Chemscore.Fitness>
23.5701

> <Gold.Chemscore.DG>
-23.9301

> <Gold.Chemscore.ZeroCoef>
-5.4800

> <Gold.Chemscore.Hbond>
1.9554

> <Gold.Chemscore.Metal>
0.0000

> <Gold.Chemscore.Lipo>
131.4275

> <Gold.Chemscore.Internal_Hbond>
0.0000

> <Gold.Chemscore.DEClash>
0.0029

> <Gold.Chemscore.DEInternal>
0.3572

> <Gold.Chemscore.Rot>
1.3507

> <Gold.Chemscore.Internal.Correction>
   9.000000E+99

> <Gold.Chemscore.Hbonds>
donor molecule, donor type, donor heavy atom, donor atom, acceptor molecule, acceptor atom, score
      L1  H     8    31       P1  8028  1.00
      P1  H 10752 10763       L1    15  0.59

> <Gold.Chemscore.Hbond.Weighted>
-6.5310

> <Gold.Chemscore.Metal.Weighted>
-0.0000

> <Gold.Chemscore.Lipo.Weighted>
-15.3770

> <Gold.Chemscore.Internal_Hbond.Weighted>
0.0000

> <Gold.Chemscore.DEClash.Weighted>
0.0029

> <Gold.Chemscore.DEInternal.Weighted>
0.3572

> <Gold.Chemscore.Rot.Weighted>
3.4579

> <Gold.Chemscore.Internal.Correction.Weighted>
   9.000000E+99

> <Gold.Protein.RotatedTorsions>
[ 6907 6896 6895 6894 ] final -135.98 input  -60.11 | X-H torsion
[ 7974 7965 7964 7962 ] final -156.44 input  175.53 | X-H torsion
[ 8008 7997 7996 7995 ] final  -39.32 input   59.86 | X-H torsion
[ 10167 10162 10161 10158 ] final -159.80 input  -65.29 | X-H torsion
[ 10718 10713 10712 10709 ] final  170.09 input   66.30 | X-H torsion
[ 10763 10752 10751 10750 ] final   55.04 input  -60.55 | X-H torsion
[ 11005 11000 10999 10996 ] final   66.29 input  -57.11 | X-H torsion

> <Gold.Protein.ActiveResidues>
 VAL166  LYS551  ARG553  GLY616  TRP617  ASP618  TYR619  PRO620  LYS621  CYS622 
 ASP623  PHE694  ASN695  SER759  ASP760  ASP761  ALA762  ILE779  LEU786  VAL792 
 PHE793  MET794  SER795  GLU796  ALA797  LYS798  CYS799  TRP800  GLU811  SER814 

> <Gold.Protein.RotatedAtoms>
  151.0045  133.6024  159.2690 H   0  0  0  0  0  0  0  0  0  0  0  0  # atno 6907 bound_to 6896
  151.3198  135.0815  159.9311 H   0  0  0  0  0  0  0  0  0  0  0  0  # atno 6908 bound_to 6896
  152.5283  133.9694  159.7809 H   0  0  0  0  0  0  0  0  0  0  0  0  # atno 6909 bound_to 6896
  144.7593  140.4109  143.5988 H   0  0  0  0  0  0  0  0  0  0  0  0  # atno 7974 bound_to 7965
  154.4024  140.1554  156.2845 H   0  0  0  0  0  0  0  0  0  0  0  0  # atno 8008 bound_to 7997
  155.8840  140.3442  155.5886 H   0  0  0  0  0  0  0  0  0  0  0  0  # atno 8009 bound_to 7997
  155.7634  140.0820  157.2134 H   0  0  0  0  0  0  0  0  0  0  0  0  # atno 8010 bound_to 7997
  139.6588  143.9950  152.2211 H   0  0  0  0  0  0  0  0  0  0  0  0  # atno 10167 bound_to 10162
  157.0132  131.0210  151.2797 H   0  0  0  0  0  0  0  0  0  0  0  0  # atno 10718 bound_to 10713
  152.9812  135.5724  154.5002 H   0  0  0  0  0  0  0  0  0  0  0  0  # atno 10763 bound_to 10752
  154.4522  135.2779  155.1775 H   0  0  0  0  0  0  0  0  0  0  0  0  # atno 10764 bound_to 10752
  154.3398  135.6232  153.5644 H   0  0  0  0  0  0  0  0  0  0  0  0  # atno 10765 bound_to 10752
  139.9841  134.6696  156.0208 H   0  0  0  0  0  0  0  0  0  0  0  0  # atno 11005 bound_to 11000
  145.6673  139.1592  143.2774 LP  0  0  0  0  0  0  0  0  0  0  0  0  # atno 17320 bound_to 7965
  146.1639  140.6748  142.9265 LP  0  0  0  0  0  0  0  0  0  0  0  0  # atno 17321 bound_to 7965
  139.9684  144.6510  150.8013 LP  0  0  0  0  0  0  0  0  0  0  0  0  # atno 17342 bound_to 10162
  140.7571  143.3079  151.2917 LP  0  0  0  0  0  0  0  0  0  0  0  0  # atno 17343 bound_to 10162
  157.5305  130.8055  149.7911 LP  0  0  0  0  0  0  0  0  0  0  0  0  # atno 17370 bound_to 10713
  156.0128  130.3826  150.2207 LP  0  0  0  0  0  0  0  0  0  0  0  0  # atno 17371 bound_to 10713
  141.1509  133.6549  156.4010 LP  0  0  0  0  0  0  0  0  0  0  0  0  # atno 17394 bound_to 11000
  140.5037  134.6461  157.5258 LP  0  0  0  0  0  0  0  0  0  0  0  0  # atno 17395 bound_to 11000

$$$$
