AV-unprocessed.smi:197|AV-procd|sdf|1545|dock4
  -GOLD-   2262019403D 1   1.00000     0.00000
 Structure written by MMmdl.
 54 57  0  0  0  0  0  0  0  0  1 V2000
  152.3221  143.4394  159.4442 C   0  0  0  0  0  0  0  0  0  0  0  0
  151.6501  142.3146  158.8988 O   0  0  0  0  0  0  0  0  0  0  0  0
  151.0167  142.5613  157.6508 C   0  0  0  0  0  0  0  0  0  0  0  0
  150.9015  141.2777  156.8079 C   0  0  0  0  0  0  0  0  0  0  0  0
  149.4418  140.8353  156.5397 C   0  0  1  0  0  0  0  0  0  0  0  0
  148.7413  141.6831  155.4551 C   0  0  0  0  0  0  0  0  0  0  0  0
  149.3222  141.4256  154.1805 O   0  0  0  0  0  0  0  0  0  0  0  0
  149.1537  140.0690  153.7833 C   0  0  0  0  0  0  0  0  0  0  0  0
  149.8410  139.1395  154.7964 C   0  0  0  0  0  0  0  0  0  0  0  0
  149.3594  139.4247  156.1475 N   0  0  0  0  0  0  0  0  0  0  0  0
  149.5993  138.5066  157.1208 C   0  0  0  0  0  0  0  0  0  0  0  0
  150.8795  138.2519  157.5036 N   0  0  0  0  0  0  0  0  0  0  0  0
  151.1337  137.3679  158.4722 C   0  0  0  0  0  0  0  0  0  0  0  0
  150.2721  136.6359  159.1801 N   0  0  0  0  0  0  0  0  0  0  0  0
  148.9860  136.8794  158.7984 C   0  0  0  0  0  0  0  0  0  0  0  0
  148.5647  137.7859  157.7839 C   0  0  0  0  0  0  0  0  0  0  0  0
  147.1804  137.7434  157.6615 N   0  0  0  0  0  0  0  0  0  0  0  0
  146.8057  136.8725  158.5576 C   0  0  0  0  0  0  0  0  0  0  0  0
  147.8242  136.3147  159.2959 N   0  0  0  0  0  0  0  0  0  0  0  0
  147.6904  135.3243  160.3531 C   0  0  0  0  0  0  0  0  0  0  0  0
  147.1493  135.8962  161.6929 C   0  0  1  0  0  0  0  0  0  0  0  0
  148.1455  136.6903  162.3087 O   0  0  0  0  0  0  0  0  0  0  0  0
  145.8800  136.7267  161.5442 C   0  0  0  0  0  0  0  0  0  0  0  0
  144.7874  135.6622  161.5211 C   0  0  0  0  0  0  0  0  0  0  0  0
  145.2820  134.5856  162.3122 O   0  0  0  0  0  0  0  0  0  0  0  0
  146.6405  134.8219  162.6734 C   0  0  1  0  0  0  0  0  0  0  0  0
  147.4273  133.5036  162.7245 C   0  0  0  0  0  0  0  0  0  0  0  0
  152.8105  143.1511  160.3749 H   0  0  0  0  0  0  0  0  0  0  0  0
  151.6376  144.2559  159.6723 H   0  0  0  0  0  0  0  0  0  0  0  0
  153.0918  143.8075  158.7648 H   0  0  0  0  0  0  0  0  0  0  0  0
  150.0414  143.0286  157.7960 H   0  0  0  0  0  0  0  0  0  0  0  0
  151.6338  143.2901  157.1271 H   0  0  0  0  0  0  0  0  0  0  0  0
  151.4348  141.4146  155.8668 H   0  0  0  0  0  0  0  0  0  0  0  0
  151.4189  140.4742  157.3304 H   0  0  0  0  0  0  0  0  0  0  0  0
  148.8836  140.9804  157.4627 H   0  0  0  0  0  0  0  0  0  0  0  0
  147.6752  141.4518  155.4238 H   0  0  0  0  0  0  0  0  0  0  0  0
  148.8127  142.7474  155.6732 H   0  0  0  0  0  0  0  0  0  0  0  0
  148.0911  139.8344  153.7018 H   0  0  0  0  0  0  0  0  0  0  0  0
  149.5865  139.9310  152.7925 H   0  0  0  0  0  0  0  0  0  0  0  0
  149.6335  138.1016  154.5323 H   0  0  0  0  0  0  0  0  0  0  0  0
  150.9226  139.2726  154.7552 H   0  0  0  0  0  0  0  0  0  0  0  0
  152.1766  137.2287  158.7161 H   0  0  0  0  0  0  0  0  0  0  0  0
  145.7674  136.6161  158.7111 H   0  0  0  0  0  0  0  0  0  0  0  0
  147.0363  134.5316  159.9881 H   0  0  0  0  0  0  0  0  0  0  0  0
  148.6676  134.8639  160.5035 H   0  0  0  0  0  0  0  0  0  0  0  0
  148.0005  136.6828  163.2425 H   0  0  0  0  0  0  0  0  0  0  0  0
  145.7366  137.3565  162.4243 H   0  0  0  0  0  0  0  0  0  0  0  0
  145.8599  137.3833  160.6758 H   0  0  0  0  0  0  0  0  0  0  0  0
  143.8382  136.0355  161.9062 H   0  0  0  0  0  0  0  0  0  0  0  0
  144.6224  135.3025  160.5048 H   0  0  0  0  0  0  0  0  0  0  0  0
  146.6152  135.2479  163.6784 H   0  0  0  0  0  0  0  0  0  0  0  0
  148.4750  133.6828  162.9674 H   0  0  0  0  0  0  0  0  0  0  0  0
  147.3855  132.9703  161.7749 H   0  0  0  0  0  0  0  0  0  0  0  0
  147.0190  132.8412  163.4877 H   0  0  0  0  0  0  0  0  0  0  0  0
  1  2  1  0  0  0  0
  1 28  1  0  0  0  0
  1 29  1  0  0  0  0
  1 30  1  0  0  0  0
  2  3  1  0  0  0  0
  3  4  1  0  0  0  0
  3 31  1  0  0  0  0
  3 32  1  0  0  0  0
  4  5  1  0  0  0  0
  4 33  1  0  0  0  0
  4 34  1  0  0  0  0
  5 10  1  0  0  0  0
  5  6  1  0  0  0  0
  5 35  1  0  0  0  0
  6  7  1  0  0  0  0
  6 36  1  0  0  0  0
  6 37  1  0  0  0  0
  7  8  1  0  0  0  0
  8  9  1  0  0  0  0
  8 38  1  0  0  0  0
  8 39  1  0  0  0  0
  9 10  1  0  0  0  0
  9 40  1  0  0  0  0
  9 41  1  0  0  0  0
 10 11  1  0  0  0  0
 11 16  1  0  0  0  0
 11 12  2  0  0  0  0
 12 13  1  0  0  0  0
 13 14  2  0  0  0  0
 13 42  1  0  0  0  0
 14 15  1  0  0  0  0
 15 19  1  0  0  0  0
 15 16  2  0  0  0  0
 16 17  1  0  0  0  0
 17 18  2  0  0  0  0
 18 19  1  0  0  0  0
 18 43  1  0  0  0  0
 19 20  1  0  0  0  0
 20 21  1  0  0  0  0
 20 44  1  0  0  0  0
 20 45  1  0  0  0  0
 21 26  1  0  0  0  0
 21 22  1  0  0  0  0
 21 23  1  0  0  0  0
 22 46  1  0  0  0  0
 23 24  1  0  0  0  0
 23 47  1  0  0  0  0
 23 48  1  0  0  0  0
 24 25  1  0  0  0  0
 24 49  1  0  0  0  0
 24 50  1  0  0  0  0
 25 26  1  0  0  0  0
 26 27  1  0  0  0  0
 26 51  1  0  0  0  0
 27 52  1  0  0  0  0
 27 53  1  0  0  0  0
 27 54  1  0  0  0  0
M  END
> <s_m_source_file>
AV-unprocessed.smi

> <i_m_source_file_index>
197

> <i_lp_mmshare_version>
43012

> <i_f3d_flags>
0

> <s_epik_input>
W0NIM11PW0NIMl1bQ0gyXVtDQEBIXTFbQ0gyXU9bQ0gyXVtDSDJdTjFjKG5bY0hdbjIpYyhjMjMpbltjSF1uM1tDSDJdW0NAQF00KFtPSF0pW0NIMl1bQ0gyXU9bQ0BIXTRbQ0gzXQ==

> <s_epik_cmdline>
J2VwaWtfcHl0aG9uJywgJy1waCcsICc3LjAnLCAnLXRuJywgJzgnLCAnLW1hJywgJzIwMCcsICctbWV0YWxfYmluZGluZycsICctaW1hZScsICc8aW5maWxlLm1hZT4nLCAnLW9tYWUnLCAnPG91dGZpbGUubWFlPic=

> <r_lp_tautomer_probability>
1

> <r_epik_Ionization_Penalty>
0.000106218

> <r_epik_Ionization_Penalty_Charging>
0

> <r_epik_Ionization_Penalty_Neutral>
0.000106218

> <r_epik_State_Penalty>
-0

> <r_epik_Charging_Adjusted_Penalty>
0

> <i_epik_Tot_Q>
0

> <i_epik_Tot_abs_Q>
0

> <r_epik_Metal_State_Penalty>
-0

> <b_epik_Metal_Only>
0

> <s_lp_Force_Field>
OPLS_2005

> <r_lp_Energy>
43.0465

> <b_lp_Chiralities_Consistent>
1

> <s_lp_Variant>
AV-unprocessed.smi:197-2

> <Gold.Version>
5.8.1

> <Gold.Id.Protein>
6NUR|6NUR_protein|mol2

> <Gold.PLP.Fitness>
44.8209

> <Gold.PLP.PLP>
-38.4493

> <Gold.PLP.part.hbond>
-3.9030

> <Gold.PLP.part.metal>
0.0000

> <Gold.PLP.part.buried>
-0.7385

> <Gold.PLP.part.nonpolar>
-34.8435

> <Gold.PLP.part.repulsive>
0.3591

> <Gold.PLP.ligand.clash>
0.0000

> <Gold.PLP.ligand.torsion>
1.2444

> <Gold.PLP.Chemscore.Hbond>
2.7520

> <Gold.PLP.Chemscore.CHOScore>
0.0000

> <Gold.PLP.Chemscore.Metal>
0.0000

> <Gold.Chemscore.Hbonds>
donor molecule, donor type, donor heavy atom, donor atom, acceptor molecule, acceptor atom, score
      P1  H  6896  6907       L1    14  1.00
      P1  H  6931  6943       L1    22  1.00
      P1  H  8011  8017       L1     7  0.48

> <Gold.PLP.Chemscore.Internal.Correction>
0.6046

> <Gold.Rescore>
     Score         DG    S(hbond)    S(metal)    S(lipo)     H(rot)  DE(clash)    DE(int)     intcor
     14.18     -17.53       2.31        0.00      99.09       2.84       2.12       1.23       ----

> <Gold.Chemscore.Fitness>
14.1762

> <Gold.Chemscore.DG>
-17.5260

> <Gold.Chemscore.ZeroCoef>
-5.4800

> <Gold.Chemscore.Hbond>
2.3091

> <Gold.Chemscore.Metal>
0.0000

> <Gold.Chemscore.Lipo>
99.0882

> <Gold.Chemscore.Internal_Hbond>
0.0000

> <Gold.Chemscore.DEClash>
2.1175

> <Gold.Chemscore.DEInternal>
1.2322

> <Gold.Chemscore.Rot>
2.8358

> <Gold.Chemscore.Internal.Correction>
   9.000000E+99

> <Gold.Chemscore.Hbonds>
donor molecule, donor type, donor heavy atom, donor atom, acceptor molecule, acceptor atom, score
      P1  H  6896  6907       L1    14  0.88
      P1  H  6931  6943       L1    22  0.55
      P1  H  8011  8017       L1     7  0.19

> <Gold.Chemscore.Hbond.Weighted>
-7.7122

> <Gold.Chemscore.Metal.Weighted>
-0.0000

> <Gold.Chemscore.Lipo.Weighted>
-11.5933

> <Gold.Chemscore.Internal_Hbond.Weighted>
0.0000

> <Gold.Chemscore.DEClash.Weighted>
2.1175

> <Gold.Chemscore.DEInternal.Weighted>
1.2322

> <Gold.Chemscore.Rot.Weighted>
7.2596

> <Gold.Chemscore.Internal.Correction.Weighted>
   9.000000E+99

> <Gold.Protein.RotatedTorsions>
[ 6907 6896 6895 6894 ] final  -39.93 input  -60.11 | X-H torsion
[ 7974 7965 7964 7962 ] final  101.72 input  175.53 | X-H torsion
[ 8008 7997 7996 7995 ] final -110.26 input   59.86 | X-H torsion
[ 10167 10162 10161 10158 ] final  -45.37 input  -65.29 | X-H torsion
[ 10718 10713 10712 10709 ] final  -47.70 input   66.30 | X-H torsion
[ 10763 10752 10751 10750 ] final  -60.20 input  -60.55 | X-H torsion
[ 11005 11000 10999 10996 ] final   -6.62 input  -57.11 | X-H torsion

> <Gold.Protein.ActiveResidues>
 VAL166  LYS551  ARG553  GLY616  TRP617  ASP618  TYR619  PRO620  LYS621  CYS622 
 ASP623  PHE694  ASN695  SER759  ASP760  ASP761  ALA762  ILE779  LEU786  VAL792 
 PHE793  MET794  SER795  GLU796  ALA797  LYS798  CYS799  TRP800  GLU811  SER814 

> <Gold.Protein.RotatedAtoms>
  150.9845  134.9193  159.7863 H   0  0  0  0  0  0  0  0  0  0  0  0  # atno 6907 bound_to 6896
  152.5232  134.3365  159.9212 H   0  0  0  0  0  0  0  0  0  0  0  0  # atno 6908 bound_to 6896
  151.3372  133.3936  159.2702 H   0  0  0  0  0  0  0  0  0  0  0  0  # atno 6909 bound_to 6896
  145.3686  139.2403  143.3467 H   0  0  0  0  0  0  0  0  0  0  0  0  # atno 7974 bound_to 7965
  154.9718  140.0397  157.2238 H   0  0  0  0  0  0  0  0  0  0  0  0  # atno 8008 bound_to 7997
  154.7794  140.2816  155.6053 H   0  0  0  0  0  0  0  0  0  0  0  0  # atno 8009 bound_to 7997
  156.2934  140.2594  156.2616 H   0  0  0  0  0  0  0  0  0  0  0  0  # atno 8010 bound_to 7997
  140.6860  143.2883  151.3629 H   0  0  0  0  0  0  0  0  0  0  0  0  # atno 10167 bound_to 10162
  156.2059  130.4158  149.9178 H   0  0  0  0  0  0  0  0  0  0  0  0  # atno 10718 bound_to 10713
  154.2655  135.6300  153.5290 H   0  0  0  0  0  0  0  0  0  0  0  0  # atno 10763 bound_to 10752
  152.9888  135.5597  154.5658 H   0  0  0  0  0  0  0  0  0  0  0  0  # atno 10764 bound_to 10752
  154.5216  135.2883  155.1233 H   0  0  0  0  0  0  0  0  0  0  0  0  # atno 10765 bound_to 10752
  140.7040  133.8965  155.8703 H   0  0  0  0  0  0  0  0  0  0  0  0  # atno 11005 bound_to 11000
  146.2895  140.4333  142.8745 LP  0  0  0  0  0  0  0  0  0  0  0  0  # atno 17320 bound_to 7965
  144.8593  140.7116  143.6118 LP  0  0  0  0  0  0  0  0  0  0  0  0  # atno 17321 bound_to 7965
  139.6220  144.0888  152.2400 LP  0  0  0  0  0  0  0  0  0  0  0  0  # atno 17342 bound_to 10162
  140.0336  144.6062  150.7468 LP  0  0  0  0  0  0  0  0  0  0  0  0  # atno 17343 bound_to 10162
  156.6872  130.8881  151.3583 LP  0  0  0  0  0  0  0  0  0  0  0  0  # atno 17370 bound_to 10713
  157.7012  130.9335  150.0791 LP  0  0  0  0  0  0  0  0  0  0  0  0  # atno 17371 bound_to 10713
  141.0140  134.0981  157.4191 LP  0  0  0  0  0  0  0  0  0  0  0  0  # atno 17394 bound_to 11000
  139.8889  135.0101  156.6648 LP  0  0  0  0  0  0  0  0  0  0  0  0  # atno 17395 bound_to 11000

$$$$
