AV-unprocessed.smi:2115|AV-procd|sdf|8624|dock1
  -GOLD-   2272011363D 1   1.00000     0.00000
 Structure written by MMmdl.
 37 38  0  0  0  0  0  0  0  0  1 V2000
  151.9979  144.8459  158.4225 C   0  0  0  0  0  0  0  0  0  0  0  0
  152.1299  143.5847  157.7907 O   0  0  0  0  0  0  0  0  0  0  0  0
  150.9116  142.8595  157.7659 C   0  0  0  0  0  0  0  0  0  0  0  0
  151.2179  141.3642  157.6390 C   0  0  0  0  0  0  0  0  0  0  0  0
  151.3204  141.0308  156.2577 O   0  0  0  0  0  0  0  0  0  0  0  0
  150.7774  139.8381  155.8256 C   0  0  0  0  0  0  0  0  0  0  0  0
  150.4053  138.8797  156.7889 C   0  0  0  0  0  0  0  0  0  0  0  0
  149.8453  137.6637  156.3543 C   0  0  0  0  0  0  0  0  0  0  0  0
  149.6634  137.4444  154.9741 C   0  0  0  0  0  0  0  0  0  0  0  0
  149.1096  136.2026  154.5617 N   0  0  0  0  0  0  0  0  0  0  0  0
  148.8933  135.0970  155.2977 C   0  0  0  0  0  0  0  0  0  0  0  0
  149.1622  134.9903  156.4944 O   0  0  0  0  0  0  0  0  0  0  0  0
  148.2763  133.9104  154.5481 C   0  0  1  0  0  0  0  0  0  0  0  0
  149.2149  133.2729  153.5061 C   0  0  0  0  0  0  0  0  0  0  0  0
  149.5484  131.9187  154.1011 C   0  0  0  0  0  0  0  0  0  0  0  0
  148.3030  131.6232  154.9240 C   0  0  0  0  0  0  0  0  0  0  0  0
  147.9945  132.8836  155.4973 O   0  0  0  0  0  0  0  0  0  0  0  0
  150.0843  138.4625  154.0841 C   0  0  0  0  0  0  0  0  0  0  0  0
  150.6236  139.6301  154.4946 N   0  0  0  0  0  0  0  0  0  0  0  0
  152.9582  145.3614  158.4163 H   0  0  0  0  0  0  0  0  0  0  0  0
  151.6817  144.7354  159.4605 H   0  0  0  0  0  0  0  0  0  0  0  0
  151.2751  145.4748  157.9010 H   0  0  0  0  0  0  0  0  0  0  0  0
  150.3208  143.0536  158.6626 H   0  0  0  0  0  0  0  0  0  0  0  0
  150.3207  143.1826  156.9075 H   0  0  0  0  0  0  0  0  0  0  0  0
  152.1667  141.1521  158.1345 H   0  0  0  0  0  0  0  0  0  0  0  0
  150.4421  140.7771  158.1332 H   0  0  0  0  0  0  0  0  0  0  0  0
  150.5470  139.0741  157.8418 H   0  0  0  0  0  0  0  0  0  0  0  0
  149.5543  136.9133  157.0751 H   0  0  0  0  0  0  0  0  0  0  0  0
  148.9130  136.1206  153.5747 H   0  0  0  0  0  0  0  0  0  0  0  0
  147.3444  134.2102  154.0650 H   0  0  0  0  0  0  0  0  0  0  0  0
  148.6819  133.1448  152.5628 H   0  0  0  0  0  0  0  0  0  0  0  0
  150.1115  133.8575  153.2947 H   0  0  0  0  0  0  0  0  0  0  0  0
  149.7547  131.1577  153.3482 H   0  0  0  0  0  0  0  0  0  0  0  0
  150.4171  132.0005  154.7558 H   0  0  0  0  0  0  0  0  0  0  0  0
  147.4800  131.2994  154.2852 H   0  0  0  0  0  0  0  0  0  0  0  0
  148.4702  130.8633  155.6875 H   0  0  0  0  0  0  0  0  0  0  0  0
  150.0155  138.3496  153.0134 H   0  0  0  0  0  0  0  0  0  0  0  0
  1  2  1  0  0  0  0
  1 20  1  0  0  0  0
  1 21  1  0  0  0  0
  1 22  1  0  0  0  0
  2  3  1  0  0  0  0
  3  4  1  0  0  0  0
  3 23  1  0  0  0  0
  3 24  1  0  0  0  0
  4  5  1  0  0  0  0
  4 25  1  0  0  0  0
  4 26  1  0  0  0  0
  5  6  1  0  0  0  0
  6 19  1  0  0  0  0
  6  7  2  0  0  0  0
  7  8  1  0  0  0  0
  7 27  1  0  0  0  0
  8  9  2  0  0  0  0
  8 28  1  0  0  0  0
  9 10  1  0  0  0  0
  9 18  1  0  0  0  0
 10 11  1  0  0  0  0
 10 29  1  0  0  0  0
 11 12  2  0  0  0  0
 11 13  1  0  0  0  0
 13 17  1  0  0  0  0
 13 14  1  0  0  0  0
 13 30  1  0  0  0  0
 14 15  1  0  0  0  0
 14 31  1  0  0  0  0
 14 32  1  0  0  0  0
 15 16  1  0  0  0  0
 15 33  1  0  0  0  0
 15 34  1  0  0  0  0
 16 17  1  0  0  0  0
 16 35  1  0  0  0  0
 16 36  1  0  0  0  0
 18 19  2  0  0  0  0
 18 37  1  0  0  0  0
M  END
> <s_m_source_file>
AV-unprocessed.smi

> <i_m_source_file_index>
2115

> <i_lp_mmshare_version>
43012

> <i_f3d_flags>
0

> <s_epik_input>
W0NIM11PW0NIMl1bQ0gyXU9jMVtjSF1bY0hdYyhbY0hdbjEpW05IXUMoPU8pW0NAQEhdMltDSDJdW0NIMl1bQ0gyXU8y

> <s_epik_cmdline>
J2VwaWtfcHl0aG9uJywgJy1waCcsICc3LjAnLCAnLXRuJywgJzgnLCAnLW1hJywgJzIwMCcsICctbWV0YWxfYmluZGluZycsICctaW1hZScsICc8aW5maWxlLm1hZT4nLCAnLW9tYWUnLCAnPG91dGZpbGUubWFlPic=

> <r_lp_tautomer_probability>
1

> <r_epik_Ionization_Penalty>
1.60185e-05

> <r_epik_Ionization_Penalty_Charging>
0

> <r_epik_Ionization_Penalty_Neutral>
1.60185e-05

> <r_epik_State_Penalty>
-0

> <r_epik_Charging_Adjusted_Penalty>
0

> <i_epik_Tot_Q>
0

> <i_epik_Tot_abs_Q>
0

> <r_epik_Metal_State_Penalty>
-0

> <b_epik_Metal_Only>
0

> <s_lp_Force_Field>
OPLS_2005

> <r_lp_Energy>
23.9239

> <b_lp_Chiralities_Consistent>
1

> <s_lp_Variant>
AV-unprocessed.smi:2115-2

> <Gold.Version>
5.8.1

> <Gold.Id.Protein>
6NUR|6NUR_protein|mol2

> <Gold.PLP.Fitness>
35.9243

> <Gold.PLP.PLP>
-26.2030

> <Gold.PLP.part.hbond>
-2.0000

> <Gold.PLP.part.metal>
0.0000

> <Gold.PLP.part.buried>
-3.7682

> <Gold.PLP.part.nonpolar>
-21.4618

> <Gold.PLP.part.repulsive>
0.2030

> <Gold.PLP.ligand.clash>
0.0419

> <Gold.PLP.ligand.torsion>
0.8625

> <Gold.PLP.Chemscore.Hbond>
2.0000

> <Gold.PLP.Chemscore.CHOScore>
1.7163

> <Gold.PLP.Chemscore.Metal>
0.0000

> <Gold.Chemscore.Hbonds>
donor molecule, donor type, donor heavy atom, donor atom, acceptor molecule, acceptor atom, score
      L1  H    10    29       P1  7948  1.00
      P1  H  7989  7998       L1    19  1.00
      L1  C    18    37       P1  7948  0.76
      L1  C    18    37       P1  7957  1.00

> <Gold.PLP.Chemscore.Internal.Correction>
0.3394

> <Gold.Rescore>
     Score         DG    S(hbond)    S(metal)    S(lipo)     H(rot)  DE(clash)    DE(int)     intcor
     12.88     -14.98       1.93        0.00      66.27       1.84       0.01       2.09       ----

> <Gold.Chemscore.Fitness>
12.8839

> <Gold.Chemscore.DG>
-14.9848

> <Gold.Chemscore.ZeroCoef>
-5.4800

> <Gold.Chemscore.Hbond>
1.9345

> <Gold.Chemscore.Metal>
0.0000

> <Gold.Chemscore.Lipo>
66.2693

> <Gold.Chemscore.Internal_Hbond>
0.0000

> <Gold.Chemscore.DEClash>
0.0149

> <Gold.Chemscore.DEInternal>
2.0861

> <Gold.Chemscore.Rot>
1.8398

> <Gold.Chemscore.Internal.Correction>
   9.000000E+99

> <Gold.Chemscore.Hbonds>
donor molecule, donor type, donor heavy atom, donor atom, acceptor molecule, acceptor atom, score
      L1  H    10    29       P1  7948  0.99
      P1  H  7989  7998       L1    19  0.82

> <Gold.Chemscore.Hbond.Weighted>
-6.4612

> <Gold.Chemscore.Metal.Weighted>
-0.0000

> <Gold.Chemscore.Lipo.Weighted>
-7.7535

> <Gold.Chemscore.Internal_Hbond.Weighted>
0.0000

> <Gold.Chemscore.DEClash.Weighted>
0.0149

> <Gold.Chemscore.DEInternal.Weighted>
2.0861

> <Gold.Chemscore.Rot.Weighted>
4.7099

> <Gold.Chemscore.Internal.Correction.Weighted>
   9.000000E+99

> <Gold.Protein.RotatedTorsions>
[ 6907 6896 6895 6894 ] final   75.31 input  -60.11 | X-H torsion
[ 7974 7965 7964 7962 ] final  145.78 input  175.53 | X-H torsion
[ 8008 7997 7996 7995 ] final   91.14 input   59.86 | X-H torsion
[ 10167 10162 10161 10158 ] final   20.50 input  -65.29 | X-H torsion
[ 10718 10713 10712 10709 ] final -171.48 input   66.30 | X-H torsion
[ 10763 10752 10751 10750 ] final -114.24 input  -60.55 | X-H torsion
[ 11005 11000 10999 10996 ] final  -71.33 input  -57.11 | X-H torsion

> <Gold.Protein.ActiveResidues>
 VAL166  LYS551  ARG553  GLY616  TRP617  ASP618  TYR619  PRO620  LYS621  CYS622 
 ASP623  PHE694  ASN695  SER759  ASP760  ASP761  ALA762  ILE779  LEU786  VAL792 
 PHE793  MET794  SER795  GLU796  ALA797  LYS798  CYS799  TRP800  GLU811  SER814 

> <Gold.Protein.RotatedAtoms>
  152.5020  134.4139  159.9457 H   0  0  0  0  0  0  0  0  0  0  0  0  # atno 6907 bound_to 6896
  151.4108  133.3722  159.2751 H   0  0  0  0  0  0  0  0  0  0  0  0  # atno 6908 bound_to 6896
  150.9293  134.8730  159.7600 H   0  0  0  0  0  0  0  0  0  0  0  0  # atno 6909 bound_to 6896
  144.8725  139.5824  143.5880 H   0  0  0  0  0  0  0  0  0  0  0  0  # atno 7974 bound_to 7965
  156.0202  140.3341  155.7031 H   0  0  0  0  0  0  0  0  0  0  0  0  # atno 8008 bound_to 7997
  155.6033  140.0658  157.2744 H   0  0  0  0  0  0  0  0  0  0  0  0  # atno 8009 bound_to 7997
  154.4313  140.1806  156.1183 H   0  0  0  0  0  0  0  0  0  0  0  0  # atno 8010 bound_to 7997
  140.5498  143.9529  150.6571 H   0  0  0  0  0  0  0  0  0  0  0  0  # atno 10167 bound_to 10162
  156.7415  130.9344  151.3110 H   0  0  0  0  0  0  0  0  0  0  0  0  # atno 10718 bound_to 10713
  154.8431  135.4425  154.1475 H   0  0  0  0  0  0  0  0  0  0  0  0  # atno 10763 bound_to 10752
  153.2644  135.6939  153.7551 H   0  0  0  0  0  0  0  0  0  0  0  0  # atno 10764 bound_to 10752
  153.6815  135.3402  155.3155 H   0  0  0  0  0  0  0  0  0  0  0  0  # atno 10765 bound_to 10752
  141.1590  133.6814  156.6889 H   0  0  0  0  0  0  0  0  0  0  0  0  # atno 11005 bound_to 11000
  146.2940  139.7222  142.9140 LP  0  0  0  0  0  0  0  0  0  0  0  0  # atno 17320 bound_to 7965
  145.4104  141.0396  143.3020 LP  0  0  0  0  0  0  0  0  0  0  0  0  # atno 17321 bound_to 7965
  140.2952  143.3297  152.1025 LP  0  0  0  0  0  0  0  0  0  0  0  0  # atno 17342 bound_to 10162
  139.5022  144.6731  151.6194 LP  0  0  0  0  0  0  0  0  0  0  0  0  # atno 17343 bound_to 10162
  157.6816  130.9146  150.0283 LP  0  0  0  0  0  0  0  0  0  0  0  0  # atno 17370 bound_to 10713
  156.1462  130.3642  149.9507 LP  0  0  0  0  0  0  0  0  0  0  0  0  # atno 17371 bound_to 10713
  140.3046  134.8136  157.4126 LP  0  0  0  0  0  0  0  0  0  0  0  0  # atno 17394 bound_to 11000
  140.1232  134.5192  155.8166 LP  0  0  0  0  0  0  0  0  0  0  0  0  # atno 17395 bound_to 11000

$$$$
