AV-unprocessed.smi:1417|AV-procd|sdf|5765|dock1
  -GOLD-   22720 5403D 1   1.00000     0.00000
 Structure written by MMmdl.
 39 40  0  0  0  0  0  0  0  0  1 V2000
  147.3910  134.2549  162.2337 C   0  0  0  0  0  0  0  0  0  0  0  0
  147.2865  133.6160  160.8913 C   0  0  0  0  0  0  0  0  0  0  0  0
  147.6726  134.0093  159.6409 C   0  0  0  0  0  0  0  0  0  0  0  0
  147.2629  132.9171  158.8215 C   0  0  0  0  0  0  0  0  0  0  0  0
  147.4202  132.8148  157.4151 N   0  0  0  0  0  0  0  0  0  0  0  0
  146.4675  132.7740  156.4684 C   0  0  0  0  0  0  0  0  0  0  0  0
  145.2558  132.8481  156.6715 O   0  0  0  0  0  0  0  0  0  0  0  0
  147.0053  132.6411  155.2471 N   0  0  0  0  0  0  0  0  0  0  0  0
  146.2531  132.5562  153.9988 C   0  0  0  0  0  0  0  0  0  0  0  0
  146.5535  131.2389  153.2638 C   0  0  0  0  0  0  0  0  0  0  0  0
  145.8879  131.2049  151.8770 C   0  0  0  0  0  0  0  0  0  0  0  0
  146.3348  132.3445  151.0627 N   0  0  0  0  0  0  0  0  0  0  0  0
  145.7799  132.3098  149.6897 C   0  0  0  0  0  0  0  0  0  0  0  0
  144.2585  132.4838  149.6082 C   0  0  0  0  0  0  0  0  0  0  0  0
  143.8037  133.5911  149.0158 N   0  0  0  0  0  0  0  0  0  0  0  0
  143.5069  131.6344  150.0813 O   0  0  0  0  0  0  0  0  0  0  0  0
  145.9535  133.6049  151.7081 C   0  0  0  0  0  0  0  0  0  0  0  0
  146.6273  133.7325  153.0855 C   0  0  0  0  0  0  0  0  0  0  0  0
  146.6818  131.9537  159.5124 N   0  0  0  0  0  0  0  0  0  0  0  0
  146.6950  132.3925  160.8416 O   0  0  0  0  0  0  0  0  0  0  0  0
  147.6800  135.3023  162.1456 H   0  0  0  0  0  0  0  0  0  0  0  0
  148.1375  133.7480  162.8452 H   0  0  0  0  0  0  0  0  0  0  0  0
  146.4365  134.2115  162.7586 H   0  0  0  0  0  0  0  0  0  0  0  0
  148.1640  134.9328  159.3742 H   0  0  0  0  0  0  0  0  0  0  0  0
  148.3748  132.7613  157.0920 H   0  0  0  0  0  0  0  0  0  0  0  0
  148.0108  132.5901  155.1739 H   0  0  0  0  0  0  0  0  0  0  0  0
  145.1844  132.6121  154.2157 H   0  0  0  0  0  0  0  0  0  0  0  0
  147.6316  131.1135  153.1496 H   0  0  0  0  0  0  0  0  0  0  0  0
  146.2059  130.3908  153.8546 H   0  0  0  0  0  0  0  0  0  0  0  0
  146.1488  130.2592  151.4024 H   0  0  0  0  0  0  0  0  0  0  0  0
  144.8011  131.2167  151.9780 H   0  0  0  0  0  0  0  0  0  0  0  0
  146.2598  133.0771  149.0791 H   0  0  0  0  0  0  0  0  0  0  0  0
  146.0177  131.3516  149.2254 H   0  0  0  0  0  0  0  0  0  0  0  0
  142.8091  133.7502  148.9471 H   0  0  0  0  0  0  0  0  0  0  0  0
  144.4555  134.2678  148.6462 H   0  0  0  0  0  0  0  0  0  0  0  0
  146.2641  134.4465  151.0874 H   0  0  0  0  0  0  0  0  0  0  0  0
  144.8685  133.6691  151.8093 H   0  0  0  0  0  0  0  0  0  0  0  0
  146.3365  134.6743  153.5523 H   0  0  0  0  0  0  0  0  0  0  0  0
  147.7098  133.7740  152.9542 H   0  0  0  0  0  0  0  0  0  0  0  0
  1  2  1  0  0  0  0
  1 21  1  0  0  0  0
  1 22  1  0  0  0  0
  1 23  1  0  0  0  0
  2 20  1  0  0  0  0
  2  3  2  0  0  0  0
  3  4  1  0  0  0  0
  3 24  1  0  0  0  0
  4  5  1  0  0  0  0
  4 19  2  0  0  0  0
  5  6  1  0  0  0  0
  5 25  1  0  0  0  0
  6  7  2  0  0  0  0
  6  8  1  0  0  0  0
  8  9  1  0  0  0  0
  8 26  1  0  0  0  0
  9 18  1  0  0  0  0
  9 10  1  0  0  0  0
  9 27  1  0  0  0  0
 10 11  1  0  0  0  0
 10 28  1  0  0  0  0
 10 29  1  0  0  0  0
 11 12  1  0  0  0  0
 11 30  1  0  0  0  0
 11 31  1  0  0  0  0
 12 13  1  0  0  0  0
 12 17  1  0  0  0  0
 13 14  1  0  0  0  0
 13 32  1  0  0  0  0
 13 33  1  0  0  0  0
 14 15  1  0  0  0  0
 14 16  2  0  0  0  0
 15 34  1  0  0  0  0
 15 35  1  0  0  0  0
 17 18  1  0  0  0  0
 17 36  1  0  0  0  0
 17 37  1  0  0  0  0
 18 38  1  0  0  0  0
 18 39  1  0  0  0  0
 19 20  1  0  0  0  0
M  END
> <s_m_source_file>
AV-unprocessed.smi

> <i_m_source_file_index>
1417

> <i_lp_mmshare_version>
43012

> <i_f3d_flags>
0

> <s_epik_input>
W0NIM11jMVtjSF1jKG5vMSlbTkhdQyg9TylbTkhdW0NIXTJbQ0gyXVtDSDJdTihbQ0gyXVtDSDJdMilbQ0gyXUMoPU8pW05IMl0=

> <s_epik_cmdline>
J2VwaWtfcHl0aG9uJywgJy1waCcsICc3LjAnLCAnLXRuJywgJzgnLCAnLW1hJywgJzIwMCcsICctbWV0YWxfYmluZGluZycsICctaW1hZScsICc8aW5maWxlLm1hZT4nLCAnLW9tYWUnLCAnPG91dGZpbGUubWFlPic=

> <r_epik_Ionization_Penalty>
0.155825

> <r_epik_Ionization_Penalty_Charging>
0

> <r_epik_Ionization_Penalty_Neutral>
0.155825

> <r_epik_State_Penalty>
0.145092

> <r_epik_Charging_Adjusted_Penalty>
0.145092

> <i_epik_Tot_Q>
0

> <i_epik_Tot_abs_Q>
0

> <r_epik_Metal_State_Penalty>
0.171119

> <b_epik_Metal_Only>
0

> <s_lp_Force_Field>
OPLS_2005

> <r_lp_Energy>
11.4398

> <b_lp_Chiralities_Consistent>
1

> <s_lp_Variant>
AV-unprocessed.smi:1417-1

> <Gold.Version>
5.8.1

> <Gold.Id.Protein>
6NUR|6NUR_protein|mol2

> <Gold.PLP.Fitness>
33.5504

> <Gold.PLP.PLP>
-25.9366

> <Gold.PLP.part.hbond>
-3.0000

> <Gold.PLP.part.metal>
0.0000

> <Gold.PLP.part.buried>
-6.0507

> <Gold.PLP.part.nonpolar>
-18.8853

> <Gold.PLP.part.repulsive>
1.3169

> <Gold.PLP.ligand.clash>
0.0000

> <Gold.PLP.ligand.torsion>
0.6639

> <Gold.PLP.Chemscore.Hbond>
2.9760

> <Gold.PLP.Chemscore.CHOScore>
0.0000

> <Gold.PLP.Chemscore.Metal>
0.0000

> <Gold.Chemscore.Hbonds>
donor molecule, donor type, donor heavy atom, donor atom, acceptor molecule, acceptor atom, score
      L1  H    15    34       P1 10186  1.00
      L1  H    15    35       P1  7921  1.00
      P1  H 10785 10796       L1    16  0.96

> <Gold.PLP.Chemscore.Internal.Correction>
0.0136

> <Gold.Rescore>
     Score         DG    S(hbond)    S(metal)    S(lipo)     H(rot)  DE(clash)    DE(int)     intcor
     14.75     -15.79       2.72        0.00      54.68       2.02       0.37       0.66       ----

> <Gold.Chemscore.Fitness>
14.7538

> <Gold.Chemscore.DG>
-15.7866

> <Gold.Chemscore.ZeroCoef>
-5.4800

> <Gold.Chemscore.Hbond>
2.7200

> <Gold.Chemscore.Metal>
0.0000

> <Gold.Chemscore.Lipo>
54.6779

> <Gold.Chemscore.Internal_Hbond>
0.0000

> <Gold.Chemscore.DEClash>
0.3718

> <Gold.Chemscore.DEInternal>
0.6610

> <Gold.Chemscore.Rot>
2.0217

> <Gold.Chemscore.Internal.Correction>
   9.000000E+99

> <Gold.Chemscore.Hbonds>
donor molecule, donor type, donor heavy atom, donor atom, acceptor molecule, acceptor atom, score
      L1  H    15    34       P1 10186  0.94
      L1  H    15    35       P1  7921  0.91
      P1  H 10785 10796       L1    16  0.68

> <Gold.Chemscore.Hbond.Weighted>
-9.0848

> <Gold.Chemscore.Metal.Weighted>
-0.0000

> <Gold.Chemscore.Lipo.Weighted>
-6.3973

> <Gold.Chemscore.Internal_Hbond.Weighted>
0.0000

> <Gold.Chemscore.DEClash.Weighted>
0.3718

> <Gold.Chemscore.DEInternal.Weighted>
0.6610

> <Gold.Chemscore.Rot.Weighted>
5.1755

> <Gold.Chemscore.Internal.Correction.Weighted>
   9.000000E+99

> <Gold.Protein.RotatedTorsions>
[ 6907 6896 6895 6894 ] final -137.22 input  -60.11 | X-H torsion
[ 7974 7965 7964 7962 ] final  -84.43 input  175.53 | X-H torsion
[ 8008 7997 7996 7995 ] final   56.95 input   59.86 | X-H torsion
[ 10167 10162 10161 10158 ] final  -76.12 input  -65.29 | X-H torsion
[ 10718 10713 10712 10709 ] final   92.96 input   66.30 | X-H torsion
[ 10763 10752 10751 10750 ] final  103.65 input  -60.55 | X-H torsion
[ 11005 11000 10999 10996 ] final  -57.69 input  -57.11 | X-H torsion

> <Gold.Protein.ActiveResidues>
 VAL166  LYS551  ARG553  GLY616  TRP617  ASP618  TYR619  PRO620  LYS621  CYS622 
 ASP623  PHE694  ASN695  SER759  ASP760  ASP761  ALA762  ILE779  LEU786  VAL792 
 PHE793  MET794  SER795  GLU796  ALA797  LYS798  CYS799  TRP800  GLU811  SER814 

> <Gold.Protein.RotatedAtoms>
  151.0198  133.5887  159.2672 H   0  0  0  0  0  0  0  0  0  0  0  0  # atno 6907 bound_to 6896
  151.3008  135.0767  159.9247 H   0  0  0  0  0  0  0  0  0  0  0  0  # atno 6908 bound_to 6896
  152.5320  133.9880  159.7892 H   0  0  0  0  0  0  0  0  0  0  0  0  # atno 6909 bound_to 6896
  145.5067  140.9543  143.1730 H   0  0  0  0  0  0  0  0  0  0  0  0  # atno 7974 bound_to 7965
  155.5258  140.3481  155.4416 H   0  0  0  0  0  0  0  0  0  0  0  0  # atno 8008 bound_to 7997
  156.0753  140.1373  156.9806 H   0  0  0  0  0  0  0  0  0  0  0  0  # atno 8009 bound_to 7997
  154.4550  140.0957  156.6705 H   0  0  0  0  0  0  0  0  0  0  0  0  # atno 8010 bound_to 7997
  140.4884  143.2386  151.7947 H   0  0  0  0  0  0  0  0  0  0  0  0  # atno 10167 bound_to 10162
  157.6957  131.0461  150.3961 H   0  0  0  0  0  0  0  0  0  0  0  0  # atno 10718 bound_to 10713
  153.3555  135.3969  155.1679 H   0  0  0  0  0  0  0  0  0  0  0  0  # atno 10763 bound_to 10752
  154.8670  135.3667  154.5166 H   0  0  0  0  0  0  0  0  0  0  0  0  # atno 10764 bound_to 10752
  153.5622  135.7081  153.5602 H   0  0  0  0  0  0  0  0  0  0  0  0  # atno 10765 bound_to 10752
  141.1176  133.6611  156.4808 H   0  0  0  0  0  0  0  0  0  0  0  0  # atno 11005 bound_to 11000
  144.7750  139.6650  143.7179 LP  0  0  0  0  0  0  0  0  0  0  0  0  # atno 17320 bound_to 7965
  146.2192  139.5605  142.9629 LP  0  0  0  0  0  0  0  0  0  0  0  0  # atno 17321 bound_to 7965
  139.4846  144.4682  151.9458 LP  0  0  0  0  0  0  0  0  0  0  0  0  # atno 17342 bound_to 10162
  140.3768  144.2786  150.5913 LP  0  0  0  0  0  0  0  0  0  0  0  0  # atno 17343 bound_to 10162
  156.4359  130.3981  149.6729 LP  0  0  0  0  0  0  0  0  0  0  0  0  # atno 17370 bound_to 10713
  156.3930  130.7636  151.2639 LP  0  0  0  0  0  0  0  0  0  0  0  0  # atno 17371 bound_to 10713
  140.4602  134.6848  157.5082 LP  0  0  0  0  0  0  0  0  0  0  0  0  # atno 17394 bound_to 11000
  140.0108  134.6693  155.9383 LP  0  0  0  0  0  0  0  0  0  0  0  0  # atno 17395 bound_to 11000

$$$$
