AV-unprocessed.smi:2526|AV-procd|sdf|9936|dock7
  -GOLD-   2272013583D 1   1.00000     0.00000
 Structure written by MMmdl.
 29 30  0  0  0  0  0  0  0  0  2 V2000
  151.9669  145.6772  160.2998 C   0  0  0  0  0  0  0  0  0  0  0  0
  151.6828  144.6104  159.3640 N   0  0  0  0  0  0  0  0  0  0  0  0
  150.9887  143.4399  159.5780 C   0  0  0  0  0  0  0  0  0  0  0  0
  150.9842  142.7387  158.4022 C   0  0  0  0  0  0  0  0  0  0  0  0
  150.3738  141.3883  158.0834 C   0  0  2  0  0  0  0  0  0  0  0  0
  151.4173  140.3985  157.8028 N   0  0  0  0  0  0  0  0  0  0  0  0
  151.8497  140.0105  156.5883 C   0  0  0  0  0  0  0  0  0  0  0  0
  152.8130  139.2591  156.4626 O   0  0  0  0  0  0  0  0  0  0  0  0
  151.0895  140.4766  155.3349 C   0  0  0  0  0  0  0  0  0  0  0  0
  150.1022  141.6319  155.5817 C   0  0  0  0  0  0  0  0  0  0  0  0
  149.3616  141.4523  156.9137 C   0  0  2  0  0  0  0  0  0  0  0  0
  148.3312  142.4889  157.1114 N   0  3  0  0  0  0  0  0  0  0  0  0
  151.7030  143.5929  157.5160 C   0  0  0  0  0  0  0  0  0  0  0  0
  152.1250  144.7043  158.0942 N   0  0  0  0  0  0  0  0  0  0  0  0
  151.5610  145.4319  161.2815 H   0  0  0  0  0  0  0  0  0  0  0  0
  151.5129  146.6052  159.9507 H   0  0  0  0  0  0  0  0  0  0  0  0
  153.0450  145.8155  160.3871 H   0  0  0  0  0  0  0  0  0  0  0  0
  150.5642  143.2013  160.5425 H   0  0  0  0  0  0  0  0  0  0  0  0
  149.8415  141.0222  158.9623 H   0  0  0  0  0  0  0  0  0  0  0  0
  151.9134  140.0336  158.6037 H   0  0  0  0  0  0  0  0  0  0  0  0
  151.8022  140.7540  154.5576 H   0  0  0  0  0  0  0  0  0  0  0  0
  150.5414  139.6136  154.9556 H   0  0  0  0  0  0  0  0  0  0  0  0
  150.6372  142.5826  155.5699 H   0  0  0  0  0  0  0  0  0  0  0  0
  149.3878  141.6760  154.7591 H   0  0  0  0  0  0  0  0  0  0  0  0
  148.8288  140.5010  156.8716 H   0  0  0  0  0  0  0  0  0  0  0  0
  147.4330  142.1275  156.8232 H   0  0  0  0  0  0  0  0  0  0  0  0
  148.5593  143.3029  156.5586 H   0  0  0  0  0  0  0  0  0  0  0  0
  151.9354  143.4336  156.4733 H   0  0  0  0  0  0  0  0  0  0  0  0
  148.2930  142.7454  158.0877 H   0  0  0  0  0  0  0  0  0  0  0  0
  1  2  1  0  0  0  0
  1 15  1  0  0  0  0
  1 16  1  0  0  0  0
  1 17  1  0  0  0  0
  2 14  1  0  0  0  0
  2  3  1  0  0  0  0
  3  4  2  0  0  0  0
  3 18  1  0  0  0  0
  4  5  1  0  0  0  0
  4 13  1  0  0  0  0
  5 11  1  0  0  0  0
  5  6  1  0  0  0  0
  5 19  1  0  0  0  0
  6  7  1  0  0  0  0
  6 20  1  0  0  0  0
  7  8  2  0  0  0  0
  7  9  1  0  0  0  0
  9 10  1  0  0  0  0
  9 21  1  0  0  0  0
  9 22  1  0  0  0  0
 10 11  1  0  0  0  0
 10 23  1  0  0  0  0
 10 24  1  0  0  0  0
 11 12  1  0  0  0  0
 11 25  1  0  0  0  0
 12 26  1  0  0  0  0
 12 27  1  0  0  0  0
 12 29  1  0  0  0  0
 13 14  2  0  0  0  0
 13 28  1  0  0  0  0
M  CHG  1  12   1
M  END
> <s_m_source_file>
AV-unprocessed.smi

> <i_m_source_file_index>
2526

> <i_lp_mmshare_version>
43012

> <i_f3d_flags>
0

> <s_epik_input>
W0NIM11uMVtjSF1jKFtjSF1uMSlbQ0BASF0yW05IXUMoPU8pW0NIMl1bQ0gyXVtDQEhdMltOSDJd

> <s_epik_cmdline>
J2VwaWtfcHl0aG9uJywgJy1waCcsICc3LjAnLCAnLXRuJywgJzgnLCAnLW1hJywgJzIwMCcsICctbWV0YWxfYmluZGluZycsICctaW1hZScsICc8aW5maWxlLm1hZT4nLCAnLW9tYWUnLCAnPG91dGZpbGUubWFlPic=

> <r_lp_tautomer_probability>
1

> <r_epik_Ionization_Penalty>
0.00878543

> <r_epik_Ionization_Penalty_Charging>
0.00874185

> <r_epik_Ionization_Penalty_Neutral>
4.35793e-05

> <r_epik_State_Penalty>
0.00660351

> <r_epik_Charging_Adjusted_Penalty>
0.0153454

> <i_epik_Tot_Q>
1

> <i_epik_Tot_abs_Q>
1

> <r_epik_Metal_State_Penalty>
0.00660727

> <b_epik_Metal_Only>
0

> <s_lp_Force_Field>
OPLS_2005

> <r_lp_Energy>
11.1602

> <b_lp_Chiralities_Consistent>
1

> <s_lp_Variant>
AV-unprocessed.smi:2526-3

> <Gold.Version>
5.8.1

> <Gold.Id.Protein>
6NUR|6NUR_protein|mol2

> <Gold.PLP.Fitness>
36.9228

> <Gold.PLP.PLP>
-28.0209

> <Gold.PLP.part.hbond>
-2.0000

> <Gold.PLP.part.metal>
0.0000

> <Gold.PLP.part.buried>
-2.7129

> <Gold.PLP.part.nonpolar>
-22.9398

> <Gold.PLP.part.repulsive>
0.1959

> <Gold.PLP.ligand.clash>
0.0000

> <Gold.PLP.ligand.torsion>
0.0584

> <Gold.PLP.Chemscore.Hbond>
3.0000

> <Gold.PLP.Chemscore.CHOScore>
0.0000

> <Gold.PLP.Chemscore.Metal>
0.0000

> <Gold.Chemscore.Hbonds>
donor molecule, donor type, donor heavy atom, donor atom, acceptor molecule, acceptor atom, score
      L1  H    12    27       P1  8028  2.00
      P1  H  7997  8008       L1     8  1.00

> <Gold.PLP.Chemscore.Internal.Correction>
0.0187

> <Gold.Rescore>
     Score         DG    S(hbond)    S(metal)    S(lipo)     H(rot)  DE(clash)    DE(int)     intcor
     15.80     -16.19       1.76        0.00      63.18       1.00       0.37       0.01       ----

> <Gold.Chemscore.Fitness>
15.8049

> <Gold.Chemscore.DG>
-16.1866

> <Gold.Chemscore.ZeroCoef>
-5.4800

> <Gold.Chemscore.Hbond>
1.7588

> <Gold.Chemscore.Metal>
0.0000

> <Gold.Chemscore.Lipo>
63.1824

> <Gold.Chemscore.Internal_Hbond>
0.0000

> <Gold.Chemscore.DEClash>
0.3722

> <Gold.Chemscore.DEInternal>
0.0094

> <Gold.Chemscore.Rot>
1.0000

> <Gold.Chemscore.Internal.Correction>
   9.000000E+99

> <Gold.Chemscore.Hbonds>
donor molecule, donor type, donor heavy atom, donor atom, acceptor molecule, acceptor atom, score
      L1  H    12    27       P1  8028  0.65
      P1  H  7997  8008       L1     8  0.85

> <Gold.Chemscore.Hbond.Weighted>
-5.8742

> <Gold.Chemscore.Metal.Weighted>
-0.0000

> <Gold.Chemscore.Lipo.Weighted>
-7.3923

> <Gold.Chemscore.Internal_Hbond.Weighted>
0.0000

> <Gold.Chemscore.DEClash.Weighted>
0.3722

> <Gold.Chemscore.DEInternal.Weighted>
0.0094

> <Gold.Chemscore.Rot.Weighted>
2.5600

> <Gold.Chemscore.Internal.Correction.Weighted>
   9.000000E+99

> <Gold.Protein.RotatedTorsions>
[ 6907 6896 6895 6894 ] final -147.82 input  -60.11 | X-H torsion
[ 7974 7965 7964 7962 ] final  -20.36 input  175.53 | X-H torsion
[ 8008 7997 7996 7995 ] final  -43.95 input   59.86 | X-H torsion
[ 10167 10162 10161 10158 ] final  -54.74 input  -65.29 | X-H torsion
[ 10718 10713 10712 10709 ] final -158.84 input   66.30 | X-H torsion
[ 10763 10752 10751 10750 ] final   -8.18 input  -60.55 | X-H torsion
[ 11005 11000 10999 10996 ] final  111.83 input  -57.11 | X-H torsion

> <Gold.Protein.ActiveResidues>
 VAL166  LYS551  ARG553  GLY616  TRP617  ASP618  TYR619  PRO620  LYS621  CYS622 
 ASP623  PHE694  ASN695  SER759  ASP760  ASP761  ALA762  ILE779  LEU786  VAL792 
 PHE793  MET794  SER795  GLU796  ALA797  LYS798  CYS799  TRP800  GLU811  SER814 

> <Gold.Protein.RotatedAtoms>
  151.1610  133.4845  159.2594 H   0  0  0  0  0  0  0  0  0  0  0  0  # atno 6907 bound_to 6896
  151.1454  135.0200  159.8654 H   0  0  0  0  0  0  0  0  0  0  0  0  # atno 6908 bound_to 6896
  152.5463  134.1500  159.8567 H   0  0  0  0  0  0  0  0  0  0  0  0  # atno 6909 bound_to 6896
  146.1792  140.4191  142.8501 H   0  0  0  0  0  0  0  0  0  0  0  0  # atno 7974 bound_to 7965
  154.3997  140.1435  156.3602 H   0  0  0  0  0  0  0  0  0  0  0  0  # atno 8008 bound_to 7997
  155.8188  140.3470  155.5480 H   0  0  0  0  0  0  0  0  0  0  0  0  # atno 8009 bound_to 7997
  155.8310  140.0912  157.1783 H   0  0  0  0  0  0  0  0  0  0  0  0  # atno 8010 bound_to 7997
  140.6413  143.2510  151.4980 H   0  0  0  0  0  0  0  0  0  0  0  0  # atno 10167 bound_to 10162
  156.5598  130.8642  151.2806 H   0  0  0  0  0  0  0  0  0  0  0  0  # atno 10718 bound_to 10713
  153.4368  135.7013  153.6195 H   0  0  0  0  0  0  0  0  0  0  0  0  # atno 10763 bound_to 10752
  153.4586  135.3741  155.2325 H   0  0  0  0  0  0  0  0  0  0  0  0  # atno 10764 bound_to 10752
  154.8727  135.4014  154.3760 H   0  0  0  0  0  0  0  0  0  0  0  0  # atno 10765 bound_to 10752
  139.8913  134.9516  156.6492 H   0  0  0  0  0  0  0  0  0  0  0  0  # atno 11005 bound_to 11000
  144.8287  140.6671  143.6305 LP  0  0  0  0  0  0  0  0  0  0  0  0  # atno 17320 bound_to 7965
  145.4124  139.1578  143.4118 LP  0  0  0  0  0  0  0  0  0  0  0  0  # atno 17321 bound_to 7965
  139.5623  144.2127  152.1710 LP  0  0  0  0  0  0  0  0  0  0  0  0  # atno 17342 bound_to 10162
  140.1398  144.5212  150.6751 LP  0  0  0  0  0  0  0  0  0  0  0  0  # atno 17343 bound_to 10162
  157.7371  130.9790  150.2173 LP  0  0  0  0  0  0  0  0  0  0  0  0  # atno 17370 bound_to 10713
  156.2809  130.3733  149.7936 LP  0  0  0  0  0  0  0  0  0  0  0  0  # atno 17371 bound_to 10713
  140.7534  133.8878  155.8364 LP  0  0  0  0  0  0  0  0  0  0  0  0  # atno 17394 bound_to 11000
  140.9982  134.1186  157.4343 LP  0  0  0  0  0  0  0  0  0  0  0  0  # atno 17395 bound_to 11000

$$$$
