AV-unprocessed.smi:114|AV-procd|sdf|1109|dock6
  -GOLD-   2262018223D 1   1.00000     0.00000
 Structure written by MMmdl.
 32 34  0  0  0  0  0  0  0  0  1 V2000
  152.4588  143.7156  162.2934 N   0  0  0  0  0  0  0  0  0  0  0  0
  152.6632  142.9289  161.2277 C   0  0  0  0  0  0  0  0  0  0  0  0
  153.6831  142.0407  161.2694 N   0  0  0  0  0  0  0  0  0  0  0  0
  153.9211  141.2365  160.2264 C   0  0  0  0  0  0  0  0  0  0  0  0
  154.9617  140.3798  160.3526 F   0  0  0  0  0  0  0  0  0  0  0  0
  153.2467  141.1850  159.0731 N   0  0  0  0  0  0  0  0  0  0  0  0
  152.2168  142.0787  159.0250 C   0  0  0  0  0  0  0  0  0  0  0  0
  151.8626  142.9846  160.0608 C   0  0  0  0  0  0  0  0  0  0  0  0
  150.7694  143.7463  159.6723 N   0  0  0  0  0  0  0  0  0  0  0  0
  150.4965  143.3117  158.4715 C   0  0  0  0  0  0  0  0  0  0  0  0
  151.3192  142.3118  158.0002 N   0  0  0  0  0  0  0  0  0  0  0  0
  151.2394  141.6312  156.6660 C   0  0  2  0  0  0  0  0  0  0  0  0
  150.1026  142.0721  155.9850 O   0  0  0  0  0  0  0  0  0  0  0  0
  149.2260  140.9813  155.7074 C   0  0  1  0  0  0  0  0  0  0  0  0
  148.4280  141.2308  154.4155 C   0  0  0  0  0  0  0  0  0  0  0  0
  149.3067  141.3514  153.3176 O   0  0  0  0  0  0  0  0  0  0  0  0
  150.1497  139.7547  155.6903 C   0  0  1  0  0  0  0  0  0  0  0  0
  150.7847  139.6034  154.4333 O   0  0  0  0  0  0  0  0  0  0  0  0
  151.1734  140.0933  156.7623 C   0  0  2  0  0  0  0  0  0  0  0  0
  150.7533  139.6102  158.0262 O   0  0  0  0  0  0  0  0  0  0  0  0
  152.1218  141.9788  156.1273 H   0  0  0  0  0  0  0  0  0  0  0  0
  148.5385  140.8626  156.5456 H   0  0  0  0  0  0  0  0  0  0  0  0
  149.6071  138.8332  155.9061 H   0  0  0  0  0  0  0  0  0  0  0  0
  152.1565  139.6702  156.5512 H   0  0  0  0  0  0  0  0  0  0  0  0
  151.7041  144.3866  162.2851 H   0  0  0  0  0  0  0  0  0  0  0  0
  153.0549  143.6313  163.1042 H   0  0  0  0  0  0  0  0  0  0  0  0
  149.6802  143.7145  157.8894 H   0  0  0  0  0  0  0  0  0  0  0  0
  147.7044  140.4352  154.2344 H   0  0  0  0  0  0  0  0  0  0  0  0
  147.8735  142.1665  154.4914 H   0  0  0  0  0  0  0  0  0  0  0  0
  149.1476  140.6335  152.7239 H   0  0  0  0  0  0  0  0  0  0  0  0
  151.1872  138.7490  154.4011 H   0  0  0  0  0  0  0  0  0  0  0  0
  151.5173  139.3365  158.5102 H   0  0  0  0  0  0  0  0  0  0  0  0
  1  2  1  0  0  0  0
  1 25  1  0  0  0  0
  1 26  1  0  0  0  0
  2  8  1  0  0  0  0
  2  3  2  0  0  0  0
  3  4  1  0  0  0  0
  4  5  1  0  0  0  0
  4  6  2  0  0  0  0
  6  7  1  0  0  0  0
  7 11  1  0  0  0  0
  7  8  2  0  0  0  0
  8  9  1  0  0  0  0
  9 10  2  0  0  0  0
 10 11  1  0  0  0  0
 10 27  1  0  0  0  0
 11 12  1  0  0  0  0
 12 21  1  0  0  0  0
 12 19  1  0  0  0  0
 12 13  1  0  0  0  0
 13 14  1  0  0  0  0
 14 22  1  0  0  0  0
 14 15  1  0  0  0  0
 14 17  1  0  0  0  0
 15 16  1  0  0  0  0
 15 28  1  0  0  0  0
 15 29  1  0  0  0  0
 16 30  1  0  0  0  0
 17 23  1  0  0  0  0
 17 18  1  0  0  0  0
 17 19  1  0  0  0  0
 18 31  1  0  0  0  0
 19 24  1  0  0  0  0
 19 20  1  0  0  0  0
 20 32  1  0  0  0  0
M  END
> <s_m_source_file>
AV-unprocessed.smi

> <i_m_source_file_index>
114

> <i_lp_mmshare_version>
43012

> <i_f3d_flags>
0

> <s_epik_input>
RmMobjEpbmMoW05IMl0pYyhjMTIpbltjSF1uMltDQEBIXTNPW0NASF0oW0NIMl1bT0hdKVtDQEBIXShbT0hdKVtDQEBIXTNbT0hd

> <s_epik_cmdline>
J2VwaWtfcHl0aG9uJywgJy1waCcsICc3LjAnLCAnLXRuJywgJzgnLCAnLW1hJywgJzIwMCcsICctbWV0YWxfYmluZGluZycsICctaW1hZScsICc8aW5maWxlLm1hZT4nLCAnLW9tYWUnLCAnPG91dGZpbGUubWFlPic=

> <r_lp_tautomer_probability>
1

> <r_epik_Ionization_Penalty>
1.13199e-05

> <r_epik_Ionization_Penalty_Charging>
0

> <r_epik_Ionization_Penalty_Neutral>
1.13199e-05

> <r_epik_State_Penalty>
-0

> <r_epik_Charging_Adjusted_Penalty>
0

> <i_epik_Tot_Q>
0

> <i_epik_Tot_abs_Q>
0

> <r_epik_Metal_State_Penalty>
-0

> <b_epik_Metal_Only>
0

> <s_epik_Chemistry_Notes>
This compound contains an acetal/aminal-like group ( X-CH(R)-Y where X, Y are N, S, or O) that may be acid/base labile, releasing an aldehyde.

> <s_lp_Force_Field>
OPLS_2005

> <r_lp_Energy>
40.543

> <b_lp_Chiralities_Consistent>
1

> <s_lp_Variant>
AV-unprocessed.smi:114-3

> <Gold.Version>
5.8.1

> <Gold.Id.Protein>
6NUR|6NUR_protein|mol2

> <Gold.PLP.Fitness>
46.9749

> <Gold.PLP.PLP>
-35.7191

> <Gold.PLP.part.hbond>
-4.2751

> <Gold.PLP.part.metal>
0.0000

> <Gold.PLP.part.buried>
-5.8721

> <Gold.PLP.part.nonpolar>
-25.1881

> <Gold.PLP.part.repulsive>
1.5443

> <Gold.PLP.ligand.clash>
0.0000

> <Gold.PLP.ligand.torsion>
0.0812

> <Gold.PLP.Chemscore.Hbond>
2.8160

> <Gold.PLP.Chemscore.CHOScore>
0.9894

> <Gold.PLP.Chemscore.Metal>
0.0000

> <Gold.Chemscore.Hbonds>
donor molecule, donor type, donor heavy atom, donor atom, acceptor molecule, acceptor atom, score
      L1  H    16    30       P1  7957  0.82
      P1  H  7989  7998       L1    18  1.00
      P1  H  8011  8017       L1    16  0.99
      L1  C    10    27       P1  8028  0.95
      L1  C    10    27       P1  8029  0.02

> <Gold.PLP.Chemscore.Internal.Correction>
0.0020

> <Gold.Rescore>
     Score         DG    S(hbond)    S(metal)    S(lipo)     H(rot)  DE(clash)    DE(int)     intcor
      6.57      -7.27       2.44        0.00      33.73       4.03       0.68       0.02       ----

> <Gold.Chemscore.Fitness>
6.5696

> <Gold.Chemscore.DG>
-7.2678

> <Gold.Chemscore.ZeroCoef>
-5.4800

> <Gold.Chemscore.Hbond>
2.4407

> <Gold.Chemscore.Metal>
0.0000

> <Gold.Chemscore.Lipo>
33.7323

> <Gold.Chemscore.Internal_Hbond>
0.0000

> <Gold.Chemscore.DEClash>
0.6811

> <Gold.Chemscore.DEInternal>
0.0171

> <Gold.Chemscore.Rot>
4.0277

> <Gold.Chemscore.Internal.Correction>
   9.000000E+99

> <Gold.Chemscore.Hbonds>
donor molecule, donor type, donor heavy atom, donor atom, acceptor molecule, acceptor atom, score
      L1  H    16    30       P1  7957  0.81
      P1  H  7989  7998       L1    18  0.88
      P1  H  8011  8017       L1    16  0.23

> <Gold.Chemscore.Hbond.Weighted>
-8.1521

> <Gold.Chemscore.Metal.Weighted>
-0.0000

> <Gold.Chemscore.Lipo.Weighted>
-3.9467

> <Gold.Chemscore.Internal_Hbond.Weighted>
0.0000

> <Gold.Chemscore.DEClash.Weighted>
0.6811

> <Gold.Chemscore.DEInternal.Weighted>
0.0171

> <Gold.Chemscore.Rot.Weighted>
10.3110

> <Gold.Chemscore.Internal.Correction.Weighted>
   9.000000E+99

> <Gold.Protein.RotatedTorsions>
[ 6907 6896 6895 6894 ] final  121.34 input  -60.11 | X-H torsion
[ 7974 7965 7964 7962 ] final  -94.31 input  175.53 | X-H torsion
[ 8008 7997 7996 7995 ] final  173.87 input   59.86 | X-H torsion
[ 10167 10162 10161 10158 ] final   43.87 input  -65.29 | X-H torsion
[ 10718 10713 10712 10709 ] final  -16.78 input   66.30 | X-H torsion
[ 10763 10752 10751 10750 ] final  -70.33 input  -60.55 | X-H torsion
[ 11005 11000 10999 10996 ] final  -93.44 input  -57.11 | X-H torsion

> <Gold.Protein.ActiveResidues>
 VAL166  LYS551  ARG553  GLY616  TRP617  ASP618  TYR619  PRO620  LYS621  CYS622 
 ASP623  PHE694  ASN695  SER759  ASP760  ASP761  ALA762  ILE779  LEU786  VAL792 
 PHE793  MET794  SER795  GLU796  ALA797  LYS798  CYS799  TRP800  GLU811  SER814 

> <Gold.Protein.RotatedAtoms>
  152.4329  133.7309  159.6586 H   0  0  0  0  0  0  0  0  0  0  0  0  # atno 6907 bound_to 6896
  150.8210  133.8243  159.3145 H   0  0  0  0  0  0  0  0  0  0  0  0  # atno 6908 bound_to 6896
  151.5925  135.1055  160.0094 H   0  0  0  0  0  0  0  0  0  0  0  0  # atno 6909 bound_to 6896
  145.3750  140.9510  143.2425 H   0  0  0  0  0  0  0  0  0  0  0  0  # atno 7974 bound_to 7965
  156.1032  140.1449  156.9439 H   0  0  0  0  0  0  0  0  0  0  0  0  # atno 8008 bound_to 7997
  154.4716  140.0908  156.7204 H   0  0  0  0  0  0  0  0  0  0  0  0  # atno 8009 bound_to 7997
  155.4724  140.3442  155.4330 H   0  0  0  0  0  0  0  0  0  0  0  0  # atno 8010 bound_to 7997
  140.3400  144.2482  150.6157 H   0  0  0  0  0  0  0  0  0  0  0  0  # atno 10167 bound_to 10162
  156.5828  130.4778  149.6313 H   0  0  0  0  0  0  0  0  0  0  0  0  # atno 10718 bound_to 10713
  154.4162  135.5997  153.5982 H   0  0  0  0  0  0  0  0  0  0  0  0  # atno 10763 bound_to 10752
  152.9792  135.5941  154.4011 H   0  0  0  0  0  0  0  0  0  0  0  0  # atno 10764 bound_to 10752
  154.3830  135.2841  155.2178 H   0  0  0  0  0  0  0  0  0  0  0  0  # atno 10765 bound_to 10752
  141.1497  133.7888  157.0160 H   0  0  0  0  0  0  0  0  0  0  0  0  # atno 11005 bound_to 11000
  144.8548  139.5266  143.6839 LP  0  0  0  0  0  0  0  0  0  0  0  0  # atno 17320 bound_to 7965
  146.2868  139.7026  142.9190 LP  0  0  0  0  0  0  0  0  0  0  0  0  # atno 17321 bound_to 7965
  140.5318  143.2242  151.8226 LP  0  0  0  0  0  0  0  0  0  0  0  0  # atno 17342 bound_to 10162
  139.4842  144.4711  151.9424 LP  0  0  0  0  0  0  0  0  0  0  0  0  # atno 17343 bound_to 10162
  156.2617  130.6966  151.1737 LP  0  0  0  0  0  0  0  0  0  0  0  0  # atno 17370 bound_to 10713
  157.7322  131.0601  150.5637 LP  0  0  0  0  0  0  0  0  0  0  0  0  # atno 17371 bound_to 10713
  140.0847  134.9628  157.1680 LP  0  0  0  0  0  0  0  0  0  0  0  0  # atno 17394 bound_to 11000
  140.3529  134.2579  155.7196 LP  0  0  0  0  0  0  0  0  0  0  0  0  # atno 17395 bound_to 11000

$$$$
