AV-unprocessed.smi:157|AV-procd|sdf|1293|dock3
  -GOLD-   2262018573D 1   1.00000     0.00000
 Structure written by MMmdl.
 35 37  0  0  0  0  0  0  0  0  1 V2000
  146.6491  131.4708  149.4079 O   0  0  0  0  0  0  0  0  0  0  0  0
  145.7603  131.2125  150.4739 C   0  0  0  0  0  0  0  0  0  0  0  0
  144.9115  132.4592  150.7636 C   0  0  1  0  0  0  0  0  0  0  0  0
  145.7622  133.5666  151.0467 O   0  0  0  0  0  0  0  0  0  0  0  0
  145.1183  134.7642  150.7229 C   0  0  2  0  0  0  0  0  0  0  0  0
  144.7540  135.4783  151.9900 N   0  0  0  0  0  0  0  0  0  0  0  0
  143.8368  135.1001  152.8913 C   0  0  0  0  0  0  0  0  0  0  0  0
  143.7129  135.9156  153.9246 N   0  0  0  0  0  0  0  0  0  0  0  0
  144.6357  136.9272  153.6670 C   0  0  0  0  0  0  0  0  0  0  0  0
  145.2859  136.6801  152.4664 C   0  0  0  0  0  0  0  0  0  0  0  0
  146.2633  137.3044  151.7149 N   0  0  0  0  0  0  0  0  0  0  0  0
  146.5220  138.5498  151.9624 C   0  0  0  0  0  0  0  0  0  0  0  0
  146.0333  139.3887  152.9538 N   0  0  0  0  0  0  0  0  0  0  0  0
  145.9517  139.0134  154.3551 C   0  0  0  0  0  0  0  0  0  0  0  0
  144.8090  138.0383  154.6610 C   0  0  1  0  0  0  0  0  0  0  0  0
  143.5874  138.7467  154.7061 O   0  0  0  0  0  0  0  0  0  0  0  0
  143.8496  134.4020  149.9436 C   0  0  0  0  0  0  0  0  0  0  0  0
  144.1238  132.9635  149.5532 C   0  0  2  0  0  0  0  0  0  0  0  0
  142.9174  132.2545  149.3589 O   0  0  0  0  0  0  0  0  0  0  0  0
  144.2331  132.2924  151.6028 H   0  0  0  0  0  0  0  0  0  0  0  0
  145.8010  135.4283  150.1919 H   0  0  0  0  0  0  0  0  0  0  0  0
  144.9690  137.6219  155.6563 H   0  0  0  0  0  0  0  0  0  0  0  0
  144.7357  132.9266  148.6507 H   0  0  0  0  0  0  0  0  0  0  0  0
  147.5213  131.2275  149.6783 H   0  0  0  0  0  0  0  0  0  0  0  0
  145.1334  130.3497  150.2469 H   0  0  0  0  0  0  0  0  0  0  0  0
  146.3614  130.9559  151.3466 H   0  0  0  0  0  0  0  0  0  0  0  0
  143.2448  134.2023  152.7930 H   0  0  0  0  0  0  0  0  0  0  0  0
  147.2372  139.0661  151.3204 H   0  0  0  0  0  0  0  0  0  0  0  0
  146.1675  140.3840  152.8499 H   0  0  0  0  0  0  0  0  0  0  0  0
  146.8985  138.5403  154.6202 H   0  0  0  0  0  0  0  0  0  0  0  0
  145.8744  139.9074  154.9743 H   0  0  0  0  0  0  0  0  0  0  0  0
  143.5914  139.3840  154.0081 H   0  0  0  0  0  0  0  0  0  0  0  0
  142.9793  134.4704  150.5995 H   0  0  0  0  0  0  0  0  0  0  0  0
  143.7059  135.0685  149.0928 H   0  0  0  0  0  0  0  0  0  0  0  0
  142.2010  132.8708  149.3744 H   0  0  0  0  0  0  0  0  0  0  0  0
  1  2  1  0  0  0  0
  1 24  1  0  0  0  0
  2  3  1  0  0  0  0
  2 25  1  0  0  0  0
  2 26  1  0  0  0  0
  3 20  1  0  0  0  0
  3 18  1  0  0  0  0
  3  4  1  0  0  0  0
  4  5  1  0  0  0  0
  5 21  1  0  0  0  0
  5  6  1  0  0  0  0
  5 17  1  0  0  0  0
  6 10  1  0  0  0  0
  6  7  1  0  0  0  0
  7  8  2  0  0  0  0
  7 27  1  0  0  0  0
  8  9  1  0  0  0  0
  9 15  1  0  0  0  0
  9 10  2  0  0  0  0
 10 11  1  0  0  0  0
 11 12  2  0  0  0  0
 12 13  1  0  0  0  0
 12 28  1  0  0  0  0
 13 14  1  0  0  0  0
 13 29  1  0  0  0  0
 14 15  1  0  0  0  0
 14 30  1  0  0  0  0
 14 31  1  0  0  0  0
 15 22  1  0  0  0  0
 15 16  1  0  0  0  0
 16 32  1  0  0  0  0
 17 18  1  0  0  0  0
 17 33  1  0  0  0  0
 17 34  1  0  0  0  0
 18 23  1  0  0  0  0
 18 19  1  0  0  0  0
 19 35  1  0  0  0  0
M  END
> <s_m_source_file>
AV-unprocessed.smi

> <i_m_source_file_index>
157

> <i_lp_mmshare_version>
43012

> <i_f3d_flags>
0

> <s_epik_input>
W09IXVtDSDJdW0NASF0xT1tDQEhdKFtDSDJdW0NAQEhdMVtPSF0pbihbY0hdbjIpYyhjMjMpTj1bQ0hdW05IXVtDSDJdW0NASF0zW09IXQ==

> <s_epik_cmdline>
J2VwaWtfcHl0aG9uJywgJy1waCcsICc3LjAnLCAnLXRuJywgJzgnLCAnLW1hJywgJzIwMCcsICctbWV0YWxfYmluZGluZycsICctaW1hZScsICc8aW5maWxlLm1hZT4nLCAnLW9tYWUnLCAnPG91dGZpbGUubWFlPic=

> <r_lp_tautomer_probability>
1

> <r_epik_Ionization_Penalty>
0.0357149

> <r_epik_Ionization_Penalty_Charging>
0.0355056

> <r_epik_Ionization_Penalty_Neutral>
0.000209255

> <r_epik_State_Penalty>
0.0296046

> <r_epik_Charging_Adjusted_Penalty>
0.0651102

> <i_epik_Tot_Q>
0

> <i_epik_Tot_abs_Q>
0

> <r_epik_Metal_State_Penalty>
3.03559e-05

> <b_epik_Metal_Only>
0

> <s_epik_Chemistry_Notes>
This compound has an imine and may undergo hydrolysis. This compound contains an acetal/aminal-like group ( X-CH(R)-Y where X, Y are N, S, or O) that may be acid/base labile, releasing an aldehyde.

> <s_lp_Force_Field>
OPLS_2005

> <r_lp_Energy>
43.2358

> <b_lp_Chiralities_Consistent>
1

> <s_lp_Variant>
AV-unprocessed.smi:157-3

> <Gold.Version>
5.8.1

> <Gold.Id.Protein>
6NUR|6NUR_protein|mol2

> <Gold.PLP.Fitness>
41.0335

> <Gold.PLP.PLP>
-27.6663

> <Gold.PLP.part.hbond>
-5.3953

> <Gold.PLP.part.metal>
0.0000

> <Gold.PLP.part.buried>
-3.7725

> <Gold.PLP.part.nonpolar>
-21.5071

> <Gold.PLP.part.repulsive>
1.9686

> <Gold.PLP.ligand.clash>
0.0000

> <Gold.PLP.ligand.torsion>
0.1793

> <Gold.PLP.Chemscore.Hbond>
3.5688

> <Gold.PLP.Chemscore.CHOScore>
1.0000

> <Gold.PLP.Chemscore.Metal>
0.0000

> <Gold.Chemscore.Hbonds>
donor molecule, donor type, donor heavy atom, donor atom, acceptor molecule, acceptor atom, score
      L1  H     1    24       P1 10747  1.00
      L1  H    16    32       P1 10175  1.00
      L1  H    19    35       P1 10186  1.00
      P1  H 10785 10796       L1    19  0.54
      L1  C    12    28       P1  7957  1.00

> <Gold.PLP.Chemscore.Internal.Correction>
0.0195

> <Gold.Rescore>
     Score         DG    S(hbond)    S(metal)    S(lipo)     H(rot)  DE(clash)    DE(int)     intcor
     11.66     -13.19       3.57        0.00      43.46       3.64       1.37       0.16       ----

> <Gold.Chemscore.Fitness>
11.6590

> <Gold.Chemscore.DG>
-13.1906

> <Gold.Chemscore.ZeroCoef>
-5.4800

> <Gold.Chemscore.Hbond>
3.5733

> <Gold.Chemscore.Metal>
0.0000

> <Gold.Chemscore.Lipo>
43.4576

> <Gold.Chemscore.Internal_Hbond>
0.0000

> <Gold.Chemscore.DEClash>
1.3732

> <Gold.Chemscore.DEInternal>
0.1584

> <Gold.Chemscore.Rot>
3.6362

> <Gold.Chemscore.Internal.Correction>
   9.000000E+99

> <Gold.Chemscore.Hbonds>
donor molecule, donor type, donor heavy atom, donor atom, acceptor molecule, acceptor atom, score
      L1  H     1    24       P1 10747  0.98
      L1  H    16    32       P1 10175  1.00
      L1  H    19    35       P1 10186  0.99
      P1  H 10785 10796       L1    19  0.48

> <Gold.Chemscore.Hbond.Weighted>
-11.9348

> <Gold.Chemscore.Metal.Weighted>
-0.0000

> <Gold.Chemscore.Lipo.Weighted>
-5.0845

> <Gold.Chemscore.Internal_Hbond.Weighted>
0.0000

> <Gold.Chemscore.DEClash.Weighted>
1.3732

> <Gold.Chemscore.DEInternal.Weighted>
0.1584

> <Gold.Chemscore.Rot.Weighted>
9.3087

> <Gold.Chemscore.Internal.Correction.Weighted>
   9.000000E+99

> <Gold.Protein.RotatedTorsions>
[ 6907 6896 6895 6894 ] final  153.61 input  -60.11 | X-H torsion
[ 7974 7965 7964 7962 ] final -179.84 input  175.53 | X-H torsion
[ 8008 7997 7996 7995 ] final  -34.76 input   59.86 | X-H torsion
[ 10167 10162 10161 10158 ] final   93.12 input  -65.29 | X-H torsion
[ 10718 10713 10712 10709 ] final  -21.68 input   66.30 | X-H torsion
[ 10763 10752 10751 10750 ] final   59.39 input  -60.55 | X-H torsion
[ 11005 11000 10999 10996 ] final   73.91 input  -57.11 | X-H torsion

> <Gold.Protein.ActiveResidues>
 VAL166  LYS551  ARG553  GLY616  TRP617  ASP618  TYR619  PRO620  LYS621  CYS622 
 ASP623  PHE694  ASN695  SER759  ASP760  ASP761  ALA762  ILE779  LEU786  VAL792 
 PHE793  MET794  SER795  GLU796  ALA797  LYS798  CYS799  TRP800  GLU811  SER814 

> <Gold.Protein.RotatedAtoms>
  152.0703  133.4103  159.4455 H   0  0  0  0  0  0  0  0  0  0  0  0  # atno 6907 bound_to 6896
  150.6863  134.3099  159.4751 H   0  0  0  0  0  0  0  0  0  0  0  0  # atno 6908 bound_to 6896
  152.0930  134.9393  160.0622 H   0  0  0  0  0  0  0  0  0  0  0  0  # atno 6909 bound_to 6896
  144.7139  140.0657  143.6431 H   0  0  0  0  0  0  0  0  0  0  0  0  # atno 7974 bound_to 7965
  154.4112  140.1675  156.2101 H   0  0  0  0  0  0  0  0  0  0  0  0  # atno 8008 bound_to 7997
  155.9451  140.3405  155.6337 H   0  0  0  0  0  0  0  0  0  0  0  0  # atno 8009 bound_to 7997
  155.6940  140.0737  157.2427 H   0  0  0  0  0  0  0  0  0  0  0  0  # atno 8010 bound_to 7997
  139.8210  144.6731  150.9518 H   0  0  0  0  0  0  0  0  0  0  0  0  # atno 10167 bound_to 10162
  156.5148  130.4618  149.6628 H   0  0  0  0  0  0  0  0  0  0  0  0  # atno 10718 bound_to 10713
  152.9893  135.5573  154.5706 H   0  0  0  0  0  0  0  0  0  0  0  0  # atno 10763 bound_to 10752
  154.5107  135.2802  155.1347 H   0  0  0  0  0  0  0  0  0  0  0  0  # atno 10764 bound_to 10752
  154.2740  135.6357  153.5374 H   0  0  0  0  0  0  0  0  0  0  0  0  # atno 10765 bound_to 10752
  139.9417  134.7387  156.1083 H   0  0  0  0  0  0  0  0  0  0  0  0  # atno 11005 bound_to 11000
  145.9826  139.2953  143.1032 LP  0  0  0  0  0  0  0  0  0  0  0  0  # atno 17320 bound_to 7965
  145.8993  140.9253  143.0511 LP  0  0  0  0  0  0  0  0  0  0  0  0  # atno 17321 bound_to 7965
  140.7813  143.4091  151.1022 LP  0  0  0  0  0  0  0  0  0  0  0  0  # atno 17342 bound_to 10162
  139.7752  143.8436  152.3128 LP  0  0  0  0  0  0  0  0  0  0  0  0  # atno 17343 bound_to 10162
  156.3205  130.7278  151.2189 LP  0  0  0  0  0  0  0  0  0  0  0  0  # atno 17370 bound_to 10713
  157.7445  131.0457  150.4855 LP  0  0  0  0  0  0  0  0  0  0  0  0  # atno 17371 bound_to 10713
  141.1053  133.6662  156.2850 LP  0  0  0  0  0  0  0  0  0  0  0  0  # atno 17394 bound_to 11000
  140.5936  134.5626  157.5504 LP  0  0  0  0  0  0  0  0  0  0  0  0  # atno 17395 bound_to 11000

$$$$
