AV-unprocessed.smi:287|AV-procd|sdf|2208|dock6
  -GOLD-   2262022 43D 1   1.00000     0.00000
 Structure written by MMmdl.
 55 58  0  0  0  0  0  0  0  0  1 V2000
  144.3690  144.4420  153.9885 C   0  0  0  0  0  0  0  0  0  0  0  0
  145.2683  143.3667  154.4945 C   0  0  0  0  0  0  0  0  0  0  0  0
  146.3429  142.7088  153.9706 C   0  0  0  0  0  0  0  0  0  0  0  0
  146.7840  141.7664  154.9472 C   0  0  0  0  0  0  0  0  0  0  0  0
  147.9619  140.8094  154.8131 C   0  0  2  0  0  0  0  0  0  0  0  0
  149.0952  141.2000  155.7797 C   0  0  0  0  0  0  0  0  0  0  0  0
  148.5561  140.8570  153.5302 O   0  0  0  0  0  0  0  0  0  0  0  0
  147.5498  139.3396  155.0520 C   0  0  0  0  0  0  0  0  0  0  0  0
  146.6979  138.8063  153.9971 N   0  0  0  0  0  0  0  0  0  0  0  0
  146.3594  137.5002  153.9696 C   0  0  0  0  0  0  0  0  0  0  0  0
  146.4142  136.8605  155.1620 N   0  0  0  0  0  0  0  0  0  0  0  0
  146.0938  135.5668  155.2455 C   0  0  0  0  0  0  0  0  0  0  0  0
  145.6986  134.7420  154.2749 N   0  0  0  0  0  0  0  0  0  0  0  0
  145.6438  135.3751  153.0673 C   0  0  0  0  0  0  0  0  0  0  0  0
  145.9576  136.7447  152.8273 C   0  0  0  0  0  0  0  0  0  0  0  0
  145.7889  137.0216  151.4744 N   0  0  0  0  0  0  0  0  0  0  0  0
  145.3987  135.8895  150.9562 C   0  0  0  0  0  0  0  0  0  0  0  0
  145.2797  134.8461  151.8450 N   0  0  0  0  0  0  0  0  0  0  0  0
  144.8512  133.4451  151.5482 C   0  0  1  0  0  0  0  0  0  0  0  0
  143.9917  133.4756  150.4501 O   0  0  0  0  0  0  0  0  0  0  0  0
  144.2997  132.4005  149.5702 C   0  0  1  0  0  0  0  0  0  0  0  0
  143.8233  132.7423  148.1498 C   0  0  0  0  0  0  0  0  0  0  0  0
  143.5125  134.1163  148.0587 O   0  0  0  0  0  0  0  0  0  0  0  0
  145.8207  132.2967  149.6977 C   0  0  2  0  0  0  0  0  0  0  0  0
  146.3323  131.0482  149.2670 O   0  0  0  0  0  0  0  0  0  0  0  0
  146.0595  132.5684  151.1810 C   0  0  2  0  0  0  0  0  0  0  0  0
  146.0663  131.3782  151.9484 O   0  0  0  0  0  0  0  0  0  0  0  0
  145.9321  141.9425  156.0113 C   0  0  0  0  0  0  0  0  0  0  0  0
  145.8221  141.3194  157.3637 C   0  0  0  0  0  0  0  0  0  0  0  0
  145.0080  142.9063  155.7432 O   0  0  0  0  0  0  0  0  0  0  0  0
  144.3251  133.1167  152.4460 H   0  0  0  0  0  0  0  0  0  0  0  0
  143.8351  131.4838  149.9397 H   0  0  0  0  0  0  0  0  0  0  0  0
  146.2922  133.0832  149.1085 H   0  0  0  0  0  0  0  0  0  0  0  0
  146.9997  133.0970  151.3466 H   0  0  0  0  0  0  0  0  0  0  0  0
  144.6849  144.7819  153.0020 H   0  0  0  0  0  0  0  0  0  0  0  0
  144.3761  145.3005  154.6603 H   0  0  0  0  0  0  0  0  0  0  0  0
  143.3431  144.0819  153.9093 H   0  0  0  0  0  0  0  0  0  0  0  0
  146.7650  142.8848  152.9923 H   0  0  0  0  0  0  0  0  0  0  0  0
  148.7730  141.1450  156.8199 H   0  0  0  0  0  0  0  0  0  0  0  0
  149.4408  142.2183  155.5960 H   0  0  0  0  0  0  0  0  0  0  0  0
  149.9549  140.5367  155.6753 H   0  0  0  0  0  0  0  0  0  0  0  0
  148.5288  139.9904  153.1547 H   0  0  0  0  0  0  0  0  0  0  0  0
  148.4310  138.7115  155.1903 H   0  0  0  0  0  0  0  0  0  0  0  0
  146.9729  139.2875  155.9763 H   0  0  0  0  0  0  0  0  0  0  0  0
  146.4352  139.4623  153.2755 H   0  0  0  0  0  0  0  0  0  0  0  0
  146.1622  135.1308  156.2310 H   0  0  0  0  0  0  0  0  0  0  0  0
  145.1806  135.7851  149.9032 H   0  0  0  0  0  0  0  0  0  0  0  0
  144.5721  132.4704  147.4048 H   0  0  0  0  0  0  0  0  0  0  0  0
  142.9153  132.1869  147.9132 H   0  0  0  0  0  0  0  0  0  0  0  0
  144.2804  134.5792  147.7596 H   0  0  0  0  0  0  0  0  0  0  0  0
  147.2013  130.9411  149.6226 H   0  0  0  0  0  0  0  0  0  0  0  0
  145.3813  131.4412  152.5968 H   0  0  0  0  0  0  0  0  0  0  0  0
  145.5301  140.2724  157.2832 H   0  0  0  0  0  0  0  0  0  0  0  0
  145.0765  141.8296  157.9743 H   0  0  0  0  0  0  0  0  0  0  0  0
  146.7757  141.3668  157.8899 H   0  0  0  0  0  0  0  0  0  0  0  0
  1  2  1  0  0  0  0
  1 35  1  0  0  0  0
  1 36  1  0  0  0  0
  1 37  1  0  0  0  0
  2 30  1  0  0  0  0
  2  3  2  0  0  0  0
  3  4  1  0  0  0  0
  3 38  1  0  0  0  0
  4  5  1  0  0  0  0
  4 28  2  0  0  0  0
  5  6  1  0  0  0  0
  5  7  1  0  0  0  0
  5  8  1  0  0  0  0
  6 39  1  0  0  0  0
  6 40  1  0  0  0  0
  6 41  1  0  0  0  0
  7 42  1  0  0  0  0
  8  9  1  0  0  0  0
  8 43  1  0  0  0  0
  8 44  1  0  0  0  0
  9 10  1  0  0  0  0
  9 45  1  0  0  0  0
 10 15  1  0  0  0  0
 10 11  2  0  0  0  0
 11 12  1  0  0  0  0
 12 13  2  0  0  0  0
 12 46  1  0  0  0  0
 13 14  1  0  0  0  0
 14 18  1  0  0  0  0
 14 15  2  0  0  0  0
 15 16  1  0  0  0  0
 16 17  2  0  0  0  0
 17 18  1  0  0  0  0
 17 47  1  0  0  0  0
 18 19  1  0  0  0  0
 19 31  1  0  0  0  0
 19 26  1  0  0  0  0
 19 20  1  0  0  0  0
 20 21  1  0  0  0  0
 21 32  1  0  0  0  0
 21 22  1  0  0  0  0
 21 24  1  0  0  0  0
 22 23  1  0  0  0  0
 22 48  1  0  0  0  0
 22 49  1  0  0  0  0
 23 50  1  0  0  0  0
 24 33  1  0  0  0  0
 24 25  1  0  0  0  0
 24 26  1  0  0  0  0
 25 51  1  0  0  0  0
 26 34  1  0  0  0  0
 26 27  1  0  0  0  0
 27 52  1  0  0  0  0
 28 29  1  0  0  0  0
 28 30  1  0  0  0  0
 29 53  1  0  0  0  0
 29 54  1  0  0  0  0
 29 55  1  0  0  0  0
M  END
> <s_m_source_file>
AV-unprocessed.smi

> <i_m_source_file_index>
287

> <i_lp_mmshare_version>
43012

> <i_f3d_flags>
0

> <s_epik_input>
W0NIM11jMVtjSF1jKGMobzEpW0NIM10pW0NAQF0oW0NIM10pKFtPSF0pW0NIMl1bTkhdYyhuW2NIXW4yKWMoYzIzKW5bY0hdbjNbQ0BASF00T1tDQEhdKFtDSDJdW09IXSlbQ0BASF0oW09IXSlbQ0BIXTRbT0hd

> <s_epik_cmdline>
J2VwaWtfcHl0aG9uJywgJy1waCcsICc3LjAnLCAnLXRuJywgJzgnLCAnLW1hJywgJzIwMCcsICctbWV0YWxfYmluZGluZycsICctaW1hZScsICc8aW5maWxlLm1hZT4nLCAnLW9tYWUnLCAnPG91dGZpbGUubWFlPic=

> <r_lp_tautomer_probability>
1

> <r_epik_Ionization_Penalty>
0.000992612

> <r_epik_Ionization_Penalty_Charging>
0

> <r_epik_Ionization_Penalty_Neutral>
0.000992612

> <r_epik_State_Penalty>
-0

> <r_epik_Charging_Adjusted_Penalty>
0

> <i_epik_Tot_Q>
0

> <i_epik_Tot_abs_Q>
0

> <r_epik_Metal_State_Penalty>
-0

> <b_epik_Metal_Only>
0

> <s_epik_Chemistry_Notes>
This compound contains an acetal/aminal-like group ( X-CH(R)-Y where X, Y are N, S, or O) that may be acid/base labile, releasing an aldehyde.

> <s_lp_Force_Field>
OPLS_2005

> <r_lp_Energy>
44.724

> <b_lp_Chiralities_Consistent>
1

> <s_lp_Variant>
AV-unprocessed.smi:287-32

> <Gold.Version>
5.8.1

> <Gold.Id.Protein>
6NUR|6NUR_protein|mol2

> <Gold.PLP.Fitness>
59.5190

> <Gold.PLP.PLP>
-47.1581

> <Gold.PLP.part.hbond>
-6.0189

> <Gold.PLP.part.metal>
0.0000

> <Gold.PLP.part.buried>
-5.8066

> <Gold.PLP.part.nonpolar>
-36.9549

> <Gold.PLP.part.repulsive>
2.0963

> <Gold.PLP.ligand.clash>
0.0000

> <Gold.PLP.ligand.torsion>
1.6653

> <Gold.PLP.Chemscore.Hbond>
4.1760

> <Gold.PLP.Chemscore.CHOScore>
0.9893

> <Gold.PLP.Chemscore.Metal>
0.0000

> <Gold.Chemscore.Hbonds>
donor molecule, donor type, donor heavy atom, donor atom, acceptor molecule, acceptor atom, score
      L1  H     7    42       P1  7957  0.07
      L1  H    23    50       P1  7921  1.00
      L1  H    25    51       P1 10747  1.00
      P1  H  8011  8017       L1     7  0.28
      P1  H 10192 10197       L1    23  0.98
      L1  C    17    47       P1  7921  0.74

> <Gold.PLP.Chemscore.Internal.Correction>
0.1955

> <Gold.Rescore>
     Score         DG    S(hbond)    S(metal)    S(lipo)     H(rot)  DE(clash)    DE(int)     intcor
     12.35     -16.74       3.99        0.00      97.68       5.27       2.89       1.51       ----

> <Gold.Chemscore.Fitness>
12.3464

> <Gold.Chemscore.DG>
-16.7424

> <Gold.Chemscore.ZeroCoef>
-5.4800

> <Gold.Chemscore.Hbond>
3.9873

> <Gold.Chemscore.Metal>
0.0000

> <Gold.Chemscore.Lipo>
97.6811

> <Gold.Chemscore.Internal_Hbond>
0.0000

> <Gold.Chemscore.DEClash>
2.8893

> <Gold.Chemscore.DEInternal>
1.5067

> <Gold.Chemscore.Rot>
5.2672

> <Gold.Chemscore.Internal.Correction>
   9.000000E+99

> <Gold.Chemscore.Hbonds>
donor molecule, donor type, donor heavy atom, donor atom, acceptor molecule, acceptor atom, score
      L1  H     7    42       P1  7957  0.08
      L1  H    23    50       P1  7921  0.98
      L1  H    25    51       P1 10747  1.00
      P1  H  8011  8017       L1     7  0.25
      P1  H 10192 10197       L1    23  0.32

> <Gold.Chemscore.Hbond.Weighted>
-13.3176

> <Gold.Chemscore.Metal.Weighted>
-0.0000

> <Gold.Chemscore.Lipo.Weighted>
-11.4287

> <Gold.Chemscore.Internal_Hbond.Weighted>
0.0000

> <Gold.Chemscore.DEClash.Weighted>
2.8893

> <Gold.Chemscore.DEInternal.Weighted>
1.5067

> <Gold.Chemscore.Rot.Weighted>
13.4839

> <Gold.Chemscore.Internal.Correction.Weighted>
   9.000000E+99

> <Gold.Protein.RotatedTorsions>
[ 6907 6896 6895 6894 ] final  165.63 input  -60.11 | X-H torsion
[ 7974 7965 7964 7962 ] final   -9.00 input  175.53 | X-H torsion
[ 8008 7997 7996 7995 ] final -110.43 input   59.86 | X-H torsion
[ 10167 10162 10161 10158 ] final -121.23 input  -65.29 | X-H torsion
[ 10718 10713 10712 10709 ] final  -63.58 input   66.30 | X-H torsion
[ 10763 10752 10751 10750 ] final   24.64 input  -60.55 | X-H torsion
[ 11005 11000 10999 10996 ] final   15.02 input  -57.11 | X-H torsion

> <Gold.Protein.ActiveResidues>
 VAL166  LYS551  ARG553  GLY616  TRP617  ASP618  TYR619  PRO620  LYS621  CYS622 
 ASP623  PHE694  ASN695  SER759  ASP760  ASP761  ALA762  ILE779  LEU786  VAL792 
 PHE793  MET794  SER795  GLU796  ALA797  LYS798  CYS799  TRP800  GLU811  SER814 

> <Gold.Protein.RotatedAtoms>
  151.8915  133.3517  159.3799 H   0  0  0  0  0  0  0  0  0  0  0  0  # atno 6907 bound_to 6896
  150.7102  134.4919  159.5529 H   0  0  0  0  0  0  0  0  0  0  0  0  # atno 6908 bound_to 6896
  152.2490  134.8152  160.0500 H   0  0  0  0  0  0  0  0  0  0  0  0  # atno 6909 bound_to 6896
  146.2264  140.2552  142.8349 H   0  0  0  0  0  0  0  0  0  0  0  0  # atno 7974 bound_to 7965
  154.9745  140.0397  157.2249 H   0  0  0  0  0  0  0  0  0  0  0  0  # atno 8008 bound_to 7997
  154.7771  140.2812  155.6070 H   0  0  0  0  0  0  0  0  0  0  0  0  # atno 8009 bound_to 7997
  156.2930  140.2599  156.2587 H   0  0  0  0  0  0  0  0  0  0  0  0  # atno 8010 bound_to 7997
  140.0273  143.5284  152.2193 H   0  0  0  0  0  0  0  0  0  0  0  0  # atno 10167 bound_to 10162
  156.0782  130.4222  150.1297 H   0  0  0  0  0  0  0  0  0  0  0  0  # atno 10718 bound_to 10713
  153.0749  135.6601  154.0166 H   0  0  0  0  0  0  0  0  0  0  0  0  # atno 10763 bound_to 10752
  153.9803  135.2956  155.3422 H   0  0  0  0  0  0  0  0  0  0  0  0  # atno 10764 bound_to 10752
  154.7135  135.5195  153.8772 H   0  0  0  0  0  0  0  0  0  0  0  0  # atno 10765 bound_to 10752
  140.4630  134.1108  155.7719 H   0  0  0  0  0  0  0  0  0  0  0  0  # atno 11005 bound_to 11000
  144.9381  140.8049  143.5647 LP  0  0  0  0  0  0  0  0  0  0  0  0  # atno 17320 bound_to 7965
  145.2501  139.2035  143.4947 LP  0  0  0  0  0  0  0  0  0  0  0  0  # atno 17321 bound_to 7965
  139.6100  144.7606  151.2974 LP  0  0  0  0  0  0  0  0  0  0  0  0  # atno 17342 bound_to 10162
  140.7317  143.6844  150.7974 LP  0  0  0  0  0  0  0  0  0  0  0  0  # atno 17343 bound_to 10162
  156.9334  130.9721  151.3529 LP  0  0  0  0  0  0  0  0  0  0  0  0  # atno 17370 bound_to 10713
  157.5887  130.8428  149.8627 LP  0  0  0  0  0  0  0  0  0  0  0  0  # atno 17371 bound_to 10713
  141.1613  133.8788  157.1841 LP  0  0  0  0  0  0  0  0  0  0  0  0  # atno 17394 bound_to 11000
  139.9933  135.0056  157.0026 LP  0  0  0  0  0  0  0  0  0  0  0  0  # atno 17395 bound_to 11000

$$$$
