AV-unprocessed.smi:2710|AV-procd|sdf|10464|dock3
  -GOLD-   2272014503D 1   1.00000     0.00000
 Structure written by MMmdl.
 53 54  0  0  0  0  0  0  0  0  2 V2000
  147.3366  127.9919  151.3989 C   0  0  0  0  0  0  0  0  0  0  0  0
  146.3824  129.1699  151.6563 C   0  0  0  0  0  0  0  0  0  0  0  0
  147.0843  130.4544  151.9459 N   0  3  2  0  0  0  0  0  0  0  0  0
  147.6878  130.4599  153.3102 C   0  0  0  0  0  0  0  0  0  0  0  0
  148.5116  131.7276  153.5756 C   0  0  0  0  0  0  0  0  0  0  0  0
  147.6493  132.9792  153.3978 C   0  0  1  0  0  0  0  0  0  0  0  0
  148.4563  134.1785  153.6037 N   0  0  0  0  0  0  0  0  0  0  0  0
  149.0415  134.5227  154.7598 C   0  0  0  0  0  0  0  0  0  0  0  0
  148.9568  133.8511  155.7877 O   0  0  0  0  0  0  0  0  0  0  0  0
  149.6988  135.6890  154.6450 N   0  0  0  0  0  0  0  0  0  0  0  0
  150.4603  136.3700  155.6320 C   0  0  0  0  0  0  0  0  0  0  0  0
  150.3562  135.9645  156.9775 C   0  0  0  0  0  0  0  0  0  0  0  0
  151.0413  136.5786  157.9646 N   0  0  0  0  0  0  0  0  0  0  0  0
  151.8039  137.6286  157.6320 C   0  0  0  0  0  0  0  0  0  0  0  0
  152.6956  138.2278  158.7337 C   0  0  0  0  0  0  0  0  0  0  0  0
  152.3753  137.6002  160.1107 C   0  0  0  0  0  0  0  0  0  0  0  0
  152.4785  139.7508  158.7968 C   0  0  0  0  0  0  0  0  0  0  0  0
  154.1899  137.9299  158.4653 C   0  0  0  0  0  0  0  0  0  0  0  0
  151.9937  138.0765  156.3840 N   0  0  0  0  0  0  0  0  0  0  0  0
  151.3164  137.4699  155.3863 C   0  0  0  0  0  0  0  0  0  0  0  0
  147.0420  132.9628  151.9879 C   0  0  0  0  0  0  0  0  0  0  0  0
  146.2392  131.6721  151.7128 C   0  0  1  0  0  0  0  0  0  0  0  0
  145.6624  131.7495  150.2837 C   0  0  0  0  0  0  0  0  0  0  0  0
  146.7819  127.1291  151.0291 H   0  0  0  0  0  0  0  0  0  0  0  0
  147.8518  127.6682  152.3026 H   0  0  0  0  0  0  0  0  0  0  0  0
  148.0863  128.2452  150.6488 H   0  0  0  0  0  0  0  0  0  0  0  0
  145.7804  129.2626  150.7555 H   0  0  0  0  0  0  0  0  0  0  0  0
  145.6935  128.9309  152.4678 H   0  0  0  0  0  0  0  0  0  0  0  0
  146.8982  130.3645  154.0573 H   0  0  0  0  0  0  0  0  0  0  0  0
  148.3503  129.6064  153.4425 H   0  0  0  0  0  0  0  0  0  0  0  0
  148.9194  131.6949  154.5867 H   0  0  0  0  0  0  0  0  0  0  0  0
  149.3653  131.7576  152.8966 H   0  0  0  0  0  0  0  0  0  0  0  0
  146.8463  132.9538  154.1375 H   0  0  0  0  0  0  0  0  0  0  0  0
  148.5757  134.7918  152.8105 H   0  0  0  0  0  0  0  0  0  0  0  0
  149.6105  136.1673  153.7603 H   0  0  0  0  0  0  0  0  0  0  0  0
  149.7274  135.1347  157.2658 H   0  0  0  0  0  0  0  0  0  0  0  0
  153.0370  137.9867  160.8867 H   0  0  0  0  0  0  0  0  0  0  0  0
  152.4930  136.5159  160.0901 H   0  0  0  0  0  0  0  0  0  0  0  0
  151.3556  137.8160  160.4316 H   0  0  0  0  0  0  0  0  0  0  0  0
  151.4395  139.9931  159.0223 H   0  0  0  0  0  0  0  0  0  0  0  0
  152.7280  140.2261  157.8475 H   0  0  0  0  0  0  0  0  0  0  0  0
  153.0981  140.2101  159.5677 H   0  0  0  0  0  0  0  0  0  0  0  0
  154.8215  138.3112  159.2685 H   0  0  0  0  0  0  0  0  0  0  0  0
  154.5405  138.3951  157.5433 H   0  0  0  0  0  0  0  0  0  0  0  0
  154.3734  136.8575  158.3856 H   0  0  0  0  0  0  0  0  0  0  0  0
  151.4636  137.8884  154.4031 H   0  0  0  0  0  0  0  0  0  0  0  0
  146.3937  133.8314  151.8621 H   0  0  0  0  0  0  0  0  0  0  0  0
  147.8358  133.0644  151.2458 H   0  0  0  0  0  0  0  0  0  0  0  0
  145.4023  131.6379  152.4125 H   0  0  0  0  0  0  0  0  0  0  0  0
  145.1929  132.7176  150.1056 H   0  0  0  0  0  0  0  0  0  0  0  0
  144.8871  131.0051  150.1062 H   0  0  0  0  0  0  0  0  0  0  0  0
  146.4413  131.6211  149.5315 H   0  0  0  0  0  0  0  0  0  0  0  0
  147.8500  130.5133  151.2897 H   0  0  0  0  0  0  0  0  0  0  0  0
  1  2  1  0  0  0  0
  1 24  1  0  0  0  0
  1 25  1  0  0  0  0
  1 26  1  0  0  0  0
  2  3  1  0  0  0  0
  2 27  1  0  0  0  0
  2 28  1  0  0  0  0
  3 22  1  0  0  0  0
  3  4  1  0  0  0  0
  3 53  1  0  0  0  0
  4  5  1  0  0  0  0
  4 29  1  0  0  0  0
  4 30  1  0  0  0  0
  5  6  1  0  0  0  0
  5 31  1  0  0  0  0
  5 32  1  0  0  0  0
  6  7  1  0  0  0  0
  6 21  1  0  0  0  0
  6 33  1  0  0  0  0
  7  8  1  0  0  0  0
  7 34  1  0  0  0  0
  8  9  2  0  0  0  0
  8 10  1  0  0  0  0
 10 11  1  0  0  0  0
 10 35  1  0  0  0  0
 11 20  1  0  0  0  0
 11 12  2  0  0  0  0
 12 13  1  0  0  0  0
 12 36  1  0  0  0  0
 13 14  2  0  0  0  0
 14 15  1  0  0  0  0
 14 19  1  0  0  0  0
 15 16  1  0  0  0  0
 15 17  1  0  0  0  0
 15 18  1  0  0  0  0
 16 37  1  0  0  0  0
 16 38  1  0  0  0  0
 16 39  1  0  0  0  0
 17 40  1  0  0  0  0
 17 41  1  0  0  0  0
 17 42  1  0  0  0  0
 18 43  1  0  0  0  0
 18 44  1  0  0  0  0
 18 45  1  0  0  0  0
 19 20  2  0  0  0  0
 20 46  1  0  0  0  0
 21 22  1  0  0  0  0
 21 47  1  0  0  0  0
 21 48  1  0  0  0  0
 22 23  1  0  0  0  0
 22 49  1  0  0  0  0
 23 50  1  0  0  0  0
 23 51  1  0  0  0  0
 23 52  1  0  0  0  0
M  CHG  1   3   1
M  END
> <s_m_source_file>
AV-unprocessed.smi

> <i_m_source_file_index>
2710

> <i_lp_mmshare_version>
43012

> <i_f3d_flags>
0

> <s_epik_input>
W0NIM11bQ0gyXU4xW0NIMl1bQ0gyXVtDQEhdKFtDSDJdW0NASF0xW0NIM10pW05IXUMoPU8pW05IXWMyW2NIXW5jKEMoW0NIM10pKFtDSDNdKVtDSDNdKW5bY0hdMg==

> <s_epik_cmdline>
J2VwaWtfcHl0aG9uJywgJy1waCcsICc3LjAnLCAnLXRuJywgJzgnLCAnLW1hJywgJzIwMCcsICctbWV0YWxfYmluZGluZycsICctaW1hZScsICc8aW5maWxlLm1hZT4nLCAnLW9tYWUnLCAnPG91dGZpbGUubWFlPic=

> <r_lp_tautomer_probability>
1

> <r_epik_Ionization_Penalty>
0.00396003

> <r_epik_Ionization_Penalty_Charging>
0.0039379

> <r_epik_Ionization_Penalty_Neutral>
2.21316e-05

> <r_epik_State_Penalty>
0.00281651

> <r_epik_Charging_Adjusted_Penalty>
0.00675441

> <i_epik_Tot_Q>
1

> <i_epik_Tot_abs_Q>
1

> <r_epik_Metal_State_Penalty>
-0

> <b_epik_Metal_Only>
0

> <s_lp_Force_Field>
OPLS_2005

> <r_lp_Energy>
20.3539

> <b_lp_Chiralities_Consistent>
1

> <s_lp_Variant>
AV-unprocessed.smi:2710-1

> <Gold.Version>
5.8.1

> <Gold.Id.Protein>
6NUR|6NUR_protein|mol2

> <Gold.PLP.Fitness>
46.0333

> <Gold.PLP.PLP>
-37.5388

> <Gold.PLP.part.hbond>
-3.7458

> <Gold.PLP.part.metal>
0.0000

> <Gold.PLP.part.buried>
-5.0648

> <Gold.PLP.part.nonpolar>
-28.8352

> <Gold.PLP.part.repulsive>
0.0819

> <Gold.PLP.ligand.clash>
0.0000

> <Gold.PLP.ligand.torsion>
0.3287

> <Gold.PLP.Chemscore.Hbond>
3.0000

> <Gold.PLP.Chemscore.CHOScore>
0.0000

> <Gold.PLP.Chemscore.Metal>
0.0000

> <Gold.Chemscore.Hbonds>
donor molecule, donor type, donor heavy atom, donor atom, acceptor molecule, acceptor atom, score
      L1  H     3    53       P1 10747  1.00
      L1  H     7    34       P1  7948  1.00
      L1  H    10    35       P1  7948  1.00

> <Gold.PLP.Chemscore.Internal.Correction>
0.1518

> <Gold.Rescore>
     Score         DG    S(hbond)    S(metal)    S(lipo)     H(rot)  DE(clash)    DE(int)     intcor
     20.15     -21.88       2.67        0.00      92.57       1.31       0.04       1.68       ----

> <Gold.Chemscore.Fitness>
20.1518

> <Gold.Chemscore.DG>
-21.8753

> <Gold.Chemscore.ZeroCoef>
-5.4800

> <Gold.Chemscore.Hbond>
2.6689

> <Gold.Chemscore.Metal>
0.0000

> <Gold.Chemscore.Lipo>
92.5656

> <Gold.Chemscore.Internal_Hbond>
0.0000

> <Gold.Chemscore.DEClash>
0.0407

> <Gold.Chemscore.DEInternal>
1.6828

> <Gold.Chemscore.Rot>
1.3081

> <Gold.Chemscore.Internal.Correction>
   9.000000E+99

> <Gold.Chemscore.Hbonds>
donor molecule, donor type, donor heavy atom, donor atom, acceptor molecule, acceptor atom, score
      L1  H     3    53       P1 10747  0.94
      L1  H     7    34       P1  7948  0.26
      L1  H    10    35       P1  7948  0.47

> <Gold.Chemscore.Hbond.Weighted>
-8.9140

> <Gold.Chemscore.Metal.Weighted>
-0.0000

> <Gold.Chemscore.Lipo.Weighted>
-10.8302

> <Gold.Chemscore.Internal_Hbond.Weighted>
0.0000

> <Gold.Chemscore.DEClash.Weighted>
0.0407

> <Gold.Chemscore.DEInternal.Weighted>
1.6828

> <Gold.Chemscore.Rot.Weighted>
3.3488

> <Gold.Chemscore.Internal.Correction.Weighted>
   9.000000E+99

> <Gold.Protein.RotatedTorsions>
[ 6907 6896 6895 6894 ] final  154.33 input  -60.11 | X-H torsion
[ 7974 7965 7964 7962 ] final   46.74 input  175.53 | X-H torsion
[ 8008 7997 7996 7995 ] final   99.23 input   59.86 | X-H torsion
[ 10167 10162 10161 10158 ] final  -92.98 input  -65.29 | X-H torsion
[ 10718 10713 10712 10709 ] final   53.67 input   66.30 | X-H torsion
[ 10763 10752 10751 10750 ] final -117.03 input  -60.55 | X-H torsion
[ 11005 11000 10999 10996 ] final -150.55 input  -57.11 | X-H torsion

> <Gold.Protein.ActiveResidues>
 VAL166  LYS551  ARG553  GLY616  TRP617  ASP618  TYR619  PRO620  LYS621  CYS622 
 ASP623  PHE694  ASN695  SER759  ASP760  ASP761  ALA762  ILE779  LEU786  VAL792 
 PHE793  MET794  SER795  GLU796  ALA797  LYS798  CYS799  TRP800  GLU811  SER814 

> <Gold.Protein.RotatedAtoms>
  152.0600  133.4058  159.4413 H   0  0  0  0  0  0  0  0  0  0  0  0  # atno 6907 bound_to 6896
  150.6866  134.3211  159.4796 H   0  0  0  0  0  0  0  0  0  0  0  0  # atno 6908 bound_to 6896
  152.1031  134.9327  160.0619 H   0  0  0  0  0  0  0  0  0  0  0  0  # atno 6909 bound_to 6896
  146.0362  139.4824  142.9807 H   0  0  0  0  0  0  0  0  0  0  0  0  # atno 7974 bound_to 7965
  156.1084  140.3232  155.8038 H   0  0  0  0  0  0  0  0  0  0  0  0  # atno 8008 bound_to 7997
  155.4716  140.0547  157.2996 H   0  0  0  0  0  0  0  0  0  0  0  0  # atno 8009 bound_to 7997
  154.4743  140.2025  155.9931 H   0  0  0  0  0  0  0  0  0  0  0  0  # atno 8010 bound_to 7997
  140.3293  143.3004  151.9960 H   0  0  0  0  0  0  0  0  0  0  0  0  # atno 10167 bound_to 10162
  157.5188  130.8551  149.8531 H   0  0  0  0  0  0  0  0  0  0  0  0  # atno 10718 bound_to 10713
  154.8540  135.4324  154.1914 H   0  0  0  0  0  0  0  0  0  0  0  0  # atno 10763 bound_to 10752
  153.2982  135.6967  153.7234 H   0  0  0  0  0  0  0  0  0  0  0  0  # atno 10764 bound_to 10752
  153.6375  135.3474  155.3035 H   0  0  0  0  0  0  0  0  0  0  0  0  # atno 10765 bound_to 10752
  140.7390  134.3536  157.5151 H   0  0  0  0  0  0  0  0  0  0  0  0  # atno 11005 bound_to 11000
  145.6959  141.0150  143.1530 LP  0  0  0  0  0  0  0  0  0  0  0  0  # atno 17320 bound_to 7965
  144.7053  139.8588  143.7432 LP  0  0  0  0  0  0  0  0  0  0  0  0  # atno 17321 bound_to 7965
  139.4859  144.6248  151.7185 LP  0  0  0  0  0  0  0  0  0  0  0  0  # atno 17342 bound_to 10162
  140.5412  144.0576  150.6089 LP  0  0  0  0  0  0  0  0  0  0  0  0  # atno 17343 bound_to 10162
  156.0339  130.3757  150.1613 LP  0  0  0  0  0  0  0  0  0  0  0  0  # atno 17370 bound_to 10713
  156.9802  130.9861  151.3439 LP  0  0  0  0  0  0  0  0  0  0  0  0  # atno 17371 bound_to 10713
  139.8810  134.9068  156.2931 LP  0  0  0  0  0  0  0  0  0  0  0  0  # atno 17394 bound_to 11000
  140.9854  133.7241  156.0733 LP  0  0  0  0  0  0  0  0  0  0  0  0  # atno 17395 bound_to 11000

$$$$
