AV-unprocessed.smi:3338|AV-procd|sdf|12876|dock3
  -GOLD-   2272019283D 1   1.00000     0.00000
 Structure written by MMmdl.
 44 45  0  0  0  0  0  0  0  0  2 V2000
  149.0988  132.2486  153.9036 C   0  0  0  0  0  0  0  0  0  0  0  0
  148.3351  133.2339  153.0076 C   0  0  1  0  0  0  0  0  0  0  0  0
  147.5461  132.5001  151.9105 C   0  0  0  0  0  0  0  0  0  0  0  0
  146.7725  133.5061  151.0490 C   0  0  0  0  0  0  0  0  0  0  0  0
  145.8739  134.3995  151.9187 C   0  0  0  0  0  0  0  0  0  0  0  0
  146.6636  135.0983  152.9656 N   0  3  1  0  0  0  0  0  0  0  0  0
  145.8418  136.0706  153.7306 C   0  0  0  0  0  0  0  0  0  0  0  0
  146.6376  136.7592  154.8514 C   0  0  0  0  0  0  0  0  0  0  0  0
  147.6637  137.6277  154.2923 N   0  0  0  0  0  0  0  0  0  0  0  0
  147.8322  138.9142  154.6347 C   0  0  0  0  0  0  0  0  0  0  0  0
  147.1067  139.4859  155.4494 O   0  0  0  0  0  0  0  0  0  0  0  0
  148.9896  139.6592  153.9463 C   0  0  1  0  0  0  0  0  0  0  0  0
  148.9115  141.1894  154.1208 C   0  0  0  0  0  0  0  0  0  0  0  0
  150.2777  139.1325  154.3837 N   0  0  0  0  0  0  0  0  0  0  0  0
  150.6978  137.8180  154.3955 C   0  0  0  0  0  0  0  0  0  0  0  0
  151.9631  137.7958  154.9078 C   0  0  0  0  0  0  0  0  0  0  0  0
  152.2378  139.1626  155.1897 C   0  0  0  0  0  0  0  0  0  0  0  0
  151.2271  139.9586  154.8819 N   0  0  0  0  0  0  0  0  0  0  0  0
  147.3928  134.1334  153.8326 C   0  0  0  0  0  0  0  0  0  0  0  0
  148.4169  131.5754  154.4243 H   0  0  0  0  0  0  0  0  0  0  0  0
  149.6859  132.7753  154.6564 H   0  0  0  0  0  0  0  0  0  0  0  0
  149.7872  131.6378  153.3188 H   0  0  0  0  0  0  0  0  0  0  0  0
  149.0731  133.8750  152.5225 H   0  0  0  0  0  0  0  0  0  0  0  0
  148.2215  131.9170  151.2832 H   0  0  0  0  0  0  0  0  0  0  0  0
  146.8501  131.7916  152.3619 H   0  0  0  0  0  0  0  0  0  0  0  0
  147.4740  134.1254  150.4883 H   0  0  0  0  0  0  0  0  0  0  0  0
  146.1692  132.9769  150.3108 H   0  0  0  0  0  0  0  0  0  0  0  0
  145.3762  135.1307  151.2803 H   0  0  0  0  0  0  0  0  0  0  0  0
  145.0908  133.8026  152.3893 H   0  0  0  0  0  0  0  0  0  0  0  0
  145.4798  136.8450  153.0524 H   0  0  0  0  0  0  0  0  0  0  0  0
  144.9568  135.5727  154.1303 H   0  0  0  0  0  0  0  0  0  0  0  0
  145.9856  137.3602  155.4852 H   0  0  0  0  0  0  0  0  0  0  0  0
  147.1087  136.0099  155.4896 H   0  0  0  0  0  0  0  0  0  0  0  0
  148.2963  137.2259  153.6154 H   0  0  0  0  0  0  0  0  0  0  0  0
  148.9041  139.4525  152.8782 H   0  0  0  0  0  0  0  0  0  0  0  0
  147.9727  141.5842  153.7303 H   0  0  0  0  0  0  0  0  0  0  0  0
  149.7208  141.6829  153.5820 H   0  0  0  0  0  0  0  0  0  0  0  0
  148.9850  141.4853  155.1680 H   0  0  0  0  0  0  0  0  0  0  0  0
  150.0681  137.0153  154.0409 H   0  0  0  0  0  0  0  0  0  0  0  0
  152.5969  136.9344  155.0582 H   0  0  0  0  0  0  0  0  0  0  0  0
  153.1340  139.5966  155.6082 H   0  0  0  0  0  0  0  0  0  0  0  0
  146.6731  133.5234  154.3815 H   0  0  0  0  0  0  0  0  0  0  0  0
  147.9819  134.6681  154.5767 H   0  0  0  0  0  0  0  0  0  0  0  0
  147.3614  135.6391  152.4747 H   0  0  0  0  0  0  0  0  0  0  0  0
  1  2  1  0  0  0  0
  1 20  1  0  0  0  0
  1 21  1  0  0  0  0
  1 22  1  0  0  0  0
  2 19  1  0  0  0  0
  2  3  1  0  0  0  0
  2 23  1  0  0  0  0
  3  4  1  0  0  0  0
  3 24  1  0  0  0  0
  3 25  1  0  0  0  0
  4  5  1  0  0  0  0
  4 26  1  0  0  0  0
  4 27  1  0  0  0  0
  5  6  1  0  0  0  0
  5 28  1  0  0  0  0
  5 29  1  0  0  0  0
  6  7  1  0  0  0  0
  6 19  1  0  0  0  0
  6 44  1  0  0  0  0
  7  8  1  0  0  0  0
  7 30  1  0  0  0  0
  7 31  1  0  0  0  0
  8  9  1  0  0  0  0
  8 32  1  0  0  0  0
  8 33  1  0  0  0  0
  9 10  1  0  0  0  0
  9 34  1  0  0  0  0
 10 11  2  0  0  0  0
 10 12  1  0  0  0  0
 12 13  1  0  0  0  0
 12 14  1  0  0  0  0
 12 35  1  0  0  0  0
 13 36  1  0  0  0  0
 13 37  1  0  0  0  0
 13 38  1  0  0  0  0
 14 18  1  0  0  0  0
 14 15  1  0  0  0  0
 15 16  2  0  0  0  0
 15 39  1  0  0  0  0
 16 17  1  0  0  0  0
 16 40  1  0  0  0  0
 17 18  2  0  0  0  0
 17 41  1  0  0  0  0
 19 42  1  0  0  0  0
 19 43  1  0  0  0  0
M  CHG  1   6   1
M  END
> <s_m_source_file>
AV-unprocessed.smi

> <i_m_source_file_index>
3338

> <i_lp_mmshare_version>
43012

> <i_f3d_flags>
0

> <s_epik_input>
W0NIM11bQ0BASF0xW0NIMl1bQ0gyXVtDSDJdTihbQ0gyXTEpW0NIMl1bQ0gyXVtOSF1DKD1PKVtDQEhdKFtDSDNdKW4yW2NIXVtjSF1bY0hdbjI=

> <s_epik_cmdline>
J2VwaWtfcHl0aG9uJywgJy1waCcsICc3LjAnLCAnLXRuJywgJzgnLCAnLW1hJywgJzIwMCcsICctbWV0YWxfYmluZGluZycsICctaW1hZScsICc8aW5maWxlLm1hZT4nLCAnLW9tYWUnLCAnPG91dGZpbGUubWFlPic=

> <r_lp_tautomer_probability>
1

> <r_epik_Ionization_Penalty>
0.00225707

> <r_epik_Ionization_Penalty_Charging>
0.00223709

> <r_epik_Ionization_Penalty_Neutral>
1.99775e-05

> <r_epik_State_Penalty>
0.00153978

> <r_epik_Charging_Adjusted_Penalty>
0.00377687

> <i_epik_Tot_Q>
1

> <i_epik_Tot_abs_Q>
1

> <r_epik_Metal_State_Penalty>
-0

> <b_epik_Metal_Only>
0

> <s_lp_Force_Field>
OPLS_2005

> <r_lp_Energy>
20.7823

> <b_lp_Chiralities_Consistent>
1

> <s_lp_Variant>
AV-unprocessed.smi:3338-8

> <Gold.Version>
5.8.1

> <Gold.Id.Protein>
6NUR|6NUR_protein|mol2

> <Gold.PLP.Fitness>
45.1251

> <Gold.PLP.PLP>
-31.3269

> <Gold.PLP.part.hbond>
-2.8020

> <Gold.PLP.part.metal>
0.0000

> <Gold.PLP.part.buried>
3.3276

> <Gold.PLP.part.nonpolar>
-30.7315

> <Gold.PLP.part.repulsive>
0.0727

> <Gold.PLP.ligand.clash>
0.0000

> <Gold.PLP.ligand.torsion>
0.3483

> <Gold.PLP.Chemscore.Hbond>
3.7800

> <Gold.PLP.Chemscore.CHOScore>
1.0000

> <Gold.PLP.Chemscore.Metal>
0.0000

> <Gold.Chemscore.Hbonds>
donor molecule, donor type, donor heavy atom, donor atom, acceptor molecule, acceptor atom, score
      L1  H     6    44       P1  7948  2.00
      L1  H     9    34       P1  7948  0.80
      P1  H  7989  7998       L1    18  1.00
      L1  C    15    39       P1  7948  1.00

> <Gold.PLP.Chemscore.Internal.Correction>
0.1548

> <Gold.Rescore>
     Score         DG    S(hbond)    S(metal)    S(lipo)     H(rot)  DE(clash)    DE(int)     intcor
     15.10     -17.96       2.46        0.00      74.98       1.76       1.57       1.29       ----

> <Gold.Chemscore.Fitness>
15.1017

> <Gold.Chemscore.DG>
-17.9573

> <Gold.Chemscore.ZeroCoef>
-5.4800

> <Gold.Chemscore.Hbond>
2.4560

> <Gold.Chemscore.Metal>
0.0000

> <Gold.Chemscore.Lipo>
74.9753

> <Gold.Chemscore.Internal_Hbond>
0.0000

> <Gold.Chemscore.DEClash>
1.5681

> <Gold.Chemscore.DEInternal>
1.2875

> <Gold.Chemscore.Rot>
1.7570

> <Gold.Chemscore.Internal.Correction>
   9.000000E+99

> <Gold.Chemscore.Hbonds>
donor molecule, donor type, donor heavy atom, donor atom, acceptor molecule, acceptor atom, score
      L1  H     6    44       P1  7948  1.00
      L1  H     9    34       P1  7948  0.78
      P1  H  7989  7998       L1    18  0.24

> <Gold.Chemscore.Hbond.Weighted>
-8.2031

> <Gold.Chemscore.Metal.Weighted>
-0.0000

> <Gold.Chemscore.Lipo.Weighted>
-8.7721

> <Gold.Chemscore.Internal_Hbond.Weighted>
0.0000

> <Gold.Chemscore.DEClash.Weighted>
1.5681

> <Gold.Chemscore.DEInternal.Weighted>
1.2875

> <Gold.Chemscore.Rot.Weighted>
4.4979

> <Gold.Chemscore.Internal.Correction.Weighted>
   9.000000E+99

> <Gold.Protein.RotatedTorsions>
[ 6907 6896 6895 6894 ] final  126.30 input  -60.11 | X-H torsion
[ 7974 7965 7964 7962 ] final  -60.17 input  175.53 | X-H torsion
[ 8008 7997 7996 7995 ] final  -98.81 input   59.86 | X-H torsion
[ 10167 10162 10161 10158 ] final -105.60 input  -65.29 | X-H torsion
[ 10718 10713 10712 10709 ] final   22.15 input   66.30 | X-H torsion
[ 10763 10752 10751 10750 ] final   91.78 input  -60.55 | X-H torsion
[ 11005 11000 10999 10996 ] final  -25.28 input  -57.11 | X-H torsion

> <Gold.Protein.ActiveResidues>
 VAL166  LYS551  ARG553  GLY616  TRP617  ASP618  TYR619  PRO620  LYS621  CYS622 
 ASP623  PHE694  ASN695  SER759  ASP760  ASP761  ALA762  ILE779  LEU786  VAL792 
 PHE793  MET794  SER795  GLU796  ALA797  LYS798  CYS799  TRP800  GLU811  SER814 

> <Gold.Protein.RotatedAtoms>
  152.3915  133.6686  159.6241 H   0  0  0  0  0  0  0  0  0  0  0  0  # atno 6907 bound_to 6896
  150.7823  133.8945  159.3332 H   0  0  0  0  0  0  0  0  0  0  0  0  # atno 6908 bound_to 6896
  151.6731  135.0974  160.0253 H   0  0  0  0  0  0  0  0  0  0  0  0  # atno 6909 bound_to 6896
  145.8187  140.8554  143.0144 H   0  0  0  0  0  0  0  0  0  0  0  0  # atno 7974 bound_to 7965
  154.8062  140.0452  157.1309 H   0  0  0  0  0  0  0  0  0  0  0  0  # atno 8008 bound_to 7997
  154.9421  140.3054  155.5096 H   0  0  0  0  0  0  0  0  0  0  0  0  # atno 8009 bound_to 7997
  156.2967  140.2303  156.4491 H   0  0  0  0  0  0  0  0  0  0  0  0  # atno 8010 bound_to 7997
  140.1967  143.3849  152.1162 H   0  0  0  0  0  0  0  0  0  0  0  0  # atno 10167 bound_to 10162
  157.1483  130.6663  149.6003 H   0  0  0  0  0  0  0  0  0  0  0  0  # atno 10718 bound_to 10713
  153.2119  135.4385  155.0390 H   0  0  0  0  0  0  0  0  0  0  0  0  # atno 10763 bound_to 10752
  154.8205  135.3335  154.7056 H   0  0  0  0  0  0  0  0  0  0  0  0  # atno 10764 bound_to 10752
  153.7493  135.6999  153.5005 H   0  0  0  0  0  0  0  0  0  0  0  0  # atno 10765 bound_to 10752
  140.8923  133.7580  156.0437 H   0  0  0  0  0  0  0  0  0  0  0  0  # atno 11005 bound_to 11000
  144.6750  140.0501  143.7479 LP  0  0  0  0  0  0  0  0  0  0  0  0  # atno 17320 bound_to 7965
  145.9699  139.2862  143.1105 LP  0  0  0  0  0  0  0  0  0  0  0  0  # atno 17321 bound_to 7965
  139.5233  144.7070  151.5323 LP  0  0  0  0  0  0  0  0  0  0  0  0  # atno 17342 bound_to 10162
  140.6418  143.8873  150.6699 LP  0  0  0  0  0  0  0  0  0  0  0  0  # atno 17343 bound_to 10162
  155.9775  130.4753  150.6598 LP  0  0  0  0  0  0  0  0  0  0  0  0  # atno 17370 bound_to 10713
  157.4244  131.0841  151.1100 LP  0  0  0  0  0  0  0  0  0  0  0  0  # atno 17371 bound_to 10713
  140.8331  134.3155  157.5341 LP  0  0  0  0  0  0  0  0  0  0  0  0  # atno 17394 bound_to 11000
  139.8731  134.9374  156.3687 LP  0  0  0  0  0  0  0  0  0  0  0  0  # atno 17395 bound_to 11000

$$$$
