AV-unprocessed.smi:470|AV-procd|sdf|2657|dock1
  -GOLD-   2262023 73D 1   1.00000     0.00000
 Structure written by MMmdl.
 32 33  0  0  0  0  0  0  0  0  2 V2000
  148.5624  140.4833  153.6559 N   0  0  0  0  0  0  0  0  0  0  0  0
  149.4399  140.3125  154.6490 C   0  0  0  0  0  0  0  0  0  0  0  0
  150.6102  139.9967  154.4434 O   0  0  0  0  0  0  0  0  0  0  0  0
  148.9371  140.5394  156.0771 C   0  0  0  0  0  0  0  0  0  0  0  0
  149.1259  139.3013  156.9050 C   0  0  0  0  0  0  0  0  0  0  0  0
  150.0311  138.2942  156.6911 C   0  0  0  0  0  0  0  0  0  0  0  0
  149.8948  137.0412  157.8907 S   0  0  0  0  0  0  0  0  0  0  0  0
  148.5737  137.9282  158.6532 C   0  0  0  0  0  0  0  0  0  0  0  0
  147.9064  137.5289  159.7497 N   0  5  0  0  0  0  0  0  0  0  0  0
  148.0455  136.3073  160.3398 C   0  0  0  0  0  0  0  0  0  0  0  0
  148.3345  135.2759  159.7362 O   0  0  0  0  0  0  0  0  0  0  0  0
  147.8146  136.2323  161.8794 C   0  0  1  0  0  0  0  0  0  0  0  0
  146.7078  137.2096  162.3489 C   0  0  0  0  0  0  0  0  0  0  0  0
  145.3050  136.6449  162.2125 C   0  0  0  0  0  0  0  0  0  0  0  0
  145.0403  135.3359  162.0708 C   0  0  0  0  0  0  0  0  0  0  0  0
  146.1106  134.2619  162.0208 C   0  0  0  0  0  0  0  0  0  0  0  0
  147.5136  134.7978  162.3842 C   0  0  0  0  0  0  0  0  0  0  0  0
  148.3286  139.0879  158.0330 N   0  0  0  0  0  0  0  0  0  0  0  0
  148.8461  140.3245  152.7003 H   0  0  0  0  0  0  0  0  0  0  0  0
  147.6118  140.7515  153.8681 H   0  0  0  0  0  0  0  0  0  0  0  0
  149.4733  141.3794  156.5203 H   0  0  0  0  0  0  0  0  0  0  0  0
  147.8861  140.8291  156.0428 H   0  0  0  0  0  0  0  0  0  0  0  0
  150.7636  138.2118  155.9022 H   0  0  0  0  0  0  0  0  0  0  0  0
  148.7338  136.5083  162.3939 H   0  0  0  0  0  0  0  0  0  0  0  0
  146.8649  137.4780  163.3938 H   0  0  0  0  0  0  0  0  0  0  0  0
  146.7513  138.1412  161.7850 H   0  0  0  0  0  0  0  0  0  0  0  0
  144.4911  137.3536  162.2570 H   0  0  0  0  0  0  0  0  0  0  0  0
  144.0168  135.0046  161.9757 H   0  0  0  0  0  0  0  0  0  0  0  0
  145.8381  133.4555  162.7018 H   0  0  0  0  0  0  0  0  0  0  0  0
  146.1094  133.8294  161.0205 H   0  0  0  0  0  0  0  0  0  0  0  0
  148.2758  134.1019  162.0307 H   0  0  0  0  0  0  0  0  0  0  0  0
  147.6048  134.8017  163.4710 H   0  0  0  0  0  0  0  0  0  0  0  0
  1  2  1  0  0  0  0
  1 19  1  0  0  0  0
  1 20  1  0  0  0  0
  2  3  2  0  0  0  0
  2  4  1  0  0  0  0
  4  5  1  0  0  0  0
  4 21  1  0  0  0  0
  4 22  1  0  0  0  0
  5 18  1  0  0  0  0
  5  6  2  0  0  0  0
  6  7  1  0  0  0  0
  6 23  1  0  0  0  0
  7  8  1  0  0  0  0
  8  9  1  0  0  0  0
  8 18  2  0  0  0  0
  9 10  1  0  0  0  0
 10 11  2  0  0  0  0
 10 12  1  0  0  0  0
 12 17  1  0  0  0  0
 12 13  1  0  0  0  0
 12 24  1  0  0  0  0
 13 14  1  0  0  0  0
 13 25  1  0  0  0  0
 13 26  1  0  0  0  0
 14 15  2  0  0  0  0
 14 27  1  0  0  0  0
 15 16  1  0  0  0  0
 15 28  1  0  0  0  0
 16 17  1  0  0  0  0
 16 29  1  0  0  0  0
 16 30  1  0  0  0  0
 17 31  1  0  0  0  0
 17 32  1  0  0  0  0
M  CHG  1   9  -1
M  END
> <s_m_source_file>
AV-unprocessed.smi

> <i_m_source_file_index>
470

> <i_lp_mmshare_version>
43012

> <i_f3d_flags>
0

> <s_epik_input>
W05IMl1DKD1PKVtDSDJdYzFbY0hdc2MobjEpW05IXUMoPU8pW0NAQEhdMltDSDJdW0NIXT1bQ0hdW0NIMl1bQ0gyXTI=

> <s_epik_cmdline>
J2VwaWtfcHl0aG9uJywgJy1waCcsICc3LjAnLCAnLXRuJywgJzgnLCAnLW1hJywgJzIwMCcsICctbWV0YWxfYmluZGluZycsICctaW1hZScsICc8aW5maWxlLm1hZT4nLCAnLW9tYWUnLCAnPG91dGZpbGUubWFlPic=

> <r_lp_tautomer_probability>
1

> <r_epik_Ionization_Penalty>
4.98985

> <r_epik_Ionization_Penalty_Charging>
4.63309

> <r_epik_Ionization_Penalty_Neutral>
0.356756

> <r_epik_State_Penalty>
4.63286

> <r_epik_Charging_Adjusted_Penalty>
9.26595

> <i_epik_Tot_Q>
-1

> <i_epik_Tot_abs_Q>
1

> <r_epik_Metal_State_Penalty>
0.88943

> <b_epik_Metal_Only>
1

> <s_lp_Force_Field>
OPLS_2005

> <r_lp_Energy>
8.68361

> <b_lp_Chiralities_Consistent>
1

> <s_lp_Variant>
AV-unprocessed.smi:470-4

> <Gold.Version>
5.8.1

> <Gold.Id.Protein>
6NUR|6NUR_protein|mol2

> <Gold.PLP.Fitness>
41.0770

> <Gold.PLP.PLP>
-32.1428

> <Gold.PLP.part.hbond>
-5.4446

> <Gold.PLP.part.metal>
0.0000

> <Gold.PLP.part.buried>
-3.0081

> <Gold.PLP.part.nonpolar>
-22.8622

> <Gold.PLP.part.repulsive>
0.2374

> <Gold.PLP.ligand.clash>
0.0000

> <Gold.PLP.ligand.torsion>
1.1652

> <Gold.PLP.Chemscore.Hbond>
3.7222

> <Gold.PLP.Chemscore.CHOScore>
0.0000

> <Gold.PLP.Chemscore.Metal>
0.0000

> <Gold.Chemscore.Hbonds>
donor molecule, donor type, donor heavy atom, donor atom, acceptor molecule, acceptor atom, score
      L1  H     1    19       P1  7957  1.00
      P1  H  6934  6947       L1     9  1.28
      P1  H  7989  7998       L1     3  1.00

> <Gold.PLP.Chemscore.Internal.Correction>
0.0978

> <Gold.Rescore>
     Score         DG    S(hbond)    S(metal)    S(lipo)     H(rot)  DE(clash)    DE(int)     intcor
     15.21     -18.67       3.28        0.00      59.86       1.87       0.10       3.36       ----

> <Gold.Chemscore.Fitness>
15.2119

> <Gold.Chemscore.DG>
-18.6672

> <Gold.Chemscore.ZeroCoef>
-5.4800

> <Gold.Chemscore.Hbond>
3.2839

> <Gold.Chemscore.Metal>
0.0000

> <Gold.Chemscore.Lipo>
59.8590

> <Gold.Chemscore.Internal_Hbond>
0.0000

> <Gold.Chemscore.DEClash>
0.0961

> <Gold.Chemscore.DEInternal>
3.3592

> <Gold.Chemscore.Rot>
1.8689

> <Gold.Chemscore.Internal.Correction>
   9.000000E+99

> <Gold.Chemscore.Hbonds>
donor molecule, donor type, donor heavy atom, donor atom, acceptor molecule, acceptor atom, score
      L1  H     1    19       P1  7957  1.00
      P1  H  6896  6909       L1    11  0.06
      P1  H  6934  6947       L1     9  0.50
      P1  H  7989  7998       L1     3  0.99

> <Gold.Chemscore.Hbond.Weighted>
-10.9681

> <Gold.Chemscore.Metal.Weighted>
-0.0000

> <Gold.Chemscore.Lipo.Weighted>
-7.0035

> <Gold.Chemscore.Internal_Hbond.Weighted>
0.0000

> <Gold.Chemscore.DEClash.Weighted>
0.0961

> <Gold.Chemscore.DEInternal.Weighted>
3.3592

> <Gold.Chemscore.Rot.Weighted>
4.7844

> <Gold.Chemscore.Internal.Correction.Weighted>
   9.000000E+99

> <Gold.Protein.RotatedTorsions>
[ 6907 6896 6895 6894 ] final   51.06 input  -60.11 | X-H torsion
[ 7974 7965 7964 7962 ] final   14.21 input  175.53 | X-H torsion
[ 8008 7997 7996 7995 ] final -155.17 input   59.86 | X-H torsion
[ 10167 10162 10161 10158 ] final  -16.96 input  -65.29 | X-H torsion
[ 10718 10713 10712 10709 ] final  -45.90 input   66.30 | X-H torsion
[ 10763 10752 10751 10750 ] final  102.89 input  -60.55 | X-H torsion
[ 11005 11000 10999 10996 ] final -146.57 input  -57.11 | X-H torsion

> <Gold.Protein.ActiveResidues>
 VAL166  LYS551  ARG553  GLY616  TRP617  ASP618  TYR619  PRO620  LYS621  CYS622 
 ASP623  PHE694  ASN695  SER759  ASP760  ASP761  ALA762  ILE779  LEU786  VAL792 
 PHE793  MET794  SER795  GLU796  ALA797  LYS798  CYS799  TRP800  GLU811  SER814 

> <Gold.Protein.RotatedAtoms>
  152.3086  134.7525  160.0341 H   0  0  0  0  0  0  0  0  0  0  0  0  # atno 6907 bound_to 6896
  151.8013  133.3365  159.3536 H   0  0  0  0  0  0  0  0  0  0  0  0  # atno 6908 bound_to 6896
  150.7309  134.5681  159.5920 H   0  0  0  0  0  0  0  0  0  0  0  0  # atno 6909 bound_to 6896
  146.2311  139.9075  142.8529 H   0  0  0  0  0  0  0  0  0  0  0  0  # atno 7974 bound_to 7965
  155.6977  140.0763  157.2423 H   0  0  0  0  0  0  0  0  0  0  0  0  # atno 8008 bound_to 7997
  154.4078  140.1653  156.2209 H   0  0  0  0  0  0  0  0  0  0  0  0  # atno 8009 bound_to 7997
  155.9395  140.3385  155.6319 H   0  0  0  0  0  0  0  0  0  0  0  0  # atno 8010 bound_to 7997
  140.7241  143.5063  150.9805 H   0  0  0  0  0  0  0  0  0  0  0  0  # atno 10167 bound_to 10162
  156.2237  130.4168  149.8960 H   0  0  0  0  0  0  0  0  0  0  0  0  # atno 10718 bound_to 10713
  153.3455  135.3995  155.1606 H   0  0  0  0  0  0  0  0  0  0  0  0  # atno 10763 bound_to 10752
  154.8652  135.3644  154.5289 H   0  0  0  0  0  0  0  0  0  0  0  0  # atno 10764 bound_to 10752
  153.5737  135.7078  153.5553 H   0  0  0  0  0  0  0  0  0  0  0  0  # atno 10765 bound_to 10752
  140.7806  134.3083  157.5046 H   0  0  0  0  0  0  0  0  0  0  0  0  # atno 11005 bound_to 11000
  145.2262  140.9955  143.4017 LP  0  0  0  0  0  0  0  0  0  0  0  0  # atno 17320 bound_to 7965
  144.9568  139.4022  143.6375 LP  0  0  0  0  0  0  0  0  0  0  0  0  # atno 17321 bound_to 7965
  139.8775  143.7114  152.3160 LP  0  0  0  0  0  0  0  0  0  0  0  0  # atno 17342 bound_to 10162
  139.7384  144.7565  151.0690 LP  0  0  0  0  0  0  0  0  0  0  0  0  # atno 17343 bound_to 10162
  156.6598  130.8777  151.3545 LP  0  0  0  0  0  0  0  0  0  0  0  0  # atno 17370 bound_to 10713
  157.7100  130.9429  150.1057 LP  0  0  0  0  0  0  0  0  0  0  0  0  # atno 17371 bound_to 10713
  139.8743  134.9316  156.3533 LP  0  0  0  0  0  0  0  0  0  0  0  0  # atno 17394 bound_to 11000
  140.9486  133.7466  156.0241 LP  0  0  0  0  0  0  0  0  0  0  0  0  # atno 17395 bound_to 11000

$$$$
