AV-unprocessed.smi:285|AV-procd|sdf|2167|dock10
  -GOLD-   2262021523D 1   1.00000     0.00000
 Structure written by MMmdl.
 31 33  0  0  0  0  0  0  0  0  1 V2000
  152.8452  140.5984  159.1267 N   0  0  0  0  0  0  0  0  0  0  0  0
  152.0719  141.0573  158.1331 C   0  0  0  0  0  0  0  0  0  0  0  0
  151.7822  142.3791  158.1017 N   0  0  0  0  0  0  0  0  0  0  0  0
  151.0156  142.8626  157.1188 C   0  0  0  0  0  0  0  0  0  0  0  0
  150.4552  142.2087  156.0979 N   0  0  0  0  0  0  0  0  0  0  0  0
  150.7452  140.8745  156.1315 C   0  0  0  0  0  0  0  0  0  0  0  0
  151.5459  140.2229  157.1147 C   0  0  0  0  0  0  0  0  0  0  0  0
  151.6344  138.8641  156.8392 N   0  0  0  0  0  0  0  0  0  0  0  0
  150.9229  138.7446  155.7533 C   0  0  0  0  0  0  0  0  0  0  0  0
  150.7218  137.0458  154.9156 Br  0  0  0  0  0  0  0  0  0  0  0  0
  150.3477  139.8890  155.2488 N   0  0  0  0  0  0  0  0  0  0  0  0
  149.4941  140.0566  154.0329 C   0  0  2  0  0  0  0  0  0  0  0  0
  148.6445  141.3199  154.1356 C   0  0  0  0  0  0  0  0  0  0  0  0
  147.4242  140.9021  153.3457 C   0  0  2  0  0  0  0  0  0  0  0  0
  146.3047  141.6849  153.7059 O   0  0  0  0  0  0  0  0  0  0  0  0
  147.2790  139.4338  153.7658 C   0  0  1  0  0  0  0  0  0  0  0  0
  146.5614  138.5397  152.7433 C   0  0  0  0  0  0  0  0  0  0  0  0
  147.4273  138.2126  151.6771 O   0  0  0  0  0  0  0  0  0  0  0  0
  148.6188  138.9727  153.9413 O   0  0  0  0  0  0  0  0  0  0  0  0
  153.0762  139.6163  159.1708 H   0  0  0  0  0  0  0  0  0  0  0  0
  153.1989  141.2353  159.8257 H   0  0  0  0  0  0  0  0  0  0  0  0
  150.8244  143.9250  157.1543 H   0  0  0  0  0  0  0  0  0  0  0  0
  150.1715  140.0560  153.1795 H   0  0  0  0  0  0  0  0  0  0  0  0
  148.3877  141.5126  155.1790 H   0  0  0  0  0  0  0  0  0  0  0  0
  149.1667  142.1854  153.7270 H   0  0  0  0  0  0  0  0  0  0  0  0
  147.6196  140.9854  152.2756 H   0  0  0  0  0  0  0  0  0  0  0  0
  145.5664  141.4075  153.1844 H   0  0  0  0  0  0  0  0  0  0  0  0
  146.7887  139.3676  154.7390 H   0  0  0  0  0  0  0  0  0  0  0  0
  146.1929  137.6265  153.2114 H   0  0  0  0  0  0  0  0  0  0  0  0
  145.6975  139.0626  152.3320 H   0  0  0  0  0  0  0  0  0  0  0  0
  147.6812  137.3064  151.7635 H   0  0  0  0  0  0  0  0  0  0  0  0
  1  2  1  0  0  0  0
  1 20  1  0  0  0  0
  1 21  1  0  0  0  0
  2  7  1  0  0  0  0
  2  3  2  0  0  0  0
  3  4  1  0  0  0  0
  4  5  2  0  0  0  0
  4 22  1  0  0  0  0
  5  6  1  0  0  0  0
  6 11  1  0  0  0  0
  6  7  2  0  0  0  0
  7  8  1  0  0  0  0
  8  9  2  0  0  0  0
  9 10  1  0  0  0  0
  9 11  1  0  0  0  0
 11 12  1  0  0  0  0
 12 19  1  0  0  0  0
 12 13  1  0  0  0  0
 12 23  1  0  0  0  0
 13 14  1  0  0  0  0
 13 24  1  0  0  0  0
 13 25  1  0  0  0  0
 14 15  1  0  0  0  0
 14 16  1  0  0  0  0
 14 26  1  0  0  0  0
 15 27  1  0  0  0  0
 16 17  1  0  0  0  0
 16 19  1  0  0  0  0
 16 28  1  0  0  0  0
 17 18  1  0  0  0  0
 17 29  1  0  0  0  0
 17 30  1  0  0  0  0
 18 31  1  0  0  0  0
M  END
> <s_m_source_file>
AV-unprocessed.smi

> <i_m_source_file_index>
285

> <i_lp_mmshare_version>
43012

> <i_f3d_flags>
0

> <s_epik_input>
bjFbY0hdbmMoW05IMl0pYyhjMTIpbmMoQnIpbjJbQ0BASF0zW0NIMl1bQ0BASF0oW09IXSlbQ0BIXShPMylbQ0gyXVtPSF0=

> <s_epik_cmdline>
J2VwaWtfcHl0aG9uJywgJy1waCcsICc3LjAnLCAnLXRuJywgJzgnLCAnLW1hJywgJzIwMCcsICctbWV0YWxfYmluZGluZycsICctaW1hZScsICc8aW5maWxlLm1hZT4nLCAnLW9tYWUnLCAnPG91dGZpbGUubWFlPic=

> <r_lp_tautomer_probability>
1

> <r_epik_Ionization_Penalty>
0.000103242

> <r_epik_Ionization_Penalty_Charging>
0

> <r_epik_Ionization_Penalty_Neutral>
0.000103242

> <r_epik_State_Penalty>
-0

> <r_epik_Charging_Adjusted_Penalty>
0

> <i_epik_Tot_Q>
0

> <i_epik_Tot_abs_Q>
0

> <r_epik_Metal_State_Penalty>
-0

> <b_epik_Metal_Only>
0

> <s_epik_Chemistry_Notes>
This compound contains an acetal/aminal-like group ( X-CH(R)-Y where X, Y are N, S, or O) that may be acid/base labile, releasing an aldehyde.

> <s_lp_Force_Field>
OPLS_2005

> <r_lp_Energy>
29.9109

> <b_lp_Chiralities_Consistent>
1

> <s_lp_Variant>
AV-unprocessed.smi:285-3

> <Gold.Version>
5.8.1

> <Gold.Id.Protein>
6NUR|6NUR_protein|mol2

> <Gold.PLP.Fitness>
36.6700

> <Gold.PLP.PLP>
-30.6165

> <Gold.PLP.part.hbond>
-4.0000

> <Gold.PLP.part.metal>
0.0000

> <Gold.PLP.part.buried>
-1.8913

> <Gold.PLP.part.nonpolar>
-27.5250

> <Gold.PLP.part.repulsive>
2.8630

> <Gold.PLP.ligand.clash>
0.0000

> <Gold.PLP.ligand.torsion>
0.7593

> <Gold.PLP.Chemscore.Hbond>
1.9913

> <Gold.PLP.Chemscore.CHOScore>
0.5306

> <Gold.PLP.Chemscore.Metal>
0.0000

> <Gold.Chemscore.Hbonds>
donor molecule, donor type, donor heavy atom, donor atom, acceptor molecule, acceptor atom, score
      L1  H    15    27       P1 10175  0.44
      L1  H    18    31       P1  7948  0.90
      L1  C     4    22       P1  8028  0.68

> <Gold.PLP.Chemscore.Internal.Correction>
0.0066

> <Gold.Rescore>
     Score         DG    S(hbond)    S(metal)    S(lipo)     H(rot)  DE(clash)    DE(int)     intcor
      6.54      -8.63       1.99        0.00      36.96       3.06       0.06       2.03       ----

> <Gold.Chemscore.Fitness>
6.5433

> <Gold.Chemscore.DG>
-8.6273

> <Gold.Chemscore.ZeroCoef>
-5.4800

> <Gold.Chemscore.Hbond>
1.9936

> <Gold.Chemscore.Metal>
0.0000

> <Gold.Chemscore.Lipo>
36.9591

> <Gold.Chemscore.Internal_Hbond>
0.0000

> <Gold.Chemscore.DEClash>
0.0571

> <Gold.Chemscore.DEInternal>
2.0270

> <Gold.Chemscore.Rot>
3.0607

> <Gold.Chemscore.Internal.Correction>
   9.000000E+99

> <Gold.Chemscore.Hbonds>
donor molecule, donor type, donor heavy atom, donor atom, acceptor molecule, acceptor atom, score
      L1  H    15    27       P1 10175  0.05
      L1  H    18    31       P1  7948  0.88

> <Gold.Chemscore.Hbond.Weighted>
-6.6585

> <Gold.Chemscore.Metal.Weighted>
-0.0000

> <Gold.Chemscore.Lipo.Weighted>
-4.3242

> <Gold.Chemscore.Internal_Hbond.Weighted>
0.0000

> <Gold.Chemscore.DEClash.Weighted>
0.0571

> <Gold.Chemscore.DEInternal.Weighted>
2.0270

> <Gold.Chemscore.Rot.Weighted>
7.8354

> <Gold.Chemscore.Internal.Correction.Weighted>
   9.000000E+99

> <Gold.Protein.RotatedTorsions>
[ 6907 6896 6895 6894 ] final    0.92 input  -60.11 | X-H torsion
[ 7974 7965 7964 7962 ] final  106.31 input  175.53 | X-H torsion
[ 8008 7997 7996 7995 ] final   40.72 input   59.86 | X-H torsion
[ 10167 10162 10161 10158 ] final  130.79 input  -65.29 | X-H torsion
[ 10718 10713 10712 10709 ] final  -62.92 input   66.30 | X-H torsion
[ 10763 10752 10751 10750 ] final  160.69 input  -60.55 | X-H torsion
[ 11005 11000 10999 10996 ] final -125.07 input  -57.11 | X-H torsion

> <Gold.Protein.ActiveResidues>
 VAL166  LYS551  ARG553  GLY616  TRP617  ASP618  TYR619  PRO620  LYS621  CYS622 
 ASP623  PHE694  ASN695  SER759  ASP760  ASP761  ALA762  ILE779  LEU786  VAL792 
 PHE793  MET794  SER795  GLU796  ALA797  LYS798  CYS799  TRP800  GLU811  SER814 

> <Gold.Protein.RotatedAtoms>
  151.5843  135.1057  160.0024 H   0  0  0  0  0  0  0  0  0  0  0  0  # atno 6907 bound_to 6896
  152.4338  133.7321  159.6604 H   0  0  0  0  0  0  0  0  0  0  0  0  # atno 6908 bound_to 6896
  150.8234  133.8144  159.3152 H   0  0  0  0  0  0  0  0  0  0  0  0  # atno 6909 bound_to 6896
  145.3082  139.2548  143.3777 H   0  0  0  0  0  0  0  0  0  0  0  0  # atno 7974 bound_to 7965
  155.2578  140.3357  155.4276 H   0  0  0  0  0  0  0  0  0  0  0  0  # atno 8008 bound_to 7997
  156.2188  140.1800  156.7569 H   0  0  0  0  0  0  0  0  0  0  0  0  # atno 8009 bound_to 7997
  154.5793  140.0656  156.9066 H   0  0  0  0  0  0  0  0  0  0  0  0  # atno 8010 bound_to 7997
  139.5414  144.6733  151.4614 H   0  0  0  0  0  0  0  0  0  0  0  0  # atno 10167 bound_to 10162
  156.0824  130.4214  150.1204 H   0  0  0  0  0  0  0  0  0  0  0  0  # atno 10718 bound_to 10713
  154.2513  135.2771  155.2815 H   0  0  0  0  0  0  0  0  0  0  0  0  # atno 10763 bound_to 10752
  154.5462  135.5688  153.6886 H   0  0  0  0  0  0  0  0  0  0  0  0  # atno 10764 bound_to 10752
  152.9980  135.6263  154.2660 H   0  0  0  0  0  0  0  0  0  0  0  0  # atno 10765 bound_to 10752
  140.9791  134.0698  157.3785 H   0  0  0  0  0  0  0  0  0  0  0  0  # atno 11005 bound_to 11000
  146.3127  140.3613  142.8665 LP  0  0  0  0  0  0  0  0  0  0  0  0  # atno 17320 bound_to 7965
  144.9037  140.7674  143.5851 LP  0  0  0  0  0  0  0  0  0  0  0  0  # atno 17321 bound_to 7965
  140.6645  143.8428  150.6925 LP  0  0  0  0  0  0  0  0  0  0  0  0  # atno 17342 bound_to 10162
  140.1833  143.4097  152.1917 LP  0  0  0  0  0  0  0  0  0  0  0  0  # atno 17343 bound_to 10162
  156.9233  130.9690  151.3545 LP  0  0  0  0  0  0  0  0  0  0  0  0  # atno 17370 bound_to 10713
  157.5945  130.8468  149.8709 LP  0  0  0  0  0  0  0  0  0  0  0  0  # atno 17371 bound_to 10713
  139.8943  135.0135  156.6942 LP  0  0  0  0  0  0  0  0  0  0  0  0  # atno 17394 bound_to 11000
  140.7214  133.9137  155.8149 LP  0  0  0  0  0  0  0  0  0  0  0  0  # atno 17395 bound_to 11000

$$$$
