AV-unprocessed.smi:2702|AV-procd|sdf|10436|dock5
  -GOLD-   2272014473D 1   1.00000     0.00000
 Structure written by MMmdl.
 47 48  0  0  0  0  0  0  0  0  1 V2000
  151.5318  138.5660  154.9033 C   0  0  0  0  0  0  0  0  0  0  0  0
  152.1087  137.3008  155.1736 O   0  0  0  0  0  0  0  0  0  0  0  0
  151.6075  136.7180  156.3644 C   0  0  0  0  0  0  0  0  0  0  0  0
  152.4554  137.1289  157.5510 C   0  0  0  0  0  0  0  0  0  0  0  0
  153.8071  137.1508  157.4901 C   0  0  0  0  0  0  0  0  0  0  0  0
  154.6003  137.5406  158.6555 C   0  0  0  0  0  0  0  0  0  0  0  0
  155.8310  137.5813  158.6368 O   0  0  0  0  0  0  0  0  0  0  0  0
  153.8722  137.8585  159.7668 N   0  0  0  0  0  0  0  0  0  0  0  0
  154.5321  138.2754  161.0172 C   0  0  0  0  0  0  0  0  0  0  0  0
  154.3997  139.7803  161.2876 C   0  0  0  0  0  0  0  0  0  0  0  0
  154.9012  140.2814  162.2944 O   0  0  0  0  0  0  0  0  0  0  0  0
  153.7072  140.4847  160.3798 N   0  0  0  0  0  0  0  0  0  0  0  0
  153.4875  141.9284  160.4176 C   0  0  2  0  0  0  0  0  0  0  0  0
  152.7180  142.3052  161.6985 C   0  0  0  0  0  0  0  0  0  0  0  0
  152.4989  143.8227  161.7901 C   0  0  0  0  0  0  0  0  0  0  0  0
  151.8022  144.3694  160.5343 C   0  0  0  0  0  0  0  0  0  0  0  0
  152.5672  143.9852  159.2516 C   0  0  2  0  0  0  0  0  0  0  0  0
  151.9338  144.6129  157.9990 C   0  0  0  0  0  0  0  0  0  0  0  0
  152.7668  142.4502  159.1428 C   0  0  2  0  0  0  0  0  0  0  0  0
  151.4670  141.6770  158.8175 C   0  0  0  0  0  0  0  0  0  0  0  0
  152.4643  137.7997  159.7816 C   0  0  0  0  0  0  0  0  0  0  0  0
  151.7848  137.4548  158.7343 N   0  0  0  0  0  0  0  0  0  0  0  0
  151.9437  138.9659  153.9768 H   0  0  0  0  0  0  0  0  0  0  0  0
  151.7481  139.2766  155.7021 H   0  0  0  0  0  0  0  0  0  0  0  0
  150.4500  138.4897  154.7855 H   0  0  0  0  0  0  0  0  0  0  0  0
  150.5768  137.0348  156.5327 H   0  0  0  0  0  0  0  0  0  0  0  0
  151.6005  135.6303  156.2774 H   0  0  0  0  0  0  0  0  0  0  0  0
  154.3120  136.8847  156.5728 H   0  0  0  0  0  0  0  0  0  0  0  0
  154.1109  137.7139  161.8536 H   0  0  0  0  0  0  0  0  0  0  0  0
  155.5947  138.0259  161.0173 H   0  0  0  0  0  0  0  0  0  0  0  0
  153.3254  139.9885  159.5876 H   0  0  0  0  0  0  0  0  0  0  0  0
  154.4660  142.4095  160.4770 H   0  0  0  0  0  0  0  0  0  0  0  0
  151.7550  141.7943  161.7256 H   0  0  0  0  0  0  0  0  0  0  0  0
  153.2677  141.9657  162.5771 H   0  0  0  0  0  0  0  0  0  0  0  0
  151.9098  144.0610  162.6761 H   0  0  0  0  0  0  0  0  0  0  0  0
  153.4612  144.3204  161.9173 H   0  0  0  0  0  0  0  0  0  0  0  0
  150.7790  143.9954  160.4885 H   0  0  0  0  0  0  0  0  0  0  0  0
  151.7254  145.4546  160.6094 H   0  0  0  0  0  0  0  0  0  0  0  0
  153.5634  144.4232  159.3344 H   0  0  0  0  0  0  0  0  0  0  0  0
  150.8878  144.3278  157.8875 H   0  0  0  0  0  0  0  0  0  0  0  0
  152.4640  144.3102  157.0958 H   0  0  0  0  0  0  0  0  0  0  0  0
  151.9691  145.7014  158.0506 H   0  0  0  0  0  0  0  0  0  0  0  0
  153.4382  142.2800  158.3000 H   0  0  0  0  0  0  0  0  0  0  0  0
  150.7126  141.7966  159.5941 H   0  0  0  0  0  0  0  0  0  0  0  0
  151.6535  140.6092  158.7038 H   0  0  0  0  0  0  0  0  0  0  0  0
  151.0282  142.0102  157.8779 H   0  0  0  0  0  0  0  0  0  0  0  0
  151.9932  138.0594  160.7311 H   0  0  0  0  0  0  0  0  0  0  0  0
  1  2  1  0  0  0  0
  1 23  1  0  0  0  0
  1 24  1  0  0  0  0
  1 25  1  0  0  0  0
  2  3  1  0  0  0  0
  3  4  1  0  0  0  0
  3 26  1  0  0  0  0
  3 27  1  0  0  0  0
  4 22  1  0  0  0  0
  4  5  2  0  0  0  0
  5  6  1  0  0  0  0
  5 28  1  0  0  0  0
  6  7  2  0  0  0  0
  6  8  1  0  0  0  0
  8  9  1  0  0  0  0
  8 21  1  0  0  0  0
  9 10  1  0  0  0  0
  9 29  1  0  0  0  0
  9 30  1  0  0  0  0
 10 11  2  0  0  0  0
 10 12  1  0  0  0  0
 12 13  1  0  0  0  0
 12 31  1  0  0  0  0
 13 19  1  0  0  0  0
 13 14  1  0  0  0  0
 13 32  1  0  0  0  0
 14 15  1  0  0  0  0
 14 33  1  0  0  0  0
 14 34  1  0  0  0  0
 15 16  1  0  0  0  0
 15 35  1  0  0  0  0
 15 36  1  0  0  0  0
 16 17  1  0  0  0  0
 16 37  1  0  0  0  0
 16 38  1  0  0  0  0
 17 18  1  0  0  0  0
 17 19  1  0  0  0  0
 17 39  1  0  0  0  0
 18 40  1  0  0  0  0
 18 41  1  0  0  0  0
 18 42  1  0  0  0  0
 19 20  1  0  0  0  0
 19 43  1  0  0  0  0
 20 44  1  0  0  0  0
 20 45  1  0  0  0  0
 20 46  1  0  0  0  0
 21 22  2  0  0  0  0
 21 47  1  0  0  0  0
M  END
> <s_m_source_file>
AV-unprocessed.smi

> <i_m_source_file_index>
2702

> <i_lp_mmshare_version>
43012

> <i_f3d_flags>
0

> <s_epik_input>
W0NIM11PW0NIMl1jMVtjSF1jKD1PKW4oW2NIXW4xKVtDSDJdQyg9TylbTkhdW0NAQEhdMltDSDJdW0NIMl1bQ0gyXVtDQEBIXShbQ0gzXSlbQ0BIXTJbQ0gzXQ==

> <s_epik_cmdline>
J2VwaWtfcHl0aG9uJywgJy1waCcsICc3LjAnLCAnLXRuJywgJzgnLCAnLW1hJywgJzIwMCcsICctbWV0YWxfYmluZGluZycsICctaW1hZScsICc8aW5maWxlLm1hZT4nLCAnLW9tYWUnLCAnPG91dGZpbGUubWFlPic=

> <r_lp_tautomer_probability>
1

> <r_epik_Ionization_Penalty>
1.22164e-06

> <r_epik_Ionization_Penalty_Charging>
3.17988e-07

> <r_epik_Ionization_Penalty_Neutral>
9.03656e-07

> <r_epik_State_Penalty>
-0

> <r_epik_Charging_Adjusted_Penalty>
3.17988e-07

> <i_epik_Tot_Q>
0

> <i_epik_Tot_abs_Q>
0

> <r_epik_Metal_State_Penalty>
-0

> <b_epik_Metal_Only>
0

> <s_lp_Force_Field>
OPLS_2005

> <r_lp_Energy>
18.8167

> <b_lp_Chiralities_Consistent>
1

> <s_lp_Variant>
AV-unprocessed.smi:2702-7

> <Gold.Version>
5.8.1

> <Gold.Id.Protein>
6NUR|6NUR_protein|mol2

> <Gold.PLP.Fitness>
45.8864

> <Gold.PLP.PLP>
-44.9161

> <Gold.PLP.part.hbond>
-1.0000

> <Gold.PLP.part.metal>
0.0000

> <Gold.PLP.part.buried>
-7.5139

> <Gold.PLP.part.nonpolar>
-36.3452

> <Gold.PLP.part.repulsive>
0.1433

> <Gold.PLP.ligand.clash>
0.0000

> <Gold.PLP.ligand.torsion>
0.6195

> <Gold.PLP.Chemscore.Hbond>
0.7200

> <Gold.PLP.Chemscore.CHOScore>
0.0000

> <Gold.PLP.Chemscore.Metal>
0.0000

> <Gold.Chemscore.Hbonds>
donor molecule, donor type, donor heavy atom, donor atom, acceptor molecule, acceptor atom, score
      P1  H 10752 10765       L1     2  0.72

> <Gold.PLP.Chemscore.Internal.Correction>
0.0494

> <Gold.Rescore>
     Score         DG    S(hbond)    S(metal)    S(lipo)     H(rot)  DE(clash)    DE(int)     intcor
     15.30     -17.05       0.82        0.00     117.74       1.93       0.02       1.72       ----

> <Gold.Chemscore.Fitness>
15.3048

> <Gold.Chemscore.DG>
-17.0468

> <Gold.Chemscore.ZeroCoef>
-5.4800

> <Gold.Chemscore.Hbond>
0.8167

> <Gold.Chemscore.Metal>
0.0000

> <Gold.Chemscore.Lipo>
117.7432

> <Gold.Chemscore.Internal_Hbond>
0.0000

> <Gold.Chemscore.DEClash>
0.0224

> <Gold.Chemscore.DEInternal>
1.7196

> <Gold.Chemscore.Rot>
1.9284

> <Gold.Chemscore.Internal.Correction>
   9.000000E+99

> <Gold.Chemscore.Hbonds>
donor molecule, donor type, donor heavy atom, donor atom, acceptor molecule, acceptor atom, score
      P1  H 10752 10765       L1     2  0.17

> <Gold.Chemscore.Hbond.Weighted>
-2.7276

> <Gold.Chemscore.Metal.Weighted>
-0.0000

> <Gold.Chemscore.Lipo.Weighted>
-13.7760

> <Gold.Chemscore.Internal_Hbond.Weighted>
0.0000

> <Gold.Chemscore.DEClash.Weighted>
0.0224

> <Gold.Chemscore.DEInternal.Weighted>
1.7196

> <Gold.Chemscore.Rot.Weighted>
4.9368

> <Gold.Chemscore.Internal.Correction.Weighted>
   9.000000E+99

> <Gold.Protein.RotatedTorsions>
[ 6907 6896 6895 6894 ] final  111.01 input  -60.11 | X-H torsion
[ 7974 7965 7964 7962 ] final  176.81 input  175.53 | X-H torsion
[ 8008 7997 7996 7995 ] final   37.12 input   59.86 | X-H torsion
[ 10167 10162 10161 10158 ] final -168.37 input  -65.29 | X-H torsion
[ 10718 10713 10712 10709 ] final  159.79 input   66.30 | X-H torsion
[ 10763 10752 10751 10750 ] final  161.95 input  -60.55 | X-H torsion
[ 11005 11000 10999 10996 ] final -108.28 input  -57.11 | X-H torsion

> <Gold.Protein.ActiveResidues>
 VAL166  LYS551  ARG553  GLY616  TRP617  ASP618  TYR619  PRO620  LYS621  CYS622 
 ASP623  PHE694  ASN695  SER759  ASP760  ASP761  ALA762  ILE779  LEU786  VAL792 
 PHE793  MET794  SER795  GLU796  ALA797  LYS798  CYS799  TRP800  GLU811  SER814 

> <Gold.Protein.RotatedAtoms>
  152.4991  133.8718  159.7301 H   0  0  0  0  0  0  0  0  0  0  0  0  # atno 6907 bound_to 6896
  150.9203  133.6880  159.2840 H   0  0  0  0  0  0  0  0  0  0  0  0  # atno 6908 bound_to 6896
  151.4259  135.1008  159.9680 H   0  0  0  0  0  0  0  0  0  0  0  0  # atno 6909 bound_to 6896
  144.7178  140.0152  143.6440 H   0  0  0  0  0  0  0  0  0  0  0  0  # atno 7974 bound_to 7965
  155.1985  140.3314  155.4347 H   0  0  0  0  0  0  0  0  0  0  0  0  # atno 8008 bound_to 7997
  156.2415  140.1898  156.7024 H   0  0  0  0  0  0  0  0  0  0  0  0  # atno 8009 bound_to 7997
  154.6157  140.0602  156.9537 H   0  0  0  0  0  0  0  0  0  0  0  0  # atno 8010 bound_to 7997
  139.5989  144.1052  152.1721 H   0  0  0  0  0  0  0  0  0  0  0  0  # atno 10167 bound_to 10162
  157.1593  131.0583  151.2240 H   0  0  0  0  0  0  0  0  0  0  0  0  # atno 10718 bound_to 10713
  154.2709  135.2766  155.2739 H   0  0  0  0  0  0  0  0  0  0  0  0  # atno 10763 bound_to 10752
  154.5303  135.5731  153.6756 H   0  0  0  0  0  0  0  0  0  0  0  0  # atno 10764 bound_to 10752
  152.9945  135.6226  154.2863 H   0  0  0  0  0  0  0  0  0  0  0  0  # atno 10765 bound_to 10752
  141.0910  133.9055  157.2076 H   0  0  0  0  0  0  0  0  0  0  0  0  # atno 11005 bound_to 11000
  146.0225  139.3264  143.0804 LP  0  0  0  0  0  0  0  0  0  0  0  0  # atno 17320 bound_to 7965
  145.8550  140.9507  143.0729 LP  0  0  0  0  0  0  0  0  0  0  0  0  # atno 17321 bound_to 7965
  140.0644  144.5830  150.7239 LP  0  0  0  0  0  0  0  0  0  0  0  0  # atno 17342 bound_to 10162
  140.7234  143.2611  151.4202 LP  0  0  0  0  0  0  0  0  0  0  0  0  # atno 17343 bound_to 10162
  157.4147  130.7404  149.6866 LP  0  0  0  0  0  0  0  0  0  0  0  0  # atno 17370 bound_to 10713
  155.9756  130.4086  150.3834 LP  0  0  0  0  0  0  0  0  0  0  0  0  # atno 17371 bound_to 10713
  139.9736  135.0121  156.9574 LP  0  0  0  0  0  0  0  0  0  0  0  0  # atno 17394 bound_to 11000
  140.5252  134.0868  155.7302 LP  0  0  0  0  0  0  0  0  0  0  0  0  # atno 17395 bound_to 11000

$$$$
