AV-unprocessed.smi:2996|AV-procd|sdf|11410|dock9
  -GOLD-   2272016333D 1   1.00000     0.00000
 Structure written by MMmdl.
 46 47  0  0  0  0  0  0  0  0  1 V2000
  151.8370  137.6686  154.3994 C   0  0  0  0  0  0  0  0  0  0  0  0
  150.5945  137.0258  155.0255 C   0  0  0  0  0  0  0  0  0  0  0  0
  150.8013  135.5649  155.3171 C   0  0  0  0  0  0  0  0  0  0  0  0
  151.7340  135.1835  156.1751 N   0  0  0  0  0  0  0  0  0  0  0  0
  151.6882  133.7816  156.2087 O   0  0  0  0  0  0  0  0  0  0  0  0
  150.7223  133.3429  155.3568 C   0  0  0  0  0  0  0  0  0  0  0  0
  150.5848  131.8617  155.2265 C   0  0  0  0  0  0  0  0  0  0  0  0
  150.1213  134.4355  154.7905 C   0  0  0  0  0  0  0  0  0  0  0  0
  149.0910  134.5016  153.8181 N   0  0  0  0  0  0  0  0  0  0  0  0
  148.0494  133.6680  153.6766 C   0  0  0  0  0  0  0  0  0  0  0  0
  147.8131  132.7030  154.4020 O   0  0  0  0  0  0  0  0  0  0  0  0
  147.2697  134.0361  152.6514 N   0  0  0  0  0  0  0  0  0  0  0  0
  146.0333  133.3675  152.2514 C   0  0  2  0  0  0  0  0  0  0  0  0
  146.2136  132.5874  150.9643 C   0  0  0  0  0  0  0  0  0  0  0  0
  144.7867  132.4935  150.4100 C   0  0  0  0  0  0  0  0  0  0  0  0
  144.7495  132.5878  148.8769 C   0  0  0  0  0  0  0  0  0  0  0  0
  144.0618  131.2290  150.9015 C   0  0  0  0  0  0  0  0  0  0  0  0
  144.0924  133.6173  150.9501 O   0  0  0  0  0  0  0  0  0  0  0  0
  144.8851  134.3360  151.8941 C   0  0  0  0  0  0  0  0  0  0  0  0
  143.9951  134.6611  153.1042 C   0  0  0  0  0  0  0  0  0  0  0  0
  145.3415  135.6311  151.1896 C   0  0  0  0  0  0  0  0  0  0  0  0
  151.6668  138.7260  154.1964 H   0  0  0  0  0  0  0  0  0  0  0  0
  152.0960  137.1853  153.4568 H   0  0  0  0  0  0  0  0  0  0  0  0
  152.6983  137.5917  155.0636 H   0  0  0  0  0  0  0  0  0  0  0  0
  150.3366  137.5558  155.9428 H   0  0  0  0  0  0  0  0  0  0  0  0
  149.7440  137.1560  154.3559 H   0  0  0  0  0  0  0  0  0  0  0  0
  150.3445  131.5812  154.2010 H   0  0  0  0  0  0  0  0  0  0  0  0
  149.7957  131.4875  155.8787 H   0  0  0  0  0  0  0  0  0  0  0  0
  151.5125  131.3582  155.4994 H   0  0  0  0  0  0  0  0  0  0  0  0
  149.0993  135.3173  153.2239 H   0  0  0  0  0  0  0  0  0  0  0  0
  147.5402  134.8473  152.1151 H   0  0  0  0  0  0  0  0  0  0  0  0
  145.7100  132.6700  153.0268 H   0  0  0  0  0  0  0  0  0  0  0  0
  146.8513  133.1453  150.2764 H   0  0  0  0  0  0  0  0  0  0  0  0
  146.6787  131.6134  151.1208 H   0  0  0  0  0  0  0  0  0  0  0  0
  145.2872  131.7578  148.4181 H   0  0  0  0  0  0  0  0  0  0  0  0
  145.2047  133.5143  148.5257 H   0  0  0  0  0  0  0  0  0  0  0  0
  143.7244  132.5665  148.5062 H   0  0  0  0  0  0  0  0  0  0  0  0
  144.5506  130.3265  150.5336 H   0  0  0  0  0  0  0  0  0  0  0  0
  143.0277  131.2099  150.5562 H   0  0  0  0  0  0  0  0  0  0  0  0
  144.0432  131.1759  151.9904 H   0  0  0  0  0  0  0  0  0  0  0  0
  144.5442  135.2210  153.8613 H   0  0  0  0  0  0  0  0  0  0  0  0
  143.6161  133.7521  153.5717 H   0  0  0  0  0  0  0  0  0  0  0  0
  143.1339  135.2612  152.8093 H   0  0  0  0  0  0  0  0  0  0  0  0
  145.9213  136.2690  151.8572 H   0  0  0  0  0  0  0  0  0  0  0  0
  144.4832  136.2122  150.8510 H   0  0  0  0  0  0  0  0  0  0  0  0
  145.9554  135.4195  150.3141 H   0  0  0  0  0  0  0  0  0  0  0  0
  1  2  1  0  0  0  0
  1 22  1  0  0  0  0
  1 23  1  0  0  0  0
  1 24  1  0  0  0  0
  2  3  1  0  0  0  0
  2 25  1  0  0  0  0
  2 26  1  0  0  0  0
  3  8  1  0  0  0  0
  3  4  2  0  0  0  0
  4  5  1  0  0  0  0
  5  6  1  0  0  0  0
  6  7  1  0  0  0  0
  6  8  2  0  0  0  0
  7 27  1  0  0  0  0
  7 28  1  0  0  0  0
  7 29  1  0  0  0  0
  8  9  1  0  0  0  0
  9 10  1  0  0  0  0
  9 30  1  0  0  0  0
 10 11  2  0  0  0  0
 10 12  1  0  0  0  0
 12 13  1  0  0  0  0
 12 31  1  0  0  0  0
 13 19  1  0  0  0  0
 13 14  1  0  0  0  0
 13 32  1  0  0  0  0
 14 15  1  0  0  0  0
 14 33  1  0  0  0  0
 14 34  1  0  0  0  0
 15 16  1  0  0  0  0
 15 17  1  0  0  0  0
 15 18  1  0  0  0  0
 16 35  1  0  0  0  0
 16 36  1  0  0  0  0
 16 37  1  0  0  0  0
 17 38  1  0  0  0  0
 17 39  1  0  0  0  0
 17 40  1  0  0  0  0
 18 19  1  0  0  0  0
 19 20  1  0  0  0  0
 19 21  1  0  0  0  0
 20 41  1  0  0  0  0
 20 42  1  0  0  0  0
 20 43  1  0  0  0  0
 21 44  1  0  0  0  0
 21 45  1  0  0  0  0
 21 46  1  0  0  0  0
M  END
> <s_m_source_file>
AV-unprocessed.smi

> <i_m_source_file_index>
2996

> <i_lp_mmshare_version>
43012

> <i_f3d_flags>
0

> <s_epik_input>
W0NIM11bQ0gyXWMxbm9jKFtDSDNdKWMxW05IXUMoPU8pW05IXVtDQEBIXShDKE8yKShbQ0gzXSlbQ0gzXSlbQ0gyXUMyKFtDSDNdKVtDSDNd

> <s_epik_cmdline>
J2VwaWtfcHl0aG9uJywgJy1waCcsICc3LjAnLCAnLXRuJywgJzgnLCAnLW1hJywgJzIwMCcsICctbWV0YWxfYmluZGluZycsICctaW1hZScsICc8aW5maWxlLm1hZT4nLCAnLW9tYWUnLCAnPG91dGZpbGUubWFlPic=

> <r_lp_tautomer_probability>
1

> <r_epik_Ionization_Penalty>
3.17207e-05

> <r_epik_Ionization_Penalty_Charging>
0

> <r_epik_Ionization_Penalty_Neutral>
3.17207e-05

> <r_epik_State_Penalty>
-0

> <r_epik_Charging_Adjusted_Penalty>
0

> <i_epik_Tot_Q>
0

> <i_epik_Tot_abs_Q>
0

> <r_epik_Metal_State_Penalty>
-0

> <b_epik_Metal_Only>
0

> <s_lp_Force_Field>
OPLS_2005

> <r_lp_Energy>
17.7476

> <b_lp_Chiralities_Consistent>
1

> <s_lp_Variant>
AV-unprocessed.smi:2996-1

> <Gold.Version>
5.8.1

> <Gold.Id.Protein>
6NUR|6NUR_protein|mol2

> <Gold.PLP.Fitness>
39.9854

> <Gold.PLP.PLP>
-32.1714

> <Gold.PLP.part.hbond>
-3.0602

> <Gold.PLP.part.metal>
0.0000

> <Gold.PLP.part.buried>
-0.9506

> <Gold.PLP.part.nonpolar>
-28.4420

> <Gold.PLP.part.repulsive>
0.2015

> <Gold.PLP.ligand.clash>
0.0000

> <Gold.PLP.ligand.torsion>
0.4137

> <Gold.PLP.Chemscore.Hbond>
2.8280

> <Gold.PLP.Chemscore.CHOScore>
0.0000

> <Gold.PLP.Chemscore.Metal>
0.0000

> <Gold.Chemscore.Hbonds>
donor molecule, donor type, donor heavy atom, donor atom, acceptor molecule, acceptor atom, score
      L1  H     9    30       P1  7948  1.00
      L1  H    12    31       P1  7948  0.90
      P1  H 10752 10765       L1     4  0.93

> <Gold.PLP.Chemscore.Internal.Correction>
0.1574

> <Gold.Rescore>
     Score         DG    S(hbond)    S(metal)    S(lipo)     H(rot)  DE(clash)    DE(int)     intcor
     17.66     -18.30       1.60        0.00      89.13       1.16       0.11       0.52       ----

> <Gold.Chemscore.Fitness>
17.6622

> <Gold.Chemscore.DG>
-18.2982

> <Gold.Chemscore.ZeroCoef>
-5.4800

> <Gold.Chemscore.Hbond>
1.6041

> <Gold.Chemscore.Metal>
0.0000

> <Gold.Chemscore.Lipo>
89.1258

> <Gold.Chemscore.Internal_Hbond>
0.0000

> <Gold.Chemscore.DEClash>
0.1131

> <Gold.Chemscore.DEInternal>
0.5229

> <Gold.Chemscore.Rot>
1.1590

> <Gold.Chemscore.Internal.Correction>
   9.000000E+99

> <Gold.Chemscore.Hbonds>
donor molecule, donor type, donor heavy atom, donor atom, acceptor molecule, acceptor atom, score
      L1  H     9    30       P1  7948  0.29
      L1  H    12    31       P1  7948  0.74
      P1  H 10752 10765       L1     4  0.07

> <Gold.Chemscore.Hbond.Weighted>
-5.3575

> <Gold.Chemscore.Metal.Weighted>
-0.0000

> <Gold.Chemscore.Lipo.Weighted>
-10.4277

> <Gold.Chemscore.Internal_Hbond.Weighted>
0.0000

> <Gold.Chemscore.DEClash.Weighted>
0.1131

> <Gold.Chemscore.DEInternal.Weighted>
0.5229

> <Gold.Chemscore.Rot.Weighted>
2.9671

> <Gold.Chemscore.Internal.Correction.Weighted>
   9.000000E+99

> <Gold.Protein.RotatedTorsions>
[ 6907 6896 6895 6894 ] final   55.87 input  -60.11 | X-H torsion
[ 7974 7965 7964 7962 ] final -109.10 input  175.53 | X-H torsion
[ 8008 7997 7996 7995 ] final   12.90 input   59.86 | X-H torsion
[ 10167 10162 10161 10158 ] final   -4.20 input  -65.29 | X-H torsion
[ 10718 10713 10712 10709 ] final   37.16 input   66.30 | X-H torsion
[ 10763 10752 10751 10750 ] final -137.46 input  -60.55 | X-H torsion
[ 11005 11000 10999 10996 ] final  109.42 input  -57.11 | X-H torsion

> <Gold.Protein.ActiveResidues>
 VAL166  LYS551  ARG553  GLY616  TRP617  ASP618  TYR619  PRO620  LYS621  CYS622 
 ASP623  PHE694  ASN695  SER759  ASP760  ASP761  ALA762  ILE779  LEU786  VAL792 
 PHE793  MET794  SER795  GLU796  ALA797  LYS798  CYS799  TRP800  GLU811  SER814 

> <Gold.Protein.RotatedAtoms>
  152.3581  134.6911  160.0215 H   0  0  0  0  0  0  0  0  0  0  0  0  # atno 6907 bound_to 6896
  151.7244  133.3310  159.3332 H   0  0  0  0  0  0  0  0  0  0  0  0  # atno 6908 bound_to 6896
  150.7585  134.6353  159.6253 H   0  0  0  0  0  0  0  0  0  0  0  0  # atno 6909 bound_to 6896
  145.1847  140.8987  143.3459 H   0  0  0  0  0  0  0  0  0  0  0  0  # atno 7974 bound_to 7965
  154.8270  140.2893  155.5748 H   0  0  0  0  0  0  0  0  0  0  0  0  # atno 8008 bound_to 7997
  156.3002  140.2539  156.3118 H   0  0  0  0  0  0  0  0  0  0  0  0  # atno 8009 bound_to 7997
  154.9275  140.0384  157.2020 H   0  0  0  0  0  0  0  0  0  0  0  0  # atno 8010 bound_to 7997
  140.6919  143.6451  150.8400 H   0  0  0  0  0  0  0  0  0  0  0  0  # atno 10167 bound_to 10162
  157.3435  130.7560  149.6928 H   0  0  0  0  0  0  0  0  0  0  0  0  # atno 10718 bound_to 10713
  154.8661  135.3641  154.5227 H   0  0  0  0  0  0  0  0  0  0  0  0  # atno 10763 bound_to 10752
  153.5856  135.7017  153.5449 H   0  0  0  0  0  0  0  0  0  0  0  0  # atno 10764 bound_to 10752
  153.3418  135.4096  155.1540 H   0  0  0  0  0  0  0  0  0  0  0  0  # atno 10765 bound_to 10752
  139.8862  134.9458  156.6123 H   0  0  0  0  0  0  0  0  0  0  0  0  # atno 11005 bound_to 11000
  145.0101  139.3518  143.6124 LP  0  0  0  0  0  0  0  0  0  0  0  0  # atno 17320 bound_to 7965
  146.3447  139.9359  142.8747 LP  0  0  0  0  0  0  0  0  0  0  0  0  # atno 17321 bound_to 7965
  140.0165  143.5588  152.2818 LP  0  0  0  0  0  0  0  0  0  0  0  0  # atno 17342 bound_to 10162
  139.6330  144.7646  151.2496 LP  0  0  0  0  0  0  0  0  0  0  0  0  # atno 17343 bound_to 10162
  155.9711  130.4161  150.4213 LP  0  0  0  0  0  0  0  0  0  0  0  0  # atno 17370 bound_to 10713
  157.2264  131.0494  151.2517 LP  0  0  0  0  0  0  0  0  0  0  0  0  # atno 17371 bound_to 10713
  140.7802  133.8666  155.8561 LP  0  0  0  0  0  0  0  0  0  0  0  0  # atno 17394 bound_to 11000
  140.9767  134.1460  157.4530 LP  0  0  0  0  0  0  0  0  0  0  0  0  # atno 17395 bound_to 11000

$$$$
