AV-unprocessed.smi:241|AV-procd|sdf|1841|dock6
  -GOLD-   2262020453D 1   1.00000     0.00000
 Structure written by MMmdl.
 54 57  0  0  0  0  0  0  0  0  1 V2000
  146.2209  141.7414  157.8521 C   0  0  0  0  0  0  0  0  0  0  0  0
  146.2858  140.3717  157.4975 O   0  0  0  0  0  0  0  0  0  0  0  0
  145.5205  140.0697  156.3431 C   0  0  0  0  0  0  0  0  0  0  0  0
  146.4054  140.1062  155.0826 C   0  0  1  0  0  0  0  0  0  0  0  0
  147.3316  141.3248  155.0586 C   0  0  0  0  0  0  0  0  0  0  0  0
  148.4449  140.8800  154.1106 C   0  0  1  0  0  0  0  0  0  0  0  0
  149.6704  141.5687  154.3116 O   0  0  0  0  0  0  0  0  0  0  0  0
  150.1087  141.5628  155.6607 C   0  0  0  0  0  0  0  0  0  0  0  0
  148.5978  139.3933  154.4423 C   0  0  0  0  0  0  0  0  0  0  0  0
  147.3153  138.9635  154.9898 N   0  0  0  0  0  0  0  0  0  0  0  0
  146.8841  137.7414  154.5863 C   0  0  0  0  0  0  0  0  0  0  0  0
  146.8447  136.7037  155.4631 N   0  0  0  0  0  0  0  0  0  0  0  0
  146.4093  135.5030  155.0713 C   0  0  0  0  0  0  0  0  0  0  0  0
  145.9653  135.1282  153.8705 N   0  0  0  0  0  0  0  0  0  0  0  0
  145.9955  136.1662  152.9866 C   0  0  0  0  0  0  0  0  0  0  0  0
  146.4407  137.4909  153.2573 C   0  0  0  0  0  0  0  0  0  0  0  0
  146.3468  138.2658  152.1072 N   0  0  0  0  0  0  0  0  0  0  0  0
  145.8726  137.4463  151.2090 C   0  0  0  0  0  0  0  0  0  0  0  0
  145.6033  136.1736  151.6598 N   0  0  0  0  0  0  0  0  0  0  0  0
  145.1111  135.0728  150.8856 C   0  0  0  0  0  0  0  0  0  0  0  0
  144.0099  134.1558  151.4213 C   0  0  0  0  0  0  0  0  0  0  0  0
  144.6438  132.9642  150.6681 C   0  0  0  0  0  0  0  0  0  0  0  0
  144.7150  131.6333  151.4364 C   0  0  0  0  0  0  0  0  0  0  0  0
  145.9059  130.9297  151.1516 O   0  0  0  0  0  0  0  0  0  0  0  0
  144.1248  132.7003  149.2394 C   0  0  0  0  0  0  0  0  0  0  0  0
  142.8358  132.1214  149.2372 O   0  0  0  0  0  0  0  0  0  0  0  0
  145.9424  133.7994  150.7150 C   0  0  0  0  0  0  0  0  0  0  0  0
  145.7768  140.1510  154.1919 H   0  0  0  0  0  0  0  0  0  0  0  0
  148.1104  140.9758  153.0758 H   0  0  0  0  0  0  0  0  0  0  0  0
  146.8240  141.9178  158.7425 H   0  0  0  0  0  0  0  0  0  0  0  0
  145.1967  142.0441  158.0737 H   0  0  0  0  0  0  0  0  0  0  0  0
  146.6087  142.3741  157.0526 H   0  0  0  0  0  0  0  0  0  0  0  0
  145.1013  139.0691  156.4618 H   0  0  0  0  0  0  0  0  0  0  0  0
  144.6818  140.7608  156.2404 H   0  0  0  0  0  0  0  0  0  0  0  0
  146.8254  142.2326  154.7294 H   0  0  0  0  0  0  0  0  0  0  0  0
  147.7438  141.5072  156.0525 H   0  0  0  0  0  0  0  0  0  0  0  0
  151.0336  142.1332  155.7452 H   0  0  0  0  0  0  0  0  0  0  0  0
  150.3086  140.5506  156.0130 H   0  0  0  0  0  0  0  0  0  0  0  0
  149.3700  142.0234  156.3180 H   0  0  0  0  0  0  0  0  0  0  0  0
  148.8976  138.8228  153.5618 H   0  0  0  0  0  0  0  0  0  0  0  0
  149.3586  139.2484  155.2103 H   0  0  0  0  0  0  0  0  0  0  0  0
  146.4141  134.7341  155.8296 H   0  0  0  0  0  0  0  0  0  0  0  0
  145.6981  137.7543  150.1883 H   0  0  0  0  0  0  0  0  0  0  0  0
  144.8312  135.4867  149.9153 H   0  0  0  0  0  0  0  0  0  0  0  0
  144.0526  134.0388  152.5059 H   0  0  0  0  0  0  0  0  0  0  0  0
  143.0034  134.4242  151.0984 H   0  0  0  0  0  0  0  0  0  0  0  0
  144.6453  131.7916  152.5128 H   0  0  0  0  0  0  0  0  0  0  0  0
  143.8818  130.9834  151.1681 H   0  0  0  0  0  0  0  0  0  0  0  0
  145.7701  130.4220  150.3655 H   0  0  0  0  0  0  0  0  0  0  0  0
  144.0683  133.6251  148.6650 H   0  0  0  0  0  0  0  0  0  0  0  0
  144.8028  132.0460  148.6904 H   0  0  0  0  0  0  0  0  0  0  0  0
  142.1953  132.8149  149.2847 H   0  0  0  0  0  0  0  0  0  0  0  0
  146.5410  133.7721  149.8039 H   0  0  0  0  0  0  0  0  0  0  0  0
  146.5600  133.5908  151.5906 H   0  0  0  0  0  0  0  0  0  0  0  0
  1  2  1  0  0  0  0
  1 30  1  0  0  0  0
  1 31  1  0  0  0  0
  1 32  1  0  0  0  0
  2  3  1  0  0  0  0
  3  4  1  0  0  0  0
  3 33  1  0  0  0  0
  3 34  1  0  0  0  0
  4 28  1  0  0  0  0
  4 10  1  0  0  0  0
  4  5  1  0  0  0  0
  5  6  1  0  0  0  0
  5 35  1  0  0  0  0
  5 36  1  0  0  0  0
  6 29  1  0  0  0  0
  6  7  1  0  0  0  0
  6  9  1  0  0  0  0
  7  8  1  0  0  0  0
  8 37  1  0  0  0  0
  8 38  1  0  0  0  0
  8 39  1  0  0  0  0
  9 10  1  0  0  0  0
  9 40  1  0  0  0  0
  9 41  1  0  0  0  0
 10 11  1  0  0  0  0
 11 16  1  0  0  0  0
 11 12  2  0  0  0  0
 12 13  1  0  0  0  0
 13 14  2  0  0  0  0
 13 42  1  0  0  0  0
 14 15  1  0  0  0  0
 15 19  1  0  0  0  0
 15 16  2  0  0  0  0
 16 17  1  0  0  0  0
 17 18  2  0  0  0  0
 18 19  1  0  0  0  0
 18 43  1  0  0  0  0
 19 20  1  0  0  0  0
 20 27  1  0  0  0  0
 20 21  1  0  0  0  0
 20 44  1  0  0  0  0
 21 22  1  0  0  0  0
 21 45  1  0  0  0  0
 21 46  1  0  0  0  0
 22 23  1  0  0  0  0
 22 25  1  0  0  0  0
 22 27  1  0  0  0  0
 23 24  1  0  0  0  0
 23 47  1  0  0  0  0
 23 48  1  0  0  0  0
 24 49  1  0  0  0  0
 25 26  1  0  0  0  0
 25 50  1  0  0  0  0
 25 51  1  0  0  0  0
 26 52  1  0  0  0  0
 27 53  1  0  0  0  0
 27 54  1  0  0  0  0
M  END
> <s_m_source_file>
AV-unprocessed.smi

> <i_m_source_file_index>
241

> <i_lp_mmshare_version>
43012

> <i_f3d_flags>
0

> <s_epik_input>
W0NIM11PW0NIMl1bQ0BASF0xW0NIMl1bQ0BASF0oT1tDSDNdKVtDSDJdTjFjKG5bY0hdbjIpYyhjMjMpbltjSF1uM1tDSF0oW0NIMl00KVtDSDJdQzQoW0NIMl1bT0hdKVtDSDJdW09IXQ==

> <s_epik_cmdline>
J2VwaWtfcHl0aG9uJywgJy1waCcsICc3LjAnLCAnLXRuJywgJzgnLCAnLW1hJywgJzIwMCcsICctbWV0YWxfYmluZGluZycsICctaW1hZScsICc8aW5maWxlLm1hZT4nLCAnLW9tYWUnLCAnPG91dGZpbGUubWFlPic=

> <r_lp_tautomer_probability>
1

> <r_epik_Ionization_Penalty>
0.00568677

> <r_epik_Ionization_Penalty_Charging>
0

> <r_epik_Ionization_Penalty_Neutral>
0.00568677

> <r_epik_State_Penalty>
0.00400877

> <r_epik_Charging_Adjusted_Penalty>
0.00400877

> <i_epik_Tot_Q>
0

> <i_epik_Tot_abs_Q>
0

> <r_epik_Metal_State_Penalty>
-0

> <b_epik_Metal_Only>
0

> <s_lp_Force_Field>
OPLS_2005

> <r_lp_Energy>
53.235

> <b_lp_Chiralities_Consistent>
1

> <s_lp_Variant>
AV-unprocessed.smi:241-2

> <Gold.Version>
5.8.1

> <Gold.Id.Protein>
6NUR|6NUR_protein|mol2

> <Gold.PLP.Fitness>
44.6090

> <Gold.PLP.PLP>
-36.6428

> <Gold.PLP.part.hbond>
-5.9964

> <Gold.PLP.part.metal>
0.0000

> <Gold.PLP.part.buried>
0.3521

> <Gold.PLP.part.nonpolar>
-31.1764

> <Gold.PLP.part.repulsive>
0.7021

> <Gold.PLP.ligand.clash>
0.0000

> <Gold.PLP.ligand.torsion>
1.1777

> <Gold.PLP.Chemscore.Hbond>
2.4623

> <Gold.PLP.Chemscore.CHOScore>
0.6889

> <Gold.PLP.Chemscore.Metal>
0.0000

> <Gold.Chemscore.Hbonds>
donor molecule, donor type, donor heavy atom, donor atom, acceptor molecule, acceptor atom, score
      L1  H    26    52       P1 10186  1.00
      P1  H  7989  7998       L1     7  0.12
      P1  H  8011  8017       L1     7  0.32
      P1  H 10785 10796       L1    26  0.89
      L1  C    18    43       P1 10171  0.73

> <Gold.PLP.Chemscore.Internal.Correction>
0.8682

> <Gold.Rescore>
     Score         DG    S(hbond)    S(metal)    S(lipo)     H(rot)  DE(clash)    DE(int)     intcor
      6.07      -9.58       1.71        0.00      73.19       3.97       1.78       1.73       ----

> <Gold.Chemscore.Fitness>
6.0710

> <Gold.Chemscore.DG>
-9.5811

> <Gold.Chemscore.ZeroCoef>
-5.4800

> <Gold.Chemscore.Hbond>
1.7090

> <Gold.Chemscore.Metal>
0.0000

> <Gold.Chemscore.Lipo>
73.1896

> <Gold.Chemscore.Internal_Hbond>
0.0000

> <Gold.Chemscore.DEClash>
1.7810

> <Gold.Chemscore.DEInternal>
1.7291

> <Gold.Chemscore.Rot>
3.9727

> <Gold.Chemscore.Internal.Correction>
   9.000000E+99

> <Gold.Chemscore.Hbonds>
donor molecule, donor type, donor heavy atom, donor atom, acceptor molecule, acceptor atom, score
      L1  H    26    52       P1 10186  0.96
      P1  H  7989  7998       L1     7  0.01
      P1  H  8011  8017       L1     7  0.06
      P1  H 10785 10796       L1    26  0.39

> <Gold.Chemscore.Hbond.Weighted>
-5.7081

> <Gold.Chemscore.Metal.Weighted>
-0.0000

> <Gold.Chemscore.Lipo.Weighted>
-8.5632

> <Gold.Chemscore.Internal_Hbond.Weighted>
0.0000

> <Gold.Chemscore.DEClash.Weighted>
1.7810

> <Gold.Chemscore.DEInternal.Weighted>
1.7291

> <Gold.Chemscore.Rot.Weighted>
10.1702

> <Gold.Chemscore.Internal.Correction.Weighted>
   9.000000E+99

> <Gold.Protein.RotatedTorsions>
[ 6907 6896 6895 6894 ] final  113.85 input  -60.11 | X-H torsion
[ 7974 7965 7964 7962 ] final  158.47 input  175.53 | X-H torsion
[ 8008 7997 7996 7995 ] final -110.63 input   59.86 | X-H torsion
[ 10167 10162 10161 10158 ] final   24.93 input  -65.29 | X-H torsion
[ 10718 10713 10712 10709 ] final  161.07 input   66.30 | X-H torsion
[ 10763 10752 10751 10750 ] final  -30.15 input  -60.55 | X-H torsion
[ 11005 11000 10999 10996 ] final   16.34 input  -57.11 | X-H torsion

> <Gold.Protein.ActiveResidues>
 VAL166  LYS551  ARG553  GLY616  TRP617  ASP618  TYR619  PRO620  LYS621  CYS622 
 ASP623  PHE694  ASN695  SER759  ASP760  ASP761  ALA762  ILE779  LEU786  VAL792 
 PHE793  MET794  SER795  GLU796  ALA797  LYS798  CYS799  TRP800  GLU811  SER814 

> <Gold.Protein.RotatedAtoms>
  152.4837  133.8319  159.7107 H   0  0  0  0  0  0  0  0  0  0  0  0  # atno 6907 bound_to 6896
  150.8907  133.7238  159.2912 H   0  0  0  0  0  0  0  0  0  0  0  0  # atno 6908 bound_to 6896
  151.4712  135.1049  159.9804 H   0  0  0  0  0  0  0  0  0  0  0  0  # atno 6909 bound_to 6896
  144.7844  139.7483  143.6247 H   0  0  0  0  0  0  0  0  0  0  0  0  # atno 7974 bound_to 7965
  154.9775  140.0396  157.2262 H   0  0  0  0  0  0  0  0  0  0  0  0  # atno 8008 bound_to 7997
  154.7745  140.2807  155.6089 H   0  0  0  0  0  0  0  0  0  0  0  0  # atno 8009 bound_to 7997
  156.2926  140.2603  156.2555 H   0  0  0  0  0  0  0  0  0  0  0  0  # atno 8010 bound_to 7997
  140.5147  144.0101  150.6389 H   0  0  0  0  0  0  0  0  0  0  0  0  # atno 10167 bound_to 10162
  157.1416  131.0542  151.2324 H   0  0  0  0  0  0  0  0  0  0  0  0  # atno 10718 bound_to 10713
  153.7762  135.6908  153.4897 H   0  0  0  0  0  0  0  0  0  0  0  0  # atno 10763 bound_to 10752
  153.1842  135.4495  155.0065 H   0  0  0  0  0  0  0  0  0  0  0  0  # atno 10764 bound_to 10752
  154.8099  135.3373  154.7268 H   0  0  0  0  0  0  0  0  0  0  0  0  # atno 10765 bound_to 10752
  140.4483  134.1251  155.7699 H   0  0  0  0  0  0  0  0  0  0  0  0  # atno 11005 bound_to 11000
  146.2068  139.5398  142.9707 LP  0  0  0  0  0  0  0  0  0  0  0  0  # atno 17320 bound_to 7965
  145.5963  141.0362  143.2043 LP  0  0  0  0  0  0  0  0  0  0  0  0  # atno 17321 bound_to 7965
  140.3434  143.3006  152.0564 LP  0  0  0  0  0  0  0  0  0  0  0  0  # atno 17342 bound_to 10162
  139.4906  144.6426  151.6845 LP  0  0  0  0  0  0  0  0  0  0  0  0  # atno 17343 bound_to 10162
  157.4302  130.7486  149.6984 LP  0  0  0  0  0  0  0  0  0  0  0  0  # atno 17370 bound_to 10713
  155.9787  130.4048  150.3629 LP  0  0  0  0  0  0  0  0  0  0  0  0  # atno 17371 bound_to 10713
  141.1675  133.8673  157.1670 LP  0  0  0  0  0  0  0  0  0  0  0  0  # atno 17394 bound_to 11000
  140.0024  135.0022  157.0219 LP  0  0  0  0  0  0  0  0  0  0  0  0  # atno 17395 bound_to 11000

$$$$
