AV-unprocessed.smi:1522|AV-procd|sdf|6135|dock3
  -GOLD-   22720 6273D 1   1.00000     0.00000
 Structure written by MMmdl.
 35 36  0  0  0  0  0  0  0  0  2 V2000
  146.2109  132.7904  154.1450 C   0  0  0  0  0  0  0  0  0  0  0  0
  147.4643  132.5482  153.2739 C   0  0  1  0  0  0  0  0  0  0  0  0
  148.7568  132.8474  154.0709 C   0  0  0  0  0  0  0  0  0  0  0  0
  149.1772  134.2386  153.9332 N   0  0  0  0  0  0  0  0  0  0  0  0
  150.0346  134.8628  154.7529 C   0  0  0  0  0  0  0  0  0  0  0  0
  150.5745  134.3131  155.7130 O   0  0  0  0  0  0  0  0  0  0  0  0
  150.2155  136.1439  154.3865 N   0  0  0  0  0  0  0  0  0  0  0  0
  151.0198  137.1324  155.0137 C   0  0  0  0  0  0  0  0  0  0  0  0
  151.8868  136.8682  156.0038 N   0  0  0  0  0  0  0  0  0  0  0  0
  152.5422  138.0123  156.4397 N   0  0  0  0  0  0  0  0  0  0  0  0
  152.1440  139.0931  155.7627 C   0  0  0  0  0  0  0  0  0  0  0  0
  150.9290  138.8189  154.5261 S   0  0  0  0  0  0  0  0  0  0  0  0
  147.4778  131.1561  152.7348 N   0  3  0  0  0  0  0  0  0  0  0  0
  147.6621  130.0896  153.7430 C   0  0  0  0  0  0  0  0  0  0  0  0
  147.1790  128.7945  153.0862 C   0  0  0  0  0  0  0  0  0  0  0  0
  146.2685  129.2331  151.9367 C   0  0  0  0  0  0  0  0  0  0  0  0
  146.2746  130.7634  151.9689 C   0  0  0  0  0  0  0  0  0  0  0  0
  146.1879  133.8013  154.5522 H   0  0  0  0  0  0  0  0  0  0  0  0
  146.1753  132.0973  154.9863 H   0  0  0  0  0  0  0  0  0  0  0  0
  145.2887  132.6736  153.5761 H   0  0  0  0  0  0  0  0  0  0  0  0
  147.4216  133.2340  152.4261 H   0  0  0  0  0  0  0  0  0  0  0  0
  148.5990  132.5954  155.1213 H   0  0  0  0  0  0  0  0  0  0  0  0
  149.5864  132.2337  153.7199 H   0  0  0  0  0  0  0  0  0  0  0  0
  148.7854  134.7623  153.1640 H   0  0  0  0  0  0  0  0  0  0  0  0
  149.7121  136.4530  153.5681 H   0  0  0  0  0  0  0  0  0  0  0  0
  152.5693  140.0585  155.9933 H   0  0  0  0  0  0  0  0  0  0  0  0
  148.6996  130.0112  154.0693 H   0  0  0  0  0  0  0  0  0  0  0  0
  147.0474  130.3057  154.6186 H   0  0  0  0  0  0  0  0  0  0  0  0
  148.0259  128.2311  152.6921 H   0  0  0  0  0  0  0  0  0  0  0  0
  146.6614  128.1527  153.7997 H   0  0  0  0  0  0  0  0  0  0  0  0
  146.6688  128.8715  150.9887 H   0  0  0  0  0  0  0  0  0  0  0  0
  145.2579  128.8364  152.0389 H   0  0  0  0  0  0  0  0  0  0  0  0
  145.3818  131.1210  152.4846 H   0  0  0  0  0  0  0  0  0  0  0  0
  146.2758  131.1853  150.9633 H   0  0  0  0  0  0  0  0  0  0  0  0
  148.2580  131.0842  152.0972 H   0  0  0  0  0  0  0  0  0  0  0  0
  1  2  1  0  0  0  0
  1 18  1  0  0  0  0
  1 19  1  0  0  0  0
  1 20  1  0  0  0  0
  2  3  1  0  0  0  0
  2 13  1  0  0  0  0
  2 21  1  0  0  0  0
  3  4  1  0  0  0  0
  3 22  1  0  0  0  0
  3 23  1  0  0  0  0
  4  5  1  0  0  0  0
  4 24  1  0  0  0  0
  5  6  2  0  0  0  0
  5  7  1  0  0  0  0
  7  8  1  0  0  0  0
  7 25  1  0  0  0  0
  8 12  1  0  0  0  0
  8  9  2  0  0  0  0
  9 10  1  0  0  0  0
 10 11  2  0  0  0  0
 11 12  1  0  0  0  0
 11 26  1  0  0  0  0
 13 17  1  0  0  0  0
 13 14  1  0  0  0  0
 13 35  1  0  0  0  0
 14 15  1  0  0  0  0
 14 27  1  0  0  0  0
 14 28  1  0  0  0  0
 15 16  1  0  0  0  0
 15 29  1  0  0  0  0
 15 30  1  0  0  0  0
 16 17  1  0  0  0  0
 16 31  1  0  0  0  0
 16 32  1  0  0  0  0
 17 33  1  0  0  0  0
 17 34  1  0  0  0  0
M  CHG  1  13   1
M  END
> <s_m_source_file>
AV-unprocessed.smi

> <i_m_source_file_index>
1522

> <i_lp_mmshare_version>
43012

> <i_f3d_flags>
0

> <s_epik_input>
W0NIMl0xW0NIMl1bQ0gyXVtDSDJdTjFbQ0BIXShbQ0gzXSlbQ0gyXVtOSF1DKD1PKVtOSF1jMm5uW2NIXXMy

> <s_epik_cmdline>
J2VwaWtfcHl0aG9uJywgJy1waCcsICc3LjAnLCAnLXRuJywgJzgnLCAnLW1hJywgJzIwMCcsICctbWV0YWxfYmluZGluZycsICctaW1hZScsICc8aW5maWxlLm1hZT4nLCAnLW9tYWUnLCAnPG91dGZpbGUubWFlPic=

> <r_lp_tautomer_probability>
1

> <r_epik_Ionization_Penalty>
0.00457064

> <r_epik_Ionization_Penalty_Charging>
0.000848324

> <r_epik_Ionization_Penalty_Neutral>
0.00372231

> <r_epik_State_Penalty>
-0

> <r_epik_Charging_Adjusted_Penalty>
0.000848324

> <i_epik_Tot_Q>
1

> <i_epik_Tot_abs_Q>
1

> <r_epik_Metal_State_Penalty>
0.370178

> <b_epik_Metal_Only>
0

> <s_lp_Force_Field>
OPLS_2005

> <r_lp_Energy>
30.6198

> <b_lp_Chiralities_Consistent>
1

> <s_lp_Variant>
AV-unprocessed.smi:1522-2

> <Gold.Version>
5.8.1

> <Gold.Id.Protein>
6NUR|6NUR_protein|mol2

> <Gold.PLP.Fitness>
40.0811

> <Gold.PLP.PLP>
-29.4723

> <Gold.PLP.part.hbond>
-5.0000

> <Gold.PLP.part.metal>
0.0000

> <Gold.PLP.part.buried>
-3.1197

> <Gold.PLP.part.nonpolar>
-22.1203

> <Gold.PLP.part.repulsive>
0.1483

> <Gold.PLP.ligand.clash>
0.0000

> <Gold.PLP.ligand.torsion>
0.5831

> <Gold.PLP.Chemscore.Hbond>
3.9120

> <Gold.PLP.Chemscore.CHOScore>
0.0000

> <Gold.PLP.Chemscore.Metal>
0.0000

> <Gold.Chemscore.Hbonds>
donor molecule, donor type, donor heavy atom, donor atom, acceptor molecule, acceptor atom, score
      L1  H     4    24       P1  7948  0.98
      L1  H     7    25       P1  7948  1.00
      L1  H    13    35       P1 10747  1.00
      P1  H 10752 10765       L1     9  0.80

> <Gold.PLP.Chemscore.Internal.Correction>
0.0389

> <Gold.Rescore>
     Score         DG    S(hbond)    S(metal)    S(lipo)     H(rot)  DE(clash)    DE(int)     intcor
     16.02     -17.87       2.94        0.00      59.07       1.70       0.07       1.78       ----

> <Gold.Chemscore.Fitness>
16.0187

> <Gold.Chemscore.DG>
-17.8655

> <Gold.Chemscore.ZeroCoef>
-5.4800

> <Gold.Chemscore.Hbond>
2.9442

> <Gold.Chemscore.Metal>
0.0000

> <Gold.Chemscore.Lipo>
59.0687

> <Gold.Chemscore.Internal_Hbond>
0.0000

> <Gold.Chemscore.DEClash>
0.0701

> <Gold.Chemscore.DEInternal>
1.7767

> <Gold.Chemscore.Rot>
1.7028

> <Gold.Chemscore.Internal.Correction>
   9.000000E+99

> <Gold.Chemscore.Hbonds>
donor molecule, donor type, donor heavy atom, donor atom, acceptor molecule, acceptor atom, score
      L1  H     4    24       P1  7948  0.24
      L1  H     7    25       P1  7948  0.38
      L1  H    13    35       P1 10747  0.95
      P1  H 10752 10765       L1     9  0.16

> <Gold.Chemscore.Hbond.Weighted>
-9.8336

> <Gold.Chemscore.Metal.Weighted>
-0.0000

> <Gold.Chemscore.Lipo.Weighted>
-6.9110

> <Gold.Chemscore.Internal_Hbond.Weighted>
0.0000

> <Gold.Chemscore.DEClash.Weighted>
0.0701

> <Gold.Chemscore.DEInternal.Weighted>
1.7767

> <Gold.Chemscore.Rot.Weighted>
4.3592

> <Gold.Chemscore.Internal.Correction.Weighted>
   9.000000E+99

> <Gold.Protein.RotatedTorsions>
[ 6907 6896 6895 6894 ] final  131.66 input  -60.11 | X-H torsion
[ 7974 7965 7964 7962 ] final -110.44 input  175.53 | X-H torsion
[ 8008 7997 7996 7995 ] final   39.97 input   59.86 | X-H torsion
[ 10167 10162 10161 10158 ] final -161.88 input  -65.29 | X-H torsion
[ 10718 10713 10712 10709 ] final   37.77 input   66.30 | X-H torsion
[ 10763 10752 10751 10750 ] final -152.46 input  -60.55 | X-H torsion
[ 11005 11000 10999 10996 ] final -129.21 input  -57.11 | X-H torsion

> <Gold.Protein.ActiveResidues>
 VAL166  LYS551  ARG553  GLY616  TRP617  ASP618  TYR619  PRO620  LYS621  CYS622 
 ASP623  PHE694  ASN695  SER759  ASP760  ASP761  ALA762  ILE779  LEU786  VAL792 
 PHE793  MET794  SER795  GLU796  ALA797  LYS798  CYS799  TRP800  GLU811  SER814 

> <Gold.Protein.RotatedAtoms>
  152.3404  133.6060  159.5872 H   0  0  0  0  0  0  0  0  0  0  0  0  # atno 6907 bound_to 6896
  150.7475  133.9731  159.3561 H   0  0  0  0  0  0  0  0  0  0  0  0  # atno 6908 bound_to 6896
  151.7596  135.0814  160.0394 H   0  0  0  0  0  0  0  0  0  0  0  0  # atno 6909 bound_to 6896
  145.1682  140.8912  143.3551 H   0  0  0  0  0  0  0  0  0  0  0  0  # atno 7974 bound_to 7965
  155.2455  140.3348  155.4287 H   0  0  0  0  0  0  0  0  0  0  0  0  # atno 8008 bound_to 7997
  156.2238  140.1820  156.7458 H   0  0  0  0  0  0  0  0  0  0  0  0  # atno 8009 bound_to 7997
  154.5866  140.0645  156.9165 H   0  0  0  0  0  0  0  0  0  0  0  0  # atno 8010 bound_to 7997
  139.6432  144.0220  152.2108 H   0  0  0  0  0  0  0  0  0  0  0  0  # atno 10167 bound_to 10162
  157.3509  130.7598  149.6978 H   0  0  0  0  0  0  0  0  0  0  0  0  # atno 10718 bound_to 10713
  154.7992  135.3235  154.7591 H   0  0  0  0  0  0  0  0  0  0  0  0  # atno 10763 bound_to 10752
  153.8262  135.6883  153.4825 H   0  0  0  0  0  0  0  0  0  0  0  0  # atno 10764 bound_to 10752
  153.1700  135.4627  154.9832 H   0  0  0  0  0  0  0  0  0  0  0  0  # atno 10765 bound_to 10752
  140.9450  134.1142  157.4115 H   0  0  0  0  0  0  0  0  0  0  0  0  # atno 11005 bound_to 11000
  145.0260  139.3382  143.6048 LP  0  0  0  0  0  0  0  0  0  0  0  0  # atno 17320 bound_to 7965
  146.3472  139.9579  142.8721 LP  0  0  0  0  0  0  0  0  0  0  0  0  # atno 17321 bound_to 7965
  139.9915  144.6358  150.7810 LP  0  0  0  0  0  0  0  0  0  0  0  0  # atno 17342 bound_to 10162
  140.7501  143.2951  151.3227 LP  0  0  0  0  0  0  0  0  0  0  0  0  # atno 17343 bound_to 10162
  155.9721  130.4141  150.4114 LP  0  0  0  0  0  0  0  0  0  0  0  0  # atno 17370 bound_to 10713
  157.2177  131.0475  151.2564 LP  0  0  0  0  0  0  0  0  0  0  0  0  # atno 17371 bound_to 10713
  139.8831  135.0048  156.6276 LP  0  0  0  0  0  0  0  0  0  0  0  0  # atno 17394 bound_to 11000
  140.7681  133.8761  155.8470 LP  0  0  0  0  0  0  0  0  0  0  0  0  # atno 17395 bound_to 11000

$$$$
