AV-unprocessed.smi:2892|AV-procd|sdf|11118|dock6
  -GOLD-   2272015583D 1   1.00000     0.00000
 Structure written by MMmdl.
 42 42  0  0  0  0  0  0  0  0  2 V2000
  151.8877  145.2179  159.6279 C   0  0  0  0  0  0  0  0  0  0  0  0
  152.3059  144.1397  158.6168 C   0  0  0  0  0  0  0  0  0  0  0  0
  152.0934  142.6840  159.1079 C   0  0  2  0  0  0  0  0  0  0  0  0
  153.0613  142.3740  160.2741 C   0  0  0  0  0  0  0  0  0  0  0  0
  152.2290  141.6608  157.9367 C   0  0  2  0  0  0  0  0  0  0  0  0
  151.0776  141.7921  157.0412 N   0  0  0  0  0  0  0  0  0  0  0  0
  150.9173  141.1587  155.8684 C   0  0  0  0  0  0  0  0  0  0  0  0
  151.7597  140.3952  155.3934 O   0  0  0  0  0  0  0  0  0  0  0  0
  149.5983  141.4419  155.1386 C   0  0  0  0  0  0  0  0  0  0  0  0
  148.8276  140.1793  154.8489 C   0  0  0  0  0  0  0  0  0  0  0  0
  149.2264  139.0671  154.0533 C   0  0  0  0  0  0  0  0  0  0  0  0
  148.1686  138.2079  154.1336 C   0  0  0  0  0  0  0  0  0  0  0  0
  147.2123  138.8039  154.9282 N   0  0  0  0  0  0  0  0  0  0  0  0
  145.9111  138.2808  155.3174 C   0  0  0  0  0  0  0  0  0  0  0  0
  145.0671  137.9154  154.0857 C   0  0  0  0  0  0  0  0  0  0  0  0
  145.1758  139.2602  156.2463 C   0  0  0  0  0  0  0  0  0  0  0  0
  147.6164  140.0185  155.3617 N   0  0  0  0  0  0  0  0  0  0  0  0
  152.2483  140.2158  158.4714 C   0  0  0  0  0  0  0  0  0  0  0  0
  153.2554  139.5251  158.2029 O   0  0  0  0  0  0  0  0  0  0  0  0
  151.2634  139.8292  159.1407 O   0  5  0  0  0  0  0  0  0  0  0  0
  151.9730  146.2103  159.1848 H   0  0  0  0  0  0  0  0  0  0  0  0
  152.5135  145.2091  160.5196 H   0  0  0  0  0  0  0  0  0  0  0  0
  150.8514  145.0844  159.9396 H   0  0  0  0  0  0  0  0  0  0  0  0
  151.7296  144.3215  157.7102 H   0  0  0  0  0  0  0  0  0  0  0  0
  153.3497  144.2858  158.3354 H   0  0  0  0  0  0  0  0  0  0  0  0
  151.0761  142.6147  159.4981 H   0  0  0  0  0  0  0  0  0  0  0  0
  154.0996  142.4173  159.9441 H   0  0  0  0  0  0  0  0  0  0  0  0
  152.8919  141.3864  160.7026 H   0  0  0  0  0  0  0  0  0  0  0  0
  152.9455  143.0797  161.0955 H   0  0  0  0  0  0  0  0  0  0  0  0
  153.1544  141.8583  157.3915 H   0  0  0  0  0  0  0  0  0  0  0  0
  150.3278  142.3864  157.3625 H   0  0  0  0  0  0  0  0  0  0  0  0
  149.0059  142.1264  155.7476 H   0  0  0  0  0  0  0  0  0  0  0  0
  149.8131  141.9644  154.2057 H   0  0  0  0  0  0  0  0  0  0  0  0
  150.1509  138.9210  153.5150 H   0  0  0  0  0  0  0  0  0  0  0  0
  148.0202  137.2315  153.6965 H   0  0  0  0  0  0  0  0  0  0  0  0
  146.0906  137.3634  155.8798 H   0  0  0  0  0  0  0  0  0  0  0  0
  144.1256  137.4516  154.3809 H   0  0  0  0  0  0  0  0  0  0  0  0
  145.5950  137.2092  153.4442 H   0  0  0  0  0  0  0  0  0  0  0  0
  144.8285  138.7953  153.4872 H   0  0  0  0  0  0  0  0  0  0  0  0
  144.2354  138.8351  156.5975 H   0  0  0  0  0  0  0  0  0  0  0  0
  144.9456  140.1978  155.7388 H   0  0  0  0  0  0  0  0  0  0  0  0
  145.7787  139.4967  157.1234 H   0  0  0  0  0  0  0  0  0  0  0  0
  1  2  1  0  0  0  0
  1 21  1  0  0  0  0
  1 22  1  0  0  0  0
  1 23  1  0  0  0  0
  2  3  1  0  0  0  0
  2 24  1  0  0  0  0
  2 25  1  0  0  0  0
  3  4  1  0  0  0  0
  3  5  1  0  0  0  0
  3 26  1  0  0  0  0
  4 27  1  0  0  0  0
  4 28  1  0  0  0  0
  4 29  1  0  0  0  0
  5  6  1  0  0  0  0
  5 18  1  0  0  0  0
  5 30  1  0  0  0  0
  6  7  1  0  0  0  0
  6 31  1  0  0  0  0
  7  8  2  0  0  0  0
  7  9  1  0  0  0  0
  9 10  1  0  0  0  0
  9 32  1  0  0  0  0
  9 33  1  0  0  0  0
 10 17  2  0  0  0  0
 10 11  1  0  0  0  0
 11 12  2  0  0  0  0
 11 34  1  0  0  0  0
 12 13  1  0  0  0  0
 12 35  1  0  0  0  0
 13 14  1  0  0  0  0
 13 17  1  0  0  0  0
 14 15  1  0  0  0  0
 14 16  1  0  0  0  0
 14 36  1  0  0  0  0
 15 37  1  0  0  0  0
 15 38  1  0  0  0  0
 15 39  1  0  0  0  0
 16 40  1  0  0  0  0
 16 41  1  0  0  0  0
 16 42  1  0  0  0  0
 18 19  2  0  0  0  0
 18 20  1  0  0  0  0
M  CHG  1  20  -1
M  END
> <s_m_source_file>
AV-unprocessed.smi

> <i_m_source_file_index>
2892

> <i_lp_mmshare_version>
43012

> <i_f3d_flags>
0

> <s_epik_input>
W0NIM11bQ0gyXVtDQEhdKFtDSDNdKVtDQEBIXShDKD1PKVtPSF0pW05IXUMoPU8pW0NIMl1jMVtjSF1bY0hdbihuMSlbQ0hdKFtDSDNdKVtDSDNd

> <s_epik_cmdline>
J2VwaWtfcHl0aG9uJywgJy1waCcsICc3LjAnLCAnLXRuJywgJzgnLCAnLW1hJywgJzIwMCcsICctbWV0YWxfYmluZGluZycsICctaW1hZScsICc8aW5maWxlLm1hZT4nLCAnLW9tYWUnLCAnPG91dGZpbGUubWFlPic=

> <r_lp_tautomer_probability>
1

> <r_epik_Ionization_Penalty>
0.000286846

> <r_epik_Ionization_Penalty_Charging>
0.000224481

> <r_epik_Ionization_Penalty_Neutral>
6.23655e-05

> <r_epik_State_Penalty>
-0

> <r_epik_Charging_Adjusted_Penalty>
0.000224481

> <i_epik_Tot_Q>
-1

> <i_epik_Tot_abs_Q>
1

> <r_epik_Metal_State_Penalty>
-0

> <b_epik_Metal_Only>
0

> <s_lp_Force_Field>
OPLS_2005

> <r_lp_Energy>
15.4928

> <b_lp_Chiralities_Consistent>
1

> <s_lp_Variant>
AV-unprocessed.smi:2892-1

> <Gold.Version>
5.8.1

> <Gold.Id.Protein>
6NUR|6NUR_protein|mol2

> <Gold.PLP.Fitness>
43.1276

> <Gold.PLP.PLP>
-32.2038

> <Gold.PLP.part.hbond>
-2.0000

> <Gold.PLP.part.metal>
0.0000

> <Gold.PLP.part.buried>
-4.3939

> <Gold.PLP.part.nonpolar>
-25.5661

> <Gold.PLP.part.repulsive>
0.0792

> <Gold.PLP.ligand.clash>
0.0000

> <Gold.PLP.ligand.torsion>
0.2698

> <Gold.PLP.Chemscore.Hbond>
2.8320

> <Gold.PLP.Chemscore.CHOScore>
0.9481

> <Gold.PLP.Chemscore.Metal>
0.0000

> <Gold.Chemscore.Hbonds>
donor molecule, donor type, donor heavy atom, donor atom, acceptor molecule, acceptor atom, score
      P1  H  7989  7998       L1     8  0.78
      P1  H  7997  8009       L1    19  2.00
      L1  C    12    35       P1  7948  1.00

> <Gold.PLP.Chemscore.Internal.Correction>
0.1229

> <Gold.Rescore>
     Score         DG    S(hbond)    S(metal)    S(lipo)     H(rot)  DE(clash)    DE(int)     intcor
     14.05     -14.46       1.73        0.00      79.51       2.39       0.15       0.26       ----

> <Gold.Chemscore.Fitness>
14.0548

> <Gold.Chemscore.DG>
-14.4591

> <Gold.Chemscore.ZeroCoef>
-5.4800

> <Gold.Chemscore.Hbond>
1.7322

> <Gold.Chemscore.Metal>
0.0000

> <Gold.Chemscore.Lipo>
79.5107

> <Gold.Chemscore.Internal_Hbond>
0.0000

> <Gold.Chemscore.DEClash>
0.1484

> <Gold.Chemscore.DEInternal>
0.2559

> <Gold.Chemscore.Rot>
2.3865

> <Gold.Chemscore.Internal.Correction>
   9.000000E+99

> <Gold.Chemscore.Hbonds>
donor molecule, donor type, donor heavy atom, donor atom, acceptor molecule, acceptor atom, score
      P1  H  7989  7998       L1     8  0.23
      P1  H  7997  8009       L1    19  1.00

> <Gold.Chemscore.Hbond.Weighted>
-5.7857

> <Gold.Chemscore.Metal.Weighted>
-0.0000

> <Gold.Chemscore.Lipo.Weighted>
-9.3028

> <Gold.Chemscore.Internal_Hbond.Weighted>
0.0000

> <Gold.Chemscore.DEClash.Weighted>
0.1484

> <Gold.Chemscore.DEInternal.Weighted>
0.2559

> <Gold.Chemscore.Rot.Weighted>
6.1093

> <Gold.Chemscore.Internal.Correction.Weighted>
   9.000000E+99

> <Gold.Protein.RotatedTorsions>
[ 6907 6896 6895 6894 ] final  -13.56 input  -60.11 | X-H torsion
[ 7974 7965 7964 7962 ] final  177.29 input  175.53 | X-H torsion
[ 8008 7997 7996 7995 ] final  146.23 input   59.86 | X-H torsion
[ 10167 10162 10161 10158 ] final -150.93 input  -65.29 | X-H torsion
[ 10718 10713 10712 10709 ] final   77.89 input   66.30 | X-H torsion
[ 10763 10752 10751 10750 ] final -157.42 input  -60.55 | X-H torsion
[ 11005 11000 10999 10996 ] final  -24.91 input  -57.11 | X-H torsion

> <Gold.Protein.ActiveResidues>
 VAL166  LYS551  ARG553  GLY616  TRP617  ASP618  TYR619  PRO620  LYS621  CYS622 
 ASP623  PHE694  ASN695  SER759  ASP760  ASP761  ALA762  ILE779  LEU786  VAL792 
 PHE793  MET794  SER795  GLU796  ALA797  LYS798  CYS799  TRP800  GLU811  SER814 

> <Gold.Protein.RotatedAtoms>
  151.3530  135.0888  159.9408 H   0  0  0  0  0  0  0  0  0  0  0  0  # atno 6907 bound_to 6896
  152.5182  133.9334  159.7602 H   0  0  0  0  0  0  0  0  0  0  0  0  # atno 6908 bound_to 6896
  150.9713  133.6287  159.2767 H   0  0  0  0  0  0  0  0  0  0  0  0  # atno 6909 bound_to 6896
  144.7171  140.0225  143.6440 H   0  0  0  0  0  0  0  0  0  0  0  0  # atno 7974 bound_to 7965
  156.2861  140.2188  156.5344 H   0  0  0  0  0  0  0  0  0  0  0  0  # atno 8008 bound_to 7997
  154.7422  140.0487  157.0843 H   0  0  0  0  0  0  0  0  0  0  0  0  # atno 8009 bound_to 7997
  155.0216  140.3124  155.4794 H   0  0  0  0  0  0  0  0  0  0  0  0  # atno 8010 bound_to 7997
  139.7311  143.8807  152.2535 H   0  0  0  0  0  0  0  0  0  0  0  0  # atno 10167 bound_to 10162
  157.6726  130.9842  150.1706 H   0  0  0  0  0  0  0  0  0  0  0  0  # atno 10718 bound_to 10713
  154.7637  135.3125  154.8328 H   0  0  0  0  0  0  0  0  0  0  0  0  # atno 10763 bound_to 10752
  153.9082  135.6808  153.4756 H   0  0  0  0  0  0  0  0  0  0  0  0  # atno 10764 bound_to 10752
  153.1241  135.4809  154.9175 H   0  0  0  0  0  0  0  0  0  0  0  0  # atno 10765 bound_to 10752
  140.8889  133.7602  156.0395 H   0  0  0  0  0  0  0  0  0  0  0  0  # atno 11005 bound_to 11000
  146.0169  139.3217  143.0836 LP  0  0  0  0  0  0  0  0  0  0  0  0  # atno 17320 bound_to 7965
  145.8615  140.9472  143.0697 LP  0  0  0  0  0  0  0  0  0  0  0  0  # atno 17321 bound_to 7965
  139.8730  144.7058  150.8965 LP  0  0  0  0  0  0  0  0  0  0  0  0  # atno 17342 bound_to 10162
  140.7771  143.3722  151.1627 LP  0  0  0  0  0  0  0  0  0  0  0  0  # atno 17343 bound_to 10162
  156.2461  130.3696  149.8283 LP  0  0  0  0  0  0  0  0  0  0  0  0  # atno 17370 bound_to 10713
  156.6069  130.8570  151.3445 LP  0  0  0  0  0  0  0  0  0  0  0  0  # atno 17371 bound_to 10713
  140.8371  134.3110  157.5327 LP  0  0  0  0  0  0  0  0  0  0  0  0  # atno 17394 bound_to 11000
  139.8727  134.9396  156.3745 LP  0  0  0  0  0  0  0  0  0  0  0  0  # atno 17395 bound_to 11000

$$$$
