AV-unprocessed.smi:263|AV-procd|sdf|2006|dock6
  -GOLD-   2262021203D 1   1.00000     0.00000
 Structure written by MMmdl.
 57 61  0  0  0  0  0  0  0  0  1 V2000
  148.6324  135.3582  154.3415 O   0  0  0  0  0  0  0  0  0  0  0  0
  149.1748  134.2285  155.0034 C   0  0  0  0  0  0  0  0  0  0  0  0
  150.5012  134.6608  155.6770 C   0  0  0  0  0  0  0  0  0  0  0  0
  150.4735  136.0042  156.2354 N   0  0  0  0  0  0  0  0  0  0  0  0
  150.2402  136.3486  157.5477 C   0  0  0  0  0  0  0  0  0  0  0  0
  150.2637  137.6289  157.7996 N   0  0  0  0  0  0  0  0  0  0  0  0
  150.5305  138.2140  156.5670 C   0  0  0  0  0  0  0  0  0  0  0  0
  150.6832  139.5567  156.1185 C   0  0  0  0  0  0  0  0  0  0  0  0
  150.6006  140.6252  156.9526 N   0  0  0  0  0  0  0  0  0  0  0  0
  149.6391  141.6765  156.6129 C   0  0  0  0  0  0  0  0  0  0  0  0
  149.4057  142.6284  157.8018 C   0  0  0  0  0  0  0  0  0  0  0  0
  150.7298  143.1915  158.3591 C   0  0  1  0  0  0  0  0  0  0  0  0
  151.2963  144.0218  157.3579 O   0  0  0  0  0  0  0  0  0  0  0  0
  150.4968  144.0634  159.6133 C   0  0  0  0  0  0  0  0  0  0  0  0
  151.8170  144.5390  160.2500 C   0  0  0  0  0  0  0  0  0  0  0  0
  152.7572  143.3613  160.5528 C   0  0  0  0  0  0  0  0  0  0  0  0
  153.0094  142.5059  159.3002 C   0  0  0  0  0  0  0  0  0  0  0  0
  151.6823  142.0135  158.6910 C   0  0  2  0  0  0  0  0  0  0  0  0
  151.8862  141.0940  157.4712 C   0  0  0  0  0  0  0  0  0  0  0  0
  150.9214  139.7481  154.7927 N   0  0  0  0  0  0  0  0  0  0  0  0
  151.0123  138.7040  153.9641 C   0  0  0  0  0  0  0  0  0  0  0  0
  150.8970  137.4044  154.2433 N   0  0  0  0  0  0  0  0  0  0  0  0
  150.6537  137.2046  155.5703 C   0  0  0  0  0  0  0  0  0  0  0  0
  148.1627  133.7542  156.0658 C   0  0  0  0  0  0  0  0  0  0  0  0
  146.8945  133.1545  155.4330 C   0  0  0  0  0  0  0  0  0  0  0  0
  147.2465  132.0971  154.5495 O   0  0  0  0  0  0  0  0  0  0  0  0
  148.0385  132.5396  153.4540 C   0  0  0  0  0  0  0  0  0  0  0  0
  149.3768  133.1061  153.9617 C   0  0  0  0  0  0  0  0  0  0  0  0
  149.0226  135.4208  153.4829 H   0  0  0  0  0  0  0  0  0  0  0  0
  150.7647  133.9650  156.4748 H   0  0  0  0  0  0  0  0  0  0  0  0
  151.3179  134.6148  154.9555 H   0  0  0  0  0  0  0  0  0  0  0  0
  150.0547  135.6149  158.3188 H   0  0  0  0  0  0  0  0  0  0  0  0
  150.0065  142.2365  155.7518 H   0  0  0  0  0  0  0  0  0  0  0  0
  148.6876  141.2302  156.3205 H   0  0  0  0  0  0  0  0  0  0  0  0
  148.7399  143.4391  157.5029 H   0  0  0  0  0  0  0  0  0  0  0  0
  148.8844  142.0833  158.5899 H   0  0  0  0  0  0  0  0  0  0  0  0
  150.6113  144.2777  156.7595 H   0  0  0  0  0  0  0  0  0  0  0  0
  149.8741  144.9245  159.3666 H   0  0  0  0  0  0  0  0  0  0  0  0
  149.9389  143.4890  160.3540 H   0  0  0  0  0  0  0  0  0  0  0  0
  152.3168  145.2415  159.5822 H   0  0  0  0  0  0  0  0  0  0  0  0
  151.6061  145.0892  161.1673 H   0  0  0  0  0  0  0  0  0  0  0  0
  153.7040  143.7330  160.9457 H   0  0  0  0  0  0  0  0  0  0  0  0
  152.3210  142.7404  161.3364 H   0  0  0  0  0  0  0  0  0  0  0  0
  153.5692  143.0848  158.5644 H   0  0  0  0  0  0  0  0  0  0  0  0
  153.6370  141.6536  159.5625 H   0  0  0  0  0  0  0  0  0  0  0  0
  151.1953  141.4067  159.4568 H   0  0  0  0  0  0  0  0  0  0  0  0
  152.5235  140.2583  157.7576 H   0  0  0  0  0  0  0  0  0  0  0  0
  152.4133  141.6256  156.6780 H   0  0  0  0  0  0  0  0  0  0  0  0
  151.2058  138.9445  152.9291 H   0  0  0  0  0  0  0  0  0  0  0  0
  148.6280  132.9908  156.6911 H   0  0  0  0  0  0  0  0  0  0  0  0
  147.8953  134.5735  156.7346 H   0  0  0  0  0  0  0  0  0  0  0  0
  146.2431  132.7571  156.2115 H   0  0  0  0  0  0  0  0  0  0  0  0
  146.3210  133.9148  154.9006 H   0  0  0  0  0  0  0  0  0  0  0  0
  148.2205  131.6946  152.7898 H   0  0  0  0  0  0  0  0  0  0  0  0
  147.4925  133.2839  152.8723 H   0  0  0  0  0  0  0  0  0  0  0  0
  149.9653  133.4613  153.1153 H   0  0  0  0  0  0  0  0  0  0  0  0
  149.9483  132.2947  154.4142 H   0  0  0  0  0  0  0  0  0  0  0  0
  1  2  1  0  0  0  0
  1 29  1  0  0  0  0
  2 28  1  0  0  0  0
  2  3  1  0  0  0  0
  2 24  1  0  0  0  0
  3  4  1  0  0  0  0
  3 30  1  0  0  0  0
  3 31  1  0  0  0  0
  4 23  1  0  0  0  0
  4  5  1  0  0  0  0
  5  6  2  0  0  0  0
  5 32  1  0  0  0  0
  6  7  1  0  0  0  0
  7 23  2  0  0  0  0
  7  8  1  0  0  0  0
  8  9  1  0  0  0  0
  8 20  2  0  0  0  0
  9 19  1  0  0  0  0
  9 10  1  0  0  0  0
 10 11  1  0  0  0  0
 10 33  1  0  0  0  0
 10 34  1  0  0  0  0
 11 12  1  0  0  0  0
 11 35  1  0  0  0  0
 11 36  1  0  0  0  0
 12 18  1  0  0  0  0
 12 13  1  0  0  0  0
 12 14  1  0  0  0  0
 13 37  1  0  0  0  0
 14 15  1  0  0  0  0
 14 38  1  0  0  0  0
 14 39  1  0  0  0  0
 15 16  1  0  0  0  0
 15 40  1  0  0  0  0
 15 41  1  0  0  0  0
 16 17  1  0  0  0  0
 16 42  1  0  0  0  0
 16 43  1  0  0  0  0
 17 18  1  0  0  0  0
 17 44  1  0  0  0  0
 17 45  1  0  0  0  0
 18 19  1  0  0  0  0
 18 46  1  0  0  0  0
 19 47  1  0  0  0  0
 19 48  1  0  0  0  0
 20 21  1  0  0  0  0
 21 22  2  0  0  0  0
 21 49  1  0  0  0  0
 22 23  1  0  0  0  0
 24 25  1  0  0  0  0
 24 50  1  0  0  0  0
 24 51  1  0  0  0  0
 25 26  1  0  0  0  0
 25 52  1  0  0  0  0
 25 53  1  0  0  0  0
 26 27  1  0  0  0  0
 27 28  1  0  0  0  0
 27 54  1  0  0  0  0
 27 55  1  0  0  0  0
 28 56  1  0  0  0  0
 28 57  1  0  0  0  0
M  END
> <s_m_source_file>
AV-unprocessed.smi

> <i_m_source_file_index>
263

> <i_lp_mmshare_version>
43012

> <i_f3d_flags>
0

> <s_epik_input>
W0NIMl0xW0NIMl1PW0NIMl1bQ0gyXUMxKFtPSF0pW0NIMl1uKFtjSF1uMiljKGMyMyluW2NIXW5jM04oW0NIMl1bQ0gyXTQpW0NIMl1bQ0BASF0oW0NAXTQ1W09IXSlbQ0gyXVtDSDJdW0NIMl1bQ0gyXTU=

> <s_epik_cmdline>
J2VwaWtfcHl0aG9uJywgJy1waCcsICc3LjAnLCAnLXRuJywgJzgnLCAnLW1hJywgJzIwMCcsICctbWV0YWxfYmluZGluZycsICctaW1hZScsICc8aW5maWxlLm1hZT4nLCAnLW9tYWUnLCAnPG91dGZpbGUubWFlPic=

> <r_lp_tautomer_probability>
1

> <r_epik_Ionization_Penalty>
0.00747493

> <r_epik_Ionization_Penalty_Charging>
0

> <r_epik_Ionization_Penalty_Neutral>
0.00747493

> <r_epik_State_Penalty>
0.00549307

> <r_epik_Charging_Adjusted_Penalty>
0.00549307

> <i_epik_Tot_Q>
0

> <i_epik_Tot_abs_Q>
0

> <r_epik_Metal_State_Penalty>
-0

> <b_epik_Metal_Only>
0

> <s_lp_Force_Field>
OPLS_2005

> <r_lp_Energy>
38.115

> <b_lp_Chiralities_Consistent>
1

> <s_lp_Variant>
AV-unprocessed.smi:263-4

> <Gold.Version>
5.8.1

> <Gold.Id.Protein>
6NUR|6NUR_protein|mol2

> <Gold.PLP.Fitness>
49.1023

> <Gold.PLP.PLP>
-40.8748

> <Gold.PLP.part.hbond>
-3.0000

> <Gold.PLP.part.metal>
0.0000

> <Gold.PLP.part.buried>
-7.5406

> <Gold.PLP.part.nonpolar>
-30.3986

> <Gold.PLP.part.repulsive>
0.4961

> <Gold.PLP.ligand.clash>
0.0000

> <Gold.PLP.ligand.torsion>
1.0326

> <Gold.PLP.Chemscore.Hbond>
2.5260

> <Gold.PLP.Chemscore.CHOScore>
0.7737

> <Gold.PLP.Chemscore.Metal>
0.0000

> <Gold.Chemscore.Hbonds>
donor molecule, donor type, donor heavy atom, donor atom, acceptor molecule, acceptor atom, score
      L1  H     1    29       P1  7948  0.94
      L1  H    13    37       P1  8028  0.91
      P1  H  7989  7998       L1    20  0.55
      L1  C    21    49       P1  7957  0.61

> <Gold.PLP.Chemscore.Internal.Correction>
0.3937

> <Gold.Rescore>
     Score         DG    S(hbond)    S(metal)    S(lipo)     H(rot)  DE(clash)    DE(int)     intcor
     15.66     -16.85       1.82        0.00     102.71       2.62       0.18       1.01       ----

> <Gold.Chemscore.Fitness>
15.6562

> <Gold.Chemscore.DG>
-16.8534

> <Gold.Chemscore.ZeroCoef>
-5.4800

> <Gold.Chemscore.Hbond>
1.8180

> <Gold.Chemscore.Metal>
0.0000

> <Gold.Chemscore.Lipo>
102.7067

> <Gold.Chemscore.Internal_Hbond>
0.0000

> <Gold.Chemscore.DEClash>
0.1830

> <Gold.Chemscore.DEInternal>
1.0142

> <Gold.Chemscore.Rot>
2.6232

> <Gold.Chemscore.Internal.Correction>
   9.000000E+99

> <Gold.Chemscore.Hbonds>
donor molecule, donor type, donor heavy atom, donor atom, acceptor molecule, acceptor atom, score
      L1  H     1    29       P1  7948  0.59
      L1  H    13    37       P1  8028  0.86
      P1  H  7989  7998       L1    20  0.03

> <Gold.Chemscore.Hbond.Weighted>
-6.0722

> <Gold.Chemscore.Metal.Weighted>
-0.0000

> <Gold.Chemscore.Lipo.Weighted>
-12.0167

> <Gold.Chemscore.Internal_Hbond.Weighted>
0.0000

> <Gold.Chemscore.DEClash.Weighted>
0.1830

> <Gold.Chemscore.DEInternal.Weighted>
1.0142

> <Gold.Chemscore.Rot.Weighted>
6.7155

> <Gold.Chemscore.Internal.Correction.Weighted>
   9.000000E+99

> <Gold.Protein.RotatedTorsions>
[ 6907 6896 6895 6894 ] final  179.55 input  -60.11 | X-H torsion
[ 7974 7965 7964 7962 ] final   70.31 input  175.53 | X-H torsion
[ 8008 7997 7996 7995 ] final   -0.13 input   59.86 | X-H torsion
[ 10167 10162 10161 10158 ] final   64.01 input  -65.29 | X-H torsion
[ 10718 10713 10712 10709 ] final -177.74 input   66.30 | X-H torsion
[ 10763 10752 10751 10750 ] final -171.03 input  -60.55 | X-H torsion
[ 11005 11000 10999 10996 ] final   57.20 input  -57.11 | X-H torsion

> <Gold.Protein.ActiveResidues>
 VAL166  LYS551  ARG553  GLY616  TRP617  ASP618  TYR619  PRO620  LYS621  CYS622 
 ASP623  PHE694  ASN695  SER759  ASP760  ASP761  ALA762  ILE779  LEU786  VAL792 
 PHE793  MET794  SER795  GLU796  ALA797  LYS798  CYS799  TRP800  GLU811  SER814 

> <Gold.Protein.RotatedAtoms>
  151.6699  133.3314  159.3193 H   0  0  0  0  0  0  0  0  0  0  0  0  # atno 6907 bound_to 6896
  150.7873  134.6871  159.6486 H   0  0  0  0  0  0  0  0  0  0  0  0  # atno 6908 bound_to 6896
  152.3945  134.6391  160.0147 H   0  0  0  0  0  0  0  0  0  0  0  0  # atno 6909 bound_to 6896
  145.7797  139.2882  143.1273 H   0  0  0  0  0  0  0  0  0  0  0  0  # atno 7974 bound_to 7965
  154.6615  140.2591  155.7103 H   0  0  0  0  0  0  0  0  0  0  0  0  # atno 8008 bound_to 7997
  156.2620  140.2847  156.1011 H   0  0  0  0  0  0  0  0  0  0  0  0  # atno 8009 bound_to 7997
  155.1301  140.0378  157.2762 H   0  0  0  0  0  0  0  0  0  0  0  0  # atno 8010 bound_to 7997
  140.1268  144.4680  150.6888 H   0  0  0  0  0  0  0  0  0  0  0  0  # atno 10167 bound_to 10162
  156.8339  130.9663  151.3104 H   0  0  0  0  0  0  0  0  0  0  0  0  # atno 10718 bound_to 10713
  154.6350  135.2891  155.0172 H   0  0  0  0  0  0  0  0  0  0  0  0  # atno 10763 bound_to 10752
  154.1319  135.6532  153.4928 H   0  0  0  0  0  0  0  0  0  0  0  0  # atno 10764 bound_to 10752
  153.0298  135.5312  154.7192 H   0  0  0  0  0  0  0  0  0  0  0  0  # atno 10765 bound_to 10752
  140.0470  134.5791  155.9310 H   0  0  0  0  0  0  0  0  0  0  0  0  # atno 11005 bound_to 11000
  146.0086  140.8456  142.9982 LP  0  0  0  0  0  0  0  0  0  0  0  0  # atno 17320 bound_to 7965
  144.6798  140.2457  143.7338 LP  0  0  0  0  0  0  0  0  0  0  0  0  # atno 17321 bound_to 7965
  140.6840  143.2341  151.5309 LP  0  0  0  0  0  0  0  0  0  0  0  0  # atno 17342 bound_to 10162
  139.5540  144.2323  152.1580 LP  0  0  0  0  0  0  0  0  0  0  0  0  # atno 17343 bound_to 10162
  157.6392  130.8791  149.9416 LP  0  0  0  0  0  0  0  0  0  0  0  0  # atno 17370 bound_to 10713
  156.0918  130.3662  150.0380 LP  0  0  0  0  0  0  0  0  0  0  0  0  # atno 17371 bound_to 10713
  141.1912  133.6571  156.5445 LP  0  0  0  0  0  0  0  0  0  0  0  0  # atno 17394 bound_to 11000
  140.3977  134.7384  157.4761 LP  0  0  0  0  0  0  0  0  0  0  0  0  # atno 17395 bound_to 11000

$$$$
