AV-unprocessed.smi:1782|AV-procd|sdf|7189|dock8
  -GOLD-   22720 8433D 1   1.00000     0.00000
 Structure written by MMmdl.
 42 44  0  0  0  0  0  0  0  0  2 V2000
  150.9852  140.8398  158.3149 O   0  0  0  0  0  0  0  0  0  0  0  0
  150.9893  141.9733  157.8334 C   0  0  0  0  0  0  0  0  0  0  0  0
  151.8164  143.0964  158.4750 C   0  0  0  0  0  0  0  0  0  0  0  0
  152.4376  142.6999  159.7506 N   0  0  0  0  0  0  0  0  0  0  0  0
  152.1650  143.5054  160.8707 C   0  0  0  0  0  0  0  0  0  0  0  0
  152.6818  143.2344  162.0766 C   0  0  0  0  0  0  0  0  0  0  0  0
  153.5380  142.0810  162.2088 C   0  0  0  0  0  0  0  0  0  0  0  0
  153.8216  141.2892  161.1487 C   0  0  0  0  0  0  0  0  0  0  0  0
  154.7272  140.0658  161.2706 C   0  0  0  0  0  0  0  0  0  0  0  0
  154.0697  138.9596  160.9202 F   0  0  0  0  0  0  0  0  0  0  0  0
  155.7900  140.1885  160.4746 F   0  0  0  0  0  0  0  0  0  0  0  0
  155.1693  139.8993  162.5181 F   0  0  0  0  0  0  0  0  0  0  0  0
  153.2482  141.5986  159.8227 C   0  0  0  0  0  0  0  0  0  0  0  0
  153.4798  140.9108  158.8265 O   0  0  0  0  0  0  0  0  0  0  0  0
  150.3026  142.3020  156.7293 N   0  0  0  0  0  0  0  0  0  0  0  0
  149.4499  141.3865  155.9798 C   0  0  1  0  0  0  0  0  0  0  0  0
  148.4660  142.0665  155.0321 C   0  0  0  0  0  0  0  0  0  0  0  0
  148.1197  140.9429  154.0490 C   0  0  0  0  0  0  0  0  0  0  0  0
  149.2933  140.0349  154.0066 N   0  3  2  0  0  0  0  0  0  0  0  0
  148.9398  138.6050  154.1423 C   0  0  0  0  0  0  0  0  0  0  0  0
  148.8314  138.1434  155.5760 C   0  0  0  0  0  0  0  0  0  0  0  0
  150.0398  137.7656  154.7468 C   0  0  0  0  0  0  0  0  0  0  0  0
  150.2565  140.5055  155.0265 C   0  0  0  0  0  0  0  0  0  0  0  0
  152.5757  143.4089  157.7568 H   0  0  0  0  0  0  0  0  0  0  0  0
  151.1878  143.9764  158.6254 H   0  0  0  0  0  0  0  0  0  0  0  0
  151.5210  144.3530  160.6862 H   0  0  0  0  0  0  0  0  0  0  0  0
  152.4666  143.8651  162.9268 H   0  0  0  0  0  0  0  0  0  0  0  0
  153.9536  141.8603  163.1806 H   0  0  0  0  0  0  0  0  0  0  0  0
  150.3657  143.2534  156.3961 H   0  0  0  0  0  0  0  0  0  0  0  0
  148.9019  140.7457  156.6737 H   0  0  0  0  0  0  0  0  0  0  0  0
  147.5887  142.4666  155.5416 H   0  0  0  0  0  0  0  0  0  0  0  0
  148.9536  142.8874  154.5036 H   0  0  0  0  0  0  0  0  0  0  0  0
  147.2402  140.4055  154.4084 H   0  0  0  0  0  0  0  0  0  0  0  0
  147.8858  141.3262  153.0555 H   0  0  0  0  0  0  0  0  0  0  0  0
  148.2845  138.1913  153.3773 H   0  0  0  0  0  0  0  0  0  0  0  0
  148.9737  138.8786  156.3661 H   0  0  0  0  0  0  0  0  0  0  0  0
  148.1134  137.3562  155.7976 H   0  0  0  0  0  0  0  0  0  0  0  0
  150.1171  136.7297  154.4226 H   0  0  0  0  0  0  0  0  0  0  0  0
  150.9849  138.2490  154.9877 H   0  0  0  0  0  0  0  0  0  0  0  0
  151.0200  141.0952  154.5168 H   0  0  0  0  0  0  0  0  0  0  0  0
  150.7632  139.6879  155.5418 H   0  0  0  0  0  0  0  0  0  0  0  0
  149.7384  140.1465  153.1067 H   0  0  0  0  0  0  0  0  0  0  0  0
  1  2  2  0  0  0  0
  2  3  1  0  0  0  0
  2 15  1  0  0  0  0
  3  4  1  0  0  0  0
  3 24  1  0  0  0  0
  3 25  1  0  0  0  0
  4 13  1  0  0  0  0
  4  5  1  0  0  0  0
  5  6  2  0  0  0  0
  5 26  1  0  0  0  0
  6  7  1  0  0  0  0
  6 27  1  0  0  0  0
  7  8  2  0  0  0  0
  7 28  1  0  0  0  0
  8  9  1  0  0  0  0
  8 13  1  0  0  0  0
  9 10  1  0  0  0  0
  9 11  1  0  0  0  0
  9 12  1  0  0  0  0
 13 14  2  0  0  0  0
 15 16  1  0  0  0  0
 15 29  1  0  0  0  0
 16 23  1  0  0  0  0
 16 17  1  0  0  0  0
 16 30  1  0  0  0  0
 17 18  1  0  0  0  0
 17 31  1  0  0  0  0
 17 32  1  0  0  0  0
 18 19  1  0  0  0  0
 18 33  1  0  0  0  0
 18 34  1  0  0  0  0
 19 20  1  0  0  0  0
 19 23  1  0  0  0  0
 19 42  1  0  0  0  0
 20 22  1  0  0  0  0
 20 21  1  0  0  0  0
 20 35  1  0  0  0  0
 21 22  1  0  0  0  0
 21 36  1  0  0  0  0
 21 37  1  0  0  0  0
 22 38  1  0  0  0  0
 22 39  1  0  0  0  0
 23 40  1  0  0  0  0
 23 41  1  0  0  0  0
M  CHG  1  19   1
M  END
> <s_m_source_file>
AV-unprocessed.smi

> <i_m_source_file_index>
1782

> <i_lp_mmshare_version>
43012

> <i_f3d_flags>
0

> <s_epik_input>
W0NIMl0xW0NIMl1bQ0hdMU4oW0NIMl0yKVtDSDJdW0NIMl1bQ0BIXTJbTkhdQyg9TylbQ0gyXW4zW2NIXVtjSF1bY0hdYyhDKEYpKEYpRiljMz1P

> <s_epik_cmdline>
J2VwaWtfcHl0aG9uJywgJy1waCcsICc3LjAnLCAnLXRuJywgJzgnLCAnLW1hJywgJzIwMCcsICctbWV0YWxfYmluZGluZycsICctaW1hZScsICc8aW5maWxlLm1hZT4nLCAnLW9tYWUnLCAnPG91dGZpbGUubWFlPic=

> <r_lp_tautomer_probability>
1

> <r_epik_Ionization_Penalty>
0.00106789

> <r_epik_Ionization_Penalty_Charging>
0.00106781

> <r_epik_Ionization_Penalty_Neutral>
8.2288e-08

> <r_epik_State_Penalty>
0.000699156

> <r_epik_Charging_Adjusted_Penalty>
0.00176697

> <i_epik_Tot_Q>
1

> <i_epik_Tot_abs_Q>
1

> <r_epik_Metal_State_Penalty>
-0

> <b_epik_Metal_Only>
0

> <s_lp_Force_Field>
OPLS_2005

> <r_lp_Energy>
46.9995

> <b_lp_Chiralities_Consistent>
1

> <s_lp_Variant>
AV-unprocessed.smi:1782-2

> <Gold.Version>
5.8.1

> <Gold.Id.Protein>
6NUR|6NUR_protein|mol2

> <Gold.PLP.Fitness>
51.8056

> <Gold.PLP.PLP>
-47.1676

> <Gold.PLP.part.hbond>
-3.0000

> <Gold.PLP.part.metal>
0.0000

> <Gold.PLP.part.buried>
0.5304

> <Gold.PLP.part.nonpolar>
-45.1836

> <Gold.PLP.part.repulsive>
0.1926

> <Gold.PLP.ligand.clash>
0.3076

> <Gold.PLP.ligand.torsion>
0.9584

> <Gold.PLP.Chemscore.Hbond>
1.7525

> <Gold.PLP.Chemscore.CHOScore>
0.0000

> <Gold.PLP.Chemscore.Metal>
0.0000

> <Gold.Chemscore.Hbonds>
donor molecule, donor type, donor heavy atom, donor atom, acceptor molecule, acceptor atom, score
      L1  H    15    29       P1  8028  0.39
      L1  H    19    42       P1  7957  0.98
      P1  H  7997  8008       L1    14  0.26

> <Gold.PLP.Chemscore.Internal.Correction>
1.6049

> <Gold.Rescore>
     Score         DG    S(hbond)    S(metal)    S(lipo)     H(rot)  DE(clash)    DE(int)     intcor
     10.00     -18.64       1.76        0.00     101.78       1.81       0.88       7.76       ----

> <Gold.Chemscore.Fitness>
10.0016

> <Gold.Chemscore.DG>
-18.6439

> <Gold.Chemscore.ZeroCoef>
-5.4800

> <Gold.Chemscore.Hbond>
1.7631

> <Gold.Chemscore.Metal>
0.0000

> <Gold.Chemscore.Lipo>
101.7846

> <Gold.Chemscore.Internal_Hbond>
0.0000

> <Gold.Chemscore.DEClash>
0.8777

> <Gold.Chemscore.DEInternal>
7.7646

> <Gold.Chemscore.Rot>
1.8101

> <Gold.Chemscore.Internal.Correction>
   9.000000E+99

> <Gold.Chemscore.Hbonds>
donor molecule, donor type, donor heavy atom, donor atom, acceptor molecule, acceptor atom, score
      L1  H    15    29       P1  8028  0.39
      L1  H    19    42       P1  7957  0.92
      P1  H  7997  8008       L1    14  0.25

> <Gold.Chemscore.Hbond.Weighted>
-5.8889

> <Gold.Chemscore.Metal.Weighted>
-0.0000

> <Gold.Chemscore.Lipo.Weighted>
-11.9088

> <Gold.Chemscore.Internal_Hbond.Weighted>
0.0000

> <Gold.Chemscore.DEClash.Weighted>
0.8777

> <Gold.Chemscore.DEInternal.Weighted>
7.7646

> <Gold.Chemscore.Rot.Weighted>
4.6338

> <Gold.Chemscore.Internal.Correction.Weighted>
   9.000000E+99

> <Gold.Protein.RotatedTorsions>
[ 6907 6896 6895 6894 ] final   -6.26 input  -60.11 | X-H torsion
[ 7974 7965 7964 7962 ] final  136.00 input  175.53 | X-H torsion
[ 8008 7997 7996 7995 ] final -100.67 input   59.86 | X-H torsion
[ 10167 10162 10161 10158 ] final -115.52 input  -65.29 | X-H torsion
[ 10718 10713 10712 10709 ] final   15.68 input   66.30 | X-H torsion
[ 10763 10752 10751 10750 ] final  -93.81 input  -60.55 | X-H torsion
[ 11005 11000 10999 10996 ] final  119.09 input  -57.11 | X-H torsion

> <Gold.Protein.ActiveResidues>
 VAL166  LYS551  ARG553  GLY616  TRP617  ASP618  TYR619  PRO620  LYS621  CYS622 
 ASP623  PHE694  ASN695  SER759  ASP760  ASP761  ALA762  ILE779  LEU786  VAL792 
 PHE793  MET794  SER795  GLU796  ALA797  LYS798  CYS799  TRP800  GLU811  SER814 

> <Gold.Protein.RotatedAtoms>
  151.4685  135.1044  159.9744 H   0  0  0  0  0  0  0  0  0  0  0  0  # atno 6907 bound_to 6896
  152.4826  133.8287  159.7102 H   0  0  0  0  0  0  0  0  0  0  0  0  # atno 6908 bound_to 6896
  150.8909  133.7184  159.2932 H   0  0  0  0  0  0  0  0  0  0  0  0  # atno 6909 bound_to 6896
  144.9607  139.4713  143.5481 H   0  0  0  0  0  0  0  0  0  0  0  0  # atno 7974 bound_to 7965
  154.8319  140.0439  157.1482 H   0  0  0  0  0  0  0  0  0  0  0  0  # atno 8008 bound_to 7997
  154.9143  140.3018  155.5229 H   0  0  0  0  0  0  0  0  0  0  0  0  # atno 8009 bound_to 7997
  156.2987  140.2352  156.4186 H   0  0  0  0  0  0  0  0  0  0  0  0  # atno 8010 bound_to 7997
  140.0891  143.4716  152.1880 H   0  0  0  0  0  0  0  0  0  0  0  0  # atno 10167 bound_to 10162
  157.0570  130.6293  149.5778 H   0  0  0  0  0  0  0  0  0  0  0  0  # atno 10718 bound_to 10713
  154.6995  135.5180  153.8506 H   0  0  0  0  0  0  0  0  0  0  0  0  # atno 10763 bound_to 10752
  153.0693  135.6595  154.0292 H   0  0  0  0  0  0  0  0  0  0  0  0  # atno 10764 bound_to 10752
  154.0154  135.2998  155.3367 H   0  0  0  0  0  0  0  0  0  0  0  0  # atno 10765 bound_to 10752
  139.9133  134.9626  156.7603 H   0  0  0  0  0  0  0  0  0  0  0  0  # atno 11005 bound_to 11000
  146.3352  139.8755  142.8833 LP  0  0  0  0  0  0  0  0  0  0  0  0  # atno 17320 bound_to 7965
  145.2704  141.0106  143.3775 LP  0  0  0  0  0  0  0  0  0  0  0  0  # atno 17321 bound_to 7965
  139.5735  144.7475  151.3828 LP  0  0  0  0  0  0  0  0  0  0  0  0  # atno 17342 bound_to 10162
  140.7038  143.7566  150.7447 LP  0  0  0  0  0  0  0  0  0  0  0  0  # atno 17343 bound_to 10162
  155.9990  130.5065  150.7591 LP  0  0  0  0  0  0  0  0  0  0  0  0  # atno 17370 bound_to 10713
  157.4985  131.0916  151.0343 LP  0  0  0  0  0  0  0  0  0  0  0  0  # atno 17371 bound_to 10713
  140.6703  133.9565  155.7853 LP  0  0  0  0  0  0  0  0  0  0  0  0  # atno 17394 bound_to 11000
  141.0582  134.0385  157.3694 LP  0  0  0  0  0  0  0  0  0  0  0  0  # atno 17395 bound_to 11000

$$$$
