AV-unprocessed.smi:351|AV-procd|sdf|2400|dock3
  -GOLD-   2262022333D 1   1.00000     0.00000
 Structure written by MMmdl.
 39 40  0  0  0  0  0  0  0  0  1 V2000
  153.5983  140.7229  160.3347 C   0  0  0  0  0  0  0  0  0  0  0  0
  152.8501  142.0420  160.3811 C   0  0  0  0  0  0  0  0  0  0  0  0
  152.9683  142.8698  161.5173 C   0  0  0  0  0  0  0  0  0  0  0  0
  152.2802  144.0951  161.5766 C   0  0  0  0  0  0  0  0  0  0  0  0
  151.4704  144.4952  160.4990 C   0  0  0  0  0  0  0  0  0  0  0  0
  151.3483  143.6724  159.3632 C   0  0  0  0  0  0  0  0  0  0  0  0
  152.0378  142.4347  159.2915 C   0  0  0  0  0  0  0  0  0  0  0  0
  151.9647  141.5780  158.2122 O   0  0  0  0  0  0  0  0  0  0  0  0
  150.9611  141.8042  157.2333 C   0  0  0  0  0  0  0  0  0  0  0  0
  151.4022  141.1258  155.9234 C   0  0  0  0  0  0  0  0  0  0  0  0
  150.3060  140.3463  155.3026 N   0  0  0  0  0  0  0  0  0  0  0  0
  150.4777  138.9514  155.0361 C   0  0  0  0  0  0  0  0  0  0  0  0
  151.8154  138.2760  155.3714 C   0  0  0  0  0  0  0  0  0  0  0  0
  151.7866  136.9758  155.0746 F   0  0  0  0  0  0  0  0  0  0  0  0
  152.8274  138.7998  154.6805 F   0  0  0  0  0  0  0  0  0  0  0  0
  152.0786  138.3693  156.6753 F   0  0  0  0  0  0  0  0  0  0  0  0
  149.4758  138.2498  154.4747 C   0  0  0  0  0  0  0  0  0  0  0  0
  148.2340  138.8953  154.1505 C   0  0  0  0  0  0  0  0  0  0  0  0
  148.0549  140.2127  154.3982 C   0  0  0  0  0  0  0  0  0  0  0  0
  146.7951  140.9224  154.0775 C   0  0  0  0  0  0  0  0  0  0  0  0
  145.7929  140.1202  153.6966 N   0  0  0  0  0  0  0  0  0  0  0  0
  146.5942  142.1358  154.1280 O   0  0  0  0  0  0  0  0  0  0  0  0
  149.1409  141.0195  155.0126 C   0  0  0  0  0  0  0  0  0  0  0  0
  149.0431  142.2247  155.2643 O   0  0  0  0  0  0  0  0  0  0  0  0
  154.2502  140.6023  161.2004 H   0  0  0  0  0  0  0  0  0  0  0  0
  154.2149  140.6661  159.4374 H   0  0  0  0  0  0  0  0  0  0  0  0
  152.8938  139.8910  160.3208 H   0  0  0  0  0  0  0  0  0  0  0  0
  153.5868  142.5675  162.3494 H   0  0  0  0  0  0  0  0  0  0  0  0
  152.3726  144.7263  162.4480 H   0  0  0  0  0  0  0  0  0  0  0  0
  150.9403  145.4351  160.5429 H   0  0  0  0  0  0  0  0  0  0  0  0
  150.7163  144.0154  158.5586 H   0  0  0  0  0  0  0  0  0  0  0  0
  150.0117  141.3886  157.5733 H   0  0  0  0  0  0  0  0  0  0  0  0
  150.8226  142.8744  157.0781 H   0  0  0  0  0  0  0  0  0  0  0  0
  151.8211  141.8716  155.2552 H   0  0  0  0  0  0  0  0  0  0  0  0
  152.2600  140.4813  156.1252 H   0  0  0  0  0  0  0  0  0  0  0  0
  149.5849  137.1973  154.2594 H   0  0  0  0  0  0  0  0  0  0  0  0
  147.4638  138.2843  153.7035 H   0  0  0  0  0  0  0  0  0  0  0  0
  144.8944  140.5123  153.4558 H   0  0  0  0  0  0  0  0  0  0  0  0
  145.9419  139.1225  153.6505 H   0  0  0  0  0  0  0  0  0  0  0  0
  1  2  1  0  0  0  0
  1 25  1  0  0  0  0
  1 26  1  0  0  0  0
  1 27  1  0  0  0  0
  2  7  1  0  0  0  0
  2  3  2  0  0  0  0
  3  4  1  0  0  0  0
  3 28  1  0  0  0  0
  4  5  2  0  0  0  0
  4 29  1  0  0  0  0
  5  6  1  0  0  0  0
  5 30  1  0  0  0  0
  6  7  2  0  0  0  0
  6 31  1  0  0  0  0
  7  8  1  0  0  0  0
  8  9  1  0  0  0  0
  9 10  1  0  0  0  0
  9 32  1  0  0  0  0
  9 33  1  0  0  0  0
 10 11  1  0  0  0  0
 10 34  1  0  0  0  0
 10 35  1  0  0  0  0
 11 23  1  0  0  0  0
 11 12  1  0  0  0  0
 12 13  1  0  0  0  0
 12 17  2  0  0  0  0
 13 14  1  0  0  0  0
 13 15  1  0  0  0  0
 13 16  1  0  0  0  0
 17 18  1  0  0  0  0
 17 36  1  0  0  0  0
 18 19  2  0  0  0  0
 18 37  1  0  0  0  0
 19 20  1  0  0  0  0
 19 23  1  0  0  0  0
 20 21  1  0  0  0  0
 20 22  2  0  0  0  0
 21 38  1  0  0  0  0
 21 39  1  0  0  0  0
 23 24  2  0  0  0  0
M  END
> <s_m_source_file>
AV-unprocessed.smi

> <i_m_source_file_index>
351

> <i_lp_mmshare_version>
43012

> <i_f3d_flags>
0

> <s_epik_input>
W0NIM11jMVtjSF1bY0hdW2NIXVtjSF1jMU9bQ0gyXVtDSDJdbjJjKEMoRikoRilGKVtjSF1bY0hdYyhjMj1PKUMoPU8pW05IMl0=

> <s_epik_cmdline>
J2VwaWtfcHl0aG9uJywgJy1waCcsICc3LjAnLCAnLXRuJywgJzgnLCAnLW1hJywgJzIwMCcsICctbWV0YWxfYmluZGluZycsICctaW1hZScsICc8aW5maWxlLm1hZT4nLCAnLW9tYWUnLCAnPG91dGZpbGUubWFlPic=

> <r_lp_tautomer_probability>
1

> <r_epik_Ionization_Penalty>
1.75286e-06

> <r_epik_Ionization_Penalty_Charging>
1.15608e-09

> <r_epik_Ionization_Penalty_Neutral>
1.7517e-06

> <r_epik_State_Penalty>
-0

> <r_epik_Charging_Adjusted_Penalty>
1.15608e-09

> <i_epik_Tot_Q>
0

> <i_epik_Tot_abs_Q>
0

> <r_epik_Metal_State_Penalty>
-0

> <b_epik_Metal_Only>
0

> <s_lp_Force_Field>
OPLS_2005

> <r_lp_Energy>
33.8975

> <b_lp_Chiralities_Consistent>
1

> <s_lp_Variant>
AV-unprocessed.smi:351-1

> <Gold.Version>
5.8.1

> <Gold.Id.Protein>
6NUR|6NUR_protein|mol2

> <Gold.PLP.Fitness>
47.6737

> <Gold.PLP.PLP>
-45.8598

> <Gold.PLP.part.hbond>
-0.8196

> <Gold.PLP.part.metal>
0.0000

> <Gold.PLP.part.buried>
-4.0298

> <Gold.PLP.part.nonpolar>
-45.3465

> <Gold.PLP.part.repulsive>
4.0156

> <Gold.PLP.ligand.clash>
3.7654

> <Gold.PLP.ligand.torsion>
0.6291

> <Gold.PLP.Chemscore.Hbond>
1.0000

> <Gold.PLP.Chemscore.CHOScore>
0.0000

> <Gold.PLP.Chemscore.Metal>
0.0000

> <Gold.Chemscore.Hbonds>
donor molecule, donor type, donor heavy atom, donor atom, acceptor molecule, acceptor atom, score
      L1  H    21    38       P1 10175  0.94

> <Gold.PLP.Chemscore.Internal.Correction>
3.8376

> <Gold.Rescore>
     Score         DG    S(hbond)    S(metal)    S(lipo)     H(rot)  DE(clash)    DE(int)     intcor
     11.34     -17.69       1.00        0.00     116.05       1.84       0.56       5.79       ----

> <Gold.Chemscore.Fitness>
11.3372

> <Gold.Chemscore.DG>
-17.6932

> <Gold.Chemscore.ZeroCoef>
-5.4800

> <Gold.Chemscore.Hbond>
1.0025

> <Gold.Chemscore.Metal>
0.0000

> <Gold.Chemscore.Lipo>
116.0533

> <Gold.Chemscore.Internal_Hbond>
0.0000

> <Gold.Chemscore.DEClash>
0.5624

> <Gold.Chemscore.DEInternal>
5.7937

> <Gold.Chemscore.Rot>
1.8412

> <Gold.Chemscore.Internal.Correction>
   9.000000E+99

> <Gold.Chemscore.Hbonds>
donor molecule, donor type, donor heavy atom, donor atom, acceptor molecule, acceptor atom, score
      L1  H    21    38       P1 10175  0.86

> <Gold.Chemscore.Hbond.Weighted>
-3.3484

> <Gold.Chemscore.Metal.Weighted>
-0.0000

> <Gold.Chemscore.Lipo.Weighted>
-13.5782

> <Gold.Chemscore.Internal_Hbond.Weighted>
0.0000

> <Gold.Chemscore.DEClash.Weighted>
0.5624

> <Gold.Chemscore.DEInternal.Weighted>
5.7937

> <Gold.Chemscore.Rot.Weighted>
4.7134

> <Gold.Chemscore.Internal.Correction.Weighted>
   9.000000E+99

> <Gold.Protein.RotatedTorsions>
[ 6907 6896 6895 6894 ] final  -88.48 input  -60.11 | X-H torsion
[ 7974 7965 7964 7962 ] final  153.87 input  175.53 | X-H torsion
[ 8008 7997 7996 7995 ] final  -66.46 input   59.86 | X-H torsion
[ 10167 10162 10161 10158 ] final  -13.43 input  -65.29 | X-H torsion
[ 10718 10713 10712 10709 ] final  -24.60 input   66.30 | X-H torsion
[ 10763 10752 10751 10750 ] final   34.71 input  -60.55 | X-H torsion
[ 11005 11000 10999 10996 ] final  -49.47 input  -57.11 | X-H torsion

> <Gold.Protein.ActiveResidues>
 VAL166  LYS551  ARG553  GLY616  TRP617  ASP618  TYR619  PRO620  LYS621  CYS622 
 ASP623  PHE694  ASN695  SER759  ASP760  ASP761  ALA762  ILE779  LEU786  VAL792 
 PHE793  MET794  SER795  GLU796  ALA797  LYS798  CYS799  TRP800  GLU811  SER814 

> <Gold.Protein.RotatedAtoms>
  150.6869  134.2734  159.4597 H   0  0  0  0  0  0  0  0  0  0  0  0  # atno 6907 bound_to 6896
  152.0655  134.9565  160.0584 H   0  0  0  0  0  0  0  0  0  0  0  0  # atno 6908 bound_to 6896
  152.0975  133.4197  159.4609 H   0  0  0  0  0  0  0  0  0  0  0  0  # atno 6909 bound_to 6896
  144.8126  139.6858  143.6135 H   0  0  0  0  0  0  0  0  0  0  0  0  # atno 7974 bound_to 7965
  154.4736  140.0912  156.7206 H   0  0  0  0  0  0  0  0  0  0  0  0  # atno 8008 bound_to 7997
  155.4657  140.3462  155.4300 H   0  0  0  0  0  0  0  0  0  0  0  0  # atno 8009 bound_to 7997
  156.1080  140.1440  156.9366 H   0  0  0  0  0  0  0  0  0  0  0  0  # atno 8010 bound_to 7997
  140.7182  143.5427  150.9390 H   0  0  0  0  0  0  0  0  0  0  0  0  # atno 10167 bound_to 10162
  156.4756  130.4534  149.6843 H   0  0  0  0  0  0  0  0  0  0  0  0  # atno 10718 bound_to 10713
  153.0151  135.6353  154.1712 H   0  0  0  0  0  0  0  0  0  0  0  0  # atno 10763 bound_to 10752
  154.1451  135.2832  155.3152 H   0  0  0  0  0  0  0  0  0  0  0  0  # atno 10764 bound_to 10752
  154.6095  135.5561  153.7519 H   0  0  0  0  0  0  0  0  0  0  0  0  # atno 10765 bound_to 10752
  141.0761  133.6665  156.3590 H   0  0  0  0  0  0  0  0  0  0  0  0  # atno 11005 bound_to 11000
  146.2426  139.6032  142.9481 LP  0  0  0  0  0  0  0  0  0  0  0  0  # atno 17320 bound_to 7965
  145.5289  141.0428  143.2394 LP  0  0  0  0  0  0  0  0  0  0  0  0  # atno 17321 bound_to 7965
  139.9150  143.6674  152.3108 LP  0  0  0  0  0  0  0  0  0  0  0  0  # atno 17342 bound_to 10162
  139.7071  144.7626  151.1175 LP  0  0  0  0  0  0  0  0  0  0  0  0  # atno 17343 bound_to 10162
  156.3574  130.7464  151.2431 LP  0  0  0  0  0  0  0  0  0  0  0  0  # atno 17370 bound_to 10713
  157.7488  131.0360  150.4388 LP  0  0  0  0  0  0  0  0  0  0  0  0  # atno 17371 bound_to 10713
  140.5571  134.5971  157.5423 LP  0  0  0  0  0  0  0  0  0  0  0  0  # atno 17394 bound_to 11000
  139.9573  134.7513  156.0313 LP  0  0  0  0  0  0  0  0  0  0  0  0  # atno 17395 bound_to 11000

$$$$
