AV-unprocessed.smi:239|AV-procd|sdf|1823|dock10
  -GOLD-   2262020423D 1   1.00000     0.00000
 Structure written by MMmdl.
 54 58  0  0  0  0  0  0  0  0  1 V2000
  148.8328  140.9294  154.5042 C   0  0  0  0  0  0  0  0  0  0  0  0
  149.7330  139.9420  155.2533 C   0  0  1  0  0  0  0  0  0  0  0  0
  149.4885  138.4893  154.8077 C   0  0  0  0  0  0  0  0  0  0  0  0
  150.4451  137.6025  155.4609 N   0  0  0  0  0  0  0  0  0  0  0  0
  150.2077  136.2677  155.4381 C   0  0  0  0  0  0  0  0  0  0  0  0
  151.1931  135.3944  155.7783 N   0  0  0  0  0  0  0  0  0  0  0  0
  150.9620  134.0782  155.7645 C   0  0  0  0  0  0  0  0  0  0  0  0
  149.8402  133.4313  155.4429 N   0  0  0  0  0  0  0  0  0  0  0  0
  148.8513  134.3016  155.0898 C   0  0  0  0  0  0  0  0  0  0  0  0
  148.9484  135.7214  155.0623 C   0  0  0  0  0  0  0  0  0  0  0  0
  147.7423  136.2699  154.6421 N   0  0  0  0  0  0  0  0  0  0  0  0
  146.9756  135.2340  154.4363 C   0  0  0  0  0  0  0  0  0  0  0  0
  147.5638  134.0122  154.6730 N   0  0  0  0  0  0  0  0  0  0  0  0
  146.9464  132.7044  154.5139 C   0  0  0  0  0  0  0  0  0  0  0  0
  146.6067  132.3470  153.0456 C   0  0  0  0  0  0  0  0  0  0  0  0
  147.7434  132.6507  152.2548 O   0  0  0  0  0  0  0  0  0  0  0  0
  146.2664  130.8514  152.8616 C   0  0  0  0  0  0  0  0  0  0  0  0
  145.7310  130.5465  151.4516 C   0  0  0  0  0  0  0  0  0  0  0  0
  144.6124  131.3761  151.1625 O   0  0  0  0  0  0  0  0  0  0  0  0
  144.9424  132.7596  151.1493 C   0  0  0  0  0  0  0  0  0  0  0  0
  145.4240  133.1994  152.5435 C   0  0  0  0  0  0  0  0  0  0  0  0
  151.8331  137.9868  155.2317 C   0  0  0  0  0  0  0  0  0  0  0  0
  152.0602  139.4569  155.6290 C   0  0  2  0  0  0  0  0  0  0  0  0
  152.1006  139.6620  157.1368 C   0  0  0  0  0  0  0  0  0  0  0  0
  150.8835  139.3811  157.9849 C   0  0  0  0  0  0  0  0  0  0  0  0
  151.3511  140.8031  157.7834 C   0  0  0  0  0  0  0  0  0  0  0  0
  151.0919  140.2972  154.9963 O   0  0  0  0  0  0  0  0  0  0  0  0
  147.7792  140.7092  154.6777 H   0  0  0  0  0  0  0  0  0  0  0  0
  149.0114  140.8883  153.4293 H   0  0  0  0  0  0  0  0  0  0  0  0
  149.0173  141.9520  154.8344 H   0  0  0  0  0  0  0  0  0  0  0  0
  149.5259  140.0363  156.3196 H   0  0  0  0  0  0  0  0  0  0  0  0
  148.4689  138.1944  155.0602 H   0  0  0  0  0  0  0  0  0  0  0  0
  149.5953  138.4026  153.7253 H   0  0  0  0  0  0  0  0  0  0  0  0
  151.7956  133.4543  156.0512 H   0  0  0  0  0  0  0  0  0  0  0  0
  145.9554  135.3319  154.0946 H   0  0  0  0  0  0  0  0  0  0  0  0
  147.6224  131.9582  154.9337 H   0  0  0  0  0  0  0  0  0  0  0  0
  146.0456  132.6761  155.1286 H   0  0  0  0  0  0  0  0  0  0  0  0
  147.9674  131.8873  151.7448 H   0  0  0  0  0  0  0  0  0  0  0  0
  147.1355  130.2247  153.0653 H   0  0  0  0  0  0  0  0  0  0  0  0
  145.5050  130.5653  153.5885 H   0  0  0  0  0  0  0  0  0  0  0  0
  146.5071  130.6862  150.6976 H   0  0  0  0  0  0  0  0  0  0  0  0
  145.4188  129.5038  151.3915 H   0  0  0  0  0  0  0  0  0  0  0  0
  145.6999  132.9575  150.3895 H   0  0  0  0  0  0  0  0  0  0  0  0
  144.0564  133.3280  150.8659 H   0  0  0  0  0  0  0  0  0  0  0  0
  144.5901  133.1049  153.2405 H   0  0  0  0  0  0  0  0  0  0  0  0
  145.6917  134.2568  152.5309 H   0  0  0  0  0  0  0  0  0  0  0  0
  152.5278  137.3465  155.7748 H   0  0  0  0  0  0  0  0  0  0  0  0
  152.0532  137.8567  154.1714 H   0  0  0  0  0  0  0  0  0  0  0  0
  153.0306  139.7625  155.2359 H   0  0  0  0  0  0  0  0  0  0  0  0
  153.0575  139.4180  157.5942 H   0  0  0  0  0  0  0  0  0  0  0  0
  149.9721  139.0740  157.4757 H   0  0  0  0  0  0  0  0  0  0  0  0
  151.0464  138.9308  158.9619 H   0  0  0  0  0  0  0  0  0  0  0  0
  151.8269  141.3011  158.6258 H   0  0  0  0  0  0  0  0  0  0  0  0
  150.7480  141.4440  157.1433 H   0  0  0  0  0  0  0  0  0  0  0  0
  1  2  1  0  0  0  0
  1 28  1  0  0  0  0
  1 29  1  0  0  0  0
  1 30  1  0  0  0  0
  2 27  1  0  0  0  0
  2  3  1  0  0  0  0
  2 31  1  0  0  0  0
  3  4  1  0  0  0  0
  3 32  1  0  0  0  0
  3 33  1  0  0  0  0
  4  5  1  0  0  0  0
  4 22  1  0  0  0  0
  5 10  1  0  0  0  0
  5  6  2  0  0  0  0
  6  7  1  0  0  0  0
  7  8  2  0  0  0  0
  7 34  1  0  0  0  0
  8  9  1  0  0  0  0
  9 13  1  0  0  0  0
  9 10  2  0  0  0  0
 10 11  1  0  0  0  0
 11 12  2  0  0  0  0
 12 13  1  0  0  0  0
 12 35  1  0  0  0  0
 13 14  1  0  0  0  0
 14 15  1  0  0  0  0
 14 36  1  0  0  0  0
 14 37  1  0  0  0  0
 15 21  1  0  0  0  0
 15 16  1  0  0  0  0
 15 17  1  0  0  0  0
 16 38  1  0  0  0  0
 17 18  1  0  0  0  0
 17 39  1  0  0  0  0
 17 40  1  0  0  0  0
 18 19  1  0  0  0  0
 18 41  1  0  0  0  0
 18 42  1  0  0  0  0
 19 20  1  0  0  0  0
 20 21  1  0  0  0  0
 20 43  1  0  0  0  0
 20 44  1  0  0  0  0
 21 45  1  0  0  0  0
 21 46  1  0  0  0  0
 22 23  1  0  0  0  0
 22 47  1  0  0  0  0
 22 48  1  0  0  0  0
 23 24  1  0  0  0  0
 23 27  1  0  0  0  0
 23 49  1  0  0  0  0
 24 26  1  0  0  0  0
 24 25  1  0  0  0  0
 24 50  1  0  0  0  0
 25 26  1  0  0  0  0
 25 51  1  0  0  0  0
 25 52  1  0  0  0  0
 26 53  1  0  0  0  0
 26 54  1  0  0  0  0
M  END
> <s_m_source_file>
AV-unprocessed.smi

> <i_m_source_file_index>
239

> <i_lp_mmshare_version>
43012

> <i_f3d_flags>
0

> <s_epik_input>
W0NIMl0xW0NIMl1bQ0hdMVtDQEBIXShPMilbQ0gyXU4oW0NIMl1bQ0BIXTJbQ0gzXSljKG5bY0hdbjMpYyhjMzQpbltjSF1uNFtDSDJdQzUoW09IXSlbQ0gyXVtDSDJdT1tDSDJdW0NIMl01

> <s_epik_cmdline>
J2VwaWtfcHl0aG9uJywgJy1waCcsICc3LjAnLCAnLXRuJywgJzgnLCAnLW1hJywgJzIwMCcsICctbWV0YWxfYmluZGluZycsICctaW1hZScsICc8aW5maWxlLm1hZT4nLCAnLW9tYWUnLCAnPG91dGZpbGUubWFlPic=

> <r_lp_tautomer_probability>
1

> <r_epik_Ionization_Penalty>
9.13091e-05

> <r_epik_Ionization_Penalty_Charging>
0

> <r_epik_Ionization_Penalty_Neutral>
9.13091e-05

> <r_epik_State_Penalty>
-0

> <r_epik_Charging_Adjusted_Penalty>
0

> <i_epik_Tot_Q>
0

> <i_epik_Tot_abs_Q>
0

> <r_epik_Metal_State_Penalty>
-0

> <b_epik_Metal_Only>
0

> <s_lp_Force_Field>
OPLS_2005

> <r_lp_Energy>
39.3472

> <b_lp_Chiralities_Consistent>
1

> <s_lp_Variant>
AV-unprocessed.smi:239-4

> <Gold.Version>
5.8.1

> <Gold.Id.Protein>
6NUR|6NUR_protein|mol2

> <Gold.PLP.Fitness>
44.5526

> <Gold.PLP.PLP>
-36.8726

> <Gold.PLP.part.hbond>
-3.0000

> <Gold.PLP.part.metal>
0.0000

> <Gold.PLP.part.buried>
-7.5477

> <Gold.PLP.part.nonpolar>
-28.1100

> <Gold.PLP.part.repulsive>
1.7415

> <Gold.PLP.ligand.clash>
0.0000

> <Gold.PLP.ligand.torsion>
1.3659

> <Gold.PLP.Chemscore.Hbond>
3.0000

> <Gold.PLP.Chemscore.CHOScore>
0.0000

> <Gold.PLP.Chemscore.Metal>
0.0000

> <Gold.Chemscore.Hbonds>
donor molecule, donor type, donor heavy atom, donor atom, acceptor molecule, acceptor atom, score
      L1  H    16    38       P1 10747  0.94
      P1  H  7989  7998       L1    27  1.00
      P1  H 10752 10763       L1     6  0.99

> <Gold.PLP.Chemscore.Internal.Correction>
1.4117

> <Gold.Rescore>
     Score         DG    S(hbond)    S(metal)    S(lipo)     H(rot)  DE(clash)    DE(int)     intcor
     13.25     -18.00       2.40        0.00      87.50       2.24       1.12       3.64       ----

> <Gold.Chemscore.Fitness>
13.2462

> <Gold.Chemscore.DG>
-18.0032

> <Gold.Chemscore.ZeroCoef>
-5.4800

> <Gold.Chemscore.Hbond>
2.4002

> <Gold.Chemscore.Metal>
0.0000

> <Gold.Chemscore.Lipo>
87.5023

> <Gold.Chemscore.Internal_Hbond>
0.0000

> <Gold.Chemscore.DEClash>
1.1185

> <Gold.Chemscore.DEInternal>
3.6385

> <Gold.Chemscore.Rot>
2.2387

> <Gold.Chemscore.Internal.Correction>
   9.000000E+99

> <Gold.Chemscore.Hbonds>
donor molecule, donor type, donor heavy atom, donor atom, acceptor molecule, acceptor atom, score
      L1  H    16    38       P1 10747  0.88
      P1  H  7989  7998       L1    27  0.80
      P1  H 10752 10763       L1     6  0.27

> <Gold.Chemscore.Hbond.Weighted>
-8.0166

> <Gold.Chemscore.Metal.Weighted>
-0.0000

> <Gold.Chemscore.Lipo.Weighted>
-10.2378

> <Gold.Chemscore.Internal_Hbond.Weighted>
0.0000

> <Gold.Chemscore.DEClash.Weighted>
1.1185

> <Gold.Chemscore.DEInternal.Weighted>
3.6385

> <Gold.Chemscore.Rot.Weighted>
5.7311

> <Gold.Chemscore.Internal.Correction.Weighted>
   9.000000E+99

> <Gold.Protein.RotatedTorsions>
[ 6907 6896 6895 6894 ] final  -56.42 input  -60.11 | X-H torsion
[ 7974 7965 7964 7962 ] final   40.54 input  175.53 | X-H torsion
[ 8008 7997 7996 7995 ] final   51.11 input   59.86 | X-H torsion
[ 10167 10162 10161 10158 ] final    7.58 input  -65.29 | X-H torsion
[ 10718 10713 10712 10709 ] final   84.50 input   66.30 | X-H torsion
[ 10763 10752 10751 10750 ] final   76.28 input  -60.55 | X-H torsion
[ 11005 11000 10999 10996 ] final   71.03 input  -57.11 | X-H torsion

> <Gold.Protein.ActiveResidues>
 VAL166  LYS551  ARG553  GLY616  TRP617  ASP618  TYR619  PRO620  LYS621  CYS622 
 ASP623  PHE694  ASN695  SER759  ASP760  ASP761  ALA762  ILE779  LEU786  VAL792 
 PHE793  MET794  SER795  GLU796  ALA797  LYS798  CYS799  TRP800  GLU811  SER814 

> <Gold.Protein.RotatedAtoms>
  150.8169  134.7356  159.6737 H   0  0  0  0  0  0  0  0  0  0  0  0  # atno 6907 bound_to 6896
  152.4287  134.5815  159.9959 H   0  0  0  0  0  0  0  0  0  0  0  0  # atno 6908 bound_to 6896
  151.6009  133.3319  159.3083 H   0  0  0  0  0  0  0  0  0  0  0  0  # atno 6909 bound_to 6896
  146.0897  139.5521  142.9484 H   0  0  0  0  0  0  0  0  0  0  0  0  # atno 7974 bound_to 7965
  155.4299  140.3450  155.4279 H   0  0  0  0  0  0  0  0  0  0  0  0  # atno 8008 bound_to 7997
  156.1342  140.1523  156.9050 H   0  0  0  0  0  0  0  0  0  0  0  0  # atno 8009 bound_to 7997
  154.4919  140.0839  156.7592 H   0  0  0  0  0  0  0  0  0  0  0  0  # atno 8010 bound_to 7997
  140.6364  143.7877  150.7365 H   0  0  0  0  0  0  0  0  0  0  0  0  # atno 10167 bound_to 10162
  157.6899  131.0136  150.2682 H   0  0  0  0  0  0  0  0  0  0  0  0  # atno 10718 bound_to 10713
  153.0714  135.4957  154.8312 H   0  0  0  0  0  0  0  0  0  0  0  0  # atno 10763 bound_to 10752
  154.7027  135.3005  154.9318 H   0  0  0  0  0  0  0  0  0  0  0  0  # atno 10764 bound_to 10752
  154.0037  135.6763  153.4813 H   0  0  0  0  0  0  0  0  0  0  0  0  # atno 10765 bound_to 10752
  139.9565  134.7134  156.0741 H   0  0  0  0  0  0  0  0  0  0  0  0  # atno 11005 bound_to 11000
  145.6063  141.0347  143.1991 LP  0  0  0  0  0  0  0  0  0  0  0  0  # atno 17320 bound_to 7965
  144.7351  139.7610  143.7332 LP  0  0  0  0  0  0  0  0  0  0  0  0  # atno 17321 bound_to 7965
  140.1499  143.4367  152.2138 LP  0  0  0  0  0  0  0  0  0  0  0  0  # atno 17342 bound_to 10162
  139.5574  144.7382  151.4254 LP  0  0  0  0  0  0  0  0  0  0  0  0  # atno 17343 bound_to 10162
  156.3249  130.3791  149.7542 LP  0  0  0  0  0  0  0  0  0  0  0  0  # atno 17370 bound_to 10713
  156.5100  130.8167  151.3165 LP  0  0  0  0  0  0  0  0  0  0  0  0  # atno 17371 bound_to 10713
  141.1237  133.6605  156.3282 LP  0  0  0  0  0  0  0  0  0  0  0  0  # atno 17394 bound_to 11000
  140.5597  134.5947  157.5430 LP  0  0  0  0  0  0  0  0  0  0  0  0  # atno 17395 bound_to 11000

$$$$
