AV-unprocessed.smi:3116|AV-procd|sdf|11864|dock3
  -GOLD-   2272017243D 1   1.00000     0.00000
 Structure written by MMmdl.
 34 34  0  0  0  0  0  0  0  0  2 V2000
  146.5173  139.0106  151.2076 C   0  0  0  0  0  0  0  0  0  0  0  0
  146.7898  138.7202  152.6915 C   0  0  2  0  0  0  0  0  0  0  0  0
  148.2510  138.6041  152.9070 N   0  3  0  0  0  0  0  0  0  0  0  0
  148.7710  139.0412  154.2273 C   0  0  1  0  0  0  0  0  0  0  0  0
  148.3725  138.0321  155.3218 C   0  0  0  0  0  0  0  0  0  0  0  0
  150.3058  139.2502  154.1354 C   0  0  2  0  0  0  0  0  0  0  0  0
  151.1075  137.9360  154.0741 C   0  0  0  0  0  0  0  0  0  0  0  0
  150.7810  140.0668  155.2479 N   0  0  0  0  0  0  0  0  0  0  0  0
  151.6798  139.7377  156.2440 C   0  0  0  0  0  0  0  0  0  0  0  0
  151.7690  140.8094  157.0849 C   0  0  0  0  0  0  0  0  0  0  0  0
  150.8711  141.7575  156.5210 C   0  0  0  0  0  0  0  0  0  0  0  0
  150.2749  141.3068  155.4294 N   0  0  0  0  0  0  0  0  0  0  0  0
  146.0568  137.4417  153.1202 C   0  0  0  0  0  0  0  0  0  0  0  0
  146.4783  136.2918  152.5880 N   0  0  0  0  0  0  0  0  0  0  0  0
  145.1275  137.4871  153.9247 O   0  0  0  0  0  0  0  0  0  0  0  0
  145.4514  139.1394  151.0152 H   0  0  0  0  0  0  0  0  0  0  0  0
  146.8761  138.2031  150.5679 H   0  0  0  0  0  0  0  0  0  0  0  0
  147.0174  139.9271  150.8924 H   0  0  0  0  0  0  0  0  0  0  0  0
  146.4032  139.5590  153.2730 H   0  0  0  0  0  0  0  0  0  0  0  0
  148.5396  137.6535  152.7223 H   0  0  0  0  0  0  0  0  0  0  0  0
  148.3222  140.0063  154.4678 H   0  0  0  0  0  0  0  0  0  0  0  0
  148.7014  138.3541  156.3092 H   0  0  0  0  0  0  0  0  0  0  0  0
  148.8015  137.0481  155.1296 H   0  0  0  0  0  0  0  0  0  0  0  0
  147.2909  137.9162  155.3849 H   0  0  0  0  0  0  0  0  0  0  0  0
  150.5197  139.7963  153.2143 H   0  0  0  0  0  0  0  0  0  0  0  0
  150.9187  137.3915  153.1494 H   0  0  0  0  0  0  0  0  0  0  0  0
  150.8623  137.2755  154.9065 H   0  0  0  0  0  0  0  0  0  0  0  0
  152.1798  138.1315  154.1102 H   0  0  0  0  0  0  0  0  0  0  0  0
  152.1753  138.7783  156.2741 H   0  0  0  0  0  0  0  0  0  0  0  0
  152.3804  140.9017  157.9704 H   0  0  0  0  0  0  0  0  0  0  0  0
  150.6315  142.7499  156.8735 H   0  0  0  0  0  0  0  0  0  0  0  0
  146.0268  135.4221  152.8317 H   0  0  0  0  0  0  0  0  0  0  0  0
  147.2488  136.2964  151.9345 H   0  0  0  0  0  0  0  0  0  0  0  0
  148.6901  139.2012  152.2204 H   0  0  0  0  0  0  0  0  0  0  0  0
  1  2  1  0  0  0  0
  1 16  1  0  0  0  0
  1 17  1  0  0  0  0
  1 18  1  0  0  0  0
  2  3  1  0  0  0  0
  2 13  1  0  0  0  0
  2 19  1  0  0  0  0
  3  4  1  0  0  0  0
  3 20  1  0  0  0  0
  3 34  1  0  0  0  0
  4  5  1  0  0  0  0
  4  6  1  0  0  0  0
  4 21  1  0  0  0  0
  5 22  1  0  0  0  0
  5 23  1  0  0  0  0
  5 24  1  0  0  0  0
  6  7  1  0  0  0  0
  6  8  1  0  0  0  0
  6 25  1  0  0  0  0
  7 26  1  0  0  0  0
  7 27  1  0  0  0  0
  7 28  1  0  0  0  0
  8 12  1  0  0  0  0
  8  9  1  0  0  0  0
  9 10  2  0  0  0  0
  9 29  1  0  0  0  0
 10 11  1  0  0  0  0
 10 30  1  0  0  0  0
 11 12  2  0  0  0  0
 11 31  1  0  0  0  0
 13 14  1  0  0  0  0
 13 15  2  0  0  0  0
 14 32  1  0  0  0  0
 14 33  1  0  0  0  0
M  CHG  1   3   1
M  END
> <s_m_source_file>
AV-unprocessed.smi

> <i_m_source_file_index>
3116

> <i_lp_mmshare_version>
43012

> <i_f3d_flags>
0

> <s_epik_input>
W05IMl1DKD1PKVtDQEhdKFtDSDNdKVtOSF1bQ0BIXShbQ0gzXSlbQ0BIXShbQ0gzXSluMVtjSF1bY0hdW2NIXW4x

> <s_epik_cmdline>
J2VwaWtfcHl0aG9uJywgJy1waCcsICc3LjAnLCAnLXRuJywgJzgnLCAnLW1hJywgJzIwMCcsICctbWV0YWxfYmluZGluZycsICctaW1hZScsICc8aW5maWxlLm1hZT4nLCAnLW9tYWUnLCAnPG91dGZpbGUubWFlPic=

> <r_lp_tautomer_probability>
1

> <r_epik_Ionization_Penalty>
0.15658

> <r_epik_Ionization_Penalty_Charging>
0.156568

> <r_epik_Ionization_Penalty_Neutral>
1.19778e-05

> <r_epik_State_Penalty>
0.145866

> <r_epik_Charging_Adjusted_Penalty>
0.302434

> <i_epik_Tot_Q>
1

> <i_epik_Tot_abs_Q>
1

> <r_epik_Metal_State_Penalty>
0.146064

> <b_epik_Metal_Only>
0

> <s_lp_Force_Field>
OPLS_2005

> <r_lp_Energy>
10.2724

> <b_lp_Chiralities_Consistent>
1

> <s_lp_Variant>
AV-unprocessed.smi:3116-3

> <Gold.Version>
5.8.1

> <Gold.Id.Protein>
6NUR|6NUR_protein|mol2

> <Gold.PLP.Fitness>
40.8009

> <Gold.PLP.PLP>
-27.3023

> <Gold.PLP.part.hbond>
-3.6249

> <Gold.PLP.part.metal>
0.0000

> <Gold.PLP.part.buried>
1.8875

> <Gold.PLP.part.nonpolar>
-25.1549

> <Gold.PLP.part.repulsive>
0.2997

> <Gold.PLP.ligand.clash>
0.0000

> <Gold.PLP.ligand.torsion>
0.8292

> <Gold.PLP.Chemscore.Hbond>
4.0000

> <Gold.PLP.Chemscore.CHOScore>
0.9998

> <Gold.PLP.Chemscore.Metal>
0.0000

> <Gold.Chemscore.Hbonds>
donor molecule, donor type, donor heavy atom, donor atom, acceptor molecule, acceptor atom, score
      L1  H     3    20       P1  7948  2.00
      L1  H     3    34       P1  7957  1.00
      L1  H    14    33       P1  7948  0.88
      L1  C    11    31       P1  8028  0.09

> <Gold.PLP.Chemscore.Internal.Correction>
0.1576

> <Gold.Rescore>
     Score         DG    S(hbond)    S(metal)    S(lipo)     H(rot)  DE(clash)    DE(int)     intcor
     15.64     -16.17       2.97        0.00      60.02       2.45       0.05       0.48       ----

> <Gold.Chemscore.Fitness>
15.6364

> <Gold.Chemscore.DG>
-16.1730

> <Gold.Chemscore.ZeroCoef>
-5.4800

> <Gold.Chemscore.Hbond>
2.9741

> <Gold.Chemscore.Metal>
0.0000

> <Gold.Chemscore.Lipo>
60.0220

> <Gold.Chemscore.Internal_Hbond>
0.0000

> <Gold.Chemscore.DEClash>
0.0521

> <Gold.Chemscore.DEInternal>
0.4845

> <Gold.Chemscore.Rot>
2.4465

> <Gold.Chemscore.Internal.Correction>
   9.000000E+99

> <Gold.Chemscore.Hbonds>
donor molecule, donor type, donor heavy atom, donor atom, acceptor molecule, acceptor atom, score
      L1  H     3    20       P1  7948  0.99
      L1  H     3    34       P1  7957  0.99
      L1  H    14    33       P1  7948  0.86

> <Gold.Chemscore.Hbond.Weighted>
-9.9335

> <Gold.Chemscore.Metal.Weighted>
-0.0000

> <Gold.Chemscore.Lipo.Weighted>
-7.0226

> <Gold.Chemscore.Internal_Hbond.Weighted>
0.0000

> <Gold.Chemscore.DEClash.Weighted>
0.0521

> <Gold.Chemscore.DEInternal.Weighted>
0.4845

> <Gold.Chemscore.Rot.Weighted>
6.2631

> <Gold.Chemscore.Internal.Correction.Weighted>
   9.000000E+99

> <Gold.Protein.RotatedTorsions>
[ 6907 6896 6895 6894 ] final  160.43 input  -60.11 | X-H torsion
[ 7974 7965 7964 7962 ] final -118.91 input  175.53 | X-H torsion
[ 8008 7997 7996 7995 ] final   16.66 input   59.86 | X-H torsion
[ 10167 10162 10161 10158 ] final -158.35 input  -65.29 | X-H torsion
[ 10718 10713 10712 10709 ] final   79.66 input   66.30 | X-H torsion
[ 10763 10752 10751 10750 ] final -150.54 input  -60.55 | X-H torsion
[ 11005 11000 10999 10996 ] final   87.80 input  -57.11 | X-H torsion

> <Gold.Protein.ActiveResidues>
 VAL166  LYS551  ARG553  GLY616  TRP617  ASP618  TYR619  PRO620  LYS621  CYS622 
 ASP623  PHE694  ASN695  SER759  ASP760  ASP761  ALA762  ILE779  LEU786  VAL792 
 PHE793  MET794  SER795  GLU796  ALA797  LYS798  CYS799  TRP800  GLU811  SER814 

> <Gold.Protein.RotatedAtoms>
  151.9707  133.3725  159.4069 H   0  0  0  0  0  0  0  0  0  0  0  0  # atno 6907 bound_to 6896
  150.6949  134.4142  159.5185 H   0  0  0  0  0  0  0  0  0  0  0  0  # atno 6908 bound_to 6896
  152.1846  134.8724  160.0574 H   0  0  0  0  0  0  0  0  0  0  0  0  # atno 6909 bound_to 6896
  145.0684  140.8341  143.4110 H   0  0  0  0  0  0  0  0  0  0  0  0  # atno 7974 bound_to 7965
  154.8801  140.2971  155.5430 H   0  0  0  0  0  0  0  0  0  0  0  0  # atno 8008 bound_to 7997
  156.3022  140.2444  156.3736 H   0  0  0  0  0  0  0  0  0  0  0  0  # atno 8009 bound_to 7997
  154.8726  140.0401  157.1723 H   0  0  0  0  0  0  0  0  0  0  0  0  # atno 8010 bound_to 7997
  139.6699  143.9764  152.2277 H   0  0  0  0  0  0  0  0  0  0  0  0  # atno 10167 bound_to 10162
  157.6783  130.9924  150.1965 H   0  0  0  0  0  0  0  0  0  0  0  0  # atno 10718 bound_to 10713
  154.8113  135.3282  154.7298 H   0  0  0  0  0  0  0  0  0  0  0  0  # atno 10763 bound_to 10752
  153.7947  135.6908  153.4870 H   0  0  0  0  0  0  0  0  0  0  0  0  # atno 10764 bound_to 10752
  153.1894  135.4557  155.0076 H   0  0  0  0  0  0  0  0  0  0  0  0  # atno 10765 bound_to 10752
  139.8911  134.8446  156.2911 H   0  0  0  0  0  0  0  0  0  0  0  0  # atno 11005 bound_to 11000
  145.1322  139.2625  143.5533 LP  0  0  0  0  0  0  0  0  0  0  0  0  # atno 17320 bound_to 7965
  146.3528  140.0976  142.8609 LP  0  0  0  0  0  0  0  0  0  0  0  0  # atno 17321 bound_to 7965
  139.9525  144.6611  150.8158 LP  0  0  0  0  0  0  0  0  0  0  0  0  # atno 17342 bound_to 10162
  140.7614  143.3173  151.2703 LP  0  0  0  0  0  0  0  0  0  0  0  0  # atno 17343 bound_to 10162
  156.2665  130.3717  149.8076 LP  0  0  0  0  0  0  0  0  0  0  0  0  # atno 17370 bound_to 10713
  156.5805  130.8464  151.3381 LP  0  0  0  0  0  0  0  0  0  0  0  0  # atno 17371 bound_to 10713
  140.9976  133.7171  156.0910 LP  0  0  0  0  0  0  0  0  0  0  0  0  # atno 17394 bound_to 11000
  140.7542  134.4011  157.5536 LP  0  0  0  0  0  0  0  0  0  0  0  0  # atno 17395 bound_to 11000

$$$$
