AV-unprocessed.smi:1605|AV-procd|sdf|6453|dock9
  -GOLD-   22720 7103D 1   1.00000     0.00000
 Structure written by MMmdl.
 51 53  0  0  0  0  0  0  0  0  2 V2000
  146.1410  134.5552  151.7656 C   0  0  0  0  0  0  0  0  0  0  0  0
  145.9529  135.5348  152.7752 O   0  0  0  0  0  0  0  0  0  0  0  0
  144.8558  136.4121  152.5468 C   0  0  2  0  0  0  0  0  0  0  0  0
  145.1679  137.2445  151.2937 C   0  0  0  0  0  0  0  0  0  0  0  0
  146.3338  138.2202  151.5340 C   0  0  0  0  0  0  0  0  0  0  0  0
  146.0633  139.1075  152.6945 N   0  3  2  0  0  0  0  0  0  0  0  0
  147.1070  140.1516  152.8643 C   0  0  0  0  0  0  0  0  0  0  0  0
  146.9456  140.9337  154.1826 C   0  0  2  0  0  0  0  0  0  0  0  0
  145.7865  141.7410  154.0968 O   0  0  0  0  0  0  0  0  0  0  0  0
  148.1657  141.8264  154.4792 C   0  0  0  0  0  0  0  0  0  0  0  0
  149.3101  141.0576  154.9343 N   0  0  0  0  0  0  0  0  0  0  0  0
  149.8353  139.9568  154.3623 C   0  0  0  0  0  0  0  0  0  0  0  0
  150.8975  139.4140  154.9501 N   0  0  0  0  0  0  0  0  0  0  0  0
  151.0808  140.2582  156.0320 C   0  0  0  0  0  0  0  0  0  0  0  0
  152.0488  140.2367  157.0597 C   0  0  0  0  0  0  0  0  0  0  0  0
  152.0442  141.2143  158.0804 C   0  0  0  0  0  0  0  0  0  0  0  0
  153.1047  141.1539  159.1657 C   0  0  0  0  0  0  0  0  0  0  0  0
  151.0591  142.2345  158.0831 C   0  0  0  0  0  0  0  0  0  0  0  0
  151.0326  143.2933  159.1713 C   0  0  0  0  0  0  0  0  0  0  0  0
  150.0863  142.2723  157.0623 C   0  0  0  0  0  0  0  0  0  0  0  0
  150.1019  141.2942  156.0524 C   0  0  0  0  0  0  0  0  0  0  0  0
  145.8077  138.3232  153.9322 C   0  0  0  0  0  0  0  0  0  0  0  0
  144.6261  137.3568  153.7418 C   0  0  0  0  0  0  0  0  0  0  0  0
  147.0187  133.9547  152.0043 H   0  0  0  0  0  0  0  0  0  0  0  0
  146.3088  135.0174  150.7921 H   0  0  0  0  0  0  0  0  0  0  0  0
  145.2899  133.8791  151.6905 H   0  0  0  0  0  0  0  0  0  0  0  0
  143.9549  135.8264  152.3558 H   0  0  0  0  0  0  0  0  0  0  0  0
  145.3979  136.5858  150.4554 H   0  0  0  0  0  0  0  0  0  0  0  0
  144.2806  137.8089  151.0038 H   0  0  0  0  0  0  0  0  0  0  0  0
  147.2608  137.6700  151.7027 H   0  0  0  0  0  0  0  0  0  0  0  0
  146.4824  138.8225  150.6370 H   0  0  0  0  0  0  0  0  0  0  0  0
  148.0916  139.6844  152.8129 H   0  0  0  0  0  0  0  0  0  0  0  0
  147.0658  140.8600  152.0352 H   0  0  0  0  0  0  0  0  0  0  0  0
  146.8138  140.2442  155.0154 H   0  0  0  0  0  0  0  0  0  0  0  0
  145.0726  141.2142  153.7708 H   0  0  0  0  0  0  0  0  0  0  0  0
  148.4619  142.3708  153.5815 H   0  0  0  0  0  0  0  0  0  0  0  0
  147.9222  142.5766  155.2332 H   0  0  0  0  0  0  0  0  0  0  0  0
  149.4177  139.5327  153.4608 H   0  0  0  0  0  0  0  0  0  0  0  0
  152.7985  139.4594  157.0576 H   0  0  0  0  0  0  0  0  0  0  0  0
  153.6995  142.0676  159.1697 H   0  0  0  0  0  0  0  0  0  0  0  0
  153.7828  140.3138  159.0135 H   0  0  0  0  0  0  0  0  0  0  0  0
  152.6428  141.0367  160.1462 H   0  0  0  0  0  0  0  0  0  0  0  0
  150.2008  143.9848  159.0337 H   0  0  0  0  0  0  0  0  0  0  0  0
  151.9558  143.8731  159.1625 H   0  0  0  0  0  0  0  0  0  0  0  0
  150.9231  142.8305  160.1524 H   0  0  0  0  0  0  0  0  0  0  0  0
  149.3317  143.0448  157.0518 H   0  0  0  0  0  0  0  0  0  0  0  0
  146.7061  137.7679  154.2067 H   0  0  0  0  0  0  0  0  0  0  0  0
  145.5849  138.9877  154.7659 H   0  0  0  0  0  0  0  0  0  0  0  0
  143.7178  137.9358  153.5703 H   0  0  0  0  0  0  0  0  0  0  0  0
  144.4505  136.7945  154.6583 H   0  0  0  0  0  0  0  0  0  0  0  0
  145.2091  139.6010  152.4762 H   0  0  0  0  0  0  0  0  0  0  0  0
  1  2  1  0  0  0  0
  1 24  1  0  0  0  0
  1 25  1  0  0  0  0
  1 26  1  0  0  0  0
  2  3  1  0  0  0  0
  3 23  1  0  0  0  0
  3  4  1  0  0  0  0
  3 27  1  0  0  0  0
  4  5  1  0  0  0  0
  4 28  1  0  0  0  0
  4 29  1  0  0  0  0
  5  6  1  0  0  0  0
  5 30  1  0  0  0  0
  5 31  1  0  0  0  0
  6  7  1  0  0  0  0
  6 22  1  0  0  0  0
  6 51  1  0  0  0  0
  7  8  1  0  0  0  0
  7 32  1  0  0  0  0
  7 33  1  0  0  0  0
  8  9  1  0  0  0  0
  8 10  1  0  0  0  0
  8 34  1  0  0  0  0
  9 35  1  0  0  0  0
 10 11  1  0  0  0  0
 10 36  1  0  0  0  0
 10 37  1  0  0  0  0
 11 21  1  0  0  0  0
 11 12  1  0  0  0  0
 12 13  2  0  0  0  0
 12 38  1  0  0  0  0
 13 14  1  0  0  0  0
 14 21  2  0  0  0  0
 14 15  1  0  0  0  0
 15 16  2  0  0  0  0
 15 39  1  0  0  0  0
 16 17  1  0  0  0  0
 16 18  1  0  0  0  0
 17 40  1  0  0  0  0
 17 41  1  0  0  0  0
 17 42  1  0  0  0  0
 18 19  1  0  0  0  0
 18 20  2  0  0  0  0
 19 43  1  0  0  0  0
 19 44  1  0  0  0  0
 19 45  1  0  0  0  0
 20 21  1  0  0  0  0
 20 46  1  0  0  0  0
 22 23  1  0  0  0  0
 22 47  1  0  0  0  0
 22 48  1  0  0  0  0
 23 49  1  0  0  0  0
 23 50  1  0  0  0  0
M  CHG  1   6   1
M  END
> <s_m_source_file>
AV-unprocessed.smi

> <i_m_source_file_index>
1605

> <i_lp_mmshare_version>
43012

> <i_f3d_flags>
0

> <s_epik_input>
W0NIM11PW0NIXTFbQ0gyXVtDSDJdTihbQ0gyXVtDSDJdMSlbQ0gyXVtDQEhdKFtPSF0pW0NIMl1uKFtjSF1uMiljKGMyMylbY0hdYyhbQ0gzXSljKFtjSF0zKVtDSDNd

> <s_epik_cmdline>
J2VwaWtfcHl0aG9uJywgJy1waCcsICc3LjAnLCAnLXRuJywgJzgnLCAnLW1hJywgJzIwMCcsICctbWV0YWxfYmluZGluZycsICctaW1hZScsICc8aW5maWxlLm1hZT4nLCAnLW9tYWUnLCAnPG91dGZpbGUubWFlPic=

> <r_epik_Ionization_Penalty>
0.110943

> <r_epik_Ionization_Penalty_Charging>
0.0229283

> <r_epik_Ionization_Penalty_Neutral>
0.0880146

> <r_epik_State_Penalty>
0.0947554

> <r_epik_Charging_Adjusted_Penalty>
0.117684

> <i_epik_Tot_Q>
1

> <i_epik_Tot_abs_Q>
1

> <r_epik_Metal_State_Penalty>
0.0192456

> <b_epik_Metal_Only>
0

> <s_lp_Force_Field>
OPLS_2005

> <r_lp_Energy>
23.6879

> <b_lp_Chiralities_Consistent>
1

> <s_lp_Variant>
AV-unprocessed.smi:1605-3

> <Gold.Version>
5.8.1

> <Gold.Id.Protein>
6NUR|6NUR_protein|mol2

> <Gold.PLP.Fitness>
47.3714

> <Gold.PLP.PLP>
-36.0168

> <Gold.PLP.part.hbond>
-2.0835

> <Gold.PLP.part.metal>
0.0000

> <Gold.PLP.part.buried>
5.4178

> <Gold.PLP.part.nonpolar>
-39.4484

> <Gold.PLP.part.repulsive>
0.1729

> <Gold.PLP.ligand.clash>
0.0000

> <Gold.PLP.ligand.torsion>
0.3614

> <Gold.PLP.Chemscore.Hbond>
3.0000

> <Gold.PLP.Chemscore.CHOScore>
1.0000

> <Gold.PLP.Chemscore.Metal>
0.0000

> <Gold.Chemscore.Hbonds>
donor molecule, donor type, donor heavy atom, donor atom, acceptor molecule, acceptor atom, score
      L1  H     6    51       P1 10175  2.00
      L1  H     9    35       P1 10175  1.00
      L1  C    12    38       P1  7957  1.00

> <Gold.PLP.Chemscore.Internal.Correction>
0.0774

> <Gold.Rescore>
     Score         DG    S(hbond)    S(metal)    S(lipo)     H(rot)  DE(clash)    DE(int)     intcor
     15.52     -18.42       1.75        0.00     109.22       2.22       2.59       0.31       ----

> <Gold.Chemscore.Fitness>
15.5168

> <Gold.Chemscore.DG>
-18.4175

> <Gold.Chemscore.ZeroCoef>
-5.4800

> <Gold.Chemscore.Hbond>
1.7468

> <Gold.Chemscore.Metal>
0.0000

> <Gold.Chemscore.Lipo>
109.2179

> <Gold.Chemscore.Internal_Hbond>
0.0000

> <Gold.Chemscore.DEClash>
2.5942

> <Gold.Chemscore.DEInternal>
0.3064

> <Gold.Chemscore.Rot>
2.2169

> <Gold.Chemscore.Internal.Correction>
   9.000000E+99

> <Gold.Chemscore.Hbonds>
donor molecule, donor type, donor heavy atom, donor atom, acceptor molecule, acceptor atom, score
      L1  H     6    51       P1 10175  1.00
      L1  H     9    35       P1 10175  0.52

> <Gold.Chemscore.Hbond.Weighted>
-5.8343

> <Gold.Chemscore.Metal.Weighted>
-0.0000

> <Gold.Chemscore.Lipo.Weighted>
-12.7785

> <Gold.Chemscore.Internal_Hbond.Weighted>
0.0000

> <Gold.Chemscore.DEClash.Weighted>
2.5942

> <Gold.Chemscore.DEInternal.Weighted>
0.3064

> <Gold.Chemscore.Rot.Weighted>
5.6753

> <Gold.Chemscore.Internal.Correction.Weighted>
   9.000000E+99

> <Gold.Protein.RotatedTorsions>
[ 6907 6896 6895 6894 ] final  -93.85 input  -60.11 | X-H torsion
[ 7974 7965 7964 7962 ] final  -10.35 input  175.53 | X-H torsion
[ 8008 7997 7996 7995 ] final -174.69 input   59.86 | X-H torsion
[ 10167 10162 10161 10158 ] final   90.82 input  -65.29 | X-H torsion
[ 10718 10713 10712 10709 ] final   92.93 input   66.30 | X-H torsion
[ 10763 10752 10751 10750 ] final   72.79 input  -60.55 | X-H torsion
[ 11005 11000 10999 10996 ] final   94.63 input  -57.11 | X-H torsion

> <Gold.Protein.ActiveResidues>
 VAL166  LYS551  ARG553  GLY616  TRP617  ASP618  TYR619  PRO620  LYS621  CYS622 
 ASP623  PHE694  ASN695  SER759  ASP760  ASP761  ALA762  ILE779  LEU786  VAL792 
 PHE793  MET794  SER795  GLU796  ALA797  LYS798  CYS799  TRP800  GLU811  SER814 

> <Gold.Protein.RotatedAtoms>
  150.6930  134.1903  159.4282 H   0  0  0  0  0  0  0  0  0  0  0  0  # atno 6907 bound_to 6896
  151.9874  134.9995  160.0569 H   0  0  0  0  0  0  0  0  0  0  0  0  # atno 6908 bound_to 6896
  152.1699  133.4602  159.4941 H   0  0  0  0  0  0  0  0  0  0  0  0  # atno 6909 bound_to 6896
  146.2223  140.2751  142.8359 H   0  0  0  0  0  0  0  0  0  0  0  0  # atno 7974 bound_to 7965
  155.9733  140.1167  157.0793 H   0  0  0  0  0  0  0  0  0  0  0  0  # atno 8008 bound_to 7997
  154.4162  140.1159  156.5403 H   0  0  0  0  0  0  0  0  0  0  0  0  # atno 8009 bound_to 7997
  155.6568  140.3473  155.4770 H   0  0  0  0  0  0  0  0  0  0  0  0  # atno 8010 bound_to 7997
  139.8436  144.6629  150.9254 H   0  0  0  0  0  0  0  0  0  0  0  0  # atno 10167 bound_to 10162
  157.6957  131.0460  150.3957 H   0  0  0  0  0  0  0  0  0  0  0  0  # atno 10718 bound_to 10713
  153.0480  135.5087  154.7796 H   0  0  0  0  0  0  0  0  0  0  0  0  # atno 10763 bound_to 10752
  154.6680  135.2948  154.9781 H   0  0  0  0  0  0  0  0  0  0  0  0  # atno 10764 bound_to 10752
  154.0609  135.6691  153.4864 H   0  0  0  0  0  0  0  0  0  0  0  0  # atno 10765 bound_to 10752
  139.8796  134.8856  156.3892 H   0  0  0  0  0  0  0  0  0  0  0  0  # atno 11005 bound_to 11000
  144.9239  140.7899  143.5731 LP  0  0  0  0  0  0  0  0  0  0  0  0  # atno 17320 bound_to 7965
  145.2689  139.1962  143.4852 LP  0  0  0  0  0  0  0  0  0  0  0  0  # atno 17321 bound_to 7965
  140.7795  143.3891  151.1342 LP  0  0  0  0  0  0  0  0  0  0  0  0  # atno 17342 bound_to 10162
  139.7535  143.8743  152.3083 LP  0  0  0  0  0  0  0  0  0  0  0  0  # atno 17343 bound_to 10162
  156.4355  130.3981  149.6732 LP  0  0  0  0  0  0  0  0  0  0  0  0  # atno 17370 bound_to 10713
  156.3934  130.7638  151.2641 LP  0  0  0  0  0  0  0  0  0  0  0  0  # atno 17371 bound_to 10713
  140.9344  133.7557  156.0066 LP  0  0  0  0  0  0  0  0  0  0  0  0  # atno 17394 bound_to 11000
  140.8292  134.3198  157.5355 LP  0  0  0  0  0  0  0  0  0  0  0  0  # atno 17395 bound_to 11000

$$$$
