AV-unprocessed.smi:1819|AV-procd|sdf|7382|dock7
  -GOLD-   22720 9 53D 1   1.00000     0.00000
 Structure written by MMmdl.
 29 29  0  0  0  0  0  0  0  0  1 V2000
  147.2237  139.1903  154.7076 O   0  0  0  0  0  0  0  0  0  0  0  0
  148.1220  138.7573  153.9843 C   0  0  0  0  0  0  0  0  0  0  0  0
  149.5570  138.6163  154.5124 C   0  0  0  0  0  0  0  0  0  0  0  0
  150.0016  139.7860  155.2839 N   0  0  0  0  0  0  0  0  0  0  0  0
  150.6520  139.6189  156.4985 C   0  0  0  0  0  0  0  0  0  0  0  0
  151.0970  140.6506  157.2543 C   0  0  0  0  0  0  0  0  0  0  0  0
  150.9061  142.0274  156.8109 C   0  0  0  0  0  0  0  0  0  0  0  0
  151.2709  143.0274  157.4250 O   0  0  0  0  0  0  0  0  0  0  0  0
  150.2503  142.1541  155.5834 N   0  0  0  0  0  0  0  0  0  0  0  0
  149.7910  141.0952  154.7985 C   0  0  0  0  0  0  0  0  0  0  0  0
  149.2279  141.3183  153.7274 O   0  0  0  0  0  0  0  0  0  0  0  0
  147.9253  138.4059  152.7058 N   0  0  0  0  0  0  0  0  0  0  0  0
  146.6407  138.4718  152.0236 C   0  0  0  0  0  0  0  0  0  0  0  0
  145.7443  137.3032  152.4468 C   0  0  0  0  0  0  0  0  0  0  0  0
  145.5062  136.1252  151.0885 S   0  0  0  0  0  0  0  0  0  0  0  0
  144.6652  134.7821  151.9694 C   0  0  0  0  0  0  0  0  0  0  0  0
  144.3996  133.7868  151.1251 F   0  0  0  0  0  0  0  0  0  0  0  0
  145.4395  134.3163  152.9484 F   0  0  0  0  0  0  0  0  0  0  0  0
  143.5188  135.2180  152.4896 F   0  0  0  0  0  0  0  0  0  0  0  0
  150.0980  143.0892  155.2343 H   0  0  0  0  0  0  0  0  0  0  0  0
  149.6428  137.7124  155.1192 H   0  0  0  0  0  0  0  0  0  0  0  0
  150.2168  138.4529  153.6588 H   0  0  0  0  0  0  0  0  0  0  0  0
  150.8194  138.6158  156.8644 H   0  0  0  0  0  0  0  0  0  0  0  0
  151.5979  140.4560  158.1916 H   0  0  0  0  0  0  0  0  0  0  0  0
  148.7139  138.0649  152.1749 H   0  0  0  0  0  0  0  0  0  0  0  0
  146.1532  139.4198  152.2573 H   0  0  0  0  0  0  0  0  0  0  0  0
  146.8031  138.4484  150.9449 H   0  0  0  0  0  0  0  0  0  0  0  0
  146.1848  136.7776  153.2946 H   0  0  0  0  0  0  0  0  0  0  0  0
  144.7695  137.6728  152.7664 H   0  0  0  0  0  0  0  0  0  0  0  0
  1  2  2  0  0  0  0
  2  3  1  0  0  0  0
  2 12  1  0  0  0  0
  3  4  1  0  0  0  0
  3 21  1  0  0  0  0
  3 22  1  0  0  0  0
  4 10  1  0  0  0  0
  4  5  1  0  0  0  0
  5  6  2  0  0  0  0
  5 23  1  0  0  0  0
  6  7  1  0  0  0  0
  6 24  1  0  0  0  0
  7  8  2  0  0  0  0
  7  9  1  0  0  0  0
  9 20  1  0  0  0  0
  9 10  1  0  0  0  0
 10 11  2  0  0  0  0
 12 13  1  0  0  0  0
 12 25  1  0  0  0  0
 13 14  1  0  0  0  0
 13 26  1  0  0  0  0
 13 27  1  0  0  0  0
 14 15  1  0  0  0  0
 14 28  1  0  0  0  0
 14 29  1  0  0  0  0
 15 16  1  0  0  0  0
 16 17  1  0  0  0  0
 16 18  1  0  0  0  0
 16 19  1  0  0  0  0
M  END
> <s_m_source_file>
AV-unprocessed.smi

> <i_m_source_file_index>
1819

> <i_lp_mmshare_version>
43012

> <i_f3d_flags>
0

> <s_epik_input>
RkMoRikoRilTW0NIMl1bQ0gyXVtOSF1DKD1PKVtDSDJdbjFbY0hdW2NIXWMoPU8pW25IXWMxPU8=

> <s_epik_cmdline>
J2VwaWtfcHl0aG9uJywgJy1waCcsICc3LjAnLCAnLXRuJywgJzgnLCAnLW1hJywgJzIwMCcsICctbWV0YWxfYmluZGluZycsICctaW1hZScsICc8aW5maWxlLm1hZT4nLCAnLW9tYWUnLCAnPG91dGZpbGUubWFlPic=

> <r_lp_tautomer_probability>
0.999537

> <r_epik_Ionization_Penalty>
0.00347617

> <r_epik_Ionization_Penalty_Charging>
0.00347613

> <r_epik_Ionization_Penalty_Neutral>
4.33222e-08

> <r_epik_State_Penalty>
0.00246522

> <r_epik_Charging_Adjusted_Penalty>
0.00594136

> <i_epik_Tot_Q>
0

> <i_epik_Tot_abs_Q>
0

> <r_epik_Metal_State_Penalty>
0.367629

> <b_epik_Metal_Only>
0

> <s_lp_Force_Field>
OPLS_2005

> <r_lp_Energy>
-0.213216

> <b_lp_Chiralities_Consistent>
1

> <s_lp_Variant>
AV-unprocessed.smi:1819-1

> <Gold.Version>
5.8.1

> <Gold.Id.Protein>
6NUR|6NUR_protein|mol2

> <Gold.PLP.Fitness>
41.7913

> <Gold.PLP.PLP>
-36.8875

> <Gold.PLP.part.hbond>
-4.0000

> <Gold.PLP.part.metal>
0.0000

> <Gold.PLP.part.buried>
-2.6202

> <Gold.PLP.part.nonpolar>
-31.1772

> <Gold.PLP.part.repulsive>
0.6455

> <Gold.PLP.ligand.clash>
0.0000

> <Gold.PLP.ligand.torsion>
0.8390

> <Gold.PLP.Chemscore.Hbond>
2.1680

> <Gold.PLP.Chemscore.CHOScore>
0.0000

> <Gold.PLP.Chemscore.Metal>
0.0000

> <Gold.Chemscore.Hbonds>
donor molecule, donor type, donor heavy atom, donor atom, acceptor molecule, acceptor atom, score
      L1  H     9    20       P1  8028  0.71
      L1  H    12    25       P1  7948  0.46
      P1  H  8011  8017       L1    11  0.86

> <Gold.PLP.Chemscore.Internal.Correction>
0.0778

> <Gold.Rescore>
     Score         DG    S(hbond)    S(metal)    S(lipo)     H(rot)  DE(clash)    DE(int)     intcor
      9.82     -11.06       2.40        0.00      43.33       2.93       0.63       0.60       ----

> <Gold.Chemscore.Fitness>
9.8247

> <Gold.Chemscore.DG>
-11.0588

> <Gold.Chemscore.ZeroCoef>
-5.4800

> <Gold.Chemscore.Hbond>
2.4006

> <Gold.Chemscore.Metal>
0.0000

> <Gold.Chemscore.Lipo>
43.3298

> <Gold.Chemscore.Internal_Hbond>
0.0000

> <Gold.Chemscore.DEClash>
0.6304

> <Gold.Chemscore.DEInternal>
0.6037

> <Gold.Chemscore.Rot>
2.9332

> <Gold.Chemscore.Internal.Correction>
   9.000000E+99

> <Gold.Chemscore.Hbonds>
donor molecule, donor type, donor heavy atom, donor atom, acceptor molecule, acceptor atom, score
      L1  H     9    20       P1  8028  0.68
      L1  H    12    25       P1  7948  0.46
      P1  H  8011  8017       L1    11  0.85

> <Gold.Chemscore.Hbond.Weighted>
-8.0181

> <Gold.Chemscore.Metal.Weighted>
-0.0000

> <Gold.Chemscore.Lipo.Weighted>
-5.0696

> <Gold.Chemscore.Internal_Hbond.Weighted>
0.0000

> <Gold.Chemscore.DEClash.Weighted>
0.6304

> <Gold.Chemscore.DEInternal.Weighted>
0.6037

> <Gold.Chemscore.Rot.Weighted>
7.5089

> <Gold.Chemscore.Internal.Correction.Weighted>
   9.000000E+99

> <Gold.Protein.RotatedTorsions>
[ 6907 6896 6895 6894 ] final -112.28 input  -60.11 | X-H torsion
[ 7974 7965 7964 7962 ] final  166.38 input  175.53 | X-H torsion
[ 8008 7997 7996 7995 ] final  -78.31 input   59.86 | X-H torsion
[ 10167 10162 10161 10158 ] final   82.88 input  -65.29 | X-H torsion
[ 10718 10713 10712 10709 ] final   13.79 input   66.30 | X-H torsion
[ 10763 10752 10751 10750 ] final  -14.11 input  -60.55 | X-H torsion
[ 11005 11000 10999 10996 ] final   14.86 input  -57.11 | X-H torsion

> <Gold.Protein.ActiveResidues>
 VAL166  LYS551  ARG553  GLY616  TRP617  ASP618  TYR619  PRO620  LYS621  CYS622 
 ASP623  PHE694  ASN695  SER759  ASP760  ASP761  ALA762  ILE779  LEU786  VAL792 
 PHE793  MET794  SER795  GLU796  ALA797  LYS798  CYS799  TRP800  GLU811  SER814 

> <Gold.Protein.RotatedAtoms>
  150.7748  133.9112  159.3369 H   0  0  0  0  0  0  0  0  0  0  0  0  # atno 6907 bound_to 6896
  151.6990  135.0931  160.0257 H   0  0  0  0  0  0  0  0  0  0  0  0  # atno 6908 bound_to 6896
  152.3779  133.6468  159.6173 H   0  0  0  0  0  0  0  0  0  0  0  0  # atno 6909 bound_to 6896
  144.7465  139.8606  143.6380 H   0  0  0  0  0  0  0  0  0  0  0  0  # atno 7974 bound_to 7965
  154.5677  140.0696  156.8917 H   0  0  0  0  0  0  0  0  0  0  0  0  # atno 8008 bound_to 7997
  155.2692  140.3364  155.4248 H   0  0  0  0  0  0  0  0  0  0  0  0  # atno 8009 bound_to 7997
  156.2093  140.1753  156.7715 H   0  0  0  0  0  0  0  0  0  0  0  0  # atno 8010 bound_to 7997
  139.9242  144.6193  150.8410 H   0  0  0  0  0  0  0  0  0  0  0  0  # atno 10167 bound_to 10162
  157.0297  130.6188  149.5733 H   0  0  0  0  0  0  0  0  0  0  0  0  # atno 10718 bound_to 10713
  153.5233  135.7015  153.5720 H   0  0  0  0  0  0  0  0  0  0  0  0  # atno 10763 bound_to 10752
  153.3759  135.3932  155.1822 H   0  0  0  0  0  0  0  0  0  0  0  0  # atno 10764 bound_to 10752
  154.8692  135.3823  154.4724 H   0  0  0  0  0  0  0  0  0  0  0  0  # atno 10765 bound_to 10752
  140.4648  134.1091  155.7722 H   0  0  0  0  0  0  0  0  0  0  0  0  # atno 11005 bound_to 11000
  146.1351  139.4394  143.0144 LP  0  0  0  0  0  0  0  0  0  0  0  0  # atno 17320 bound_to 7965
  145.7104  141.0108  143.1456 LP  0  0  0  0  0  0  0  0  0  0  0  0  # atno 17321 bound_to 7965
  140.7654  143.3276  151.2482 LP  0  0  0  0  0  0  0  0  0  0  0  0  # atno 17342 bound_to 10162
  139.6836  143.9811  152.2822 LP  0  0  0  0  0  0  0  0  0  0  0  0  # atno 17343 bound_to 10162
  156.0074  130.5162  150.7874 LP  0  0  0  0  0  0  0  0  0  0  0  0  # atno 17370 bound_to 10713
  157.5187  131.0930  151.0106 LP  0  0  0  0  0  0  0  0  0  0  0  0  # atno 17371 bound_to 10713
  141.1604  133.8803  157.1862 LP  0  0  0  0  0  0  0  0  0  0  0  0  # atno 17394 bound_to 11000
  139.9922  135.0060  157.0002 LP  0  0  0  0  0  0  0  0  0  0  0  0  # atno 17395 bound_to 11000

$$$$
