AV-unprocessed.smi:288|AV-procd|sdf|2210|dock10
  -GOLD-   2262022 43D 1   1.00000     0.00000
 Structure written by MMmdl.
 33 34  0  0  0  0  0  0  0  0  1 V2000
  152.7237  139.8988  157.0106 O   0  0  0  0  0  0  0  0  0  0  0  0
  151.6340  140.1724  156.5043 C   0  0  0  0  0  0  0  0  0  0  0  0
  151.1854  139.6355  155.2241 C   0  0  0  0  0  0  0  0  0  0  0  0
  151.9923  138.8164  154.5284 F   0  0  0  0  0  0  0  0  0  0  0  0
  149.9697  139.9456  154.7241 C   0  0  0  0  0  0  0  0  0  0  0  0
  149.0746  140.7781  155.3767 N   0  0  0  0  0  0  0  0  0  0  0  0
  147.7141  141.1047  154.7987 C   0  0  1  0  0  0  0  0  0  0  0  0
  147.8613  141.8246  153.4461 C   0  0  0  0  0  0  0  0  0  0  0  0
  146.9236  141.0413  152.5501 C   0  0  0  0  0  0  0  0  0  0  0  0
  146.9908  139.6520  153.1668 C   0  0  0  0  0  0  0  0  0  0  0  0
  147.0010  139.9237  154.5625 O   0  0  0  0  0  0  0  0  0  0  0  0
  149.4254  141.3440  156.6217 C   0  0  0  0  0  0  0  0  0  0  0  0
  148.6360  142.0734  157.2265 O   0  0  0  0  0  0  0  0  0  0  0  0
  150.7050  141.0337  157.1387 N   0  0  0  0  0  0  0  0  0  0  0  0
  151.0779  141.6015  158.4240 C   0  0  0  0  0  0  0  0  0  0  0  0
  150.9955  143.1443  158.4571 C   0  0  2  0  0  0  0  0  0  0  0  0
  151.2847  143.6389  157.1636 O   0  0  0  0  0  0  0  0  0  0  0  0
  152.0071  143.7665  159.4394 C   0  0  0  0  0  0  0  0  0  0  0  0
  153.2391  143.3361  159.1661 F   0  0  0  0  0  0  0  0  0  0  0  0
  151.9984  145.0928  159.3045 F   0  0  0  0  0  0  0  0  0  0  0  0
  151.6968  143.4646  160.7011 F   0  0  0  0  0  0  0  0  0  0  0  0
  149.7023  139.5119  153.7730 H   0  0  0  0  0  0  0  0  0  0  0  0
  147.1960  141.6883  155.5618 H   0  0  0  0  0  0  0  0  0  0  0  0
  147.5984  142.8794  153.5321 H   0  0  0  0  0  0  0  0  0  0  0  0
  148.8880  141.7422  153.0849 H   0  0  0  0  0  0  0  0  0  0  0  0
  145.9102  141.4372  152.6284 H   0  0  0  0  0  0  0  0  0  0  0  0
  147.2195  141.0585  151.5008 H   0  0  0  0  0  0  0  0  0  0  0  0
  146.1455  139.0234  152.8866 H   0  0  0  0  0  0  0  0  0  0  0  0
  147.9107  139.1432  152.8756 H   0  0  0  0  0  0  0  0  0  0  0  0
  150.4101  141.1537  159.1614 H   0  0  0  0  0  0  0  0  0  0  0  0
  152.0646  141.2279  158.7034 H   0  0  0  0  0  0  0  0  0  0  0  0
  149.9923  143.4687  158.7374 H   0  0  0  0  0  0  0  0  0  0  0  0
  150.4859  143.9727  156.7844 H   0  0  0  0  0  0  0  0  0  0  0  0
  1  2  2  0  0  0  0
  2 14  1  0  0  0  0
  2  3  1  0  0  0  0
  3  4  1  0  0  0  0
  3  5  2  0  0  0  0
  5  6  1  0  0  0  0
  5 22  1  0  0  0  0
  6  7  1  0  0  0  0
  6 12  1  0  0  0  0
  7 11  1  0  0  0  0
  7  8  1  0  0  0  0
  7 23  1  0  0  0  0
  8  9  1  0  0  0  0
  8 24  1  0  0  0  0
  8 25  1  0  0  0  0
  9 10  1  0  0  0  0
  9 26  1  0  0  0  0
  9 27  1  0  0  0  0
 10 11  1  0  0  0  0
 10 28  1  0  0  0  0
 10 29  1  0  0  0  0
 12 13  2  0  0  0  0
 12 14  1  0  0  0  0
 14 15  1  0  0  0  0
 15 16  1  0  0  0  0
 15 30  1  0  0  0  0
 15 31  1  0  0  0  0
 16 17  1  0  0  0  0
 16 18  1  0  0  0  0
 16 32  1  0  0  0  0
 17 33  1  0  0  0  0
 18 19  1  0  0  0  0
 18 20  1  0  0  0  0
 18 21  1  0  0  0  0
M  END
> <s_m_source_file>
AV-unprocessed.smi

> <i_m_source_file_index>
288

> <i_lp_mmshare_version>
43012

> <i_f3d_flags>
0

> <s_epik_input>
TzFbQ0gyXVtDSDJdW0NIMl1bQ0BIXTFuKFtjSF1jKEYpYzI9TyljKD1PKW4yW0NIMl1bQ0BIXShbT0hdKUMoRikoRilG

> <s_epik_cmdline>
J2VwaWtfcHl0aG9uJywgJy1waCcsICc3LjAnLCAnLXRuJywgJzgnLCAnLW1hJywgJzIwMCcsICctbWV0YWxfYmluZGluZycsICctaW1hZScsICc8aW5maWxlLm1hZT4nLCAnLW9tYWUnLCAnPG91dGZpbGUubWFlPic=

> <r_lp_tautomer_probability>
1

> <r_epik_Ionization_Penalty>
0.000551119

> <r_epik_Ionization_Penalty_Charging>
2.51184e-08

> <r_epik_Ionization_Penalty_Neutral>
0.000551094

> <r_epik_State_Penalty>
0.000345115

> <r_epik_Charging_Adjusted_Penalty>
0.00034514

> <i_epik_Tot_Q>
0

> <i_epik_Tot_abs_Q>
0

> <r_epik_Metal_State_Penalty>
-0

> <b_epik_Metal_Only>
0

> <s_epik_Chemistry_Notes>
This compound contains an acetal/aminal-like group ( X-CH(R)-Y where X, Y are N, S, or O) that may be acid/base labile, releasing an aldehyde.

> <s_lp_Force_Field>
OPLS_2005

> <r_lp_Energy>
35.1555

> <b_lp_Chiralities_Consistent>
1

> <s_lp_Variant>
AV-unprocessed.smi:288-2

> <Gold.Version>
5.8.1

> <Gold.Id.Protein>
6NUR|6NUR_protein|mol2

> <Gold.PLP.Fitness>
49.4180

> <Gold.PLP.PLP>
-42.9537

> <Gold.PLP.part.hbond>
-2.0000

> <Gold.PLP.part.metal>
0.0000

> <Gold.PLP.part.buried>
-1.5719

> <Gold.PLP.part.nonpolar>
-37.3240

> <Gold.PLP.part.repulsive>
0.2300

> <Gold.PLP.ligand.clash>
0.0000

> <Gold.PLP.ligand.torsion>
0.4600

> <Gold.PLP.Chemscore.Hbond>
2.0000

> <Gold.PLP.Chemscore.CHOScore>
0.4581

> <Gold.PLP.Chemscore.Metal>
0.0000

> <Gold.Chemscore.Hbonds>
donor molecule, donor type, donor heavy atom, donor atom, acceptor molecule, acceptor atom, score
      L1  H    17    33       P1  8028  0.89
      P1  H  7997  8008       L1     1  0.98
      L1  C     5    22       P1  7957  0.67

> <Gold.PLP.Chemscore.Internal.Correction>
0.0098

> <Gold.Rescore>
     Score         DG    S(hbond)    S(metal)    S(lipo)     H(rot)  DE(clash)    DE(int)     intcor
     10.53     -13.07       1.99        0.00      64.31       2.57       0.06       2.49       ----

> <Gold.Chemscore.Fitness>
10.5274

> <Gold.Chemscore.DG>
-13.0732

> <Gold.Chemscore.ZeroCoef>
-5.4800

> <Gold.Chemscore.Hbond>
1.9871

> <Gold.Chemscore.Metal>
0.0000

> <Gold.Chemscore.Lipo>
64.3076

> <Gold.Chemscore.Internal_Hbond>
0.0000

> <Gold.Chemscore.DEClash>
0.0580

> <Gold.Chemscore.DEInternal>
2.4878

> <Gold.Chemscore.Rot>
2.5656

> <Gold.Chemscore.Internal.Correction>
   9.000000E+99

> <Gold.Chemscore.Hbonds>
donor molecule, donor type, donor heavy atom, donor atom, acceptor molecule, acceptor atom, score
      L1  H    17    33       P1  8028  0.85
      P1  H  7997  8008       L1     1  0.93

> <Gold.Chemscore.Hbond.Weighted>
-6.6371

> <Gold.Chemscore.Metal.Weighted>
-0.0000

> <Gold.Chemscore.Lipo.Weighted>
-7.5240

> <Gold.Chemscore.Internal_Hbond.Weighted>
0.0000

> <Gold.Chemscore.DEClash.Weighted>
0.0580

> <Gold.Chemscore.DEInternal.Weighted>
2.4878

> <Gold.Chemscore.Rot.Weighted>
6.5679

> <Gold.Chemscore.Internal.Correction.Weighted>
   9.000000E+99

> <Gold.Protein.RotatedTorsions>
[ 6907 6896 6895 6894 ] final  144.76 input  -60.11 | X-H torsion
[ 7974 7965 7964 7962 ] final -149.00 input  175.53 | X-H torsion
[ 8008 7997 7996 7995 ] final  -41.12 input   59.86 | X-H torsion
[ 10167 10162 10161 10158 ] final  129.24 input  -65.29 | X-H torsion
[ 10718 10713 10712 10709 ] final -158.07 input   66.30 | X-H torsion
[ 10763 10752 10751 10750 ] final -159.99 input  -60.55 | X-H torsion
[ 11005 11000 10999 10996 ] final  178.09 input  -57.11 | X-H torsion

> <Gold.Protein.ActiveResidues>
 VAL166  LYS551  ARG553  GLY616  TRP617  ASP618  TYR619  PRO620  LYS621  CYS622 
 ASP623  PHE694  ASN695  SER759  ASP760  ASP761  ALA762  ILE779  LEU786  VAL792 
 PHE793  MET794  SER795  GLU796  ALA797  LYS798  CYS799  TRP800  GLU811  SER814 

> <Gold.Protein.RotatedAtoms>
  152.1895  133.4763  159.5000 H   0  0  0  0  0  0  0  0  0  0  0  0  # atno 6907 bound_to 6896
  150.6948  134.1730  159.4228 H   0  0  0  0  0  0  0  0  0  0  0  0  # atno 6908 bound_to 6896
  151.9644  135.0107  160.0600 H   0  0  0  0  0  0  0  0  0  0  0  0  # atno 6909 bound_to 6896
  144.7995  140.5123  143.5717 H   0  0  0  0  0  0  0  0  0  0  0  0  # atno 7974 bound_to 7965
  154.4006  140.1507  156.3139 H   0  0  0  0  0  0  0  0  0  0  0  0  # atno 8008 bound_to 7997
  155.8591  140.3454  155.5722 H   0  0  0  0  0  0  0  0  0  0  0  0  # atno 8009 bound_to 7997
  155.7900  140.0855  157.2004 H   0  0  0  0  0  0  0  0  0  0  0  0  # atno 8010 bound_to 7997
  139.5487  144.6795  151.4390 H   0  0  0  0  0  0  0  0  0  0  0  0  # atno 10167 bound_to 10162
  156.5491  130.8597  151.2774 H   0  0  0  0  0  0  0  0  0  0  0  0  # atno 10718 bound_to 10713
  154.7428  135.3073  154.8697 H   0  0  0  0  0  0  0  0  0  0  0  0  # atno 10763 bound_to 10752
  153.9507  135.6764  153.4748 H   0  0  0  0  0  0  0  0  0  0  0  0  # atno 10764 bound_to 10752
  153.1026  135.4904  154.8820 H   0  0  0  0  0  0  0  0  0  0  0  0  # atno 10765 bound_to 10752
  140.3912  134.6860  157.4508 H   0  0  0  0  0  0  0  0  0  0  0  0  # atno 11005 bound_to 11000
  145.5590  139.1479  143.3352 LP  0  0  0  0  0  0  0  0  0  0  0  0  # atno 17320 bound_to 7965
  146.2272  140.5726  142.8991 LP  0  0  0  0  0  0  0  0  0  0  0  0  # atno 17321 bound_to 7965
  140.6744  143.8223  150.7039 LP  0  0  0  0  0  0  0  0  0  0  0  0  # atno 17342 bound_to 10162
  140.1657  143.4237  152.2036 LP  0  0  0  0  0  0  0  0  0  0  0  0  # atno 17343 bound_to 10162
  157.7391  130.9825  150.2292 LP  0  0  0  0  0  0  0  0  0  0  0  0  # atno 17370 bound_to 10713
  156.2901  130.3744  149.7850 LP  0  0  0  0  0  0  0  0  0  0  0  0  # atno 17371 bound_to 10713
  140.0405  134.6274  155.8987 LP  0  0  0  0  0  0  0  0  0  0  0  0  # atno 17394 bound_to 11000
  141.1890  133.6564  156.5348 LP  0  0  0  0  0  0  0  0  0  0  0  0  # atno 17395 bound_to 11000

$$$$
