AV-unprocessed.smi:1783|AV-procd|sdf|7194|dock5
  -GOLD-   22720 8433D 1   1.00000     0.00000
 Structure written by MMmdl.
 29 30  0  0  0  0  0  0  0  0  2 V2000
  153.2554  139.1969  155.8573 O   0  0  0  0  0  0  0  0  0  0  0  0
  152.0292  139.2179  155.9659 C   0  0  0  0  0  0  0  0  0  0  0  0
  151.3417  139.8746  156.9207 N   0  0  0  0  0  0  0  0  0  0  0  0
  151.8086  140.6871  157.9688 C   0  0  0  0  0  0  0  0  0  0  0  0
  151.5842  142.0262  158.0786 C   0  0  0  0  0  0  0  0  0  0  0  0
  152.0877  142.8129  159.1976 C   0  0  0  0  0  0  0  0  0  0  0  0
  151.7910  144.2897  159.3896 C   0  0  0  0  0  0  0  0  0  0  0  0
  152.1925  144.7087  160.5899 F   0  0  0  0  0  0  0  0  0  0  0  0
  152.4303  145.0046  158.4650 F   0  0  0  0  0  0  0  0  0  0  0  0
  150.4857  144.5338  159.2743 F   0  0  0  0  0  0  0  0  0  0  0  0
  152.7714  142.0401  160.1161 C   0  0  0  0  0  0  0  0  0  0  0  0
  153.0441  140.7175  160.0797 N   0  5  0  0  0  0  0  0  0  0  0  0
  152.5755  139.9931  159.0245 C   0  0  0  0  0  0  0  0  0  0  0  0
  152.7783  138.7816  158.9348 O   0  0  0  0  0  0  0  0  0  0  0  0
  151.1708  138.4429  154.9593 C   0  0  2  0  0  0  0  0  0  0  0  0
  150.1228  139.3071  154.2326 C   0  0  0  0  0  0  0  0  0  0  0  0
  148.7985  138.7991  154.7697 C   0  0  0  0  0  0  0  0  0  0  0  0
  149.1318  137.3545  155.1130 C   0  0  0  0  0  0  0  0  0  0  0  0
  150.4306  137.4547  155.6737 O   0  0  0  0  0  0  0  0  0  0  0  0
  150.3397  139.7497  156.9112 H   0  0  0  0  0  0  0  0  0  0  0  0
  151.0068  142.5552  157.3392 H   0  0  0  0  0  0  0  0  0  0  0  0
  153.1535  142.5629  161.0188 H   0  0  0  0  0  0  0  0  0  0  0  0
  151.8051  137.9447  154.2236 H   0  0  0  0  0  0  0  0  0  0  0  0
  150.2414  140.3803  154.3897 H   0  0  0  0  0  0  0  0  0  0  0  0
  150.1831  139.1287  153.1582 H   0  0  0  0  0  0  0  0  0  0  0  0
  148.5273  139.3441  155.6748 H   0  0  0  0  0  0  0  0  0  0  0  0
  147.9812  138.8917  154.0543 H   0  0  0  0  0  0  0  0  0  0  0  0
  148.4239  136.9115  155.8137 H   0  0  0  0  0  0  0  0  0  0  0  0
  149.1666  136.7362  154.2147 H   0  0  0  0  0  0  0  0  0  0  0  0
  1  2  2  0  0  0  0
  2  3  1  0  0  0  0
  2 15  1  0  0  0  0
  3  4  1  0  0  0  0
  3 20  1  0  0  0  0
  4 13  1  0  0  0  0
  4  5  2  0  0  0  0
  5  6  1  0  0  0  0
  5 21  1  0  0  0  0
  6  7  1  0  0  0  0
  6 11  2  0  0  0  0
  7  8  1  0  0  0  0
  7  9  1  0  0  0  0
  7 10  1  0  0  0  0
 11 12  1  0  0  0  0
 11 22  1  0  0  0  0
 12 13  1  0  0  0  0
 13 14  2  0  0  0  0
 15 19  1  0  0  0  0
 15 16  1  0  0  0  0
 15 23  1  0  0  0  0
 16 17  1  0  0  0  0
 16 24  1  0  0  0  0
 16 25  1  0  0  0  0
 17 18  1  0  0  0  0
 17 26  1  0  0  0  0
 17 27  1  0  0  0  0
 18 19  1  0  0  0  0
 18 28  1  0  0  0  0
 18 29  1  0  0  0  0
M  CHG  1  12  -1
M  END
> <s_m_source_file>
AV-unprocessed.smi

> <i_m_source_file_index>
1783

> <i_lp_mmshare_version>
43012

> <i_f3d_flags>
0

> <s_epik_input>
TzFbQ0gyXVtDSDJdW0NIMl1bQ0BIXTFDKD1PKVtOSF1jMltjSF1jKEMoRikoRilGKVtjSF1bbkhdYzI9Tw==

> <s_epik_cmdline>
J2VwaWtfcHl0aG9uJywgJy1waCcsICc3LjAnLCAnLXRuJywgJzgnLCAnLW1hJywgJzIwMCcsICctbWV0YWxfYmluZGluZycsICctaW1hZScsICc8aW5maWxlLm1hZT4nLCAnLW9tYWUnLCAnPG91dGZpbGUubWFlPic=

> <r_epik_Ionization_Penalty>
2.55264

> <r_epik_Ionization_Penalty_Charging>
0.0580859

> <r_epik_Ionization_Penalty_Neutral>
2.49455

> <r_epik_State_Penalty>
2.65913

> <r_epik_Charging_Adjusted_Penalty>
2.71721

> <i_epik_Tot_Q>
-1

> <i_epik_Tot_abs_Q>
1

> <r_epik_Metal_State_Penalty>
0.516671

> <b_epik_Metal_Only>
0

> <s_lp_Force_Field>
OPLS_2005

> <r_lp_Energy>
34.3394

> <b_lp_Chiralities_Consistent>
1

> <s_lp_Variant>
AV-unprocessed.smi:1783-3

> <Gold.Version>
5.8.1

> <Gold.Id.Protein>
6NUR|6NUR_protein|mol2

> <Gold.PLP.Fitness>
40.4183

> <Gold.PLP.PLP>
-39.1279

> <Gold.PLP.part.hbond>
-0.7049

> <Gold.PLP.part.metal>
0.0000

> <Gold.PLP.part.buried>
-6.3875

> <Gold.PLP.part.nonpolar>
-32.3215

> <Gold.PLP.part.repulsive>
0.1417

> <Gold.PLP.ligand.clash>
0.0000

> <Gold.PLP.ligand.torsion>
0.8336

> <Gold.PLP.Chemscore.Hbond>
0.9672

> <Gold.PLP.Chemscore.CHOScore>
0.0000

> <Gold.PLP.Chemscore.Metal>
0.0000

> <Gold.Chemscore.Hbonds>
donor molecule, donor type, donor heavy atom, donor atom, acceptor molecule, acceptor atom, score
      P1  H  7997  8009       L1     1  0.99

> <Gold.PLP.Chemscore.Internal.Correction>
0.0560

> <Gold.Rescore>
     Score         DG    S(hbond)    S(metal)    S(lipo)     H(rot)  DE(clash)    DE(int)     intcor
     13.39     -14.20       0.91        0.00      70.48       1.00       0.06       0.75       ----

> <Gold.Chemscore.Fitness>
13.3920

> <Gold.Chemscore.DG>
-14.2018

> <Gold.Chemscore.ZeroCoef>
-5.4800

> <Gold.Chemscore.Hbond>
0.9088

> <Gold.Chemscore.Metal>
0.0000

> <Gold.Chemscore.Lipo>
70.4819

> <Gold.Chemscore.Internal_Hbond>
0.0000

> <Gold.Chemscore.DEClash>
0.0565

> <Gold.Chemscore.DEInternal>
0.7532

> <Gold.Chemscore.Rot>
1.0000

> <Gold.Chemscore.Internal.Correction>
   9.000000E+99

> <Gold.Chemscore.Hbonds>
donor molecule, donor type, donor heavy atom, donor atom, acceptor molecule, acceptor atom, score
      P1  H  7997  8009       L1     1  0.88

> <Gold.Chemscore.Hbond.Weighted>
-3.0354

> <Gold.Chemscore.Metal.Weighted>
-0.0000

> <Gold.Chemscore.Lipo.Weighted>
-8.2464

> <Gold.Chemscore.Internal_Hbond.Weighted>
0.0000

> <Gold.Chemscore.DEClash.Weighted>
0.0565

> <Gold.Chemscore.DEInternal.Weighted>
0.7532

> <Gold.Chemscore.Rot.Weighted>
2.5600

> <Gold.Chemscore.Internal.Correction.Weighted>
   9.000000E+99

> <Gold.Protein.RotatedTorsions>
[ 6907 6896 6895 6894 ] final  -82.68 input  -60.11 | X-H torsion
[ 7974 7965 7964 7962 ] final   11.08 input  175.53 | X-H torsion
[ 8008 7997 7996 7995 ] final -170.28 input   59.86 | X-H torsion
[ 10167 10162 10161 10158 ] final   32.62 input  -65.29 | X-H torsion
[ 10718 10713 10712 10709 ] final  119.16 input   66.30 | X-H torsion
[ 10763 10752 10751 10750 ] final  148.54 input  -60.55 | X-H torsion
[ 11005 11000 10999 10996 ] final  109.68 input  -57.11 | X-H torsion

> <Gold.Protein.ActiveResidues>
 VAL166  LYS551  ARG553  GLY616  TRP617  ASP618  TYR619  PRO620  LYS621  CYS622 
 ASP623  PHE694  ASN695  SER759  ASP760  ASP761  ALA762  ILE779  LEU786  VAL792 
 PHE793  MET794  SER795  GLU796  ALA797  LYS798  CYS799  TRP800  GLU811  SER814 

> <Gold.Protein.RotatedAtoms>
  150.6894  134.3628  159.4957 H   0  0  0  0  0  0  0  0  0  0  0  0  # atno 6907 bound_to 6896
  152.1454  134.9027  160.0560 H   0  0  0  0  0  0  0  0  0  0  0  0  # atno 6908 bound_to 6896
  152.0145  133.3839  159.4270 H   0  0  0  0  0  0  0  0  0  0  0  0  # atno 6909 bound_to 6896
  146.2377  139.9539  142.8467 H   0  0  0  0  0  0  0  0  0  0  0  0  # atno 7974 bound_to 7965
  155.9163  140.1066  157.1241 H   0  0  0  0  0  0  0  0  0  0  0  0  # atno 8008 bound_to 7997
  154.4047  140.1264  156.4686 H   0  0  0  0  0  0  0  0  0  0  0  0  # atno 8009 bound_to 7997
  155.7250  140.3469  155.5035 H   0  0  0  0  0  0  0  0  0  0  0  0  # atno 8010 bound_to 7997
  140.4482  144.1088  150.6186 H   0  0  0  0  0  0  0  0  0  0  0  0  # atno 10167 bound_to 10162
  157.5981  131.1055  150.7857 H   0  0  0  0  0  0  0  0  0  0  0  0  # atno 10718 bound_to 10713
  154.0565  135.2877  155.3332 H   0  0  0  0  0  0  0  0  0  0  0  0  # atno 10763 bound_to 10752
  154.6836  135.5254  153.8299 H   0  0  0  0  0  0  0  0  0  0  0  0  # atno 10764 bound_to 10752
  153.0539  135.6587  154.0757 H   0  0  0  0  0  0  0  0  0  0  0  0  # atno 10765 bound_to 10752
  139.8866  134.9464  156.6162 H   0  0  0  0  0  0  0  0  0  0  0  0  # atno 11005 bound_to 11000
  145.1835  140.9778  143.4252 LP  0  0  0  0  0  0  0  0  0  0  0  0  # atno 17320 bound_to 7965
  144.9920  139.3680  143.6210 LP  0  0  0  0  0  0  0  0  0  0  0  0  # atno 17321 bound_to 7965
  140.4239  143.2599  151.9681 LP  0  0  0  0  0  0  0  0  0  0  0  0  # atno 17342 bound_to 10162
  139.4794  144.5806  151.7939 LP  0  0  0  0  0  0  0  0  0  0  0  0  # atno 17343 bound_to 10162
  156.8263  130.5001  149.5337 LP  0  0  0  0  0  0  0  0  0  0  0  0  # atno 17370 bound_to 10713
  156.1048  130.5996  150.9952 LP  0  0  0  0  0  0  0  0  0  0  0  0  # atno 17371 bound_to 10713
  140.7774  133.8688  155.8540 LP  0  0  0  0  0  0  0  0  0  0  0  0  # atno 17394 bound_to 11000
  140.9790  134.1431  157.4511 LP  0  0  0  0  0  0  0  0  0  0  0  0  # atno 17395 bound_to 11000

$$$$
