AV-unprocessed.smi:290|AV-procd|sdf|2233|dock6
  -GOLD-   2262022 93D 1   1.00000     0.00000
 Structure written by MMmdl.
 59 62  0  0  0  0  0  0  0  0  2 V2000
  146.7992  141.7404  154.8719 C   0  0  0  0  0  0  0  0  0  0  0  0
  147.9366  141.0144  155.6088 C   0  0  2  0  0  0  0  0  0  0  0  0
  148.3362  141.8057  156.7235 O   0  0  0  0  0  0  0  0  0  0  0  0
  149.6980  141.5378  157.0031 C   0  0  0  0  0  0  0  0  0  0  0  0
  150.3036  141.4581  155.6097 C   0  0  0  0  0  0  0  0  0  0  0  0
  149.2317  140.7341  154.7926 C   0  0  2  0  0  0  0  0  0  0  0  0
  149.1916  141.3266  153.5057 O   0  0  0  0  0  0  0  0  0  0  0  0
  149.5126  139.2224  154.5560 C   0  0  0  0  0  0  0  0  0  0  0  0
  148.3390  138.3999  154.2897 N   0  0  0  0  0  0  0  0  0  0  0  0
  147.4334  138.5541  153.2623 C   0  0  0  0  0  0  0  0  0  0  0  0
  146.4625  137.6821  153.2357 N   0  0  0  0  0  0  0  0  0  0  0  0
  146.7316  136.8474  154.3129 C   0  0  0  0  0  0  0  0  0  0  0  0
  146.0971  135.6972  154.8612 C   0  0  0  0  0  0  0  0  0  0  0  0
  144.9677  135.1370  154.3763 N   0  0  0  0  0  0  0  0  0  0  0  0
  143.8222  136.0313  154.2949 C   0  0  0  0  0  0  0  0  0  0  0  0
  143.2998  135.9263  152.8670 C   0  0  0  0  0  0  0  0  0  0  0  0
  143.7689  134.5460  152.3857 C   0  0  1  0  0  0  0  0  0  0  0  0
  143.8172  134.4922  150.8920 N   0  3  1  0  0  0  0  0  0  0  0  0
  144.2148  135.7558  150.2262 C   0  0  0  0  0  0  0  0  0  0  0  0
  144.6109  133.3394  150.3852 C   0  0  0  0  0  0  0  0  0  0  0  0
  143.7984  132.0342  150.3947 C   0  0  0  0  0  0  0  0  0  0  0  0
  142.8446  132.0506  149.3531 O   0  0  0  0  0  0  0  0  0  0  0  0
  145.1276  134.4119  153.1169 C   0  0  2  0  0  0  0  0  0  0  0  0
  145.5700  132.9652  153.4197 C   0  0  0  0  0  0  0  0  0  0  0  0
  146.6645  135.1093  155.9417 N   0  0  0  0  0  0  0  0  0  0  0  0
  147.7884  135.6127  156.4603 C   0  0  0  0  0  0  0  0  0  0  0  0
  148.4895  136.6756  156.0598 N   0  0  0  0  0  0  0  0  0  0  0  0
  147.9159  137.2734  154.9760 C   0  0  0  0  0  0  0  0  0  0  0  0
  143.0873  133.7796  152.7600 H   0  0  0  0  0  0  0  0  0  0  0  0
  145.8988  134.9038  152.5222 H   0  0  0  0  0  0  0  0  0  0  0  0
  146.4570  141.1656  154.0110 H   0  0  0  0  0  0  0  0  0  0  0  0
  147.1137  142.7238  154.5209 H   0  0  0  0  0  0  0  0  0  0  0  0
  145.9437  141.8862  155.5314 H   0  0  0  0  0  0  0  0  0  0  0  0
  147.5342  140.0862  156.0084 H   0  0  0  0  0  0  0  0  0  0  0  0
  150.1455  142.3226  157.6127 H   0  0  0  0  0  0  0  0  0  0  0  0
  149.7899  140.5917  157.5378 H   0  0  0  0  0  0  0  0  0  0  0  0
  150.4404  142.4770  155.2427 H   0  0  0  0  0  0  0  0  0  0  0  0
  151.2815  140.9807  155.5879 H   0  0  0  0  0  0  0  0  0  0  0  0
  149.2314  140.6400  152.8574 H   0  0  0  0  0  0  0  0  0  0  0  0
  150.2064  139.1011  153.7227 H   0  0  0  0  0  0  0  0  0  0  0  0
  150.0164  138.8000  155.4269 H   0  0  0  0  0  0  0  0  0  0  0  0
  147.5129  139.3401  152.5252 H   0  0  0  0  0  0  0  0  0  0  0  0
  143.0690  135.6750  154.9983 H   0  0  0  0  0  0  0  0  0  0  0  0
  144.0549  137.0636  154.5611 H   0  0  0  0  0  0  0  0  0  0  0  0
  142.2193  136.0629  152.8225 H   0  0  0  0  0  0  0  0  0  0  0  0
  143.7593  136.7091  152.2610 H   0  0  0  0  0  0  0  0  0  0  0  0
  145.1979  136.0843  150.5657 H   0  0  0  0  0  0  0  0  0  0  0  0
  143.4886  136.5462  150.4126 H   0  0  0  0  0  0  0  0  0  0  0  0
  144.2634  135.6348  149.1446 H   0  0  0  0  0  0  0  0  0  0  0  0
  144.9608  133.5577  149.3751 H   0  0  0  0  0  0  0  0  0  0  0  0
  145.5137  133.1842  150.9755 H   0  0  0  0  0  0  0  0  0  0  0  0
  144.4357  131.1563  150.2920 H   0  0  0  0  0  0  0  0  0  0  0  0
  143.2685  131.9318  151.3421 H   0  0  0  0  0  0  0  0  0  0  0  0
  142.2708  132.7920  149.4773 H   0  0  0  0  0  0  0  0  0  0  0  0
  145.7342  132.3708  152.5246 H   0  0  0  0  0  0  0  0  0  0  0  0
  144.8260  132.4466  154.0252 H   0  0  0  0  0  0  0  0  0  0  0  0
  146.5076  132.9538  153.9762 H   0  0  0  0  0  0  0  0  0  0  0  0
  148.1817  135.0899  157.3199 H   0  0  0  0  0  0  0  0  0  0  0  0
  142.8649  134.3167  150.6034 H   0  0  0  0  0  0  0  0  0  0  0  0
  1  2  1  0  0  0  0
  1 31  1  0  0  0  0
  1 32  1  0  0  0  0
  1 33  1  0  0  0  0
  2  6  1  0  0  0  0
  2  3  1  0  0  0  0
  2 34  1  0  0  0  0
  3  4  1  0  0  0  0
  4  5  1  0  0  0  0
  4 35  1  0  0  0  0
  4 36  1  0  0  0  0
  5  6  1  0  0  0  0
  5 37  1  0  0  0  0
  5 38  1  0  0  0  0
  6  7  1  0  0  0  0
  6  8  1  0  0  0  0
  7 39  1  0  0  0  0
  8  9  1  0  0  0  0
  8 40  1  0  0  0  0
  8 41  1  0  0  0  0
  9 28  1  0  0  0  0
  9 10  1  0  0  0  0
 10 11  2  0  0  0  0
 10 42  1  0  0  0  0
 11 12  1  0  0  0  0
 12 28  2  0  0  0  0
 12 13  1  0  0  0  0
 13 14  1  0  0  0  0
 13 25  2  0  0  0  0
 14 23  1  0  0  0  0
 14 15  1  0  0  0  0
 15 16  1  0  0  0  0
 15 43  1  0  0  0  0
 15 44  1  0  0  0  0
 16 17  1  0  0  0  0
 16 45  1  0  0  0  0
 16 46  1  0  0  0  0
 17 29  1  0  0  0  0
 17 18  1  0  0  0  0
 17 23  1  0  0  0  0
 18 19  1  0  0  0  0
 18 20  1  0  0  0  0
 18 59  1  0  0  0  0
 19 47  1  0  0  0  0
 19 48  1  0  0  0  0
 19 49  1  0  0  0  0
 20 21  1  0  0  0  0
 20 50  1  0  0  0  0
 20 51  1  0  0  0  0
 21 22  1  0  0  0  0
 21 52  1  0  0  0  0
 21 53  1  0  0  0  0
 22 54  1  0  0  0  0
 23 30  1  0  0  0  0
 23 24  1  0  0  0  0
 24 55  1  0  0  0  0
 24 56  1  0  0  0  0
 24 57  1  0  0  0  0
 25 26  1  0  0  0  0
 26 27  2  0  0  0  0
 26 58  1  0  0  0  0
 27 28  1  0  0  0  0
M  CHG  1  18   1
M  END
> <s_m_source_file>
AV-unprocessed.smi

> <i_m_source_file_index>
290

> <i_lp_mmshare_version>
43012

> <i_f3d_flags>
0

> <s_epik_input>
W0NIMl0xW0NIMl1PW0NAQEhdKFtDSDNdKVtDQEBdMShbT0hdKVtDSDJdbihbY0hdbjIpYyhjMjMpbltjSF1uYzNONFtDSDJdW0NIMl1bQ0BIXShbQ0BIXTRbQ0gzXSlOKFtDSDNdKVtDSDJdW0NIMl1bT0hd

> <s_epik_cmdline>
J2VwaWtfcHl0aG9uJywgJy1waCcsICc3LjAnLCAnLXRuJywgJzgnLCAnLW1hJywgJzIwMCcsICctbWV0YWxfYmluZGluZycsICctaW1hZScsICc8aW5maWxlLm1hZT4nLCAnLW9tYWUnLCAnPG91dGZpbGUubWFlPic=

> <r_lp_tautomer_probability>
1

> <r_epik_Ionization_Penalty>
0.0036983

> <r_epik_Ionization_Penalty_Charging>
0.0032725

> <r_epik_Ionization_Penalty_Neutral>
0.000425798

> <r_epik_State_Penalty>
-0

> <r_epik_Charging_Adjusted_Penalty>
0.0032725

> <i_epik_Tot_Q>
1

> <i_epik_Tot_abs_Q>
1

> <r_epik_Metal_State_Penalty>
-0

> <b_epik_Metal_Only>
0

> <s_lp_Force_Field>
OPLS_2005

> <r_lp_Energy>
66.0364

> <b_lp_Chiralities_Consistent>
1

> <s_lp_Variant>
AV-unprocessed.smi:290-19

> <Gold.Version>
5.8.1

> <Gold.Id.Protein>
6NUR|6NUR_protein|mol2

> <Gold.PLP.Fitness>
51.0970

> <Gold.PLP.PLP>
-33.8925

> <Gold.PLP.part.hbond>
-7.0000

> <Gold.PLP.part.metal>
0.0000

> <Gold.PLP.part.buried>
-2.6565

> <Gold.PLP.part.nonpolar>
-27.0285

> <Gold.PLP.part.repulsive>
1.7173

> <Gold.PLP.ligand.clash>
0.0000

> <Gold.PLP.ligand.torsion>
1.2302

> <Gold.PLP.Chemscore.Hbond>
5.4547

> <Gold.PLP.Chemscore.CHOScore>
1.0000

> <Gold.PLP.Chemscore.Metal>
0.0000

> <Gold.Chemscore.Hbonds>
donor molecule, donor type, donor heavy atom, donor atom, acceptor molecule, acceptor atom, score
      L1  H     7    39       P1  7957  1.00
      L1  H    18    59       P1 10186  1.50
      L1  H    22    54       P1 10186  0.94
      P1  H  8011  8017       L1     7  0.42
      P1  H 10785 10796       L1    22  0.79
      L1  C    10    42       P1  7957  0.86

> <Gold.PLP.Chemscore.Internal.Correction>
0.3009

> <Gold.Rescore>
     Score         DG    S(hbond)    S(metal)    S(lipo)     H(rot)  DE(clash)    DE(int)     intcor
     12.18     -14.38       2.75        0.00      77.73       3.67       1.05       1.15       ----

> <Gold.Chemscore.Fitness>
12.1828

> <Gold.Chemscore.DG>
-14.3805

> <Gold.Chemscore.ZeroCoef>
-5.4800

> <Gold.Chemscore.Hbond>
2.7516

> <Gold.Chemscore.Metal>
0.0000

> <Gold.Chemscore.Lipo>
77.7331

> <Gold.Chemscore.Internal_Hbond>
0.0000

> <Gold.Chemscore.DEClash>
1.0498

> <Gold.Chemscore.DEInternal>
1.1479

> <Gold.Chemscore.Rot>
3.6658

> <Gold.Chemscore.Internal.Correction>
   9.000000E+99

> <Gold.Chemscore.Hbonds>
donor molecule, donor type, donor heavy atom, donor atom, acceptor molecule, acceptor atom, score
      L1  H     7    39       P1  7957  0.95
      L1  H    18    59       P1 10186  0.45
      L1  H    22    54       P1 10186  0.90
      P1  H  8011  8017       L1     7  0.01
      P1  H 10785 10796       L1    22  0.11

> <Gold.Chemscore.Hbond.Weighted>
-9.1902

> <Gold.Chemscore.Metal.Weighted>
-0.0000

> <Gold.Chemscore.Lipo.Weighted>
-9.0948

> <Gold.Chemscore.Internal_Hbond.Weighted>
0.0000

> <Gold.Chemscore.DEClash.Weighted>
1.0498

> <Gold.Chemscore.DEInternal.Weighted>
1.1479

> <Gold.Chemscore.Rot.Weighted>
9.3844

> <Gold.Chemscore.Internal.Correction.Weighted>
   9.000000E+99

> <Gold.Protein.RotatedTorsions>
[ 6907 6896 6895 6894 ] final  146.78 input  -60.11 | X-H torsion
[ 7974 7965 7964 7962 ] final   49.50 input  175.53 | X-H torsion
[ 8008 7997 7996 7995 ] final  100.04 input   59.86 | X-H torsion
[ 10167 10162 10161 10158 ] final  -63.58 input  -65.29 | X-H torsion
[ 10718 10713 10712 10709 ] final  -86.71 input   66.30 | X-H torsion
[ 10763 10752 10751 10750 ] final -170.84 input  -60.55 | X-H torsion
[ 11005 11000 10999 10996 ] final -139.65 input  -57.11 | X-H torsion

> <Gold.Protein.ActiveResidues>
 VAL166  LYS551  ARG553  GLY616  TRP617  ASP618  TYR619  PRO620  LYS621  CYS622 
 ASP623  PHE694  ASN695  SER759  ASP760  ASP761  ALA762  ILE779  LEU786  VAL792 
 PHE793  MET794  SER795  GLU796  ALA797  LYS798  CYS799  TRP800  GLU811  SER814 

> <Gold.Protein.RotatedAtoms>
  152.1634  133.4596  159.4872 H   0  0  0  0  0  0  0  0  0  0  0  0  # atno 6907 bound_to 6896
  150.6910  134.2043  159.4343 H   0  0  0  0  0  0  0  0  0  0  0  0  # atno 6908 bound_to 6896
  151.9946  134.9960  160.0613 H   0  0  0  0  0  0  0  0  0  0  0  0  # atno 6909 bound_to 6896
  146.0103  139.4535  142.9960 H   0  0  0  0  0  0  0  0  0  0  0  0  # atno 7974 bound_to 7965
  156.1164  140.3219  155.8145 H   0  0  0  0  0  0  0  0  0  0  0  0  # atno 8008 bound_to 7997
  155.4582  140.0537  157.3011 H   0  0  0  0  0  0  0  0  0  0  0  0  # atno 8009 bound_to 7997
  154.4796  140.2047  155.9810 H   0  0  0  0  0  0  0  0  0  0  0  0  # atno 8010 bound_to 7997
  140.5861  143.2334  151.6240 H   0  0  0  0  0  0  0  0  0  0  0  0  # atno 10167 bound_to 10162
  155.9988  130.4774  150.4757 H   0  0  0  0  0  0  0  0  0  0  0  0  # atno 10718 bound_to 10713
  154.6371  135.2894  155.0148 H   0  0  0  0  0  0  0  0  0  0  0  0  # atno 10763 bound_to 10752
  154.1287  135.6537  153.4921 H   0  0  0  0  0  0  0  0  0  0  0  0  # atno 10764 bound_to 10752
  153.0308  135.5305  154.7223 H   0  0  0  0  0  0  0  0  0  0  0  0  # atno 10765 bound_to 10752
  140.8499  134.2299  157.4766 H   0  0  0  0  0  0  0  0  0  0  0  0  # atno 11005 bound_to 11000
  145.7353  141.0028  143.1330 LP  0  0  0  0  0  0  0  0  0  0  0  0  # atno 17320 bound_to 7965
  144.6950  139.9033  143.7459 LP  0  0  0  0  0  0  0  0  0  0  0  0  # atno 17321 bound_to 7965
  139.5198  144.3242  152.0884 LP  0  0  0  0  0  0  0  0  0  0  0  0  # atno 17342 bound_to 10162
  140.2399  144.4281  150.6264 LP  0  0  0  0  0  0  0  0  0  0  0  0  # atno 17343 bound_to 10162
  157.2767  131.0598  151.2224 LP  0  0  0  0  0  0  0  0  0  0  0  0  # atno 17370 bound_to 10713
  157.3285  130.6973  149.6310 LP  0  0  0  0  0  0  0  0  0  0  0  0  # atno 17371 bound_to 10713
  139.8704  134.9678  156.4609 LP  0  0  0  0  0  0  0  0  0  0  0  0  # atno 17394 bound_to 11000
  140.8802  133.7923  155.9458 LP  0  0  0  0  0  0  0  0  0  0  0  0  # atno 17395 bound_to 11000

$$$$
