AV-unprocessed.smi:1452|AV-procd|sdf|5904|dock6
  -GOLD-   22720 5593D 1   1.00000     0.00000
 Structure written by MMmdl.
 40 42  0  0  0  0  0  0  0  0  2 V2000
  145.9358  142.2847  159.9434 O   0  0  0  0  0  0  0  0  0  0  0  0
  146.1440  143.2524  159.2139 C   0  0  0  0  0  0  0  0  0  0  0  0
  145.3166  144.3188  159.2130 N   0  0  0  0  0  0  0  0  0  0  0  0
  144.1290  144.5839  159.9564 C   0  0  0  0  0  0  0  0  0  0  0  0
  144.0340  143.8840  161.1804 C   0  0  0  0  0  0  0  0  0  0  0  0
  142.9117  144.0790  162.0086 C   0  0  0  0  0  0  0  0  0  0  0  0
  141.9111  144.9753  161.5936 C   0  0  0  0  0  0  0  0  0  0  0  0
  142.0830  145.6371  160.3647 C   0  0  0  0  0  0  0  0  0  0  0  0
  143.1578  145.4508  159.5693 N   0  0  0  0  0  0  0  0  0  0  0  0
  147.1940  143.3206  158.3786 N   0  0  0  0  0  0  0  0  0  0  0  0
  148.2483  142.3188  158.2437 C   0  0  1  0  0  0  0  0  0  0  0  0
  148.3753  141.7758  156.8067 C   0  0  0  0  0  0  0  0  0  0  0  0
  149.8838  141.7052  156.5483 C   0  0  0  0  0  0  0  0  0  0  0  0
  150.4039  142.8335  157.3293 N   0  3  2  0  0  0  0  0  0  0  0  0
  151.8634  142.9429  157.5257 C   0  0  0  0  0  0  0  0  0  0  0  0
  152.1641  144.2930  158.2114 C   0  0  0  0  0  0  0  0  0  0  0  0
  151.3304  144.4950  159.4971 C   0  0  0  0  0  0  0  0  0  0  0  0
  149.8276  144.2399  159.2519 C   0  0  0  0  0  0  0  0  0  0  0  0
  149.6544  142.8572  158.5970 C   0  0  1  0  0  0  0  0  0  0  0  0
  145.5316  145.0141  158.5130 H   0  0  0  0  0  0  0  0  0  0  0  0
  144.8129  143.2007  161.4871 H   0  0  0  0  0  0  0  0  0  0  0  0
  142.8219  143.5505  162.9461 H   0  0  0  0  0  0  0  0  0  0  0  0
  141.0362  145.1522  162.2016 H   0  0  0  0  0  0  0  0  0  0  0  0
  141.3392  146.3356  160.0106 H   0  0  0  0  0  0  0  0  0  0  0  0
  147.2828  144.1542  157.8142 H   0  0  0  0  0  0  0  0  0  0  0  0
  148.0283  141.4759  158.9019 H   0  0  0  0  0  0  0  0  0  0  0  0
  147.8858  140.8100  156.6778 H   0  0  0  0  0  0  0  0  0  0  0  0
  147.9221  142.4702  156.0972 H   0  0  0  0  0  0  0  0  0  0  0  0
  150.2960  140.7702  156.9311 H   0  0  0  0  0  0  0  0  0  0  0  0
  150.1355  141.7894  155.4907 H   0  0  0  0  0  0  0  0  0  0  0  0
  152.2259  142.1094  158.1290 H   0  0  0  0  0  0  0  0  0  0  0  0
  152.3700  142.8899  156.5614 H   0  0  0  0  0  0  0  0  0  0  0  0
  153.2277  144.3680  158.4396 H   0  0  0  0  0  0  0  0  0  0  0  0
  151.9434  145.1036  157.5155 H   0  0  0  0  0  0  0  0  0  0  0  0
  151.6900  143.8117  160.2675 H   0  0  0  0  0  0  0  0  0  0  0  0
  151.4803  145.5023  159.8867 H   0  0  0  0  0  0  0  0  0  0  0  0
  149.2861  144.2864  160.1971 H   0  0  0  0  0  0  0  0  0  0  0  0
  149.4166  145.0203  158.6097 H   0  0  0  0  0  0  0  0  0  0  0  0
  150.1074  142.1158  159.2590 H   0  0  0  0  0  0  0  0  0  0  0  0
  150.1211  143.6609  156.8240 H   0  0  0  0  0  0  0  0  0  0  0  0
  1  2  2  0  0  0  0
  2  3  1  0  0  0  0
  2 10  1  0  0  0  0
  3  4  1  0  0  0  0
  3 20  1  0  0  0  0
  4  9  1  0  0  0  0
  4  5  2  0  0  0  0
  5  6  1  0  0  0  0
  5 21  1  0  0  0  0
  6  7  2  0  0  0  0
  6 22  1  0  0  0  0
  7  8  1  0  0  0  0
  7 23  1  0  0  0  0
  8  9  2  0  0  0  0
  8 24  1  0  0  0  0
 10 11  1  0  0  0  0
 10 25  1  0  0  0  0
 11 19  1  0  0  0  0
 11 12  1  0  0  0  0
 11 26  1  0  0  0  0
 12 13  1  0  0  0  0
 12 27  1  0  0  0  0
 12 28  1  0  0  0  0
 13 14  1  0  0  0  0
 13 29  1  0  0  0  0
 13 30  1  0  0  0  0
 14 19  1  0  0  0  0
 14 15  1  0  0  0  0
 14 40  1  0  0  0  0
 15 16  1  0  0  0  0
 15 31  1  0  0  0  0
 15 32  1  0  0  0  0
 16 17  1  0  0  0  0
 16 33  1  0  0  0  0
 16 34  1  0  0  0  0
 17 18  1  0  0  0  0
 17 35  1  0  0  0  0
 17 36  1  0  0  0  0
 18 19  1  0  0  0  0
 18 37  1  0  0  0  0
 18 38  1  0  0  0  0
 19 39  1  0  0  0  0
M  CHG  1  14   1
M  END
> <s_m_source_file>
AV-unprocessed.smi

> <i_m_source_file_index>
1452

> <i_lp_mmshare_version>
43012

> <i_f3d_flags>
0

> <s_epik_input>
W0NIMl0xW0NIMl1bQ0gyXVtDSDJdW0NASF0oTjEyKVtDQEBIXShbQ0gyXVtDSDJdMilbTkhdQyg9TylbTkhdYzNbY0hdW2NIXVtjSF1bY0hdbjM=

> <s_epik_cmdline>
J2VwaWtfcHl0aG9uJywgJy1waCcsICc3LjAnLCAnLXRuJywgJzgnLCAnLW1hJywgJzIwMCcsICctbWV0YWxfYmluZGluZycsICctaW1hZScsICc8aW5maWxlLm1hZT4nLCAnLW9tYWUnLCAnPG91dGZpbGUubWFlPic=

> <r_epik_Ionization_Penalty>
0.00100813

> <r_epik_Ionization_Penalty_Charging>
0.000974069

> <r_epik_Ionization_Penalty_Neutral>
3.40643e-05

> <r_epik_State_Penalty>
0.000633842

> <r_epik_Charging_Adjusted_Penalty>
0.00160791

> <i_epik_Tot_Q>
1

> <i_epik_Tot_abs_Q>
1

> <r_epik_Metal_State_Penalty>
-0

> <b_epik_Metal_Only>
0

> <s_lp_Force_Field>
OPLS_2005

> <r_lp_Energy>
45.5748

> <b_lp_Chiralities_Consistent>
1

> <s_lp_Variant>
AV-unprocessed.smi:1452-2

> <Gold.Version>
5.8.1

> <Gold.Id.Protein>
6NUR|6NUR_protein|mol2

> <Gold.PLP.Fitness>
39.6884

> <Gold.PLP.PLP>
-28.5421

> <Gold.PLP.part.hbond>
-3.0000

> <Gold.PLP.part.metal>
0.0000

> <Gold.PLP.part.buried>
-4.2080

> <Gold.PLP.part.nonpolar>
-22.6167

> <Gold.PLP.part.repulsive>
0.1591

> <Gold.PLP.ligand.clash>
0.0000

> <Gold.PLP.ligand.torsion>
0.1271

> <Gold.PLP.Chemscore.Hbond>
3.8000

> <Gold.PLP.Chemscore.CHOScore>
0.0000

> <Gold.PLP.Chemscore.Metal>
0.0000

> <Gold.Chemscore.Hbonds>
donor molecule, donor type, donor heavy atom, donor atom, acceptor molecule, acceptor atom, score
      L1  H    10    25       P1  8029  0.75
      L1  H    14    40       P1  8028  2.00
      P1  H  6934  6946       L1     1  1.00

> <Gold.PLP.Chemscore.Internal.Correction>
0.0005

> <Gold.Rescore>
     Score         DG    S(hbond)    S(metal)    S(lipo)     H(rot)  DE(clash)    DE(int)     intcor
     18.44     -21.02       2.28        0.00      89.48       1.00       1.04       1.55       ----

> <Gold.Chemscore.Fitness>
18.4359

> <Gold.Chemscore.DG>
-21.0203

> <Gold.Chemscore.ZeroCoef>
-5.4800

> <Gold.Chemscore.Hbond>
2.2846

> <Gold.Chemscore.Metal>
0.0000

> <Gold.Chemscore.Lipo>
89.4840

> <Gold.Chemscore.Internal_Hbond>
0.0000

> <Gold.Chemscore.DEClash>
1.0389

> <Gold.Chemscore.DEInternal>
1.5455

> <Gold.Chemscore.Rot>
1.0000

> <Gold.Chemscore.Internal.Correction>
   9.000000E+99

> <Gold.Chemscore.Hbonds>
donor molecule, donor type, donor heavy atom, donor atom, acceptor molecule, acceptor atom, score
      L1  H    10    25       P1  8029  0.09
      L1  H    14    40       P1  8028  0.95
      P1  H  6934  6946       L1     1  1.00

> <Gold.Chemscore.Hbond.Weighted>
-7.6307

> <Gold.Chemscore.Metal.Weighted>
-0.0000

> <Gold.Chemscore.Lipo.Weighted>
-10.4696

> <Gold.Chemscore.Internal_Hbond.Weighted>
0.0000

> <Gold.Chemscore.DEClash.Weighted>
1.0389

> <Gold.Chemscore.DEInternal.Weighted>
1.5455

> <Gold.Chemscore.Rot.Weighted>
2.5600

> <Gold.Chemscore.Internal.Correction.Weighted>
   9.000000E+99

> <Gold.Protein.RotatedTorsions>
[ 6907 6896 6895 6894 ] final  -57.01 input  -60.11 | X-H torsion
[ 7974 7965 7964 7962 ] final  176.30 input  175.53 | X-H torsion
[ 8008 7997 7996 7995 ] final  127.39 input   59.86 | X-H torsion
[ 10167 10162 10161 10158 ] final   90.59 input  -65.29 | X-H torsion
[ 10718 10713 10712 10709 ] final  167.35 input   66.30 | X-H torsion
[ 10763 10752 10751 10750 ] final   12.87 input  -60.55 | X-H torsion
[ 11005 11000 10999 10996 ] final   -2.24 input  -57.11 | X-H torsion

> <Gold.Protein.ActiveResidues>
 VAL166  LYS551  ARG553  GLY616  TRP617  ASP618  TYR619  PRO620  LYS621  CYS622 
 ASP623  PHE694  ASN695  SER759  ASP760  ASP761  ALA762  ILE779  LEU786  VAL792 
 PHE793  MET794  SER795  GLU796  ALA797  LYS798  CYS799  TRP800  GLU811  SER814 

> <Gold.Protein.RotatedAtoms>
  150.8121  134.7281  159.6696 H   0  0  0  0  0  0  0  0  0  0  0  0  # atno 6907 bound_to 6896
  152.4240  134.5899  159.9981 H   0  0  0  0  0  0  0  0  0  0  0  0  # atno 6908 bound_to 6896
  151.6106  133.3310  159.3102 H   0  0  0  0  0  0  0  0  0  0  0  0  # atno 6909 bound_to 6896
  144.7186  140.0075  143.6440 H   0  0  0  0  0  0  0  0  0  0  0  0  # atno 7974 bound_to 7965
  156.2889  140.2670  156.2266 H   0  0  0  0  0  0  0  0  0  0  0  0  # atno 8008 bound_to 7997
  155.0115  140.0387  157.2419 H   0  0  0  0  0  0  0  0  0  0  0  0  # atno 8009 bound_to 7997
  154.7514  140.2744  155.6294 H   0  0  0  0  0  0  0  0  0  0  0  0  # atno 8010 bound_to 7997
  139.8458  144.6618  150.9228 H   0  0  0  0  0  0  0  0  0  0  0  0  # atno 10167 bound_to 10162
  157.0527  131.0318  151.2675 H   0  0  0  0  0  0  0  0  0  0  0  0  # atno 10718 bound_to 10713
  153.1778  135.6823  153.8518 H   0  0  0  0  0  0  0  0  0  0  0  0  # atno 10763 bound_to 10752
  153.7860  135.3175  155.3373 H   0  0  0  0  0  0  0  0  0  0  0  0  # atno 10764 bound_to 10752
  154.8040  135.4760  154.0441 H   0  0  0  0  0  0  0  0  0  0  0  0  # atno 10765 bound_to 10752
  140.6561  133.9361  155.8408 H   0  0  0  0  0  0  0  0  0  0  0  0  # atno 11005 bound_to 11000
  146.0285  139.3314  143.0769 LP  0  0  0  0  0  0  0  0  0  0  0  0  # atno 17320 bound_to 7965
  145.8482  140.9544  143.0764 LP  0  0  0  0  0  0  0  0  0  0  0  0  # atno 17321 bound_to 7965
  140.7793  143.3871  151.1374 LP  0  0  0  0  0  0  0  0  0  0  0  0  # atno 17342 bound_to 10162
  139.7514  143.8773  152.3077 LP  0  0  0  0  0  0  0  0  0  0  0  0  # atno 17343 bound_to 10162
  157.5017  130.7884  149.7612 LP  0  0  0  0  0  0  0  0  0  0  0  0  # atno 17370 bound_to 10713
  156.0002  130.3884  150.2634 LP  0  0  0  0  0  0  0  0  0  0  0  0  # atno 17371 bound_to 10713
  141.0500  134.0498  157.3795 LP  0  0  0  0  0  0  0  0  0  0  0  0  # atno 17394 bound_to 11000
  139.9029  135.0170  156.7352 LP  0  0  0  0  0  0  0  0  0  0  0  0  # atno 17395 bound_to 11000

$$$$
