AV-unprocessed.smi:548|AV-procd|sdf|2890|dock7
  -GOLD-   2262023383D 1   1.00000     0.00000
 Structure written by MMmdl.
 25 25  0  0  0  0  0  0  0  0  3 V2000
  150.1790  137.0636  155.1520 C   0  0  0  0  0  0  0  0  0  0  0  0
  150.8314  138.4089  155.5561 C   0  0  0  0  0  0  0  0  0  0  0  0
  151.1202  138.3857  157.0774 C   0  0  0  0  0  0  0  0  0  0  0  0
  152.1756  138.5646  154.7915 C   0  0  0  0  0  0  0  0  0  0  0  0
  152.7714  139.6624  154.8716 O   0  0  0  0  0  0  0  0  0  0  0  0
  152.5686  137.6009  154.0961 O   0  5  0  0  0  0  0  0  0  0  0  0
  149.8805  139.5798  155.2173 C   0  0  0  0  0  0  0  0  0  0  0  0
  148.7084  139.3158  154.4663 C   0  0  0  0  0  0  0  0  0  0  0  0
  147.8185  140.3587  154.1391 C   0  0  0  0  0  0  0  0  0  0  0  0
  148.1095  141.6673  154.5689 C   0  0  0  0  0  0  0  0  0  0  0  0
  147.2755  142.7456  154.2813 N   0  0  0  0  0  0  0  0  0  0  0  0
  149.2298  141.8981  155.2830 N   0  3  0  0  0  0  0  0  0  0  0  0
  150.1064  140.9255  155.6160 C   0  0  0  0  0  0  0  0  0  0  0  0
  149.8799  137.0572  154.1029 H   0  0  0  0  0  0  0  0  0  0  0  0
  149.2854  136.8541  155.7400 H   0  0  0  0  0  0  0  0  0  0  0  0
  150.8620  136.2271  155.3065 H   0  0  0  0  0  0  0  0  0  0  0  0
  151.5083  139.3422  157.4311 H   0  0  0  0  0  0  0  0  0  0  0  0
  151.8510  137.6169  157.3329 H   0  0  0  0  0  0  0  0  0  0  0  0
  150.2219  138.1722  157.6567 H   0  0  0  0  0  0  0  0  0  0  0  0
  148.4835  138.3129  154.1363 H   0  0  0  0  0  0  0  0  0  0  0  0
  146.9269  140.1496  153.5660 H   0  0  0  0  0  0  0  0  0  0  0  0
  146.4248  142.6279  153.7498 H   0  0  0  0  0  0  0  0  0  0  0  0
  147.4942  143.6807  154.5938 H   0  0  0  0  0  0  0  0  0  0  0  0
  150.9529  141.2735  156.1898 H   0  0  0  0  0  0  0  0  0  0  0  0
  149.4288  142.8507  155.5883 H   0  0  0  0  0  0  0  0  0  0  0  0
  1  2  1  0  0  0  0
  1 14  1  0  0  0  0
  1 15  1  0  0  0  0
  1 16  1  0  0  0  0
  2  3  1  0  0  0  0
  2  4  1  0  0  0  0
  2  7  1  0  0  0  0
  3 17  1  0  0  0  0
  3 18  1  0  0  0  0
  3 19  1  0  0  0  0
  4  5  2  0  0  0  0
  4  6  1  0  0  0  0
  7 13  1  0  0  0  0
  7  8  2  0  0  0  0
  8  9  1  0  0  0  0
  8 20  1  0  0  0  0
  9 10  2  0  0  0  0
  9 21  1  0  0  0  0
 10 11  1  0  0  0  0
 10 12  1  0  0  0  0
 11 22  1  0  0  0  0
 11 23  1  0  0  0  0
 12 13  2  0  0  0  0
 12 25  1  0  0  0  0
 13 24  1  0  0  0  0
M  CHG  1   6  -1
M  CHG  1  12   1
M  END
> <s_m_source_file>
AV-unprocessed.smi

> <i_m_source_file_index>
548

> <i_lp_mmshare_version>
43012

> <i_f3d_flags>
0

> <s_epik_input>
Tz1DKFtPSF0pQyhbQ0gzXSkoW0NIM10pYzFbY0hdW2NIXWMoW05IMl0pbltjSF0x

> <s_epik_cmdline>
J2VwaWtfcHl0aG9uJywgJy1waCcsICc3LjAnLCAnLXRuJywgJzgnLCAnLW1hJywgJzIwMCcsICctbWV0YWxfYmluZGluZycsICctaW1hZScsICc8aW5maWxlLm1hZT4nLCAnLW9tYWUnLCAnPG91dGZpbGUubWFlPic=

> <r_lp_tautomer_probability>
0.999994

> <r_epik_Ionization_Penalty>
0.0472787

> <r_epik_Ionization_Penalty_Charging>
0.0472785

> <r_epik_Ionization_Penalty_Neutral>
2.36651e-07

> <r_epik_State_Penalty>
0.0398874

> <r_epik_Charging_Adjusted_Penalty>
0.0871658

> <i_epik_Tot_Q>
0

> <i_epik_Tot_abs_Q>
2

> <r_epik_Metal_State_Penalty>
2.52256

> <b_epik_Metal_Only>
0

> <s_lp_Force_Field>
OPLS_2005

> <r_lp_Energy>
11.9737

> <b_lp_Chiralities_Consistent>
1

> <s_lp_Variant>
AV-unprocessed.smi:548-1

> <Gold.Version>
5.8.1

> <Gold.Id.Protein>
6NUR|6NUR_protein|mol2

> <Gold.PLP.Fitness>
44.5701

> <Gold.PLP.PLP>
-23.8760

> <Gold.PLP.part.hbond>
-5.0000

> <Gold.PLP.part.metal>
0.0000

> <Gold.PLP.part.buried>
-3.9717

> <Gold.PLP.part.nonpolar>
-16.4335

> <Gold.PLP.part.repulsive>
0.5303

> <Gold.PLP.ligand.clash>
0.0000

> <Gold.PLP.ligand.torsion>
0.3727

> <Gold.PLP.Chemscore.Hbond>
7.1422

> <Gold.PLP.Chemscore.CHOScore>
0.0000

> <Gold.PLP.Chemscore.Metal>
0.0000

> <Gold.Chemscore.Hbonds>
donor molecule, donor type, donor heavy atom, donor atom, acceptor molecule, acceptor atom, score
      L1  H    11    23       P1  8028  1.38
      L1  H    12    25       P1  8028  1.92
      P1  H  7989  7998       L1     5  0.40
      P1  H  7997  8008       L1     5  1.95
      P1  H 10752 10764       L1     6  1.28

> <Gold.PLP.Chemscore.Internal.Correction>
0.0130

> <Gold.Rescore>
     Score         DG    S(hbond)    S(metal)    S(lipo)     H(rot)  DE(clash)    DE(int)     intcor
     15.40     -15.80       2.82        0.00      40.61       1.50       0.05       0.35       ----

> <Gold.Chemscore.Fitness>
15.3983

> <Gold.Chemscore.DG>
-15.8041

> <Gold.Chemscore.ZeroCoef>
-5.4800

> <Gold.Chemscore.Hbond>
2.8152

> <Gold.Chemscore.Metal>
0.0000

> <Gold.Chemscore.Lipo>
40.6091

> <Gold.Chemscore.Internal_Hbond>
0.0000

> <Gold.Chemscore.DEClash>
0.0541

> <Gold.Chemscore.DEInternal>
0.3517

> <Gold.Chemscore.Rot>
1.4961

> <Gold.Chemscore.Internal.Correction>
   9.000000E+99

> <Gold.Chemscore.Hbonds>
donor molecule, donor type, donor heavy atom, donor atom, acceptor molecule, acceptor atom, score
      L1  H    11    23       P1  8028  0.10
      L1  H    12    25       P1  8028  0.91
      P1  H  7989  7998       L1     5  0.13
      P1  H  7997  8008       L1     5  0.91
      P1  H 10752 10764       L1     6  0.64

> <Gold.Chemscore.Hbond.Weighted>
-9.4028

> <Gold.Chemscore.Metal.Weighted>
-0.0000

> <Gold.Chemscore.Lipo.Weighted>
-4.7513

> <Gold.Chemscore.Internal_Hbond.Weighted>
0.0000

> <Gold.Chemscore.DEClash.Weighted>
0.0541

> <Gold.Chemscore.DEInternal.Weighted>
0.3517

> <Gold.Chemscore.Rot.Weighted>
3.8299

> <Gold.Chemscore.Internal.Correction.Weighted>
   9.000000E+99

> <Gold.Protein.RotatedTorsions>
[ 6907 6896 6895 6894 ] final    2.67 input  -60.11 | X-H torsion
[ 7974 7965 7964 7962 ] final   -5.42 input  175.53 | X-H torsion
[ 8008 7997 7996 7995 ] final   -9.91 input   59.86 | X-H torsion
[ 10167 10162 10161 10158 ] final  -13.33 input  -65.29 | X-H torsion
[ 10718 10713 10712 10709 ] final  129.88 input   66.30 | X-H torsion
[ 10763 10752 10751 10750 ] final  -96.11 input  -60.55 | X-H torsion
[ 11005 11000 10999 10996 ] final  -45.66 input  -57.11 | X-H torsion

> <Gold.Protein.ActiveResidues>
 VAL166  LYS551  ARG553  GLY616  TRP617  ASP618  TYR619  PRO620  LYS621  CYS622 
 ASP623  PHE694  ASN695  SER759  ASP760  ASP761  ALA762  ILE779  LEU786  VAL792 
 PHE793  MET794  SER795  GLU796  ALA797  LYS798  CYS799  TRP800  GLU811  SER814 

> <Gold.Protein.RotatedAtoms>
  151.6127  135.1039  160.0084 H   0  0  0  0  0  0  0  0  0  0  0  0  # atno 6907 bound_to 6896
  152.4200  133.7096  159.6482 H   0  0  0  0  0  0  0  0  0  0  0  0  # atno 6908 bound_to 6896
  150.8087  133.8388  159.3214 H   0  0  0  0  0  0  0  0  0  0  0  0  # atno 6909 bound_to 6896
  146.2353  140.2018  142.8334 H   0  0  0  0  0  0  0  0  0  0  0  0  # atno 7974 bound_to 7965
  154.5603  140.2343  155.8346 H   0  0  0  0  0  0  0  0  0  0  0  0  # atno 8008 bound_to 7997
  156.2024  140.3049  155.9513 H   0  0  0  0  0  0  0  0  0  0  0  0  # atno 8009 bound_to 7997
  155.2901  140.0426  157.3013 H   0  0  0  0  0  0  0  0  0  0  0  0  # atno 8010 bound_to 7997
  140.7180  143.5438  150.9379 H   0  0  0  0  0  0  0  0  0  0  0  0  # atno 10167 bound_to 10162
  157.5114  131.1097  150.9288 H   0  0  0  0  0  0  0  0  0  0  0  0  # atno 10718 bound_to 10713
  154.7210  135.5096  153.8811 H   0  0  0  0  0  0  0  0  0  0  0  0  # atno 10763 bound_to 10752
  153.0862  135.6646  153.9953 H   0  0  0  0  0  0  0  0  0  0  0  0  # atno 10764 bound_to 10752
  153.9776  135.3032  155.3402 H   0  0  0  0  0  0  0  0  0  0  0  0  # atno 10765 bound_to 10752
  141.0530  133.6736  156.3045 H   0  0  0  0  0  0  0  0  0  0  0  0  # atno 11005 bound_to 11000
  144.9776  140.8428  143.5417 LP  0  0  0  0  0  0  0  0  0  0  0  0  # atno 17320 bound_to 7965
  145.2007  139.2253  143.5194 LP  0  0  0  0  0  0  0  0  0  0  0  0  # atno 17321 bound_to 7965
  139.9161  143.6662  152.3106 LP  0  0  0  0  0  0  0  0  0  0  0  0  # atno 17342 bound_to 10162
  139.7062  144.7627  151.1189 LP  0  0  0  0  0  0  0  0  0  0  0  0  # atno 17343 bound_to 10162
  156.9927  130.5569  149.5304 LP  0  0  0  0  0  0  0  0  0  0  0  0  # atno 17370 bound_to 10713
  156.0291  130.5384  150.8487 LP  0  0  0  0  0  0  0  0  0  0  0  0  # atno 17371 bound_to 10713
  140.6019  134.5546  157.5519 LP  0  0  0  0  0  0  0  0  0  0  0  0  # atno 17394 bound_to 11000
  139.9366  134.7864  156.0787 LP  0  0  0  0  0  0  0  0  0  0  0  0  # atno 17395 bound_to 11000

$$$$
