AV-unprocessed.smi:279|AV-procd|sdf|2095|dock8
  -GOLD-   2262021373D 1   1.00000     0.00000
 Structure written by MMmdl.
 50 54  0  0  0  0  0  0  0  0  1 V2000
  149.8850  145.1178  160.2007 O   0  0  0  0  0  0  0  0  0  0  0  0
  151.3408  145.3177  160.1330 S   0  0  0  0  0  0  0  0  0  0  0  0
  151.9136  146.6718  160.0888 O   0  0  0  0  0  0  0  0  0  0  0  0
  152.1402  144.3749  161.4825 C   0  0  0  0  0  0  0  0  0  0  0  0
  152.4585  143.0039  160.8798 C   0  0  0  0  0  0  0  0  0  0  0  0
  152.9025  143.2011  159.4149 C   0  0  1  0  0  0  0  0  0  0  0  0
  152.6954  141.9584  158.5326 C   0  0  0  0  0  0  0  0  0  0  0  0
  151.6845  142.3149  157.5454 N   0  0  0  0  0  0  0  0  0  0  0  0
  151.0123  141.3434  156.8715 C   0  0  0  0  0  0  0  0  0  0  0  0
  149.8386  141.6642  156.2639 N   0  0  0  0  0  0  0  0  0  0  0  0
  149.1428  140.7417  155.5942 C   0  0  0  0  0  0  0  0  0  0  0  0
  149.4362  139.4559  155.4001 N   0  0  0  0  0  0  0  0  0  0  0  0
  150.6198  139.1250  155.9904 C   0  0  0  0  0  0  0  0  0  0  0  0
  151.4626  139.9951  156.7418 C   0  0  0  0  0  0  0  0  0  0  0  0
  152.5752  139.2898  157.1892 N   0  0  0  0  0  0  0  0  0  0  0  0
  152.3932  138.0775  156.7429 C   0  0  0  0  0  0  0  0  0  0  0  0
  151.2574  137.8968  155.9883 N   0  0  0  0  0  0  0  0  0  0  0  0
  150.7947  136.6684  155.4122 C   0  0  0  0  0  0  0  0  0  0  0  0
  149.3802  136.1473  155.6773 C   0  0  0  0  0  0  0  0  0  0  0  0
  149.9068  134.6970  155.5829 C   0  0  0  0  0  0  0  0  0  0  0  0
  149.3379  133.7165  156.6220 C   0  0  0  0  0  0  0  0  0  0  0  0
  149.2947  134.2993  157.9089 O   0  0  0  0  0  0  0  0  0  0  0  0
  149.8240  134.0556  154.1828 C   0  0  0  0  0  0  0  0  0  0  0  0
  148.4888  133.9839  153.7261 O   0  0  0  0  0  0  0  0  0  0  0  0
  151.2762  135.3153  155.9409 C   0  0  0  0  0  0  0  0  0  0  0  0
  151.0008  143.5278  157.9681 C   0  0  0  0  0  0  0  0  0  0  0  0
  152.0479  144.3003  158.7712 C   0  0  1  0  0  0  0  0  0  0  0  0
  153.9494  143.5075  159.4056 H   0  0  0  0  0  0  0  0  0  0  0  0
  152.6521  144.9292  158.1165 H   0  0  0  0  0  0  0  0  0  0  0  0
  153.0562  144.8951  161.7637 H   0  0  0  0  0  0  0  0  0  0  0  0
  151.4827  144.3237  162.3504 H   0  0  0  0  0  0  0  0  0  0  0  0
  153.2102  142.4707  161.4625 H   0  0  0  0  0  0  0  0  0  0  0  0
  151.5499  142.4004  160.9045 H   0  0  0  0  0  0  0  0  0  0  0  0
  153.6243  141.7023  158.0219 H   0  0  0  0  0  0  0  0  0  0  0  0
  152.3842  141.0937  159.1203 H   0  0  0  0  0  0  0  0  0  0  0  0
  148.2197  141.0834  155.1498 H   0  0  0  0  0  0  0  0  0  0  0  0
  153.0919  137.2796  156.9489 H   0  0  0  0  0  0  0  0  0  0  0  0
  150.9801  136.7522  154.3400 H   0  0  0  0  0  0  0  0  0  0  0  0
  149.0207  136.4046  156.6756 H   0  0  0  0  0  0  0  0  0  0  0  0
  148.6487  136.4259  154.9181 H   0  0  0  0  0  0  0  0  0  0  0  0
  148.3223  133.4197  156.3586 H   0  0  0  0  0  0  0  0  0  0  0  0
  149.9216  132.7969  156.6685 H   0  0  0  0  0  0  0  0  0  0  0  0
  148.3934  134.4869  158.1231 H   0  0  0  0  0  0  0  0  0  0  0  0
  150.3938  134.6290  153.4516 H   0  0  0  0  0  0  0  0  0  0  0  0
  150.2516  133.0528  154.1767 H   0  0  0  0  0  0  0  0  0  0  0  0
  148.3338  134.7080  153.1390 H   0  0  0  0  0  0  0  0  0  0  0  0
  152.1250  134.8950  155.4003 H   0  0  0  0  0  0  0  0  0  0  0  0
  151.4690  135.3329  157.0156 H   0  0  0  0  0  0  0  0  0  0  0  0
  150.6386  144.1098  157.1199 H   0  0  0  0  0  0  0  0  0  0  0  0
  150.1477  143.2475  158.5865 H   0  0  0  0  0  0  0  0  0  0  0  0
  1  2  2  0  0  0  0
  2 27  1  0  0  0  0
  2  3  2  0  0  0  0
  2  4  1  0  0  0  0
  4  5  1  0  0  0  0
  4 30  1  0  0  0  0
  4 31  1  0  0  0  0
  5  6  1  0  0  0  0
  5 32  1  0  0  0  0
  5 33  1  0  0  0  0
  6 28  1  0  0  0  0
  6 27  1  0  0  0  0
  6  7  1  0  0  0  0
  7  8  1  0  0  0  0
  7 34  1  0  0  0  0
  7 35  1  0  0  0  0
  8  9  1  0  0  0  0
  8 26  1  0  0  0  0
  9 14  1  0  0  0  0
  9 10  2  0  0  0  0
 10 11  1  0  0  0  0
 11 12  2  0  0  0  0
 11 36  1  0  0  0  0
 12 13  1  0  0  0  0
 13 17  1  0  0  0  0
 13 14  2  0  0  0  0
 14 15  1  0  0  0  0
 15 16  2  0  0  0  0
 16 17  1  0  0  0  0
 16 37  1  0  0  0  0
 17 18  1  0  0  0  0
 18 25  1  0  0  0  0
 18 19  1  0  0  0  0
 18 38  1  0  0  0  0
 19 20  1  0  0  0  0
 19 39  1  0  0  0  0
 19 40  1  0  0  0  0
 20 21  1  0  0  0  0
 20 23  1  0  0  0  0
 20 25  1  0  0  0  0
 21 22  1  0  0  0  0
 21 41  1  0  0  0  0
 21 42  1  0  0  0  0
 22 43  1  0  0  0  0
 23 24  1  0  0  0  0
 23 44  1  0  0  0  0
 23 45  1  0  0  0  0
 24 46  1  0  0  0  0
 25 47  1  0  0  0  0
 25 48  1  0  0  0  0
 26 27  1  0  0  0  0
 26 49  1  0  0  0  0
 26 50  1  0  0  0  0
 27 29  1  0  0  0  0
M  END
> <s_m_source_file>
AV-unprocessed.smi

> <i_m_source_file_index>
279

> <i_lp_mmshare_version>
43012

> <i_f3d_flags>
0

> <s_epik_input>
W0NIMl0xW0NIMl1TKD1PKSg9TylbQ0BASF0oW0NAQEhdMTIpW0NIMl1OKFtDSDJdMiljKG5bY0hdbjMpYyhjMzQpbltjSF1uNFtDSF0oW0NIMl01KVtDSDJdQzUoW0NIMl1bT0hdKVtDSDJdW09IXQ==

> <s_epik_cmdline>
J2VwaWtfcHl0aG9uJywgJy1waCcsICc3LjAnLCAnLXRuJywgJzgnLCAnLW1hJywgJzIwMCcsICctbWV0YWxfYmluZGluZycsICctaW1hZScsICc8aW5maWxlLm1hZT4nLCAnLW9tYWUnLCAnPG91dGZpbGUubWFlPic=

> <r_lp_tautomer_probability>
1

> <r_epik_Ionization_Penalty>
0.000990948

> <r_epik_Ionization_Penalty_Charging>
0

> <r_epik_Ionization_Penalty_Neutral>
0.000990948

> <r_epik_State_Penalty>
0.000515994

> <r_epik_Charging_Adjusted_Penalty>
0.000515994

> <i_epik_Tot_Q>
0

> <i_epik_Tot_abs_Q>
0

> <r_epik_Metal_State_Penalty>
-0

> <b_epik_Metal_Only>
0

> <s_lp_Force_Field>
OPLS_2005

> <r_lp_Energy>
54.435

> <b_lp_Chiralities_Consistent>
1

> <s_lp_Variant>
AV-unprocessed.smi:279-1

> <Gold.Version>
5.8.1

> <Gold.Id.Protein>
6NUR|6NUR_protein|mol2

> <Gold.PLP.Fitness>
49.6109

> <Gold.PLP.PLP>
-41.4116

> <Gold.PLP.part.hbond>
-5.0847

> <Gold.PLP.part.metal>
0.0000

> <Gold.PLP.part.buried>
-3.6150

> <Gold.PLP.part.nonpolar>
-32.7362

> <Gold.PLP.part.repulsive>
1.7202

> <Gold.PLP.ligand.clash>
0.0000

> <Gold.PLP.ligand.torsion>
0.7754

> <Gold.PLP.Chemscore.Hbond>
2.9825

> <Gold.PLP.Chemscore.CHOScore>
0.0000

> <Gold.PLP.Chemscore.Metal>
0.0000

> <Gold.Chemscore.Hbonds>
donor molecule, donor type, donor heavy atom, donor atom, acceptor molecule, acceptor atom, score
      L1  H    24    46       P1  7948  0.96
      P1  H  6896  6908       L1    22  0.98
      P1  H  7997  8009       L1    15  0.96

> <Gold.PLP.Chemscore.Internal.Correction>
0.8027

> <Gold.Rescore>
     Score         DG    S(hbond)    S(metal)    S(lipo)     H(rot)  DE(clash)    DE(int)     intcor
     12.00     -16.41       1.94        0.00     102.35       2.94       2.52       1.89       ----

> <Gold.Chemscore.Fitness>
12.0046

> <Gold.Chemscore.DG>
-16.4123

> <Gold.Chemscore.ZeroCoef>
-5.4800

> <Gold.Chemscore.Hbond>
1.9381

> <Gold.Chemscore.Metal>
0.0000

> <Gold.Chemscore.Lipo>
102.3505

> <Gold.Chemscore.Internal_Hbond>
0.0000

> <Gold.Chemscore.DEClash>
2.5219

> <Gold.Chemscore.DEInternal>
1.8858

> <Gold.Chemscore.Rot>
2.9360

> <Gold.Chemscore.Internal.Correction>
   9.000000E+99

> <Gold.Chemscore.Hbonds>
donor molecule, donor type, donor heavy atom, donor atom, acceptor molecule, acceptor atom, score
      L1  H    24    46       P1  7948  0.57
      P1  H  6896  6908       L1    22  0.84
      P1  H  7997  8009       L1    15  0.66

> <Gold.Chemscore.Hbond.Weighted>
-6.4734

> <Gold.Chemscore.Metal.Weighted>
-0.0000

> <Gold.Chemscore.Lipo.Weighted>
-11.9750

> <Gold.Chemscore.Internal_Hbond.Weighted>
0.0000

> <Gold.Chemscore.DEClash.Weighted>
2.5219

> <Gold.Chemscore.DEInternal.Weighted>
1.8858

> <Gold.Chemscore.Rot.Weighted>
7.5161

> <Gold.Chemscore.Internal.Correction.Weighted>
   9.000000E+99

> <Gold.Protein.RotatedTorsions>
[ 6907 6896 6895 6894 ] final  156.70 input  -60.11 | X-H torsion
[ 7974 7965 7964 7962 ] final -163.07 input  175.53 | X-H torsion
[ 8008 7997 7996 7995 ] final -176.04 input   59.86 | X-H torsion
[ 10167 10162 10161 10158 ] final  -35.33 input  -65.29 | X-H torsion
[ 10718 10713 10712 10709 ] final -172.15 input   66.30 | X-H torsion
[ 10763 10752 10751 10750 ] final   13.58 input  -60.55 | X-H torsion
[ 11005 11000 10999 10996 ] final   -8.08 input  -57.11 | X-H torsion

> <Gold.Protein.ActiveResidues>
 VAL166  LYS551  ARG553  GLY616  TRP617  ASP618  TYR619  PRO620  LYS621  CYS622 
 ASP623  PHE694  ASN695  SER759  ASP760  ASP761  ALA762  ILE779  LEU786  VAL792 
 PHE793  MET794  SER795  GLU796  ALA797  LYS798  CYS799  TRP800  GLU811  SER814 

> <Gold.Protein.RotatedAtoms>
  152.0259  133.3917  159.4276 H   0  0  0  0  0  0  0  0  0  0  0  0  # atno 6907 bound_to 6896
  150.6886  134.3575  159.4945 H   0  0  0  0  0  0  0  0  0  0  0  0  # atno 6908 bound_to 6896
  152.1354  134.9102  160.0607 H   0  0  0  0  0  0  0  0  0  0  0  0  # atno 6909 bound_to 6896
  144.7337  140.3160  143.6179 H   0  0  0  0  0  0  0  0  0  0  0  0  # atno 7974 bound_to 7965
  155.9900  140.1199  157.0647 H   0  0  0  0  0  0  0  0  0  0  0  0  # atno 8008 bound_to 7997
  154.4208  140.1127  156.5620 H   0  0  0  0  0  0  0  0  0  0  0  0  # atno 8009 bound_to 7997
  155.6356  140.3473  155.4700 H   0  0  0  0  0  0  0  0  0  0  0  0  # atno 8010 bound_to 7997
  140.7167  143.3484  151.2206 H   0  0  0  0  0  0  0  0  0  0  0  0  # atno 10167 bound_to 10162
  156.7513  130.9379  151.3114 H   0  0  0  0  0  0  0  0  0  0  0  0  # atno 10718 bound_to 10713
  153.1707  135.6812  153.8612 H   0  0  0  0  0  0  0  0  0  0  0  0  # atno 10763 bound_to 10752
  153.7976  135.3160  155.3387 H   0  0  0  0  0  0  0  0  0  0  0  0  # atno 10764 bound_to 10752
  154.7996  135.4786  154.0336 H   0  0  0  0  0  0  0  0  0  0  0  0  # atno 10765 bound_to 10752
  140.7196  133.8839  155.8811 H   0  0  0  0  0  0  0  0  0  0  0  0  # atno 11005 bound_to 11000
  145.7616  139.1827  143.2263 LP  0  0  0  0  0  0  0  0  0  0  0  0  # atno 17320 bound_to 7965
  146.0981  140.7576  142.9562 LP  0  0  0  0  0  0  0  0  0  0  0  0  # atno 17321 bound_to 7965
  139.7009  143.9534  152.2905 LP  0  0  0  0  0  0  0  0  0  0  0  0  # atno 17342 bound_to 10162
  139.9227  144.6790  150.8445 LP  0  0  0  0  0  0  0  0  0  0  0  0  # atno 17343 bound_to 10162
  157.6776  130.9109  150.0187 LP  0  0  0  0  0  0  0  0  0  0  0  0  # atno 17370 bound_to 10713
  156.1399  130.3642  149.9598 LP  0  0  0  0  0  0  0  0  0  0  0  0  # atno 17371 bound_to 10713
  141.0015  134.1144  157.4313 LP  0  0  0  0  0  0  0  0  0  0  0  0  # atno 17394 bound_to 11000
  139.8851  135.0069  156.6414 LP  0  0  0  0  0  0  0  0  0  0  0  0  # atno 17395 bound_to 11000

$$$$
