AV-unprocessed.smi:2355|AV-procd|sdf|9390|dock1
  -GOLD-   2272013 23D 1   1.00000     0.00000
 Structure written by MMmdl.
 49 50  0  0  0  0  0  0  0  0  2 V2000
  152.0954  145.9518  160.4254 C   0  0  0  0  0  0  0  0  0  0  0  0
  152.0388  144.5681  159.8134 C   0  0  0  0  0  0  0  0  0  0  0  0
  152.7617  143.5047  160.3860 C   0  0  0  0  0  0  0  0  0  0  0  0
  152.6776  142.2381  159.7758 C   0  0  0  0  0  0  0  0  0  0  0  0
  153.4283  141.0510  160.3410 C   0  0  0  0  0  0  0  0  0  0  0  0
  151.9370  142.0003  158.6722 N   0  0  0  0  0  0  0  0  0  0  0  0
  151.2345  143.0166  158.1133 C   0  0  0  0  0  0  0  0  0  0  0  0
  150.4370  142.8711  156.9474 N   0  0  0  0  0  0  0  0  0  0  0  0
  149.9406  141.7374  156.4229 C   0  0  0  0  0  0  0  0  0  0  0  0
  150.0167  140.6224  156.9390 O   0  0  0  0  0  0  0  0  0  0  0  0
  149.3494  141.9650  155.2400 N   0  0  0  0  0  0  0  0  0  0  0  0
  148.6977  140.9644  154.3901 C   0  0  1  0  0  0  0  0  0  0  0  0
  149.5845  139.7078  154.3775 C   0  0  0  0  0  0  0  0  0  0  0  0
  147.2442  140.6802  154.8688 C   0  0  2  0  0  0  0  0  0  0  0  0
  146.5580  139.5388  154.0875 C   0  0  0  0  0  0  0  0  0  0  0  0
  146.4234  141.9280  154.8898 N   0  3  0  0  0  0  0  0  0  0  0  0
  146.2498  142.6099  153.5823 C   0  0  0  0  0  0  0  0  0  0  0  0
  145.5706  143.9722  153.7951 C   0  0  0  0  0  0  0  0  0  0  0  0
  144.3173  143.7770  154.4405 O   0  0  0  0  0  0  0  0  0  0  0  0
  144.4610  143.1786  155.7239 C   0  0  0  0  0  0  0  0  0  0  0  0
  145.1221  141.7957  155.5863 C   0  0  0  0  0  0  0  0  0  0  0  0
  151.2678  144.3191  158.6595 C   0  0  0  0  0  0  0  0  0  0  0  0
  152.0493  145.8911  161.5132 H   0  0  0  0  0  0  0  0  0  0  0  0
  151.2619  146.5669  160.0851 H   0  0  0  0  0  0  0  0  0  0  0  0
  153.0252  146.4481  160.1474 H   0  0  0  0  0  0  0  0  0  0  0  0
  153.3643  143.6574  161.2695 H   0  0  0  0  0  0  0  0  0  0  0  0
  154.2047  141.3719  161.0360 H   0  0  0  0  0  0  0  0  0  0  0  0
  153.9040  140.4813  159.5423 H   0  0  0  0  0  0  0  0  0  0  0  0
  152.7427  140.3914  160.8736 H   0  0  0  0  0  0  0  0  0  0  0  0
  150.2524  143.7236  156.4397 H   0  0  0  0  0  0  0  0  0  0  0  0
  149.3346  142.9161  154.9009 H   0  0  0  0  0  0  0  0  0  0  0  0
  148.6649  141.3378  153.3652 H   0  0  0  0  0  0  0  0  0  0  0  0
  149.2301  138.9703  153.6579 H   0  0  0  0  0  0  0  0  0  0  0  0
  149.6161  139.2319  155.3583 H   0  0  0  0  0  0  0  0  0  0  0  0
  150.6089  139.9553  154.0966 H   0  0  0  0  0  0  0  0  0  0  0  0
  147.3299  140.3463  155.9040 H   0  0  0  0  0  0  0  0  0  0  0  0
  147.0592  138.5857  154.2540 H   0  0  0  0  0  0  0  0  0  0  0  0
  146.5612  139.7248  153.0133 H   0  0  0  0  0  0  0  0  0  0  0  0
  145.5230  139.4049  154.4015 H   0  0  0  0  0  0  0  0  0  0  0  0
  147.2138  142.7508  153.0943 H   0  0  0  0  0  0  0  0  0  0  0  0
  145.6373  142.0023  152.9150 H   0  0  0  0  0  0  0  0  0  0  0  0
  146.2021  144.6364  154.3877 H   0  0  0  0  0  0  0  0  0  0  0  0
  145.4030  144.4627  152.8362 H   0  0  0  0  0  0  0  0  0  0  0  0
  145.0503  143.8274  156.3741 H   0  0  0  0  0  0  0  0  0  0  0  0
  143.4760  143.0808  156.1806 H   0  0  0  0  0  0  0  0  0  0  0  0
  144.4690  141.1206  155.0321 H   0  0  0  0  0  0  0  0  0  0  0  0
  145.2681  141.3638  156.5769 H   0  0  0  0  0  0  0  0  0  0  0  0
  150.7067  145.1204  158.2001 H   0  0  0  0  0  0  0  0  0  0  0  0
  146.9559  142.5712  155.4585 H   0  0  0  0  0  0  0  0  0  0  0  0
  1  2  1  0  0  0  0
  1 23  1  0  0  0  0
  1 24  1  0  0  0  0
  1 25  1  0  0  0  0
  2 22  1  0  0  0  0
  2  3  2  0  0  0  0
  3  4  1  0  0  0  0
  3 26  1  0  0  0  0
  4  5  1  0  0  0  0
  4  6  2  0  0  0  0
  5 27  1  0  0  0  0
  5 28  1  0  0  0  0
  5 29  1  0  0  0  0
  6  7  1  0  0  0  0
  7  8  1  0  0  0  0
  7 22  2  0  0  0  0
  8  9  1  0  0  0  0
  8 30  1  0  0  0  0
  9 10  2  0  0  0  0
  9 11  1  0  0  0  0
 11 12  1  0  0  0  0
 11 31  1  0  0  0  0
 12 13  1  0  0  0  0
 12 14  1  0  0  0  0
 12 32  1  0  0  0  0
 13 33  1  0  0  0  0
 13 34  1  0  0  0  0
 13 35  1  0  0  0  0
 14 15  1  0  0  0  0
 14 16  1  0  0  0  0
 14 36  1  0  0  0  0
 15 37  1  0  0  0  0
 15 38  1  0  0  0  0
 15 39  1  0  0  0  0
 16 21  1  0  0  0  0
 16 17  1  0  0  0  0
 16 49  1  0  0  0  0
 17 18  1  0  0  0  0
 17 40  1  0  0  0  0
 17 41  1  0  0  0  0
 18 19  1  0  0  0  0
 18 42  1  0  0  0  0
 18 43  1  0  0  0  0
 19 20  1  0  0  0  0
 20 21  1  0  0  0  0
 20 44  1  0  0  0  0
 20 45  1  0  0  0  0
 21 46  1  0  0  0  0
 21 47  1  0  0  0  0
 22 48  1  0  0  0  0
M  CHG  1  16   1
M  END
> <s_m_source_file>
AV-unprocessed.smi

> <i_m_source_file_index>
2355

> <i_lp_mmshare_version>
43012

> <i_f3d_flags>
0

> <s_epik_input>
W0NIM11jMVtjSF1jKFtDSDNdKW5jKFtjSF0xKVtOSF1DKD1PKVtOSF1bQ0BIXShbQ0gzXSlbQ0BIXShbQ0gzXSlOMltDSDJdW0NIMl1PW0NIMl1bQ0gyXTI=

> <s_epik_cmdline>
J2VwaWtfcHl0aG9uJywgJy1waCcsICc3LjAnLCAnLXRuJywgJzgnLCAnLW1hJywgJzIwMCcsICctbWV0YWxfYmluZGluZycsICctaW1hZScsICc8aW5maWxlLm1hZT4nLCAnLW9tYWUnLCAnPG91dGZpbGUubWFlPic=

> <r_epik_Ionization_Penalty>
0.602711

> <r_epik_Ionization_Penalty_Charging>
0.602531

> <r_epik_Ionization_Penalty_Neutral>
0.000180055

> <r_epik_State_Penalty>
0.617039

> <r_epik_Charging_Adjusted_Penalty>
1.21957

> <i_epik_Tot_Q>
1

> <i_epik_Tot_abs_Q>
1

> <r_epik_Metal_State_Penalty>
0.617075

> <b_epik_Metal_Only>
0

> <s_lp_Force_Field>
OPLS_2005

> <r_lp_Energy>
26.6532

> <b_lp_Chiralities_Consistent>
1

> <s_lp_Variant>
AV-unprocessed.smi:2355-6

> <Gold.Version>
5.8.1

> <Gold.Id.Protein>
6NUR|6NUR_protein|mol2

> <Gold.PLP.Fitness>
48.6939

> <Gold.PLP.PLP>
-44.2941

> <Gold.PLP.part.hbond>
-2.0000

> <Gold.PLP.part.metal>
0.0000

> <Gold.PLP.part.buried>
-8.0825

> <Gold.PLP.part.nonpolar>
-35.4631

> <Gold.PLP.part.repulsive>
0.4319

> <Gold.PLP.ligand.clash>
0.0000

> <Gold.PLP.ligand.torsion>
0.4278

> <Gold.PLP.Chemscore.Hbond>
1.6960

> <Gold.PLP.Chemscore.CHOScore>
0.0000

> <Gold.PLP.Chemscore.Metal>
0.0000

> <Gold.Chemscore.Hbonds>
donor molecule, donor type, donor heavy atom, donor atom, acceptor molecule, acceptor atom, score
      L1  H     8    30       P1  8028  0.88
      L1  H    11    31       P1  8028  0.75

> <Gold.PLP.Chemscore.Internal.Correction>
0.1674

> <Gold.Rescore>
     Score         DG    S(hbond)    S(metal)    S(lipo)     H(rot)  DE(clash)    DE(int)     intcor
     17.43     -20.56       1.73        0.00     111.18       1.45       0.03       3.10       ----

> <Gold.Chemscore.Fitness>
17.4287

> <Gold.Chemscore.DG>
-20.5559

> <Gold.Chemscore.ZeroCoef>
-5.4800

> <Gold.Chemscore.Hbond>
1.7276

> <Gold.Chemscore.Metal>
0.0000

> <Gold.Chemscore.Lipo>
111.1803

> <Gold.Chemscore.Internal_Hbond>
0.0000

> <Gold.Chemscore.DEClash>
0.0298

> <Gold.Chemscore.DEInternal>
3.0974

> <Gold.Chemscore.Rot>
1.4462

> <Gold.Chemscore.Internal.Correction>
   9.000000E+99

> <Gold.Chemscore.Hbonds>
donor molecule, donor type, donor heavy atom, donor atom, acceptor molecule, acceptor atom, score
      L1  H     8    30       P1  8028  0.86
      L1  H    11    31       P1  8028  0.71

> <Gold.Chemscore.Hbond.Weighted>
-5.7701

> <Gold.Chemscore.Metal.Weighted>
-0.0000

> <Gold.Chemscore.Lipo.Weighted>
-13.0081

> <Gold.Chemscore.Internal_Hbond.Weighted>
0.0000

> <Gold.Chemscore.DEClash.Weighted>
0.0298

> <Gold.Chemscore.DEInternal.Weighted>
3.0974

> <Gold.Chemscore.Rot.Weighted>
3.7023

> <Gold.Chemscore.Internal.Correction.Weighted>
   9.000000E+99

> <Gold.Protein.RotatedTorsions>
[ 6907 6896 6895 6894 ] final    8.52 input  -60.11 | X-H torsion
[ 7974 7965 7964 7962 ] final  132.92 input  175.53 | X-H torsion
[ 8008 7997 7996 7995 ] final  -96.06 input   59.86 | X-H torsion
[ 10167 10162 10161 10158 ] final  143.45 input  -65.29 | X-H torsion
[ 10718 10713 10712 10709 ] final  149.39 input   66.30 | X-H torsion
[ 10763 10752 10751 10750 ] final    4.62 input  -60.55 | X-H torsion
[ 11005 11000 10999 10996 ] final  -11.88 input  -57.11 | X-H torsion

> <Gold.Protein.ActiveResidues>
 VAL166  LYS551  ARG553  GLY616  TRP617  ASP618  TYR619  PRO620  LYS621  CYS622 
 ASP623  PHE694  ASN695  SER759  ASP760  ASP761  ALA762  ILE779  LEU786  VAL792 
 PHE793  MET794  SER795  GLU796  ALA797  LYS798  CYS799  TRP800  GLU811  SER814 

> <Gold.Protein.RotatedAtoms>
  151.7073  135.0919  160.0261 H   0  0  0  0  0  0  0  0  0  0  0  0  # atno 6907 bound_to 6896
  152.3683  133.6382  159.6076 H   0  0  0  0  0  0  0  0  0  0  0  0  # atno 6908 bound_to 6896
  150.7654  133.9228  159.3444 H   0  0  0  0  0  0  0  0  0  0  0  0  # atno 6909 bound_to 6896
  144.9918  139.4398  143.5335 H   0  0  0  0  0  0  0  0  0  0  0  0  # atno 7974 bound_to 7965
  154.7695  140.0474  157.1040 H   0  0  0  0  0  0  0  0  0  0  0  0  # atno 8008 bound_to 7997
  154.9838  140.3104  155.4915 H   0  0  0  0  0  0  0  0  0  0  0  0  # atno 8009 bound_to 7997
  156.2918  140.2231  156.4938 H   0  0  0  0  0  0  0  0  0  0  0  0  # atno 8010 bound_to 7997
  139.4969  144.6039  151.6420 H   0  0  0  0  0  0  0  0  0  0  0  0  # atno 10167 bound_to 10162
  157.2967  131.0863  151.1421 H   0  0  0  0  0  0  0  0  0  0  0  0  # atno 10718 bound_to 10713
  153.2691  135.6930  153.7499 H   0  0  0  0  0  0  0  0  0  0  0  0  # atno 10763 bound_to 10752
  153.6529  135.3373  155.3106 H   0  0  0  0  0  0  0  0  0  0  0  0  # atno 10764 bound_to 10752
  154.8458  135.4458  154.1708 H   0  0  0  0  0  0  0  0  0  0  0  0  # atno 10765 bound_to 10752
  140.7599  133.8524  155.9115 H   0  0  0  0  0  0  0  0  0  0  0  0  # atno 11005 bound_to 11000
  146.3433  139.9255  142.8761 LP  0  0  0  0  0  0  0  0  0  0  0  0  # atno 17320 bound_to 7965
  145.2274  140.9959  143.4010 LP  0  0  0  0  0  0  0  0  0  0  0  0  # atno 17321 bound_to 7965
  140.5696  144.0131  150.6210 LP  0  0  0  0  0  0  0  0  0  0  0  0  # atno 17342 bound_to 10162
  140.3244  143.3117  152.0751 LP  0  0  0  0  0  0  0  0  0  0  0  0  # atno 17343 bound_to 10162
  157.2796  130.6744  149.6059 LP  0  0  0  0  0  0  0  0  0  0  0  0  # atno 17370 bound_to 10713
  155.9669  130.4454  150.5498 LP  0  0  0  0  0  0  0  0  0  0  0  0  # atno 17371 bound_to 10713
  140.9673  134.1577  157.4605 LP  0  0  0  0  0  0  0  0  0  0  0  0  # atno 17394 bound_to 11000
  139.8772  134.9966  156.5803 LP  0  0  0  0  0  0  0  0  0  0  0  0  # atno 17395 bound_to 11000

$$$$
