AV-unprocessed.smi:1709|AV-procd|sdf|6896|dock6
  -GOLD-   22720 8103D 1   1.00000     0.00000
 Structure written by MMmdl.
 43 45  0  0  0  0  0  0  0  0  2 V2000
  149.8790  138.5844  154.1602 C   0  0  0  0  0  0  0  0  0  0  0  0
  148.7924  139.6459  154.0940 C   0  0  0  0  0  0  0  0  0  0  0  0
  149.0528  140.9286  154.6213 C   0  0  0  0  0  0  0  0  0  0  0  0
  148.0514  141.9120  154.5605 C   0  0  0  0  0  0  0  0  0  0  0  0
  146.8238  141.5682  153.9712 C   0  0  0  0  0  0  0  0  0  0  0  0
  146.5671  140.3449  153.4642 N   0  0  0  0  0  0  0  0  0  0  0  0
  147.5221  139.3806  153.5141 C   0  0  0  0  0  0  0  0  0  0  0  0
  147.3387  138.0594  152.9987 N   0  0  0  0  0  0  0  0  0  0  0  0
  146.2338  137.3013  152.8320 C   0  0  0  0  0  0  0  0  0  0  0  0
  145.1229  137.7203  153.1528 O   0  0  0  0  0  0  0  0  0  0  0  0
  146.4221  136.0791  152.3091 N   0  0  0  0  0  0  0  0  0  0  0  0
  145.3828  135.0827  152.0758 C   0  0  1  0  0  0  0  0  0  0  0  0
  144.5440  135.3782  150.8198 C   0  0  0  0  0  0  0  0  0  0  0  0
  144.2770  134.0046  150.1732 C   0  0  0  0  0  0  0  0  0  0  0  0
  144.8529  133.0156  151.1043 N   0  3  1  0  0  0  0  0  0  0  0  0
  145.2403  131.7046  150.5397 C   0  0  0  0  0  0  0  0  0  0  0  0
  145.7401  130.7894  151.6754 C   0  0  0  0  0  0  0  0  0  0  0  0
  146.8569  131.4600  152.5014 C   0  0  0  0  0  0  0  0  0  0  0  0
  146.4291  132.8598  152.9828 C   0  0  0  0  0  0  0  0  0  0  0  0
  145.9661  133.6990  151.7798 C   0  0  2  0  0  0  0  0  0  0  0  0
  150.7855  138.9723  154.6258 H   0  0  0  0  0  0  0  0  0  0  0  0
  150.1390  138.2395  153.1588 H   0  0  0  0  0  0  0  0  0  0  0  0
  149.5416  137.7287  154.7458 H   0  0  0  0  0  0  0  0  0  0  0  0
  150.0089  141.1602  155.0673 H   0  0  0  0  0  0  0  0  0  0  0  0
  148.2207  142.9029  154.9550 H   0  0  0  0  0  0  0  0  0  0  0  0
  146.0264  142.2934  153.9031 H   0  0  0  0  0  0  0  0  0  0  0  0
  148.1890  137.6259  152.6695 H   0  0  0  0  0  0  0  0  0  0  0  0
  147.3686  135.8173  152.0700 H   0  0  0  0  0  0  0  0  0  0  0  0
  144.7088  135.0199  152.9327 H   0  0  0  0  0  0  0  0  0  0  0  0
  143.6175  135.8916  151.0792 H   0  0  0  0  0  0  0  0  0  0  0  0
  145.0852  136.0159  150.1187 H   0  0  0  0  0  0  0  0  0  0  0  0
  143.2144  133.8166  150.0178 H   0  0  0  0  0  0  0  0  0  0  0  0
  144.7772  133.9443  149.2054 H   0  0  0  0  0  0  0  0  0  0  0  0
  144.3822  131.2522  150.0415 H   0  0  0  0  0  0  0  0  0  0  0  0
  146.0182  131.8388  149.7864 H   0  0  0  0  0  0  0  0  0  0  0  0
  144.9055  130.5441  152.3338 H   0  0  0  0  0  0  0  0  0  0  0  0
  146.0954  129.8437  151.2650 H   0  0  0  0  0  0  0  0  0  0  0  0
  147.1222  130.8340  153.3540 H   0  0  0  0  0  0  0  0  0  0  0  0
  147.7565  131.5464  151.8908 H   0  0  0  0  0  0  0  0  0  0  0  0
  145.6240  132.7730  153.7138 H   0  0  0  0  0  0  0  0  0  0  0  0
  147.2618  133.3475  153.4897 H   0  0  0  0  0  0  0  0  0  0  0  0
  146.7914  133.8028  151.0711 H   0  0  0  0  0  0  0  0  0  0  0  0
  144.1524  132.8453  151.8118 H   0  0  0  0  0  0  0  0  0  0  0  0
  1  2  1  0  0  0  0
  1 21  1  0  0  0  0
  1 22  1  0  0  0  0
  1 23  1  0  0  0  0
  2  7  1  0  0  0  0
  2  3  2  0  0  0  0
  3  4  1  0  0  0  0
  3 24  1  0  0  0  0
  4  5  2  0  0  0  0
  4 25  1  0  0  0  0
  5  6  1  0  0  0  0
  5 26  1  0  0  0  0
  6  7  2  0  0  0  0
  7  8  1  0  0  0  0
  8  9  1  0  0  0  0
  8 27  1  0  0  0  0
  9 10  2  0  0  0  0
  9 11  1  0  0  0  0
 11 12  1  0  0  0  0
 11 28  1  0  0  0  0
 12 20  1  0  0  0  0
 12 13  1  0  0  0  0
 12 29  1  0  0  0  0
 13 14  1  0  0  0  0
 13 30  1  0  0  0  0
 13 31  1  0  0  0  0
 14 15  1  0  0  0  0
 14 32  1  0  0  0  0
 14 33  1  0  0  0  0
 15 20  1  0  0  0  0
 15 16  1  0  0  0  0
 15 43  1  0  0  0  0
 16 17  1  0  0  0  0
 16 34  1  0  0  0  0
 16 35  1  0  0  0  0
 17 18  1  0  0  0  0
 17 36  1  0  0  0  0
 17 37  1  0  0  0  0
 18 19  1  0  0  0  0
 18 38  1  0  0  0  0
 18 39  1  0  0  0  0
 19 20  1  0  0  0  0
 19 40  1  0  0  0  0
 19 41  1  0  0  0  0
 20 42  1  0  0  0  0
M  CHG  1  15   1
M  END
> <s_m_source_file>
AV-unprocessed.smi

> <i_m_source_file_index>
1709

> <i_lp_mmshare_version>
43012

> <i_f3d_flags>
0

> <s_epik_input>
W0NIM11jMVtjSF1bY0hdW2NIXW5jMVtOSF1DKD1PKVtOSF1bQ0BIXShbQ0gyXVtDSDJdMilbQ0BASF0oTjIzKVtDSDJdW0NIMl1bQ0gyXVtDSDJdMw==

> <s_epik_cmdline>
J2VwaWtfcHl0aG9uJywgJy1waCcsICc3LjAnLCAnLXRuJywgJzgnLCAnLW1hJywgJzIwMCcsICctbWV0YWxfYmluZGluZycsICctaW1hZScsICc8aW5maWxlLm1hZT4nLCAnLW9tYWUnLCAnPG91dGZpbGUubWFlPic=

> <r_epik_Ionization_Penalty>
0.00101524

> <r_epik_Ionization_Penalty_Charging>
0.000974069

> <r_epik_Ionization_Penalty_Neutral>
4.11757e-05

> <r_epik_State_Penalty>
0.000633842

> <r_epik_Charging_Adjusted_Penalty>
0.00160791

> <i_epik_Tot_Q>
1

> <i_epik_Tot_abs_Q>
1

> <r_epik_Metal_State_Penalty>
-0

> <b_epik_Metal_Only>
0

> <s_lp_Force_Field>
OPLS_2005

> <r_lp_Energy>
38.4546

> <b_lp_Chiralities_Consistent>
1

> <s_lp_Variant>
AV-unprocessed.smi:1709-6

> <Gold.Version>
5.8.1

> <Gold.Id.Protein>
6NUR|6NUR_protein|mol2

> <Gold.PLP.Fitness>
38.6107

> <Gold.PLP.PLP>
-33.3803

> <Gold.PLP.part.hbond>
-2.0000

> <Gold.PLP.part.metal>
0.0000

> <Gold.PLP.part.buried>
-2.2125

> <Gold.PLP.part.nonpolar>
-31.2786

> <Gold.PLP.part.repulsive>
1.5974

> <Gold.PLP.ligand.clash>
0.0000

> <Gold.PLP.ligand.torsion>
0.3536

> <Gold.PLP.Chemscore.Hbond>
1.9760

> <Gold.PLP.Chemscore.CHOScore>
0.0000

> <Gold.PLP.Chemscore.Metal>
0.0000

> <Gold.Chemscore.Hbonds>
donor molecule, donor type, donor heavy atom, donor atom, acceptor molecule, acceptor atom, score
      L1  H     8    27       P1  7948  0.96
      L1  H    11    28       P1  7948  1.00

> <Gold.PLP.Chemscore.Internal.Correction>
0.0096

> <Gold.Rescore>
     Score         DG    S(hbond)    S(metal)    S(lipo)     H(rot)  DE(clash)    DE(int)     intcor
     18.19     -18.91       1.90        0.00      82.54       1.00       0.18       0.54       ----

> <Gold.Chemscore.Fitness>
18.1934

> <Gold.Chemscore.DG>
-18.9094

> <Gold.Chemscore.ZeroCoef>
-5.4800

> <Gold.Chemscore.Hbond>
1.8958

> <Gold.Chemscore.Metal>
0.0000

> <Gold.Chemscore.Lipo>
82.5432

> <Gold.Chemscore.Internal_Hbond>
0.0000

> <Gold.Chemscore.DEClash>
0.1761

> <Gold.Chemscore.DEInternal>
0.5399

> <Gold.Chemscore.Rot>
1.0000

> <Gold.Chemscore.Internal.Correction>
   9.000000E+99

> <Gold.Chemscore.Hbonds>
donor molecule, donor type, donor heavy atom, donor atom, acceptor molecule, acceptor atom, score
      L1  H     8    27       P1  7948  0.92
      L1  H    11    28       P1  7948  0.95

> <Gold.Chemscore.Hbond.Weighted>
-6.3318

> <Gold.Chemscore.Metal.Weighted>
-0.0000

> <Gold.Chemscore.Lipo.Weighted>
-9.6576

> <Gold.Chemscore.Internal_Hbond.Weighted>
0.0000

> <Gold.Chemscore.DEClash.Weighted>
0.1761

> <Gold.Chemscore.DEInternal.Weighted>
0.5399

> <Gold.Chemscore.Rot.Weighted>
2.5600

> <Gold.Chemscore.Internal.Correction.Weighted>
   9.000000E+99

> <Gold.Protein.RotatedTorsions>
[ 6907 6896 6895 6894 ] final -112.18 input  -60.11 | X-H torsion
[ 7974 7965 7964 7962 ] final   62.41 input  175.53 | X-H torsion
[ 8008 7997 7996 7995 ] final   96.16 input   59.86 | X-H torsion
[ 10167 10162 10161 10158 ] final  112.62 input  -65.29 | X-H torsion
[ 10718 10713 10712 10709 ] final   91.72 input   66.30 | X-H torsion
[ 10763 10752 10751 10750 ] final  138.65 input  -60.55 | X-H torsion
[ 11005 11000 10999 10996 ] final   34.11 input  -57.11 | X-H torsion

> <Gold.Protein.ActiveResidues>
 VAL166  LYS551  ARG553  GLY616  TRP617  ASP618  TYR619  PRO620  LYS621  CYS622 
 ASP623  PHE694  ASN695  SER759  ASP760  ASP761  ALA762  ILE779  LEU786  VAL792 
 PHE793  MET794  SER795  GLU796  ALA797  LYS798  CYS799  TRP800  GLU811  SER814 

> <Gold.Protein.RotatedAtoms>
  150.7741  133.9127  159.3373 H   0  0  0  0  0  0  0  0  0  0  0  0  # atno 6907 bound_to 6896
  151.7006  135.0929  160.0259 H   0  0  0  0  0  0  0  0  0  0  0  0  # atno 6908 bound_to 6896
  152.3770  133.6456  159.6167 H   0  0  0  0  0  0  0  0  0  0  0  0  # atno 6909 bound_to 6896
  145.8736  139.3395  143.0748 H   0  0  0  0  0  0  0  0  0  0  0  0  # atno 7974 bound_to 7965
  156.0766  140.3276  155.7642 H   0  0  0  0  0  0  0  0  0  0  0  0  # atno 8008 bound_to 7997
  155.5220  140.0586  157.2922 H   0  0  0  0  0  0  0  0  0  0  0  0  # atno 8009 bound_to 7997
  154.4559  140.1942  156.0399 H   0  0  0  0  0  0  0  0  0  0  0  0  # atno 8010 bound_to 7997
  139.6522  144.7128  151.2026 H   0  0  0  0  0  0  0  0  0  0  0  0  # atno 10167 bound_to 10162
  157.6960  131.0417  150.3772 H   0  0  0  0  0  0  0  0  0  0  0  0  # atno 10718 bound_to 10713
  153.8931  135.3031  155.3447 H   0  0  0  0  0  0  0  0  0  0  0  0  # atno 10763 bound_to 10752
  154.7707  135.4887  153.9645 H   0  0  0  0  0  0  0  0  0  0  0  0  # atno 10764 bound_to 10752
  153.1286  135.6799  153.9314 H   0  0  0  0  0  0  0  0  0  0  0  0  # atno 10765 bound_to 10752
  140.2562  134.3245  155.7873 H   0  0  0  0  0  0  0  0  0  0  0  0  # atno 11005 bound_to 11000
  145.9107  140.9182  143.0455 LP  0  0  0  0  0  0  0  0  0  0  0  0  # atno 17320 bound_to 7965
  144.6726  140.1156  143.7453 LP  0  0  0  0  0  0  0  0  0  0  0  0  # atno 17321 bound_to 7965
  140.7543  143.6131  150.8586 LP  0  0  0  0  0  0  0  0  0  0  0  0  # atno 17342 bound_to 10162
  139.9780  143.5982  152.2952 LP  0  0  0  0  0  0  0  0  0  0  0  0  # atno 17343 bound_to 10162
  156.4190  130.3949  149.6838 LP  0  0  0  0  0  0  0  0  0  0  0  0  # atno 17370 bound_to 10713
  156.4095  130.7715  151.2727 LP  0  0  0  0  0  0  0  0  0  0  0  0  # atno 17371 bound_to 10713
  141.2196  133.7382  156.9115 LP  0  0  0  0  0  0  0  0  0  0  0  0  # atno 17394 bound_to 11000
  140.1509  134.9230  157.2592 LP  0  0  0  0  0  0  0  0  0  0  0  0  # atno 17395 bound_to 11000

$$$$
