AV-unprocessed.smi:1699|AV-procd|sdf|6817|dock7
  -GOLD-   22720 7593D 1   1.00000     0.00000
 Structure written by MMmdl.
 37 38  0  0  0  0  0  0  0  0  1 V2000
  153.4850  141.3251  160.0998 C   0  0  0  0  0  0  0  0  0  0  0  0
  152.6961  142.3948  159.3618 C   0  0  0  0  0  0  0  0  0  0  0  0
  152.6721  143.7105  159.8717 C   0  0  0  0  0  0  0  0  0  0  0  0
  151.9438  144.6982  159.1870 C   0  0  0  0  0  0  0  0  0  0  0  0
  151.2663  144.3261  158.0133 C   0  0  0  0  0  0  0  0  0  0  0  0
  151.2829  143.0714  157.5195 N   0  0  0  0  0  0  0  0  0  0  0  0
  151.9810  142.1056  158.1686 C   0  0  0  0  0  0  0  0  0  0  0  0
  152.0388  140.7594  157.7095 N   0  0  0  0  0  0  0  0  0  0  0  0
  151.9487  140.2990  156.4493 C   0  0  0  0  0  0  0  0  0  0  0  0
  151.8197  140.9966  155.4430 O   0  0  0  0  0  0  0  0  0  0  0  0
  152.0244  138.9598  156.4201 N   0  0  0  0  0  0  0  0  0  0  0  0
  151.9870  138.1299  155.2181 C   0  0  2  0  0  0  0  0  0  0  0  0
  153.0644  138.6312  154.2442 C   0  0  0  0  0  0  0  0  0  0  0  0
  150.5742  138.1721  154.6005 C   0  0  1  0  0  0  0  0  0  0  0  0
  149.4431  137.7922  155.5578 C   0  0  0  0  0  0  0  0  0  0  0  0
  148.2280  138.5068  154.9855 C   0  0  0  0  0  0  0  0  0  0  0  0
  148.8182  139.5091  153.9905 C   0  0  0  0  0  0  0  0  0  0  0  0
  150.2154  139.4981  154.2427 O   0  0  0  0  0  0  0  0  0  0  0  0
  153.9690  141.7306  160.9886 H   0  0  0  0  0  0  0  0  0  0  0  0
  154.2606  140.9109  159.4550 H   0  0  0  0  0  0  0  0  0  0  0  0
  152.8273  140.5150  160.4163 H   0  0  0  0  0  0  0  0  0  0  0  0
  153.2048  143.9630  160.7767 H   0  0  0  0  0  0  0  0  0  0  0  0
  151.9056  145.7139  159.5513 H   0  0  0  0  0  0  0  0  0  0  0  0
  150.6952  145.0538  157.4559 H   0  0  0  0  0  0  0  0  0  0  0  0
  152.1603  140.0637  158.4300 H   0  0  0  0  0  0  0  0  0  0  0  0
  152.1326  138.4741  157.2982 H   0  0  0  0  0  0  0  0  0  0  0  0
  152.2295  137.0969  155.4745 H   0  0  0  0  0  0  0  0  0  0  0  0
  153.1168  138.0058  153.3528 H   0  0  0  0  0  0  0  0  0  0  0  0
  154.0506  138.6145  154.7095 H   0  0  0  0  0  0  0  0  0  0  0  0
  152.8649  139.6539  153.9220 H   0  0  0  0  0  0  0  0  0  0  0  0
  150.5302  137.5443  153.7080 H   0  0  0  0  0  0  0  0  0  0  0  0
  149.3015  136.7139  155.6347 H   0  0  0  0  0  0  0  0  0  0  0  0
  149.6508  138.1753  156.5578 H   0  0  0  0  0  0  0  0  0  0  0  0
  147.5544  137.8135  154.4802 H   0  0  0  0  0  0  0  0  0  0  0  0
  147.6659  139.0072  155.7747 H   0  0  0  0  0  0  0  0  0  0  0  0
  148.6378  139.1839  152.9648 H   0  0  0  0  0  0  0  0  0  0  0  0
  148.4050  140.5110  154.1082 H   0  0  0  0  0  0  0  0  0  0  0  0
  1  2  1  0  0  0  0
  1 19  1  0  0  0  0
  1 20  1  0  0  0  0
  1 21  1  0  0  0  0
  2  7  1  0  0  0  0
  2  3  2  0  0  0  0
  3  4  1  0  0  0  0
  3 22  1  0  0  0  0
  4  5  2  0  0  0  0
  4 23  1  0  0  0  0
  5  6  1  0  0  0  0
  5 24  1  0  0  0  0
  6  7  2  0  0  0  0
  7  8  1  0  0  0  0
  8  9  1  0  0  0  0
  8 25  1  0  0  0  0
  9 10  2  0  0  0  0
  9 11  1  0  0  0  0
 11 12  1  0  0  0  0
 11 26  1  0  0  0  0
 12 13  1  0  0  0  0
 12 14  1  0  0  0  0
 12 27  1  0  0  0  0
 13 28  1  0  0  0  0
 13 29  1  0  0  0  0
 13 30  1  0  0  0  0
 14 18  1  0  0  0  0
 14 15  1  0  0  0  0
 14 31  1  0  0  0  0
 15 16  1  0  0  0  0
 15 32  1  0  0  0  0
 15 33  1  0  0  0  0
 16 17  1  0  0  0  0
 16 34  1  0  0  0  0
 16 35  1  0  0  0  0
 17 18  1  0  0  0  0
 17 36  1  0  0  0  0
 17 37  1  0  0  0  0
M  END
> <s_m_source_file>
AV-unprocessed.smi

> <i_m_source_file_index>
1699

> <i_lp_mmshare_version>
43012

> <i_f3d_flags>
0

> <s_epik_input>
W0NIM11jMVtjSF1bY0hdW2NIXW5jMVtOSF1DKD1PKVtOSF1bQ0BIXShbQ0gzXSlbQ0BASF0yW0NIMl1bQ0gyXVtDSDJdTzI=

> <s_epik_cmdline>
J2VwaWtfcHl0aG9uJywgJy1waCcsICc3LjAnLCAnLXRuJywgJzgnLCAnLW1hJywgJzIwMCcsICctbWV0YWxfYmluZGluZycsICctaW1hZScsICc8aW5maWxlLm1hZT4nLCAnLW9tYWUnLCAnPG91dGZpbGUubWFlPic=

> <r_lp_tautomer_probability>
1

> <r_epik_Ionization_Penalty>
5.52788e-05

> <r_epik_Ionization_Penalty_Charging>
0

> <r_epik_Ionization_Penalty_Neutral>
5.52788e-05

> <r_epik_State_Penalty>
-0

> <r_epik_Charging_Adjusted_Penalty>
0

> <i_epik_Tot_Q>
0

> <i_epik_Tot_abs_Q>
0

> <r_epik_Metal_State_Penalty>
-0

> <b_epik_Metal_Only>
0

> <s_lp_Force_Field>
OPLS_2005

> <r_lp_Energy>
21.1127

> <b_lp_Chiralities_Consistent>
1

> <s_lp_Variant>
AV-unprocessed.smi:1699-3

> <Gold.Version>
5.8.1

> <Gold.Id.Protein>
6NUR|6NUR_protein|mol2

> <Gold.PLP.Fitness>
37.4635

> <Gold.PLP.PLP>
-32.0045

> <Gold.PLP.part.hbond>
-2.0000

> <Gold.PLP.part.metal>
0.0000

> <Gold.PLP.part.buried>
1.2832

> <Gold.PLP.part.nonpolar>
-31.7738

> <Gold.PLP.part.repulsive>
0.4643

> <Gold.PLP.ligand.clash>
0.0000

> <Gold.PLP.ligand.torsion>
0.2542

> <Gold.PLP.Chemscore.Hbond>
1.0000

> <Gold.PLP.Chemscore.CHOScore>
0.9818

> <Gold.PLP.Chemscore.Metal>
0.0000

> <Gold.Chemscore.Hbonds>
donor molecule, donor type, donor heavy atom, donor atom, acceptor molecule, acceptor atom, score
      P1  H  7989  7998       L1    18  0.83
      L1  C     5    24       P1  8028  0.97

> <Gold.PLP.Chemscore.Internal.Correction>
0.0220

> <Gold.Rescore>
     Score         DG    S(hbond)    S(metal)    S(lipo)     H(rot)  DE(clash)    DE(int)     intcor
      8.83     -16.48       0.90        0.00      95.06       1.22       2.32       5.33       ----

> <Gold.Chemscore.Fitness>
8.8314

> <Gold.Chemscore.DG>
-16.4787

> <Gold.Chemscore.ZeroCoef>
-5.4800

> <Gold.Chemscore.Hbond>
0.8981

> <Gold.Chemscore.Metal>
0.0000

> <Gold.Chemscore.Lipo>
95.0609

> <Gold.Chemscore.Internal_Hbond>
0.0000

> <Gold.Chemscore.DEClash>
2.3170

> <Gold.Chemscore.DEInternal>
5.3303

> <Gold.Chemscore.Rot>
1.2200

> <Gold.Chemscore.Internal.Correction>
   9.000000E+99

> <Gold.Chemscore.Hbonds>
donor molecule, donor type, donor heavy atom, donor atom, acceptor molecule, acceptor atom, score
      P1  H  7989  7998       L1    18  0.79

> <Gold.Chemscore.Hbond.Weighted>
-2.9997

> <Gold.Chemscore.Metal.Weighted>
-0.0000

> <Gold.Chemscore.Lipo.Weighted>
-11.1221

> <Gold.Chemscore.Internal_Hbond.Weighted>
0.0000

> <Gold.Chemscore.DEClash.Weighted>
2.3170

> <Gold.Chemscore.DEInternal.Weighted>
5.3303

> <Gold.Chemscore.Rot.Weighted>
3.1232

> <Gold.Chemscore.Internal.Correction.Weighted>
   9.000000E+99

> <Gold.Protein.RotatedTorsions>
[ 6907 6896 6895 6894 ] final   -8.37 input  -60.11 | X-H torsion
[ 7974 7965 7964 7962 ] final   58.00 input  175.53 | X-H torsion
[ 8008 7997 7996 7995 ] final  -24.97 input   59.86 | X-H torsion
[ 10167 10162 10161 10158 ] final   45.29 input  -65.29 | X-H torsion
[ 10718 10713 10712 10709 ] final  -66.21 input   66.30 | X-H torsion
[ 10763 10752 10751 10750 ] final   67.76 input  -60.55 | X-H torsion
[ 11005 11000 10999 10996 ] final -137.06 input  -57.11 | X-H torsion

> <Gold.Protein.ActiveResidues>
 VAL166  LYS551  ARG553  GLY616  TRP617  ASP618  TYR619  PRO620  LYS621  CYS622 
 ASP623  PHE694  ASN695  SER759  ASP760  ASP761  ALA762  ILE779  LEU786  VAL792 
 PHE793  MET794  SER795  GLU796  ALA797  LYS798  CYS799  TRP800  GLU811  SER814 

> <Gold.Protein.RotatedAtoms>
  151.4347  135.1013  159.9652 H   0  0  0  0  0  0  0  0  0  0  0  0  # atno 6907 bound_to 6896
  152.4944  133.8585  159.7248 H   0  0  0  0  0  0  0  0  0  0  0  0  # atno 6908 bound_to 6896
  150.9130  133.6915  159.2878 H   0  0  0  0  0  0  0  0  0  0  0  0  # atno 6909 bound_to 6896
  145.9229  139.3744  143.0467 H   0  0  0  0  0  0  0  0  0  0  0  0  # atno 7974 bound_to 7965
  154.4500  140.1939  156.0547 H   0  0  0  0  0  0  0  0  0  0  0  0  # atno 8008 bound_to 7997
  156.0628  140.3294  155.7454 H   0  0  0  0  0  0  0  0  0  0  0  0  # atno 8009 bound_to 7997
  155.5385  140.0584  157.2865 H   0  0  0  0  0  0  0  0  0  0  0  0  # atno 8010 bound_to 7997
  140.3257  144.2651  150.6175 H   0  0  0  0  0  0  0  0  0  0  0  0  # atno 10167 bound_to 10162
  156.0625  130.4258  150.1676 H   0  0  0  0  0  0  0  0  0  0  0  0  # atno 10718 bound_to 10713
  153.0202  135.5272  154.7030 H   0  0  0  0  0  0  0  0  0  0  0  0  # atno 10763 bound_to 10752
  154.6133  135.2880  155.0410 H   0  0  0  0  0  0  0  0  0  0  0  0  # atno 10764 bound_to 10752
  154.1423  135.6576  153.4997 H   0  0  0  0  0  0  0  0  0  0  0  0  # atno 10765 bound_to 10752
  140.8746  134.2008  157.4629 H   0  0  0  0  0  0  0  0  0  0  0  0  # atno 11005 bound_to 11000
  145.8526  140.9520  143.0741 LP  0  0  0  0  0  0  0  0  0  0  0  0  # atno 17320 bound_to 7965
  144.6755  140.0427  143.7480 LP  0  0  0  0  0  0  0  0  0  0  0  0  # atno 17321 bound_to 7965
  140.5443  143.2217  151.8032 LP  0  0  0  0  0  0  0  0  0  0  0  0  # atno 17342 bound_to 10162
  139.4866  144.4559  151.9599 LP  0  0  0  0  0  0  0  0  0  0  0  0  # atno 17343 bound_to 10162
  156.9741  130.9844  151.3452 LP  0  0  0  0  0  0  0  0  0  0  0  0  # atno 17370 bound_to 10713
  157.5644  130.8268  149.8308 LP  0  0  0  0  0  0  0  0  0  0  0  0  # atno 17371 bound_to 10713
  139.8714  134.9790  156.5019 LP  0  0  0  0  0  0  0  0  0  0  0  0  # atno 17394 bound_to 11000
  140.8533  133.8115  155.9190 LP  0  0  0  0  0  0  0  0  0  0  0  0  # atno 17395 bound_to 11000

$$$$
