AV-unprocessed.smi:2866|AV-procd|sdf|11019|dock10
  -GOLD-   2272015483D 1   1.00000     0.00000
 Structure written by MMmdl.
 41 43  0  0  0  0  0  0  0  0  1 V2000
  152.5211  143.8350  161.5253 C   0  0  0  0  0  0  0  0  0  0  0  0
  152.0870  143.1822  160.2247 C   0  0  0  0  0  0  0  0  0  0  0  0
  152.7411  142.0057  159.7947 C   0  0  0  0  0  0  0  0  0  0  0  0
  152.3674  141.3678  158.5916 C   0  0  0  0  0  0  0  0  0  0  0  0
  152.8637  140.2252  157.9875 N   0  0  0  0  0  0  0  0  0  0  0  0
  152.1065  140.1479  156.8968 C   0  0  0  0  0  0  0  0  0  0  0  0
  151.1741  141.1048  156.7250 N   0  0  0  0  0  0  0  0  0  0  0  0
  150.2358  141.2298  155.6239 C   0  0  0  0  0  0  0  0  0  0  0  0
  149.7755  139.8622  155.0850 C   0  0  2  0  0  0  0  0  0  0  0  0
  150.1061  139.7571  153.7125 O   0  0  0  0  0  0  0  0  0  0  0  0
  148.2629  139.6458  155.2809 C   0  0  0  0  0  0  0  0  0  0  0  0
  147.4773  140.7914  154.8556 N   0  0  0  0  0  0  0  0  0  0  0  0
  147.5636  141.4951  153.6741 C   0  0  0  0  0  0  0  0  0  0  0  0
  146.6290  142.4889  153.7252 C   0  0  0  0  0  0  0  0  0  0  0  0
  146.0048  142.3136  154.9947 C   0  0  0  0  0  0  0  0  0  0  0  0
  144.8927  143.1227  155.6089 C   0  0  0  0  0  0  0  0  0  0  0  0
  145.2969  143.6664  156.7569 F   0  0  0  0  0  0  0  0  0  0  0  0
  144.5266  144.0986  154.7780 F   0  0  0  0  0  0  0  0  0  0  0  0
  143.8410  142.3408  155.8518 F   0  0  0  0  0  0  0  0  0  0  0  0
  146.5175  141.2895  155.6638 N   0  0  0  0  0  0  0  0  0  0  0  0
  151.3123  141.9436  157.8251 C   0  0  0  0  0  0  0  0  0  0  0  0
  150.6551  143.1146  158.2413 C   0  0  0  0  0  0  0  0  0  0  0  0
  151.0416  143.7396  159.4453 C   0  0  0  0  0  0  0  0  0  0  0  0
  150.3265  145.0046  159.8859 C   0  0  0  0  0  0  0  0  0  0  0  0
  153.3128  143.2649  162.0124 H   0  0  0  0  0  0  0  0  0  0  0  0
  151.6830  143.9014  162.2192 H   0  0  0  0  0  0  0  0  0  0  0  0
  152.8984  144.8408  161.3393 H   0  0  0  0  0  0  0  0  0  0  0  0
  153.5382  141.5815  160.3876 H   0  0  0  0  0  0  0  0  0  0  0  0
  152.2334  139.3467  156.1833 H   0  0  0  0  0  0  0  0  0  0  0  0
  149.3779  141.8049  155.9742 H   0  0  0  0  0  0  0  0  0  0  0  0
  150.7021  141.8153  154.8300 H   0  0  0  0  0  0  0  0  0  0  0  0
  150.3138  139.0743  155.6134 H   0  0  0  0  0  0  0  0  0  0  0  0
  149.8734  138.8912  153.4138 H   0  0  0  0  0  0  0  0  0  0  0  0
  147.9317  138.7812  154.7046 H   0  0  0  0  0  0  0  0  0  0  0  0
  148.0398  139.4265  156.3265 H   0  0  0  0  0  0  0  0  0  0  0  0
  148.2768  141.2350  152.9059 H   0  0  0  0  0  0  0  0  0  0  0  0
  146.4220  143.2321  152.9695 H   0  0  0  0  0  0  0  0  0  0  0  0
  149.8600  143.5273  157.6383 H   0  0  0  0  0  0  0  0  0  0  0  0
  149.5599  145.2987  159.1684 H   0  0  0  0  0  0  0  0  0  0  0  0
  151.0323  145.8302  159.9781 H   0  0  0  0  0  0  0  0  0  0  0  0
  149.8414  144.8531  160.8504 H   0  0  0  0  0  0  0  0  0  0  0  0
  1  2  1  0  0  0  0
  1 25  1  0  0  0  0
  1 26  1  0  0  0  0
  1 27  1  0  0  0  0
  2 23  1  0  0  0  0
  2  3  2  0  0  0  0
  3  4  1  0  0  0  0
  3 28  1  0  0  0  0
  4 21  2  0  0  0  0
  4  5  1  0  0  0  0
  5  6  2  0  0  0  0
  6  7  1  0  0  0  0
  6 29  1  0  0  0  0
  7  8  1  0  0  0  0
  7 21  1  0  0  0  0
  8  9  1  0  0  0  0
  8 30  1  0  0  0  0
  8 31  1  0  0  0  0
  9 10  1  0  0  0  0
  9 11  1  0  0  0  0
  9 32  1  0  0  0  0
 10 33  1  0  0  0  0
 11 12  1  0  0  0  0
 11 34  1  0  0  0  0
 11 35  1  0  0  0  0
 12 20  1  0  0  0  0
 12 13  1  0  0  0  0
 13 14  2  0  0  0  0
 13 36  1  0  0  0  0
 14 15  1  0  0  0  0
 14 37  1  0  0  0  0
 15 16  1  0  0  0  0
 15 20  2  0  0  0  0
 16 17  1  0  0  0  0
 16 18  1  0  0  0  0
 16 19  1  0  0  0  0
 21 22  1  0  0  0  0
 22 23  2  0  0  0  0
 22 38  1  0  0  0  0
 23 24  1  0  0  0  0
 24 39  1  0  0  0  0
 24 40  1  0  0  0  0
 24 41  1  0  0  0  0
M  END
> <s_m_source_file>
AV-unprocessed.smi

> <i_m_source_file_index>
2866

> <i_lp_mmshare_version>
43012

> <i_f3d_flags>
0

> <s_epik_input>
W0NIM11jKFtjSF0xKWMoW0NIM10pW2NIXWMoYzEyKW4oW2NIXW4yKVtDSDJdW0NASF0oW09IXSlbQ0gyXW4zW2NIXVtjSF1jKG4zKUMoRikoRilG

> <s_epik_cmdline>
J2VwaWtfcHl0aG9uJywgJy1waCcsICc3LjAnLCAnLXRuJywgJzgnLCAnLW1hJywgJzIwMCcsICctbWV0YWxfYmluZGluZycsICctaW1hZScsICc8aW5maWxlLm1hZT4nLCAnLW9tYWUnLCAnPG91dGZpbGUubWFlPic=

> <r_lp_tautomer_probability>
1

> <r_epik_Ionization_Penalty>
0.1021

> <r_epik_Ionization_Penalty_Charging>
0

> <r_epik_Ionization_Penalty_Neutral>
0.1021

> <r_epik_State_Penalty>
0.0920694

> <r_epik_Charging_Adjusted_Penalty>
0.0920694

> <i_epik_Tot_Q>
0

> <i_epik_Tot_abs_Q>
0

> <r_epik_Metal_State_Penalty>
0.0784291

> <b_epik_Metal_Only>
0

> <s_lp_Force_Field>
OPLS_2005

> <r_lp_Energy>
11.3604

> <b_lp_Chiralities_Consistent>
1

> <s_lp_Variant>
AV-unprocessed.smi:2866-1

> <Gold.Version>
5.8.1

> <Gold.Id.Protein>
6NUR|6NUR_protein|mol2

> <Gold.PLP.Fitness>
54.0930

> <Gold.PLP.PLP>
-48.7947

> <Gold.PLP.part.hbond>
-3.0000

> <Gold.PLP.part.metal>
0.0000

> <Gold.PLP.part.buried>
-7.8280

> <Gold.PLP.part.nonpolar>
-37.1528

> <Gold.PLP.part.repulsive>
0.0794

> <Gold.PLP.ligand.clash>
0.0000

> <Gold.PLP.ligand.torsion>
1.3211

> <Gold.PLP.Chemscore.Hbond>
1.6331

> <Gold.PLP.Chemscore.CHOScore>
1.0000

> <Gold.PLP.Chemscore.Metal>
0.0000

> <Gold.Chemscore.Hbonds>
donor molecule, donor type, donor heavy atom, donor atom, acceptor molecule, acceptor atom, score
      P1  H  7989  7998       L1    10  0.86
      P1  H  7997  8010       L1     5  0.73
      L1  C    13    36       P1  7957  1.00

> <Gold.PLP.Chemscore.Internal.Correction>
0.0412

> <Gold.Rescore>
     Score         DG    S(hbond)    S(metal)    S(lipo)     H(rot)  DE(clash)    DE(int)     intcor
     14.79     -16.15       0.97        0.00     116.57       2.42       0.06       1.30       ----

> <Gold.Chemscore.Fitness>
14.7896

> <Gold.Chemscore.DG>
-16.1527

> <Gold.Chemscore.ZeroCoef>
-5.4800

> <Gold.Chemscore.Hbond>
0.9703

> <Gold.Chemscore.Metal>
0.0000

> <Gold.Chemscore.Lipo>
116.5666

> <Gold.Chemscore.Internal_Hbond>
0.0000

> <Gold.Chemscore.DEClash>
0.0620

> <Gold.Chemscore.DEInternal>
1.3011

> <Gold.Chemscore.Rot>
2.4243

> <Gold.Chemscore.Internal.Correction>
   9.000000E+99

> <Gold.Chemscore.Hbonds>
donor molecule, donor type, donor heavy atom, donor atom, acceptor molecule, acceptor atom, score
      P1  H  7989  7998       L1    10  0.47
      P1  H  7997  8010       L1     5  0.12

> <Gold.Chemscore.Hbond.Weighted>
-3.2407

> <Gold.Chemscore.Metal.Weighted>
-0.0000

> <Gold.Chemscore.Lipo.Weighted>
-13.6383

> <Gold.Chemscore.Internal_Hbond.Weighted>
0.0000

> <Gold.Chemscore.DEClash.Weighted>
0.0620

> <Gold.Chemscore.DEInternal.Weighted>
1.3011

> <Gold.Chemscore.Rot.Weighted>
6.2063

> <Gold.Chemscore.Internal.Correction.Weighted>
   9.000000E+99

> <Gold.Protein.RotatedTorsions>
[ 6907 6896 6895 6894 ] final -102.90 input  -60.11 | X-H torsion
[ 7974 7965 7964 7962 ] final -138.45 input  175.53 | X-H torsion
[ 8008 7997 7996 7995 ] final   30.40 input   59.86 | X-H torsion
[ 10167 10162 10161 10158 ] final  -13.59 input  -65.29 | X-H torsion
[ 10718 10713 10712 10709 ] final   51.73 input   66.30 | X-H torsion
[ 10763 10752 10751 10750 ] final  -11.26 input  -60.55 | X-H torsion
[ 11005 11000 10999 10996 ] final   85.88 input  -57.11 | X-H torsion

> <Gold.Protein.ActiveResidues>
 VAL166  LYS551  ARG553  GLY616  TRP617  ASP618  TYR619  PRO620  LYS621  CYS622 
 ASP623  PHE694  ASN695  SER759  ASP760  ASP761  ALA762  ILE779  LEU786  VAL792 
 PHE793  MET794  SER795  GLU796  ALA797  LYS798  CYS799  TRP800  GLU811  SER814 

> <Gold.Protein.RotatedAtoms>
  150.7216  134.0511  159.3798 H   0  0  0  0  0  0  0  0  0  0  0  0  # atno 6907 bound_to 6896
  151.8488  135.0563  160.0466 H   0  0  0  0  0  0  0  0  0  0  0  0  # atno 6908 bound_to 6896
  152.2806  133.5431  159.5532 H   0  0  0  0  0  0  0  0  0  0  0  0  # atno 6909 bound_to 6896
  144.8758  140.6434  143.5238 H   0  0  0  0  0  0  0  0  0  0  0  0  # atno 7974 bound_to 7965
  155.0898  140.3219  155.4577 H   0  0  0  0  0  0  0  0  0  0  0  0  # atno 8008 bound_to 7997
  156.2745  140.2080  156.5971 H   0  0  0  0  0  0  0  0  0  0  0  0  # atno 8009 bound_to 7997
  154.6912  140.0516  157.0353 H   0  0  0  0  0  0  0  0  0  0  0  0  # atno 8010 bound_to 7997
  140.7185  143.5410  150.9409 H   0  0  0  0  0  0  0  0  0  0  0  0  # atno 10167 bound_to 10162
  157.5009  130.8437  149.8315 H   0  0  0  0  0  0  0  0  0  0  0  0  # atno 10718 bound_to 10713
  153.4812  135.7017  153.5937 H   0  0  0  0  0  0  0  0  0  0  0  0  # atno 10763 bound_to 10752
  153.4149  135.3839  155.2074 H   0  0  0  0  0  0  0  0  0  0  0  0  # atno 10764 bound_to 10752
  154.8721  135.3913  154.4262 H   0  0  0  0  0  0  0  0  0  0  0  0  # atno 10765 bound_to 10752
  139.8959  134.8317  156.2643 H   0  0  0  0  0  0  0  0  0  0  0  0  # atno 11005 bound_to 11000
  145.4046  139.1591  143.4159 LP  0  0  0  0  0  0  0  0  0  0  0  0  # atno 17320 bound_to 7965
  146.2961  140.4145  142.8721 LP  0  0  0  0  0  0  0  0  0  0  0  0  # atno 17321 bound_to 7965
  139.9133  143.6694  152.3111 LP  0  0  0  0  0  0  0  0  0  0  0  0  # atno 17342 bound_to 10162
  139.7085  144.7624  151.1153 LP  0  0  0  0  0  0  0  0  0  0  0  0  # atno 17343 bound_to 10162
  156.0228  130.3789  150.1910 LP  0  0  0  0  0  0  0  0  0  0  0  0  # atno 17370 bound_to 10713
  157.0100  130.9948  151.3368 LP  0  0  0  0  0  0  0  0  0  0  0  0  # atno 17371 bound_to 10713
  141.0142  133.7078  156.1161 LP  0  0  0  0  0  0  0  0  0  0  0  0  # atno 17394 bound_to 11000
  140.7325  134.4239  157.5564 LP  0  0  0  0  0  0  0  0  0  0  0  0  # atno 17395 bound_to 11000

$$$$
