AV-unprocessed.smi:45|AV-procd|sdf|416|dock9
  -GOLD-   2262016293D 1   1.00000     0.00000
 Structure written by MMmdl.
 60 63  0  0  0  0  0  0  0  0  3 V2000
  136.6399  140.1256  153.9734 C   0  0  0  0  0  0  0  0  0  0  0  0
  136.6543  138.8318  154.5589 O   0  0  0  0  0  0  0  0  0  0  0  0
  137.7501  138.0248  154.3327 C   0  0  0  0  0  0  0  0  0  0  0  0
  138.8911  138.4325  153.5957 C   0  0  0  0  0  0  0  0  0  0  0  0
  139.9734  137.5519  153.4068 C   0  0  0  0  0  0  0  0  0  0  0  0
  139.9355  136.2519  153.9485 C   0  0  0  0  0  0  0  0  0  0  0  0
  141.1019  135.3055  153.7453 C   0  0  0  0  0  0  0  0  0  0  0  0
  141.9650  135.2041  154.9128 N   0  0  0  0  0  0  0  0  0  0  0  0
  143.2258  134.5862  154.8465 C   0  0  0  0  0  0  0  0  0  0  0  0
  143.6347  134.1115  153.6475 N   0  0  0  0  0  0  0  0  0  0  0  0
  144.8324  133.5240  153.5212 C   0  0  0  0  0  0  0  0  0  0  0  0
  145.2145  133.0555  152.2652 N   0  0  0  0  0  0  0  0  0  0  0  0
  146.1081  131.9119  152.1146 C   0  0  0  0  0  0  0  0  0  0  0  0
  145.6761  131.2036  150.8296 C   0  0  0  0  0  0  0  0  0  0  0  0
  145.1137  132.3380  149.9815 C   0  0  0  0  0  0  0  0  0  0  0  0
  144.4637  133.2581  151.0257 C   0  0  2  0  0  0  0  0  0  0  0  0
  144.3415  134.7358  150.5881 C   0  0  0  0  0  0  0  0  0  0  0  0
  143.8415  134.8525  149.2715 O   0  0  0  0  0  0  0  0  0  0  0  0
  145.6702  133.3902  154.5607 N   0  3  0  0  0  0  0  0  0  0  0  0
  145.3099  133.8489  155.7833 C   0  0  0  0  0  0  0  0  0  0  0  0
  144.0612  134.4768  155.9858 C   0  0  0  0  0  0  0  0  0  0  0  0
  143.6569  134.9580  157.3567 C   0  0  0  0  0  0  0  0  0  0  0  0
  142.4638  135.2017  157.5695 O   0  0  0  0  0  0  0  0  0  0  0  0
  144.7312  135.0780  158.1835 N   0  5  0  0  0  0  0  0  0  0  0  0
  144.8079  136.0337  159.2874 C   0  0  0  0  0  0  0  0  0  0  0  0
  145.4940  135.4296  160.5045 C   0  0  0  0  0  0  0  0  0  0  0  0
  145.8906  134.1546  160.4049 N   0  0  0  0  0  0  0  0  0  0  0  0
  146.5199  133.6229  161.4752 C   0  0  0  0  0  0  0  0  0  0  0  0
  146.7509  134.3704  162.6474 C   0  0  0  0  0  0  0  0  0  0  0  0
  146.2880  135.7013  162.6388 C   0  0  0  0  0  0  0  0  0  0  0  0
  145.6593  136.2287  161.5659 N   0  0  0  0  0  0  0  0  0  0  0  0
  138.8062  135.8396  154.6821 C   0  0  0  0  0  0  0  0  0  0  0  0
  137.7219  136.7189  154.8719 C   0  0  0  0  0  0  0  0  0  0  0  0
  136.3514  136.1808  155.7753 Cl  0  0  0  0  0  0  0  0  0  0  0  0
  143.4582  132.8802  151.2161 H   0  0  0  0  0  0  0  0  0  0  0  0
  135.7168  140.6349  154.2495 H   0  0  0  0  0  0  0  0  0  0  0  0
  136.6728  140.0710  152.8845 H   0  0  0  0  0  0  0  0  0  0  0  0
  137.4714  140.7342  154.3308 H   0  0  0  0  0  0  0  0  0  0  0  0
  138.9613  139.4187  153.1630 H   0  0  0  0  0  0  0  0  0  0  0  0
  140.8350  137.8780  152.8426 H   0  0  0  0  0  0  0  0  0  0  0  0
  140.7054  134.3188  153.5028 H   0  0  0  0  0  0  0  0  0  0  0  0
  141.6939  135.6333  152.8896 H   0  0  0  0  0  0  0  0  0  0  0  0
  141.6498  135.5949  155.7898 H   0  0  0  0  0  0  0  0  0  0  0  0
  147.1312  132.2788  152.0270 H   0  0  0  0  0  0  0  0  0  0  0  0
  146.0636  131.2333  152.9673 H   0  0  0  0  0  0  0  0  0  0  0  0
  146.4927  130.6686  150.3439 H   0  0  0  0  0  0  0  0  0  0  0  0
  144.8859  130.4849  151.0512 H   0  0  0  0  0  0  0  0  0  0  0  0
  145.9356  132.8381  149.4678 H   0  0  0  0  0  0  0  0  0  0  0  0
  144.4081  131.9939  149.2250 H   0  0  0  0  0  0  0  0  0  0  0  0
  143.6552  135.2569  151.2560 H   0  0  0  0  0  0  0  0  0  0  0  0
  145.2920  135.2630  150.6529 H   0  0  0  0  0  0  0  0  0  0  0  0
  142.9358  134.5817  149.2683 H   0  0  0  0  0  0  0  0  0  0  0  0
  146.0378  133.6936  156.5668 H   0  0  0  0  0  0  0  0  0  0  0  0
  145.3475  136.9381  159.0005 H   0  0  0  0  0  0  0  0  0  0  0  0
  143.8167  136.3766  159.5888 H   0  0  0  0  0  0  0  0  0  0  0  0
  146.8411  132.5950  161.3959 H   0  0  0  0  0  0  0  0  0  0  0  0
  147.2538  133.9470  163.5039 H   0  0  0  0  0  0  0  0  0  0  0  0
  146.4224  136.3451  163.4952 H   0  0  0  0  0  0  0  0  0  0  0  0
  138.7664  134.8445  155.1008 H   0  0  0  0  0  0  0  0  0  0  0  0
  146.5799  132.9447  154.4443 H   0  0  0  0  0  0  0  0  0  0  0  0
  1  2  1  0  0  0  0
  1 36  1  0  0  0  0
  1 37  1  0  0  0  0
  1 38  1  0  0  0  0
  2  3  1  0  0  0  0
  3 33  1  0  0  0  0
  3  4  2  0  0  0  0
  4  5  1  0  0  0  0
  4 39  1  0  0  0  0
  5  6  2  0  0  0  0
  5 40  1  0  0  0  0
  6  7  1  0  0  0  0
  6 32  1  0  0  0  0
  7  8  1  0  0  0  0
  7 41  1  0  0  0  0
  7 42  1  0  0  0  0
  8  9  1  0  0  0  0
  8 43  1  0  0  0  0
  9 21  1  0  0  0  0
  9 10  2  0  0  0  0
 10 11  1  0  0  0  0
 11 12  1  0  0  0  0
 11 19  2  0  0  0  0
 12 16  1  0  0  0  0
 12 13  1  0  0  0  0
 13 14  1  0  0  0  0
 13 44  1  0  0  0  0
 13 45  1  0  0  0  0
 14 15  1  0  0  0  0
 14 46  1  0  0  0  0
 14 47  1  0  0  0  0
 15 16  1  0  0  0  0
 15 48  1  0  0  0  0
 15 49  1  0  0  0  0
 16 35  1  0  0  0  0
 16 17  1  0  0  0  0
 17 18  1  0  0  0  0
 17 50  1  0  0  0  0
 17 51  1  0  0  0  0
 18 52  1  0  0  0  0
 19 20  1  0  0  0  0
 19 60  1  0  0  0  0
 20 21  2  0  0  0  0
 20 53  1  0  0  0  0
 21 22  1  0  0  0  0
 22 23  2  0  0  0  0
 22 24  1  0  0  0  0
 24 25  1  0  0  0  0
 25 26  1  0  0  0  0
 25 54  1  0  0  0  0
 25 55  1  0  0  0  0
 26 31  1  0  0  0  0
 26 27  2  0  0  0  0
 27 28  1  0  0  0  0
 28 29  2  0  0  0  0
 28 56  1  0  0  0  0
 29 30  1  0  0  0  0
 29 57  1  0  0  0  0
 30 31  2  0  0  0  0
 30 58  1  0  0  0  0
 32 33  2  0  0  0  0
 32 59  1  0  0  0  0
 33 34  1  0  0  0  0
M  CHG  1  19   1
M  CHG  1  24  -1
M  END
> <s_m_source_file>
AV-unprocessed.smi

> <i_m_source_file_index>
45

> <i_lp_mmshare_version>
43012

> <i_f3d_flags>
0

> <s_epik_input>
W0NIM11PYzFbY0hdW2NIXWMoW2NIXWMxQ2wpW0NIMl1bTkhdYzJuYyhOM1tDSDJdW0NIMl1bQ0gyXVtDQEhdM1tDSDJdW09IXSluW2NIXWMyQyg9TylbTkhdW0NIMl1jNG5bY0hdW2NIXVtjSF1uNA==

> <s_epik_cmdline>
J2VwaWtfcHl0aG9uJywgJy1waCcsICc3LjAnLCAnLXRuJywgJzgnLCAnLW1hJywgJzIwMCcsICctbWV0YWxfYmluZGluZycsICctaW1hZScsICc8aW5maWxlLm1hZT4nLCAnLW9tYWUnLCAnPG91dGZpbGUubWFlPic=

> <r_lp_tautomer_probability>
0.575011

> <r_epik_Ionization_Penalty>
6.73124

> <r_epik_Ionization_Penalty_Charging>
6.73106

> <r_epik_Ionization_Penalty_Neutral>
0.000179426

> <r_epik_State_Penalty>
8.26145

> <r_epik_Charging_Adjusted_Penalty>
14.9925

> <i_epik_Tot_Q>
0

> <i_epik_Tot_abs_Q>
2

> <r_epik_Metal_State_Penalty>
4.22532

> <b_epik_Metal_Only>
1

> <s_epik_Chemistry_Notes>
This compound contains an electron-poor aromatic ring that is susceptible to covalent hydrolysis at low pH, typically resulting in measured values for nitrogen ring protonation that are around two units higher than predicted values.

> <s_lp_Force_Field>
OPLS_2005

> <r_lp_Energy>
47.4245

> <b_lp_Chiralities_Consistent>
1

> <s_lp_Variant>
AV-unprocessed.smi:45-10

> <Gold.Version>
5.8.1

> <Gold.Id.Protein>
6NUR|6NUR_protein|mol2

> <Gold.PLP.Fitness>
56.2723

> <Gold.PLP.PLP>
-51.9211

> <Gold.PLP.part.hbond>
-3.7902

> <Gold.PLP.part.metal>
0.0000

> <Gold.PLP.part.buried>
-6.6989

> <Gold.PLP.part.nonpolar>
-40.7463

> <Gold.PLP.part.repulsive>
0.1244

> <Gold.PLP.ligand.clash>
0.0000

> <Gold.PLP.ligand.torsion>
1.0554

> <Gold.PLP.Chemscore.Hbond>
1.9500

> <Gold.PLP.Chemscore.CHOScore>
0.0000

> <Gold.PLP.Chemscore.Metal>
0.0000

> <Gold.Chemscore.Hbonds>
donor molecule, donor type, donor heavy atom, donor atom, acceptor molecule, acceptor atom, score
      L1  H     8    43       P1 11000  0.02
      L1  H    18    52       P1 10186  1.00
      P1  H 11000 11005       L1    23  0.27

> <Gold.PLP.Chemscore.Internal.Correction>
0.6120

> <Gold.Rescore>
     Score         DG    S(hbond)    S(metal)    S(lipo)     H(rot)  DE(clash)    DE(int)     intcor
     14.42     -16.80       1.00        0.00     131.73       2.90       0.07       2.31       ----

> <Gold.Chemscore.Fitness>
14.4250

> <Gold.Chemscore.DG>
-16.8050

> <Gold.Chemscore.ZeroCoef>
-5.4800

> <Gold.Chemscore.Hbond>
0.9980

> <Gold.Chemscore.Metal>
0.0000

> <Gold.Chemscore.Lipo>
131.7321

> <Gold.Chemscore.Internal_Hbond>
0.0000

> <Gold.Chemscore.DEClash>
0.0655

> <Gold.Chemscore.DEInternal>
2.3145

> <Gold.Chemscore.Rot>
2.8988

> <Gold.Chemscore.Internal.Correction>
   9.000000E+99

> <Gold.Chemscore.Hbonds>
donor molecule, donor type, donor heavy atom, donor atom, acceptor molecule, acceptor atom, score
      L1  H    18    52       P1 10186  0.98
      P1  H 11000 11005       L1    23  0.26

> <Gold.Chemscore.Hbond.Weighted>
-3.3332

> <Gold.Chemscore.Metal.Weighted>
-0.0000

> <Gold.Chemscore.Lipo.Weighted>
-15.4127

> <Gold.Chemscore.Internal_Hbond.Weighted>
0.0000

> <Gold.Chemscore.DEClash.Weighted>
0.0655

> <Gold.Chemscore.DEInternal.Weighted>
2.3145

> <Gold.Chemscore.Rot.Weighted>
7.4209

> <Gold.Chemscore.Internal.Correction.Weighted>
   9.000000E+99

> <Gold.Protein.RotatedTorsions>
[ 6907 6896 6895 6894 ] final  -63.63 input  -60.11 | X-H torsion
[ 7974 7965 7964 7962 ] final  -46.81 input  175.53 | X-H torsion
[ 8008 7997 7996 7995 ] final  -28.99 input   59.86 | X-H torsion
[ 10167 10162 10161 10158 ] final  -36.05 input  -65.29 | X-H torsion
[ 10718 10713 10712 10709 ] final  -55.61 input   66.30 | X-H torsion
[ 10763 10752 10751 10750 ] final  114.56 input  -60.55 | X-H torsion
[ 11005 11000 10999 10996 ] final -169.27 input  -57.11 | X-H torsion

> <Gold.Protein.ActiveResidues>
 VAL166  LYS551  ARG553  GLY616  TRP617  ASP618  TYR619  PRO620  LYS621  CYS622 
 ASP623  PHE694  ASN695  SER759  ASP760  ASP761  ALA762  ILE779  LEU786  VAL792 
 PHE793  MET794  SER795  GLU796  ALA797  LYS798  CYS799  TRP800  GLU811  SER814 

> <Gold.Protein.RotatedAtoms>
  150.7637  134.6409  159.6236 H   0  0  0  0  0  0  0  0  0  0  0  0  # atno 6907 bound_to 6896
  152.3657  134.6804  160.0201 H   0  0  0  0  0  0  0  0  0  0  0  0  # atno 6908 bound_to 6896
  151.7179  133.3277  159.3344 H   0  0  0  0  0  0  0  0  0  0  0  0  # atno 6909 bound_to 6896
  145.9681  140.7411  142.9424 H   0  0  0  0  0  0  0  0  0  0  0  0  # atno 7974 bound_to 7965
  154.4308  140.1830  156.1177 H   0  0  0  0  0  0  0  0  0  0  0  0  # atno 8008 bound_to 7997
  156.0168  140.3345  155.6972 H   0  0  0  0  0  0  0  0  0  0  0  0  # atno 8009 bound_to 7997
  155.6033  140.0642  157.2717 H   0  0  0  0  0  0  0  0  0  0  0  0  # atno 8010 bound_to 7997
  140.7151  143.3435  151.2306 H   0  0  0  0  0  0  0  0  0  0  0  0  # atno 10167 bound_to 10162
  156.1355  130.4157  150.0194 H   0  0  0  0  0  0  0  0  0  0  0  0  # atno 10718 bound_to 10713
  153.5091  135.3622  155.2578 H   0  0  0  0  0  0  0  0  0  0  0  0  # atno 10763 bound_to 10752
  154.8743  135.4018  154.3390 H   0  0  0  0  0  0  0  0  0  0  0  0  # atno 10764 bound_to 10752
  153.4039  135.7076  153.6473 H   0  0  0  0  0  0  0  0  0  0  0  0  # atno 10765 bound_to 10752
  140.5326  134.5601  157.5079 H   0  0  0  0  0  0  0  0  0  0  0  0  # atno 11005 bound_to 11000
  144.6830  140.2703  143.7307 LP  0  0  0  0  0  0  0  0  0  0  0  0  # atno 17320 bound_to 7965
  145.7945  139.1940  143.2084 LP  0  0  0  0  0  0  0  0  0  0  0  0  # atno 17321 bound_to 7965
  139.6949  143.9630  152.2877 LP  0  0  0  0  0  0  0  0  0  0  0  0  # atno 17342 bound_to 10162
  139.9304  144.6745  150.8369 LP  0  0  0  0  0  0  0  0  0  0  0  0  # atno 17343 bound_to 10162
  156.8094  130.9319  151.3644 LP  0  0  0  0  0  0  0  0  0  0  0  0  # atno 17370 bound_to 10713
  157.6528  130.8898  149.9667 LP  0  0  0  0  0  0  0  0  0  0  0  0  # atno 17371 bound_to 10713
  139.9546  134.7557  156.0371 LP  0  0  0  0  0  0  0  0  0  0  0  0  # atno 17394 bound_to 11000
  141.1273  133.6596  156.3369 LP  0  0  0  0  0  0  0  0  0  0  0  0  # atno 17395 bound_to 11000

$$$$
