AV-unprocessed.smi:356|AV-procd|sdf|2410|dock4
  -GOLD-   2262022343D 1   1.00000     0.00000
 Structure written by MMmdl.
 42 44  0  0  0  0  0  0  0  0  2 V2000
  151.1053  139.6523  158.6174 C   0  0  0  0  0  0  0  0  0  0  0  0
  151.0211  141.0690  159.0900 C   0  0  0  0  0  0  0  0  0  0  0  0
  151.8279  141.5509  160.0349 N   0  0  0  0  0  0  0  0  0  0  0  0
  151.4160  142.8649  160.1448 C   0  0  0  0  0  0  0  0  0  0  0  0
  151.8797  143.9063  160.9800 C   0  0  0  0  0  0  0  0  0  0  0  0
  151.2938  145.1876  160.9153 C   0  0  0  0  0  0  0  0  0  0  0  0
  150.2386  145.4459  160.0168 C   0  0  0  0  0  0  0  0  0  0  0  0
  149.7606  144.4223  159.1762 C   0  0  0  0  0  0  0  0  0  0  0  0
  150.3484  143.1447  159.2449 C   0  0  0  0  0  0  0  0  0  0  0  0
  150.1166  141.9425  158.5822 N   0  0  0  0  0  0  0  0  0  0  0  0
  149.1105  141.6971  157.5582 C   0  0  0  0  0  0  0  0  0  0  0  0
  149.7180  141.4773  156.1573 C   0  0  2  0  0  0  0  0  0  0  0  0
  150.4534  142.6372  155.8229 O   0  0  0  0  0  0  0  0  0  0  0  0
  148.6634  141.2237  155.0570 C   0  0  0  0  0  0  0  0  0  0  0  0
  147.6585  142.3127  154.9620 N   0  3  0  0  0  0  0  0  0  0  0  0
  147.0708  142.4666  153.6076 C   0  0  0  0  0  0  0  0  0  0  0  0
  146.0711  143.6356  153.5850 C   0  0  0  0  0  0  0  0  0  0  0  0
  145.0636  143.4242  154.5664 O   0  0  0  0  0  0  0  0  0  0  0  0
  145.6054  143.3622  155.8797 C   0  0  0  0  0  0  0  0  0  0  0  0
  146.5864  142.1821  155.9774 C   0  0  0  0  0  0  0  0  0  0  0  0
  151.9260  139.1328  159.1132 H   0  0  0  0  0  0  0  0  0  0  0  0
  151.2833  139.6204  157.5425 H   0  0  0  0  0  0  0  0  0  0  0  0
  150.1812  139.1208  158.8417 H   0  0  0  0  0  0  0  0  0  0  0  0
  152.6880  143.7191  161.6714 H   0  0  0  0  0  0  0  0  0  0  0  0
  151.6569  145.9765  161.5578 H   0  0  0  0  0  0  0  0  0  0  0  0
  149.7970  146.4309  159.9733 H   0  0  0  0  0  0  0  0  0  0  0  0
  148.9518  144.6186  158.4883 H   0  0  0  0  0  0  0  0  0  0  0  0
  148.5253  140.8255  157.8543 H   0  0  0  0  0  0  0  0  0  0  0  0
  148.4127  142.5350  157.5444 H   0  0  0  0  0  0  0  0  0  0  0  0
  150.4164  140.6438  156.2095 H   0  0  0  0  0  0  0  0  0  0  0  0
  149.9085  143.3947  155.9762 H   0  0  0  0  0  0  0  0  0  0  0  0
  149.1334  141.1014  154.0809 H   0  0  0  0  0  0  0  0  0  0  0  0
  148.1607  140.2795  155.2734 H   0  0  0  0  0  0  0  0  0  0  0  0
  147.8504  142.6483  152.8686 H   0  0  0  0  0  0  0  0  0  0  0  0
  146.5672  141.5424  153.3195 H   0  0  0  0  0  0  0  0  0  0  0  0
  146.5776  144.5854  153.7644 H   0  0  0  0  0  0  0  0  0  0  0  0
  145.5991  143.7068  152.6049 H   0  0  0  0  0  0  0  0  0  0  0  0
  146.1000  144.3027  156.1280 H   0  0  0  0  0  0  0  0  0  0  0  0
  144.7904  143.2331  156.5921 H   0  0  0  0  0  0  0  0  0  0  0  0
  146.0551  141.2404  155.8299 H   0  0  0  0  0  0  0  0  0  0  0  0
  147.0231  142.1517  156.9764 H   0  0  0  0  0  0  0  0  0  0  0  0
  148.1483  143.1706  155.1754 H   0  0  0  0  0  0  0  0  0  0  0  0
  1  2  1  0  0  0  0
  1 21  1  0  0  0  0
  1 22  1  0  0  0  0
  1 23  1  0  0  0  0
  2 10  1  0  0  0  0
  2  3  2  0  0  0  0
  3  4  1  0  0  0  0
  4  9  2  0  0  0  0
  4  5  1  0  0  0  0
  5  6  2  0  0  0  0
  5 24  1  0  0  0  0
  6  7  1  0  0  0  0
  6 25  1  0  0  0  0
  7  8  2  0  0  0  0
  7 26  1  0  0  0  0
  8  9  1  0  0  0  0
  8 27  1  0  0  0  0
  9 10  1  0  0  0  0
 10 11  1  0  0  0  0
 11 12  1  0  0  0  0
 11 28  1  0  0  0  0
 11 29  1  0  0  0  0
 12 13  1  0  0  0  0
 12 14  1  0  0  0  0
 12 30  1  0  0  0  0
 13 31  1  0  0  0  0
 14 15  1  0  0  0  0
 14 32  1  0  0  0  0
 14 33  1  0  0  0  0
 15 20  1  0  0  0  0
 15 16  1  0  0  0  0
 15 42  1  0  0  0  0
 16 17  1  0  0  0  0
 16 34  1  0  0  0  0
 16 35  1  0  0  0  0
 17 18  1  0  0  0  0
 17 36  1  0  0  0  0
 17 37  1  0  0  0  0
 18 19  1  0  0  0  0
 19 20  1  0  0  0  0
 19 38  1  0  0  0  0
 19 39  1  0  0  0  0
 20 40  1  0  0  0  0
 20 41  1  0  0  0  0
M  CHG  1  15   1
M  END
> <s_m_source_file>
AV-unprocessed.smi

> <i_m_source_file_index>
356

> <i_lp_mmshare_version>
43012

> <i_f3d_flags>
0

> <s_epik_input>
W2NIXTFbY0hdW2NIXVtjSF1jKGMxMiluKGMobjIpW0NIM10pW0NIMl1bQ0BIXShbT0hdKVtDSDJdTjNbQ0gyXVtDSDJdT1tDSDJdW0NIMl0z

> <s_epik_cmdline>
J2VwaWtfcHl0aG9uJywgJy1waCcsICc3LjAnLCAnLXRuJywgJzgnLCAnLW1hJywgJzIwMCcsICctbWV0YWxfYmluZGluZycsICctaW1hZScsICc8aW5maWxlLm1hZT4nLCAnLW9tYWUnLCAnPG91dGZpbGUubWFlPic=

> <r_epik_Ionization_Penalty>
0.706388

> <r_epik_Ionization_Penalty_Charging>
0.608065

> <r_epik_Ionization_Penalty_Neutral>
0.0983237

> <r_epik_State_Penalty>
0.742533

> <r_epik_Charging_Adjusted_Penalty>
1.3506

> <i_epik_Tot_Q>
1

> <i_epik_Tot_abs_Q>
1

> <r_epik_Metal_State_Penalty>
0.651809

> <b_epik_Metal_Only>
0

> <s_lp_Force_Field>
OPLS_2005

> <r_lp_Energy>
21.62

> <b_lp_Chiralities_Consistent>
1

> <s_lp_Variant>
AV-unprocessed.smi:356-3

> <Gold.Version>
5.8.1

> <Gold.Id.Protein>
6NUR|6NUR_protein|mol2

> <Gold.PLP.Fitness>
47.7773

> <Gold.PLP.PLP>
-39.4859

> <Gold.PLP.part.hbond>
-2.3635

> <Gold.PLP.part.metal>
0.0000

> <Gold.PLP.part.buried>
-5.3111

> <Gold.PLP.part.nonpolar>
-32.3712

> <Gold.PLP.part.repulsive>
0.2776

> <Gold.PLP.ligand.clash>
0.0000

> <Gold.PLP.ligand.torsion>
0.3653

> <Gold.PLP.Chemscore.Hbond>
3.0000

> <Gold.PLP.Chemscore.CHOScore>
0.0000

> <Gold.PLP.Chemscore.Metal>
0.0000

> <Gold.Chemscore.Hbonds>
donor molecule, donor type, donor heavy atom, donor atom, acceptor molecule, acceptor atom, score
      L1  H    13    31       P1  8028  1.00
      L1  H    15    42       P1  8028  2.00

> <Gold.PLP.Chemscore.Internal.Correction>
0.0221

> <Gold.Rescore>
     Score         DG    S(hbond)    S(metal)    S(lipo)     H(rot)  DE(clash)    DE(int)     intcor
     15.01     -16.40       1.32        0.00     100.91       2.07       0.91       0.48       ----

> <Gold.Chemscore.Fitness>
15.0128

> <Gold.Chemscore.DG>
-16.4027

> <Gold.Chemscore.ZeroCoef>
-5.4800

> <Gold.Chemscore.Hbond>
1.3187

> <Gold.Chemscore.Metal>
0.0000

> <Gold.Chemscore.Lipo>
100.9069

> <Gold.Chemscore.Internal_Hbond>
0.0000

> <Gold.Chemscore.DEClash>
0.9084

> <Gold.Chemscore.DEInternal>
0.4815

> <Gold.Chemscore.Rot>
2.0656

> <Gold.Chemscore.Internal.Correction>
   9.000000E+99

> <Gold.Chemscore.Hbonds>
donor molecule, donor type, donor heavy atom, donor atom, acceptor molecule, acceptor atom, score
      L1  H    13    31       P1  8028  1.00
      L1  H    15    42       P1  8028  0.94

> <Gold.Chemscore.Hbond.Weighted>
-4.4045

> <Gold.Chemscore.Metal.Weighted>
-0.0000

> <Gold.Chemscore.Lipo.Weighted>
-11.8061

> <Gold.Chemscore.Internal_Hbond.Weighted>
0.0000

> <Gold.Chemscore.DEClash.Weighted>
0.9084

> <Gold.Chemscore.DEInternal.Weighted>
0.4815

> <Gold.Chemscore.Rot.Weighted>
5.2879

> <Gold.Chemscore.Internal.Correction.Weighted>
   9.000000E+99

> <Gold.Protein.RotatedTorsions>
[ 6907 6896 6895 6894 ] final -127.80 input  -60.11 | X-H torsion
[ 7974 7965 7964 7962 ] final   81.71 input  175.53 | X-H torsion
[ 8008 7997 7996 7995 ] final  165.68 input   59.86 | X-H torsion
[ 10167 10162 10161 10158 ] final   -3.52 input  -65.29 | X-H torsion
[ 10718 10713 10712 10709 ] final   61.34 input   66.30 | X-H torsion
[ 10763 10752 10751 10750 ] final   25.83 input  -60.55 | X-H torsion
[ 11005 11000 10999 10996 ] final  142.61 input  -57.11 | X-H torsion

> <Gold.Protein.ActiveResidues>
 VAL166  LYS551  ARG553  GLY616  TRP617  ASP618  TYR619  PRO620  LYS621  CYS622 
 ASP623  PHE694  ASN695  SER759  ASP760  ASP761  ALA762  ILE779  LEU786  VAL792 
 PHE793  MET794  SER795  GLU796  ALA797  LYS798  CYS799  TRP800  GLU811  SER814 

> <Gold.Protein.RotatedAtoms>
  150.9111  133.6996  159.2854 H   0  0  0  0  0  0  0  0  0  0  0  0  # atno 6907 bound_to 6896
  151.4483  135.1026  159.9700 H   0  0  0  0  0  0  0  0  0  0  0  0  # atno 6908 bound_to 6896
  152.4930  133.8503  159.7253 H   0  0  0  0  0  0  0  0  0  0  0  0  # atno 6909 bound_to 6896
  145.6346  139.2412  143.2065 H   0  0  0  0  0  0  0  0  0  0  0  0  # atno 7974 bound_to 7965
  156.1781  140.1663  156.8325 H   0  0  0  0  0  0  0  0  0  0  0  0  # atno 8008 bound_to 7997
  154.5329  140.0753  156.8410 H   0  0  0  0  0  0  0  0  0  0  0  0  # atno 8009 bound_to 7997
  155.3370  140.3382  155.4241 H   0  0  0  0  0  0  0  0  0  0  0  0  # atno 8010 bound_to 7997
  140.6893  143.6530  150.8333 H   0  0  0  0  0  0  0  0  0  0  0  0  # atno 10167 bound_to 10162
  157.5821  130.8989  149.9449 H   0  0  0  0  0  0  0  0  0  0  0  0  # atno 10718 bound_to 10713
  153.0664  135.6574  154.0344 H   0  0  0  0  0  0  0  0  0  0  0  0  # atno 10763 bound_to 10752
  154.0000  135.2938  155.3405 H   0  0  0  0  0  0  0  0  0  0  0  0  # atno 10764 bound_to 10752
  154.7024  135.5239  153.8614 H   0  0  0  0  0  0  0  0  0  0  0  0  # atno 10765 bound_to 10752
  140.0490  134.9265  157.0983 H   0  0  0  0  0  0  0  0  0  0  0  0  # atno 11005 bound_to 11000
  146.1329  140.7161  142.9403 LP  0  0  0  0  0  0  0  0  0  0  0  0  # atno 17320 bound_to 7965
  144.7180  140.4278  143.7029 LP  0  0  0  0  0  0  0  0  0  0  0  0  # atno 17321 bound_to 7965
  140.0241  143.5512  152.2788 LP  0  0  0  0  0  0  0  0  0  0  0  0  # atno 17342 bound_to 10162
  139.6281  144.7640  151.2596 LP  0  0  0  0  0  0  0  0  0  0  0  0  # atno 17343 bound_to 10162
  156.0867  130.3667  150.0474 LP  0  0  0  0  0  0  0  0  0  0  0  0  # atno 17370 bound_to 10713
  156.8611  130.9492  151.3618 LP  0  0  0  0  0  0  0  0  0  0  0  0  # atno 17371 bound_to 10713
  140.3947  134.2146  155.7165 LP  0  0  0  0  0  0  0  0  0  0  0  0  # atno 17394 bound_to 11000
  141.1921  133.8180  157.0852 LP  0  0  0  0  0  0  0  0  0  0  0  0  # atno 17395 bound_to 11000

$$$$
