AV-unprocessed.smi:1401|AV-procd|sdf|5690|dock9
  -GOLD-   22720 5313D 1   1.00000     0.00000
 Structure written by MMmdl.
 48 50  0  0  0  0  0  0  0  0  1 V2000
  145.6678  141.1136  158.4017 C   0  0  0  0  0  0  0  0  0  0  0  0
  145.6686  141.8402  157.0838 C   0  0  0  0  0  0  0  0  0  0  0  0
  146.7047  141.6728  156.3294 N   0  0  0  0  0  0  0  0  0  0  0  0
  146.8102  142.2996  155.1028 N   0  0  0  0  0  0  0  0  0  0  0  0
  148.0629  142.0132  154.3886 C   0  0  0  0  0  0  0  0  0  0  0  0
  149.1420  141.3865  155.2834 C   0  0  0  0  0  0  0  0  0  0  0  0
  149.5141  140.2259  155.1044 O   0  0  0  0  0  0  0  0  0  0  0  0
  149.6501  142.1838  156.2355 N   0  0  0  0  0  0  0  0  0  0  0  0
  150.7018  141.8153  157.1807 C   0  0  2  0  0  0  0  0  0  0  0  0
  150.4158  140.4065  157.7322 C   0  0  0  0  0  0  0  0  0  0  0  0
  150.7945  142.8764  158.3045 C   0  0  1  0  0  0  0  0  0  0  0  0
  151.8532  142.5451  159.3847 C   0  0  0  0  0  0  0  0  0  0  0  0
  152.7213  143.8149  159.4342 C   0  0  2  0  0  0  0  0  0  0  0  0
  151.9109  144.9712  160.0471 C   0  0  0  0  0  0  0  0  0  0  0  0
  150.9109  145.3128  158.9268 C   0  0  0  0  0  0  0  0  0  0  0  0
  151.2568  144.2811  157.8358 C   0  0  1  0  0  0  0  0  0  0  0  0
  152.7747  144.2053  157.9634 C   0  0  0  0  0  0  0  0  0  0  0  0
  145.8667  143.1289  154.5705 C   0  0  0  0  0  0  0  0  0  0  0  0
  146.0039  143.6694  153.4720 O   0  0  0  0  0  0  0  0  0  0  0  0
  144.6929  143.3089  155.4278 C   0  0  0  0  0  0  0  0  0  0  0  0
  143.6789  144.1679  154.9072 C   0  0  0  0  0  0  0  0  0  0  0  0
  142.8567  144.8753  154.5029 N   0  0  0  0  0  0  0  0  0  0  0  0
  144.5786  142.7004  156.6350 C   0  0  0  0  0  0  0  0  0  0  0  0
  143.3820  142.8555  157.5635 C   0  0  0  0  0  0  0  0  0  0  0  0
  144.8491  140.3949  158.4458 H   0  0  0  0  0  0  0  0  0  0  0  0
  145.5509  141.8127  159.2299 H   0  0  0  0  0  0  0  0  0  0  0  0
  146.5972  140.5658  158.5651 H   0  0  0  0  0  0  0  0  0  0  0  0
  147.8754  141.3289  153.5592 H   0  0  0  0  0  0  0  0  0  0  0  0
  148.4503  142.9258  153.9310 H   0  0  0  0  0  0  0  0  0  0  0  0
  149.2862  143.1229  156.3077 H   0  0  0  0  0  0  0  0  0  0  0  0
  151.6563  141.7909  156.6516 H   0  0  0  0  0  0  0  0  0  0  0  0
  151.1981  140.0750  158.4145 H   0  0  0  0  0  0  0  0  0  0  0  0
  150.3593  139.6719  156.9283 H   0  0  0  0  0  0  0  0  0  0  0  0
  149.4699  140.3773  158.2741 H   0  0  0  0  0  0  0  0  0  0  0  0
  149.8104  142.9592  158.7690 H   0  0  0  0  0  0  0  0  0  0  0  0
  151.4018  142.3119  160.3497 H   0  0  0  0  0  0  0  0  0  0  0  0
  152.4686  141.6925  159.0948 H   0  0  0  0  0  0  0  0  0  0  0  0
  153.6925  143.6625  159.9059 H   0  0  0  0  0  0  0  0  0  0  0  0
  151.4152  144.6815  160.9744 H   0  0  0  0  0  0  0  0  0  0  0  0
  152.5525  145.8267  160.2624 H   0  0  0  0  0  0  0  0  0  0  0  0
  149.8736  145.2431  159.2565 H   0  0  0  0  0  0  0  0  0  0  0  0
  151.0765  146.3283  158.5646 H   0  0  0  0  0  0  0  0  0  0  0  0
  150.8977  144.5758  156.8498 H   0  0  0  0  0  0  0  0  0  0  0  0
  153.2721  145.1608  157.7872 H   0  0  0  0  0  0  0  0  0  0  0  0
  153.2298  143.4443  157.3273 H   0  0  0  0  0  0  0  0  0  0  0  0
  142.6067  143.4909  157.1364 H   0  0  0  0  0  0  0  0  0  0  0  0
  143.6882  143.3030  158.5094 H   0  0  0  0  0  0  0  0  0  0  0  0
  142.9303  141.8853  157.7723 H   0  0  0  0  0  0  0  0  0  0  0  0
  1  2  1  0  0  0  0
  1 25  1  0  0  0  0
  1 26  1  0  0  0  0
  1 27  1  0  0  0  0
  2 23  1  0  0  0  0
  2  3  2  0  0  0  0
  3  4  1  0  0  0  0
  4  5  1  0  0  0  0
  4 18  1  0  0  0  0
  5  6  1  0  0  0  0
  5 28  1  0  0  0  0
  5 29  1  0  0  0  0
  6  7  2  0  0  0  0
  6  8  1  0  0  0  0
  8  9  1  0  0  0  0
  8 30  1  0  0  0  0
  9 10  1  0  0  0  0
  9 11  1  0  0  0  0
  9 31  1  0  0  0  0
 10 32  1  0  0  0  0
 10 33  1  0  0  0  0
 10 34  1  0  0  0  0
 11 16  1  0  0  0  0
 11 12  1  0  0  0  0
 11 35  1  0  0  0  0
 12 13  1  0  0  0  0
 12 36  1  0  0  0  0
 12 37  1  0  0  0  0
 13 17  1  0  0  0  0
 13 14  1  0  0  0  0
 13 38  1  0  0  0  0
 14 15  1  0  0  0  0
 14 39  1  0  0  0  0
 14 40  1  0  0  0  0
 15 16  1  0  0  0  0
 15 41  1  0  0  0  0
 15 42  1  0  0  0  0
 16 17  1  0  0  0  0
 16 43  1  0  0  0  0
 17 44  1  0  0  0  0
 17 45  1  0  0  0  0
 18 19  2  0  0  0  0
 18 20  1  0  0  0  0
 20 21  1  0  0  0  0
 20 23  2  0  0  0  0
 21 22  3  0  0  0  0
 23 24  1  0  0  0  0
 24 46  1  0  0  0  0
 24 47  1  0  0  0  0
 24 48  1  0  0  0  0
M  END
> <s_m_source_file>
AV-unprocessed.smi

> <i_m_source_file_index>
1401

> <i_lp_mmshare_version>
43012

> <i_f3d_flags>
0

> <s_epik_input>
TiNDYyhjMVtDSDNdKWMoPU8pbihuYzFbQ0gzXSlbQ0gyXUMoPU8pW05IXVtDQEhdKFtDSDNdKVtDQEhdKFtDSDJdW0NASF0yMylbQ0BIXShbQ0gyXTMpW0NIMl1bQ0gyXTI=

> <s_epik_cmdline>
J2VwaWtfcHl0aG9uJywgJy1waCcsICc3LjAnLCAnLXRuJywgJzgnLCAnLW1hJywgJzIwMCcsICctbWV0YWxfYmluZGluZycsICctaW1hZScsICc8aW5maWxlLm1hZT4nLCAnLW9tYWUnLCAnPG91dGZpbGUubWFlPic=

> <r_lp_tautomer_probability>
1

> <r_epik_Ionization_Penalty>
2.16501e-08

> <r_epik_Ionization_Penalty_Charging>
2.29436e-11

> <r_epik_Ionization_Penalty_Neutral>
2.16271e-08

> <r_epik_State_Penalty>
-0

> <r_epik_Charging_Adjusted_Penalty>
2.29436e-11

> <i_epik_Tot_Q>
0

> <i_epik_Tot_abs_Q>
0

> <r_epik_Metal_State_Penalty>
-0

> <b_epik_Metal_Only>
0

> <s_lp_Force_Field>
OPLS_2005

> <r_lp_Energy>
65.9265

> <b_lp_Chiralities_Consistent>
1

> <s_lp_Variant>
AV-unprocessed.smi:1401-3

> <Gold.Version>
5.8.1

> <Gold.Id.Protein>
6NUR|6NUR_protein|mol2

> <Gold.PLP.Fitness>
45.3867

> <Gold.PLP.PLP>
-43.2498

> <Gold.PLP.part.hbond>
-2.0000

> <Gold.PLP.part.metal>
0.0000

> <Gold.PLP.part.buried>
-1.8627

> <Gold.PLP.part.nonpolar>
-40.2714

> <Gold.PLP.part.repulsive>
0.5800

> <Gold.PLP.ligand.clash>
0.0000

> <Gold.PLP.ligand.torsion>
0.4415

> <Gold.PLP.Chemscore.Hbond>
1.0000

> <Gold.PLP.Chemscore.CHOScore>
0.0000

> <Gold.PLP.Chemscore.Metal>
0.0000

> <Gold.Chemscore.Hbonds>
donor molecule, donor type, donor heavy atom, donor atom, acceptor molecule, acceptor atom, score
      L1  H     8    30       P1  8028  1.00

> <Gold.PLP.Chemscore.Internal.Correction>
0.0199

> <Gold.Rescore>
     Score         DG    S(hbond)    S(metal)    S(lipo)     H(rot)  DE(clash)    DE(int)     intcor
     14.54     -16.91       0.99        0.00     105.01       1.63       0.29       2.08       ----

> <Gold.Chemscore.Fitness>
14.5408

> <Gold.Chemscore.DG>
-16.9084

> <Gold.Chemscore.ZeroCoef>
-5.4800

> <Gold.Chemscore.Hbond>
0.9912

> <Gold.Chemscore.Metal>
0.0000

> <Gold.Chemscore.Lipo>
105.0054

> <Gold.Chemscore.Internal_Hbond>
0.0000

> <Gold.Chemscore.DEClash>
0.2862

> <Gold.Chemscore.DEInternal>
2.0813

> <Gold.Chemscore.Rot>
1.6281

> <Gold.Chemscore.Internal.Correction>
   9.000000E+99

> <Gold.Chemscore.Hbonds>
donor molecule, donor type, donor heavy atom, donor atom, acceptor molecule, acceptor atom, score
      L1  H     8    30       P1  8028  0.98

> <Gold.Chemscore.Hbond.Weighted>
-3.3106

> <Gold.Chemscore.Metal.Weighted>
-0.0000

> <Gold.Chemscore.Lipo.Weighted>
-12.2856

> <Gold.Chemscore.Internal_Hbond.Weighted>
0.0000

> <Gold.Chemscore.DEClash.Weighted>
0.2862

> <Gold.Chemscore.DEInternal.Weighted>
2.0813

> <Gold.Chemscore.Rot.Weighted>
4.1678

> <Gold.Chemscore.Internal.Correction.Weighted>
   9.000000E+99

> <Gold.Protein.RotatedTorsions>
[ 6907 6896 6895 6894 ] final  106.31 input  -60.11 | X-H torsion
[ 7974 7965 7964 7962 ] final -148.30 input  175.53 | X-H torsion
[ 8008 7997 7996 7995 ] final  -48.87 input   59.86 | X-H torsion
[ 10167 10162 10161 10158 ] final -115.67 input  -65.29 | X-H torsion
[ 10718 10713 10712 10709 ] final  129.78 input   66.30 | X-H torsion
[ 10763 10752 10751 10750 ] final -111.77 input  -60.55 | X-H torsion
[ 11005 11000 10999 10996 ] final   52.01 input  -57.11 | X-H torsion

> <Gold.Protein.ActiveResidues>
 VAL166  LYS551  ARG553  GLY616  TRP617  ASP618  TYR619  PRO620  LYS621  CYS622 
 ASP623  PHE694  ASN695  SER759  ASP760  ASP761  ALA762  ILE779  LEU786  VAL792 
 PHE793  MET794  SER795  GLU796  ALA797  LYS798  CYS799  TRP800  GLU811  SER814 

> <Gold.Protein.RotatedAtoms>
  152.5198  133.9399  159.7621 H   0  0  0  0  0  0  0  0  0  0  0  0  # atno 6907 bound_to 6896
  150.9732  133.6314  159.2741 H   0  0  0  0  0  0  0  0  0  0  0  0  # atno 6908 bound_to 6896
  151.3518  135.0891  159.9458 H   0  0  0  0  0  0  0  0  0  0  0  0  # atno 6909 bound_to 6896
  144.8038  140.5214  143.5689 H   0  0  0  0  0  0  0  0  0  0  0  0  # atno 7974 bound_to 7965
  154.4035  140.1311  156.4410 H   0  0  0  0  0  0  0  0  0  0  0  0  # atno 8008 bound_to 7997
  155.7459  140.3489  155.5107 H   0  0  0  0  0  0  0  0  0  0  0  0  # atno 8009 bound_to 7997
  155.8995  140.1017  157.1350 H   0  0  0  0  0  0  0  0  0  0  0  0  # atno 8010 bound_to 7997
  140.0875  143.4730  152.1889 H   0  0  0  0  0  0  0  0  0  0  0  0  # atno 10167 bound_to 10162
  157.5123  131.1097  150.9275 H   0  0  0  0  0  0  0  0  0  0  0  0  # atno 10718 bound_to 10713
  154.8317  135.4515  154.1090 H   0  0  0  0  0  0  0  0  0  0  0  0  # atno 10763 bound_to 10752
  153.2358  135.6911  153.7845 H   0  0  0  0  0  0  0  0  0  0  0  0  # atno 10764 bound_to 10752
  153.7211  135.3341  155.3243 H   0  0  0  0  0  0  0  0  0  0  0  0  # atno 10765 bound_to 10752
  140.0884  134.5242  155.8876 H   0  0  0  0  0  0  0  0  0  0  0  0  # atno 11005 bound_to 11000
  145.5488  139.1476  143.3405 LP  0  0  0  0  0  0  0  0  0  0  0  0  # atno 17320 bound_to 7965
  146.2325  140.5627  142.8969 LP  0  0  0  0  0  0  0  0  0  0  0  0  # atno 17321 bound_to 7965
  139.5743  144.7479  151.3806 LP  0  0  0  0  0  0  0  0  0  0  0  0  # atno 17342 bound_to 10162
  140.7046  143.7547  150.7459 LP  0  0  0  0  0  0  0  0  0  0  0  0  # atno 17343 bound_to 10162
  156.9912  130.5564  149.5303 LP  0  0  0  0  0  0  0  0  0  0  0  0  # atno 17370 bound_to 10713
  156.0297  130.5389  150.8501 LP  0  0  0  0  0  0  0  0  0  0  0  0  # atno 17371 bound_to 10713
  141.2070  133.6660  156.6278 LP  0  0  0  0  0  0  0  0  0  0  0  0  # atno 17394 bound_to 11000
  140.3387  134.7868  157.4381 LP  0  0  0  0  0  0  0  0  0  0  0  0  # atno 17395 bound_to 11000

$$$$
