AV-unprocessed.smi:2632|AV-procd|sdf|10250|dock10
  -GOLD-   2272014263D 1   1.00000     0.00000
 Structure written by MMmdl.
 38 39  0  0  0  0  0  0  0  0  1 V2000
  146.5776  142.7262  154.0989 C   0  0  0  0  0  0  0  0  0  0  0  0
  146.7491  141.4123  153.5991 O   0  0  0  0  0  0  0  0  0  0  0  0
  147.9150  140.7837  154.1062 C   0  0  0  0  0  0  0  0  0  0  0  0
  147.9729  139.3304  153.6064 C   0  0  0  0  0  0  0  0  0  0  0  0
  146.8290  138.5442  154.0241 N   0  0  0  0  0  0  0  0  0  0  0  0
  145.8015  138.1497  153.1630 C   0  0  0  0  0  0  0  0  0  0  0  0
  145.8684  138.5031  151.8258 N   0  0  0  0  0  0  0  0  0  0  0  0
  144.7361  137.4441  153.6236 C   0  0  0  0  0  0  0  0  0  0  0  0
  143.3547  136.9089  152.6423 S   0  0  0  0  0  0  0  0  0  0  0  0
  143.9959  135.4220  151.9447 C   0  0  0  0  0  0  0  0  0  0  0  0
  145.2428  135.4330  151.2886 C   0  0  0  0  0  0  0  0  0  0  0  0
  145.7493  134.2466  150.7237 C   0  0  0  0  0  0  0  0  0  0  0  0
  145.0122  133.0474  150.8152 C   0  0  0  0  0  0  0  0  0  0  0  0
  145.5602  131.7743  150.2040 C   0  0  0  0  0  0  0  0  0  0  0  0
  143.7640  133.0409  151.4728 C   0  0  0  0  0  0  0  0  0  0  0  0
  143.2565  134.2269  152.0386 C   0  0  0  0  0  0  0  0  0  0  0  0
  144.6020  137.0553  155.0292 C   0  0  0  0  0  0  0  0  0  0  0  0
  143.6814  136.4094  155.5296 O   0  0  0  0  0  0  0  0  0  0  0  0
  145.6527  137.4931  155.8347 N   0  0  0  0  0  0  0  0  0  0  0  0
  146.7567  138.2272  155.4042 C   0  0  0  0  0  0  0  0  0  0  0  0
  147.6095  138.5705  156.2238 O   0  0  0  0  0  0  0  0  0  0  0  0
  145.6072  137.2625  156.8167 H   0  0  0  0  0  0  0  0  0  0  0  0
  145.6683  143.1596  153.6831 H   0  0  0  0  0  0  0  0  0  0  0  0
  147.4156  143.3665  153.8202 H   0  0  0  0  0  0  0  0  0  0  0  0
  146.4827  142.7255  155.1856 H   0  0  0  0  0  0  0  0  0  0  0  0
  148.7983  141.3234  153.7618 H   0  0  0  0  0  0  0  0  0  0  0  0
  147.9219  140.8158  155.1967 H   0  0  0  0  0  0  0  0  0  0  0  0
  148.0253  139.2827  152.5193 H   0  0  0  0  0  0  0  0  0  0  0  0
  148.8700  138.8176  153.9577 H   0  0  0  0  0  0  0  0  0  0  0  0
  146.6415  139.0388  151.4582 H   0  0  0  0  0  0  0  0  0  0  0  0
  145.2218  138.1281  151.1465 H   0  0  0  0  0  0  0  0  0  0  0  0
  145.8110  136.3485  151.2132 H   0  0  0  0  0  0  0  0  0  0  0  0
  146.7046  134.2598  150.2196 H   0  0  0  0  0  0  0  0  0  0  0  0
  145.0825  130.8936  150.6341 H   0  0  0  0  0  0  0  0  0  0  0  0
  146.6335  131.6953  150.3794 H   0  0  0  0  0  0  0  0  0  0  0  0
  145.3860  131.7680  149.1279 H   0  0  0  0  0  0  0  0  0  0  0  0
  143.1912  132.1280  151.5450 H   0  0  0  0  0  0  0  0  0  0  0  0
  142.2989  134.2183  152.5384 H   0  0  0  0  0  0  0  0  0  0  0  0
  1  2  1  0  0  0  0
  1 23  1  0  0  0  0
  1 24  1  0  0  0  0
  1 25  1  0  0  0  0
  2  3  1  0  0  0  0
  3  4  1  0  0  0  0
  3 26  1  0  0  0  0
  3 27  1  0  0  0  0
  4  5  1  0  0  0  0
  4 28  1  0  0  0  0
  4 29  1  0  0  0  0
  5 20  1  0  0  0  0
  5  6  1  0  0  0  0
  6  7  1  0  0  0  0
  6  8  2  0  0  0  0
  7 30  1  0  0  0  0
  7 31  1  0  0  0  0
  8  9  1  0  0  0  0
  8 17  1  0  0  0  0
  9 10  1  0  0  0  0
 10 16  1  0  0  0  0
 10 11  2  0  0  0  0
 11 12  1  0  0  0  0
 11 32  1  0  0  0  0
 12 13  2  0  0  0  0
 12 33  1  0  0  0  0
 13 14  1  0  0  0  0
 13 15  1  0  0  0  0
 14 34  1  0  0  0  0
 14 35  1  0  0  0  0
 14 36  1  0  0  0  0
 15 16  2  0  0  0  0
 15 37  1  0  0  0  0
 16 38  1  0  0  0  0
 17 18  2  0  0  0  0
 17 19  1  0  0  0  0
 19 22  1  0  0  0  0
 19 20  1  0  0  0  0
 20 21  2  0  0  0  0
M  END
> <s_m_source_file>
AV-unprocessed.smi

> <i_m_source_file_index>
2632

> <i_lp_mmshare_version>
43012

> <i_f3d_flags>
0

> <s_epik_input>
W0NIM11PW0NIMl1bQ0gyXW4xYyhbTkgyXSljKGMoPU8pW25IXWMxPU8pU2MyW2NIXVtjSF1jKFtDSDNdKVtjSF1bY0hdMg==

> <s_epik_cmdline>
J2VwaWtfcHl0aG9uJywgJy1waCcsICc3LjAnLCAnLXRuJywgJzgnLCAnLW1hJywgJzIwMCcsICctbWV0YWxfYmluZGluZycsICctaW1hZScsICc8aW5maWxlLm1hZT4nLCAnLW9tYWUnLCAnPG91dGZpbGUubWFlPic=

> <r_lp_tautomer_probability>
1

> <r_epik_Ionization_Penalty>
1.3786e-05

> <r_epik_Ionization_Penalty_Charging>
1.17844e-05

> <r_epik_Ionization_Penalty_Neutral>
2.00164e-06

> <r_epik_State_Penalty>
-0

> <r_epik_Charging_Adjusted_Penalty>
1.17844e-05

> <i_epik_Tot_Q>
0

> <i_epik_Tot_abs_Q>
0

> <r_epik_Metal_State_Penalty>
0.0115847

> <b_epik_Metal_Only>
0

> <s_epik_Chemistry_Notes>
This compound has an imine and may undergo hydrolysis.

> <s_lp_Force_Field>
OPLS_2005

> <r_lp_Energy>
18.7052

> <b_lp_Chiralities_Consistent>
1

> <s_lp_Variant>
AV-unprocessed.smi:2632-1

> <Gold.Version>
5.8.1

> <Gold.Id.Protein>
6NUR|6NUR_protein|mol2

> <Gold.PLP.Fitness>
33.7216

> <Gold.PLP.PLP>
-32.0550

> <Gold.PLP.part.hbond>
-2.0000

> <Gold.PLP.part.metal>
0.0000

> <Gold.PLP.part.buried>
-4.0700

> <Gold.PLP.part.nonpolar>
-26.5557

> <Gold.PLP.part.repulsive>
0.2542

> <Gold.PLP.ligand.clash>
0.0000

> <Gold.PLP.ligand.torsion>
0.5227

> <Gold.PLP.Chemscore.Hbond>
0.8960

> <Gold.PLP.Chemscore.CHOScore>
0.0000

> <Gold.PLP.Chemscore.Metal>
0.0000

> <Gold.Chemscore.Hbonds>
donor molecule, donor type, donor heavy atom, donor atom, acceptor molecule, acceptor atom, score
      L1  H     7    31       P1 10171  0.88

> <Gold.PLP.Chemscore.Internal.Correction>
0.0240

> <Gold.Rescore>
     Score         DG    S(hbond)    S(metal)    S(lipo)     H(rot)  DE(clash)    DE(int)     intcor
     11.13     -11.69       0.92        0.00      71.02       2.02       0.01       0.55       ----

> <Gold.Chemscore.Fitness>
11.1274

> <Gold.Chemscore.DG>
-11.6927

> <Gold.Chemscore.ZeroCoef>
-5.4800

> <Gold.Chemscore.Hbond>
0.9189

> <Gold.Chemscore.Metal>
0.0000

> <Gold.Chemscore.Lipo>
71.0236

> <Gold.Chemscore.Internal_Hbond>
0.0000

> <Gold.Chemscore.DEClash>
0.0106

> <Gold.Chemscore.DEInternal>
0.5547

> <Gold.Chemscore.Rot>
2.0180

> <Gold.Chemscore.Internal.Correction>
   9.000000E+99

> <Gold.Chemscore.Hbonds>
donor molecule, donor type, donor heavy atom, donor atom, acceptor molecule, acceptor atom, score
      L1  H     7    31       P1 10171  0.86

> <Gold.Chemscore.Hbond.Weighted>
-3.0691

> <Gold.Chemscore.Metal.Weighted>
-0.0000

> <Gold.Chemscore.Lipo.Weighted>
-8.3098

> <Gold.Chemscore.Internal_Hbond.Weighted>
0.0000

> <Gold.Chemscore.DEClash.Weighted>
0.0106

> <Gold.Chemscore.DEInternal.Weighted>
0.5547

> <Gold.Chemscore.Rot.Weighted>
5.1661

> <Gold.Chemscore.Internal.Correction.Weighted>
   9.000000E+99

> <Gold.Protein.RotatedTorsions>
[ 6907 6896 6895 6894 ] final -157.59 input  -60.11 | X-H torsion
[ 7974 7965 7964 7962 ] final  -39.08 input  175.53 | X-H torsion
[ 8008 7997 7996 7995 ] final   23.50 input   59.86 | X-H torsion
[ 10167 10162 10161 10158 ] final  -82.60 input  -65.29 | X-H torsion
[ 10718 10713 10712 10709 ] final -107.25 input   66.30 | X-H torsion
[ 10763 10752 10751 10750 ] final -106.21 input  -60.55 | X-H torsion
[ 11005 11000 10999 10996 ] final   78.26 input  -57.11 | X-H torsion

> <Gold.Protein.ActiveResidues>
 VAL166  LYS551  ARG553  GLY616  TRP617  ASP618  TYR619  PRO620  LYS621  CYS622 
 ASP623  PHE694  ASN695  SER759  ASP760  ASP761  ALA762  ILE779  LEU786  VAL792 
 PHE793  MET794  SER795  GLU796  ALA797  LYS798  CYS799  TRP800  GLU811  SER814 

> <Gold.Protein.RotatedAtoms>
  151.3052  133.4104  159.2642 H   0  0  0  0  0  0  0  0  0  0  0  0  # atno 6907 bound_to 6896
  151.0161  134.9434  159.8044 H   0  0  0  0  0  0  0  0  0  0  0  0  # atno 6908 bound_to 6896
  152.5313  134.3016  159.9133 H   0  0  0  0  0  0  0  0  0  0  0  0  # atno 6909 bound_to 6896
  146.0428  140.6586  142.9079 H   0  0  0  0  0  0  0  0  0  0  0  0  # atno 7974 bound_to 7965
  154.9819  140.3103  155.4943 H   0  0  0  0  0  0  0  0  0  0  0  0  # atno 8008 bound_to 7997
  156.2952  140.2265  156.4858 H   0  0  0  0  0  0  0  0  0  0  0  0  # atno 8009 bound_to 7997
  154.7782  140.0448  157.1094 H   0  0  0  0  0  0  0  0  0  0  0  0  # atno 8010 bound_to 7997
  140.4305  143.2550  151.8766 H   0  0  0  0  0  0  0  0  0  0  0  0  # atno 10167 bound_to 10162
  156.0428  130.5653  150.7795 H   0  0  0  0  0  0  0  0  0  0  0  0  # atno 10718 bound_to 10713
  154.7997  135.4720  154.0246 H   0  0  0  0  0  0  0  0  0  0  0  0  # atno 10763 bound_to 10752
  153.1761  135.6833  153.8548 H   0  0  0  0  0  0  0  0  0  0  0  0  # atno 10764 bound_to 10752
  153.8114  135.3216  155.3379 H   0  0  0  0  0  0  0  0  0  0  0  0  # atno 10765 bound_to 10752
  139.9220  134.7749  156.1627 H   0  0  0  0  0  0  0  0  0  0  0  0  # atno 11005 bound_to 11000
  144.7083  140.3939  143.7101 LP  0  0  0  0  0  0  0  0  0  0  0  0  # atno 17320 bound_to 7965
  145.6856  139.1627  143.2676 LP  0  0  0  0  0  0  0  0  0  0  0  0  # atno 17321 bound_to 7965
  139.4785  144.5340  151.8625 LP  0  0  0  0  0  0  0  0  0  0  0  0  # atno 17342 bound_to 10162
  140.4433  144.1957  150.5892 LP  0  0  0  0  0  0  0  0  0  0  0  0  # atno 17343 bound_to 10162
  157.5267  131.0934  151.0009 LP  0  0  0  0  0  0  0  0  0  0  0  0  # atno 17370 bound_to 10713
  157.0325  130.5717  149.5345 LP  0  0  0  0  0  0  0  0  0  0  0  0  # atno 17371 bound_to 10713
  141.0748  133.6780  156.2214 LP  0  0  0  0  0  0  0  0  0  0  0  0  # atno 17394 bound_to 11000
  140.6446  134.5130  157.5572 LP  0  0  0  0  0  0  0  0  0  0  0  0  # atno 17395 bound_to 11000

$$$$
