AV-unprocessed.smi:160|AV-procd|sdf|1368|dock10
  -GOLD-   2262019 83D 1   1.00000     0.00000
 Structure written by MMmdl.
 28 29  0  0  0  0  0  0  0  0  2 V2000
  152.2774  137.1180  153.7757 N   0  5  0  0  0  0  0  0  0  0  0  0
  152.4617  138.2538  154.4839 C   0  0  0  0  0  0  0  0  0  0  0  0
  153.5137  138.6242  155.0039 O   0  0  0  0  0  0  0  0  0  0  0  0
  151.2276  139.1142  154.6198 C   0  0  0  0  0  0  0  0  0  0  0  0
  151.2990  140.3479  155.2055 N   0  0  0  0  0  0  0  0  0  0  0  0
  150.0252  140.7043  155.1066 C   0  0  0  0  0  0  0  0  0  0  0  0
  149.2469  139.7974  154.5053 N   0  0  0  0  0  0  0  0  0  0  0  0
  147.7726  139.7774  154.2368 C   0  0  1  0  0  0  0  0  0  0  0  0
  147.0973  139.9991  155.4353 O   0  0  0  0  0  0  0  0  0  0  0  0
  146.9255  141.3975  155.6220 C   0  0  2  0  0  0  0  0  0  0  0  0
  145.7962  141.6550  156.6316 C   0  0  0  0  0  0  0  0  0  0  0  0
  144.6114  141.0112  156.2136 O   0  0  0  0  0  0  0  0  0  0  0  0
  146.5975  141.8790  154.2034 C   0  0  1  0  0  0  0  0  0  0  0  0
  147.0398  143.2099  154.0280 O   0  0  0  0  0  0  0  0  0  0  0  0
  147.3775  140.9286  153.2928 C   0  0  2  0  0  0  0  0  0  0  0  0
  146.5594  140.4705  152.2355 O   0  0  0  0  0  0  0  0  0  0  0  0
  150.0203  138.7288  154.1945 N   0  0  0  0  0  0  0  0  0  0  0  0
  147.5862  138.7765  153.8450 H   0  0  0  0  0  0  0  0  0  0  0  0
  147.8634  141.8424  155.9610 H   0  0  0  0  0  0  0  0  0  0  0  0
  145.5245  141.8086  154.0158 H   0  0  0  0  0  0  0  0  0  0  0  0
  148.2677  141.4008  152.8737 H   0  0  0  0  0  0  0  0  0  0  0  0
  151.8860  137.1910  152.8292 H   0  0  0  0  0  0  0  0  0  0  0  0
  149.6541  141.6459  155.4836 H   0  0  0  0  0  0  0  0  0  0  0  0
  146.0644  141.2436  157.6053 H   0  0  0  0  0  0  0  0  0  0  0  0
  145.6217  142.7227  156.7677 H   0  0  0  0  0  0  0  0  0  0  0  0
  144.7620  140.0782  156.2099 H   0  0  0  0  0  0  0  0  0  0  0  0
  147.4768  143.4852  154.8195 H   0  0  0  0  0  0  0  0  0  0  0  0
  145.6603  140.6719  152.4471 H   0  0  0  0  0  0  0  0  0  0  0  0
  1  2  1  0  0  0  0
  1 22  1  0  0  0  0
  2  3  2  0  0  0  0
  2  4  1  0  0  0  0
  4 17  2  0  0  0  0
  4  5  1  0  0  0  0
  5  6  2  0  0  0  0
  6  7  1  0  0  0  0
  6 23  1  0  0  0  0
  7  8  1  0  0  0  0
  7 17  1  0  0  0  0
  8 18  1  0  0  0  0
  8 15  1  0  0  0  0
  8  9  1  0  0  0  0
  9 10  1  0  0  0  0
 10 19  1  0  0  0  0
 10 11  1  0  0  0  0
 10 13  1  0  0  0  0
 11 12  1  0  0  0  0
 11 24  1  0  0  0  0
 11 25  1  0  0  0  0
 12 26  1  0  0  0  0
 13 20  1  0  0  0  0
 13 14  1  0  0  0  0
 13 15  1  0  0  0  0
 14 27  1  0  0  0  0
 15 21  1  0  0  0  0
 15 16  1  0  0  0  0
 16 28  1  0  0  0  0
M  CHG  1   1  -1
M  END
> <s_m_source_file>
AV-unprocessed.smi

> <i_m_source_file_index>
160

> <i_lp_mmshare_version>
43012

> <i_f3d_flags>
0

> <s_epik_input>
W05IMl1DKD1PKWMxbltjSF1uKG4xKVtDQEBIXTJPW0NASF0oW0NIMl1bT0hdKVtDQEBIXShbT0hdKVtDQEhdMltPSF0=

> <s_epik_cmdline>
J2VwaWtfcHl0aG9uJywgJy1waCcsICc3LjAnLCAnLXRuJywgJzgnLCAnLW1hJywgJzIwMCcsICctbWV0YWxfYmluZGluZycsICctaW1hZScsICc8aW5maWxlLm1hZT4nLCAnLW9tYWUnLCAnPG91dGZpbGUubWFlPic=

> <r_lp_tautomer_probability>
1

> <r_epik_Ionization_Penalty>
6.6993

> <r_epik_Ionization_Penalty_Charging>
6.6993

> <r_epik_Ionization_Penalty_Neutral>
6.01698e-06

> <r_epik_State_Penalty>
6.69929

> <r_epik_Charging_Adjusted_Penalty>
13.3986

> <i_epik_Tot_Q>
-1

> <i_epik_Tot_abs_Q>
1

> <r_epik_Metal_State_Penalty>
2.62798

> <b_epik_Metal_Only>
1

> <s_epik_Chemistry_Notes>
This compound contains an acetal/aminal-like group ( X-CH(R)-Y where X, Y are N, S, or O) that may be acid/base labile, releasing an aldehyde.

> <s_lp_Force_Field>
OPLS_2005

> <r_lp_Energy>
37.5232

> <b_lp_Chiralities_Consistent>
1

> <s_lp_Variant>
AV-unprocessed.smi:160-26

> <Gold.Version>
5.8.1

> <Gold.Id.Protein>
6NUR|6NUR_protein|mol2

> <Gold.PLP.Fitness>
46.3207

> <Gold.PLP.PLP>
-28.0365

> <Gold.PLP.part.hbond>
-6.9026

> <Gold.PLP.part.metal>
0.0000

> <Gold.PLP.part.buried>
-2.4733

> <Gold.PLP.part.nonpolar>
-18.9623

> <Gold.PLP.part.repulsive>
0.2550

> <Gold.PLP.ligand.clash>
0.0000

> <Gold.PLP.ligand.torsion>
0.0558

> <Gold.PLP.Chemscore.Hbond>
6.1181

> <Gold.PLP.Chemscore.CHOScore>
0.0000

> <Gold.PLP.Chemscore.Metal>
0.0000

> <Gold.Chemscore.Hbonds>
donor molecule, donor type, donor heavy atom, donor atom, acceptor molecule, acceptor atom, score
      L1  H     1    22       P1  7949  0.75
      L1  H    14    27       P1  8028  0.82
      L1  H    16    28       P1 10175  1.00
      P1  H  7989  7998       L1     5  0.09
      P1  H  7997  8009       L1     3  0.91
      P1  H 10752 10765       L1     1  1.98

> <Gold.PLP.Chemscore.Internal.Correction>
0.0415

> <Gold.Rescore>
     Score         DG    S(hbond)    S(metal)    S(lipo)     H(rot)  DE(clash)    DE(int)     intcor
      5.56      -5.66       2.53        0.00      17.74       4.04       0.03       0.06       ----

> <Gold.Chemscore.Fitness>
5.5642

> <Gold.Chemscore.DG>
-5.6566

> <Gold.Chemscore.ZeroCoef>
-5.4800

> <Gold.Chemscore.Hbond>
2.5282

> <Gold.Chemscore.Metal>
0.0000

> <Gold.Chemscore.Lipo>
17.7375

> <Gold.Chemscore.Internal_Hbond>
0.0000

> <Gold.Chemscore.DEClash>
0.0275

> <Gold.Chemscore.DEInternal>
0.0649

> <Gold.Chemscore.Rot>
4.0403

> <Gold.Chemscore.Internal.Correction>
   9.000000E+99

> <Gold.Chemscore.Hbonds>
donor molecule, donor type, donor heavy atom, donor atom, acceptor molecule, acceptor atom, score
      L1  H     1    22       P1  7949  0.75
      L1  H    14    27       P1  8028  0.15
      L1  H    16    28       P1 10175  0.25
      P1  H  7997  8009       L1     3  0.84
      P1  H 10752 10765       L1     1  0.76

> <Gold.Chemscore.Hbond.Weighted>
-8.4443

> <Gold.Chemscore.Metal.Weighted>
-0.0000

> <Gold.Chemscore.Lipo.Weighted>
-2.0753

> <Gold.Chemscore.Internal_Hbond.Weighted>
0.0000

> <Gold.Chemscore.DEClash.Weighted>
0.0275

> <Gold.Chemscore.DEInternal.Weighted>
0.0649

> <Gold.Chemscore.Rot.Weighted>
10.3431

> <Gold.Chemscore.Internal.Correction.Weighted>
   9.000000E+99

> <Gold.Protein.RotatedTorsions>
[ 6907 6896 6895 6894 ] final   36.31 input  -60.11 | X-H torsion
[ 7974 7965 7964 7962 ] final -114.22 input  175.53 | X-H torsion
[ 8008 7997 7996 7995 ] final -139.88 input   59.86 | X-H torsion
[ 10167 10162 10161 10158 ] final -169.67 input  -65.29 | X-H torsion
[ 10718 10713 10712 10709 ] final    3.32 input   66.30 | X-H torsion
[ 10763 10752 10751 10750 ] final  144.46 input  -60.55 | X-H torsion
[ 11005 11000 10999 10996 ] final    0.17 input  -57.11 | X-H torsion

> <Gold.Protein.ActiveResidues>
 VAL166  LYS551  ARG553  GLY616  TRP617  ASP618  TYR619  PRO620  LYS621  CYS622 
 ASP623  PHE694  ASN695  SER759  ASP760  ASP761  ALA762  ILE779  LEU786  VAL792 
 PHE793  MET794  SER795  GLU796  ALA797  LYS798  CYS799  TRP800  GLU811  SER814 

> <Gold.Protein.RotatedAtoms>
  152.1279  134.9156  160.0559 H   0  0  0  0  0  0  0  0  0  0  0  0  # atno 6907 bound_to 6896
  152.0272  133.3917  159.4290 H   0  0  0  0  0  0  0  0  0  0  0  0  # atno 6908 bound_to 6896
  150.6854  134.3482  159.4941 H   0  0  0  0  0  0  0  0  0  0  0  0  # atno 6909 bound_to 6896
  145.1227  140.8678  143.3804 H   0  0  0  0  0  0  0  0  0  0  0  0  # atno 7974 bound_to 7965
  155.4521  140.0539  157.3000 H   0  0  0  0  0  0  0  0  0  0  0  0  # atno 8008 bound_to 7997
  154.4772  140.2066  155.9804 H   0  0  0  0  0  0  0  0  0  0  0  0  # atno 8009 bound_to 7997
  156.1151  140.3197  155.8132 H   0  0  0  0  0  0  0  0  0  0  0  0  # atno 8010 bound_to 7997
  139.5908  144.1217  152.1632 H   0  0  0  0  0  0  0  0  0  0  0  0  # atno 10167 bound_to 10162
  156.8761  130.5637  149.5655 H   0  0  0  0  0  0  0  0  0  0  0  0  # atno 10718 bound_to 10713
  153.9893  135.2934  155.3413 H   0  0  0  0  0  0  0  0  0  0  0  0  # atno 10763 bound_to 10752
  154.7224  135.5103  153.8836 H   0  0  0  0  0  0  0  0  0  0  0  0  # atno 10764 bound_to 10752
  153.0817  135.6681  154.0147 H   0  0  0  0  0  0  0  0  0  0  0  0  # atno 10765 bound_to 10752
  140.6296  133.9587  155.8267 H   0  0  0  0  0  0  0  0  0  0  0  0  # atno 11005 bound_to 11000
  145.0722  139.3022  143.5826 LP  0  0  0  0  0  0  0  0  0  0  0  0  # atno 17320 bound_to 7965
  146.3520  140.0201  142.8659 LP  0  0  0  0  0  0  0  0  0  0  0  0  # atno 17321 bound_to 7965
  140.0791  144.5715  150.7135 LP  0  0  0  0  0  0  0  0  0  0  0  0  # atno 17342 bound_to 10162
  140.7171  143.2554  151.4398 LP  0  0  0  0  0  0  0  0  0  0  0  0  # atno 17343 bound_to 10162
  156.0701  130.5736  150.9366 LP  0  0  0  0  0  0  0  0  0  0  0  0  # atno 17370 bound_to 10713
  157.6167  131.0933  150.8697 LP  0  0  0  0  0  0  0  0  0  0  0  0  # atno 17371 bound_to 10713
  141.0685  134.0241  157.3560 LP  0  0  0  0  0  0  0  0  0  0  0  0  # atno 17394 bound_to 11000
  139.9121  135.0192  156.7735 LP  0  0  0  0  0  0  0  0  0  0  0  0  # atno 17395 bound_to 11000

$$$$
