AV-unprocessed.smi:517|AV-procd|sdf|2791|dock3
  -GOLD-   2262023263D 1   1.00000     0.00000
 Structure written by MMmdl.
 36 37  0  0  0  0  0  0  0  0  2 V2000
  150.4307  135.4985  154.9553 C   0  0  0  0  0  0  0  0  0  0  0  0
  150.6681  137.0071  154.8607 C   0  0  0  0  0  0  0  0  0  0  0  0
  151.9833  137.2930  155.3037 O   0  0  0  0  0  0  0  0  0  0  0  0
  152.2055  138.6792  155.5089 C   0  0  0  0  0  0  0  0  0  0  0  0
  151.4242  139.1439  156.7457 C   0  0  0  0  0  0  0  0  0  0  0  0
  151.0672  140.5688  156.6689 N   0  0  0  0  0  0  0  0  0  0  0  0
  150.2022  141.2282  155.8422 C   0  0  0  0  0  0  0  0  0  0  0  0
  149.3685  140.6442  154.7428 C   0  0  1  0  0  0  0  0  0  0  0  0
  148.4948  141.7161  154.0769 C   0  0  0  0  0  0  0  0  0  0  0  0
  150.1670  140.0328  153.7524 O   0  0  0  0  0  0  0  0  0  0  0  0
  150.2425  142.5463  156.1912 N   0  3  0  0  0  0  0  0  0  0  0  0
  151.1182  142.7286  157.2613 C   0  0  0  0  0  0  0  0  0  0  0  0
  151.4750  143.8767  157.9618 C   0  0  0  0  0  0  0  0  0  0  0  0
  152.3991  143.7137  159.0146 C   0  0  0  0  0  0  0  0  0  0  0  0
  152.9311  142.4476  159.3349 C   0  0  0  0  0  0  0  0  0  0  0  0
  152.5628  141.2913  158.6160 C   0  0  0  0  0  0  0  0  0  0  0  0
  151.6493  141.4616  157.5759 C   0  0  0  0  0  0  0  0  0  0  0  0
  149.4249  135.2413  154.6221 H   0  0  0  0  0  0  0  0  0  0  0  0
  150.5435  135.1478  155.9814 H   0  0  0  0  0  0  0  0  0  0  0  0
  151.1387  134.9507  154.3330 H   0  0  0  0  0  0  0  0  0  0  0  0
  150.5377  137.3385  153.8295 H   0  0  0  0  0  0  0  0  0  0  0  0
  149.9395  137.5390  155.4743 H   0  0  0  0  0  0  0  0  0  0  0  0
  153.2707  138.8689  155.6501 H   0  0  0  0  0  0  0  0  0  0  0  0
  151.8861  139.2452  154.6327 H   0  0  0  0  0  0  0  0  0  0  0  0
  150.5167  138.5548  156.8798 H   0  0  0  0  0  0  0  0  0  0  0  0
  152.0175  138.9911  157.6467 H   0  0  0  0  0  0  0  0  0  0  0  0
  148.7130  139.8774  155.1534 H   0  0  0  0  0  0  0  0  0  0  0  0
  147.8379  142.1909  154.8058 H   0  0  0  0  0  0  0  0  0  0  0  0
  147.8634  141.2808  153.3015 H   0  0  0  0  0  0  0  0  0  0  0  0
  149.0980  142.4971  153.6128 H   0  0  0  0  0  0  0  0  0  0  0  0
  149.7433  140.1438  152.9149 H   0  0  0  0  0  0  0  0  0  0  0  0
  151.0669  144.8471  157.7195 H   0  0  0  0  0  0  0  0  0  0  0  0
  152.7046  144.5762  159.5890 H   0  0  0  0  0  0  0  0  0  0  0  0
  153.6358  142.3609  160.1494 H   0  0  0  0  0  0  0  0  0  0  0  0
  152.9744  140.3263  158.8717 H   0  0  0  0  0  0  0  0  0  0  0  0
  149.7005  143.2650  155.7290 H   0  0  0  0  0  0  0  0  0  0  0  0
  1  2  1  0  0  0  0
  1 18  1  0  0  0  0
  1 19  1  0  0  0  0
  1 20  1  0  0  0  0
  2  3  1  0  0  0  0
  2 21  1  0  0  0  0
  2 22  1  0  0  0  0
  3  4  1  0  0  0  0
  4  5  1  0  0  0  0
  4 23  1  0  0  0  0
  4 24  1  0  0  0  0
  5  6  1  0  0  0  0
  5 25  1  0  0  0  0
  5 26  1  0  0  0  0
  6 17  1  0  0  0  0
  6  7  1  0  0  0  0
  7  8  1  0  0  0  0
  7 11  2  0  0  0  0
  8  9  1  0  0  0  0
  8 10  1  0  0  0  0
  8 27  1  0  0  0  0
  9 28  1  0  0  0  0
  9 29  1  0  0  0  0
  9 30  1  0  0  0  0
 10 31  1  0  0  0  0
 11 12  1  0  0  0  0
 11 36  1  0  0  0  0
 12 17  2  0  0  0  0
 12 13  1  0  0  0  0
 13 14  2  0  0  0  0
 13 32  1  0  0  0  0
 14 15  1  0  0  0  0
 14 33  1  0  0  0  0
 15 16  2  0  0  0  0
 15 34  1  0  0  0  0
 16 17  1  0  0  0  0
 16 35  1  0  0  0  0
M  CHG  1  11   1
M  END
> <s_m_source_file>
AV-unprocessed.smi

> <i_m_source_file_index>
517

> <i_lp_mmshare_version>
43012

> <i_f3d_flags>
0

> <s_epik_input>
W0NIM11bQ0gyXU9bQ0gyXVtDSDJdbihjKG4xKVtDQEhdKFtDSDNdKVtPSF0pYyhjMTIpW2NIXVtjSF1bY0hdW2NIXTI=

> <s_epik_cmdline>
J2VwaWtfcHl0aG9uJywgJy1waCcsICc3LjAnLCAnLXRuJywgJzgnLCAnLW1hJywgJzIwMCcsICctbWV0YWxfYmluZGluZycsICctaW1hZScsICc8aW5maWxlLm1hZT4nLCAnLW9tYWUnLCAnPG91dGZpbGUubWFlPic=

> <r_epik_Ionization_Penalty>
1.46962

> <r_epik_Ionization_Penalty_Charging>
1.46959

> <r_epik_Ionization_Penalty_Neutral>
2.92192e-05

> <r_epik_State_Penalty>
1.55729

> <r_epik_Charging_Adjusted_Penalty>
3.02688

> <i_epik_Tot_Q>
1

> <i_epik_Tot_abs_Q>
1

> <r_epik_Metal_State_Penalty>
5.60569

> <b_epik_Metal_Only>
0

> <s_lp_Force_Field>
OPLS_2005

> <r_lp_Energy>
10.1165

> <b_lp_Chiralities_Consistent>
1

> <s_lp_Variant>
AV-unprocessed.smi:517-4

> <Gold.Version>
5.8.1

> <Gold.Id.Protein>
6NUR|6NUR_protein|mol2

> <Gold.PLP.Fitness>
53.1747

> <Gold.PLP.PLP>
-39.7843

> <Gold.PLP.part.hbond>
-4.0000

> <Gold.PLP.part.metal>
0.0000

> <Gold.PLP.part.buried>
-4.2555

> <Gold.PLP.part.nonpolar>
-32.3923

> <Gold.PLP.part.repulsive>
0.1569

> <Gold.PLP.ligand.clash>
0.0000

> <Gold.PLP.ligand.torsion>
0.2845

> <Gold.PLP.Chemscore.Hbond>
4.6413

> <Gold.PLP.Chemscore.CHOScore>
0.0000

> <Gold.PLP.Chemscore.Metal>
0.0000

> <Gold.Chemscore.Hbonds>
donor molecule, donor type, donor heavy atom, donor atom, acceptor molecule, acceptor atom, score
      L1  H    10    31       P1  7957  1.00
      L1  H    11    36       P1  8028  2.00
      P1  H  7989  7998       L1    10  0.83
      P1  H 10752 10764       L1     3  0.66

> <Gold.PLP.Chemscore.Internal.Correction>
0.0355

> <Gold.Rescore>
     Score         DG    S(hbond)    S(metal)    S(lipo)     H(rot)  DE(clash)    DE(int)     intcor
     21.41     -21.95       3.19        0.00      97.50       2.18       0.05       0.49       ----

> <Gold.Chemscore.Fitness>
21.4147

> <Gold.Chemscore.DG>
-21.9481

> <Gold.Chemscore.ZeroCoef>
-5.4800

> <Gold.Chemscore.Hbond>
3.1858

> <Gold.Chemscore.Metal>
0.0000

> <Gold.Chemscore.Lipo>
97.5002

> <Gold.Chemscore.Internal_Hbond>
0.0000

> <Gold.Chemscore.DEClash>
0.0467

> <Gold.Chemscore.DEInternal>
0.4868

> <Gold.Chemscore.Rot>
2.1797

> <Gold.Chemscore.Internal.Correction>
   9.000000E+99

> <Gold.Chemscore.Hbonds>
donor molecule, donor type, donor heavy atom, donor atom, acceptor molecule, acceptor atom, score
      L1  H    10    31       P1  7957  0.98
      L1  H    11    36       P1  8028  0.97
      P1  H  7989  7998       L1    10  0.18
      P1  H 10752 10764       L1     3  0.32

> <Gold.Chemscore.Hbond.Weighted>
-10.6407

> <Gold.Chemscore.Metal.Weighted>
-0.0000

> <Gold.Chemscore.Lipo.Weighted>
-11.4075

> <Gold.Chemscore.Internal_Hbond.Weighted>
0.0000

> <Gold.Chemscore.DEClash.Weighted>
0.0467

> <Gold.Chemscore.DEInternal.Weighted>
0.4868

> <Gold.Chemscore.Rot.Weighted>
5.5801

> <Gold.Chemscore.Internal.Correction.Weighted>
   9.000000E+99

> <Gold.Protein.RotatedTorsions>
[ 6907 6896 6895 6894 ] final  -89.55 input  -60.11 | X-H torsion
[ 7974 7965 7964 7962 ] final    5.13 input  175.53 | X-H torsion
[ 8008 7997 7996 7995 ] final -102.44 input   59.86 | X-H torsion
[ 10167 10162 10161 10158 ] final -108.08 input  -65.29 | X-H torsion
[ 10718 10713 10712 10709 ] final  173.93 input   66.30 | X-H torsion
[ 10763 10752 10751 10750 ] final  -38.88 input  -60.55 | X-H torsion
[ 11005 11000 10999 10996 ] final   93.76 input  -57.11 | X-H torsion

> <Gold.Protein.ActiveResidues>
 VAL166  LYS551  ARG553  GLY616  TRP617  ASP618  TYR619  PRO620  LYS621  CYS622 
 ASP623  PHE694  ASN695  SER759  ASP760  ASP761  ALA762  ILE779  LEU786  VAL792 
 PHE793  MET794  SER795  GLU796  ALA797  LYS798  CYS799  TRP800  GLU811  SER814 

> <Gold.Protein.RotatedAtoms>
  150.6874  134.2570  159.4533 H   0  0  0  0  0  0  0  0  0  0  0  0  # atno 6907 bound_to 6896
  152.0503  134.9655  160.0584 H   0  0  0  0  0  0  0  0  0  0  0  0  # atno 6908 bound_to 6896
  152.1122  133.4272  159.4673 H   0  0  0  0  0  0  0  0  0  0  0  0  # atno 6909 bound_to 6896
  146.2442  140.0430  142.8380 H   0  0  0  0  0  0  0  0  0  0  0  0  # atno 7974 bound_to 7965
  154.8567  140.0428  157.1639 H   0  0  0  0  0  0  0  0  0  0  0  0  # atno 8008 bound_to 7997
  154.8884  140.2983  155.5364 H   0  0  0  0  0  0  0  0  0  0  0  0  # atno 8009 bound_to 7997
  156.2997  140.2398  156.3897 H   0  0  0  0  0  0  0  0  0  0  0  0  # atno 8010 bound_to 7997
  140.1700  143.4051  152.1362 H   0  0  0  0  0  0  0  0  0  0  0  0  # atno 10167 bound_to 10162
  156.9570  131.0049  151.2936 H   0  0  0  0  0  0  0  0  0  0  0  0  # atno 10718 bound_to 10713
  153.9202  135.6783  153.4748 H   0  0  0  0  0  0  0  0  0  0  0  0  # atno 10763 bound_to 10752
  153.1032  135.4818  154.8902 H   0  0  0  0  0  0  0  0  0  0  0  0  # atno 10764 bound_to 10752
  154.7482  135.3178  154.8563 H   0  0  0  0  0  0  0  0  0  0  0  0  # atno 10765 bound_to 10752
  139.8806  134.8808  156.3764 H   0  0  0  0  0  0  0  0  0  0  0  0  # atno 11005 bound_to 11000
  145.1052  140.9371  143.4689 LP  0  0  0  0  0  0  0  0  0  0  0  0  # atno 17320 bound_to 7965
  145.0632  139.3089  143.5870 LP  0  0  0  0  0  0  0  0  0  0  0  0  # atno 17321 bound_to 7965
  139.5342  144.7192  151.4950 LP  0  0  0  0  0  0  0  0  0  0  0  0  # atno 17342 bound_to 10162
  140.6588  143.8542  150.6865 LP  0  0  0  0  0  0  0  0  0  0  0  0  # atno 17343 bound_to 10162
  157.5683  130.8293  149.8357 LP  0  0  0  0  0  0  0  0  0  0  0  0  # atno 17370 bound_to 10713
  156.0338  130.3757  150.1615 LP  0  0  0  0  0  0  0  0  0  0  0  0  # atno 17371 bound_to 10713
  140.9429  133.7503  156.0169 LP  0  0  0  0  0  0  0  0  0  0  0  0  # atno 17394 bound_to 11000
  140.8198  134.3302  157.5385 LP  0  0  0  0  0  0  0  0  0  0  0  0  # atno 17395 bound_to 11000

$$$$
