AV-unprocessed.smi:2489|AV-procd|sdf|9806|dock4
  -GOLD-   2272013443D 1   1.00000     0.00000
 Structure written by MMmdl.
 34 35  0  0  0  0  0  0  0  0  2 V2000
  153.5143  142.2375  161.4898 C   0  0  0  0  0  0  0  0  0  0  0  0
  153.0849  141.7286  160.2354 O   0  0  0  0  0  0  0  0  0  0  0  0
  152.3127  142.5438  159.4367 C   0  0  0  0  0  0  0  0  0  0  0  0
  152.0794  143.9200  159.6861 C   0  0  0  0  0  0  0  0  0  0  0  0
  151.2611  144.6508  158.8036 C   0  0  0  0  0  0  0  0  0  0  0  0
  150.7141  144.0425  157.7301 N   0  3  0  0  0  0  0  0  0  0  0  0
  150.9120  142.7390  157.4304 C   0  0  0  0  0  0  0  0  0  0  0  0
  150.2596  142.2324  156.2744 N   0  0  0  0  0  0  0  0  0  0  0  0
  150.4707  141.0651  155.6387 C   0  0  0  0  0  0  0  0  0  0  0  0
  151.3026  140.2255  155.9846 O   0  0  0  0  0  0  0  0  0  0  0  0
  149.5867  140.8187  154.4048 C   0  0  1  0  0  0  0  0  0  0  0  0
  148.6134  139.6295  154.5430 C   0  0  0  0  0  0  0  0  0  0  0  0
  147.2344  140.2543  154.4107 C   0  0  0  0  0  0  0  0  0  0  0  0
  147.4797  141.7155  154.7710 C   0  0  2  0  0  0  0  0  0  0  0  0
  146.4392  142.6862  154.2029 C   0  0  0  0  0  0  0  0  0  0  0  0
  148.7583  141.9617  154.2032 O   0  0  0  0  0  0  0  0  0  0  0  0
  151.7152  141.9586  158.2995 C   0  0  0  0  0  0  0  0  0  0  0  0
  154.1125  141.4817  161.9985 H   0  0  0  0  0  0  0  0  0  0  0  0
  152.6671  142.4760  162.1341 H   0  0  0  0  0  0  0  0  0  0  0  0
  154.1379  143.1245  161.3686 H   0  0  0  0  0  0  0  0  0  0  0  0
  152.5068  144.4279  160.5375 H   0  0  0  0  0  0  0  0  0  0  0  0
  151.0288  145.6990  158.9243 H   0  0  0  0  0  0  0  0  0  0  0  0
  149.5992  142.8582  155.8366 H   0  0  0  0  0  0  0  0  0  0  0  0
  150.2153  140.6895  153.5221 H   0  0  0  0  0  0  0  0  0  0  0  0
  148.7793  138.8810  153.7675 H   0  0  0  0  0  0  0  0  0  0  0  0
  148.7066  139.1190  155.5024 H   0  0  0  0  0  0  0  0  0  0  0  0
  146.8951  140.1729  153.3771 H   0  0  0  0  0  0  0  0  0  0  0  0
  146.4885  139.7799  155.0489 H   0  0  0  0  0  0  0  0  0  0  0  0
  147.5417  141.8271  155.8548 H   0  0  0  0  0  0  0  0  0  0  0  0
  145.4487  142.4780  154.6079 H   0  0  0  0  0  0  0  0  0  0  0  0
  146.3803  142.6128  153.1166 H   0  0  0  0  0  0  0  0  0  0  0  0
  146.6915  143.7167  154.4536 H   0  0  0  0  0  0  0  0  0  0  0  0
  151.8770  140.9064  158.1208 H   0  0  0  0  0  0  0  0  0  0  0  0
  150.1260  144.6007  157.1107 H   0  0  0  0  0  0  0  0  0  0  0  0
  1  2  1  0  0  0  0
  1 18  1  0  0  0  0
  1 19  1  0  0  0  0
  1 20  1  0  0  0  0
  2  3  1  0  0  0  0
  3 17  1  0  0  0  0
  3  4  2  0  0  0  0
  4  5  1  0  0  0  0
  4 21  1  0  0  0  0
  5  6  2  0  0  0  0
  5 22  1  0  0  0  0
  6  7  1  0  0  0  0
  6 34  1  0  0  0  0
  7  8  1  0  0  0  0
  7 17  2  0  0  0  0
  8  9  1  0  0  0  0
  8 23  1  0  0  0  0
  9 10  2  0  0  0  0
  9 11  1  0  0  0  0
 11 16  1  0  0  0  0
 11 12  1  0  0  0  0
 11 24  1  0  0  0  0
 12 13  1  0  0  0  0
 12 25  1  0  0  0  0
 12 26  1  0  0  0  0
 13 14  1  0  0  0  0
 13 27  1  0  0  0  0
 13 28  1  0  0  0  0
 14 15  1  0  0  0  0
 14 16  1  0  0  0  0
 14 29  1  0  0  0  0
 15 30  1  0  0  0  0
 15 31  1  0  0  0  0
 15 32  1  0  0  0  0
 17 33  1  0  0  0  0
M  CHG  1   6   1
M  END
> <s_m_source_file>
AV-unprocessed.smi

> <i_m_source_file_index>
2489

> <i_lp_mmshare_version>
43012

> <i_f3d_flags>
0

> <s_epik_input>
W0NIM11PYzFbY0hdW2NIXW5jKFtjSF0xKVtOSF1DKD1PKVtDQEBIXTJbQ0gyXVtDSDJdW0NASF0oTzIpW0NIM10=

> <s_epik_cmdline>
J2VwaWtfcHl0aG9uJywgJy1waCcsICc3LjAnLCAnLXRuJywgJzgnLCAnLW1hJywgJzIwMCcsICctbWV0YWxfYmluZGluZycsICctaW1hZScsICc8aW5maWxlLm1hZT4nLCAnLW9tYWUnLCAnPG91dGZpbGUubWFlPic=

> <r_epik_Ionization_Penalty>
1.58956

> <r_epik_Ionization_Penalty_Charging>
1.1784

> <r_epik_Ionization_Penalty_Neutral>
0.411158

> <r_epik_State_Penalty>
1.31089

> <r_epik_Charging_Adjusted_Penalty>
2.48928

> <i_epik_Tot_Q>
1

> <i_epik_Tot_abs_Q>
1

> <r_epik_Metal_State_Penalty>
5.00213

> <b_epik_Metal_Only>
0

> <s_lp_Force_Field>
OPLS_2005

> <r_lp_Energy>
33.2408

> <b_lp_Chiralities_Consistent>
1

> <s_lp_Variant>
AV-unprocessed.smi:2489-12

> <Gold.Version>
5.8.1

> <Gold.Id.Protein>
6NUR|6NUR_protein|mol2

> <Gold.PLP.Fitness>
48.8433

> <Gold.PLP.PLP>
-39.2874

> <Gold.PLP.part.hbond>
-3.0000

> <Gold.PLP.part.metal>
0.0000

> <Gold.PLP.part.buried>
-5.2752

> <Gold.PLP.part.nonpolar>
-32.0939

> <Gold.PLP.part.repulsive>
0.4404

> <Gold.PLP.ligand.clash>
0.0000

> <Gold.PLP.ligand.torsion>
0.1616

> <Gold.PLP.Chemscore.Hbond>
3.2897

> <Gold.PLP.Chemscore.CHOScore>
0.0000

> <Gold.PLP.Chemscore.Metal>
0.0000

> <Gold.Chemscore.Hbonds>
donor molecule, donor type, donor heavy atom, donor atom, acceptor molecule, acceptor atom, score
      L1  H     6    34       P1  8028  2.00
      L1  H     8    23       P1  8028  0.96
      P1  H  8011  8017       L1    16  0.15

> <Gold.PLP.Chemscore.Internal.Correction>
0.0103

> <Gold.Rescore>
     Score         DG    S(hbond)    S(metal)    S(lipo)     H(rot)  DE(clash)    DE(int)     intcor
     17.04     -18.69       1.84        0.00      87.53       1.24       0.08       1.56       ----

> <Gold.Chemscore.Fitness>
17.0410

> <Gold.Chemscore.DG>
-18.6894

> <Gold.Chemscore.ZeroCoef>
-5.4800

> <Gold.Chemscore.Hbond>
1.8398

> <Gold.Chemscore.Metal>
0.0000

> <Gold.Chemscore.Lipo>
87.5300

> <Gold.Chemscore.Internal_Hbond>
0.0000

> <Gold.Chemscore.DEClash>
0.0843

> <Gold.Chemscore.DEInternal>
1.5640

> <Gold.Chemscore.Rot>
1.2409

> <Gold.Chemscore.Internal.Correction>
   9.000000E+99

> <Gold.Chemscore.Hbonds>
donor molecule, donor type, donor heavy atom, donor atom, acceptor molecule, acceptor atom, score
      L1  H     6    34       P1  8028  0.43
      L1  H     8    23       P1  8028  0.89
      P1  H  8011  8017       L1    16  0.01

> <Gold.Chemscore.Hbond.Weighted>
-6.1451

> <Gold.Chemscore.Metal.Weighted>
-0.0000

> <Gold.Chemscore.Lipo.Weighted>
-10.2410

> <Gold.Chemscore.Internal_Hbond.Weighted>
0.0000

> <Gold.Chemscore.DEClash.Weighted>
0.0843

> <Gold.Chemscore.DEInternal.Weighted>
1.5640

> <Gold.Chemscore.Rot.Weighted>
3.1767

> <Gold.Chemscore.Internal.Correction.Weighted>
   9.000000E+99

> <Gold.Protein.RotatedTorsions>
[ 6907 6896 6895 6894 ] final  -85.07 input  -60.11 | X-H torsion
[ 7974 7965 7964 7962 ] final  -16.05 input  175.53 | X-H torsion
[ 8008 7997 7996 7995 ] final   53.44 input   59.86 | X-H torsion
[ 10167 10162 10161 10158 ] final  162.59 input  -65.29 | X-H torsion
[ 10718 10713 10712 10709 ] final  140.13 input   66.30 | X-H torsion
[ 10763 10752 10751 10750 ] final   79.29 input  -60.55 | X-H torsion
[ 11005 11000 10999 10996 ] final   41.89 input  -57.11 | X-H torsion

> <Gold.Protein.ActiveResidues>
 VAL166  LYS551  ARG553  GLY616  TRP617  ASP618  TYR619  PRO620  LYS621  CYS622 
 ASP623  PHE694  ASN695  SER759  ASP760  ASP761  ALA762  ILE779  LEU786  VAL792 
 PHE793  MET794  SER795  GLU796  ALA797  LYS798  CYS799  TRP800  GLU811  SER814 

> <Gold.Protein.RotatedAtoms>
  150.6872  134.3260  159.4806 H   0  0  0  0  0  0  0  0  0  0  0  0  # atno 6907 bound_to 6896
  152.1130  134.9258  160.0575 H   0  0  0  0  0  0  0  0  0  0  0  0  # atno 6908 bound_to 6896
  152.0493  133.3977  159.4407 H   0  0  0  0  0  0  0  0  0  0  0  0  # atno 6909 bound_to 6896
  146.2005  140.3580  142.8425 H   0  0  0  0  0  0  0  0  0  0  0  0  # atno 7974 bound_to 7965
  155.4682  140.3464  155.4322 H   0  0  0  0  0  0  0  0  0  0  0  0  # atno 8008 bound_to 7997
  156.1117  140.1463  156.9358 H   0  0  0  0  0  0  0  0  0  0  0  0  # atno 8009 bound_to 7997
  154.4761  140.0884  156.7244 H   0  0  0  0  0  0  0  0  0  0  0  0  # atno 8010 bound_to 7997
  139.4862  144.4422  151.8937 H   0  0  0  0  0  0  0  0  0  0  0  0  # atno 10167 bound_to 10162
  157.4067  131.1023  151.0497 H   0  0  0  0  0  0  0  0  0  0  0  0  # atno 10718 bound_to 10713
  153.0941  135.4845  154.8744 H   0  0  0  0  0  0  0  0  0  0  0  0  # atno 10763 bound_to 10752
  154.7303  135.3059  154.8904 H   0  0  0  0  0  0  0  0  0  0  0  0  # atno 10764 bound_to 10752
  153.9542  135.6820  153.4797 H   0  0  0  0  0  0  0  0  0  0  0  0  # atno 10765 bound_to 10752
  140.1791  134.4126  155.8210 H   0  0  0  0  0  0  0  0  0  0  0  0  # atno 11005 bound_to 11000
  144.8673  140.7223  143.6069 LP  0  0  0  0  0  0  0  0  0  0  0  0  # atno 17320 bound_to 7965
  145.3500  139.1709  143.4440 LP  0  0  0  0  0  0  0  0  0  0  0  0  # atno 17321 bound_to 7965
  140.3875  144.2658  150.5902 LP  0  0  0  0  0  0  0  0  0  0  0  0  # atno 17342 bound_to 10162
  140.5177  143.2274  151.8437 LP  0  0  0  0  0  0  0  0  0  0  0  0  # atno 17343 bound_to 10162
  157.1476  130.6170  149.5573 LP  0  0  0  0  0  0  0  0  0  0  0  0  # atno 17370 bound_to 10713
  155.9838  130.4860  150.6953 LP  0  0  0  0  0  0  0  0  0  0  0  0  # atno 17371 bound_to 10713
  141.2222  133.6992  156.7899 LP  0  0  0  0  0  0  0  0  0  0  0  0  # atno 17394 bound_to 11000
  140.2288  134.8702  157.3454 LP  0  0  0  0  0  0  0  0  0  0  0  0  # atno 17395 bound_to 11000

$$$$
