AV-unprocessed.smi:2482|AV-procd|sdf|9777|dock7
  -GOLD-   2272013423D 1   1.00000     0.00000
 Structure written by MMmdl.
 35 36  0  0  0  0  0  0  0  0  2 V2000
  151.6642  143.8646  159.4070 C   0  0  0  0  0  0  0  0  0  0  0  0
  152.0813  142.4425  159.0712 C   0  0  0  0  0  0  0  0  0  0  0  0
  152.8674  141.8586  160.0022 N   0  0  0  0  0  0  0  0  0  0  0  0
  153.2829  140.5937  159.7885 C   0  0  0  0  0  0  0  0  0  0  0  0
  152.9456  139.8536  158.6403 C   0  0  0  0  0  0  0  0  0  0  0  0
  152.1353  140.4649  157.6557 C   0  0  0  0  0  0  0  0  0  0  0  0
  151.7202  139.7888  156.4773 N   0  0  0  0  0  0  0  0  0  0  0  0
  152.4323  138.9384  155.7158 C   0  0  0  0  0  0  0  0  0  0  0  0
  153.5909  138.5984  155.9570 O   0  0  0  0  0  0  0  0  0  0  0  0
  151.7094  138.3988  154.4651 C   0  0  2  0  0  0  0  0  0  0  0  0
  150.3102  139.0109  154.2159 C   0  0  0  0  0  0  0  0  0  0  0  0
  149.3320  138.5359  155.2231 N   0  3  1  0  0  0  0  0  0  0  0  0
  147.9985  139.1525  155.0583 C   0  0  0  0  0  0  0  0  0  0  0  0
  149.2802  137.0567  155.2454 C   0  0  0  0  0  0  0  0  0  0  0  0
  150.6818  136.4758  155.4932 C   0  0  0  0  0  0  0  0  0  0  0  0
  151.5932  136.9720  154.5118 O   0  0  0  0  0  0  0  0  0  0  0  0
  151.6792  141.7849  157.8809 C   0  0  0  0  0  0  0  0  0  0  0  0
  150.6666  142.5646  156.7103 Cl  0  0  0  0  0  0  0  0  0  0  0  0
  151.0536  144.3292  158.6351 H   0  0  0  0  0  0  0  0  0  0  0  0
  152.5474  144.4882  159.5476 H   0  0  0  0  0  0  0  0  0  0  0  0
  151.0916  143.8765  160.3347 H   0  0  0  0  0  0  0  0  0  0  0  0
  153.8982  140.1554  160.5602 H   0  0  0  0  0  0  0  0  0  0  0  0
  153.2969  138.8376  158.5409 H   0  0  0  0  0  0  0  0  0  0  0  0
  150.8195  140.0651  156.1131 H   0  0  0  0  0  0  0  0  0  0  0  0
  152.3457  138.6430  153.6139 H   0  0  0  0  0  0  0  0  0  0  0  0
  150.3589  140.1009  154.2305 H   0  0  0  0  0  0  0  0  0  0  0  0
  149.9630  138.7331  153.2195 H   0  0  0  0  0  0  0  0  0  0  0  0
  147.5593  138.8871  154.0958 H   0  0  0  0  0  0  0  0  0  0  0  0
  148.0691  140.2393  155.1148 H   0  0  0  0  0  0  0  0  0  0  0  0
  147.3216  138.8220  155.8470 H   0  0  0  0  0  0  0  0  0  0  0  0
  148.5981  136.7217  156.0276 H   0  0  0  0  0  0  0  0  0  0  0  0
  148.8864  136.6895  154.2964 H   0  0  0  0  0  0  0  0  0  0  0  0
  151.0254  136.7089  156.5019 H   0  0  0  0  0  0  0  0  0  0  0  0
  150.6525  135.3884  155.4215 H   0  0  0  0  0  0  0  0  0  0  0  0
  149.6773  138.8311  156.1256 H   0  0  0  0  0  0  0  0  0  0  0  0
  1  2  1  0  0  0  0
  1 19  1  0  0  0  0
  1 20  1  0  0  0  0
  1 21  1  0  0  0  0
  2 17  1  0  0  0  0
  2  3  2  0  0  0  0
  3  4  1  0  0  0  0
  4  5  2  0  0  0  0
  4 22  1  0  0  0  0
  5  6  1  0  0  0  0
  5 23  1  0  0  0  0
  6  7  1  0  0  0  0
  6 17  2  0  0  0  0
  7  8  1  0  0  0  0
  7 24  1  0  0  0  0
  8  9  2  0  0  0  0
  8 10  1  0  0  0  0
 10 16  1  0  0  0  0
 10 11  1  0  0  0  0
 10 25  1  0  0  0  0
 11 12  1  0  0  0  0
 11 26  1  0  0  0  0
 11 27  1  0  0  0  0
 12 13  1  0  0  0  0
 12 14  1  0  0  0  0
 12 35  1  0  0  0  0
 13 28  1  0  0  0  0
 13 29  1  0  0  0  0
 13 30  1  0  0  0  0
 14 15  1  0  0  0  0
 14 31  1  0  0  0  0
 14 32  1  0  0  0  0
 15 16  1  0  0  0  0
 15 33  1  0  0  0  0
 15 34  1  0  0  0  0
 17 18  1  0  0  0  0
M  CHG  1  12   1
M  END
> <s_m_source_file>
AV-unprocessed.smi

> <i_m_source_file_index>
2482

> <i_lp_mmshare_version>
43012

> <i_f3d_flags>
0

> <s_epik_input>
W0NIM11jMW5bY0hdW2NIXWMoYzFDbClbTkhdQyg9TylbQ0BASF0yW0NIMl1OKFtDSDNdKVtDSDJdW0NIMl1PMg==

> <s_epik_cmdline>
J2VwaWtfcHl0aG9uJywgJy1waCcsICc3LjAnLCAnLXRuJywgJzgnLCAnLW1hJywgJzIwMCcsICctbWV0YWxfYmluZGluZycsICctaW1hZScsICc8aW5maWxlLm1hZT4nLCAnLW9tYWUnLCAnPG91dGZpbGUubWFlPic=

> <r_epik_Ionization_Penalty>
0.314226

> <r_epik_Ionization_Penalty_Charging>
0.314023

> <r_epik_Ionization_Penalty_Neutral>
0.00020299

> <r_epik_State_Penalty>
0.308208

> <r_epik_Charging_Adjusted_Penalty>
0.62223

> <i_epik_Tot_Q>
1

> <i_epik_Tot_abs_Q>
1

> <r_epik_Metal_State_Penalty>
0.314444

> <b_epik_Metal_Only>
0

> <s_lp_Force_Field>
OPLS_2005

> <r_lp_Energy>
21.5381

> <b_lp_Chiralities_Consistent>
1

> <s_lp_Variant>
AV-unprocessed.smi:2482-3

> <Gold.Version>
5.8.1

> <Gold.Id.Protein>
6NUR|6NUR_protein|mol2

> <Gold.PLP.Fitness>
34.9445

> <Gold.PLP.PLP>
-30.2893

> <Gold.PLP.part.hbond>
-2.0000

> <Gold.PLP.part.metal>
0.0000

> <Gold.PLP.part.buried>
-4.2721

> <Gold.PLP.part.nonpolar>
-24.7624

> <Gold.PLP.part.repulsive>
0.2877

> <Gold.PLP.ligand.clash>
0.0000

> <Gold.PLP.ligand.torsion>
0.3098

> <Gold.PLP.Chemscore.Hbond>
1.7520

> <Gold.PLP.Chemscore.CHOScore>
0.0000

> <Gold.PLP.Chemscore.Metal>
0.0000

> <Gold.Chemscore.Hbonds>
donor molecule, donor type, donor heavy atom, donor atom, acceptor molecule, acceptor atom, score
      P1  H  7997  8010       L1     9  0.80
      P1  H 10752 10764       L1    16  1.00

> <Gold.PLP.Chemscore.Internal.Correction>
0.0188

> <Gold.Rescore>
     Score         DG    S(hbond)    S(metal)    S(lipo)     H(rot)  DE(clash)    DE(int)     intcor
     14.68     -17.76       1.69        0.00      78.66       1.00       0.34       2.74       ----

> <Gold.Chemscore.Fitness>
14.6812

> <Gold.Chemscore.DG>
-17.7572

> <Gold.Chemscore.ZeroCoef>
-5.4800

> <Gold.Chemscore.Hbond>
1.6867

> <Gold.Chemscore.Metal>
0.0000

> <Gold.Chemscore.Lipo>
78.6633

> <Gold.Chemscore.Internal_Hbond>
0.0000

> <Gold.Chemscore.DEClash>
0.3362

> <Gold.Chemscore.DEInternal>
2.7398

> <Gold.Chemscore.Rot>
1.0000

> <Gold.Chemscore.Internal.Correction>
   9.000000E+99

> <Gold.Chemscore.Hbonds>
donor molecule, donor type, donor heavy atom, donor atom, acceptor molecule, acceptor atom, score
      P1  H  7997  8010       L1     9  0.32
      P1  H 10752 10764       L1    16  0.76

> <Gold.Chemscore.Hbond.Weighted>
-5.6336

> <Gold.Chemscore.Metal.Weighted>
-0.0000

> <Gold.Chemscore.Lipo.Weighted>
-9.2036

> <Gold.Chemscore.Internal_Hbond.Weighted>
0.0000

> <Gold.Chemscore.DEClash.Weighted>
0.3362

> <Gold.Chemscore.DEInternal.Weighted>
2.7398

> <Gold.Chemscore.Rot.Weighted>
2.5600

> <Gold.Chemscore.Internal.Correction.Weighted>
   9.000000E+99

> <Gold.Protein.RotatedTorsions>
[ 6907 6896 6895 6894 ] final  144.19 input  -60.11 | X-H torsion
[ 7974 7965 7964 7962 ] final -127.34 input  175.53 | X-H torsion
[ 8008 7997 7996 7995 ] final   82.25 input   59.86 | X-H torsion
[ 10167 10162 10161 10158 ] final  134.77 input  -65.29 | X-H torsion
[ 10718 10713 10712 10709 ] final  115.27 input   66.30 | X-H torsion
[ 10763 10752 10751 10750 ] final  -87.16 input  -60.55 | X-H torsion
[ 11005 11000 10999 10996 ] final  -78.05 input  -57.11 | X-H torsion

> <Gold.Protein.ActiveResidues>
 VAL166  LYS551  ARG553  GLY616  TRP617  ASP618  TYR619  PRO620  LYS621  CYS622 
 ASP623  PHE694  ASN695  SER759  ASP760  ASP761  ALA762  ILE779  LEU786  VAL792 
 PHE793  MET794  SER795  GLU796  ALA797  LYS798  CYS799  TRP800  GLU811  SER814 

> <Gold.Protein.RotatedAtoms>
  152.1968  133.4812  159.5036 H   0  0  0  0  0  0  0  0  0  0  0  0  # atno 6907 bound_to 6896
  150.6961  134.1642  159.4196 H   0  0  0  0  0  0  0  0  0  0  0  0  # atno 6908 bound_to 6896
  151.9558  135.0147  160.0595 H   0  0  0  0  0  0  0  0  0  0  0  0  # atno 6909 bound_to 6896
  144.9780  140.7612  143.4629 H   0  0  0  0  0  0  0  0  0  0  0  0  # atno 7974 bound_to 7965
  155.9081  140.3429  155.6077 H   0  0  0  0  0  0  0  0  0  0  0  0  # atno 8008 bound_to 7997
  155.7421  140.0809  157.2260 H   0  0  0  0  0  0  0  0  0  0  0  0  # atno 8009 bound_to 7997
  154.4052  140.1569  156.2615 H   0  0  0  0  0  0  0  0  0  0  0  0  # atno 8010 bound_to 7997
  139.5243  144.6551  151.5187 H   0  0  0  0  0  0  0  0  0  0  0  0  # atno 10167 bound_to 10162
  157.6232  131.1010  150.7306 H   0  0  0  0  0  0  0  0  0  0  0  0  # atno 10718 bound_to 10713
  154.6306  135.5423  153.7676 H   0  0  0  0  0  0  0  0  0  0  0  0  # atno 10763 bound_to 10752
  153.0282  135.6435  154.1307 H   0  0  0  0  0  0  0  0  0  0  0  0  # atno 10764 bound_to 10752
  154.1237  135.2918  155.3182 H   0  0  0  0  0  0  0  0  0  0  0  0  # atno 10765 bound_to 10752
  141.1663  133.7047  156.7913 H   0  0  0  0  0  0  0  0  0  0  0  0  # atno 11005 bound_to 11000
  145.2462  139.2051  143.4967 LP  0  0  0  0  0  0  0  0  0  0  0  0  # atno 17320 bound_to 7965
  146.3400  140.2366  142.8594 LP  0  0  0  0  0  0  0  0  0  0  0  0  # atno 17321 bound_to 7965
  140.6372  143.8960  150.6658 LP  0  0  0  0  0  0  0  0  0  0  0  0  # atno 17342 bound_to 10162
  140.2283  143.3755  152.1587 LP  0  0  0  0  0  0  0  0  0  0  0  0  # atno 17343 bound_to 10162
  156.7660  130.4813  149.5427 LP  0  0  0  0  0  0  0  0  0  0  0  0  # atno 17370 bound_to 10713
  156.1388  130.6230  151.0438 LP  0  0  0  0  0  0  0  0  0  0  0  0  # atno 17371 bound_to 10713
  140.2323  134.8676  157.3489 LP  0  0  0  0  0  0  0  0  0  0  0  0  # atno 17394 bound_to 11000
  140.1879  134.4408  155.7733 LP  0  0  0  0  0  0  0  0  0  0  0  0  # atno 17395 bound_to 11000

$$$$
