AV-unprocessed.smi:1014|AV-procd|sdf|4433|dock1
  -GOLD-   22720 2393D 1   1.00000     0.00000
 Structure written by MMmdl.
 33 33  0  0  0  0  0  0  0  0  1 V2000
  146.8936  142.4495  154.1665 C   0  0  0  0  0  0  0  0  0  0  0  0
  147.2691  140.9692  154.0129 C   0  0  0  0  0  0  0  0  0  0  0  0
  148.7511  140.6802  154.3324 C   0  0  1  0  0  0  0  0  0  0  0  0
  149.0823  141.1700  155.6839 N   0  0  0  0  0  0  0  0  0  0  0  0
  150.5072  141.1649  155.9950 C   0  0  0  0  0  0  0  0  0  0  0  0
  150.6993  140.8276  157.4803 C   0  0  0  0  0  0  0  0  0  0  0  0
  151.3146  141.9246  158.2015 N   0  0  0  0  0  0  0  0  0  0  0  0
  150.9923  143.2645  158.1628 C   0  0  0  0  0  0  0  0  0  0  0  0
  151.8469  143.9173  159.0057 C   0  0  0  0  0  0  0  0  0  0  0  0
  151.9164  145.3833  159.3222 C   0  0  0  0  0  0  0  0  0  0  0  0
  152.6677  142.8725  159.5182 C   0  0  0  0  0  0  0  0  0  0  0  0
  152.3478  141.6829  159.0358 N   0  0  0  0  0  0  0  0  0  0  0  0
  149.0569  139.1834  154.1485 C   0  0  0  0  0  0  0  0  0  0  0  0
  148.9676  138.6888  152.9114 N   0  0  0  0  0  0  0  0  0  0  0  0
  149.3879  138.4897  155.1085 O   0  0  0  0  0  0  0  0  0  0  0  0
  145.8468  142.6119  153.9093 H   0  0  0  0  0  0  0  0  0  0  0  0
  147.4972  143.0798  153.5132 H   0  0  0  0  0  0  0  0  0  0  0  0
  147.0387  142.7921  155.1912 H   0  0  0  0  0  0  0  0  0  0  0  0
  146.6217  140.3606  154.6462 H   0  0  0  0  0  0  0  0  0  0  0  0
  147.0483  140.6733  152.9860 H   0  0  0  0  0  0  0  0  0  0  0  0
  149.3602  141.2331  153.6146 H   0  0  0  0  0  0  0  0  0  0  0  0
  148.5738  140.6658  156.3964 H   0  0  0  0  0  0  0  0  0  0  0  0
  151.0320  140.4307  155.3828 H   0  0  0  0  0  0  0  0  0  0  0  0
  150.9361  142.1441  155.7773 H   0  0  0  0  0  0  0  0  0  0  0  0
  149.7397  140.6030  157.9482 H   0  0  0  0  0  0  0  0  0  0  0  0
  151.3239  139.9402  157.5961 H   0  0  0  0  0  0  0  0  0  0  0  0
  150.1899  143.6391  157.5442 H   0  0  0  0  0  0  0  0  0  0  0  0
  152.5478  145.9170  158.6119 H   0  0  0  0  0  0  0  0  0  0  0  0
  152.3265  145.5630  160.3161 H   0  0  0  0  0  0  0  0  0  0  0  0
  150.9319  145.8507  159.2929 H   0  0  0  0  0  0  0  0  0  0  0  0
  153.4825  142.9436  160.2233 H   0  0  0  0  0  0  0  0  0  0  0  0
  149.1585  137.7116  152.7447 H   0  0  0  0  0  0  0  0  0  0  0  0
  148.7080  139.2950  152.1470 H   0  0  0  0  0  0  0  0  0  0  0  0
  1  2  1  0  0  0  0
  1 16  1  0  0  0  0
  1 17  1  0  0  0  0
  1 18  1  0  0  0  0
  2  3  1  0  0  0  0
  2 19  1  0  0  0  0
  2 20  1  0  0  0  0
  3  4  1  0  0  0  0
  3 13  1  0  0  0  0
  3 21  1  0  0  0  0
  4  5  1  0  0  0  0
  4 22  1  0  0  0  0
  5  6  1  0  0  0  0
  5 23  1  0  0  0  0
  5 24  1  0  0  0  0
  6  7  1  0  0  0  0
  6 25  1  0  0  0  0
  6 26  1  0  0  0  0
  7 12  1  0  0  0  0
  7  8  1  0  0  0  0
  8  9  2  0  0  0  0
  8 27  1  0  0  0  0
  9 10  1  0  0  0  0
  9 11  1  0  0  0  0
 10 28  1  0  0  0  0
 10 29  1  0  0  0  0
 10 30  1  0  0  0  0
 11 12  2  0  0  0  0
 11 31  1  0  0  0  0
 13 14  1  0  0  0  0
 13 15  2  0  0  0  0
 14 32  1  0  0  0  0
 14 33  1  0  0  0  0
M  END
> <s_m_source_file>
AV-unprocessed.smi

> <i_m_source_file_index>
1014

> <i_lp_mmshare_version>
43012

> <i_f3d_flags>
0

> <s_epik_input>
W0NIM11bQ0gyXVtDQEBIXShDKD1PKVtOSDJdKVtOSF1bQ0gyXVtDSDJdbjFbY0hdYyhbQ0gzXSlbY0hdbjE=

> <s_epik_cmdline>
J2VwaWtfcHl0aG9uJywgJy1waCcsICc3LjAnLCAnLXRuJywgJzgnLCAnLW1hJywgJzIwMCcsICctbWV0YWxfYmluZGluZycsICctaW1hZScsICc8aW5maWxlLm1hZT4nLCAnLW9tYWUnLCAnPG91dGZpbGUubWFlPic=

> <r_lp_tautomer_probability>
1

> <r_epik_Ionization_Penalty>
0.767127

> <r_epik_Ionization_Penalty_Charging>
0

> <r_epik_Ionization_Penalty_Neutral>
0.767127

> <r_epik_State_Penalty>
0.793761

> <r_epik_Charging_Adjusted_Penalty>
0.793761

> <i_epik_Tot_Q>
0

> <i_epik_Tot_abs_Q>
0

> <r_epik_Metal_State_Penalty>
0.79201

> <b_epik_Metal_Only>
0

> <s_lp_Force_Field>
OPLS_2005

> <r_lp_Energy>
4.41015

> <b_lp_Chiralities_Consistent>
1

> <s_lp_Variant>
AV-unprocessed.smi:1014-4

> <Gold.Version>
5.8.1

> <Gold.Id.Protein>
6NUR|6NUR_protein|mol2

> <Gold.PLP.Fitness>
41.0872

> <Gold.PLP.PLP>
-34.6655

> <Gold.PLP.part.hbond>
-1.3209

> <Gold.PLP.part.metal>
0.0000

> <Gold.PLP.part.buried>
-3.4621

> <Gold.PLP.part.nonpolar>
-29.4086

> <Gold.PLP.part.repulsive>
0.1951

> <Gold.PLP.ligand.clash>
0.0000

> <Gold.PLP.ligand.torsion>
0.8973

> <Gold.PLP.Chemscore.Hbond>
1.6240

> <Gold.PLP.Chemscore.CHOScore>
1.0000

> <Gold.PLP.Chemscore.Metal>
0.0000

> <Gold.Chemscore.Hbonds>
donor molecule, donor type, donor heavy atom, donor atom, acceptor molecule, acceptor atom, score
      L1  H    14    32       P1  7948  1.00
      L1  H    14    33       P1  7957  0.57
      L1  C     8    27       P1  8028  1.00

> <Gold.PLP.Chemscore.Internal.Correction>
0.3442

> <Gold.Rescore>
     Score         DG    S(hbond)    S(metal)    S(lipo)     H(rot)  DE(clash)    DE(int)     intcor
     13.56     -14.64       1.77        0.00      82.65       2.51       0.14       0.94       ----

> <Gold.Chemscore.Fitness>
13.5600

> <Gold.Chemscore.DG>
-14.6377

> <Gold.Chemscore.ZeroCoef>
-5.4800

> <Gold.Chemscore.Hbond>
1.7701

> <Gold.Chemscore.Metal>
0.0000

> <Gold.Chemscore.Lipo>
82.6527

> <Gold.Chemscore.Internal_Hbond>
0.0000

> <Gold.Chemscore.DEClash>
0.1378

> <Gold.Chemscore.DEInternal>
0.9400

> <Gold.Chemscore.Rot>
2.5096

> <Gold.Chemscore.Internal.Correction>
   9.000000E+99

> <Gold.Chemscore.Hbonds>
donor molecule, donor type, donor heavy atom, donor atom, acceptor molecule, acceptor atom, score
      L1  H    14    32       P1  7948  0.95
      L1  H    14    33       P1  7957  0.55

> <Gold.Chemscore.Hbond.Weighted>
-5.9120

> <Gold.Chemscore.Metal.Weighted>
-0.0000

> <Gold.Chemscore.Lipo.Weighted>
-9.6704

> <Gold.Chemscore.Internal_Hbond.Weighted>
0.0000

> <Gold.Chemscore.DEClash.Weighted>
0.1378

> <Gold.Chemscore.DEInternal.Weighted>
0.9400

> <Gold.Chemscore.Rot.Weighted>
6.4246

> <Gold.Chemscore.Internal.Correction.Weighted>
   9.000000E+99

> <Gold.Protein.RotatedTorsions>
[ 6907 6896 6895 6894 ] final  -23.06 input  -60.11 | X-H torsion
[ 7974 7965 7964 7962 ] final   44.03 input  175.53 | X-H torsion
[ 8008 7997 7996 7995 ] final -126.53 input   59.86 | X-H torsion
[ 10167 10162 10161 10158 ] final   31.89 input  -65.29 | X-H torsion
[ 10718 10713 10712 10709 ] final  -72.74 input   66.30 | X-H torsion
[ 10763 10752 10751 10750 ] final -143.47 input  -60.55 | X-H torsion
[ 11005 11000 10999 10996 ] final -150.89 input  -57.11 | X-H torsion

> <Gold.Protein.ActiveResidues>
 VAL166  LYS551  ARG553  GLY616  TRP617  ASP618  TYR619  PRO620  LYS621  CYS622 
 ASP623  PHE694  ASN695  SER759  ASP760  ASP761  ALA762  ILE779  LEU786  VAL792 
 PHE793  MET794  SER795  GLU796  ALA797  LYS798  CYS799  TRP800  GLU811  SER814 

> <Gold.Protein.RotatedAtoms>
  151.2095  135.0475  159.8905 H   0  0  0  0  0  0  0  0  0  0  0  0  # atno 6907 bound_to 6896
  152.5426  134.0760  159.8225 H   0  0  0  0  0  0  0  0  0  0  0  0  # atno 6908 bound_to 6896
  151.0912  133.5267  159.2647 H   0  0  0  0  0  0  0  0  0  0  0  0  # atno 6909 bound_to 6896
  146.0604  139.5120  142.9662 H   0  0  0  0  0  0  0  0  0  0  0  0  # atno 7974 bound_to 7965
  155.2311  140.0425  157.2962 H   0  0  0  0  0  0  0  0  0  0  0  0  # atno 8008 bound_to 7997
  154.5887  140.2421  155.7921 H   0  0  0  0  0  0  0  0  0  0  0  0  # atno 8009 bound_to 7997
  156.2244  140.2959  156.0040 H   0  0  0  0  0  0  0  0  0  0  0  0  # atno 8010 bound_to 7997
  140.4548  144.0995  150.6199 H   0  0  0  0  0  0  0  0  0  0  0  0  # atno 10167 bound_to 10162
  156.0308  130.4379  150.2639 H   0  0  0  0  0  0  0  0  0  0  0  0  # atno 10718 bound_to 10713
  154.8468  135.3467  154.6192 H   0  0  0  0  0  0  0  0  0  0  0  0  # atno 10763 bound_to 10752
  153.6801  135.6980  153.5125 H   0  0  0  0  0  0  0  0  0  0  0  0  # atno 10764 bound_to 10752
  153.2675  135.4303  155.0911 H   0  0  0  0  0  0  0  0  0  0  0  0  # atno 10765 bound_to 10752
  140.7354  134.3574  157.5158 H   0  0  0  0  0  0  0  0  0  0  0  0  # atno 11005 bound_to 11000
  145.6570  141.0249  143.1729 LP  0  0  0  0  0  0  0  0  0  0  0  0  # atno 17320 bound_to 7965
  144.7171  139.8157  143.7395 LP  0  0  0  0  0  0  0  0  0  0  0  0  # atno 17321 bound_to 7965
  140.4164  143.2632  151.9769 LP  0  0  0  0  0  0  0  0  0  0  0  0  # atno 17342 bound_to 10162
  139.4800  144.5870  151.7837 LP  0  0  0  0  0  0  0  0  0  0  0  0  # atno 17343 bound_to 10162
  157.0741  131.0125  151.3180 LP  0  0  0  0  0  0  0  0  0  0  0  0  # atno 17370 bound_to 10713
  157.4977  130.7861  149.7572 LP  0  0  0  0  0  0  0  0  0  0  0  0  # atno 17371 bound_to 10713
  139.8817  134.9046  156.2881 LP  0  0  0  0  0  0  0  0  0  0  0  0  # atno 17394 bound_to 11000
  140.9884  133.7224  156.0776 LP  0  0  0  0  0  0  0  0  0  0  0  0  # atno 17395 bound_to 11000

$$$$
