AV-unprocessed.smi:101|AV-procd|sdf|931|dock5
  -GOLD-   2262017443D 1   1.00000     0.00000
 Structure written by MMmdl.
 43 45  0  0  0  0  0  0  0  0  2 V2000
  145.3749  137.3614  158.3132 C   0  0  0  0  0  0  0  0  0  0  0  0
  146.8607  137.2207  158.5947 C   0  0  0  0  0  0  0  0  0  0  0  0
  147.7883  137.2566  157.6121 C   0  0  0  0  0  0  0  0  0  0  0  0
  149.1433  137.1434  157.8766 N   0  0  0  0  0  0  0  0  0  0  0  0
  150.1747  137.2001  156.7683 C   0  0  2  0  0  0  0  0  0  0  0  0
  150.8416  138.4305  156.8171 O   0  0  0  0  0  0  0  0  0  0  0  0
  150.7475  139.0954  155.5625 C   0  0  2  0  0  0  0  0  0  0  0  0
  150.7709  140.6197  155.7553 C   0  0  0  0  0  0  0  0  0  0  0  0
  150.8017  140.9404  157.1373 O   0  0  0  0  0  0  0  0  0  0  0  0
  151.9170  140.7393  157.8615 C   0  0  0  0  0  0  0  0  0  0  0  0
  152.7444  139.8599  157.6138 O   0  0  0  0  0  0  0  0  0  0  0  0
  152.0451  141.6966  158.9980 C   0  0  0  0  0  0  0  0  0  0  0  0
  152.8703  141.3625  160.0970 C   0  0  0  0  0  0  0  0  0  0  0  0
  153.0088  142.2465  161.1846 C   0  0  0  0  0  0  0  0  0  0  0  0
  152.3253  143.4764  161.1859 C   0  0  0  0  0  0  0  0  0  0  0  0
  151.5047  143.8223  160.0965 C   0  0  0  0  0  0  0  0  0  0  0  0
  151.3643  142.9394  159.0082 C   0  0  0  0  0  0  0  0  0  0  0  0
  149.4881  138.5258  154.9089 C   0  0  1  0  0  0  0  0  0  0  0  0
  149.4878  138.6501  153.4993 O   0  0  0  0  0  0  0  0  0  0  0  0
  149.4981  137.0807  155.3883 C   0  0  1  0  0  0  0  0  0  0  0  0
  150.2352  136.2183  154.5413 O   0  0  0  0  0  0  0  0  0  0  0  0
  149.5838  136.9856  159.2167 C   0  0  0  0  0  0  0  0  0  0  0  0
  150.7951  136.8929  159.4187 O   0  0  0  0  0  0  0  0  0  0  0  0
  148.6547  136.9387  160.2131 N   0  5  0  0  0  0  0  0  0  0  0  0
  147.3153  137.0444  159.9789 C   0  0  0  0  0  0  0  0  0  0  0  0
  146.4869  136.9950  160.8875 O   0  0  0  0  0  0  0  0  0  0  0  0
  145.1855  137.5268  157.2524 H   0  0  0  0  0  0  0  0  0  0  0  0
  144.9615  138.2075  158.8631 H   0  0  0  0  0  0  0  0  0  0  0  0
  144.8428  136.4596  158.6171 H   0  0  0  0  0  0  0  0  0  0  0  0
  147.4475  137.3846  156.5966 H   0  0  0  0  0  0  0  0  0  0  0  0
  150.8772  136.3952  156.9927 H   0  0  0  0  0  0  0  0  0  0  0  0
  151.6223  138.7938  154.9838 H   0  0  0  0  0  0  0  0  0  0  0  0
  151.6380  141.0439  155.2470 H   0  0  0  0  0  0  0  0  0  0  0  0
  149.8806  141.0639  155.3088 H   0  0  0  0  0  0  0  0  0  0  0  0
  153.4042  140.4232  160.1188 H   0  0  0  0  0  0  0  0  0  0  0  0
  153.6396  141.9793  162.0197 H   0  0  0  0  0  0  0  0  0  0  0  0
  152.4298  144.1531  162.0212 H   0  0  0  0  0  0  0  0  0  0  0  0
  150.9779  144.7653  160.0964 H   0  0  0  0  0  0  0  0  0  0  0  0
  150.7232  143.2357  158.1906 H   0  0  0  0  0  0  0  0  0  0  0  0
  148.5959  139.0104  155.3061 H   0  0  0  0  0  0  0  0  0  0  0  0
  149.5011  137.7829  153.1246 H   0  0  0  0  0  0  0  0  0  0  0  0
  148.4854  136.6845  155.4713 H   0  0  0  0  0  0  0  0  0  0  0  0
  149.8785  136.2870  153.6685 H   0  0  0  0  0  0  0  0  0  0  0  0
  1  2  1  0  0  0  0
  1 27  1  0  0  0  0
  1 28  1  0  0  0  0
  1 29  1  0  0  0  0
  2 25  1  0  0  0  0
  2  3  2  0  0  0  0
  3  4  1  0  0  0  0
  3 30  1  0  0  0  0
  4  5  1  0  0  0  0
  4 22  1  0  0  0  0
  5 20  1  0  0  0  0
  5  6  1  0  0  0  0
  5 31  1  0  0  0  0
  6  7  1  0  0  0  0
  7  8  1  0  0  0  0
  7 18  1  0  0  0  0
  7 32  1  0  0  0  0
  8  9  1  0  0  0  0
  8 33  1  0  0  0  0
  8 34  1  0  0  0  0
  9 10  1  0  0  0  0
 10 11  2  0  0  0  0
 10 12  1  0  0  0  0
 12 17  1  0  0  0  0
 12 13  2  0  0  0  0
 13 14  1  0  0  0  0
 13 35  1  0  0  0  0
 14 15  2  0  0  0  0
 14 36  1  0  0  0  0
 15 16  1  0  0  0  0
 15 37  1  0  0  0  0
 16 17  2  0  0  0  0
 16 38  1  0  0  0  0
 17 39  1  0  0  0  0
 18 19  1  0  0  0  0
 18 20  1  0  0  0  0
 18 40  1  0  0  0  0
 19 41  1  0  0  0  0
 20 21  1  0  0  0  0
 20 42  1  0  0  0  0
 21 43  1  0  0  0  0
 22 23  2  0  0  0  0
 22 24  1  0  0  0  0
 24 25  1  0  0  0  0
 25 26  2  0  0  0  0
M  CHG  1  24  -1
M  END
> <s_m_source_file>
AV-unprocessed.smi

> <i_m_source_file_index>
101

> <i_lp_mmshare_version>
43012

> <i_f3d_flags>
0

> <s_epik_input>
Tz1jMVtuSF1jKD1PKW4oW2NIXWMxW0NIM10pW0NAQEhdMk9bQ0BIXShbQ0BASF0oW09IXSlbQ0BIXTJbT0hdKVtDSDJdT0MoPU8pYzNbY0hdW2NIXVtjSF1bY0hdW2NIXTM=

> <s_epik_cmdline>
J2VwaWtfcHl0aG9uJywgJy1waCcsICc3LjAnLCAnLXRuJywgJzgnLCAnLW1hJywgJzIwMCcsICctbWV0YWxfYmluZGluZycsICctaW1hZScsICc8aW5maWxlLm1hZT4nLCAnLW9tYWUnLCAnPG91dGZpbGUubWFlPic=

> <r_lp_tautomer_probability>
0.999537

> <r_epik_Ionization_Penalty>
3.21006

> <r_epik_Ionization_Penalty_Charging>
5.75142e-08

> <r_epik_Ionization_Penalty_Neutral>
3.21006

> <r_epik_State_Penalty>
3.20925

> <r_epik_Charging_Adjusted_Penalty>
3.20925

> <i_epik_Tot_Q>
-1

> <i_epik_Tot_abs_Q>
1

> <r_epik_Metal_State_Penalty>
0.119957

> <b_epik_Metal_Only>
1

> <s_epik_Chemistry_Notes>
This compound has an ester and may undergo hydrolysis at high or low pH. This compound contains an acetal/aminal-like group ( X-CH(R)-Y where X, Y are N, S, or O) that may be acid/base labile, releasing an aldehyde.

> <s_lp_Force_Field>
OPLS_2005

> <r_lp_Energy>
43.2015

> <b_lp_Chiralities_Consistent>
1

> <s_lp_Variant>
AV-unprocessed.smi:101-19

> <Gold.Version>
5.8.1

> <Gold.Id.Protein>
6NUR|6NUR_protein|mol2

> <Gold.PLP.Fitness>
51.7288

> <Gold.PLP.PLP>
-39.0133

> <Gold.PLP.part.hbond>
-7.6027

> <Gold.PLP.part.metal>
0.0000

> <Gold.PLP.part.buried>
-4.6907

> <Gold.PLP.part.nonpolar>
-27.7345

> <Gold.PLP.part.repulsive>
0.0263

> <Gold.PLP.ligand.clash>
0.0000

> <Gold.PLP.ligand.torsion>
1.6383

> <Gold.PLP.Chemscore.Hbond>
5.3120

> <Gold.PLP.Chemscore.CHOScore>
0.0000

> <Gold.PLP.Chemscore.Metal>
0.0000

> <Gold.Chemscore.Hbonds>
donor molecule, donor type, donor heavy atom, donor atom, acceptor molecule, acceptor atom, score
      L1  H    19    41       P1  7948  0.98
      L1  H    21    43       P1  7948  0.95
      P1  H  6896  6908       L1    23  1.00
      P1  H  6931  6943       L1    24  0.96
      P1  H  7997  8008       L1    11  1.00

> <Gold.PLP.Chemscore.Internal.Correction>
0.0561

> <Gold.Rescore>
     Score         DG    S(hbond)    S(metal)    S(lipo)     H(rot)  DE(clash)    DE(int)     intcor
     14.54     -20.45       4.06        0.00      83.38       3.27       1.31       4.60       ----

> <Gold.Chemscore.Fitness>
14.5424

> <Gold.Chemscore.DG>
-20.4504

> <Gold.Chemscore.ZeroCoef>
-5.4800

> <Gold.Chemscore.Hbond>
4.0642

> <Gold.Chemscore.Metal>
0.0000

> <Gold.Chemscore.Lipo>
83.3828

> <Gold.Chemscore.Internal_Hbond>
0.0000

> <Gold.Chemscore.DEClash>
1.3081

> <Gold.Chemscore.DEInternal>
4.5999

> <Gold.Chemscore.Rot>
3.2656

> <Gold.Chemscore.Internal.Correction>
   9.000000E+99

> <Gold.Chemscore.Hbonds>
donor molecule, donor type, donor heavy atom, donor atom, acceptor molecule, acceptor atom, score
      L1  H    19    41       P1  7948  0.81
      L1  H    21    43       P1  7948  0.21
      P1  H  6896  6908       L1    23  0.60
      P1  H  6931  6943       L1    24  0.23
      P1  H  7997  8008       L1    11  0.99

> <Gold.Chemscore.Hbond.Weighted>
-13.5745

> <Gold.Chemscore.Metal.Weighted>
-0.0000

> <Gold.Chemscore.Lipo.Weighted>
-9.7558

> <Gold.Chemscore.Internal_Hbond.Weighted>
0.0000

> <Gold.Chemscore.DEClash.Weighted>
1.3081

> <Gold.Chemscore.DEInternal.Weighted>
4.5999

> <Gold.Chemscore.Rot.Weighted>
8.3598

> <Gold.Chemscore.Internal.Correction.Weighted>
   9.000000E+99

> <Gold.Protein.RotatedTorsions>
[ 6907 6896 6895 6894 ] final -146.08 input  -60.11 | X-H torsion
[ 7974 7965 7964 7962 ] final -107.87 input  175.53 | X-H torsion
[ 8008 7997 7996 7995 ] final  -70.34 input   59.86 | X-H torsion
[ 10167 10162 10161 10158 ] final   23.27 input  -65.29 | X-H torsion
[ 10718 10713 10712 10709 ] final -159.23 input   66.30 | X-H torsion
[ 10763 10752 10751 10750 ] final   55.18 input  -60.55 | X-H torsion
[ 11005 11000 10999 10996 ] final  120.35 input  -57.11 | X-H torsion

> <Gold.Protein.ActiveResidues>
 VAL166  LYS551  ARG553  GLY616  TRP617  ASP618  TYR619  PRO620  LYS621  CYS622 
 ASP623  PHE694  ASN695  SER759  ASP760  ASP761  ALA762  ILE779  LEU786  VAL792 
 PHE793  MET794  SER795  GLU796  ALA797  LYS798  CYS799  TRP800  GLU811  SER814 

> <Gold.Protein.RotatedAtoms>
  151.1367  133.4999  159.2597 H   0  0  0  0  0  0  0  0  0  0  0  0  # atno 6907 bound_to 6896
  151.1699  135.0312  159.8757 H   0  0  0  0  0  0  0  0  0  0  0  0  # atno 6908 bound_to 6896
  152.5461  134.1232  159.8461 H   0  0  0  0  0  0  0  0  0  0  0  0  # atno 6909 bound_to 6896
  145.1999  140.9052  143.3375 H   0  0  0  0  0  0  0  0  0  0  0  0  # atno 7974 bound_to 7965
  154.5004  140.0836  156.7786 H   0  0  0  0  0  0  0  0  0  0  0  0  # atno 8008 bound_to 7997
  155.4016  140.3437  155.4239 H   0  0  0  0  0  0  0  0  0  0  0  0  # atno 8009 bound_to 7997
  156.1449  140.1540  156.8850 H   0  0  0  0  0  0  0  0  0  0  0  0  # atno 8010 bound_to 7997
  140.5282  143.9887  150.6451 H   0  0  0  0  0  0  0  0  0  0  0  0  # atno 10167 bound_to 10162
  156.5652  130.8664  151.2821 H   0  0  0  0  0  0  0  0  0  0  0  0  # atno 10718 bound_to 10713
  152.9813  135.5719  154.5024 H   0  0  0  0  0  0  0  0  0  0  0  0  # atno 10763 bound_to 10752
  154.4542  135.2779  155.1762 H   0  0  0  0  0  0  0  0  0  0  0  0  # atno 10764 bound_to 10752
  154.3377  135.6236  153.5635 H   0  0  0  0  0  0  0  0  0  0  0  0  # atno 10765 bound_to 10752
  139.9182  134.9634  156.7793 H   0  0  0  0  0  0  0  0  0  0  0  0  # atno 11005 bound_to 11000
  144.9957  139.3646  143.6192 LP  0  0  0  0  0  0  0  0  0  0  0  0  # atno 17320 bound_to 7965
  146.3419  139.9159  142.8773 LP  0  0  0  0  0  0  0  0  0  0  0  0  # atno 17321 bound_to 7965
  140.3254  143.3110  152.0741 LP  0  0  0  0  0  0  0  0  0  0  0  0  # atno 17342 bound_to 10162
  139.4945  144.6545  151.6602 LP  0  0  0  0  0  0  0  0  0  0  0  0  # atno 17343 bound_to 10162
  157.7360  130.9771  150.2112 LP  0  0  0  0  0  0  0  0  0  0  0  0  # atno 17370 bound_to 10713
  156.2763  130.3728  149.7980 LP  0  0  0  0  0  0  0  0  0  0  0  0  # atno 17371 bound_to 10713
  140.6557  133.9691  155.7778 LP  0  0  0  0  0  0  0  0  0  0  0  0  # atno 17394 bound_to 11000
  141.0678  134.0251  157.3569 LP  0  0  0  0  0  0  0  0  0  0  0  0  # atno 17395 bound_to 11000

$$$$
