AV-unprocessed.smi:1876|AV-procd|sdf|7620|dock3
  -GOLD-   22720 9343D 1   1.00000     0.00000
 Structure written by MMmdl.
 31 32  0  0  0  0  0  0  0  0  1 V2000
  147.3519  141.9719  154.3942 C   0  0  0  0  0  0  0  0  0  0  0  0
  147.0526  140.5227  154.2175 C   0  0  0  0  0  0  0  0  0  0  0  0
  147.3824  139.6144  153.2509 C   0  0  0  0  0  0  0  0  0  0  0  0
  146.7662  138.4199  153.7102 C   0  0  0  0  0  0  0  0  0  0  0  0
  146.8741  137.2136  152.9714 N   0  0  0  0  0  0  0  0  0  0  0  0
  145.9806  136.2116  152.9050 C   0  0  0  0  0  0  0  0  0  0  0  0
  144.8942  136.1917  153.4846 O   0  0  0  0  0  0  0  0  0  0  0  0
  146.4184  135.2180  152.1161 N   0  0  0  0  0  0  0  0  0  0  0  0
  145.6787  133.9946  151.8019 C   0  0  2  0  0  0  0  0  0  0  0  0
  146.5476  133.1457  150.8534 C   0  0  0  0  0  0  0  0  0  0  0  0
  145.7726  131.9144  150.3768 C   0  0  0  0  0  0  0  0  0  0  0  0
  144.5165  132.3414  149.6035 C   0  0  0  0  0  0  0  0  0  0  0  0
  143.8306  133.4874  150.2009 N   0  0  0  0  0  0  0  0  0  0  0  0
  144.3255  134.3283  151.1278 C   0  0  0  0  0  0  0  0  0  0  0  0
  143.6907  135.3241  151.4723 O   0  0  0  0  0  0  0  0  0  0  0  0
  146.1209  138.5838  154.8551 N   0  0  0  0  0  0  0  0  0  0  0  0
  146.3011  139.9321  155.1858 O   0  0  0  0  0  0  0  0  0  0  0  0
  147.9406  142.3535  153.5598 H   0  0  0  0  0  0  0  0  0  0  0  0
  147.9163  142.1412  155.3113 H   0  0  0  0  0  0  0  0  0  0  0  0
  146.4307  142.5521  154.4511 H   0  0  0  0  0  0  0  0  0  0  0  0
  147.9689  139.7815  152.3596 H   0  0  0  0  0  0  0  0  0  0  0  0
  147.7221  137.1023  152.4359 H   0  0  0  0  0  0  0  0  0  0  0  0
  147.3217  135.3236  151.6785 H   0  0  0  0  0  0  0  0  0  0  0  0
  145.4757  133.4245  152.7101 H   0  0  0  0  0  0  0  0  0  0  0  0
  146.8678  133.7348  149.9919 H   0  0  0  0  0  0  0  0  0  0  0  0
  147.4563  132.8295  151.3674 H   0  0  0  0  0  0  0  0  0  0  0  0
  146.4022  131.2810  149.7514 H   0  0  0  0  0  0  0  0  0  0  0  0
  145.4859  131.3120  151.2398 H   0  0  0  0  0  0  0  0  0  0  0  0
  144.7943  132.6218  148.5869 H   0  0  0  0  0  0  0  0  0  0  0  0
  143.8206  131.5064  149.5177 H   0  0  0  0  0  0  0  0  0  0  0  0
  142.9230  133.7113  149.8190 H   0  0  0  0  0  0  0  0  0  0  0  0
  1  2  1  0  0  0  0
  1 18  1  0  0  0  0
  1 19  1  0  0  0  0
  1 20  1  0  0  0  0
  2 17  1  0  0  0  0
  2  3  2  0  0  0  0
  3  4  1  0  0  0  0
  3 21  1  0  0  0  0
  4  5  1  0  0  0  0
  4 16  2  0  0  0  0
  5  6  1  0  0  0  0
  5 22  1  0  0  0  0
  6  7  2  0  0  0  0
  6  8  1  0  0  0  0
  8  9  1  0  0  0  0
  8 23  1  0  0  0  0
  9 14  1  0  0  0  0
  9 10  1  0  0  0  0
  9 24  1  0  0  0  0
 10 11  1  0  0  0  0
 10 25  1  0  0  0  0
 10 26  1  0  0  0  0
 11 12  1  0  0  0  0
 11 27  1  0  0  0  0
 11 28  1  0  0  0  0
 12 13  1  0  0  0  0
 12 29  1  0  0  0  0
 12 30  1  0  0  0  0
 13 14  1  0  0  0  0
 13 31  1  0  0  0  0
 14 15  2  0  0  0  0
 16 17  1  0  0  0  0
M  END
> <s_m_source_file>
AV-unprocessed.smi

> <i_m_source_file_index>
1876

> <i_lp_mmshare_version>
43012

> <i_f3d_flags>
0

> <s_epik_input>
W0NIM11jMVtjSF1jKG5vMSlbTkhdQyg9TylbTkhdW0NAQEhdMltDSDJdW0NIMl1bQ0gyXVtOSF1DMj1P

> <s_epik_cmdline>
J2VwaWtfcHl0aG9uJywgJy1waCcsICc3LjAnLCAnLXRuJywgJzgnLCAnLW1hJywgJzIwMCcsICctbWV0YWxfYmluZGluZycsICctaW1hZScsICc8aW5maWxlLm1hZT4nLCAnLW9tYWUnLCAnPG91dGZpbGUubWFlPic=

> <r_lp_tautomer_probability>
1

> <r_epik_Ionization_Penalty>
2.33177e-05

> <r_epik_Ionization_Penalty_Charging>
0

> <r_epik_Ionization_Penalty_Neutral>
2.33177e-05

> <r_epik_State_Penalty>
-0

> <r_epik_Charging_Adjusted_Penalty>
0

> <i_epik_Tot_Q>
0

> <i_epik_Tot_abs_Q>
0

> <r_epik_Metal_State_Penalty>
-0

> <b_epik_Metal_Only>
0

> <s_lp_Force_Field>
OPLS_2005

> <r_lp_Energy>
8.43972

> <b_lp_Chiralities_Consistent>
1

> <s_lp_Variant>
AV-unprocessed.smi:1876-1

> <Gold.Version>
5.8.1

> <Gold.Id.Protein>
6NUR|6NUR_protein|mol2

> <Gold.PLP.Fitness>
34.8544

> <Gold.PLP.PLP>
-26.6764

> <Gold.PLP.part.hbond>
-3.0000

> <Gold.PLP.part.metal>
0.0000

> <Gold.PLP.part.buried>
-4.3429

> <Gold.PLP.part.nonpolar>
-20.4630

> <Gold.PLP.part.repulsive>
0.5626

> <Gold.PLP.ligand.clash>
0.0000

> <Gold.PLP.ligand.torsion>
0.1952

> <Gold.PLP.Chemscore.Hbond>
2.8560

> <Gold.PLP.Chemscore.CHOScore>
0.0000

> <Gold.PLP.Chemscore.Metal>
0.0000

> <Gold.Chemscore.Hbonds>
donor molecule, donor type, donor heavy atom, donor atom, acceptor molecule, acceptor atom, score
      L1  H     5    22       P1  7948  1.00
      L1  H     8    23       P1  7948  0.88
      L1  H    13    31       P1 10186  0.93

> <Gold.PLP.Chemscore.Internal.Correction>
0.0003

> <Gold.Rescore>
     Score         DG    S(hbond)    S(metal)    S(lipo)     H(rot)  DE(clash)    DE(int)     intcor
     14.10     -18.27       2.81        0.00      51.13       1.00       0.02       4.16       ----

> <Gold.Chemscore.Fitness>
14.0975

> <Gold.Chemscore.DG>
-18.2717

> <Gold.Chemscore.ZeroCoef>
-5.4800

> <Gold.Chemscore.Hbond>
2.8052

> <Gold.Chemscore.Metal>
0.0000

> <Gold.Chemscore.Lipo>
51.1316

> <Gold.Chemscore.Internal_Hbond>
0.0000

> <Gold.Chemscore.DEClash>
0.0183

> <Gold.Chemscore.DEInternal>
4.1559

> <Gold.Chemscore.Rot>
1.0000

> <Gold.Chemscore.Internal.Correction>
   9.000000E+99

> <Gold.Chemscore.Hbonds>
donor molecule, donor type, donor heavy atom, donor atom, acceptor molecule, acceptor atom, score
      L1  H     5    22       P1  7948  0.96
      L1  H     8    23       P1  7948  0.83
      L1  H    13    31       P1 10186  0.88

> <Gold.Chemscore.Hbond.Weighted>
-9.3693

> <Gold.Chemscore.Metal.Weighted>
-0.0000

> <Gold.Chemscore.Lipo.Weighted>
-5.9824

> <Gold.Chemscore.Internal_Hbond.Weighted>
0.0000

> <Gold.Chemscore.DEClash.Weighted>
0.0183

> <Gold.Chemscore.DEInternal.Weighted>
4.1559

> <Gold.Chemscore.Rot.Weighted>
2.5600

> <Gold.Chemscore.Internal.Correction.Weighted>
   9.000000E+99

> <Gold.Protein.RotatedTorsions>
[ 6907 6896 6895 6894 ] final  -52.27 input  -60.11 | X-H torsion
[ 7974 7965 7964 7962 ] final   74.59 input  175.53 | X-H torsion
[ 8008 7997 7996 7995 ] final  147.73 input   59.86 | X-H torsion
[ 10167 10162 10161 10158 ] final  179.82 input  -65.29 | X-H torsion
[ 10718 10713 10712 10709 ] final  143.07 input   66.30 | X-H torsion
[ 10763 10752 10751 10750 ] final  -36.66 input  -60.55 | X-H torsion
[ 11005 11000 10999 10996 ] final  123.87 input  -57.11 | X-H torsion

> <Gold.Protein.ActiveResidues>
 VAL166  LYS551  ARG553  GLY616  TRP617  ASP618  TYR619  PRO620  LYS621  CYS622 
 ASP623  PHE694  ASN695  SER759  ASP760  ASP761  ALA762  ILE779  LEU786  VAL792 
 PHE793  MET794  SER795  GLU796  ALA797  LYS798  CYS799  TRP800  GLU811  SER814 

> <Gold.Protein.RotatedAtoms>
  150.8534  134.7865  159.7026 H   0  0  0  0  0  0  0  0  0  0  0  0  # atno 6907 bound_to 6896
  152.4592  134.5219  159.9795 H   0  0  0  0  0  0  0  0  0  0  0  0  # atno 6908 bound_to 6896
  151.5336  133.3407  159.2958 H   0  0  0  0  0  0  0  0  0  0  0  0  # atno 6909 bound_to 6896
  145.7263  139.2667  143.1567 H   0  0  0  0  0  0  0  0  0  0  0  0  # atno 7974 bound_to 7965
  156.2815  140.2147  156.5585 H   0  0  0  0  0  0  0  0  0  0  0  0  # atno 8008 bound_to 7997
  154.7232  140.0502  157.0682 H   0  0  0  0  0  0  0  0  0  0  0  0  # atno 8009 bound_to 7997
  155.0450  140.3150  155.4714 H   0  0  0  0  0  0  0  0  0  0  0  0  # atno 8010 bound_to 7997
  139.5353  144.2515  152.0781 H   0  0  0  0  0  0  0  0  0  0  0  0  # atno 10167 bound_to 10162
  157.3733  131.0982  151.0808 H   0  0  0  0  0  0  0  0  0  0  0  0  # atno 10718 bound_to 10713
  153.8833  135.6819  153.4765 H   0  0  0  0  0  0  0  0  0  0  0  0  # atno 10763 bound_to 10752
  153.1221  135.4735  154.9210 H   0  0  0  0  0  0  0  0  0  0  0  0  # atno 10764 bound_to 10752
  154.7658  135.3224  154.8241 H   0  0  0  0  0  0  0  0  0  0  0  0  # atno 10765 bound_to 10752
  139.9332  134.9641  156.8324 H   0  0  0  0  0  0  0  0  0  0  0  0  # atno 11005 bound_to 11000
  146.0579  140.8001  142.9749 LP  0  0  0  0  0  0  0  0  0  0  0  0  # atno 17320 bound_to 7965
  144.6904  140.3152  143.7241 LP  0  0  0  0  0  0  0  0  0  0  0  0  # atno 17321 bound_to 7965
  140.1985  144.4682  150.6443 LP  0  0  0  0  0  0  0  0  0  0  0  0  # atno 17342 bound_to 10162
  140.6556  143.2237  151.5976 LP  0  0  0  0  0  0  0  0  0  0  0  0  # atno 17343 bound_to 10162
  157.1904  130.6349  149.5702 LP  0  0  0  0  0  0  0  0  0  0  0  0  # atno 17370 bound_to 10713
  155.9760  130.4724  150.6497 LP  0  0  0  0  0  0  0  0  0  0  0  0  # atno 17371 bound_to 10713
  140.6145  134.0051  155.7591 LP  0  0  0  0  0  0  0  0  0  0  0  0  # atno 17394 bound_to 11000
  141.0932  133.9884  157.3202 LP  0  0  0  0  0  0  0  0  0  0  0  0  # atno 17395 bound_to 11000

$$$$
