AV-unprocessed.smi:2451|AV-procd|sdf|9677|dock1
  -GOLD-   2272013313D 1   1.00000     0.00000
 Structure written by MMmdl.
 37 38  0  0  0  0  0  0  0  0  2 V2000
  151.3186  145.5606  159.9909 C   0  0  0  0  0  0  0  0  0  0  0  0
  151.7446  144.1084  160.2758 C   0  0  2  0  0  0  0  0  0  0  0  0
  152.3574  144.0293  161.6970 C   0  0  0  0  0  0  0  0  0  0  0  0
  152.8191  142.5939  162.0142 C   0  0  0  0  0  0  0  0  0  0  0  0
  153.7772  142.0240  160.9395 C   0  0  0  0  0  0  0  0  0  0  0  0
  153.2074  142.0804  159.5021 C   0  0  1  0  0  0  0  0  0  0  0  0
  152.1137  141.1243  159.3745 N   0  5  0  0  0  0  0  0  0  0  0  0
  152.3905  139.6478  158.7633 S   0  0  0  0  0  0  0  0  0  0  0  0
  153.7169  139.5261  158.1356 O   0  0  0  0  0  0  0  0  0  0  0  0
  151.9889  138.5829  159.6966 O   0  0  0  0  0  0  0  0  0  0  0  0
  151.1573  139.6100  157.3891 C   0  0  0  0  0  0  0  0  0  0  0  0
  151.5789  138.6300  156.3275 C   0  0  0  0  0  0  0  0  0  0  0  0
  151.8342  138.8747  154.9490 C   0  0  0  0  0  0  0  0  0  0  0  0
  152.1794  137.6465  154.4646 C   0  0  0  0  0  0  0  0  0  0  0  0
  152.1313  136.7160  155.4511 O   0  0  0  0  0  0  0  0  0  0  0  0
  151.7423  137.3521  156.6354 N   0  0  0  0  0  0  0  0  0  0  0  0
  152.7161  143.5322  159.1867 C   0  0  1  0  0  0  0  0  0  0  0  0
  152.1716  143.6761  157.7428 C   0  0  0  0  0  0  0  0  0  0  0  0
  152.1851  146.2123  159.8749 H   0  0  0  0  0  0  0  0  0  0  0  0
  150.7114  145.9570  160.8051 H   0  0  0  0  0  0  0  0  0  0  0  0
  150.7154  145.6348  159.0866 H   0  0  0  0  0  0  0  0  0  0  0  0
  150.8283  143.5137  160.2781 H   0  0  0  0  0  0  0  0  0  0  0  0
  153.2085  144.7078  161.7706 H   0  0  0  0  0  0  0  0  0  0  0  0
  151.6330  144.3562  162.4434 H   0  0  0  0  0  0  0  0  0  0  0  0
  153.3174  142.5819  162.9838 H   0  0  0  0  0  0  0  0  0  0  0  0
  151.9461  141.9474  162.1242 H   0  0  0  0  0  0  0  0  0  0  0  0
  154.7056  142.5956  160.9669 H   0  0  0  0  0  0  0  0  0  0  0  0
  154.0536  141.0000  161.1942 H   0  0  0  0  0  0  0  0  0  0  0  0
  154.0213  141.8412  158.8162 H   0  0  0  0  0  0  0  0  0  0  0  0
  150.1965  139.3255  157.8181 H   0  0  0  0  0  0  0  0  0  0  0  0
  151.0501  140.6172  156.9875 H   0  0  0  0  0  0  0  0  0  0  0  0
  151.7836  139.8077  154.4074 H   0  0  0  0  0  0  0  0  0  0  0  0
  152.4695  137.2888  153.4879 H   0  0  0  0  0  0  0  0  0  0  0  0
  153.6104  144.1564  159.2209 H   0  0  0  0  0  0  0  0  0  0  0  0
  151.2083  143.1794  157.6163 H   0  0  0  0  0  0  0  0  0  0  0  0
  152.8564  143.2672  156.9967 H   0  0  0  0  0  0  0  0  0  0  0  0
  152.0327  144.7223  157.4738 H   0  0  0  0  0  0  0  0  0  0  0  0
  1  2  1  0  0  0  0
  1 19  1  0  0  0  0
  1 20  1  0  0  0  0
  1 21  1  0  0  0  0
  2 17  1  0  0  0  0
  2  3  1  0  0  0  0
  2 22  1  0  0  0  0
  3  4  1  0  0  0  0
  3 23  1  0  0  0  0
  3 24  1  0  0  0  0
  4  5  1  0  0  0  0
  4 25  1  0  0  0  0
  4 26  1  0  0  0  0
  5  6  1  0  0  0  0
  5 27  1  0  0  0  0
  5 28  1  0  0  0  0
  6  7  1  0  0  0  0
  6 17  1  0  0  0  0
  6 29  1  0  0  0  0
  7  8  1  0  0  0  0
  8  9  2  0  0  0  0
  8 10  2  0  0  0  0
  8 11  1  0  0  0  0
 11 12  1  0  0  0  0
 11 30  1  0  0  0  0
 11 31  1  0  0  0  0
 12 16  2  0  0  0  0
 12 13  1  0  0  0  0
 13 14  2  0  0  0  0
 13 32  1  0  0  0  0
 14 15  1  0  0  0  0
 14 33  1  0  0  0  0
 15 16  1  0  0  0  0
 17 18  1  0  0  0  0
 17 34  1  0  0  0  0
 18 35  1  0  0  0  0
 18 36  1  0  0  0  0
 18 37  1  0  0  0  0
M  CHG  1   7  -1
M  END
> <s_m_source_file>
AV-unprocessed.smi

> <i_m_source_file_index>
2451

> <i_lp_mmshare_version>
43012

> <i_f3d_flags>
0

> <s_epik_input>
W0NIM11bQ0BASF0xW0NIMl1bQ0gyXVtDSDJdW0NASF0oW0NASF0xW0NIM10pW05IXVMoPU8pKD1PKVtDSDJdYzJbY0hdW2NIXW9uMg==

> <s_epik_cmdline>
J2VwaWtfcHl0aG9uJywgJy1waCcsICc3LjAnLCAnLXRuJywgJzgnLCAnLW1hJywgJzIwMCcsICctbWV0YWxfYmluZGluZycsICctaW1hZScsICc8aW5maWxlLm1hZT4nLCAnLW9tYWUnLCAnPG91dGZpbGUubWFlPic=

> <r_lp_tautomer_probability>
1

> <r_epik_Ionization_Penalty>
5.22693

> <r_epik_Ionization_Penalty_Charging>
5.22693

> <r_epik_Ionization_Penalty_Neutral>
2.67702e-10

> <r_epik_State_Penalty>
5.22685

> <r_epik_Charging_Adjusted_Penalty>
10.4538

> <i_epik_Tot_Q>
-1

> <i_epik_Tot_abs_Q>
1

> <r_epik_Metal_State_Penalty>
1.28716

> <b_epik_Metal_Only>
1

> <s_lp_Force_Field>
OPLS_2005

> <r_lp_Energy>
15.2767

> <b_lp_Chiralities_Consistent>
1

> <s_lp_Variant>
AV-unprocessed.smi:2451-9

> <Gold.Version>
5.8.1

> <Gold.Id.Protein>
6NUR|6NUR_protein|mol2

> <Gold.PLP.Fitness>
50.3633

> <Gold.PLP.PLP>
-43.1156

> <Gold.PLP.part.hbond>
-1.9985

> <Gold.PLP.part.metal>
0.0000

> <Gold.PLP.part.buried>
-3.7888

> <Gold.PLP.part.nonpolar>
-36.9702

> <Gold.PLP.part.repulsive>
0.1003

> <Gold.PLP.ligand.clash>
0.0000

> <Gold.PLP.ligand.torsion>
1.3718

> <Gold.PLP.Chemscore.Hbond>
2.0000

> <Gold.PLP.Chemscore.CHOScore>
1.0000

> <Gold.PLP.Chemscore.Metal>
0.0000

> <Gold.Chemscore.Hbonds>
donor molecule, donor type, donor heavy atom, donor atom, acceptor molecule, acceptor atom, score
      P1  H  7997  8010       L1     9  0.93
      P1  H 10752 10765       L1    15  0.90
      L1  C    14    33       P1  7949  0.56

> <Gold.PLP.Chemscore.Internal.Correction>
0.9914

> <Gold.Rescore>
     Score         DG    S(hbond)    S(metal)    S(lipo)     H(rot)  DE(clash)    DE(int)     intcor
     20.60     -21.95       1.97        0.00     115.18       1.40       0.00       1.34       ----

> <Gold.Chemscore.Fitness>
20.6039

> <Gold.Chemscore.DG>
-21.9454

> <Gold.Chemscore.ZeroCoef>
-5.4800

> <Gold.Chemscore.Hbond>
1.9671

> <Gold.Chemscore.Metal>
0.0000

> <Gold.Chemscore.Lipo>
115.1752

> <Gold.Chemscore.Internal_Hbond>
0.0000

> <Gold.Chemscore.DEClash>
0.0038

> <Gold.Chemscore.DEInternal>
1.3377

> <Gold.Chemscore.Rot>
1.3986

> <Gold.Chemscore.Internal.Correction>
   9.000000E+99

> <Gold.Chemscore.Hbonds>
donor molecule, donor type, donor heavy atom, donor atom, acceptor molecule, acceptor atom, score
      P1  H  7997  8010       L1     9  0.89
      P1  H 10752 10765       L1    15  0.17

> <Gold.Chemscore.Hbond.Weighted>
-6.5703

> <Gold.Chemscore.Metal.Weighted>
-0.0000

> <Gold.Chemscore.Lipo.Weighted>
-13.4755

> <Gold.Chemscore.Internal_Hbond.Weighted>
0.0000

> <Gold.Chemscore.DEClash.Weighted>
0.0038

> <Gold.Chemscore.DEInternal.Weighted>
1.3377

> <Gold.Chemscore.Rot.Weighted>
3.5804

> <Gold.Chemscore.Internal.Correction.Weighted>
   9.000000E+99

> <Gold.Protein.RotatedTorsions>
[ 6907 6896 6895 6894 ] final   96.04 input  -60.11 | X-H torsion
[ 7974 7965 7964 7962 ] final    7.69 input  175.53 | X-H torsion
[ 8008 7997 7996 7995 ] final   20.90 input   59.86 | X-H torsion
[ 10167 10162 10161 10158 ] final  -33.81 input  -65.29 | X-H torsion
[ 10718 10713 10712 10709 ] final  -25.39 input   66.30 | X-H torsion
[ 10763 10752 10751 10750 ] final -173.35 input  -60.55 | X-H torsion
[ 11005 11000 10999 10996 ] final   31.49 input  -57.11 | X-H torsion

> <Gold.Protein.ActiveResidues>
 VAL166  LYS551  ARG553  GLY616  TRP617  ASP618  TYR619  PRO620  LYS621  CYS622 
 ASP623  PHE694  ASN695  SER759  ASP760  ASP761  ALA762  ILE779  LEU786  VAL792 
 PHE793  MET794  SER795  GLU796  ALA797  LYS798  CYS799  TRP800  GLU811  SER814 

> <Gold.Protein.RotatedAtoms>
  152.5438  134.0947  159.8291 H   0  0  0  0  0  0  0  0  0  0  0  0  # atno 6907 bound_to 6896
  151.1032  133.5220  159.2616 H   0  0  0  0  0  0  0  0  0  0  0  0  # atno 6908 bound_to 6896
  151.1967  135.0434  159.8909 H   0  0  0  0  0  0  0  0  0  0  0  0  # atno 6909 bound_to 6896
  146.2424  140.0045  142.8412 H   0  0  0  0  0  0  0  0  0  0  0  0  # atno 7974 bound_to 7965
  154.9425  140.3055  155.5114 H   0  0  0  0  0  0  0  0  0  0  0  0  # atno 8008 bound_to 7997
  156.2994  140.2334  156.4432 H   0  0  0  0  0  0  0  0  0  0  0  0  # atno 8009 bound_to 7997
  154.8132  140.0427  157.1346 H   0  0  0  0  0  0  0  0  0  0  0  0  # atno 8010 bound_to 7997
  140.7197  143.3593  151.1995 H   0  0  0  0  0  0  0  0  0  0  0  0  # atno 10167 bound_to 10162
  156.4650  130.4512  149.6905 H   0  0  0  0  0  0  0  0  0  0  0  0  # atno 10718 bound_to 10713
  154.6089  135.2862  155.0454 H   0  0  0  0  0  0  0  0  0  0  0  0  # atno 10763 bound_to 10752
  154.1691  135.6475  153.5009 H   0  0  0  0  0  0  0  0  0  0  0  0  # atno 10764 bound_to 10752
  153.0187  135.5396  154.6835 H   0  0  0  0  0  0  0  0  0  0  0  0  # atno 10765 bound_to 10752
  140.2833  134.2947  155.7795 H   0  0  0  0  0  0  0  0  0  0  0  0  # atno 11005 bound_to 11000
  145.1385  140.9558  143.4502 LP  0  0  0  0  0  0  0  0  0  0  0  0  # atno 17320 bound_to 7965
  145.0319  139.3334  143.6020 LP  0  0  0  0  0  0  0  0  0  0  0  0  # atno 17321 bound_to 7965
  139.7142  143.9328  152.2960 LP  0  0  0  0  0  0  0  0  0  0  0  0  # atno 17342 bound_to 10162
  139.9063  144.6882  150.8610 LP  0  0  0  0  0  0  0  0  0  0  0  0  # atno 17343 bound_to 10162
  156.3677  130.7514  151.2494 LP  0  0  0  0  0  0  0  0  0  0  0  0  # atno 17370 bound_to 10713
  157.7495  131.0332  150.4261 LP  0  0  0  0  0  0  0  0  0  0  0  0  # atno 17371 bound_to 10713
  141.2159  133.7539  156.9514 LP  0  0  0  0  0  0  0  0  0  0  0  0  # atno 17394 bound_to 11000
  140.1263  134.9385  157.2274 LP  0  0  0  0  0  0  0  0  0  0  0  0  # atno 17395 bound_to 11000

$$$$
