AV-unprocessed.smi:89|AV-procd|sdf|828|dock2
  -GOLD-   2262017243D 1   1.00000     0.00000
 Structure written by MMmdl.
 54 56  0  0  0  0  0  0  0  0  1 V2000
  149.0756  137.6779  157.6879 C   0  0  0  0  0  0  0  0  0  0  0  0
  149.9302  136.4614  158.0810 C   0  0  0  0  0  0  0  0  0  0  0  0
  149.1745  135.4116  158.7680 N   0  0  0  0  0  0  0  0  0  0  0  0
  148.8707  134.3258  158.0114 C   0  0  0  0  0  0  0  0  0  0  0  0
  148.9281  133.1116  158.6137 N   0  0  0  0  0  0  0  0  0  0  0  0
  148.6563  132.0016  157.9227 C   0  0  0  0  0  0  0  0  0  0  0  0
  148.3146  131.8813  156.6388 N   0  0  0  0  0  0  0  0  0  0  0  0
  148.2634  133.0981  156.0244 C   0  0  0  0  0  0  0  0  0  0  0  0
  148.5281  134.3603  156.6279 C   0  0  0  0  0  0  0  0  0  0  0  0
  148.3798  135.3712  155.6851 N   0  0  0  0  0  0  0  0  0  0  0  0
  148.0457  134.7440  154.5909 C   0  0  0  0  0  0  0  0  0  0  0  0
  147.9436  133.3764  154.7072 N   0  0  0  0  0  0  0  0  0  0  0  0
  147.5915  132.4347  153.6557 C   0  0  0  0  0  0  0  0  0  0  0  0
  146.0818  132.4142  153.3065 C   0  0  2  0  0  0  0  0  0  0  0  0
  145.3290  132.4953  154.5032 O   0  0  0  0  0  0  0  0  0  0  0  0
  145.6373  131.1822  152.5166 C   0  0  0  0  0  0  0  0  0  0  0  0
  145.6949  131.6708  151.0775 C   0  0  0  0  0  0  0  0  0  0  0  0
  145.1758  132.9847  151.1847 O   0  0  0  0  0  0  0  0  0  0  0  0
  145.7027  133.5777  152.3670 C   0  0  0  0  0  0  0  0  0  0  0  0
  148.1349  135.8631  159.7073 C   0  0  1  0  0  0  0  0  0  0  0  0
  146.8082  136.2209  159.0104 C   0  0  0  0  0  0  0  0  0  0  0  0
  147.9005  134.9007  160.8925 C   0  0  0  0  0  0  0  0  0  0  0  0
  147.2200  135.7817  162.3661 S   0  0  0  0  0  0  0  0  0  0  0  0
  147.1487  134.8475  163.4997 O   0  0  0  0  0  0  0  0  0  0  0  0
  147.9488  137.0489  162.5282 O   0  0  0  0  0  0  0  0  0  0  0  0
  145.5027  136.1622  161.8213 C   0  0  0  0  0  0  0  0  0  0  0  0
  144.4765  135.5020  162.7470 C   0  0  0  0  0  0  0  0  0  0  0  0
  149.6669  138.3903  157.1127 H   0  0  0  0  0  0  0  0  0  0  0  0
  148.6896  138.2061  158.5601 H   0  0  0  0  0  0  0  0  0  0  0  0
  148.2272  137.3779  157.0723 H   0  0  0  0  0  0  0  0  0  0  0  0
  150.3573  136.0360  157.1723 H   0  0  0  0  0  0  0  0  0  0  0  0
  150.7766  136.7805  158.6885 H   0  0  0  0  0  0  0  0  0  0  0  0
  148.7241  131.0782  158.4786 H   0  0  0  0  0  0  0  0  0  0  0  0
  147.8589  135.2654  153.6632 H   0  0  0  0  0  0  0  0  0  0  0  0
  148.1785  132.6823  152.7702 H   0  0  0  0  0  0  0  0  0  0  0  0
  147.9179  131.4415  153.9661 H   0  0  0  0  0  0  0  0  0  0  0  0
  144.4697  132.1372  154.3405 H   0  0  0  0  0  0  0  0  0  0  0  0
  146.2385  130.2901  152.6850 H   0  0  0  0  0  0  0  0  0  0  0  0
  144.6039  130.9245  152.7543 H   0  0  0  0  0  0  0  0  0  0  0  0
  146.7230  131.7036  150.7132 H   0  0  0  0  0  0  0  0  0  0  0  0
  145.1031  131.0573  150.3978 H   0  0  0  0  0  0  0  0  0  0  0  0
  144.9647  134.2544  152.7998 H   0  0  0  0  0  0  0  0  0  0  0  0
  146.5749  134.1762  152.1005 H   0  0  0  0  0  0  0  0  0  0  0  0
  148.5033  136.7934  160.1411 H   0  0  0  0  0  0  0  0  0  0  0  0
  146.1093  136.6722  159.7150 H   0  0  0  0  0  0  0  0  0  0  0  0
  146.3218  135.3398  158.5921 H   0  0  0  0  0  0  0  0  0  0  0  0
  146.9589  136.9379  158.2035 H   0  0  0  0  0  0  0  0  0  0  0  0
  147.1623  134.1479  160.6160 H   0  0  0  0  0  0  0  0  0  0  0  0
  148.8011  134.3598  161.1799 H   0  0  0  0  0  0  0  0  0  0  0  0
  145.3771  137.2450  161.8158 H   0  0  0  0  0  0  0  0  0  0  0  0
  145.3821  135.8063  160.7979 H   0  0  0  0  0  0  0  0  0  0  0  0
  143.4599  135.7283  162.4251 H   0  0  0  0  0  0  0  0  0  0  0  0
  144.5886  135.8546  163.7725 H   0  0  0  0  0  0  0  0  0  0  0  0
  144.5921  134.4179  162.7511 H   0  0  0  0  0  0  0  0  0  0  0  0
  1  2  1  0  0  0  0
  1 28  1  0  0  0  0
  1 29  1  0  0  0  0
  1 30  1  0  0  0  0
  2  3  1  0  0  0  0
  2 31  1  0  0  0  0
  2 32  1  0  0  0  0
  3  4  1  0  0  0  0
  3 20  1  0  0  0  0
  4  9  1  0  0  0  0
  4  5  2  0  0  0  0
  5  6  1  0  0  0  0
  6  7  2  0  0  0  0
  6 33  1  0  0  0  0
  7  8  1  0  0  0  0
  8 12  1  0  0  0  0
  8  9  2  0  0  0  0
  9 10  1  0  0  0  0
 10 11  2  0  0  0  0
 11 12  1  0  0  0  0
 11 34  1  0  0  0  0
 12 13  1  0  0  0  0
 13 14  1  0  0  0  0
 13 35  1  0  0  0  0
 13 36  1  0  0  0  0
 14 19  1  0  0  0  0
 14 15  1  0  0  0  0
 14 16  1  0  0  0  0
 15 37  1  0  0  0  0
 16 17  1  0  0  0  0
 16 38  1  0  0  0  0
 16 39  1  0  0  0  0
 17 18  1  0  0  0  0
 17 40  1  0  0  0  0
 17 41  1  0  0  0  0
 18 19  1  0  0  0  0
 19 42  1  0  0  0  0
 19 43  1  0  0  0  0
 20 21  1  0  0  0  0
 20 22  1  0  0  0  0
 20 44  1  0  0  0  0
 21 45  1  0  0  0  0
 21 46  1  0  0  0  0
 21 47  1  0  0  0  0
 22 23  1  0  0  0  0
 22 48  1  0  0  0  0
 22 49  1  0  0  0  0
 23 24  2  0  0  0  0
 23 25  2  0  0  0  0
 23 26  1  0  0  0  0
 26 27  1  0  0  0  0
 26 50  1  0  0  0  0
 26 51  1  0  0  0  0
 27 52  1  0  0  0  0
 27 53  1  0  0  0  0
 27 54  1  0  0  0  0
M  END
> <s_m_source_file>
AV-unprocessed.smi

> <i_m_source_file_index>
89

> <i_lp_mmshare_version>
43012

> <i_f3d_flags>
0

> <s_epik_input>
W0NIM11bQ0gyXVMoPU8pKD1PKVtDSDJdW0NAQEhdKFtDSDNdKU4oW0NIMl1bQ0gzXSljKG5bY0hdbjEpYyhjMTIpbltjSF1uMltDSDJdW0NAQF0zKFtPSF0pW0NIMl1bQ0gyXU9bQ0gyXTM=

> <s_epik_cmdline>
J2VwaWtfcHl0aG9uJywgJy1waCcsICc3LjAnLCAnLXRuJywgJzgnLCAnLW1hJywgJzIwMCcsICctbWV0YWxfYmluZGluZycsICctaW1hZScsICc8aW5maWxlLm1hZT4nLCAnLW9tYWUnLCAnPG91dGZpbGUubWFlPic=

> <r_lp_tautomer_probability>
1

> <r_epik_Ionization_Penalty>
0.00103773

> <r_epik_Ionization_Penalty_Charging>
0

> <r_epik_Ionization_Penalty_Neutral>
0.00103773

> <r_epik_State_Penalty>
0.000558914

> <r_epik_Charging_Adjusted_Penalty>
0.000558914

> <i_epik_Tot_Q>
0

> <i_epik_Tot_abs_Q>
0

> <r_epik_Metal_State_Penalty>
-0

> <b_epik_Metal_Only>
0

> <s_lp_Force_Field>
OPLS_2005

> <r_lp_Energy>
26.3804

> <b_lp_Chiralities_Consistent>
1

> <s_lp_Variant>
AV-unprocessed.smi:89-4

> <Gold.Version>
5.8.1

> <Gold.Id.Protein>
6NUR|6NUR_protein|mol2

> <Gold.PLP.Fitness>
39.4545

> <Gold.PLP.PLP>
-30.9167

> <Gold.PLP.part.hbond>
-5.6691

> <Gold.PLP.part.metal>
0.0000

> <Gold.PLP.part.buried>
-5.6864

> <Gold.PLP.part.nonpolar>
-20.5086

> <Gold.PLP.part.repulsive>
0.2045

> <Gold.PLP.ligand.clash>
0.0000

> <Gold.PLP.ligand.torsion>
2.1598

> <Gold.PLP.Chemscore.Hbond>
2.8250

> <Gold.PLP.Chemscore.CHOScore>
0.9760

> <Gold.PLP.Chemscore.Metal>
0.0000

> <Gold.Chemscore.Hbonds>
donor molecule, donor type, donor heavy atom, donor atom, acceptor molecule, acceptor atom, score
      L1  H    15    37       P1 10957  1.00
      P1  H  6896  6907       L1     3  0.58
      P1  H  6931  6943       L1    25  0.96
      L1  C    11    34       P1  7948  1.00

> <Gold.PLP.Chemscore.Internal.Correction>
1.4544

> <Gold.Rescore>
     Score         DG    S(hbond)    S(metal)    S(lipo)     H(rot)  DE(clash)    DE(int)     intcor
      6.94     -10.09       1.95        0.00      59.21       3.45       0.26       2.89       ----

> <Gold.Chemscore.Fitness>
6.9400

> <Gold.Chemscore.DG>
-10.0905

> <Gold.Chemscore.ZeroCoef>
-5.4800

> <Gold.Chemscore.Hbond>
1.9525

> <Gold.Chemscore.Metal>
0.0000

> <Gold.Chemscore.Lipo>
59.2090

> <Gold.Chemscore.Internal_Hbond>
0.0000

> <Gold.Chemscore.DEClash>
0.2618

> <Gold.Chemscore.DEInternal>
2.8887

> <Gold.Chemscore.Rot>
3.4524

> <Gold.Chemscore.Internal.Correction>
   9.000000E+99

> <Gold.Chemscore.Hbonds>
donor molecule, donor type, donor heavy atom, donor atom, acceptor molecule, acceptor atom, score
      L1  H    15    37       P1 10957  0.29
      P1  H  6896  6907       L1     3  0.01
      P1  H  6931  6943       L1    25  0.92

> <Gold.Chemscore.Hbond.Weighted>
-6.5212

> <Gold.Chemscore.Metal.Weighted>
-0.0000

> <Gold.Chemscore.Lipo.Weighted>
-6.9275

> <Gold.Chemscore.Internal_Hbond.Weighted>
0.0000

> <Gold.Chemscore.DEClash.Weighted>
0.2618

> <Gold.Chemscore.DEInternal.Weighted>
2.8887

> <Gold.Chemscore.Rot.Weighted>
8.8382

> <Gold.Chemscore.Internal.Correction.Weighted>
   9.000000E+99

> <Gold.Protein.RotatedTorsions>
[ 6907 6896 6895 6894 ] final  -58.95 input  -60.11 | X-H torsion
[ 7974 7965 7964 7962 ] final  -15.34 input  175.53 | X-H torsion
[ 8008 7997 7996 7995 ] final  172.62 input   59.86 | X-H torsion
[ 10167 10162 10161 10158 ] final -135.69 input  -65.29 | X-H torsion
[ 10718 10713 10712 10709 ] final  148.30 input   66.30 | X-H torsion
[ 10763 10752 10751 10750 ] final   46.73 input  -60.55 | X-H torsion
[ 11005 11000 10999 10996 ] final   98.44 input  -57.11 | X-H torsion

> <Gold.Protein.ActiveResidues>
 VAL166  LYS551  ARG553  GLY616  TRP617  ASP618  TYR619  PRO620  LYS621  CYS622 
 ASP623  PHE694  ASN695  SER759  ASP760  ASP761  ALA762  ILE779  LEU786  VAL792 
 PHE793  MET794  SER795  GLU796  ALA797  LYS798  CYS799  TRP800  GLU811  SER814 

> <Gold.Protein.RotatedAtoms>
  150.7968  134.7032  159.6561 H   0  0  0  0  0  0  0  0  0  0  0  0  # atno 6907 bound_to 6896
  152.4080  134.6169  160.0050 H   0  0  0  0  0  0  0  0  0  0  0  0  # atno 6908 bound_to 6896
  151.6421  133.3288  159.3168 H   0  0  0  0  0  0  0  0  0  0  0  0  # atno 6909 bound_to 6896
  146.2036  140.3479  142.8415 H   0  0  0  0  0  0  0  0  0  0  0  0  # atno 7974 bound_to 7965
  156.1156  140.1481  156.9277 H   0  0  0  0  0  0  0  0  0  0  0  0  # atno 8008 bound_to 7997
  154.4798  140.0883  156.7393 H   0  0  0  0  0  0  0  0  0  0  0  0  # atno 8009 bound_to 7997
  155.4519  140.3435  155.4304 H   0  0  0  0  0  0  0  0  0  0  0  0  # atno 8010 bound_to 7997
  139.8753  143.6906  152.2634 H   0  0  0  0  0  0  0  0  0  0  0  0  # atno 10167 bound_to 10162
  157.3103  131.0886  151.1321 H   0  0  0  0  0  0  0  0  0  0  0  0  # atno 10718 bound_to 10713
  152.9807  135.5998  154.3648 H   0  0  0  0  0  0  0  0  0  0  0  0  # atno 10763 bound_to 10752
  154.3326  135.2768  155.2465 H   0  0  0  0  0  0  0  0  0  0  0  0  # atno 10764 bound_to 10752
  154.4583  135.5972  153.6293 H   0  0  0  0  0  0  0  0  0  0  0  0  # atno 10765 bound_to 10752
  139.8772  134.9049  156.4457 H   0  0  0  0  0  0  0  0  0  0  0  0  # atno 11005 bound_to 11000
  144.8740  140.7310  143.6029 LP  0  0  0  0  0  0  0  0  0  0  0  0  # atno 17320 bound_to 7965
  145.3399  139.1735  143.4491 LP  0  0  0  0  0  0  0  0  0  0  0  0  # atno 17321 bound_to 7965
  139.7246  144.7595  151.0900 LP  0  0  0  0  0  0  0  0  0  0  0  0  # atno 17342 bound_to 10162
  140.7754  143.5164  150.9589 LP  0  0  0  0  0  0  0  0  0  0  0  0  # atno 17343 bound_to 10162
  157.2645  130.6675  149.5990 LP  0  0  0  0  0  0  0  0  0  0  0  0  # atno 17370 bound_to 10713
  155.9677  130.4498  150.5673 LP  0  0  0  0  0  0  0  0  0  0  0  0  # atno 17371 bound_to 10713
  140.8968  133.7808  155.9634 LP  0  0  0  0  0  0  0  0  0  0  0  0  # atno 17394 bound_to 11000
  140.8694  134.2744  157.5197 LP  0  0  0  0  0  0  0  0  0  0  0  0  # atno 17395 bound_to 11000

$$$$
