AV-unprocessed.smi:196|AV-procd|sdf|1535|dock2
  -GOLD-   2262019393D 1   1.00000     0.00000
 Structure written by MMmdl.
 47 50  0  0  0  0  0  0  0  0  1 V2000
  149.2784  138.5641  153.3963 C   0  0  0  0  0  0  0  0  0  0  0  0
  150.6867  138.6423  154.0038 C   0  0  1  0  0  0  0  0  0  0  0  0
  150.8762  139.8808  154.6836 O   0  0  0  0  0  0  0  0  0  0  0  0
  151.7268  139.6980  155.8122 C   0  0  0  0  0  0  0  0  0  0  0  0
  152.2165  138.2550  155.7312 C   0  0  0  0  0  0  0  0  0  0  0  0
  151.0635  137.5520  155.0252 C   0  0  2  0  0  0  0  0  0  0  0  0
  151.5618  136.4045  154.3627 O   0  0  0  0  0  0  0  0  0  0  0  0
  149.9008  137.1413  155.9693 C   0  0  0  0  0  0  0  0  0  0  0  0
  148.7964  136.4799  155.2923 N   0  0  0  0  0  0  0  0  0  0  0  0
  147.5022  136.9364  155.1816 C   0  0  0  0  0  0  0  0  0  0  0  0
  146.6908  136.1551  154.5220 N   0  0  0  0  0  0  0  0  0  0  0  0
  147.4838  135.0747  154.1568 C   0  0  0  0  0  0  0  0  0  0  0  0
  147.2499  133.8759  153.4316 C   0  0  0  0  0  0  0  0  0  0  0  0
  146.0443  133.5849  152.8848 N   0  0  0  0  0  0  0  0  0  0  0  0
  145.5905  132.2021  153.0194 C   0  0  0  0  0  0  0  0  0  0  0  0
  145.6736  131.6089  151.6189 C   0  0  1  0  0  0  0  0  0  0  0  0
  144.8608  130.5661  151.4519 F   0  0  0  0  0  0  0  0  0  0  0  0
  145.2895  132.7974  150.7500 C   0  0  0  0  0  0  0  0  0  0  0  0
  145.9183  134.0020  151.4777 C   0  0  1  0  0  0  0  0  0  0  0  0
  145.0846  135.2796  151.2727 C   0  0  0  0  0  0  0  0  0  0  0  0
  144.9378  135.7625  150.0349 N   0  0  0  0  0  0  0  0  0  0  0  0
  144.5671  135.8288  152.2425 O   0  0  0  0  0  0  0  0  0  0  0  0
  148.2965  133.0240  153.2624 N   0  0  0  0  0  0  0  0  0  0  0  0
  149.4928  133.3216  153.7783 C   0  0  0  0  0  0  0  0  0  0  0  0
  149.8553  134.3992  154.4772 N   0  0  0  0  0  0  0  0  0  0  0  0
  148.8088  135.2585  154.6417 C   0  0  0  0  0  0  0  0  0  0  0  0
  146.6905  131.2827  151.3968 H   0  0  0  0  0  0  0  0  0  0  0  0
  146.9080  134.1816  151.0509 H   0  0  0  0  0  0  0  0  0  0  0  0
  149.1188  137.6061  152.9013 H   0  0  0  0  0  0  0  0  0  0  0  0
  149.1369  139.3486  152.6527 H   0  0  0  0  0  0  0  0  0  0  0  0
  148.5031  138.6891  154.1521 H   0  0  0  0  0  0  0  0  0  0  0  0
  151.4148  138.6291  153.1902 H   0  0  0  0  0  0  0  0  0  0  0  0
  152.5491  140.4138  155.8103 H   0  0  0  0  0  0  0  0  0  0  0  0
  151.1431  139.8568  156.7196 H   0  0  0  0  0  0  0  0  0  0  0  0
  153.1132  138.2242  155.1092 H   0  0  0  0  0  0  0  0  0  0  0  0
  152.4851  137.8369  156.7005 H   0  0  0  0  0  0  0  0  0  0  0  0
  151.2965  136.4436  153.4567 H   0  0  0  0  0  0  0  0  0  0  0  0
  150.2657  136.4748  156.7516 H   0  0  0  0  0  0  0  0  0  0  0  0
  149.5001  138.0171  156.4815 H   0  0  0  0  0  0  0  0  0  0  0  0
  147.1778  137.8755  155.6064 H   0  0  0  0  0  0  0  0  0  0  0  0
  146.1529  131.6147  153.7472 H   0  0  0  0  0  0  0  0  0  0  0  0
  144.5548  132.2246  153.3605 H   0  0  0  0  0  0  0  0  0  0  0  0
  145.6451  132.6946  149.7243 H   0  0  0  0  0  0  0  0  0  0  0  0
  144.2016  132.8856  150.7164 H   0  0  0  0  0  0  0  0  0  0  0  0
  144.3992  136.6035  149.8841 H   0  0  0  0  0  0  0  0  0  0  0  0
  145.3714  135.2883  149.2562 H   0  0  0  0  0  0  0  0  0  0  0  0
  150.2715  132.5940  153.6029 H   0  0  0  0  0  0  0  0  0  0  0  0
  1  2  1  0  0  0  0
  1 29  1  0  0  0  0
  1 30  1  0  0  0  0
  1 31  1  0  0  0  0
  2  6  1  0  0  0  0
  2  3  1  0  0  0  0
  2 32  1  0  0  0  0
  3  4  1  0  0  0  0
  4  5  1  0  0  0  0
  4 33  1  0  0  0  0
  4 34  1  0  0  0  0
  5  6  1  0  0  0  0
  5 35  1  0  0  0  0
  5 36  1  0  0  0  0
  6  7  1  0  0  0  0
  6  8  1  0  0  0  0
  7 37  1  0  0  0  0
  8  9  1  0  0  0  0
  8 38  1  0  0  0  0
  8 39  1  0  0  0  0
  9 26  1  0  0  0  0
  9 10  1  0  0  0  0
 10 11  2  0  0  0  0
 10 40  1  0  0  0  0
 11 12  1  0  0  0  0
 12 26  2  0  0  0  0
 12 13  1  0  0  0  0
 13 14  1  0  0  0  0
 13 23  2  0  0  0  0
 14 19  1  0  0  0  0
 14 15  1  0  0  0  0
 15 16  1  0  0  0  0
 15 41  1  0  0  0  0
 15 42  1  0  0  0  0
 16 27  1  0  0  0  0
 16 17  1  0  0  0  0
 16 18  1  0  0  0  0
 18 19  1  0  0  0  0
 18 43  1  0  0  0  0
 18 44  1  0  0  0  0
 19 28  1  0  0  0  0
 19 20  1  0  0  0  0
 20 21  1  0  0  0  0
 20 22  2  0  0  0  0
 21 45  1  0  0  0  0
 21 46  1  0  0  0  0
 23 24  1  0  0  0  0
 24 25  2  0  0  0  0
 24 47  1  0  0  0  0
 25 26  1  0  0  0  0
M  END
> <s_m_source_file>
AV-unprocessed.smi

> <i_m_source_file_index>
196

> <i_lp_mmshare_version>
43012

> <i_f3d_flags>
0

> <s_epik_input>
W0NIMl0xW0NIMl1PW0NAQEhdKFtDSDNdKVtDQEBdMShbT0hdKVtDSDJdbihbY0hdbjIpYyhjMjMpbltjSF1uYzNONFtDSDJdW0NASF0oRilbQ0gyXVtDQEhdNEMoPU8pW05IMl0=

> <s_epik_cmdline>
J2VwaWtfcHl0aG9uJywgJy1waCcsICc3LjAnLCAnLXRuJywgJzgnLCAnLW1hJywgJzIwMCcsICctbWV0YWxfYmluZGluZycsICctaW1hZScsICc8aW5maWxlLm1hZT4nLCAnLW9tYWUnLCAnPG91dGZpbGUubWFlPic=

> <r_lp_tautomer_probability>
1

> <r_epik_Ionization_Penalty>
0.000857933

> <r_epik_Ionization_Penalty_Charging>
0

> <r_epik_Ionization_Penalty_Neutral>
0.000857933

> <r_epik_State_Penalty>
0.000462053

> <r_epik_Charging_Adjusted_Penalty>
0.000462053

> <i_epik_Tot_Q>
0

> <i_epik_Tot_abs_Q>
0

> <r_epik_Metal_State_Penalty>
-0

> <b_epik_Metal_Only>
0

> <s_lp_Force_Field>
OPLS_2005

> <r_lp_Energy>
46.5275

> <b_lp_Chiralities_Consistent>
1

> <s_lp_Variant>
AV-unprocessed.smi:196-8

> <Gold.Version>
5.8.1

> <Gold.Id.Protein>
6NUR|6NUR_protein|mol2

> <Gold.PLP.Fitness>
44.9752

> <Gold.PLP.PLP>
-31.6118

> <Gold.PLP.part.hbond>
-5.0000

> <Gold.PLP.part.metal>
0.0000

> <Gold.PLP.part.buried>
1.0222

> <Gold.PLP.part.nonpolar>
-28.3072

> <Gold.PLP.part.repulsive>
0.8024

> <Gold.PLP.ligand.clash>
0.2119

> <Gold.PLP.ligand.torsion>
0.6282

> <Gold.PLP.Chemscore.Hbond>
4.9100

> <Gold.PLP.Chemscore.CHOScore>
0.0000

> <Gold.PLP.Chemscore.Metal>
0.0000

> <Gold.Chemscore.Hbonds>
donor molecule, donor type, donor heavy atom, donor atom, acceptor molecule, acceptor atom, score
      L1  H     7    37       P1  7949  1.00
      L1  H    21    45       P1 10171  1.00
      L1  H    21    46       P1  7921  1.00
      P1  H  7989  7998       L1     3  1.00
      P1  H 10752 10763       L1     7  0.98

> <Gold.PLP.Chemscore.Internal.Correction>
0.1017

> <Gold.Rescore>
     Score         DG    S(hbond)    S(metal)    S(lipo)     H(rot)  DE(clash)    DE(int)     intcor
     10.00     -19.89       4.28        0.00      67.69       3.04       4.41       5.48       ----

> <Gold.Chemscore.Fitness>
10.0049

> <Gold.Chemscore.DG>
-19.8944

> <Gold.Chemscore.ZeroCoef>
-5.4800

> <Gold.Chemscore.Hbond>
4.2755

> <Gold.Chemscore.Metal>
0.0000

> <Gold.Chemscore.Lipo>
67.6923

> <Gold.Chemscore.Internal_Hbond>
0.0000

> <Gold.Chemscore.DEClash>
4.4121

> <Gold.Chemscore.DEInternal>
5.4773

> <Gold.Chemscore.Rot>
3.0413

> <Gold.Chemscore.Internal.Correction>
   9.000000E+99

> <Gold.Chemscore.Hbonds>
donor molecule, donor type, donor heavy atom, donor atom, acceptor molecule, acceptor atom, score
      L1  H     7    37       P1  7949  0.61
      L1  H    21    45       P1 10171  0.93
      L1  H    21    46       P1  7921  1.00
      P1  H  7989  7998       L1     3  0.31
      P1  H 10752 10763       L1     7  0.86

> <Gold.Chemscore.Hbond.Weighted>
-14.2800

> <Gold.Chemscore.Metal.Weighted>
-0.0000

> <Gold.Chemscore.Lipo.Weighted>
-7.9200

> <Gold.Chemscore.Internal_Hbond.Weighted>
0.0000

> <Gold.Chemscore.DEClash.Weighted>
4.4121

> <Gold.Chemscore.DEInternal.Weighted>
5.4773

> <Gold.Chemscore.Rot.Weighted>
7.7856

> <Gold.Chemscore.Internal.Correction.Weighted>
   9.000000E+99

> <Gold.Protein.RotatedTorsions>
[ 6907 6896 6895 6894 ] final  135.14 input  -60.11 | X-H torsion
[ 7974 7965 7964 7962 ] final  113.42 input  175.53 | X-H torsion
[ 8008 7997 7996 7995 ] final   45.32 input   59.86 | X-H torsion
[ 10167 10162 10161 10158 ] final  121.97 input  -65.29 | X-H torsion
[ 10718 10713 10712 10709 ] final -177.70 input   66.30 | X-H torsion
[ 10763 10752 10751 10750 ] final   66.07 input  -60.55 | X-H torsion
[ 11005 11000 10999 10996 ] final  -74.67 input  -57.11 | X-H torsion

> <Gold.Protein.ActiveResidues>
 VAL166  LYS551  ARG553  GLY616  TRP617  ASP618  TYR619  PRO620  LYS621  CYS622 
 ASP623  PHE694  ASN695  SER759  ASP760  ASP761  ALA762  ILE779  LEU786  VAL792 
 PHE793  MET794  SER795  GLU796  ALA797  LYS798  CYS799  TRP800  GLU811  SER814 

> <Gold.Protein.RotatedAtoms>
  152.3037  133.5681  159.5634 H   0  0  0  0  0  0  0  0  0  0  0  0  # atno 6907 bound_to 6896
  150.7289  134.0254  159.3724 H   0  0  0  0  0  0  0  0  0  0  0  0  # atno 6908 bound_to 6896
  151.8152  135.0669  160.0469 H   0  0  0  0  0  0  0  0  0  0  0  0  # atno 6909 bound_to 6896
  145.2171  139.2879  143.4237 H   0  0  0  0  0  0  0  0  0  0  0  0  # atno 7974 bound_to 7965
  155.3340  140.3404  155.4239 H   0  0  0  0  0  0  0  0  0  0  0  0  # atno 8008 bound_to 7997
  156.1847  140.1676  156.8244 H   0  0  0  0  0  0  0  0  0  0  0  0  # atno 8009 bound_to 7997
  154.5373  140.0732  156.8432 H   0  0  0  0  0  0  0  0  0  0  0  0  # atno 8010 bound_to 7997
  139.5887  144.7017  151.3344 H   0  0  0  0  0  0  0  0  0  0  0  0  # atno 10167 bound_to 10162
  156.8334  130.9661  151.3105 H   0  0  0  0  0  0  0  0  0  0  0  0  # atno 10718 bound_to 10713
  153.0123  135.5334  154.6766 H   0  0  0  0  0  0  0  0  0  0  0  0  # atno 10763 bound_to 10752
  154.5937  135.2861  155.0611 H   0  0  0  0  0  0  0  0  0  0  0  0  # atno 10764 bound_to 10752
  154.1695  135.6534  153.5058 H   0  0  0  0  0  0  0  0  0  0  0  0  # atno 10765 bound_to 10752
  141.1637  133.6919  156.7399 H   0  0  0  0  0  0  0  0  0  0  0  0  # atno 11005 bound_to 11000
  146.3384  140.2466  142.8597 LP  0  0  0  0  0  0  0  0  0  0  0  0  # atno 17320 bound_to 7965
  144.9800  140.8450  143.5403 LP  0  0  0  0  0  0  0  0  0  0  0  0  # atno 17321 bound_to 7965
  140.7154  143.7280  150.7645 LP  0  0  0  0  0  0  0  0  0  0  0  0  # atno 17342 bound_to 10162
  140.0831  143.4950  152.2519 LP  0  0  0  0  0  0  0  0  0  0  0  0  # atno 17343 bound_to 10162
  157.6395  130.8794  149.9421 LP  0  0  0  0  0  0  0  0  0  0  0  0  # atno 17370 bound_to 10713
  156.0921  130.3662  150.0375 LP  0  0  0  0  0  0  0  0  0  0  0  0  # atno 17371 bound_to 10713
  140.2682  134.8413  157.3822 LP  0  0  0  0  0  0  0  0  0  0  0  0  # atno 17394 bound_to 11000
  140.1547  134.4805  155.7936 LP  0  0  0  0  0  0  0  0  0  0  0  0  # atno 17395 bound_to 11000

$$$$
