AV-unprocessed.smi:162|AV-procd|sdf|1379|dock10
  -GOLD-   2262019103D 1   1.00000     0.00000
 Structure written by MMmdl.
 54 57  0  0  0  0  0  0  0  0  1 V2000
  146.5942  137.1703  158.6240 C   0  0  0  0  0  0  0  0  0  0  0  0
  146.6910  137.9716  157.4599 O   0  0  0  0  0  0  0  0  0  0  0  0
  147.6800  138.9806  157.5753 C   0  0  0  0  0  0  0  0  0  0  0  0
  148.0890  139.4433  156.1665 C   0  0  1  0  0  0  0  0  0  0  0  0
  149.0931  140.5948  156.1639 C   0  0  0  0  0  0  0  0  0  0  0  0
  149.7514  140.5054  154.7826 C   0  0  2  0  0  0  0  0  0  0  0  0
  149.1649  141.4717  153.9213 O   0  0  0  0  0  0  0  0  0  0  0  0
  147.7465  141.4432  153.9192 C   0  0  0  0  0  0  0  0  0  0  0  0
  149.4393  139.0761  154.2972 C   0  0  0  0  0  0  0  0  0  0  0  0
  148.7595  138.4054  155.3964 N   0  0  0  0  0  0  0  0  0  0  0  0
  148.0063  137.3457  155.0291 C   0  0  0  0  0  0  0  0  0  0  0  0
  148.3237  136.1509  155.5843 N   0  0  0  0  0  0  0  0  0  0  0  0
  147.6151  135.0607  155.2754 C   0  0  0  0  0  0  0  0  0  0  0  0
  146.5711  134.9490  154.4514 N   0  0  0  0  0  0  0  0  0  0  0  0
  146.2518  136.1502  153.8892 C   0  0  0  0  0  0  0  0  0  0  0  0
  146.9125  137.3898  154.1180 C   0  0  0  0  0  0  0  0  0  0  0  0
  146.3100  138.3923  153.3668 N   0  0  0  0  0  0  0  0  0  0  0  0
  145.3440  137.7817  152.7367 C   0  0  0  0  0  0  0  0  0  0  0  0
  145.2322  136.4348  152.9979 N   0  0  0  0  0  0  0  0  0  0  0  0
  144.2487  135.5178  152.4427 C   0  0  0  0  0  0  0  0  0  0  0  0
  144.7640  134.7102  151.2257 C   0  0  0  0  0  0  0  0  0  0  0  0
  144.9251  135.6161  150.1473 O   0  0  0  0  0  0  0  0  0  0  0  0
  146.1354  134.0790  151.5392 C   0  0  0  0  0  0  0  0  0  0  0  0
  146.6080  133.1329  150.4208 C   0  0  0  0  0  0  0  0  0  0  0  0
  145.6234  132.1354  150.1786 O   0  0  0  0  0  0  0  0  0  0  0  0
  144.3921  132.6776  149.7169 C   0  0  0  0  0  0  0  0  0  0  0  0
  143.7834  133.5994  150.7885 C   0  0  0  0  0  0  0  0  0  0  0  0
  147.1974  139.7657  155.6280 H   0  0  0  0  0  0  0  0  0  0  0  0
  150.8253  140.6763  154.8769 H   0  0  0  0  0  0  0  0  0  0  0  0
  145.8294  136.4075  158.4797 H   0  0  0  0  0  0  0  0  0  0  0  0
  146.3129  137.7686  159.4915 H   0  0  0  0  0  0  0  0  0  0  0  0
  147.5376  136.6656  158.8367 H   0  0  0  0  0  0  0  0  0  0  0  0
  147.2998  139.8223  158.1567 H   0  0  0  0  0  0  0  0  0  0  0  0
  148.5429  138.5778  158.1082 H   0  0  0  0  0  0  0  0  0  0  0  0
  148.6293  141.5623  156.3589 H   0  0  0  0  0  0  0  0  0  0  0  0
  149.8479  140.4292  156.9341 H   0  0  0  0  0  0  0  0  0  0  0  0
  147.3687  142.2028  153.2350 H   0  0  0  0  0  0  0  0  0  0  0  0
  147.3366  141.6512  154.9080 H   0  0  0  0  0  0  0  0  0  0  0  0
  147.3732  140.4752  153.5832 H   0  0  0  0  0  0  0  0  0  0  0  0
  148.8168  139.0934  153.4017 H   0  0  0  0  0  0  0  0  0  0  0  0
  150.3571  138.5416  154.0502 H   0  0  0  0  0  0  0  0  0  0  0  0
  147.9279  134.1475  155.7597 H   0  0  0  0  0  0  0  0  0  0  0  0
  144.6770  138.3014  152.0643 H   0  0  0  0  0  0  0  0  0  0  0  0
  143.9236  134.8436  153.2366 H   0  0  0  0  0  0  0  0  0  0  0  0
  143.3686  136.0974  152.1602 H   0  0  0  0  0  0  0  0  0  0  0  0
  145.1554  135.1241  149.3739 H   0  0  0  0  0  0  0  0  0  0  0  0
  146.8827  134.8538  151.7154 H   0  0  0  0  0  0  0  0  0  0  0  0
  146.0657  133.5071  152.4655 H   0  0  0  0  0  0  0  0  0  0  0  0
  146.8202  133.6825  149.5026 H   0  0  0  0  0  0  0  0  0  0  0  0
  147.5363  132.6436  150.7159 H   0  0  0  0  0  0  0  0  0  0  0  0
  144.5464  133.2131  148.7789 H   0  0  0  0  0  0  0  0  0  0  0  0
  143.7074  131.8571  149.5011 H   0  0  0  0  0  0  0  0  0  0  0  0
  143.5187  132.9932  151.6559 H   0  0  0  0  0  0  0  0  0  0  0  0
  142.8511  134.0260  150.4165 H   0  0  0  0  0  0  0  0  0  0  0  0
  1  2  1  0  0  0  0
  1 30  1  0  0  0  0
  1 31  1  0  0  0  0
  1 32  1  0  0  0  0
  2  3  1  0  0  0  0
  3  4  1  0  0  0  0
  3 33  1  0  0  0  0
  3 34  1  0  0  0  0
  4 28  1  0  0  0  0
  4 10  1  0  0  0  0
  4  5  1  0  0  0  0
  5  6  1  0  0  0  0
  5 35  1  0  0  0  0
  5 36  1  0  0  0  0
  6 29  1  0  0  0  0
  6  7  1  0  0  0  0
  6  9  1  0  0  0  0
  7  8  1  0  0  0  0
  8 37  1  0  0  0  0
  8 38  1  0  0  0  0
  8 39  1  0  0  0  0
  9 10  1  0  0  0  0
  9 40  1  0  0  0  0
  9 41  1  0  0  0  0
 10 11  1  0  0  0  0
 11 16  1  0  0  0  0
 11 12  2  0  0  0  0
 12 13  1  0  0  0  0
 13 14  2  0  0  0  0
 13 42  1  0  0  0  0
 14 15  1  0  0  0  0
 15 19  1  0  0  0  0
 15 16  2  0  0  0  0
 16 17  1  0  0  0  0
 17 18  2  0  0  0  0
 18 19  1  0  0  0  0
 18 43  1  0  0  0  0
 19 20  1  0  0  0  0
 20 21  1  0  0  0  0
 20 44  1  0  0  0  0
 20 45  1  0  0  0  0
 21 27  1  0  0  0  0
 21 22  1  0  0  0  0
 21 23  1  0  0  0  0
 22 46  1  0  0  0  0
 23 24  1  0  0  0  0
 23 47  1  0  0  0  0
 23 48  1  0  0  0  0
 24 25  1  0  0  0  0
 24 49  1  0  0  0  0
 24 50  1  0  0  0  0
 25 26  1  0  0  0  0
 26 27  1  0  0  0  0
 26 51  1  0  0  0  0
 26 52  1  0  0  0  0
 27 53  1  0  0  0  0
 27 54  1  0  0  0  0
M  END
> <s_m_source_file>
AV-unprocessed.smi

> <i_m_source_file_index>
162

> <i_lp_mmshare_version>
43012

> <i_f3d_flags>
0

> <s_epik_input>
W0NIM11PW0NIMl1bQ0BASF0xW0NIMl1bQ0BASF0oT1tDSDNdKVtDSDJdTjFjKG5bY0hdbjIpYyhjMjMpbltjSF1uM1tDSDJdQzQoW09IXSlbQ0gyXVtDSDJdT1tDSDJdW0NIMl00

> <s_epik_cmdline>
J2VwaWtfcHl0aG9uJywgJy1waCcsICc3LjAnLCAnLXRuJywgJzgnLCAnLW1hJywgJzIwMCcsICctbWV0YWxfYmluZGluZycsICctaW1hZScsICc8aW5maWxlLm1hZT4nLCAnLW9tYWUnLCAnPG91dGZpbGUubWFlPic=

> <r_lp_tautomer_probability>
1

> <r_epik_Ionization_Penalty>
0.00660334

> <r_epik_Ionization_Penalty_Charging>
0

> <r_epik_Ionization_Penalty_Neutral>
0.00660334

> <r_epik_State_Penalty>
0.00469459

> <r_epik_Charging_Adjusted_Penalty>
0.00469459

> <i_epik_Tot_Q>
0

> <i_epik_Tot_abs_Q>
0

> <r_epik_Metal_State_Penalty>
-0

> <b_epik_Metal_Only>
0

> <s_lp_Force_Field>
OPLS_2005

> <r_lp_Energy>
43.1058

> <b_lp_Chiralities_Consistent>
1

> <s_lp_Variant>
AV-unprocessed.smi:162-4

> <Gold.Version>
5.8.1

> <Gold.Id.Protein>
6NUR|6NUR_protein|mol2

> <Gold.PLP.Fitness>
40.4665

> <Gold.PLP.PLP>
-30.6109

> <Gold.PLP.part.hbond>
-3.1563

> <Gold.PLP.part.metal>
0.0000

> <Gold.PLP.part.buried>
-3.9384

> <Gold.PLP.part.nonpolar>
-24.9434

> <Gold.PLP.part.repulsive>
1.4247

> <Gold.PLP.ligand.clash>
0.0000

> <Gold.PLP.ligand.torsion>
0.5769

> <Gold.PLP.Chemscore.Hbond>
1.7760

> <Gold.PLP.Chemscore.CHOScore>
1.8639

> <Gold.PLP.Chemscore.Metal>
0.0000

> <Gold.Chemscore.Hbonds>
donor molecule, donor type, donor heavy atom, donor atom, acceptor molecule, acceptor atom, score
      L1  H    22    46       P1  7921  1.00
      P1  H  8011  8017       L1     7  0.72
      L1  C    18    43       P1 10171  1.00
      L1  C    18    43       P1 10175  0.93

> <Gold.PLP.Chemscore.Internal.Correction>
0.0898

> <Gold.Rescore>
     Score         DG    S(hbond)    S(metal)    S(lipo)     H(rot)  DE(clash)    DE(int)     intcor
      9.98     -12.04       1.68        0.00      70.66       2.86       0.10       1.96       ----

> <Gold.Chemscore.Fitness>
9.9779

> <Gold.Chemscore.DG>
-12.0393

> <Gold.Chemscore.ZeroCoef>
-5.4800

> <Gold.Chemscore.Hbond>
1.6841

> <Gold.Chemscore.Metal>
0.0000

> <Gold.Chemscore.Lipo>
70.6560

> <Gold.Chemscore.Internal_Hbond>
0.0000

> <Gold.Chemscore.DEClash>
0.0994

> <Gold.Chemscore.DEInternal>
1.9620

> <Gold.Chemscore.Rot>
2.8642

> <Gold.Chemscore.Internal.Correction>
   9.000000E+99

> <Gold.Chemscore.Hbonds>
donor molecule, donor type, donor heavy atom, donor atom, acceptor molecule, acceptor atom, score
      L1  H    22    46       P1  7921  0.92
      P1  H  8011  8017       L1     7  0.50

> <Gold.Chemscore.Hbond.Weighted>
-5.6249

> <Gold.Chemscore.Metal.Weighted>
-0.0000

> <Gold.Chemscore.Lipo.Weighted>
-8.2667

> <Gold.Chemscore.Internal_Hbond.Weighted>
0.0000

> <Gold.Chemscore.DEClash.Weighted>
0.0994

> <Gold.Chemscore.DEInternal.Weighted>
1.9620

> <Gold.Chemscore.Rot.Weighted>
7.3324

> <Gold.Chemscore.Internal.Correction.Weighted>
   9.000000E+99

> <Gold.Protein.RotatedTorsions>
[ 6907 6896 6895 6894 ] final  150.32 input  -60.11 | X-H torsion
[ 7974 7965 7964 7962 ] final -109.38 input  175.53 | X-H torsion
[ 8008 7997 7996 7995 ] final   49.18 input   59.86 | X-H torsion
[ 10167 10162 10161 10158 ] final  172.61 input  -65.29 | X-H torsion
[ 10718 10713 10712 10709 ] final  156.59 input   66.30 | X-H torsion
[ 10763 10752 10751 10750 ] final  111.88 input  -60.55 | X-H torsion
[ 11005 11000 10999 10996 ] final  -62.41 input  -57.11 | X-H torsion

> <Gold.Protein.ActiveResidues>
 VAL166  LYS551  ARG553  GLY616  TRP617  ASP618  TYR619  PRO620  LYS621  CYS622 
 ASP623  PHE694  ASN695  SER759  ASP760  ASP761  ALA762  ILE779  LEU786  VAL792 
 PHE793  MET794  SER795  GLU796  ALA797  LYS798  CYS799  TRP800  GLU811  SER814 

> <Gold.Protein.RotatedAtoms>
  152.1160  133.4326  159.4652 H   0  0  0  0  0  0  0  0  0  0  0  0  # atno 6907 bound_to 6896
  150.6869  134.2592  159.4551 H   0  0  0  0  0  0  0  0  0  0  0  0  # atno 6908 bound_to 6896
  152.0465  134.9679  160.0625 H   0  0  0  0  0  0  0  0  0  0  0  0  # atno 6909 bound_to 6896
  145.1812  140.8972  143.3479 H   0  0  0  0  0  0  0  0  0  0  0  0  # atno 7974 bound_to 7965
  155.3979  140.3436  155.4255 H   0  0  0  0  0  0  0  0  0  0  0  0  # atno 8008 bound_to 7997
  156.1520  140.1574  156.8786 H   0  0  0  0  0  0  0  0  0  0  0  0  # atno 8009 bound_to 7997
  154.5061  140.0802  156.7878 H   0  0  0  0  0  0  0  0  0  0  0  0  # atno 8010 bound_to 7997
  139.5082  144.3354  152.0070 H   0  0  0  0  0  0  0  0  0  0  0  0  # atno 10167 bound_to 10162
  157.2029  131.0680  151.2014 H   0  0  0  0  0  0  0  0  0  0  0  0  # atno 10718 bound_to 10713
  153.4698  135.3703  155.2384 H   0  0  0  0  0  0  0  0  0  0  0  0  # atno 10763 bound_to 10752
  154.8757  135.3928  154.3825 H   0  0  0  0  0  0  0  0  0  0  0  0  # atno 10764 bound_to 10752
  153.4412  135.7084  153.6232 H   0  0  0  0  0  0  0  0  0  0  0  0  # atno 10765 bound_to 10752
  141.1359  133.6640  156.5524 H   0  0  0  0  0  0  0  0  0  0  0  0  # atno 11005 bound_to 11000
  145.0134  139.3489  143.6108 LP  0  0  0  0  0  0  0  0  0  0  0  0  # atno 17320 bound_to 7965
  146.3453  139.9406  142.8741 LP  0  0  0  0  0  0  0  0  0  0  0  0  # atno 17321 bound_to 7965
  140.2793  144.3877  150.6124 LP  0  0  0  0  0  0  0  0  0  0  0  0  # atno 17342 bound_to 10162
  140.6030  143.2167  151.7035 LP  0  0  0  0  0  0  0  0  0  0  0  0  # atno 17343 bound_to 10162
  157.3749  130.7200  149.6590 LP  0  0  0  0  0  0  0  0  0  0  0  0  # atno 17370 bound_to 10713
  155.9698  130.4188  150.4347 LP  0  0  0  0  0  0  0  0  0  0  0  0  # atno 17371 bound_to 10713
  140.4053  134.7320  157.4804 LP  0  0  0  0  0  0  0  0  0  0  0  0  # atno 17394 bound_to 11000
  140.0466  134.6190  155.8913 LP  0  0  0  0  0  0  0  0  0  0  0  0  # atno 17395 bound_to 11000

$$$$
