AV-unprocessed.smi:608|AV-procd|sdf|3044|dock4
  -GOLD-   2262023563D 1   1.00000     0.00000
 Structure written by MMmdl.
 40 41  0  0  0  0  0  0  0  0  1 V2000
  145.1854  133.4879  162.0030 C   0  0  0  0  0  0  0  0  0  0  0  0
  146.7127  133.5503  161.8907 C   0  0  0  0  0  0  0  0  0  0  0  0
  147.2040  134.8068  161.2501 C   0  0  0  0  0  0  0  0  0  0  0  0
  147.2749  136.0592  161.8086 C   0  0  0  0  0  0  0  0  0  0  0  0
  147.7761  137.0359  160.9450 N   0  0  0  0  0  0  0  0  0  0  0  0
  148.0726  136.5461  159.7389 C   0  0  0  0  0  0  0  0  0  0  0  0
  148.6414  137.3689  158.6316 C   0  0  0  0  0  0  0  0  0  0  0  0
  150.1544  137.5820  158.7693 C   0  0  0  0  0  0  0  0  0  0  0  0
  150.5251  138.9068  158.2919 N   0  0  0  0  0  0  0  0  0  0  0  0
  151.6620  139.5466  158.6113 C   0  0  0  0  0  0  0  0  0  0  0  0
  152.5069  139.0438  159.3533 O   0  0  0  0  0  0  0  0  0  0  0  0
  151.8003  140.7763  158.0498 N   0  0  0  0  0  0  0  0  0  0  0  0
  150.9254  141.3534  157.0198 C   0  0  0  0  0  0  0  0  0  0  0  0
  149.7856  142.1289  157.7046 C   0  0  0  0  0  0  0  0  0  0  0  0
  150.2022  143.4764  158.0794 N   0  0  0  0  0  0  0  0  0  0  0  0
  151.2294  143.8136  158.8809 C   0  0  0  0  0  0  0  0  0  0  0  0
  151.5005  144.9931  159.0938 O   0  0  0  0  0  0  0  0  0  0  0  0
  152.0667  142.7173  159.5646 C   0  0  0  0  0  0  0  0  0  0  0  0
  152.7600  141.7551  158.5758 C   0  0  0  0  0  0  0  0  0  0  0  0
  147.7809  134.8164  159.6028 S   0  0  0  0  0  0  0  0  0  0  0  0
  144.8680  132.5632  162.4851 H   0  0  0  0  0  0  0  0  0  0  0  0
  144.7154  133.5276  161.0198 H   0  0  0  0  0  0  0  0  0  0  0  0
  144.8002  134.3204  162.5925 H   0  0  0  0  0  0  0  0  0  0  0  0
  147.1495  133.4533  162.8852 H   0  0  0  0  0  0  0  0  0  0  0  0
  147.0682  132.6914  161.3209 H   0  0  0  0  0  0  0  0  0  0  0  0
  146.9888  136.3447  162.8103 H   0  0  0  0  0  0  0  0  0  0  0  0
  148.4166  136.8750  157.6855 H   0  0  0  0  0  0  0  0  0  0  0  0
  148.1272  138.3310  158.6111 H   0  0  0  0  0  0  0  0  0  0  0  0
  150.4551  137.4734  159.8129 H   0  0  0  0  0  0  0  0  0  0  0  0
  150.6945  136.8271  158.1957 H   0  0  0  0  0  0  0  0  0  0  0  0
  149.8742  139.3721  157.6764 H   0  0  0  0  0  0  0  0  0  0  0  0
  151.4864  142.0051  156.3477 H   0  0  0  0  0  0  0  0  0  0  0  0
  150.5101  140.5861  156.3659 H   0  0  0  0  0  0  0  0  0  0  0  0
  148.9562  142.2360  157.0053 H   0  0  0  0  0  0  0  0  0  0  0  0
  149.3908  141.5954  158.5709 H   0  0  0  0  0  0  0  0  0  0  0  0
  149.6743  144.2343  157.6709 H   0  0  0  0  0  0  0  0  0  0  0  0
  152.8325  143.2082  160.1663 H   0  0  0  0  0  0  0  0  0  0  0  0
  151.4413  142.1671  160.2688 H   0  0  0  0  0  0  0  0  0  0  0  0
  153.5951  141.2614  159.0748 H   0  0  0  0  0  0  0  0  0  0  0  0
  153.2190  142.3136  157.7585 H   0  0  0  0  0  0  0  0  0  0  0  0
  1  2  1  0  0  0  0
  1 21  1  0  0  0  0
  1 22  1  0  0  0  0
  1 23  1  0  0  0  0
  2  3  1  0  0  0  0
  2 24  1  0  0  0  0
  2 25  1  0  0  0  0
  3 20  1  0  0  0  0
  3  4  2  0  0  0  0
  4  5  1  0  0  0  0
  4 26  1  0  0  0  0
  5  6  2  0  0  0  0
  6  7  1  0  0  0  0
  6 20  1  0  0  0  0
  7  8  1  0  0  0  0
  7 27  1  0  0  0  0
  7 28  1  0  0  0  0
  8  9  1  0  0  0  0
  8 29  1  0  0  0  0
  8 30  1  0  0  0  0
  9 10  1  0  0  0  0
  9 31  1  0  0  0  0
 10 11  2  0  0  0  0
 10 12  1  0  0  0  0
 12 19  1  0  0  0  0
 12 13  1  0  0  0  0
 13 14  1  0  0  0  0
 13 32  1  0  0  0  0
 13 33  1  0  0  0  0
 14 15  1  0  0  0  0
 14 34  1  0  0  0  0
 14 35  1  0  0  0  0
 15 16  1  0  0  0  0
 15 36  1  0  0  0  0
 16 17  2  0  0  0  0
 16 18  1  0  0  0  0
 18 19  1  0  0  0  0
 18 37  1  0  0  0  0
 18 38  1  0  0  0  0
 19 39  1  0  0  0  0
 19 40  1  0  0  0  0
M  END
> <s_m_source_file>
AV-unprocessed.smi

> <i_m_source_file_index>
608

> <i_lp_mmshare_version>
43012

> <i_f3d_flags>
0

> <s_epik_input>
W0NIM11bQ0gyXWMxW2NIXW5jKHMxKVtDSDJdW0NIMl1bTkhdQyg9TylOMltDSDJdW0NIMl1bTkhdQyg9TylbQ0gyXVtDSDJdMg==

> <s_epik_cmdline>
J2VwaWtfcHl0aG9uJywgJy1waCcsICc3LjAnLCAnLXRuJywgJzgnLCAnLW1hJywgJzIwMCcsICctbWV0YWxfYmluZGluZycsICctaW1hZScsICc8aW5maWxlLm1hZT4nLCAnLW9tYWUnLCAnPG91dGZpbGUubWFlPic=

> <r_epik_Ionization_Penalty>
0.000937608

> <r_epik_Ionization_Penalty_Charging>
0

> <r_epik_Ionization_Penalty_Neutral>
0.000937608

> <r_epik_State_Penalty>
0.000579253

> <r_epik_Charging_Adjusted_Penalty>
0.000579253

> <i_epik_Tot_Q>
0

> <i_epik_Tot_abs_Q>
0

> <r_epik_Metal_State_Penalty>
-0

> <b_epik_Metal_Only>
0

> <s_lp_Force_Field>
OPLS_2005

> <r_lp_Energy>
19.2261

> <b_lp_Chiralities_Consistent>
1

> <s_lp_Variant>
AV-unprocessed.smi:608-1

> <Gold.Version>
5.8.1

> <Gold.Id.Protein>
6NUR|6NUR_protein|mol2

> <Gold.PLP.Fitness>
44.4061

> <Gold.PLP.PLP>
-38.0175

> <Gold.PLP.part.hbond>
-3.0000

> <Gold.PLP.part.metal>
0.0000

> <Gold.PLP.part.buried>
-6.0670

> <Gold.PLP.part.nonpolar>
-29.1976

> <Gold.PLP.part.repulsive>
0.2849

> <Gold.PLP.ligand.clash>
0.0000

> <Gold.PLP.ligand.torsion>
0.9749

> <Gold.PLP.Chemscore.Hbond>
2.7600

> <Gold.PLP.Chemscore.CHOScore>
0.0000

> <Gold.PLP.Chemscore.Metal>
0.0000

> <Gold.Chemscore.Hbonds>
donor molecule, donor type, donor heavy atom, donor atom, acceptor molecule, acceptor atom, score
      L1  H    15    36       P1  8028  0.39
      P1  H  6931  6943       L1     5  0.96
      P1  H  6934  6947       L1     5  0.79

> <Gold.PLP.Chemscore.Internal.Correction>
0.0584

> <Gold.Rescore>
     Score         DG    S(hbond)    S(metal)    S(lipo)     H(rot)  DE(clash)    DE(int)     intcor
     16.82     -18.62       2.24        0.00      83.78       1.61       1.06       0.75       ----

> <Gold.Chemscore.Fitness>
16.8180

> <Gold.Chemscore.DG>
-18.6239

> <Gold.Chemscore.ZeroCoef>
-5.4800

> <Gold.Chemscore.Hbond>
2.2359

> <Gold.Chemscore.Metal>
0.0000

> <Gold.Chemscore.Lipo>
83.7822

> <Gold.Chemscore.Internal_Hbond>
0.0000

> <Gold.Chemscore.DEClash>
1.0556

> <Gold.Chemscore.DEInternal>
0.7503

> <Gold.Chemscore.Rot>
1.6120

> <Gold.Chemscore.Internal.Correction>
   9.000000E+99

> <Gold.Chemscore.Hbonds>
donor molecule, donor type, donor heavy atom, donor atom, acceptor molecule, acceptor atom, score
      L1  H    15    36       P1  8028  0.07
      P1  H  6931  6943       L1     5  0.69
      P1  H  6934  6947       L1     5  0.66

> <Gold.Chemscore.Hbond.Weighted>
-7.4681

> <Gold.Chemscore.Metal.Weighted>
-0.0000

> <Gold.Chemscore.Lipo.Weighted>
-9.8025

> <Gold.Chemscore.Internal_Hbond.Weighted>
0.0000

> <Gold.Chemscore.DEClash.Weighted>
1.0556

> <Gold.Chemscore.DEInternal.Weighted>
0.7503

> <Gold.Chemscore.Rot.Weighted>
4.1267

> <Gold.Chemscore.Internal.Correction.Weighted>
   9.000000E+99

> <Gold.Protein.RotatedTorsions>
[ 6907 6896 6895 6894 ] final   18.96 input  -60.11 | X-H torsion
[ 7974 7965 7964 7962 ] final  -34.60 input  175.53 | X-H torsion
[ 8008 7997 7996 7995 ] final -135.86 input   59.86 | X-H torsion
[ 10167 10162 10161 10158 ] final  136.60 input  -65.29 | X-H torsion
[ 10718 10713 10712 10709 ] final   -4.69 input   66.30 | X-H torsion
[ 10763 10752 10751 10750 ] final  -68.11 input  -60.55 | X-H torsion
[ 11005 11000 10999 10996 ] final  -41.85 input  -57.11 | X-H torsion

> <Gold.Protein.ActiveResidues>
 VAL166  LYS551  ARG553  GLY616  TRP617  ASP618  TYR619  PRO620  LYS621  CYS622 
 ASP623  PHE694  ASN695  SER759  ASP760  ASP761  ALA762  ILE779  LEU786  VAL792 
 PHE793  MET794  SER795  GLU796  ALA797  LYS798  CYS799  TRP800  GLU811  SER814 

> <Gold.Protein.RotatedAtoms>
  151.8734  135.0481  160.0481 H   0  0  0  0  0  0  0  0  0  0  0  0  # atno 6907 bound_to 6896
  152.2570  133.5260  159.5367 H   0  0  0  0  0  0  0  0  0  0  0  0  # atno 6908 bound_to 6896
  150.7103  134.0798  159.3936 H   0  0  0  0  0  0  0  0  0  0  0  0  # atno 6909 bound_to 6896
  146.0816  140.6058  142.8905 H   0  0  0  0  0  0  0  0  0  0  0  0  # atno 7974 bound_to 7965
  155.3856  140.0496  157.3042 H   0  0  0  0  0  0  0  0  0  0  0  0  # atno 8008 bound_to 7997
  154.5061  140.2175  155.9210 H   0  0  0  0  0  0  0  0  0  0  0  0  # atno 8009 bound_to 7997
  156.1527  140.3132  155.8680 H   0  0  0  0  0  0  0  0  0  0  0  0  # atno 8010 bound_to 7997
  139.5174  144.6455  151.5450 H   0  0  0  0  0  0  0  0  0  0  0  0  # atno 10167 bound_to 10162
  156.7576  130.5259  149.5791 H   0  0  0  0  0  0  0  0  0  0  0  0  # atno 10718 bound_to 10713
  154.3843  135.6067  153.5808 H   0  0  0  0  0  0  0  0  0  0  0  0  # atno 10763 bound_to 10752
  152.9788  135.5868  154.4373 H   0  0  0  0  0  0  0  0  0  0  0  0  # atno 10764 bound_to 10752
  154.4147  135.2845  155.1992 H   0  0  0  0  0  0  0  0  0  0  0  0  # atno 10765 bound_to 10752
  141.0275  133.6835  156.2514 H   0  0  0  0  0  0  0  0  0  0  0  0  # atno 11005 bound_to 11000
  144.7297  140.4634  143.6947 LP  0  0  0  0  0  0  0  0  0  0  0  0  # atno 17320 bound_to 7965
  145.6207  139.1524  143.3024 LP  0  0  0  0  0  0  0  0  0  0  0  0  # atno 17321 bound_to 7965
  140.6239  143.9206  150.6548 LP  0  0  0  0  0  0  0  0  0  0  0  0  # atno 17342 bound_to 10162
  140.2488  143.3608  152.1423 LP  0  0  0  0  0  0  0  0  0  0  0  0  # atno 17343 bound_to 10162
  156.1360  130.6211  151.0401 LP  0  0  0  0  0  0  0  0  0  0  0  0  # atno 17370 bound_to 10713
  157.6749  131.0852  150.7519 LP  0  0  0  0  0  0  0  0  0  0  0  0  # atno 17371 bound_to 10713
  140.6466  134.5111  157.5574 LP  0  0  0  0  0  0  0  0  0  0  0  0  # atno 17394 bound_to 11000
  139.9185  134.8196  156.1286 LP  0  0  0  0  0  0  0  0  0  0  0  0  # atno 17395 bound_to 11000

$$$$
