AV-unprocessed.smi:3158|AV-procd|sdf|12041|dock10
  -GOLD-   2272017463D 1   1.00000     0.00000
 Structure written by MMmdl.
 40 40  0  0  0  0  0  0  0  0  2 V2000
  148.6911  140.0549  154.5377 C   0  0  0  0  0  0  0  0  0  0  0  0
  149.6942  139.0893  153.8895 C   0  0  0  0  0  0  0  0  0  0  0  0
  150.2718  138.0485  154.8667 C   0  0  2  0  0  0  0  0  0  0  0  0
  151.7987  137.9341  154.7353 C   0  0  0  0  0  0  0  0  0  0  0  0
  149.6511  136.7453  154.6394 N   0  0  0  0  0  0  0  0  0  0  0  0
  149.7701  135.6752  155.4405 C   0  0  0  0  0  0  0  0  0  0  0  0
  150.4375  135.6757  156.4759 O   0  0  0  0  0  0  0  0  0  0  0  0
  149.0095  134.4134  155.0071 C   0  0  2  0  0  0  0  0  0  0  0  0
  150.0018  133.2769  154.7163 C   0  0  0  0  0  0  0  0  0  0  0  0
  148.1709  134.6621  153.8133 N   0  3  0  0  0  0  0  0  0  0  0  0
  147.5354  133.4611  153.2269 C   0  0  0  0  0  0  0  0  0  0  0  0
  147.3107  133.6273  151.7167 C   0  0  0  0  0  0  0  0  0  0  0  0
  146.0290  133.0877  151.3000 N   0  0  0  0  0  0  0  0  0  0  0  0
  145.7396  131.8165  150.8504 C   0  0  0  0  0  0  0  0  0  0  0  0
  144.3986  131.7713  150.5972 C   0  0  0  0  0  0  0  0  0  0  0  0
  143.9477  133.0801  150.9264 C   0  0  0  0  0  0  0  0  0  0  0  0
  144.9256  133.8651  151.3496 N   0  0  0  0  0  0  0  0  0  0  0  0
  148.3480  140.7967  153.8165 H   0  0  0  0  0  0  0  0  0  0  0  0
  149.1447  140.5898  155.3725 H   0  0  0  0  0  0  0  0  0  0  0  0
  147.8118  139.5307  154.9129 H   0  0  0  0  0  0  0  0  0  0  0  0
  149.2159  138.5839  153.0493 H   0  0  0  0  0  0  0  0  0  0  0  0
  150.5119  139.6729  153.4648 H   0  0  0  0  0  0  0  0  0  0  0  0
  150.0423  138.3827  155.8802 H   0  0  0  0  0  0  0  0  0  0  0  0
  152.2805  138.8948  154.9186 H   0  0  0  0  0  0  0  0  0  0  0  0
  152.0882  137.6027  153.7374 H   0  0  0  0  0  0  0  0  0  0  0  0
  152.2060  137.2229  155.4544 H   0  0  0  0  0  0  0  0  0  0  0  0
  149.0776  136.6578  153.8127 H   0  0  0  0  0  0  0  0  0  0  0  0
  148.3563  134.0950  155.8217 H   0  0  0  0  0  0  0  0  0  0  0  0
  150.6125  133.0481  155.5908 H   0  0  0  0  0  0  0  0  0  0  0  0
  150.6762  133.5330  153.8977 H   0  0  0  0  0  0  0  0  0  0  0  0
  149.4774  132.3621  154.4388 H   0  0  0  0  0  0  0  0  0  0  0  0
  147.4459  135.3175  154.0719 H   0  0  0  0  0  0  0  0  0  0  0  0
  148.1755  132.5984  153.4146 H   0  0  0  0  0  0  0  0  0  0  0  0
  146.5812  133.2594  153.7151 H   0  0  0  0  0  0  0  0  0  0  0  0
  147.3712  134.6779  151.4278 H   0  0  0  0  0  0  0  0  0  0  0  0
  148.0938  133.1056  151.1653 H   0  0  0  0  0  0  0  0  0  0  0  0
  146.5019  131.0577  150.7521 H   0  0  0  0  0  0  0  0  0  0  0  0
  143.8262  130.9310  150.2329 H   0  0  0  0  0  0  0  0  0  0  0  0
  142.9456  133.4795  150.8723 H   0  0  0  0  0  0  0  0  0  0  0  0
  148.7455  135.0863  153.0995 H   0  0  0  0  0  0  0  0  0  0  0  0
  1  2  1  0  0  0  0
  1 18  1  0  0  0  0
  1 19  1  0  0  0  0
  1 20  1  0  0  0  0
  2  3  1  0  0  0  0
  2 21  1  0  0  0  0
  2 22  1  0  0  0  0
  3  4  1  0  0  0  0
  3  5  1  0  0  0  0
  3 23  1  0  0  0  0
  4 24  1  0  0  0  0
  4 25  1  0  0  0  0
  4 26  1  0  0  0  0
  5  6  1  0  0  0  0
  5 27  1  0  0  0  0
  6  7  2  0  0  0  0
  6  8  1  0  0  0  0
  8  9  1  0  0  0  0
  8 10  1  0  0  0  0
  8 28  1  0  0  0  0
  9 29  1  0  0  0  0
  9 30  1  0  0  0  0
  9 31  1  0  0  0  0
 10 11  1  0  0  0  0
 10 32  1  0  0  0  0
 10 40  1  0  0  0  0
 11 12  1  0  0  0  0
 11 33  1  0  0  0  0
 11 34  1  0  0  0  0
 12 13  1  0  0  0  0
 12 35  1  0  0  0  0
 12 36  1  0  0  0  0
 13 17  1  0  0  0  0
 13 14  1  0  0  0  0
 14 15  2  0  0  0  0
 14 37  1  0  0  0  0
 15 16  1  0  0  0  0
 15 38  1  0  0  0  0
 16 17  2  0  0  0  0
 16 39  1  0  0  0  0
M  CHG  1  10   1
M  END
> <s_m_source_file>
AV-unprocessed.smi

> <i_m_source_file_index>
3158

> <i_lp_mmshare_version>
43012

> <i_f3d_flags>
0

> <s_epik_input>
W0NIM11bQ0gyXVtDQEhdKFtDSDNdKVtOSF1DKD1PKVtDQEhdKFtDSDNdKVtOSF1bQ0gyXVtDSDJdbjFbY0hdW2NIXVtjSF1uMQ==

> <s_epik_cmdline>
J2VwaWtfcHl0aG9uJywgJy1waCcsICc3LjAnLCAnLXRuJywgJzgnLCAnLW1hJywgJzIwMCcsICctbWV0YWxfYmluZGluZycsICctaW1hZScsICc8aW5maWxlLm1hZT4nLCAnLW9tYWUnLCAnPG91dGZpbGUubWFlPic=

> <r_lp_tautomer_probability>
1

> <r_epik_Ionization_Penalty>
0.20724

> <r_epik_Ionization_Penalty_Charging>
0.207237

> <r_epik_Ionization_Penalty_Neutral>
3.33806e-06

> <r_epik_State_Penalty>
0.197234

> <r_epik_Charging_Adjusted_Penalty>
0.404471

> <i_epik_Tot_Q>
1

> <i_epik_Tot_abs_Q>
1

> <r_epik_Metal_State_Penalty>
0.197524

> <b_epik_Metal_Only>
0

> <s_lp_Force_Field>
OPLS_2005

> <r_lp_Energy>
5.42496

> <b_lp_Chiralities_Consistent>
1

> <s_lp_Variant>
AV-unprocessed.smi:3158-1

> <Gold.Version>
5.8.1

> <Gold.Id.Protein>
6NUR|6NUR_protein|mol2

> <Gold.PLP.Fitness>
42.0362

> <Gold.PLP.PLP>
-30.2463

> <Gold.PLP.part.hbond>
-2.0000

> <Gold.PLP.part.metal>
0.0000

> <Gold.PLP.part.buried>
-1.4007

> <Gold.PLP.part.nonpolar>
-26.2747

> <Gold.PLP.part.repulsive>
0.1504

> <Gold.PLP.ligand.clash>
0.0000

> <Gold.PLP.ligand.torsion>
1.6279

> <Gold.PLP.Chemscore.Hbond>
2.9760

> <Gold.PLP.Chemscore.CHOScore>
2.0000

> <Gold.PLP.Chemscore.Metal>
0.0000

> <Gold.Chemscore.Hbonds>
donor molecule, donor type, donor heavy atom, donor atom, acceptor molecule, acceptor atom, score
      L1  H     5    27       P1  7948  0.94
      L1  H    10    40       P1  7948  2.00
      L1  C    14    37       P1 10747  1.00
      L1  C    16    39       P1 10186  1.00

> <Gold.PLP.Chemscore.Internal.Correction>
0.1178

> <Gold.Rescore>
     Score         DG    S(hbond)    S(metal)    S(lipo)     H(rot)  DE(clash)    DE(int)     intcor
     11.44     -13.50       1.45        0.00      75.51       2.21       0.69       1.37       ----

> <Gold.Chemscore.Fitness>
11.4391

> <Gold.Chemscore.DG>
-13.5029

> <Gold.Chemscore.ZeroCoef>
-5.4800

> <Gold.Chemscore.Hbond>
1.4532

> <Gold.Chemscore.Metal>
0.0000

> <Gold.Chemscore.Lipo>
75.5142

> <Gold.Chemscore.Internal_Hbond>
0.0000

> <Gold.Chemscore.DEClash>
0.6902

> <Gold.Chemscore.DEInternal>
1.3736

> <Gold.Chemscore.Rot>
2.2132

> <Gold.Chemscore.Internal.Correction>
   9.000000E+99

> <Gold.Chemscore.Hbonds>
donor molecule, donor type, donor heavy atom, donor atom, acceptor molecule, acceptor atom, score
      L1  H     5    27       P1  7948  0.88
      L1  H    10    40       P1  7948  0.48

> <Gold.Chemscore.Hbond.Weighted>
-4.8536

> <Gold.Chemscore.Metal.Weighted>
-0.0000

> <Gold.Chemscore.Lipo.Weighted>
-8.8352

> <Gold.Chemscore.Internal_Hbond.Weighted>
0.0000

> <Gold.Chemscore.DEClash.Weighted>
0.6902

> <Gold.Chemscore.DEInternal.Weighted>
1.3736

> <Gold.Chemscore.Rot.Weighted>
5.6658

> <Gold.Chemscore.Internal.Correction.Weighted>
   9.000000E+99

> <Gold.Protein.RotatedTorsions>
[ 6907 6896 6895 6894 ] final  -48.12 input  -60.11 | X-H torsion
[ 7974 7965 7964 7962 ] final -146.40 input  175.53 | X-H torsion
[ 8008 7997 7996 7995 ] final  -22.35 input   59.86 | X-H torsion
[ 10167 10162 10161 10158 ] final -123.73 input  -65.29 | X-H torsion
[ 10718 10713 10712 10709 ] final   30.51 input   66.30 | X-H torsion
[ 10763 10752 10751 10750 ] final -166.79 input  -60.55 | X-H torsion
[ 11005 11000 10999 10996 ] final -144.23 input  -57.11 | X-H torsion

> <Gold.Protein.ActiveResidues>
 VAL166  LYS551  ARG553  GLY616  TRP617  ASP618  TYR619  PRO620  LYS621  CYS622 
 ASP623  PHE694  ASN695  SER759  ASP760  ASP761  ALA762  ILE779  LEU786  VAL792 
 PHE793  MET794  SER795  GLU796  ALA797  LYS798  CYS799  TRP800  GLU811  SER814 

> <Gold.Protein.RotatedAtoms>
  150.8938  134.8344  159.7311 H   0  0  0  0  0  0  0  0  0  0  0  0  # atno 6907 bound_to 6896
  152.4852  134.4608  159.9614 H   0  0  0  0  0  0  0  0  0  0  0  0  # atno 6908 bound_to 6896
  151.4667  133.3540  159.2852 H   0  0  0  0  0  0  0  0  0  0  0  0  # atno 6909 bound_to 6896
  144.8162  140.5460  143.5609 H   0  0  0  0  0  0  0  0  0  0  0  0  # atno 7974 bound_to 7965
  154.4649  140.2010  156.0144 H   0  0  0  0  0  0  0  0  0  0  0  0  # atno 8008 bound_to 7997
  156.0909  140.3258  155.7786 H   0  0  0  0  0  0  0  0  0  0  0  0  # atno 8009 bound_to 7997
  155.4958  140.0550  157.2937 H   0  0  0  0  0  0  0  0  0  0  0  0  # atno 8010 bound_to 7997
  140.0004  143.5547  152.2306 H   0  0  0  0  0  0  0  0  0  0  0  0  # atno 10167 bound_to 10162
  157.2606  130.7159  149.6452 H   0  0  0  0  0  0  0  0  0  0  0  0  # atno 10718 bound_to 10713
  154.6797  135.2952  154.9630 H   0  0  0  0  0  0  0  0  0  0  0  0  # atno 10763 bound_to 10752
  154.0629  135.6629  153.4818 H   0  0  0  0  0  0  0  0  0  0  0  0  # atno 10764 bound_to 10752
  153.0539  135.5156  154.7834 H   0  0  0  0  0  0  0  0  0  0  0  0  # atno 10765 bound_to 10752
  140.8045  134.2818  157.4965 H   0  0  0  0  0  0  0  0  0  0  0  0  # atno 11005 bound_to 11000
  145.5210  139.1476  143.3552 LP  0  0  0  0  0  0  0  0  0  0  0  0  # atno 17320 bound_to 7965
  146.2465  140.5351  142.8912 LP  0  0  0  0  0  0  0  0  0  0  0  0  # atno 17321 bound_to 7965
  139.6276  144.7639  151.2605 LP  0  0  0  0  0  0  0  0  0  0  0  0  # atno 17342 bound_to 10162
  140.7421  143.6536  150.8226 LP  0  0  0  0  0  0  0  0  0  0  0  0  # atno 17343 bound_to 10162
  155.9664  130.4399  150.5276 LP  0  0  0  0  0  0  0  0  0  0  0  0  # atno 17370 bound_to 10713
  157.3180  131.0676  151.1953 LP  0  0  0  0  0  0  0  0  0  0  0  0  # atno 17371 bound_to 10713
  139.8719  134.9448  156.3892 LP  0  0  0  0  0  0  0  0  0  0  0  0  # atno 17394 bound_to 11000
  140.9261  133.7611  155.9966 LP  0  0  0  0  0  0  0  0  0  0  0  0  # atno 17395 bound_to 11000

$$$$
