AV-unprocessed.smi:1304|AV-procd|sdf|5429|dock2
  -GOLD-   22720 4593D 1   1.00000     0.00000
 Structure written by MMmdl.
 47 48  0  0  0  0  0  0  0  0  1 V2000
  147.1342  139.4030  153.2941 C   0  0  0  0  0  0  0  0  0  0  0  0
  147.4692  139.5320  154.7911 C   0  0  0  0  0  0  0  0  0  0  0  0
  148.9004  140.0642  155.1220 C   0  0  1  0  0  0  0  0  0  0  0  0
  149.0676  141.3860  154.3244 C   0  0  0  0  0  0  0  0  0  0  0  0
  148.9743  140.4040  156.6467 C   0  0  0  0  0  0  0  0  0  0  0  0
  150.0679  141.3098  156.9976 N   0  0  0  0  0  0  0  0  0  0  0  0
  149.9926  142.3327  157.8625 C   0  0  0  0  0  0  0  0  0  0  0  0
  148.9777  142.6050  158.5047 O   0  0  0  0  0  0  0  0  0  0  0  0
  151.2660  143.1723  158.0279 C   0  0  0  0  0  0  0  0  0  0  0  0
  151.7559  143.1903  159.4159 N   0  0  0  0  0  0  0  0  0  0  0  0
  152.4689  142.0600  159.8629 C   0  0  0  0  0  0  0  0  0  0  0  0
  152.9560  141.9758  161.1110 C   0  0  0  0  0  0  0  0  0  0  0  0
  152.7338  143.0859  162.0069 C   0  0  0  0  0  0  0  0  0  0  0  0
  152.0507  144.1707  161.5905 C   0  0  0  0  0  0  0  0  0  0  0  0
  151.5140  144.2659  160.2281 C   0  0  0  0  0  0  0  0  0  0  0  0
  150.8857  145.2518  159.8404 O   0  0  0  0  0  0  0  0  0  0  0  0
  149.9409  139.0750  154.7203 N   0  0  0  0  0  0  0  0  0  0  0  0
  151.3280  139.4888  154.9642 C   0  0  0  0  0  0  0  0  0  0  0  0
  152.3392  138.4803  154.3922 C   0  0  0  0  0  0  0  0  0  0  0  0
  152.0963  137.1913  154.9427 O   0  0  0  0  0  0  0  0  0  0  0  0
  150.7773  136.7278  154.6795 C   0  0  0  0  0  0  0  0  0  0  0  0
  149.7554  137.7212  155.2576 C   0  0  0  0  0  0  0  0  0  0  0  0
  146.1220  139.0198  153.1634 H   0  0  0  0  0  0  0  0  0  0  0  0
  147.8088  138.7163  152.7832 H   0  0  0  0  0  0  0  0  0  0  0  0
  147.1834  140.3644  152.7839 H   0  0  0  0  0  0  0  0  0  0  0  0
  146.7167  140.1877  155.2297 H   0  0  0  0  0  0  0  0  0  0  0  0
  147.3039  138.5686  155.2735 H   0  0  0  0  0  0  0  0  0  0  0  0
  148.1964  142.0350  154.4184 H   0  0  0  0  0  0  0  0  0  0  0  0
  149.2136  141.1987  153.2604 H   0  0  0  0  0  0  0  0  0  0  0  0
  149.9216  141.9674  154.6719 H   0  0  0  0  0  0  0  0  0  0  0  0
  148.0293  140.8150  157.0021 H   0  0  0  0  0  0  0  0  0  0  0  0
  149.1390  139.4991  157.2302 H   0  0  0  0  0  0  0  0  0  0  0  0
  150.9453  141.1620  156.5201 H   0  0  0  0  0  0  0  0  0  0  0  0
  152.0243  142.7728  157.3534 H   0  0  0  0  0  0  0  0  0  0  0  0
  151.0869  144.1936  157.6851 H   0  0  0  0  0  0  0  0  0  0  0  0
  152.5861  141.2707  159.1346 H   0  0  0  0  0  0  0  0  0  0  0  0
  153.4963  141.0995  161.4376 H   0  0  0  0  0  0  0  0  0  0  0  0
  153.1159  143.0459  163.0162 H   0  0  0  0  0  0  0  0  0  0  0  0
  151.8937  144.9915  162.2749 H   0  0  0  0  0  0  0  0  0  0  0  0
  151.5322  140.4566  154.5093 H   0  0  0  0  0  0  0  0  0  0  0  0
  151.5097  139.5954  156.0334 H   0  0  0  0  0  0  0  0  0  0  0  0
  152.2701  138.4388  153.3041 H   0  0  0  0  0  0  0  0  0  0  0  0
  153.3571  138.7849  154.6366 H   0  0  0  0  0  0  0  0  0  0  0  0
  150.6324  136.6066  153.6048 H   0  0  0  0  0  0  0  0  0  0  0  0
  150.6479  135.7453  155.1331 H   0  0  0  0  0  0  0  0  0  0  0  0
  149.8534  137.7273  156.3430 H   0  0  0  0  0  0  0  0  0  0  0  0
  148.7598  137.3434  155.0331 H   0  0  0  0  0  0  0  0  0  0  0  0
  1  2  1  0  0  0  0
  1 23  1  0  0  0  0
  1 24  1  0  0  0  0
  1 25  1  0  0  0  0
  2  3  1  0  0  0  0
  2 26  1  0  0  0  0
  2 27  1  0  0  0  0
  3  4  1  0  0  0  0
  3  5  1  0  0  0  0
  3 17  1  0  0  0  0
  4 28  1  0  0  0  0
  4 29  1  0  0  0  0
  4 30  1  0  0  0  0
  5  6  1  0  0  0  0
  5 31  1  0  0  0  0
  5 32  1  0  0  0  0
  6  7  1  0  0  0  0
  6 33  1  0  0  0  0
  7  8  2  0  0  0  0
  7  9  1  0  0  0  0
  9 10  1  0  0  0  0
  9 34  1  0  0  0  0
  9 35  1  0  0  0  0
 10 15  1  0  0  0  0
 10 11  1  0  0  0  0
 11 12  2  0  0  0  0
 11 36  1  0  0  0  0
 12 13  1  0  0  0  0
 12 37  1  0  0  0  0
 13 14  2  0  0  0  0
 13 38  1  0  0  0  0
 14 15  1  0  0  0  0
 14 39  1  0  0  0  0
 15 16  2  0  0  0  0
 17 22  1  0  0  0  0
 17 18  1  0  0  0  0
 18 19  1  0  0  0  0
 18 40  1  0  0  0  0
 18 41  1  0  0  0  0
 19 20  1  0  0  0  0
 19 42  1  0  0  0  0
 19 43  1  0  0  0  0
 20 21  1  0  0  0  0
 21 22  1  0  0  0  0
 21 44  1  0  0  0  0
 21 45  1  0  0  0  0
 22 46  1  0  0  0  0
 22 47  1  0  0  0  0
M  END
> <s_m_source_file>
AV-unprocessed.smi

> <i_m_source_file_index>
1304

> <i_lp_mmshare_version>
43012

> <i_f3d_flags>
0

> <s_epik_input>
W0NIMl0xW0NIMl1PW0NIMl1bQ0gyXU4xW0NAQF0oW0NIM10pKFtDSDJdW0NIM10pW0NIMl1bTkhdQyg9TylbQ0gyXW4yW2NIXVtjSF1bY0hdW2NIXWMyPU8=

> <s_epik_cmdline>
J2VwaWtfcHl0aG9uJywgJy1waCcsICc3LjAnLCAnLXRuJywgJzgnLCAnLW1hJywgJzIwMCcsICctbWV0YWxfYmluZGluZycsICctaW1hZScsICc8aW5maWxlLm1hZT4nLCAnLW9tYWUnLCAnPG91dGZpbGUubWFlPic=

> <r_lp_tautomer_probability>
1

> <r_epik_Ionization_Penalty>
0.318667

> <r_epik_Ionization_Penalty_Charging>
3.55364e-07

> <r_epik_Ionization_Penalty_Neutral>
0.318667

> <r_epik_State_Penalty>
0.313095

> <r_epik_Charging_Adjusted_Penalty>
0.313095

> <i_epik_Tot_Q>
0

> <i_epik_Tot_abs_Q>
0

> <r_epik_Metal_State_Penalty>
0.313065

> <b_epik_Metal_Only>
0

> <s_lp_Force_Field>
OPLS_2005

> <r_lp_Energy>
51.6355

> <b_lp_Chiralities_Consistent>
1

> <s_lp_Variant>
AV-unprocessed.smi:1304-1

> <Gold.Version>
5.8.1

> <Gold.Id.Protein>
6NUR|6NUR_protein|mol2

> <Gold.PLP.Fitness>
46.6254

> <Gold.PLP.PLP>
-45.3896

> <Gold.PLP.part.hbond>
-1.0000

> <Gold.PLP.part.metal>
0.0000

> <Gold.PLP.part.buried>
-6.0444

> <Gold.PLP.part.nonpolar>
-38.4664

> <Gold.PLP.part.repulsive>
0.5515

> <Gold.PLP.ligand.clash>
0.0000

> <Gold.PLP.ligand.torsion>
0.7020

> <Gold.PLP.Chemscore.Hbond>
0.8320

> <Gold.PLP.Chemscore.CHOScore>
0.0000

> <Gold.PLP.Chemscore.Metal>
0.0000

> <Gold.Chemscore.Hbonds>
donor molecule, donor type, donor heavy atom, donor atom, acceptor molecule, acceptor atom, score
      P1  H 10752 10763       L1    20  0.64

> <Gold.PLP.Chemscore.Internal.Correction>
0.1438

> <Gold.Rescore>
     Score         DG    S(hbond)    S(metal)    S(lipo)     H(rot)  DE(clash)    DE(int)     intcor
     13.76     -14.85       0.89        0.00      97.53       1.95       0.39       0.70       ----

> <Gold.Chemscore.Fitness>
13.7610

> <Gold.Chemscore.DG>
-14.8509

> <Gold.Chemscore.ZeroCoef>
-5.4800

> <Gold.Chemscore.Hbond>
0.8850

> <Gold.Chemscore.Metal>
0.0000

> <Gold.Chemscore.Lipo>
97.5281

> <Gold.Chemscore.Internal_Hbond>
0.0000

> <Gold.Chemscore.DEClash>
0.3851

> <Gold.Chemscore.DEInternal>
0.7049

> <Gold.Chemscore.Rot>
1.9515

> <Gold.Chemscore.Internal.Correction>
   9.000000E+99

> <Gold.Chemscore.Hbonds>
donor molecule, donor type, donor heavy atom, donor atom, acceptor molecule, acceptor atom, score
      P1  H 10752 10763       L1    20  0.09

> <Gold.Chemscore.Hbond.Weighted>
-2.9560

> <Gold.Chemscore.Metal.Weighted>
-0.0000

> <Gold.Chemscore.Lipo.Weighted>
-11.4108

> <Gold.Chemscore.Internal_Hbond.Weighted>
0.0000

> <Gold.Chemscore.DEClash.Weighted>
0.3851

> <Gold.Chemscore.DEInternal.Weighted>
0.7049

> <Gold.Chemscore.Rot.Weighted>
4.9958

> <Gold.Chemscore.Internal.Correction.Weighted>
   9.000000E+99

> <Gold.Protein.RotatedTorsions>
[ 6907 6896 6895 6894 ] final  -13.07 input  -60.11 | X-H torsion
[ 7974 7965 7964 7962 ] final -108.93 input  175.53 | X-H torsion
[ 8008 7997 7996 7995 ] final -110.93 input   59.86 | X-H torsion
[ 10167 10162 10161 10158 ] final   56.65 input  -65.29 | X-H torsion
[ 10718 10713 10712 10709 ] final    4.21 input   66.30 | X-H torsion
[ 10763 10752 10751 10750 ] final   42.77 input  -60.55 | X-H torsion
[ 11005 11000 10999 10996 ] final  -93.37 input  -57.11 | X-H torsion

> <Gold.Protein.ActiveResidues>
 VAL166  LYS551  ARG553  GLY616  TRP617  ASP618  TYR619  PRO620  LYS621  CYS622 
 ASP623  PHE694  ASN695  SER759  ASP760  ASP761  ALA762  ILE779  LEU786  VAL792 
 PHE793  MET794  SER795  GLU796  ALA797  LYS798  CYS799  TRP800  GLU811  SER814 

> <Gold.Protein.RotatedAtoms>
  151.3606  135.0903  159.9432 H   0  0  0  0  0  0  0  0  0  0  0  0  # atno 6907 bound_to 6896
  152.5163  133.9262  159.7569 H   0  0  0  0  0  0  0  0  0  0  0  0  # atno 6908 bound_to 6896
  150.9655  133.6345  159.2776 H   0  0  0  0  0  0  0  0  0  0  0  0  # atno 6909 bound_to 6896
  145.1867  140.8996  143.3448 H   0  0  0  0  0  0  0  0  0  0  0  0  # atno 7974 bound_to 7965
  154.9820  140.0396  157.2282 H   0  0  0  0  0  0  0  0  0  0  0  0  # atno 8008 bound_to 7997
  154.7705  140.2801  155.6119 H   0  0  0  0  0  0  0  0  0  0  0  0  # atno 8009 bound_to 7997
  156.2920  140.2611  156.2506 H   0  0  0  0  0  0  0  0  0  0  0  0  # atno 8010 bound_to 7997
  140.2064  144.3934  150.6507 H   0  0  0  0  0  0  0  0  0  0  0  0  # atno 10167 bound_to 10162
  156.8893  130.5681  149.5650 H   0  0  0  0  0  0  0  0  0  0  0  0  # atno 10718 bound_to 10713
  152.9875  135.6122  154.3003 H   0  0  0  0  0  0  0  0  0  0  0  0  # atno 10763 bound_to 10752
  154.2723  135.2779  155.2734 H   0  0  0  0  0  0  0  0  0  0  0  0  # atno 10764 bound_to 10752
  154.5111  135.5841  153.6662 H   0  0  0  0  0  0  0  0  0  0  0  0  # atno 10765 bound_to 10752
  141.1499  133.7883  157.0150 H   0  0  0  0  0  0  0  0  0  0  0  0  # atno 11005 bound_to 11000
  145.0081  139.3535  143.6133 LP  0  0  0  0  0  0  0  0  0  0  0  0  # atno 17320 bound_to 7965
  146.3443  139.9333  142.8750 LP  0  0  0  0  0  0  0  0  0  0  0  0  # atno 17321 bound_to 7965
  140.6354  143.2194  151.6405 LP  0  0  0  0  0  0  0  0  0  0  0  0  # atno 17342 bound_to 10162
  139.5197  144.3246  152.0880 LP  0  0  0  0  0  0  0  0  0  0  0  0  # atno 17343 bound_to 10162
  156.0637  130.5685  150.9245 LP  0  0  0  0  0  0  0  0  0  0  0  0  # atno 17370 bound_to 10713
  157.6093  131.0937  150.8823 LP  0  0  0  0  0  0  0  0  0  0  0  0  # atno 17371 bound_to 10713
  140.0853  134.9624  157.1690 LP  0  0  0  0  0  0  0  0  0  0  0  0  # atno 17394 bound_to 11000
  140.3520  134.2588  155.7197 LP  0  0  0  0  0  0  0  0  0  0  0  0  # atno 17395 bound_to 11000

$$$$
