AV-unprocessed.smi:2862|AV-procd|sdf|11010|dock8
  -GOLD-   2272015473D 1   1.00000     0.00000
 Structure written by MMmdl.
 52 54  0  0  0  0  0  0  0  0  1 V2000
  153.0125  144.6063  157.3296 C   0  0  0  0  0  0  0  0  0  0  0  0
  151.9566  143.9781  158.2525 C   0  0  2  0  0  0  0  0  0  0  0  0
  150.9656  143.2590  157.4628 N   0  0  0  0  0  0  0  0  0  0  0  0
  150.7682  141.9294  157.4465 C   0  0  0  0  0  0  0  0  0  0  0  0
  151.4738  141.1412  158.0743 O   0  0  0  0  0  0  0  0  0  0  0  0
  149.5927  141.3867  156.6121 C   0  0  0  0  0  0  0  0  0  0  0  0
  149.6231  139.9276  156.3933 N   0  0  0  0  0  0  0  0  0  0  0  0
  150.5234  139.4497  155.4197 C   0  0  0  0  0  0  0  0  0  0  0  0
  150.5964  138.1508  155.0909 C   0  0  0  0  0  0  0  0  0  0  0  0
  149.7125  137.2257  155.7566 C   0  0  0  0  0  0  0  0  0  0  0  0
  148.8338  137.6756  156.6804 C   0  0  0  0  0  0  0  0  0  0  0  0
  147.9353  136.7735  157.4087 C   0  0  0  0  0  0  0  0  0  0  0  0
  146.9954  136.1945  156.8611 O   0  0  0  0  0  0  0  0  0  0  0  0
  148.1916  136.6342  158.7418 N   0  0  0  0  0  0  0  0  0  0  0  0
  149.4909  136.9640  159.3536 C   0  0  0  0  0  0  0  0  0  0  0  0
  147.2473  135.9806  159.6749 C   0  0  1  0  0  0  0  0  0  0  0  0
  147.6333  134.5133  159.9503 C   0  0  0  0  0  0  0  0  0  0  0  0
  147.0088  136.7426  160.9718 C   0  0  0  0  0  0  0  0  0  0  0  0
  147.6585  136.3036  162.2621 C   0  0  0  0  0  0  0  0  0  0  0  0
  146.1642  136.1574  162.0774 C   0  0  0  0  0  0  0  0  0  0  0  0
  148.7758  139.0985  157.0812 C   0  0  0  0  0  0  0  0  0  0  0  0
  148.0077  139.5458  157.9375 O   0  0  0  0  0  0  0  0  0  0  0  0
  151.3139  145.0298  159.1368 C   0  0  0  0  0  0  0  0  0  0  0  0
  151.9859  145.5123  160.3992 C   0  0  0  0  0  0  0  0  0  0  0  0
  150.7339  144.6662  160.4819 C   0  0  0  0  0  0  0  0  0  0  0  0
  153.7749  145.1293  157.9075 H   0  0  0  0  0  0  0  0  0  0  0  0
  152.5630  145.3260  156.6449 H   0  0  0  0  0  0  0  0  0  0  0  0
  153.5190  143.8483  156.7311 H   0  0  0  0  0  0  0  0  0  0  0  0
  152.4585  143.2636  158.9078 H   0  0  0  0  0  0  0  0  0  0  0  0
  150.3408  143.8267  156.9089 H   0  0  0  0  0  0  0  0  0  0  0  0
  148.6659  141.6786  157.1079 H   0  0  0  0  0  0  0  0  0  0  0  0
  149.5743  141.9099  155.6544 H   0  0  0  0  0  0  0  0  0  0  0  0
  151.1416  140.2039  154.9547 H   0  0  0  0  0  0  0  0  0  0  0  0
  151.2917  137.8081  154.3388 H   0  0  0  0  0  0  0  0  0  0  0  0
  149.7630  136.1749  155.5093 H   0  0  0  0  0  0  0  0  0  0  0  0
  150.3224  136.8687  158.6537 H   0  0  0  0  0  0  0  0  0  0  0  0
  149.7337  136.2975  160.1818 H   0  0  0  0  0  0  0  0  0  0  0  0
  149.4803  137.9828  159.7416 H   0  0  0  0  0  0  0  0  0  0  0  0
  146.2781  135.9136  159.1781 H   0  0  0  0  0  0  0  0  0  0  0  0
  146.8390  134.0022  160.4949 H   0  0  0  0  0  0  0  0  0  0  0  0
  148.5392  134.4256  160.5497 H   0  0  0  0  0  0  0  0  0  0  0  0
  147.7927  133.9678  159.0197 H   0  0  0  0  0  0  0  0  0  0  0  0
  146.9326  137.8202  160.8435 H   0  0  0  0  0  0  0  0  0  0  0  0
  148.2571  135.3949  162.2472 H   0  0  0  0  0  0  0  0  0  0  0  0
  148.0087  137.0820  162.9371 H   0  0  0  0  0  0  0  0  0  0  0  0
  145.5180  136.8390  162.6266 H   0  0  0  0  0  0  0  0  0  0  0  0
  145.7718  135.1519  161.9403 H   0  0  0  0  0  0  0  0  0  0  0  0
  150.7634  145.7859  158.5795 H   0  0  0  0  0  0  0  0  0  0  0  0
  152.9263  145.0451  160.6857 H   0  0  0  0  0  0  0  0  0  0  0  0
  151.8967  146.5691  160.6426 H   0  0  0  0  0  0  0  0  0  0  0  0
  149.8089  145.1579  160.7765 H   0  0  0  0  0  0  0  0  0  0  0  0
  150.8434  143.6374  160.8195 H   0  0  0  0  0  0  0  0  0  0  0  0
  1  2  1  0  0  0  0
  1 26  1  0  0  0  0
  1 27  1  0  0  0  0
  1 28  1  0  0  0  0
  2  3  1  0  0  0  0
  2 23  1  0  0  0  0
  2 29  1  0  0  0  0
  3  4  1  0  0  0  0
  3 30  1  0  0  0  0
  4  5  2  0  0  0  0
  4  6  1  0  0  0  0
  6  7  1  0  0  0  0
  6 31  1  0  0  0  0
  6 32  1  0  0  0  0
  7 21  1  0  0  0  0
  7  8  1  0  0  0  0
  8  9  2  0  0  0  0
  8 33  1  0  0  0  0
  9 10  1  0  0  0  0
  9 34  1  0  0  0  0
 10 11  2  0  0  0  0
 10 35  1  0  0  0  0
 11 12  1  0  0  0  0
 11 21  1  0  0  0  0
 12 13  2  0  0  0  0
 12 14  1  0  0  0  0
 14 15  1  0  0  0  0
 14 16  1  0  0  0  0
 15 36  1  0  0  0  0
 15 37  1  0  0  0  0
 15 38  1  0  0  0  0
 16 17  1  0  0  0  0
 16 18  1  0  0  0  0
 16 39  1  0  0  0  0
 17 40  1  0  0  0  0
 17 41  1  0  0  0  0
 17 42  1  0  0  0  0
 18 20  1  0  0  0  0
 18 19  1  0  0  0  0
 18 43  1  0  0  0  0
 19 20  1  0  0  0  0
 19 44  1  0  0  0  0
 19 45  1  0  0  0  0
 20 46  1  0  0  0  0
 20 47  1  0  0  0  0
 21 22  2  0  0  0  0
 23 25  1  0  0  0  0
 23 24  1  0  0  0  0
 23 48  1  0  0  0  0
 24 25  1  0  0  0  0
 24 49  1  0  0  0  0
 24 50  1  0  0  0  0
 25 51  1  0  0  0  0
 25 52  1  0  0  0  0
M  END
> <s_m_source_file>
AV-unprocessed.smi

> <i_m_source_file_index>
2862

> <i_lp_mmshare_version>
43012

> <i_f3d_flags>
0

> <s_epik_input>
W0NIMl0xW0NIMl1bQ0hdMVtDQEhdKFtDSDNdKVtOSF1DKD1PKVtDSDJdbjJbY0hdW2NIXVtjSF1jKGMyPU8pQyg9TylOKFtDSDNdKVtDQEhdKFtDSDNdKVtDSF0zW0NIMl1bQ0gyXTM=

> <s_epik_cmdline>
J2VwaWtfcHl0aG9uJywgJy1waCcsICc3LjAnLCAnLXRuJywgJzgnLCAnLW1hJywgJzIwMCcsICctbWV0YWxfYmluZGluZycsICctaW1hZScsICc8aW5maWxlLm1hZT4nLCAnLW9tYWUnLCAnPG91dGZpbGUubWFlPic=

> <r_lp_tautomer_probability>
1

> <r_epik_Ionization_Penalty>
4.00841e-08

> <r_epik_Ionization_Penalty_Charging>
2.07773e-08

> <r_epik_Ionization_Penalty_Neutral>
1.93069e-08

> <r_epik_State_Penalty>
-0

> <r_epik_Charging_Adjusted_Penalty>
2.07773e-08

> <i_epik_Tot_Q>
0

> <i_epik_Tot_abs_Q>
0

> <r_epik_Metal_State_Penalty>
-0

> <b_epik_Metal_Only>
0

> <s_lp_Force_Field>
OPLS_2005

> <r_lp_Energy>
59.7867

> <b_lp_Chiralities_Consistent>
1

> <s_lp_Variant>
AV-unprocessed.smi:2862-3

> <Gold.Version>
5.8.1

> <Gold.Id.Protein>
6NUR|6NUR_protein|mol2

> <Gold.PLP.Fitness>
42.8194

> <Gold.PLP.PLP>
-41.9566

> <Gold.PLP.part.hbond>
-1.4148

> <Gold.PLP.part.metal>
0.0000

> <Gold.PLP.part.buried>
-7.2819

> <Gold.PLP.part.nonpolar>
-34.2979

> <Gold.PLP.part.repulsive>
0.0008

> <Gold.PLP.ligand.clash>
0.0000

> <Gold.PLP.ligand.torsion>
3.2393

> <Gold.PLP.Chemscore.Hbond>
1.0000

> <Gold.PLP.Chemscore.CHOScore>
0.0000

> <Gold.PLP.Chemscore.Metal>
0.0000

> <Gold.Chemscore.Hbonds>
donor molecule, donor type, donor heavy atom, donor atom, acceptor molecule, acceptor atom, score
      L1  H     3    30       P1  8028  0.83

> <Gold.PLP.Chemscore.Internal.Correction>
4.3415

> <Gold.Rescore>
     Score         DG    S(hbond)    S(metal)    S(lipo)     H(rot)  DE(clash)    DE(int)     intcor
     13.96     -18.38       0.98        0.00     120.20       1.73       1.46       2.96       ----

> <Gold.Chemscore.Fitness>
13.9567

> <Gold.Chemscore.DG>
-18.3833

> <Gold.Chemscore.ZeroCoef>
-5.4800

> <Gold.Chemscore.Hbond>
0.9822

> <Gold.Chemscore.Metal>
0.0000

> <Gold.Chemscore.Lipo>
120.2048

> <Gold.Chemscore.Internal_Hbond>
0.0000

> <Gold.Chemscore.DEClash>
1.4629

> <Gold.Chemscore.DEInternal>
2.9638

> <Gold.Chemscore.Rot>
1.7348

> <Gold.Chemscore.Internal.Correction>
   9.000000E+99

> <Gold.Chemscore.Hbonds>
donor molecule, donor type, donor heavy atom, donor atom, acceptor molecule, acceptor atom, score
      L1  H     3    30       P1  8028  0.82

> <Gold.Chemscore.Hbond.Weighted>
-3.2805

> <Gold.Chemscore.Metal.Weighted>
-0.0000

> <Gold.Chemscore.Lipo.Weighted>
-14.0640

> <Gold.Chemscore.Internal_Hbond.Weighted>
0.0000

> <Gold.Chemscore.DEClash.Weighted>
1.4629

> <Gold.Chemscore.DEInternal.Weighted>
2.9638

> <Gold.Chemscore.Rot.Weighted>
4.4412

> <Gold.Chemscore.Internal.Correction.Weighted>
   9.000000E+99

> <Gold.Protein.RotatedTorsions>
[ 6907 6896 6895 6894 ] final  -22.03 input  -60.11 | X-H torsion
[ 7974 7965 7964 7962 ] final -167.72 input  175.53 | X-H torsion
[ 8008 7997 7996 7995 ] final  -34.96 input   59.86 | X-H torsion
[ 10167 10162 10161 10158 ] final -128.49 input  -65.29 | X-H torsion
[ 10718 10713 10712 10709 ] final   93.25 input   66.30 | X-H torsion
[ 10763 10752 10751 10750 ] final   59.13 input  -60.55 | X-H torsion
[ 11005 11000 10999 10996 ] final -168.16 input  -57.11 | X-H torsion

> <Gold.Protein.ActiveResidues>
 VAL166  LYS551  ARG553  GLY616  TRP617  ASP618  TYR619  PRO620  LYS621  CYS622 
 ASP623  PHE694  ASN695  SER759  ASP760  ASP761  ALA762  ILE779  LEU786  VAL792 
 PHE793  MET794  SER795  GLU796  ALA797  LYS798  CYS799  TRP800  GLU811  SER814 

> <Gold.Protein.RotatedAtoms>
  151.2245  135.0531  159.8962 H   0  0  0  0  0  0  0  0  0  0  0  0  # atno 6907 bound_to 6896
  152.5412  134.0604  159.8160 H   0  0  0  0  0  0  0  0  0  0  0  0  # atno 6908 bound_to 6896
  151.0775  133.5368  159.2654 H   0  0  0  0  0  0  0  0  0  0  0  0  # atno 6909 bound_to 6896
  144.7217  140.2476  143.6283 H   0  0  0  0  0  0  0  0  0  0  0  0  # atno 7974 bound_to 7965
  154.4107  140.1670  156.2134 H   0  0  0  0  0  0  0  0  0  0  0  0  # atno 8008 bound_to 7997
  155.9424  140.3407  155.6316 H   0  0  0  0  0  0  0  0  0  0  0  0  # atno 8009 bound_to 7997
  155.6972  140.0741  157.2415 H   0  0  0  0  0  0  0  0  0  0  0  0  # atno 8010 bound_to 7997
  139.9497  143.6069  152.2479 H   0  0  0  0  0  0  0  0  0  0  0  0  # atno 10167 bound_to 10162
  157.6955  131.0472  150.4005 H   0  0  0  0  0  0  0  0  0  0  0  0  # atno 10718 bound_to 10713
  152.9887  135.5582  154.5663 H   0  0  0  0  0  0  0  0  0  0  0  0  # atno 10763 bound_to 10752
  154.5072  135.2800  155.1374 H   0  0  0  0  0  0  0  0  0  0  0  0  # atno 10764 bound_to 10752
  154.2781  135.6350  153.5389 H   0  0  0  0  0  0  0  0  0  0  0  0  # atno 10765 bound_to 10752
  140.5452  134.5483  157.5109 H   0  0  0  0  0  0  0  0  0  0  0  0  # atno 11005 bound_to 11000
  145.8259  139.2064  143.1911 LP  0  0  0  0  0  0  0  0  0  0  0  0  # atno 17320 bound_to 7965
  146.0473  140.8105  142.9799 LP  0  0  0  0  0  0  0  0  0  0  0  0  # atno 17321 bound_to 7965
  139.6638  144.7662  151.1912 LP  0  0  0  0  0  0  0  0  0  0  0  0  # atno 17342 bound_to 10162
  140.7586  143.5969  150.8739 LP  0  0  0  0  0  0  0  0  0  0  0  0  # atno 17343 bound_to 10162
  156.4399  130.3989  149.6704 LP  0  0  0  0  0  0  0  0  0  0  0  0  # atno 17370 bound_to 10713
  156.3891  130.7618  151.2617 LP  0  0  0  0  0  0  0  0  0  0  0  0  # atno 17371 bound_to 10713
  139.9483  134.7662  156.0508 LP  0  0  0  0  0  0  0  0  0  0  0  0  # atno 17394 bound_to 11000
  141.1204  133.6614  156.3200 LP  0  0  0  0  0  0  0  0  0  0  0  0  # atno 17395 bound_to 11000

$$$$
