AV-unprocessed.smi:247|AV-procd|sdf|1890|dock3
  -GOLD-   2262020553D 1   1.00000     0.00000
 Structure written by MMmdl.
 61 65  0  0  0  0  0  0  0  0  1 V2000
  146.5250  131.5091  151.1765 O   0  0  0  0  0  0  0  0  0  0  0  0
  146.3589  131.5841  152.5791 C   0  0  0  0  0  0  0  0  0  0  0  0
  147.3212  130.6523  153.3673 C   0  0  0  0  0  0  0  0  0  0  0  0
  148.7566  131.2648  153.3154 C   0  0  0  0  0  0  0  0  0  0  0  0
  148.9113  132.5389  154.0035 N   0  0  0  0  0  0  0  0  0  0  0  0
  148.2085  133.6983  153.7589 C   0  0  0  0  0  0  0  0  0  0  0  0
  148.5188  134.7117  154.5204 N   0  0  0  0  0  0  0  0  0  0  0  0
  149.4975  134.2072  155.3662 C   0  0  0  0  0  0  0  0  0  0  0  0
  150.2513  134.7570  156.4364 C   0  0  0  0  0  0  0  0  0  0  0  0
  150.0990  136.0486  156.8164 N   0  0  0  0  0  0  0  0  0  0  0  0
  149.5465  136.1071  158.1589 C   0  0  0  0  0  0  0  0  0  0  0  0
  149.1611  137.5621  158.3717 C   0  0  0  0  0  0  0  0  0  0  0  0
  148.8773  138.0836  156.9629 C   0  0  0  0  0  0  0  0  0  0  0  0
  149.3211  136.9741  155.9815 C   0  0  1  0  0  0  0  0  0  0  0  0
  150.0890  137.5362  154.7318 C   0  0  1  0  0  0  0  0  0  0  0  0
  149.4098  138.7437  154.0393 C   0  0  0  0  0  0  0  0  0  0  0  0
  149.4136  139.8815  154.8972 O   0  0  0  0  0  0  0  0  0  0  0  0
  150.7220  140.3643  155.1831 C   0  0  0  0  0  0  0  0  0  0  0  0
  151.5630  139.2721  155.8637 C   0  0  0  0  0  0  0  0  0  0  0  0
  151.5468  137.9916  155.0163 C   0  0  1  0  0  0  0  0  0  0  0  0
  152.3594  137.0006  155.6100 O   0  0  0  0  0  0  0  0  0  0  0  0
  151.1549  133.9500  157.0528 N   0  0  0  0  0  0  0  0  0  0  0  0
  151.2896  132.6778  156.6664 C   0  0  0  0  0  0  0  0  0  0  0  0
  150.6440  132.0270  155.6959 N   0  0  0  0  0  0  0  0  0  0  0  0
  149.7521  132.8413  155.0617 C   0  0  0  0  0  0  0  0  0  0  0  0
  146.8132  130.4829  154.8226 C   0  0  0  0  0  0  0  0  0  0  0  0
  147.5852  129.3943  155.5893 C   0  0  0  0  0  0  0  0  0  0  0  0
  147.4956  128.1572  154.8929 O   0  0  0  0  0  0  0  0  0  0  0  0
  148.0785  128.2025  153.5959 C   0  0  0  0  0  0  0  0  0  0  0  0
  147.3517  129.2426  152.7215 C   0  0  0  0  0  0  0  0  0  0  0  0
  147.4448  131.5977  150.9785 H   0  0  0  0  0  0  0  0  0  0  0  0
  146.5050  132.6220  152.8799 H   0  0  0  0  0  0  0  0  0  0  0  0
  145.3190  131.3366  152.7924 H   0  0  0  0  0  0  0  0  0  0  0  0
  149.4949  130.5842  153.7362 H   0  0  0  0  0  0  0  0  0  0  0  0
  149.0587  131.4079  152.2770 H   0  0  0  0  0  0  0  0  0  0  0  0
  147.4545  133.7718  152.9888 H   0  0  0  0  0  0  0  0  0  0  0  0
  148.6626  135.4705  158.2307 H   0  0  0  0  0  0  0  0  0  0  0  0
  150.2680  135.7717  158.9050 H   0  0  0  0  0  0  0  0  0  0  0  0
  148.3102  137.6714  159.0448 H   0  0  0  0  0  0  0  0  0  0  0  0
  150.0016  138.1072  158.8032 H   0  0  0  0  0  0  0  0  0  0  0  0
  147.8189  138.3113  156.8317 H   0  0  0  0  0  0  0  0  0  0  0  0
  149.4329  139.0098  156.8134 H   0  0  0  0  0  0  0  0  0  0  0  0
  148.4222  136.4568  155.6474 H   0  0  0  0  0  0  0  0  0  0  0  0
  150.1251  136.7341  153.9932 H   0  0  0  0  0  0  0  0  0  0  0  0
  149.9317  138.9929  153.1140 H   0  0  0  0  0  0  0  0  0  0  0  0
  148.3915  138.5151  153.7322 H   0  0  0  0  0  0  0  0  0  0  0  0
  151.1991  140.6983  154.2604 H   0  0  0  0  0  0  0  0  0  0  0  0
  150.6430  141.2367  155.8318 H   0  0  0  0  0  0  0  0  0  0  0  0
  152.5857  139.6262  155.9979 H   0  0  0  0  0  0  0  0  0  0  0  0
  151.1728  139.0735  156.8620 H   0  0  0  0  0  0  0  0  0  0  0  0
  152.0212  138.2193  154.0604 H   0  0  0  0  0  0  0  0  0  0  0  0
  152.4210  137.1781  156.5362 H   0  0  0  0  0  0  0  0  0  0  0  0
  152.0179  132.0982  157.2143 H   0  0  0  0  0  0  0  0  0  0  0  0
  146.8477  131.4268  155.3656 H   0  0  0  0  0  0  0  0  0  0  0  0
  145.7623  130.1920  154.8152 H   0  0  0  0  0  0  0  0  0  0  0  0
  148.6296  129.6689  155.7382 H   0  0  0  0  0  0  0  0  0  0  0  0
  147.1531  129.2651  156.5816 H   0  0  0  0  0  0  0  0  0  0  0  0
  149.1461  128.4093  153.6701 H   0  0  0  0  0  0  0  0  0  0  0  0
  147.9889  127.2148  153.1434 H   0  0  0  0  0  0  0  0  0  0  0  0
  146.3363  128.8780  152.5642 H   0  0  0  0  0  0  0  0  0  0  0  0
  147.8103  129.2854  151.7330 H   0  0  0  0  0  0  0  0  0  0  0  0
  1  2  1  0  0  0  0
  1 31  1  0  0  0  0
  2  3  1  0  0  0  0
  2 32  1  0  0  0  0
  2 33  1  0  0  0  0
  3 30  1  0  0  0  0
  3  4  1  0  0  0  0
  3 26  1  0  0  0  0
  4  5  1  0  0  0  0
  4 34  1  0  0  0  0
  4 35  1  0  0  0  0
  5 25  1  0  0  0  0
  5  6  1  0  0  0  0
  6  7  2  0  0  0  0
  6 36  1  0  0  0  0
  7  8  1  0  0  0  0
  8 25  2  0  0  0  0
  8  9  1  0  0  0  0
  9 10  1  0  0  0  0
  9 22  2  0  0  0  0
 10 14  1  0  0  0  0
 10 11  1  0  0  0  0
 11 12  1  0  0  0  0
 11 37  1  0  0  0  0
 11 38  1  0  0  0  0
 12 13  1  0  0  0  0
 12 39  1  0  0  0  0
 12 40  1  0  0  0  0
 13 14  1  0  0  0  0
 13 41  1  0  0  0  0
 13 42  1  0  0  0  0
 14 15  1  0  0  0  0
 14 43  1  0  0  0  0
 15 20  1  0  0  0  0
 15 16  1  0  0  0  0
 15 44  1  0  0  0  0
 16 17  1  0  0  0  0
 16 45  1  0  0  0  0
 16 46  1  0  0  0  0
 17 18  1  0  0  0  0
 18 19  1  0  0  0  0
 18 47  1  0  0  0  0
 18 48  1  0  0  0  0
 19 20  1  0  0  0  0
 19 49  1  0  0  0  0
 19 50  1  0  0  0  0
 20 21  1  0  0  0  0
 20 51  1  0  0  0  0
 21 52  1  0  0  0  0
 22 23  1  0  0  0  0
 23 24  2  0  0  0  0
 23 53  1  0  0  0  0
 24 25  1  0  0  0  0
 26 27  1  0  0  0  0
 26 54  1  0  0  0  0
 26 55  1  0  0  0  0
 27 28  1  0  0  0  0
 27 56  1  0  0  0  0
 27 57  1  0  0  0  0
 28 29  1  0  0  0  0
 29 30  1  0  0  0  0
 29 58  1  0  0  0  0
 29 59  1  0  0  0  0
 30 60  1  0  0  0  0
 30 61  1  0  0  0  0
M  END
> <s_m_source_file>
AV-unprocessed.smi

> <i_m_source_file_index>
247

> <i_lp_mmshare_version>
43012

> <i_f3d_flags>
0

> <s_epik_input>
W0NIMl0xW0NIMl1PW0NIMl1bQ0gyXUMxKFtDSDJdW09IXSlbQ0gyXW4oW2NIXW4yKWMoYzIzKW5bY0hdbmMzTjRbQ0gyXVtDSDJdW0NIMl1bQ0BIXTRbQ0BASF01W0NIMl1PW0NIMl1bQ0gyXVtDQEhdNVtPSF0=

> <s_epik_cmdline>
J2VwaWtfcHl0aG9uJywgJy1waCcsICc3LjAnLCAnLXRuJywgJzgnLCAnLW1hJywgJzIwMCcsICctbWV0YWxfYmluZGluZycsICctaW1hZScsICc8aW5maWxlLm1hZT4nLCAnLW9tYWUnLCAnPG91dGZpbGUubWFlPic=

> <r_lp_tautomer_probability>
1

> <r_epik_Ionization_Penalty>
0.00362597

> <r_epik_Ionization_Penalty_Charging>
0

> <r_epik_Ionization_Penalty_Neutral>
0.00362597

> <r_epik_State_Penalty>
0.00241433

> <r_epik_Charging_Adjusted_Penalty>
0.00241433

> <i_epik_Tot_Q>
0

> <i_epik_Tot_abs_Q>
0

> <r_epik_Metal_State_Penalty>
-0

> <b_epik_Metal_Only>
0

> <s_lp_Force_Field>
OPLS_2005

> <r_lp_Energy>
64.2344

> <b_lp_Chiralities_Consistent>
1

> <s_lp_Variant>
AV-unprocessed.smi:247-3

> <Gold.Version>
5.8.1

> <Gold.Id.Protein>
6NUR|6NUR_protein|mol2

> <Gold.PLP.Fitness>
41.6046

> <Gold.PLP.PLP>
-36.5758

> <Gold.PLP.part.hbond>
-3.0000

> <Gold.PLP.part.metal>
0.0000

> <Gold.PLP.part.buried>
-2.6801

> <Gold.PLP.part.nonpolar>
-32.1972

> <Gold.PLP.part.repulsive>
0.2415

> <Gold.PLP.ligand.clash>
0.0000

> <Gold.PLP.ligand.torsion>
0.5376

> <Gold.PLP.Chemscore.Hbond>
2.0088

> <Gold.PLP.Chemscore.CHOScore>
0.0000

> <Gold.PLP.Chemscore.Metal>
0.0000

> <Gold.Chemscore.Hbonds>
donor molecule, donor type, donor heavy atom, donor atom, acceptor molecule, acceptor atom, score
      L1  H     1    31       P1 10747  0.98
      P1  H  6896  6908       L1    22  0.22
      P1  H 10752 10763       L1    21  0.75

> <Gold.PLP.Chemscore.Internal.Correction>
0.0774

> <Gold.Rescore>
     Score         DG    S(hbond)    S(metal)    S(lipo)     H(rot)  DE(clash)    DE(int)     intcor
      8.12     -11.56       1.77        0.00      71.99       3.23       0.05       3.39       ----

> <Gold.Chemscore.Fitness>
8.1175

> <Gold.Chemscore.DG>
-11.5606

> <Gold.Chemscore.ZeroCoef>
-5.4800

> <Gold.Chemscore.Hbond>
1.7728

> <Gold.Chemscore.Metal>
0.0000

> <Gold.Chemscore.Lipo>
71.9876

> <Gold.Chemscore.Internal_Hbond>
0.0000

> <Gold.Chemscore.DEClash>
0.0534

> <Gold.Chemscore.DEInternal>
3.3896

> <Gold.Chemscore.Rot>
3.2278

> <Gold.Chemscore.Internal.Correction>
   9.000000E+99

> <Gold.Chemscore.Hbonds>
donor molecule, donor type, donor heavy atom, donor atom, acceptor molecule, acceptor atom, score
      L1  H     1    31       P1 10747  0.92
      P1  H  6896  6908       L1    22  0.03
      P1  H 10752 10763       L1    21  0.73

> <Gold.Chemscore.Hbond.Weighted>
-5.9213

> <Gold.Chemscore.Metal.Weighted>
-0.0000

> <Gold.Chemscore.Lipo.Weighted>
-8.4225

> <Gold.Chemscore.Internal_Hbond.Weighted>
0.0000

> <Gold.Chemscore.DEClash.Weighted>
0.0534

> <Gold.Chemscore.DEInternal.Weighted>
3.3896

> <Gold.Chemscore.Rot.Weighted>
8.2633

> <Gold.Chemscore.Internal.Correction.Weighted>
   9.000000E+99

> <Gold.Protein.RotatedTorsions>
[ 6907 6896 6895 6894 ] final   92.43 input  -60.11 | X-H torsion
[ 7974 7965 7964 7962 ] final   76.14 input  175.53 | X-H torsion
[ 8008 7997 7996 7995 ] final -178.56 input   59.86 | X-H torsion
[ 10167 10162 10161 10158 ] final  -70.31 input  -65.29 | X-H torsion
[ 10718 10713 10712 10709 ] final  110.03 input   66.30 | X-H torsion
[ 10763 10752 10751 10750 ] final   61.56 input  -60.55 | X-H torsion
[ 11005 11000 10999 10996 ] final   -0.43 input  -57.11 | X-H torsion

> <Gold.Protein.ActiveResidues>
 VAL166  LYS551  ARG553  GLY616  TRP617  ASP618  TYR619  PRO620  LYS621  CYS622 
 ASP623  PHE694  ASN695  SER759  ASP760  ASP761  ALA762  ILE779  LEU786  VAL792 
 PHE793  MET794  SER795  GLU796  ALA797  LYS798  CYS799  TRP800  GLU811  SER814 

> <Gold.Protein.RotatedAtoms>
  152.5452  134.1504  159.8515 H   0  0  0  0  0  0  0  0  0  0  0  0  # atno 6907 bound_to 6896
  151.1531  133.4887  159.2602 H   0  0  0  0  0  0  0  0  0  0  0  0  # atno 6908 bound_to 6896
  151.1451  135.0210  159.8698 H   0  0  0  0  0  0  0  0  0  0  0  0  # atno 6909 bound_to 6896
  145.7066  139.2600  143.1675 H   0  0  0  0  0  0  0  0  0  0  0  0  # atno 7974 bound_to 7965
  156.0202  140.1259  157.0365 H   0  0  0  0  0  0  0  0  0  0  0  0  # atno 8008 bound_to 7997
  154.4308  140.1070  156.6023 H   0  0  0  0  0  0  0  0  0  0  0  0  # atno 8009 bound_to 7997
  155.5955  140.3470  155.4581 H   0  0  0  0  0  0  0  0  0  0  0  0  # atno 8010 bound_to 7997
  140.5363  143.2318  151.7171 H   0  0  0  0  0  0  0  0  0  0  0  0  # atno 10167 bound_to 10162
  157.6514  131.0925  150.6541 H   0  0  0  0  0  0  0  0  0  0  0  0  # atno 10718 bound_to 10713
  152.9954  135.5496  154.6053 H   0  0  0  0  0  0  0  0  0  0  0  0  # atno 10763 bound_to 10752
  154.5386  135.2818  155.1118 H   0  0  0  0  0  0  0  0  0  0  0  0  # atno 10764 bound_to 10752
  154.2405  135.6417  153.5258 H   0  0  0  0  0  0  0  0  0  0  0  0  # atno 10765 bound_to 10752
  140.6362  133.9530  155.8301 H   0  0  0  0  0  0  0  0  0  0  0  0  # atno 11005 bound_to 11000
  146.0750  140.7827  142.9669 LP  0  0  0  0  0  0  0  0  0  0  0  0  # atno 17320 bound_to 7965
  144.6953  140.3401  143.7201 LP  0  0  0  0  0  0  0  0  0  0  0  0  # atno 17321 bound_to 7965
  139.4972  144.4038  152.0153 LP  0  0  0  0  0  0  0  0  0  0  0  0  # atno 17342 bound_to 10162
  140.3144  144.3501  150.6025 LP  0  0  0  0  0  0  0  0  0  0  0  0  # atno 17343 bound_to 10162
  156.6852  130.4579  149.5616 LP  0  0  0  0  0  0  0  0  0  0  0  0  # atno 17370 bound_to 10713
  156.1901  130.6554  151.1051 LP  0  0  0  0  0  0  0  0  0  0  0  0  # atno 17371 bound_to 10713
  141.0640  134.0305  157.3620 LP  0  0  0  0  0  0  0  0  0  0  0  0  # atno 17394 bound_to 11000
  139.9097  135.0187  156.7640 LP  0  0  0  0  0  0  0  0  0  0  0  0  # atno 17395 bound_to 11000

$$$$
