AV-unprocessed.smi:2568|AV-procd|sdf|10092|dock4
  -GOLD-   2272014113D 1   1.00000     0.00000
 Structure written by MMmdl.
 25 26  0  0  0  0  0  0  0  0  2 V2000
  145.4157  134.3326  156.2132 C   0  0  0  0  0  0  0  0  0  0  0  0
  145.8413  134.3955  154.7860 C   0  0  0  0  0  0  0  0  0  0  0  0
  146.9841  134.9791  154.4284 N   0  0  0  0  0  0  0  0  0  0  0  0
  146.9771  134.8126  153.0891 N   0  0  0  0  0  0  0  0  0  0  0  0
  145.8702  134.1577  152.7304 C   0  0  0  0  0  0  0  0  0  0  0  0
  145.5654  133.8292  151.3029 C   0  0  2  0  0  0  0  0  0  0  0  0
  144.2224  134.4236  150.8363 C   0  0  0  0  0  0  0  0  0  0  0  0
  143.9285  133.9848  149.4582 N   0  3  0  0  0  0  0  0  0  0  0  0
  143.9625  132.5134  149.3409 C   0  0  0  0  0  0  0  0  0  0  0  0
  145.3060  131.9708  149.8593 C   0  0  0  0  0  0  0  0  0  0  0  0
  145.5169  132.4084  151.1980 O   0  0  0  0  0  0  0  0  0  0  0  0
  145.0961  133.8638  153.7711 N   0  0  0  0  0  0  0  0  0  0  0  0
  147.7186  135.1461  152.4897 H   0  0  0  0  0  0  0  0  0  0  0  0
  146.0550  134.9571  156.8385 H   0  0  0  0  0  0  0  0  0  0  0  0
  145.4725  133.3066  156.5770 H   0  0  0  0  0  0  0  0  0  0  0  0
  144.3878  134.6811  156.3167 H   0  0  0  0  0  0  0  0  0  0  0  0
  146.3787  134.2067  150.6798 H   0  0  0  0  0  0  0  0  0  0  0  0
  143.4126  134.0992  151.4915 H   0  0  0  0  0  0  0  0  0  0  0  0
  144.2489  135.5131  150.8720 H   0  0  0  0  0  0  0  0  0  0  0  0
  143.0165  134.3227  149.1853 H   0  0  0  0  0  0  0  0  0  0  0  0
  143.1383  132.0890  149.9157 H   0  0  0  0  0  0  0  0  0  0  0  0
  143.8084  132.2289  148.2998 H   0  0  0  0  0  0  0  0  0  0  0  0
  145.3039  130.8808  149.8396 H   0  0  0  0  0  0  0  0  0  0  0  0
  146.1300  132.2991  149.2239 H   0  0  0  0  0  0  0  0  0  0  0  0
  144.6234  134.3752  148.8378 H   0  0  0  0  0  0  0  0  0  0  0  0
  1  2  1  0  0  0  0
  1 14  1  0  0  0  0
  1 15  1  0  0  0  0
  1 16  1  0  0  0  0
  2 12  1  0  0  0  0
  2  3  2  0  0  0  0
  3  4  1  0  0  0  0
  4 13  1  0  0  0  0
  4  5  1  0  0  0  0
  5  6  1  0  0  0  0
  5 12  2  0  0  0  0
  6 11  1  0  0  0  0
  6  7  1  0  0  0  0
  6 17  1  0  0  0  0
  7  8  1  0  0  0  0
  7 18  1  0  0  0  0
  7 19  1  0  0  0  0
  8  9  1  0  0  0  0
  8 20  1  0  0  0  0
  8 25  1  0  0  0  0
  9 10  1  0  0  0  0
  9 21  1  0  0  0  0
  9 22  1  0  0  0  0
 10 11  1  0  0  0  0
 10 23  1  0  0  0  0
 10 24  1  0  0  0  0
M  CHG  1   8   1
M  END
> <s_m_source_file>
AV-unprocessed.smi

> <i_m_source_file_index>
2568

> <i_lp_mmshare_version>
43012

> <i_f3d_flags>
0

> <s_epik_input>
W0NIM11jMW5bbkhdYyhuMSlbQ0BASF0yW0NIMl1bTkhdW0NIMl1bQ0gyXU8y

> <s_epik_cmdline>
J2VwaWtfcHl0aG9uJywgJy1waCcsICc3LjAnLCAnLXRuJywgJzgnLCAnLW1hJywgJzIwMCcsICctbWV0YWxfYmluZGluZycsICctaW1hZScsICc8aW5maWxlLm1hZT4nLCAnLW9tYWUnLCAnPG91dGZpbGUubWFlPic=

> <r_epik_Ionization_Penalty>
0.166663

> <r_epik_Ionization_Penalty_Charging>
0.125708

> <r_epik_Ionization_Penalty_Neutral>
0.0409555

> <r_epik_State_Penalty>
1.3004

> <r_epik_Charging_Adjusted_Penalty>
1.42611

> <i_epik_Tot_Q>
1

> <i_epik_Tot_abs_Q>
1

> <r_epik_Metal_State_Penalty>
1.60166

> <b_epik_Metal_Only>
0

> <s_lp_Force_Field>
OPLS_2005

> <r_lp_Energy>
12.4533

> <b_lp_Chiralities_Consistent>
1

> <s_lp_Variant>
AV-unprocessed.smi:2568-5

> <Gold.Version>
5.8.1

> <Gold.Id.Protein>
6NUR|6NUR_protein|mol2

> <Gold.PLP.Fitness>
28.8068

> <Gold.PLP.PLP>
-16.8287

> <Gold.PLP.part.hbond>
-3.0000

> <Gold.PLP.part.metal>
0.0000

> <Gold.PLP.part.buried>
-4.5230

> <Gold.PLP.part.nonpolar>
-11.3185

> <Gold.PLP.part.repulsive>
0.3827

> <Gold.PLP.ligand.clash>
0.0000

> <Gold.PLP.ligand.torsion>
0.0114

> <Gold.PLP.Chemscore.Hbond>
4.0000

> <Gold.PLP.Chemscore.CHOScore>
0.0000

> <Gold.PLP.Chemscore.Metal>
0.0000

> <Gold.Chemscore.Hbonds>
donor molecule, donor type, donor heavy atom, donor atom, acceptor molecule, acceptor atom, score
      L1  H     4    13       P1  7948  1.00
      L1  H     8    20       P1 10186  1.97
      L1  H     8    25       P1  7921  1.00

> <Gold.PLP.Chemscore.Internal.Correction>
0.0010

> <Gold.Rescore>
     Score         DG    S(hbond)    S(metal)    S(lipo)     H(rot)  DE(clash)    DE(int)     intcor
     16.90     -16.97       2.89        0.00      37.62       1.00       0.03       0.04       ----

> <Gold.Chemscore.Fitness>
16.8978

> <Gold.Chemscore.DG>
-16.9658

> <Gold.Chemscore.ZeroCoef>
-5.4800

> <Gold.Chemscore.Hbond>
2.8874

> <Gold.Chemscore.Metal>
0.0000

> <Gold.Chemscore.Lipo>
37.6237

> <Gold.Chemscore.Internal_Hbond>
0.0000

> <Gold.Chemscore.DEClash>
0.0282

> <Gold.Chemscore.DEInternal>
0.0398

> <Gold.Chemscore.Rot>
1.0000

> <Gold.Chemscore.Internal.Correction>
   9.000000E+99

> <Gold.Chemscore.Hbonds>
donor molecule, donor type, donor heavy atom, donor atom, acceptor molecule, acceptor atom, score
      L1  H     4    13       P1  7948  0.98
      L1  H     8    20       P1 10186  0.87
      L1  H     8    25       P1  7921  0.98

> <Gold.Chemscore.Hbond.Weighted>
-9.6439

> <Gold.Chemscore.Metal.Weighted>
-0.0000

> <Gold.Chemscore.Lipo.Weighted>
-4.4020

> <Gold.Chemscore.Internal_Hbond.Weighted>
0.0000

> <Gold.Chemscore.DEClash.Weighted>
0.0282

> <Gold.Chemscore.DEInternal.Weighted>
0.0398

> <Gold.Chemscore.Rot.Weighted>
2.5600

> <Gold.Chemscore.Internal.Correction.Weighted>
   9.000000E+99

> <Gold.Protein.RotatedTorsions>
[ 6907 6896 6895 6894 ] final  -84.09 input  -60.11 | X-H torsion
[ 7974 7965 7964 7962 ] final   52.33 input  175.53 | X-H torsion
[ 8008 7997 7996 7995 ] final   -0.03 input   59.86 | X-H torsion
[ 10167 10162 10161 10158 ] final   -3.27 input  -65.29 | X-H torsion
[ 10718 10713 10712 10709 ] final -126.38 input   66.30 | X-H torsion
[ 10763 10752 10751 10750 ] final -102.17 input  -60.55 | X-H torsion
[ 11005 11000 10999 10996 ] final   63.54 input  -57.11 | X-H torsion

> <Gold.Protein.ActiveResidues>
 VAL166  LYS551  ARG553  GLY616  TRP617  ASP618  TYR619  PRO620  LYS621  CYS622 
 ASP623  PHE694  ASN695  SER759  ASP760  ASP761  ALA762  ILE779  LEU786  VAL792 
 PHE793  MET794  SER795  GLU796  ALA797  LYS798  CYS799  TRP800  GLU811  SER814 

> <Gold.Protein.RotatedAtoms>
  150.6879  134.3411  159.4868 H   0  0  0  0  0  0  0  0  0  0  0  0  # atno 6907 bound_to 6896
  152.1264  134.9165  160.0570 H   0  0  0  0  0  0  0  0  0  0  0  0  # atno 6908 bound_to 6896
  152.0351  133.3919  159.4350 H   0  0  0  0  0  0  0  0  0  0  0  0  # atno 6909 bound_to 6896
  145.9824  139.4255  143.0124 H   0  0  0  0  0  0  0  0  0  0  0  0  # atno 7974 bound_to 7965
  154.6627  140.2594  155.7092 H   0  0  0  0  0  0  0  0  0  0  0  0  # atno 8008 bound_to 7997
  156.2625  140.2845  156.1026 H   0  0  0  0  0  0  0  0  0  0  0  0  # atno 8009 bound_to 7997
  155.1285  140.0378  157.2759 H   0  0  0  0  0  0  0  0  0  0  0  0  # atno 8010 bound_to 7997
  140.6883  143.6560  150.8308 H   0  0  0  0  0  0  0  0  0  0  0  0  # atno 10167 bound_to 10162
  156.1760  130.6700  151.0243 H   0  0  0  0  0  0  0  0  0  0  0  0  # atno 10718 bound_to 10713
  154.7713  135.4870  153.9655 H   0  0  0  0  0  0  0  0  0  0  0  0  # atno 10763 bound_to 10752
  153.1372  135.6765  153.9092 H   0  0  0  0  0  0  0  0  0  0  0  0  # atno 10764 bound_to 10752
  153.8777  135.3136  155.3423 H   0  0  0  0  0  0  0  0  0  0  0  0  # atno 10765 bound_to 10752
  140.0018  134.6430  155.9918 H   0  0  0  0  0  0  0  0  0  0  0  0  # atno 11005 bound_to 11000
  145.7750  140.9880  143.1129 LP  0  0  0  0  0  0  0  0  0  0  0  0  # atno 17320 bound_to 7965
  144.6865  139.9494  143.7477 LP  0  0  0  0  0  0  0  0  0  0  0  0  # atno 17321 bound_to 7965
  140.0270  143.5483  152.2776 LP  0  0  0  0  0  0  0  0  0  0  0  0  # atno 17342 bound_to 10162
  139.6262  144.7637  151.2633 LP  0  0  0  0  0  0  0  0  0  0  0  0  # atno 17343 bound_to 10162
  157.6836  131.0831  150.7304 LP  0  0  0  0  0  0  0  0  0  0  0  0  # atno 17370 bound_to 10713
  156.7362  130.4725  149.5488 LP  0  0  0  0  0  0  0  0  0  0  0  0  # atno 17371 bound_to 10713
  141.1647  133.6537  156.4440 LP  0  0  0  0  0  0  0  0  0  0  0  0  # atno 17394 bound_to 11000
  140.4714  134.6750  157.5131 LP  0  0  0  0  0  0  0  0  0  0  0  0  # atno 17395 bound_to 11000

$$$$
