AV-unprocessed.smi:265|AV-procd|sdf|2028|dock5
  -GOLD-   2262021233D 1   1.00000     0.00000
 Structure written by MMmdl.
 52 56  0  0  0  0  0  0  0  0  1 V2000
  153.1915  141.9766  160.1713 C   0  0  0  0  0  0  0  0  0  0  0  0
  151.9027  142.7648  159.8904 C   0  0  1  0  0  0  0  0  0  0  0  0
  151.6034  143.6635  160.9576 O   0  0  0  0  0  0  0  0  0  0  0  0
  151.2392  144.9401  160.4456 C   0  0  0  0  0  0  0  0  0  0  0  0
  150.9013  144.7043  158.9774 C   0  0  0  0  0  0  0  0  0  0  0  0
  151.8725  143.5982  158.5886 C   0  0  1  0  0  0  0  0  0  0  0  0
  153.1425  144.1803  158.3450 O   0  0  0  0  0  0  0  0  0  0  0  0
  151.5025  142.8223  157.2976 C   0  0  0  0  0  0  0  0  0  0  0  0
  150.1873  142.2006  157.3087 N   0  0  0  0  0  0  0  0  0  0  0  0
  149.2360  142.2947  158.2994 C   0  0  0  0  0  0  0  0  0  0  0  0
  148.1263  141.6477  158.0695 N   0  0  0  0  0  0  0  0  0  0  0  0
  148.3209  141.0716  156.8195 C   0  0  0  0  0  0  0  0  0  0  0  0
  147.5251  140.2509  155.9706 C   0  0  0  0  0  0  0  0  0  0  0  0
  146.2830  139.8251  156.3144 N   0  0  0  0  0  0  0  0  0  0  0  0
  146.2435  138.9242  157.4700 C   0  0  0  0  0  0  0  0  0  0  0  0
  144.8136  138.7872  158.0256 C   0  0  0  0  0  0  0  0  0  0  0  0
  143.8525  138.3760  156.9030 C   0  0  1  0  0  0  0  0  0  0  0  0
  142.5039  138.3364  157.3443 O   0  0  0  0  0  0  0  0  0  0  0  0
  141.6016  137.8062  156.3670 C   0  0  0  0  0  0  0  0  0  0  0  0
  141.8138  138.4131  154.9634 C   0  0  0  0  0  0  0  0  0  0  0  0
  140.9706  138.2376  154.0870 O   0  0  0  0  0  0  0  0  0  0  0  0
  142.9507  139.0892  154.7297 N   0  0  0  0  0  0  0  0  0  0  0  0
  143.9145  139.4148  155.7726 C   0  0  2  0  0  0  0  0  0  0  0  0
  145.3485  139.5121  155.2285 C   0  0  0  0  0  0  0  0  0  0  0  0
  148.0571  139.8928  154.7709 N   0  0  0  0  0  0  0  0  0  0  0  0
  149.2827  140.2990  154.4267 C   0  0  0  0  0  0  0  0  0  0  0  0
  150.1349  141.0574  155.1182 N   0  0  0  0  0  0  0  0  0  0  0  0
  149.6067  141.4242  156.3206 C   0  0  0  0  0  0  0  0  0  0  0  0
  144.1427  137.3887  156.5362 H   0  0  0  0  0  0  0  0  0  0  0  0
  143.6281  140.3903  156.1701 H   0  0  0  0  0  0  0  0  0  0  0  0
  153.4200  141.2959  159.3510 H   0  0  0  0  0  0  0  0  0  0  0  0
  153.0880  141.3801  161.0777 H   0  0  0  0  0  0  0  0  0  0  0  0
  154.0468  142.6380  160.3110 H   0  0  0  0  0  0  0  0  0  0  0  0
  151.0705  142.0626  159.8875 H   0  0  0  0  0  0  0  0  0  0  0  0
  150.4075  145.3713  161.0031 H   0  0  0  0  0  0  0  0  0  0  0  0
  152.0934  145.6119  160.5387 H   0  0  0  0  0  0  0  0  0  0  0  0
  149.8701  144.3590  158.9133 H   0  0  0  0  0  0  0  0  0  0  0  0
  150.9912  145.6034  158.3664 H   0  0  0  0  0  0  0  0  0  0  0  0
  153.6126  144.2315  159.1629 H   0  0  0  0  0  0  0  0  0  0  0  0
  151.5494  143.4902  156.4363 H   0  0  0  0  0  0  0  0  0  0  0  0
  152.2405  142.0407  157.1119 H   0  0  0  0  0  0  0  0  0  0  0  0
  149.3936  142.8587  159.2073 H   0  0  0  0  0  0  0  0  0  0  0  0
  146.6127  137.9463  157.1584 H   0  0  0  0  0  0  0  0  0  0  0  0
  146.9046  139.2652  158.2656 H   0  0  0  0  0  0  0  0  0  0  0  0
  144.7929  138.0507  158.8293 H   0  0  0  0  0  0  0  0  0  0  0  0
  144.4953  139.7358  158.4602 H   0  0  0  0  0  0  0  0  0  0  0  0
  141.7359  136.7256  156.3044 H   0  0  0  0  0  0  0  0  0  0  0  0
  140.5774  137.9854  156.6949 H   0  0  0  0  0  0  0  0  0  0  0  0
  143.1139  139.4613  153.8053 H   0  0  0  0  0  0  0  0  0  0  0  0
  145.3958  140.2878  154.4627 H   0  0  0  0  0  0  0  0  0  0  0  0
  145.6392  138.5711  154.7585 H   0  0  0  0  0  0  0  0  0  0  0  0
  149.6307  139.9680  153.4594 H   0  0  0  0  0  0  0  0  0  0  0  0
  1  2  1  0  0  0  0
  1 31  1  0  0  0  0
  1 32  1  0  0  0  0
  1 33  1  0  0  0  0
  2  6  1  0  0  0  0
  2  3  1  0  0  0  0
  2 34  1  0  0  0  0
  3  4  1  0  0  0  0
  4  5  1  0  0  0  0
  4 35  1  0  0  0  0
  4 36  1  0  0  0  0
  5  6  1  0  0  0  0
  5 37  1  0  0  0  0
  5 38  1  0  0  0  0
  6  7  1  0  0  0  0
  6  8  1  0  0  0  0
  7 39  1  0  0  0  0
  8  9  1  0  0  0  0
  8 40  1  0  0  0  0
  8 41  1  0  0  0  0
  9 28  1  0  0  0  0
  9 10  1  0  0  0  0
 10 11  2  0  0  0  0
 10 42  1  0  0  0  0
 11 12  1  0  0  0  0
 12 28  2  0  0  0  0
 12 13  1  0  0  0  0
 13 14  1  0  0  0  0
 13 25  2  0  0  0  0
 14 24  1  0  0  0  0
 14 15  1  0  0  0  0
 15 16  1  0  0  0  0
 15 43  1  0  0  0  0
 15 44  1  0  0  0  0
 16 17  1  0  0  0  0
 16 45  1  0  0  0  0
 16 46  1  0  0  0  0
 17 29  1  0  0  0  0
 17 23  1  0  0  0  0
 17 18  1  0  0  0  0
 18 19  1  0  0  0  0
 19 20  1  0  0  0  0
 19 47  1  0  0  0  0
 19 48  1  0  0  0  0
 20 21  2  0  0  0  0
 20 22  1  0  0  0  0
 22 23  1  0  0  0  0
 22 49  1  0  0  0  0
 23 30  1  0  0  0  0
 23 24  1  0  0  0  0
 24 50  1  0  0  0  0
 24 51  1  0  0  0  0
 25 26  1  0  0  0  0
 26 27  2  0  0  0  0
 26 52  1  0  0  0  0
 27 28  1  0  0  0  0
M  END
> <s_m_source_file>
AV-unprocessed.smi

> <i_m_source_file_index>
265

> <i_lp_mmshare_version>
43012

> <i_f3d_flags>
0

> <s_epik_input>
W0NIMl0xW0NIMl1PW0NAQEhdKFtDSDNdKVtDQEBdMShbT0hdKVtDSDJdbihbY0hdbjIpYyhjMjMpbltjSF1uYzNOKFtDSDJdW0NIMl00KVtDSDJdW0NAQEhdKFtDQEhdNDUpW05IXUMoPU8pW0NIMl1PNQ==

> <s_epik_cmdline>
J2VwaWtfcHl0aG9uJywgJy1waCcsICc3LjAnLCAnLXRuJywgJzgnLCAnLW1hJywgJzIwMCcsICctbWV0YWxfYmluZGluZycsICctaW1hZScsICc8aW5maWxlLm1hZT4nLCAnLW9tYWUnLCAnPG91dGZpbGUubWFlPic=

> <r_lp_tautomer_probability>
1

> <r_epik_Ionization_Penalty>
0.00221504

> <r_epik_Ionization_Penalty_Charging>
0

> <r_epik_Ionization_Penalty_Neutral>
0.00221504

> <r_epik_State_Penalty>
-0

> <r_epik_Charging_Adjusted_Penalty>
0

> <i_epik_Tot_Q>
0

> <i_epik_Tot_abs_Q>
0

> <r_epik_Metal_State_Penalty>
-0

> <b_epik_Metal_Only>
0

> <s_lp_Force_Field>
OPLS_2005

> <r_lp_Energy>
47.2889

> <b_lp_Chiralities_Consistent>
1

> <s_lp_Variant>
AV-unprocessed.smi:265-14

> <Gold.Version>
5.8.1

> <Gold.Id.Protein>
6NUR|6NUR_protein|mol2

> <Gold.PLP.Fitness>
38.9050

> <Gold.PLP.PLP>
-32.4993

> <Gold.PLP.part.hbond>
-2.0000

> <Gold.PLP.part.metal>
0.0000

> <Gold.PLP.part.buried>
-5.2619

> <Gold.PLP.part.nonpolar>
-25.5601

> <Gold.PLP.part.repulsive>
0.5060

> <Gold.PLP.ligand.clash>
0.0000

> <Gold.PLP.ligand.torsion>
0.3958

> <Gold.PLP.Chemscore.Hbond>
1.2574

> <Gold.PLP.Chemscore.CHOScore>
1.0000

> <Gold.PLP.Chemscore.Metal>
0.0000

> <Gold.Chemscore.Hbonds>
donor molecule, donor type, donor heavy atom, donor atom, acceptor molecule, acceptor atom, score
      L1  H    22    49       P1 10175  1.00
      P1  H  7989  7998       L1    27  0.22
      L1  C    26    52       P1  7957  1.00

> <Gold.PLP.Chemscore.Internal.Correction>
0.4251

> <Gold.Rescore>
     Score         DG    S(hbond)    S(metal)    S(lipo)     H(rot)  DE(clash)    DE(int)     intcor
     10.01     -11.27       0.99        0.00      70.30       2.25       0.04       1.22       ----

> <Gold.Chemscore.Fitness>
10.0121

> <Gold.Chemscore.DG>
-11.2739

> <Gold.Chemscore.ZeroCoef>
-5.4800

> <Gold.Chemscore.Hbond>
0.9930

> <Gold.Chemscore.Metal>
0.0000

> <Gold.Chemscore.Lipo>
70.3017

> <Gold.Chemscore.Internal_Hbond>
0.0000

> <Gold.Chemscore.DEClash>
0.0377

> <Gold.Chemscore.DEInternal>
1.2241

> <Gold.Chemscore.Rot>
2.2453

> <Gold.Chemscore.Internal.Correction>
   9.000000E+99

> <Gold.Chemscore.Hbonds>
donor molecule, donor type, donor heavy atom, donor atom, acceptor molecule, acceptor atom, score
      L1  H    22    49       P1 10175  1.00
      P1  H  7989  7998       L1    27  0.01

> <Gold.Chemscore.Hbond.Weighted>
-3.3165

> <Gold.Chemscore.Metal.Weighted>
-0.0000

> <Gold.Chemscore.Lipo.Weighted>
-8.2253

> <Gold.Chemscore.Internal_Hbond.Weighted>
0.0000

> <Gold.Chemscore.DEClash.Weighted>
0.0377

> <Gold.Chemscore.DEInternal.Weighted>
1.2241

> <Gold.Chemscore.Rot.Weighted>
5.7479

> <Gold.Chemscore.Internal.Correction.Weighted>
   9.000000E+99

> <Gold.Protein.RotatedTorsions>
[ 6907 6896 6895 6894 ] final  135.39 input  -60.11 | X-H torsion
[ 7974 7965 7964 7962 ] final  154.91 input  175.53 | X-H torsion
[ 8008 7997 7996 7995 ] final   27.09 input   59.86 | X-H torsion
[ 10167 10162 10161 10158 ] final   66.42 input  -65.29 | X-H torsion
[ 10718 10713 10712 10709 ] final   -1.49 input   66.30 | X-H torsion
[ 10763 10752 10751 10750 ] final -129.22 input  -60.55 | X-H torsion
[ 11005 11000 10999 10996 ] final  -71.21 input  -57.11 | X-H torsion

> <Gold.Protein.ActiveResidues>
 VAL166  LYS551  ARG553  GLY616  TRP617  ASP618  TYR619  PRO620  LYS621  CYS622 
 ASP623  PHE694  ASN695  SER759  ASP760  ASP761  ALA762  ILE779  LEU786  VAL792 
 PHE793  MET794  SER795  GLU796  ALA797  LYS798  CYS799  TRP800  GLU811  SER814 

> <Gold.Protein.RotatedAtoms>
  152.3009  133.5655  159.5617 H   0  0  0  0  0  0  0  0  0  0  0  0  # atno 6907 bound_to 6896
  150.7277  134.0292  159.3736 H   0  0  0  0  0  0  0  0  0  0  0  0  # atno 6908 bound_to 6896
  151.8192  135.0657  160.0474 H   0  0  0  0  0  0  0  0  0  0  0  0  # atno 6909 bound_to 6896
  144.8058  139.6997  143.6162 H   0  0  0  0  0  0  0  0  0  0  0  0  # atno 7974 bound_to 7965
  155.0374  140.3165  155.4736 H   0  0  0  0  0  0  0  0  0  0  0  0  # atno 8008 bound_to 7997
  156.2862  140.2169  156.5440 H   0  0  0  0  0  0  0  0  0  0  0  0  # atno 8009 bound_to 7997
  154.7319  140.0481  157.0721 H   0  0  0  0  0  0  0  0  0  0  0  0  # atno 8010 bound_to 7997
  140.1006  144.4907  150.7040 H   0  0  0  0  0  0  0  0  0  0  0  0  # atno 10167 bound_to 10162
  156.8048  130.5405  149.5716 H   0  0  0  0  0  0  0  0  0  0  0  0  # atno 10718 bound_to 10713
  154.8757  135.3902  154.3885 H   0  0  0  0  0  0  0  0  0  0  0  0  # atno 10763 bound_to 10752
  153.4624  135.7029  153.6048 H   0  0  0  0  0  0  0  0  0  0  0  0  # atno 10764 bound_to 10752
  153.4541  135.3827  155.2269 H   0  0  0  0  0  0  0  0  0  0  0  0  # atno 10765 bound_to 10752
  141.1588  133.6811  156.6871 H   0  0  0  0  0  0  0  0  0  0  0  0  # atno 11005 bound_to 11000
  146.2349  139.5886  142.9530 LP  0  0  0  0  0  0  0  0  0  0  0  0  # atno 17320 bound_to 7965
  145.5441  141.0418  143.2314 LP  0  0  0  0  0  0  0  0  0  0  0  0  # atno 17321 bound_to 7965
  140.6980  143.2416  151.4946 LP  0  0  0  0  0  0  0  0  0  0  0  0  # atno 17342 bound_to 10162
  139.5673  144.2011  152.1785 LP  0  0  0  0  0  0  0  0  0  0  0  0  # atno 17343 bound_to 10162
  156.1079  130.6018  151.0001 LP  0  0  0  0  0  0  0  0  0  0  0  0  # atno 17370 bound_to 10713
  157.6535  131.0893  150.7998 LP  0  0  0  0  0  0  0  0  0  0  0  0  # atno 17371 bound_to 10713
  140.3058  134.8126  157.4136 LP  0  0  0  0  0  0  0  0  0  0  0  0  # atno 17394 bound_to 11000
  140.1221  134.5206  155.8175 LP  0  0  0  0  0  0  0  0  0  0  0  0  # atno 17395 bound_to 11000

$$$$
