AV-unprocessed.smi:2393|AV-procd|sdf|9488|dock4
  -GOLD-   2272013113D 1   1.00000     0.00000
 Structure written by MMmdl.
 43 44  0  0  0  0  0  0  0  0  1 V2000
  144.3691  132.2885  150.3744 C   0  0  0  0  0  0  0  0  0  0  0  0
  144.2209  133.4242  151.3650 C   0  0  0  0  0  0  0  0  0  0  0  0
  142.9687  133.7317  151.9310 C   0  0  0  0  0  0  0  0  0  0  0  0
  142.8980  134.7982  152.8487 C   0  0  0  0  0  0  0  0  0  0  0  0
  141.5840  135.1846  153.4948 C   0  0  0  0  0  0  0  0  0  0  0  0
  143.9727  135.5315  153.2098 N   0  0  0  0  0  0  0  0  0  0  0  0
  145.1838  135.2439  152.6716 C   0  0  0  0  0  0  0  0  0  0  0  0
  146.3714  135.9599  152.9779 N   0  0  0  0  0  0  0  0  0  0  0  0
  146.5035  137.0601  153.7399 C   0  0  0  0  0  0  0  0  0  0  0  0
  145.5943  137.6056  154.3663 O   0  0  0  0  0  0  0  0  0  0  0  0
  147.7716  137.4972  153.7471 N   0  0  0  0  0  0  0  0  0  0  0  0
  148.2513  138.6655  154.4801 C   0  0  2  0  0  0  0  0  0  0  0  0
  148.0872  139.9261  153.6234 C   0  0  0  0  0  0  0  0  0  0  0  0
  148.6866  141.1435  154.3408 C   0  0  0  0  0  0  0  0  0  0  0  0
  150.0566  140.9089  154.6613 O   0  0  0  0  0  0  0  0  0  0  0  0
  150.3281  139.7795  155.4986 C   0  0  0  0  0  0  0  0  0  0  0  0
  151.8614  139.6749  155.5439 C   0  0  0  0  0  0  0  0  0  0  0  0
  149.7994  140.0167  156.9299 C   0  0  0  0  0  0  0  0  0  0  0  0
  149.7347  138.5019  154.8566 C   0  0  0  0  0  0  0  0  0  0  0  0
  145.3408  134.1934  151.7398 C   0  0  0  0  0  0  0  0  0  0  0  0
  143.4000  131.8648  150.1088 H   0  0  0  0  0  0  0  0  0  0  0  0
  144.9840  131.4956  150.8009 H   0  0  0  0  0  0  0  0  0  0  0  0
  144.8480  132.6416  149.4609 H   0  0  0  0  0  0  0  0  0  0  0  0
  142.0863  133.1660  151.6690 H   0  0  0  0  0  0  0  0  0  0  0  0
  140.7485  134.6507  153.0410 H   0  0  0  0  0  0  0  0  0  0  0  0
  141.4030  136.2541  153.3835 H   0  0  0  0  0  0  0  0  0  0  0  0
  141.6031  134.9481  154.5590 H   0  0  0  0  0  0  0  0  0  0  0  0
  147.2153  135.6007  152.5571 H   0  0  0  0  0  0  0  0  0  0  0  0
  148.4547  136.9881  153.2056 H   0  0  0  0  0  0  0  0  0  0  0  0
  147.6542  138.7866  155.3852 H   0  0  0  0  0  0  0  0  0  0  0  0
  148.5870  139.7929  152.6627 H   0  0  0  0  0  0  0  0  0  0  0  0
  147.0332  140.1034  153.4065 H   0  0  0  0  0  0  0  0  0  0  0  0
  148.6311  142.0179  153.6924 H   0  0  0  0  0  0  0  0  0  0  0  0
  148.1152  141.3898  155.2357 H   0  0  0  0  0  0  0  0  0  0  0  0
  152.1838  138.8265  156.1484 H   0  0  0  0  0  0  0  0  0  0  0  0
  152.3061  140.5743  155.9714 H   0  0  0  0  0  0  0  0  0  0  0  0
  152.2803  139.5476  154.5452 H   0  0  0  0  0  0  0  0  0  0  0  0
  150.0916  139.2014  157.5927 H   0  0  0  0  0  0  0  0  0  0  0  0
  148.7136  140.0862  156.9738 H   0  0  0  0  0  0  0  0  0  0  0  0
  150.2021  140.9398  157.3481 H   0  0  0  0  0  0  0  0  0  0  0  0
  149.8643  137.6509  155.5268 H   0  0  0  0  0  0  0  0  0  0  0  0
  150.2977  138.2627  153.9529 H   0  0  0  0  0  0  0  0  0  0  0  0
  146.3111  133.9752  151.3172 H   0  0  0  0  0  0  0  0  0  0  0  0
  1  2  1  0  0  0  0
  1 21  1  0  0  0  0
  1 22  1  0  0  0  0
  1 23  1  0  0  0  0
  2 20  1  0  0  0  0
  2  3  2  0  0  0  0
  3  4  1  0  0  0  0
  3 24  1  0  0  0  0
  4  5  1  0  0  0  0
  4  6  2  0  0  0  0
  5 25  1  0  0  0  0
  5 26  1  0  0  0  0
  5 27  1  0  0  0  0
  6  7  1  0  0  0  0
  7  8  1  0  0  0  0
  7 20  2  0  0  0  0
  8  9  1  0  0  0  0
  8 28  1  0  0  0  0
  9 10  2  0  0  0  0
  9 11  1  0  0  0  0
 11 12  1  0  0  0  0
 11 29  1  0  0  0  0
 12 19  1  0  0  0  0
 12 13  1  0  0  0  0
 12 30  1  0  0  0  0
 13 14  1  0  0  0  0
 13 31  1  0  0  0  0
 13 32  1  0  0  0  0
 14 15  1  0  0  0  0
 14 33  1  0  0  0  0
 14 34  1  0  0  0  0
 15 16  1  0  0  0  0
 16 17  1  0  0  0  0
 16 18  1  0  0  0  0
 16 19  1  0  0  0  0
 17 35  1  0  0  0  0
 17 36  1  0  0  0  0
 17 37  1  0  0  0  0
 18 38  1  0  0  0  0
 18 39  1  0  0  0  0
 18 40  1  0  0  0  0
 19 41  1  0  0  0  0
 19 42  1  0  0  0  0
 20 43  1  0  0  0  0
M  END
> <s_m_source_file>
AV-unprocessed.smi

> <i_m_source_file_index>
2393

> <i_lp_mmshare_version>
43012

> <i_f3d_flags>
0

> <s_epik_input>
W0NIM11jMVtjSF1jKFtDSDNdKW5jKFtjSF0xKVtOSF1DKD1PKVtOSF1bQ0BASF0oW0NIMl0yKVtDSDJdW0NIMl1PQzIoW0NIM10pW0NIM10=

> <s_epik_cmdline>
J2VwaWtfcHl0aG9uJywgJy1waCcsICc3LjAnLCAnLXRuJywgJzgnLCAnLW1hJywgJzIwMCcsICctbWV0YWxfYmluZGluZycsICctaW1hZScsICc8aW5maWxlLm1hZT4nLCAnLW9tYWUnLCAnPG91dGZpbGUubWFlPic=

> <r_lp_tautomer_probability>
1

> <r_epik_Ionization_Penalty>
0.000261351

> <r_epik_Ionization_Penalty_Charging>
0

> <r_epik_Ionization_Penalty_Neutral>
0.000261351

> <r_epik_State_Penalty>
-0

> <r_epik_Charging_Adjusted_Penalty>
0

> <i_epik_Tot_Q>
0

> <i_epik_Tot_abs_Q>
0

> <r_epik_Metal_State_Penalty>
-0

> <b_epik_Metal_Only>
0

> <s_lp_Force_Field>
OPLS_2005

> <r_lp_Energy>
12.7135

> <b_lp_Chiralities_Consistent>
1

> <s_lp_Variant>
AV-unprocessed.smi:2393-1

> <Gold.Version>
5.8.1

> <Gold.Id.Protein>
6NUR|6NUR_protein|mol2

> <Gold.PLP.Fitness>
37.8967

> <Gold.PLP.PLP>
-31.0429

> <Gold.PLP.part.hbond>
-3.0000

> <Gold.PLP.part.metal>
0.0000

> <Gold.PLP.part.buried>
-1.5770

> <Gold.PLP.part.nonpolar>
-26.7147

> <Gold.PLP.part.repulsive>
0.2756

> <Gold.PLP.ligand.clash>
0.0000

> <Gold.PLP.ligand.torsion>
0.3773

> <Gold.PLP.Chemscore.Hbond>
2.5360

> <Gold.PLP.Chemscore.CHOScore>
0.0000

> <Gold.PLP.Chemscore.Metal>
0.0000

> <Gold.Chemscore.Hbonds>
donor molecule, donor type, donor heavy atom, donor atom, acceptor molecule, acceptor atom, score
      L1  H     8    28       P1  7948  0.83
      L1  H    11    29       P1  7948  1.00
      P1  H  7989  7998       L1    15  0.70

> <Gold.PLP.Chemscore.Internal.Correction>
0.0004

> <Gold.Rescore>
     Score         DG    S(hbond)    S(metal)    S(lipo)     H(rot)  DE(clash)    DE(int)     intcor
     16.55     -18.24       1.92        0.00      76.23       1.00       0.02       1.67       ----

> <Gold.Chemscore.Fitness>
16.5491

> <Gold.Chemscore.DG>
-18.2371

> <Gold.Chemscore.ZeroCoef>
-5.4800

> <Gold.Chemscore.Hbond>
1.9157

> <Gold.Chemscore.Metal>
0.0000

> <Gold.Chemscore.Lipo>
76.2273

> <Gold.Chemscore.Internal_Hbond>
0.0000

> <Gold.Chemscore.DEClash>
0.0222

> <Gold.Chemscore.DEInternal>
1.6658

> <Gold.Chemscore.Rot>
1.0000

> <Gold.Chemscore.Internal.Correction>
   9.000000E+99

> <Gold.Chemscore.Hbonds>
donor molecule, donor type, donor heavy atom, donor atom, acceptor molecule, acceptor atom, score
      L1  H     8    28       P1  7948  0.80
      L1  H    11    29       P1  7948  0.96
      P1  H  7989  7998       L1    15  0.21

> <Gold.Chemscore.Hbond.Weighted>
-6.3985

> <Gold.Chemscore.Metal.Weighted>
-0.0000

> <Gold.Chemscore.Lipo.Weighted>
-8.9186

> <Gold.Chemscore.Internal_Hbond.Weighted>
0.0000

> <Gold.Chemscore.DEClash.Weighted>
0.0222

> <Gold.Chemscore.DEInternal.Weighted>
1.6658

> <Gold.Chemscore.Rot.Weighted>
2.5600

> <Gold.Chemscore.Internal.Correction.Weighted>
   9.000000E+99

> <Gold.Protein.RotatedTorsions>
[ 6907 6896 6895 6894 ] final    4.57 input  -60.11 | X-H torsion
[ 7974 7965 7964 7962 ] final  127.71 input  175.53 | X-H torsion
[ 8008 7997 7996 7995 ] final   45.80 input   59.86 | X-H torsion
[ 10167 10162 10161 10158 ] final  -34.35 input  -65.29 | X-H torsion
[ 10718 10713 10712 10709 ] final -113.70 input   66.30 | X-H torsion
[ 10763 10752 10751 10750 ] final   29.45 input  -60.55 | X-H torsion
[ 11005 11000 10999 10996 ] final -162.58 input  -57.11 | X-H torsion

> <Gold.Protein.ActiveResidues>
 VAL166  LYS551  ARG553  GLY616  TRP617  ASP618  TYR619  PRO620  LYS621  CYS622 
 ASP623  PHE694  ASN695  SER759  ASP760  ASP761  ALA762  ILE779  LEU786  VAL792 
 PHE793  MET794  SER795  GLU796  ALA797  LYS798  CYS799  TRP800  GLU811  SER814 

> <Gold.Protein.RotatedAtoms>
  151.6435  135.1010  160.0145 H   0  0  0  0  0  0  0  0  0  0  0  0  # atno 6907 bound_to 6896
  152.4041  133.6857  159.6349 H   0  0  0  0  0  0  0  0  0  0  0  0  # atno 6908 bound_to 6896
  150.7937  133.8657  159.3285 H   0  0  0  0  0  0  0  0  0  0  0  0  # atno 6909 bound_to 6896
  145.0475  139.3911  143.5071 H   0  0  0  0  0  0  0  0  0  0  0  0  # atno 7974 bound_to 7965
  155.3418  140.3408  155.4239 H   0  0  0  0  0  0  0  0  0  0  0  0  # atno 8008 bound_to 7997
  156.1809  140.1663  156.8312 H   0  0  0  0  0  0  0  0  0  0  0  0  # atno 8009 bound_to 7997
  154.5332  140.0740  156.8365 H   0  0  0  0  0  0  0  0  0  0  0  0  # atno 8010 bound_to 7997
  140.7187  143.3554  151.2070 H   0  0  0  0  0  0  0  0  0  0  0  0  # atno 10167 bound_to 10162
  156.0783  130.5987  150.8678 H   0  0  0  0  0  0  0  0  0  0  0  0  # atno 10718 bound_to 10713
  153.0430  135.6489  154.0892 H   0  0  0  0  0  0  0  0  0  0  0  0  # atno 10763 bound_to 10752
  154.0595  135.2889  155.3329 H   0  0  0  0  0  0  0  0  0  0  0  0  # atno 10764 bound_to 10752
  154.6667  135.5371  153.8151 H   0  0  0  0  0  0  0  0  0  0  0  0  # atno 10765 bound_to 10752
  140.6077  134.4882  157.5212 H   0  0  0  0  0  0  0  0  0  0  0  0  # atno 11005 bound_to 11000
  146.3515  140.0108  142.8667 LP  0  0  0  0  0  0  0  0  0  0  0  0  # atno 17320 bound_to 7965
  145.1569  140.9652  143.4400 LP  0  0  0  0  0  0  0  0  0  0  0  0  # atno 17321 bound_to 7965
  139.7094  143.9401  152.2941 LP  0  0  0  0  0  0  0  0  0  0  0  0  # atno 17342 bound_to 10162
  139.9121  144.6850  150.8551 LP  0  0  0  0  0  0  0  0  0  0  0  0  # atno 17343 bound_to 10162
  157.5889  131.0945  150.9151 LP  0  0  0  0  0  0  0  0  0  0  0  0  # atno 17370 bound_to 10713
  156.9331  130.5357  149.5279 LP  0  0  0  0  0  0  0  0  0  0  0  0  # atno 17371 bound_to 10713
  139.9205  134.8158  156.1226 LP  0  0  0  0  0  0  0  0  0  0  0  0  # atno 17394 bound_to 11000
  141.0829  133.6746  156.2375 LP  0  0  0  0  0  0  0  0  0  0  0  0  # atno 17395 bound_to 11000

$$$$
