AV-unprocessed.smi:901|AV-procd|sdf|4092|dock2
  -GOLD-   22720 1583D 1   1.00000     0.00000
 Structure written by MMmdl.
 43 44  0  0  0  0  0  0  0  0  1 V2000
  151.8126  144.6350  160.0827 C   0  0  0  0  0  0  0  0  0  0  0  0
  151.8472  144.0379  158.6901 C   0  0  0  0  0  0  0  0  0  0  0  0
  152.7534  144.7635  157.7112 C   0  0  0  0  0  0  0  0  0  0  0  0
  151.1199  142.9514  158.3665 C   0  0  0  0  0  0  0  0  0  0  0  0
  151.0799  142.2741  157.0375 C   0  0  2  0  0  0  0  0  0  0  0  0
  149.8588  141.5631  156.4591 C   0  0  2  0  0  0  0  0  0  0  0  0
  148.5894  141.4408  157.2424 C   0  0  0  0  0  0  0  0  0  0  0  0
  148.3830  140.5241  158.0365 O   0  0  0  0  0  0  0  0  0  0  0  0
  147.7504  142.4719  157.0388 N   0  0  0  0  0  0  0  0  0  0  0  0
  146.4598  142.6810  157.5879 C   0  0  0  0  0  0  0  0  0  0  0  0
  145.3550  143.2939  156.9243 C   0  0  0  0  0  0  0  0  0  0  0  0
  144.3708  143.2708  157.8707 C   0  0  0  0  0  0  0  0  0  0  0  0
  144.8977  142.6860  159.0053 N   0  0  0  0  0  0  0  0  0  0  0  0
  144.2436  142.4401  160.2794 C   0  0  0  0  0  0  0  0  0  0  0  0
  145.0778  142.9572  161.4560 C   0  0  0  0  0  0  0  0  0  0  0  0
  144.4548  143.7347  162.3452 N   0  0  0  0  0  0  0  0  0  0  0  0
  146.2660  142.6600  161.5667 O   0  0  0  0  0  0  0  0  0  0  0  0
  146.1879  142.3237  158.8312 N   0  0  0  0  0  0  0  0  0  0  0  0
  151.0779  140.7617  156.9011 C   0  0  0  0  0  0  0  0  0  0  0  0
  151.9351  140.1171  155.8264 C   0  0  0  0  0  0  0  0  0  0  0  0
  151.0568  139.8647  158.1370 C   0  0  0  0  0  0  0  0  0  0  0  0
  151.4508  145.6626  160.0431 H   0  0  0  0  0  0  0  0  0  0  0  0
  152.8126  144.6400  160.5164 H   0  0  0  0  0  0  0  0  0  0  0  0
  151.1571  144.0705  160.7466 H   0  0  0  0  0  0  0  0  0  0  0  0
  152.4299  145.7989  157.6020 H   0  0  0  0  0  0  0  0  0  0  0  0
  152.7498  144.3081  156.7213 H   0  0  0  0  0  0  0  0  0  0  0  0
  153.7800  144.7637  158.0777 H   0  0  0  0  0  0  0  0  0  0  0  0
  150.5062  142.5049  159.1349 H   0  0  0  0  0  0  0  0  0  0  0  0
  151.6864  142.8204  156.3172 H   0  0  0  0  0  0  0  0  0  0  0  0
  149.7106  141.7039  155.3898 H   0  0  0  0  0  0  0  0  0  0  0  0
  148.0778  143.1967  156.4169 H   0  0  0  0  0  0  0  0  0  0  0  0
  145.2815  143.6929  155.9238 H   0  0  0  0  0  0  0  0  0  0  0  0
  143.3507  143.6237  157.8343 H   0  0  0  0  0  0  0  0  0  0  0  0
  143.2647  142.9213  160.2618 H   0  0  0  0  0  0  0  0  0  0  0  0
  144.0729  141.3691  160.4018 H   0  0  0  0  0  0  0  0  0  0  0  0
  144.9605  144.1030  163.1377 H   0  0  0  0  0  0  0  0  0  0  0  0
  143.4770  143.9533  162.2192 H   0  0  0  0  0  0  0  0  0  0  0  0
  151.5300  139.1431  155.5504 H   0  0  0  0  0  0  0  0  0  0  0  0
  152.9562  139.9827  156.1842 H   0  0  0  0  0  0  0  0  0  0  0  0
  151.9670  140.7390  154.9312 H   0  0  0  0  0  0  0  0  0  0  0  0
  150.6385  138.8890  157.8880 H   0  0  0  0  0  0  0  0  0  0  0  0
  150.4575  140.2913  158.9413 H   0  0  0  0  0  0  0  0  0  0  0  0
  152.0692  139.7194  158.5147 H   0  0  0  0  0  0  0  0  0  0  0  0
  1  2  1  0  0  0  0
  1 22  1  0  0  0  0
  1 23  1  0  0  0  0
  1 24  1  0  0  0  0
  2  3  1  0  0  0  0
  2  4  2  0  0  0  0
  3 25  1  0  0  0  0
  3 26  1  0  0  0  0
  3 27  1  0  0  0  0
  4  5  1  0  0  0  0
  4 28  1  0  0  0  0
  5 19  1  0  0  0  0
  5  6  1  0  0  0  0
  5 29  1  0  0  0  0
  6  7  1  0  0  0  0
  6 19  1  0  0  0  0
  6 30  1  0  0  0  0
  7  8  2  0  0  0  0
  7  9  1  0  0  0  0
  9 10  1  0  0  0  0
  9 31  1  0  0  0  0
 10 18  2  0  0  0  0
 10 11  1  0  0  0  0
 11 12  2  0  0  0  0
 11 32  1  0  0  0  0
 12 13  1  0  0  0  0
 12 33  1  0  0  0  0
 13 14  1  0  0  0  0
 13 18  1  0  0  0  0
 14 15  1  0  0  0  0
 14 34  1  0  0  0  0
 14 35  1  0  0  0  0
 15 16  1  0  0  0  0
 15 17  2  0  0  0  0
 16 36  1  0  0  0  0
 16 37  1  0  0  0  0
 19 20  1  0  0  0  0
 19 21  1  0  0  0  0
 20 38  1  0  0  0  0
 20 39  1  0  0  0  0
 20 40  1  0  0  0  0
 21 41  1  0  0  0  0
 21 42  1  0  0  0  0
 21 43  1  0  0  0  0
M  END
> <s_m_source_file>
AV-unprocessed.smi

> <i_m_source_file_index>
901

> <i_lp_mmshare_version>
43012

> <i_f3d_flags>
0

> <s_epik_input>
W0NIM11DKFtDSDNdKT1bQ0hdW0NAQEhdKEMxKFtDSDNdKVtDSDNdKVtDQEhdMUMoPU8pW05IXWMyW2NIXVtjSF1uKG4yKVtDSDJdQyg9TylbTkgyXQ==

> <s_epik_cmdline>
J2VwaWtfcHl0aG9uJywgJy1waCcsICc3LjAnLCAnLXRuJywgJzgnLCAnLW1hJywgJzIwMCcsICctbWV0YWxfYmluZGluZycsICctaW1hZScsICc8aW5maWxlLm1hZT4nLCAnLW9tYWUnLCAnPG91dGZpbGUubWFlPic=

> <r_lp_tautomer_probability>
1

> <r_epik_Ionization_Penalty>
1.01454e-05

> <r_epik_Ionization_Penalty_Charging>
0

> <r_epik_Ionization_Penalty_Neutral>
1.01454e-05

> <r_epik_State_Penalty>
-0

> <r_epik_Charging_Adjusted_Penalty>
0

> <i_epik_Tot_Q>
0

> <i_epik_Tot_abs_Q>
0

> <r_epik_Metal_State_Penalty>
-0

> <b_epik_Metal_Only>
0

> <s_lp_Force_Field>
OPLS_2005

> <r_lp_Energy>
21.7989

> <b_lp_Chiralities_Consistent>
1

> <s_lp_Variant>
AV-unprocessed.smi:901-3

> <Gold.Version>
5.8.1

> <Gold.Id.Protein>
6NUR|6NUR_protein|mol2

> <Gold.PLP.Fitness>
41.2427

> <Gold.PLP.PLP>
-37.6417

> <Gold.PLP.part.hbond>
-3.6200

> <Gold.PLP.part.metal>
0.0000

> <Gold.PLP.part.buried>
-5.7622

> <Gold.PLP.part.nonpolar>
-28.2584

> <Gold.PLP.part.repulsive>
0.2818

> <Gold.PLP.ligand.clash>
0.0000

> <Gold.PLP.ligand.torsion>
1.3619

> <Gold.PLP.Chemscore.Hbond>
2.0317

> <Gold.PLP.Chemscore.CHOScore>
0.0000

> <Gold.PLP.Chemscore.Metal>
0.0000

> <Gold.Chemscore.Hbonds>
donor molecule, donor type, donor heavy atom, donor atom, acceptor molecule, acceptor atom, score
      L1  H     9    31       P1  8028  1.00
      P1  H  6933  6944       L1    17  0.31
      P1  H  6934  6946       L1    17  0.64

> <Gold.PLP.Chemscore.Internal.Correction>
0.2298

> <Gold.Rescore>
     Score         DG    S(hbond)    S(metal)    S(lipo)     H(rot)  DE(clash)    DE(int)     intcor
     10.58     -16.04       1.75        0.00      86.81       2.13       0.24       5.22       ----

> <Gold.Chemscore.Fitness>
10.5794

> <Gold.Chemscore.DG>
-16.0412

> <Gold.Chemscore.ZeroCoef>
-5.4800

> <Gold.Chemscore.Hbond>
1.7542

> <Gold.Chemscore.Metal>
0.0000

> <Gold.Chemscore.Lipo>
86.8142

> <Gold.Chemscore.Internal_Hbond>
0.0000

> <Gold.Chemscore.DEClash>
0.2380

> <Gold.Chemscore.DEInternal>
5.2238

> <Gold.Chemscore.Rot>
2.1309

> <Gold.Chemscore.Internal.Correction>
   9.000000E+99

> <Gold.Chemscore.Hbonds>
donor molecule, donor type, donor heavy atom, donor atom, acceptor molecule, acceptor atom, score
      L1  H     9    31       P1  8028  0.30
      P1  H  6933  6944       L1    17  0.31
      P1  H  6934  6946       L1    17  0.59

> <Gold.Chemscore.Hbond.Weighted>
-5.8591

> <Gold.Chemscore.Metal.Weighted>
-0.0000

> <Gold.Chemscore.Lipo.Weighted>
-10.1573

> <Gold.Chemscore.Internal_Hbond.Weighted>
0.0000

> <Gold.Chemscore.DEClash.Weighted>
0.2380

> <Gold.Chemscore.DEInternal.Weighted>
5.2238

> <Gold.Chemscore.Rot.Weighted>
5.4552

> <Gold.Chemscore.Internal.Correction.Weighted>
   9.000000E+99

> <Gold.Protein.RotatedTorsions>
[ 6907 6896 6895 6894 ] final -133.85 input  -60.11 | X-H torsion
[ 7974 7965 7964 7962 ] final  114.45 input  175.53 | X-H torsion
[ 8008 7997 7996 7995 ] final   62.52 input   59.86 | X-H torsion
[ 10167 10162 10161 10158 ] final  -62.94 input  -65.29 | X-H torsion
[ 10718 10713 10712 10709 ] final  -86.81 input   66.30 | X-H torsion
[ 10763 10752 10751 10750 ] final  -40.54 input  -60.55 | X-H torsion
[ 11005 11000 10999 10996 ] final   38.75 input  -57.11 | X-H torsion

> <Gold.Protein.ActiveResidues>
 VAL166  LYS551  ARG553  GLY616  TRP617  ASP618  TYR619  PRO620  LYS621  CYS622 
 ASP623  PHE694  ASN695  SER759  ASP760  ASP761  ALA762  ILE779  LEU786  VAL792 
 PHE793  MET794  SER795  GLU796  ALA797  LYS798  CYS799  TRP800  GLU811  SER814 

> <Gold.Protein.RotatedAtoms>
  150.9789  133.6266  159.2725 H   0  0  0  0  0  0  0  0  0  0  0  0  # atno 6907 bound_to 6896
  151.3528  135.0887  159.9418 H   0  0  0  0  0  0  0  0  0  0  0  0  # atno 6908 bound_to 6896
  152.5209  133.9379  159.7666 H   0  0  0  0  0  0  0  0  0  0  0  0  # atno 6909 bound_to 6896
  145.2043  139.2937  143.4302 H   0  0  0  0  0  0  0  0  0  0  0  0  # atno 7974 bound_to 7965
  155.6156  140.3495  155.4636 H   0  0  0  0  0  0  0  0  0  0  0  0  # atno 8008 bound_to 7997
  156.0120  140.1235  157.0468 H   0  0  0  0  0  0  0  0  0  0  0  0  # atno 8009 bound_to 7997
  154.4284  140.1079  156.5829 H   0  0  0  0  0  0  0  0  0  0  0  0  # atno 8010 bound_to 7997
  140.5905  143.2341  151.6150 H   0  0  0  0  0  0  0  0  0  0  0  0  # atno 10167 bound_to 10162
  155.9988  130.4778  150.4771 H   0  0  0  0  0  0  0  0  0  0  0  0  # atno 10718 bound_to 10713
  153.9476  135.6754  153.4744 H   0  0  0  0  0  0  0  0  0  0  0  0  # atno 10763 bound_to 10752
  153.0900  135.4879  154.8669 H   0  0  0  0  0  0  0  0  0  0  0  0  # atno 10764 bound_to 10752
  154.7343  135.3145  154.8797 H   0  0  0  0  0  0  0  0  0  0  0  0  # atno 10765 bound_to 10752
  140.2095  134.3772  155.8056 H   0  0  0  0  0  0  0  0  0  0  0  0  # atno 11005 bound_to 11000
  146.3411  140.2298  142.8593 LP  0  0  0  0  0  0  0  0  0  0  0  0  # atno 17320 bound_to 7965
  144.9917  140.8553  143.5335 LP  0  0  0  0  0  0  0  0  0  0  0  0  # atno 17321 bound_to 7965
  139.5224  144.3163  152.0949 LP  0  0  0  0  0  0  0  0  0  0  0  0  # atno 17342 bound_to 10162
  140.2327  144.4352  150.6293 LP  0  0  0  0  0  0  0  0  0  0  0  0  # atno 17343 bound_to 10162
  157.2780  131.0601  151.2216 LP  0  0  0  0  0  0  0  0  0  0  0  0  # atno 17370 bound_to 10713
  157.3273  130.6967  149.6303 LP  0  0  0  0  0  0  0  0  0  0  0  0  # atno 17371 bound_to 10713
  141.2226  133.7135  156.8394 LP  0  0  0  0  0  0  0  0  0  0  0  0  # atno 17394 bound_to 11000
  140.1966  134.8927  157.3122 LP  0  0  0  0  0  0  0  0  0  0  0  0  # atno 17395 bound_to 11000

$$$$
