AV-unprocessed.smi:536|AV-procd|sdf|2862|dock5
  -GOLD-   2262023353D 1   1.00000     0.00000
 Structure written by MMmdl.
 46 48  0  0  0  0  0  0  0  0  1 V2000
  148.5440  141.4492  154.1581 C   0  0  0  0  0  0  0  0  0  0  0  0
  149.2724  140.7964  155.1822 O   0  0  0  0  0  0  0  0  0  0  0  0
  150.2485  141.6341  155.7782 C   0  0  0  0  0  0  0  0  0  0  0  0
  150.2181  141.4871  157.3080 C   0  0  0  0  0  0  0  0  0  0  0  0
  151.3557  140.7221  157.8074 N   0  0  0  0  0  0  0  0  0  0  0  0
  152.3586  141.1526  158.6150 C   0  0  0  0  0  0  0  0  0  0  0  0
  152.3682  142.4470  159.1270 N   0  0  0  0  0  0  0  0  0  0  0  0
  152.9599  142.7474  160.4279 C   0  0  0  0  0  0  0  0  0  0  0  0
  152.1269  143.6853  161.3217 C   0  0  0  0  0  0  0  0  0  0  0  0
  152.2220  145.1577  160.8939 C   0  0  0  0  0  0  0  0  0  0  0  0
  151.2733  145.5648  159.7539 C   0  0  0  0  0  0  0  0  0  0  0  0
  150.9771  144.4772  158.7080 C   0  0  0  0  0  0  0  0  0  0  0  0
  152.1899  143.6295  158.2885 C   0  0  0  0  0  0  0  0  0  0  0  0
  153.2931  140.2393  158.8901 N   0  0  0  0  0  0  0  0  0  0  0  0
  152.8357  139.1212  158.2082 C   0  0  0  0  0  0  0  0  0  0  0  0
  151.6709  139.3848  157.5634 C   0  0  0  0  0  0  0  0  0  0  0  0
  150.9593  138.3682  156.7780 C   0  0  0  0  0  0  0  0  0  0  0  0
  149.8947  138.5773  156.2005 O   0  0  0  0  0  0  0  0  0  0  0  0
  151.5947  137.1712  156.7607 N   0  0  0  0  0  0  0  0  0  0  0  0
  152.7687  136.8418  157.3818 C   0  0  0  0  0  0  0  0  0  0  0  0
  153.2183  135.7018  157.2691 O   0  0  0  0  0  0  0  0  0  0  0  0
  153.3970  137.8176  158.1154 N   0  0  0  0  0  0  0  0  0  0  0  0
  154.6525  137.5667  158.8260 C   0  0  0  0  0  0  0  0  0  0  0  0
  151.1481  136.4363  156.2317 H   0  0  0  0  0  0  0  0  0  0  0  0
  147.8061  140.7639  153.7414 H   0  0  0  0  0  0  0  0  0  0  0  0
  149.2015  141.7690  153.3487 H   0  0  0  0  0  0  0  0  0  0  0  0
  148.0139  142.3205  154.5448 H   0  0  0  0  0  0  0  0  0  0  0  0
  151.2335  141.3662  155.3957 H   0  0  0  0  0  0  0  0  0  0  0  0
  150.0633  142.6740  155.5051 H   0  0  0  0  0  0  0  0  0  0  0  0
  150.2168  142.4717  157.7742 H   0  0  0  0  0  0  0  0  0  0  0  0
  149.2932  141.0105  157.6299 H   0  0  0  0  0  0  0  0  0  0  0  0
  153.0929  141.8021  160.9560 H   0  0  0  0  0  0  0  0  0  0  0  0
  153.9633  143.1493  160.2828 H   0  0  0  0  0  0  0  0  0  0  0  0
  151.0894  143.3565  161.3919 H   0  0  0  0  0  0  0  0  0  0  0  0
  152.5291  143.6102  162.3325 H   0  0  0  0  0  0  0  0  0  0  0  0
  152.0174  145.7972  161.7534 H   0  0  0  0  0  0  0  0  0  0  0  0
  153.2508  145.3794  160.6074 H   0  0  0  0  0  0  0  0  0  0  0  0
  150.3237  145.8912  160.1794 H   0  0  0  0  0  0  0  0  0  0  0  0
  151.6888  146.4424  159.2573 H   0  0  0  0  0  0  0  0  0  0  0  0
  150.1816  143.8295  159.0757 H   0  0  0  0  0  0  0  0  0  0  0  0
  150.5660  144.9656  157.8239 H   0  0  0  0  0  0  0  0  0  0  0  0
  153.1004  144.2296  158.2707 H   0  0  0  0  0  0  0  0  0  0  0  0
  152.0364  143.2867  157.2644 H   0  0  0  0  0  0  0  0  0  0  0  0
  155.0380  136.5541  158.7038 H   0  0  0  0  0  0  0  0  0  0  0  0
  154.5151  137.7378  159.8941 H   0  0  0  0  0  0  0  0  0  0  0  0
  155.4232  138.2527  158.4731 H   0  0  0  0  0  0  0  0  0  0  0  0
  1  2  1  0  0  0  0
  1 25  1  0  0  0  0
  1 26  1  0  0  0  0
  1 27  1  0  0  0  0
  2  3  1  0  0  0  0
  3  4  1  0  0  0  0
  3 28  1  0  0  0  0
  3 29  1  0  0  0  0
  4  5  1  0  0  0  0
  4 30  1  0  0  0  0
  4 31  1  0  0  0  0
  5 16  1  0  0  0  0
  5  6  1  0  0  0  0
  6  7  1  0  0  0  0
  6 14  2  0  0  0  0
  7 13  1  0  0  0  0
  7  8  1  0  0  0  0
  8  9  1  0  0  0  0
  8 32  1  0  0  0  0
  8 33  1  0  0  0  0
  9 10  1  0  0  0  0
  9 34  1  0  0  0  0
  9 35  1  0  0  0  0
 10 11  1  0  0  0  0
 10 36  1  0  0  0  0
 10 37  1  0  0  0  0
 11 12  1  0  0  0  0
 11 38  1  0  0  0  0
 11 39  1  0  0  0  0
 12 13  1  0  0  0  0
 12 40  1  0  0  0  0
 12 41  1  0  0  0  0
 13 42  1  0  0  0  0
 13 43  1  0  0  0  0
 14 15  1  0  0  0  0
 15 22  1  0  0  0  0
 15 16  2  0  0  0  0
 16 17  1  0  0  0  0
 17 18  2  0  0  0  0
 17 19  1  0  0  0  0
 19 24  1  0  0  0  0
 19 20  1  0  0  0  0
 20 21  2  0  0  0  0
 20 22  1  0  0  0  0
 22 23  1  0  0  0  0
 23 44  1  0  0  0  0
 23 45  1  0  0  0  0
 23 46  1  0  0  0  0
M  END
> <s_m_source_file>
AV-unprocessed.smi

> <i_m_source_file_index>
536

> <i_lp_mmshare_version>
43012

> <i_f3d_flags>
0

> <s_epik_input>
W0NIM11uMWMoPU8pW25IXWMoPU8pYyhjMTIpbihbQ0gyXVtDSDJdT1tDSDNdKWMobjIpTjNbQ0gyXVtDSDJdW0NIMl1bQ0gyXVtDSDJdW0NIMl0z

> <s_epik_cmdline>
J2VwaWtfcHl0aG9uJywgJy1waCcsICc3LjAnLCAnLXRuJywgJzgnLCAnLW1hJywgJzIwMCcsICctbWV0YWxfYmluZGluZycsICctaW1hZScsICc8aW5maWxlLm1hZT4nLCAnLW9tYWUnLCAnPG91dGZpbGUubWFlPic=

> <r_lp_tautomer_probability>
1

> <r_epik_Ionization_Penalty>
0.000219348

> <r_epik_Ionization_Penalty_Charging>
2.05342e-05

> <r_epik_Ionization_Penalty_Neutral>
0.000198814

> <r_epik_State_Penalty>
-0

> <r_epik_Charging_Adjusted_Penalty>
2.05342e-05

> <i_epik_Tot_Q>
0

> <i_epik_Tot_abs_Q>
0

> <r_epik_Metal_State_Penalty>
0.0195159

> <b_epik_Metal_Only>
0

> <s_lp_Force_Field>
OPLS_2005

> <r_lp_Energy>
45.5568

> <b_lp_Chiralities_Consistent>
1

> <s_lp_Variant>
AV-unprocessed.smi:536-1

> <Gold.Version>
5.8.1

> <Gold.Id.Protein>
6NUR|6NUR_protein|mol2

> <Gold.PLP.Fitness>
42.6427

> <Gold.PLP.PLP>
-41.2087

> <Gold.PLP.part.hbond>
-1.5955

> <Gold.PLP.part.metal>
0.0000

> <Gold.PLP.part.buried>
-4.3207

> <Gold.PLP.part.nonpolar>
-35.3110

> <Gold.PLP.part.repulsive>
0.1942

> <Gold.PLP.ligand.clash>
0.0000

> <Gold.PLP.ligand.torsion>
1.2929

> <Gold.PLP.Chemscore.Hbond>
1.0000

> <Gold.PLP.Chemscore.CHOScore>
0.0000

> <Gold.PLP.Chemscore.Metal>
0.0000

> <Gold.Chemscore.Hbonds>
donor molecule, donor type, donor heavy atom, donor atom, acceptor molecule, acceptor atom, score
      P1  H 10752 10764       L1    21  1.00

> <Gold.PLP.Chemscore.Internal.Correction>
1.0198

> <Gold.Rescore>
     Score         DG    S(hbond)    S(metal)    S(lipo)     H(rot)  DE(clash)    DE(int)     intcor
     12.59     -16.57       0.98        0.00      98.60       1.46       0.26       3.71       ----

> <Gold.Chemscore.Fitness>
12.5875

> <Gold.Chemscore.DG>
-16.5651

> <Gold.Chemscore.ZeroCoef>
-5.4800

> <Gold.Chemscore.Hbond>
0.9807

> <Gold.Chemscore.Metal>
0.0000

> <Gold.Chemscore.Lipo>
98.6009

> <Gold.Chemscore.Internal_Hbond>
0.0000

> <Gold.Chemscore.DEClash>
0.2635

> <Gold.Chemscore.DEInternal>
3.7142

> <Gold.Chemscore.Rot>
1.4557

> <Gold.Chemscore.Internal.Correction>
   9.000000E+99

> <Gold.Chemscore.Hbonds>
donor molecule, donor type, donor heavy atom, donor atom, acceptor molecule, acceptor atom, score
      P1  H 10752 10764       L1    21  0.79

> <Gold.Chemscore.Hbond.Weighted>
-3.2755

> <Gold.Chemscore.Metal.Weighted>
-0.0000

> <Gold.Chemscore.Lipo.Weighted>
-11.5363

> <Gold.Chemscore.Internal_Hbond.Weighted>
0.0000

> <Gold.Chemscore.DEClash.Weighted>
0.2635

> <Gold.Chemscore.DEInternal.Weighted>
3.7142

> <Gold.Chemscore.Rot.Weighted>
3.7267

> <Gold.Chemscore.Internal.Correction.Weighted>
   9.000000E+99

> <Gold.Protein.RotatedTorsions>
[ 6907 6896 6895 6894 ] final   59.54 input  -60.11 | X-H torsion
[ 7974 7965 7964 7962 ] final   70.07 input  175.53 | X-H torsion
[ 8008 7997 7996 7995 ] final   19.45 input   59.86 | X-H torsion
[ 10167 10162 10161 10158 ] final -112.00 input  -65.29 | X-H torsion
[ 10718 10713 10712 10709 ] final  -83.28 input   66.30 | X-H torsion
[ 10763 10752 10751 10750 ] final   16.53 input  -60.55 | X-H torsion
[ 11005 11000 10999 10996 ] final   69.77 input  -57.11 | X-H torsion

> <Gold.Protein.ActiveResidues>
 VAL166  LYS551  ARG553  GLY616  TRP617  ASP618  TYR619  PRO620  LYS621  CYS622 
 ASP623  PHE694  ASN695  SER759  ASP760  ASP761  ALA762  ILE779  LEU786  VAL792 
 PHE793  MET794  SER795  GLU796  ALA797  LYS798  CYS799  TRP800  GLU811  SER814 

> <Gold.Protein.RotatedAtoms>
  152.3924  134.6420  160.0102 H   0  0  0  0  0  0  0  0  0  0  0  0  # atno 6907 bound_to 6896
  151.6650  133.3310  159.3191 H   0  0  0  0  0  0  0  0  0  0  0  0  # atno 6908 bound_to 6896
  150.7838  134.6848  159.6509 H   0  0  0  0  0  0  0  0  0  0  0  0  # atno 6909 bound_to 6896
  145.7827  139.2895  143.1256 H   0  0  0  0  0  0  0  0  0  0  0  0  # atno 7974 bound_to 7965
  154.9209  140.3027  155.5217 H   0  0  0  0  0  0  0  0  0  0  0  0  # atno 8008 bound_to 7997
  156.3010  140.2371  156.4195 H   0  0  0  0  0  0  0  0  0  0  0  0  # atno 8009 bound_to 7997
  154.8332  140.0417  157.1479 H   0  0  0  0  0  0  0  0  0  0  0  0  # atno 8010 bound_to 7997
  140.1274  143.4390  152.1650 H   0  0  0  0  0  0  0  0  0  0  0  0  # atno 10167 bound_to 10162
  156.0020  130.4661  150.4234 H   0  0  0  0  0  0  0  0  0  0  0  0  # atno 10718 bound_to 10713
  153.1422  135.6762  153.9010 H   0  0  0  0  0  0  0  0  0  0  0  0  # atno 10763 bound_to 10752
  153.8463  135.3099  155.3431 H   0  0  0  0  0  0  0  0  0  0  0  0  # atno 10764 bound_to 10752
  154.7796  135.4895  153.9901 H   0  0  0  0  0  0  0  0  0  0  0  0  # atno 10765 bound_to 10752
  139.9635  134.7020  156.0595 H   0  0  0  0  0  0  0  0  0  0  0  0  # atno 11005 bound_to 11000
  146.0058  140.8480  142.9996 LP  0  0  0  0  0  0  0  0  0  0  0  0  # atno 17320 bound_to 7965
  144.6794  140.2418  143.7343 LP  0  0  0  0  0  0  0  0  0  0  0  0  # atno 17321 bound_to 7965
  139.5537  144.7357  151.4358 LP  0  0  0  0  0  0  0  0  0  0  0  0  # atno 17342 bound_to 10162
  140.6837  143.8024  150.7156 LP  0  0  0  0  0  0  0  0  0  0  0  0  # atno 17343 bound_to 10162
  157.2288  131.0499  151.2504 LP  0  0  0  0  0  0  0  0  0  0  0  0  # atno 17370 bound_to 10713
  157.3731  130.7191  149.6578 LP  0  0  0  0  0  0  0  0  0  0  0  0  # atno 17371 bound_to 10713
  141.1314  133.6585  156.3474 LP  0  0  0  0  0  0  0  0  0  0  0  0  # atno 17394 bound_to 11000
  140.5447  134.6086  157.5390 LP  0  0  0  0  0  0  0  0  0  0  0  0  # atno 17395 bound_to 11000

$$$$
