AV-unprocessed.smi:3169|AV-procd|sdf|12104|dock5
  -GOLD-   2272017543D 1   1.00000     0.00000
 Structure written by MMmdl.
 36 37  0  0  0  0  0  0  0  0  2 V2000
  148.3917  133.8492  155.6006 O   0  0  0  0  0  0  0  0  0  0  0  0
  148.5361  134.4221  154.5202 C   0  0  0  0  0  0  0  0  0  0  0  0
  147.9763  134.0107  153.3740 N   0  0  0  0  0  0  0  0  0  0  0  0
  147.1221  132.8365  153.2431 C   0  0  0  0  0  0  0  0  0  0  0  0
  146.6242  132.6602  151.7992 C   0  0  0  0  0  0  0  0  0  0  0  0
  145.6241  133.6686  151.4464 N   0  0  0  0  0  0  0  0  0  0  0  0
  145.7877  135.0296  151.4181 C   0  0  0  0  0  0  0  0  0  0  0  0
  144.5817  135.5594  151.0366 C   0  0  0  0  0  0  0  0  0  0  0  0
  143.7341  134.5001  150.8503 N   0  3  0  0  0  0  0  0  0  0  0  0
  144.3699  133.3509  151.1008 C   0  0  0  0  0  0  0  0  0  0  0  0
  149.2700  135.5295  154.3483 N   0  0  0  0  0  0  0  0  0  0  0  0
  149.9801  136.2327  155.4102 C   0  0  0  0  0  0  0  0  0  0  0  0
  150.6396  137.5190  154.8875 C   0  0  1  0  0  0  0  0  0  0  0  0
  150.8702  138.5746  155.9671 C   0  0  0  0  0  0  0  0  0  0  0  0
  152.0032  139.3760  155.3686 C   0  0  0  0  0  0  0  0  0  0  0  0
  152.8458  138.2836  154.7162 C   0  0  0  0  0  0  0  0  0  0  0  0
  151.9375  137.2421  154.3655 O   0  0  0  0  0  0  0  0  0  0  0  0
  148.1481  134.5501  152.5378 H   0  0  0  0  0  0  0  0  0  0  0  0
  147.6610  131.9470  153.5746 H   0  0  0  0  0  0  0  0  0  0  0  0
  146.2742  132.9541  153.9184 H   0  0  0  0  0  0  0  0  0  0  0  0
  147.4506  132.7444  151.0922 H   0  0  0  0  0  0  0  0  0  0  0  0
  146.1764  131.6757  151.6543 H   0  0  0  0  0  0  0  0  0  0  0  0
  146.7249  135.5071  151.6653 H   0  0  0  0  0  0  0  0  0  0  0  0
  144.2713  136.5837  150.8887 H   0  0  0  0  0  0  0  0  0  0  0  0
  143.9523  132.3615  151.0369 H   0  0  0  0  0  0  0  0  0  0  0  0
  149.3252  135.9296  153.4230 H   0  0  0  0  0  0  0  0  0  0  0  0
  149.2942  136.4646  156.2268 H   0  0  0  0  0  0  0  0  0  0  0  0
  150.7365  135.5642  155.8221 H   0  0  0  0  0  0  0  0  0  0  0  0
  150.0414  137.9589  154.0875 H   0  0  0  0  0  0  0  0  0  0  0  0
  149.9829  139.1739  156.1724 H   0  0  0  0  0  0  0  0  0  0  0  0
  151.1945  138.1106  156.8999 H   0  0  0  0  0  0  0  0  0  0  0  0
  151.6179  140.0586  154.6098 H   0  0  0  0  0  0  0  0  0  0  0  0
  152.5559  139.9587  156.1062 H   0  0  0  0  0  0  0  0  0  0  0  0
  153.3921  138.6462  153.8452 H   0  0  0  0  0  0  0  0  0  0  0  0
  153.5700  137.8849  155.4275 H   0  0  0  0  0  0  0  0  0  0  0  0
  142.7653  134.5727  150.5652 H   0  0  0  0  0  0  0  0  0  0  0  0
  1  2  2  0  0  0  0
  2  3  1  0  0  0  0
  2 11  1  0  0  0  0
  3  4  1  0  0  0  0
  3 18  1  0  0  0  0
  4  5  1  0  0  0  0
  4 19  1  0  0  0  0
  4 20  1  0  0  0  0
  5  6  1  0  0  0  0
  5 21  1  0  0  0  0
  5 22  1  0  0  0  0
  6 10  1  0  0  0  0
  6  7  1  0  0  0  0
  7  8  2  0  0  0  0
  7 23  1  0  0  0  0
  8  9  1  0  0  0  0
  8 24  1  0  0  0  0
  9 10  2  0  0  0  0
  9 36  1  0  0  0  0
 10 25  1  0  0  0  0
 11 12  1  0  0  0  0
 11 26  1  0  0  0  0
 12 13  1  0  0  0  0
 12 27  1  0  0  0  0
 12 28  1  0  0  0  0
 13 17  1  0  0  0  0
 13 14  1  0  0  0  0
 13 29  1  0  0  0  0
 14 15  1  0  0  0  0
 14 30  1  0  0  0  0
 14 31  1  0  0  0  0
 15 16  1  0  0  0  0
 15 32  1  0  0  0  0
 15 33  1  0  0  0  0
 16 17  1  0  0  0  0
 16 34  1  0  0  0  0
 16 35  1  0  0  0  0
M  CHG  1   9   1
M  END
> <s_m_source_file>
AV-unprocessed.smi

> <i_m_source_file_index>
3169

> <i_lp_mmshare_version>
43012

> <i_f3d_flags>
0

> <s_epik_input>
TzFbQ0gyXVtDSDJdW0NIMl1bQ0BIXTFbQ0gyXVtOSF1DKD1PKVtOSF1bQ0gyXVtDSDJdbjJbY0hdW2NIXW5bY0hdMg==

> <s_epik_cmdline>
J2VwaWtfcHl0aG9uJywgJy1waCcsICc3LjAnLCAnLXRuJywgJzgnLCAnLW1hJywgJzIwMCcsICctbWV0YWxfYmluZGluZycsICctaW1hZScsICc8aW5maWxlLm1hZT4nLCAnLW9tYWUnLCAnPG91dGZpbGUubWFlPic=

> <r_lp_tautomer_probability>
1

> <r_epik_Ionization_Penalty>
0.256136

> <r_epik_Ionization_Penalty_Charging>
0

> <r_epik_Ionization_Penalty_Neutral>
0.256136

> <r_epik_State_Penalty>
0.247629

> <r_epik_Charging_Adjusted_Penalty>
0.247629

> <i_epik_Tot_Q>
1

> <i_epik_Tot_abs_Q>
1

> <r_epik_Metal_State_Penalty>
0.537113

> <b_epik_Metal_Only>
0

> <s_lp_Force_Field>
OPLS_2005

> <r_lp_Energy>
16.1594

> <b_lp_Chiralities_Consistent>
1

> <s_lp_Variant>
AV-unprocessed.smi:3169-2

> <Gold.Version>
5.8.1

> <Gold.Id.Protein>
6NUR|6NUR_protein|mol2

> <Gold.PLP.Fitness>
46.8976

> <Gold.PLP.PLP>
-29.9447

> <Gold.PLP.part.hbond>
-3.9994

> <Gold.PLP.part.metal>
0.0000

> <Gold.PLP.part.buried>
-3.3385

> <Gold.PLP.part.nonpolar>
-23.3766

> <Gold.PLP.part.repulsive>
0.2084

> <Gold.PLP.ligand.clash>
0.0000

> <Gold.PLP.ligand.torsion>
0.3409

> <Gold.PLP.Chemscore.Hbond>
4.8720

> <Gold.PLP.Chemscore.CHOScore>
1.0000

> <Gold.PLP.Chemscore.Metal>
0.0000

> <Gold.Chemscore.Hbonds>
donor molecule, donor type, donor heavy atom, donor atom, acceptor molecule, acceptor atom, score
      L1  H     3    18       P1  7948  0.90
      L1  H     9    36       P1 10186  2.00
      L1  H    11    26       P1  7948  1.00
      P1  H 10752 10765       L1    17  0.99
      L1  C     7    23       P1  7948  1.00

> <Gold.PLP.Chemscore.Internal.Correction>
0.0187

> <Gold.Rescore>
     Score         DG    S(hbond)    S(metal)    S(lipo)     H(rot)  DE(clash)    DE(int)     intcor
     13.96     -14.38       2.68        0.00      50.43       2.33       0.00       0.42       ----

> <Gold.Chemscore.Fitness>
13.9631

> <Gold.Chemscore.DG>
-14.3826

> <Gold.Chemscore.ZeroCoef>
-5.4800

> <Gold.Chemscore.Hbond>
2.6840

> <Gold.Chemscore.Metal>
0.0000

> <Gold.Chemscore.Lipo>
50.4253

> <Gold.Chemscore.Internal_Hbond>
0.0000

> <Gold.Chemscore.DEClash>
0.0000

> <Gold.Chemscore.DEInternal>
0.4195

> <Gold.Chemscore.Rot>
2.3288

> <Gold.Chemscore.Internal.Correction>
   9.000000E+99

> <Gold.Chemscore.Hbonds>
donor molecule, donor type, donor heavy atom, donor atom, acceptor molecule, acceptor atom, score
      L1  H     3    18       P1  7948  0.30
      L1  H     9    36       P1 10186  0.32
      L1  H    11    26       P1  7948  0.59
      P1  H 10752 10765       L1    17  0.52

> <Gold.Chemscore.Hbond.Weighted>
-8.9645

> <Gold.Chemscore.Metal.Weighted>
-0.0000

> <Gold.Chemscore.Lipo.Weighted>
-5.8998

> <Gold.Chemscore.Internal_Hbond.Weighted>
0.0000

> <Gold.Chemscore.DEClash.Weighted>
0.0000

> <Gold.Chemscore.DEInternal.Weighted>
0.4195

> <Gold.Chemscore.Rot.Weighted>
5.9617

> <Gold.Chemscore.Internal.Correction.Weighted>
   9.000000E+99

> <Gold.Protein.RotatedTorsions>
[ 6907 6896 6895 6894 ] final   30.07 input  -60.11 | X-H torsion
[ 7974 7965 7964 7962 ] final  -24.75 input  175.53 | X-H torsion
[ 8008 7997 7996 7995 ] final  144.91 input   59.86 | X-H torsion
[ 10167 10162 10161 10158 ] final  141.03 input  -65.29 | X-H torsion
[ 10718 10713 10712 10709 ] final   79.19 input   66.30 | X-H torsion
[ 10763 10752 10751 10750 ] final  162.91 input  -60.55 | X-H torsion
[ 11005 11000 10999 10996 ] final  104.38 input  -57.11 | X-H torsion

> <Gold.Protein.ActiveResidues>
 VAL166  LYS551  ARG553  GLY616  TRP617  ASP618  TYR619  PRO620  LYS621  CYS622 
 ASP623  PHE694  ASN695  SER759  ASP760  ASP761  ALA762  ILE779  LEU786  VAL792 
 PHE793  MET794  SER795  GLU796  ALA797  LYS798  CYS799  TRP800  GLU811  SER814 

> <Gold.Protein.RotatedAtoms>
  152.0407  134.9713  160.0573 H   0  0  0  0  0  0  0  0  0  0  0  0  # atno 6907 bound_to 6896
  152.1153  133.4318  159.4658 H   0  0  0  0  0  0  0  0  0  0  0  0  # atno 6908 bound_to 6896
  150.6845  134.2519  159.4557 H   0  0  0  0  0  0  0  0  0  0  0  0  # atno 6909 bound_to 6896
  146.1535  140.4794  142.8601 H   0  0  0  0  0  0  0  0  0  0  0  0  # atno 7974 bound_to 7965
  156.2896  140.2223  156.5130 H   0  0  0  0  0  0  0  0  0  0  0  0  # atno 8008 bound_to 7997
  154.7593  140.0474  157.0981 H   0  0  0  0  0  0  0  0  0  0  0  0  # atno 8009 bound_to 7997
  155.0011  140.3102  155.4870 H   0  0  0  0  0  0  0  0  0  0  0  0  # atno 8010 bound_to 7997
  139.5032  144.6197  151.6080 H   0  0  0  0  0  0  0  0  0  0  0  0  # atno 10167 bound_to 10162
  157.6769  130.9903  150.1896 H   0  0  0  0  0  0  0  0  0  0  0  0  # atno 10718 bound_to 10713
  154.2856  135.2762  155.2677 H   0  0  0  0  0  0  0  0  0  0  0  0  # atno 10763 bound_to 10752
  154.5179  135.5764  153.6660 H   0  0  0  0  0  0  0  0  0  0  0  0  # atno 10764 bound_to 10752
  152.9922  135.6197  154.3018 H   0  0  0  0  0  0  0  0  0  0  0  0  # atno 10765 bound_to 10752
  139.8791  134.9298  156.5354 H   0  0  0  0  0  0  0  0  0  0  0  0  # atno 11005 bound_to 11000
  144.7933  140.6075  143.6527 LP  0  0  0  0  0  0  0  0  0  0  0  0  # atno 17320 bound_to 7965
  145.4766  139.1499  143.3785 LP  0  0  0  0  0  0  0  0  0  0  0  0  # atno 17321 bound_to 7965
  140.5895  143.9804  150.6316 LP  0  0  0  0  0  0  0  0  0  0  0  0  # atno 17342 bound_to 10162
  140.2980  143.3279  152.0999 LP  0  0  0  0  0  0  0  0  0  0  0  0  # atno 17343 bound_to 10162
  156.2610  130.3711  149.8131 LP  0  0  0  0  0  0  0  0  0  0  0  0  # atno 17370 bound_to 10713
  156.5876  130.8492  151.3399 LP  0  0  0  0  0  0  0  0  0  0  0  0  # atno 17371 bound_to 10713
  140.8350  133.8249  155.9020 LP  0  0  0  0  0  0  0  0  0  0  0  0  # atno 17394 bound_to 11000
  140.9292  134.2043  157.4875 LP  0  0  0  0  0  0  0  0  0  0  0  0  # atno 17395 bound_to 11000

$$$$
