AV-unprocessed.smi:2362|AV-procd|sdf|9414|dock10
  -GOLD-   2272013 53D 1   1.00000     0.00000
 Structure written by MMmdl.
 45 46  0  0  0  0  0  0  0  0  2 V2000
  151.9791  145.5972  159.5650 C   0  0  0  0  0  0  0  0  0  0  0  0
  151.8047  144.1898  159.0336 C   0  0  0  0  0  0  0  0  0  0  0  0
  152.2978  143.0760  159.7397 C   0  0  0  0  0  0  0  0  0  0  0  0
  152.1052  141.7902  159.1986 C   0  0  0  0  0  0  0  0  0  0  0  0
  151.4271  141.6480  157.9672 C   0  0  0  0  0  0  0  0  0  0  0  0
  151.2818  140.3105  157.5105 N   0  0  0  0  0  0  0  0  0  0  0  0
  150.7443  139.8836  156.3544 C   0  0  0  0  0  0  0  0  0  0  0  0
  150.3110  140.6099  155.4596 O   0  0  0  0  0  0  0  0  0  0  0  0
  150.7226  138.5432  156.2903 N   0  0  0  0  0  0  0  0  0  0  0  0
  150.2269  137.7465  155.1665 C   0  0  1  0  0  0  0  0  0  0  0  0
  150.8791  138.2482  153.8710 C   0  0  0  0  0  0  0  0  0  0  0  0
  150.4943  136.2377  155.3785 C   0  0  0  0  0  0  0  0  0  0  0  0
  149.5789  135.3645  154.5996 N   0  3  0  0  0  0  0  0  0  0  0  0
  148.1610  135.4917  155.0243 C   0  0  0  0  0  0  0  0  0  0  0  0
  147.2318  134.6985  154.0895 C   0  0  0  0  0  0  0  0  0  0  0  0
  147.6527  133.2250  154.0131 C   0  0  0  0  0  0  0  0  0  0  0  0
  149.1301  133.1215  153.6123 C   0  0  0  0  0  0  0  0  0  0  0  0
  150.0153  133.9436  154.5633 C   0  0  0  0  0  0  0  0  0  0  0  0
  150.9538  142.7272  157.2953 N   0  0  0  0  0  0  0  0  0  0  0  0
  151.1391  143.9593  157.8143 C   0  0  0  0  0  0  0  0  0  0  0  0
  152.5519  145.6032  160.4929 H   0  0  0  0  0  0  0  0  0  0  0  0
  151.0068  146.0495  159.7606 H   0  0  0  0  0  0  0  0  0  0  0  0
  152.5051  146.2144  158.8361 H   0  0  0  0  0  0  0  0  0  0  0  0
  152.8148  143.1998  160.6799 H   0  0  0  0  0  0  0  0  0  0  0  0
  152.4774  140.9252  159.7282 H   0  0  0  0  0  0  0  0  0  0  0  0
  151.6146  139.5985  158.1440 H   0  0  0  0  0  0  0  0  0  0  0  0
  151.1008  138.0296  157.0734 H   0  0  0  0  0  0  0  0  0  0  0  0
  149.1539  137.9109  155.0595 H   0  0  0  0  0  0  0  0  0  0  0  0
  150.4957  137.7075  153.0051 H   0  0  0  0  0  0  0  0  0  0  0  0
  151.9616  138.1164  153.8918 H   0  0  0  0  0  0  0  0  0  0  0  0
  150.6747  139.3076  153.7117 H   0  0  0  0  0  0  0  0  0  0  0  0
  151.5286  135.9905  155.1340 H   0  0  0  0  0  0  0  0  0  0  0  0
  150.3773  136.0231  156.4420 H   0  0  0  0  0  0  0  0  0  0  0  0
  148.0541  135.1419  156.0523 H   0  0  0  0  0  0  0  0  0  0  0  0
  147.8642  136.5410  155.0122 H   0  0  0  0  0  0  0  0  0  0  0  0
  146.2005  134.7740  154.4355 H   0  0  0  0  0  0  0  0  0  0  0  0
  147.2565  135.1378  153.0913 H   0  0  0  0  0  0  0  0  0  0  0  0
  147.4984  132.7464  154.9810 H   0  0  0  0  0  0  0  0  0  0  0  0
  147.0288  132.6904  153.2961 H   0  0  0  0  0  0  0  0  0  0  0  0
  149.4456  132.0778  153.6165 H   0  0  0  0  0  0  0  0  0  0  0  0
  149.2601  133.4804  152.5903 H   0  0  0  0  0  0  0  0  0  0  0  0
  151.0511  133.8741  154.2324 H   0  0  0  0  0  0  0  0  0  0  0  0
  149.9776  133.5229  155.5694 H   0  0  0  0  0  0  0  0  0  0  0  0
  150.7433  144.7836  157.2390 H   0  0  0  0  0  0  0  0  0  0  0  0
  149.6152  135.7013  153.6478 H   0  0  0  0  0  0  0  0  0  0  0  0
  1  2  1  0  0  0  0
  1 21  1  0  0  0  0
  1 22  1  0  0  0  0
  1 23  1  0  0  0  0
  2 20  1  0  0  0  0
  2  3  2  0  0  0  0
  3  4  1  0  0  0  0
  3 24  1  0  0  0  0
  4  5  2  0  0  0  0
  4 25  1  0  0  0  0
  5  6  1  0  0  0  0
  5 19  1  0  0  0  0
  6  7  1  0  0  0  0
  6 26  1  0  0  0  0
  7  8  2  0  0  0  0
  7  9  1  0  0  0  0
  9 10  1  0  0  0  0
  9 27  1  0  0  0  0
 10 11  1  0  0  0  0
 10 12  1  0  0  0  0
 10 28  1  0  0  0  0
 11 29  1  0  0  0  0
 11 30  1  0  0  0  0
 11 31  1  0  0  0  0
 12 13  1  0  0  0  0
 12 32  1  0  0  0  0
 12 33  1  0  0  0  0
 13 18  1  0  0  0  0
 13 14  1  0  0  0  0
 13 45  1  0  0  0  0
 14 15  1  0  0  0  0
 14 34  1  0  0  0  0
 14 35  1  0  0  0  0
 15 16  1  0  0  0  0
 15 36  1  0  0  0  0
 15 37  1  0  0  0  0
 16 17  1  0  0  0  0
 16 38  1  0  0  0  0
 16 39  1  0  0  0  0
 17 18  1  0  0  0  0
 17 40  1  0  0  0  0
 17 41  1  0  0  0  0
 18 42  1  0  0  0  0
 18 43  1  0  0  0  0
 19 20  2  0  0  0  0
 20 44  1  0  0  0  0
M  CHG  1  13   1
M  END
> <s_m_source_file>
AV-unprocessed.smi

> <i_m_source_file_index>
2362

> <i_lp_mmshare_version>
43012

> <i_f3d_flags>
0

> <s_epik_input>
W0NIM11jMVtjSF1bY0hdYyhuW2NIXTEpW05IXUMoPU8pW05IXVtDQEhdKFtDSDNdKVtDSDJdTjJbQ0gyXVtDSDJdW0NIMl1bQ0gyXVtDSDJdMg==

> <s_epik_cmdline>
J2VwaWtfcHl0aG9uJywgJy1waCcsICc3LjAnLCAnLXRuJywgJzgnLCAnLW1hJywgJzIwMCcsICctbWV0YWxfYmluZGluZycsICctaW1hZScsICc8aW5maWxlLm1hZT4nLCAnLW9tYWUnLCAnPG91dGZpbGUubWFlPic=

> <r_epik_Ionization_Penalty>
0.00215987

> <r_epik_Ionization_Penalty_Charging>
0.00211816

> <r_epik_Ionization_Penalty_Neutral>
4.17101e-05

> <r_epik_State_Penalty>
0.00145254

> <r_epik_Charging_Adjusted_Penalty>
0.0035707

> <i_epik_Tot_Q>
1

> <i_epik_Tot_abs_Q>
1

> <r_epik_Metal_State_Penalty>
-0

> <b_epik_Metal_Only>
0

> <s_lp_Force_Field>
OPLS_2005

> <r_lp_Energy>
24.6446

> <b_lp_Chiralities_Consistent>
1

> <s_lp_Variant>
AV-unprocessed.smi:2362-2

> <Gold.Version>
5.8.1

> <Gold.Id.Protein>
6NUR|6NUR_protein|mol2

> <Gold.PLP.Fitness>
44.7741

> <Gold.PLP.PLP>
-35.5059

> <Gold.PLP.part.hbond>
-1.5958

> <Gold.PLP.part.metal>
0.0000

> <Gold.PLP.part.buried>
-4.1863

> <Gold.PLP.part.nonpolar>
-29.6000

> <Gold.PLP.part.repulsive>
0.2695

> <Gold.PLP.ligand.clash>
0.0000

> <Gold.PLP.ligand.torsion>
0.3320

> <Gold.PLP.Chemscore.Hbond>
2.3921

> <Gold.PLP.Chemscore.CHOScore>
0.9039

> <Gold.PLP.Chemscore.Metal>
0.0000

> <Gold.Chemscore.Hbonds>
donor molecule, donor type, donor heavy atom, donor atom, acceptor molecule, acceptor atom, score
      L1  H    13    45       P1  7948  1.80
      P1  H  7989  7998       L1     8  0.13
      L1  C    20    44       P1  8028  0.97

> <Gold.PLP.Chemscore.Internal.Correction>
0.0443

> <Gold.Rescore>
     Score         DG    S(hbond)    S(metal)    S(lipo)     H(rot)  DE(clash)    DE(int)     intcor
     13.51     -16.86       1.01        0.00      99.94       1.44       0.42       2.92       ----

> <Gold.Chemscore.Fitness>
13.5142

> <Gold.Chemscore.DG>
-16.8583

> <Gold.Chemscore.ZeroCoef>
-5.4800

> <Gold.Chemscore.Hbond>
1.0097

> <Gold.Chemscore.Metal>
0.0000

> <Gold.Chemscore.Lipo>
99.9446

> <Gold.Chemscore.Internal_Hbond>
0.0000

> <Gold.Chemscore.DEClash>
0.4212

> <Gold.Chemscore.DEInternal>
2.9230

> <Gold.Chemscore.Rot>
1.4404

> <Gold.Chemscore.Internal.Correction>
   9.000000E+99

> <Gold.Chemscore.Hbonds>
donor molecule, donor type, donor heavy atom, donor atom, acceptor molecule, acceptor atom, score
      L1  H    13    45       P1  7948  0.18
      P1  H  7989  7998       L1     8  0.14

> <Gold.Chemscore.Hbond.Weighted>
-3.3724

> <Gold.Chemscore.Metal.Weighted>
-0.0000

> <Gold.Chemscore.Lipo.Weighted>
-11.6935

> <Gold.Chemscore.Internal_Hbond.Weighted>
0.0000

> <Gold.Chemscore.DEClash.Weighted>
0.4212

> <Gold.Chemscore.DEInternal.Weighted>
2.9230

> <Gold.Chemscore.Rot.Weighted>
3.6875

> <Gold.Chemscore.Internal.Correction.Weighted>
   9.000000E+99

> <Gold.Protein.RotatedTorsions>
[ 6907 6896 6895 6894 ] final -128.97 input  -60.11 | X-H torsion
[ 7974 7965 7964 7962 ] final  -78.17 input  175.53 | X-H torsion
[ 8008 7997 7996 7995 ] final  -37.24 input   59.86 | X-H torsion
[ 10167 10162 10161 10158 ] final -144.26 input  -65.29 | X-H torsion
[ 10718 10713 10712 10709 ] final  -61.47 input   66.30 | X-H torsion
[ 10763 10752 10751 10750 ] final  -97.33 input  -60.55 | X-H torsion
[ 11005 11000 10999 10996 ] final   90.15 input  -57.11 | X-H torsion

> <Gold.Protein.ActiveResidues>
 VAL166  LYS551  ARG553  GLY616  TRP617  ASP618  TYR619  PRO620  LYS621  CYS622 
 ASP623  PHE694  ASN695  SER759  ASP760  ASP761  ALA762  ILE779  LEU786  VAL792 
 PHE793  MET794  SER795  GLU796  ALA797  LYS798  CYS799  TRP800  GLU811  SER814 

> <Gold.Protein.RotatedAtoms>
  150.9236  133.6850  159.2826 H   0  0  0  0  0  0  0  0  0  0  0  0  # atno 6907 bound_to 6896
  151.4296  135.1007  159.9648 H   0  0  0  0  0  0  0  0  0  0  0  0  # atno 6908 bound_to 6896
  152.4992  133.8669  159.7334 H   0  0  0  0  0  0  0  0  0  0  0  0  # atno 6909 bound_to 6896
  145.5900  140.9431  143.1297 H   0  0  0  0  0  0  0  0  0  0  0  0  # atno 7974 bound_to 7965
  154.4057  140.1609  156.2504 H   0  0  0  0  0  0  0  0  0  0  0  0  # atno 8008 bound_to 7997
  155.9124  140.3426  155.6086 H   0  0  0  0  0  0  0  0  0  0  0  0  # atno 8009 bound_to 7997
  155.7320  140.0781  157.2275 H   0  0  0  0  0  0  0  0  0  0  0  0  # atno 8010 bound_to 7997
  139.7916  143.7959  152.2650 H   0  0  0  0  0  0  0  0  0  0  0  0  # atno 10167 bound_to 10162
  156.0920  130.4199  150.0998 H   0  0  0  0  0  0  0  0  0  0  0  0  # atno 10718 bound_to 10713
  154.7318  135.5050  153.8977 H   0  0  0  0  0  0  0  0  0  0  0  0  # atno 10763 bound_to 10752
  153.0957  135.6671  153.9776 H   0  0  0  0  0  0  0  0  0  0  0  0  # atno 10764 bound_to 10752
  153.9575  135.3051  155.3414 H   0  0  0  0  0  0  0  0  0  0  0  0  # atno 10765 bound_to 10752
  139.8861  134.8595  156.3243 H   0  0  0  0  0  0  0  0  0  0  0  0  # atno 11005 bound_to 11000
  144.7355  139.7597  143.7331 LP  0  0  0  0  0  0  0  0  0  0  0  0  # atno 17320 bound_to 7965
  146.1654  139.4783  142.9962 LP  0  0  0  0  0  0  0  0  0  0  0  0  # atno 17321 bound_to 7965
  139.8052  144.7358  150.9771 LP  0  0  0  0  0  0  0  0  0  0  0  0  # atno 17342 bound_to 10162
  140.7820  143.4305  151.0701 LP  0  0  0  0  0  0  0  0  0  0  0  0  # atno 17343 bound_to 10162
  156.9006  130.9619  151.3577 LP  0  0  0  0  0  0  0  0  0  0  0  0  # atno 17370 bound_to 10713
  157.6071  130.8555  149.8892 LP  0  0  0  0  0  0  0  0  0  0  0  0  # atno 17371 bound_to 10713
  140.9766  133.7294  156.0611 LP  0  0  0  0  0  0  0  0  0  0  0  0  # atno 17394 bound_to 11000
  140.7803  134.3732  157.5488 LP  0  0  0  0  0  0  0  0  0  0  0  0  # atno 17395 bound_to 11000

$$$$
