AV-unprocessed.smi:2217|AV-procd|sdf|8974|dock1
  -GOLD-   2272012183D 1   1.00000     0.00000
 Structure written by MMmdl.
 45 48  0  0  0  0  0  0  0  0  1 V2000
  139.0773  138.8504  153.8365 C   0  0  0  0  0  0  0  0  0  0  0  0
  140.0851  137.7205  153.8102 C   0  0  0  0  0  0  0  0  0  0  0  0
  141.4180  137.9400  153.4143 C   0  0  0  0  0  0  0  0  0  0  0  0
  142.3116  136.8516  153.4063 C   0  0  0  0  0  0  0  0  0  0  0  0
  141.8576  135.5709  153.7947 C   0  0  0  0  0  0  0  0  0  0  0  0
  142.8507  134.5483  153.7358 N   0  0  0  0  0  0  0  0  0  0  0  0
  144.0251  134.4835  153.0723 C   0  0  0  0  0  0  0  0  0  0  0  0
  144.4106  135.4125  152.3648 O   0  0  0  0  0  0  0  0  0  0  0  0
  144.7337  133.3568  153.2363 N   0  0  0  0  0  0  0  0  0  0  0  0
  146.0155  133.0605  152.5906 C   0  0  2  0  0  0  0  0  0  0  0  0
  146.0341  131.7292  151.8334 C   0  0  2  0  0  0  0  0  0  0  0  0
  145.0075  130.8227  151.2559 C   0  0  0  0  0  0  0  0  0  0  0  0
  145.6389  129.4853  151.7252 C   0  0  0  0  0  0  0  0  0  0  0  0
  146.7075  129.8471  152.6365 O   0  0  0  0  0  0  0  0  0  0  0  0
  146.2936  131.0859  153.1800 C   0  0  1  0  0  0  0  0  0  0  0  0
  147.0732  132.3738  153.5386 C   0  0  0  0  0  0  0  0  0  0  0  0
  148.5582  132.4285  153.1258 C   0  0  0  0  0  0  0  0  0  0  0  0
  149.3621  132.9905  154.2989 C   0  0  0  0  0  0  0  0  0  0  0  0
  148.5183  132.6666  155.5226 C   0  0  0  0  0  0  0  0  0  0  0  0
  147.0845  132.7922  155.0151 C   0  0  0  0  0  0  0  0  0  0  0  0
  140.5680  135.3717  154.1704 N   0  0  0  0  0  0  0  0  0  0  0  0
  139.7113  136.4142  154.1783 C   0  0  0  0  0  0  0  0  0  0  0  0
  139.5653  139.8183  153.7168 H   0  0  0  0  0  0  0  0  0  0  0  0
  138.5382  138.8569  154.7844 H   0  0  0  0  0  0  0  0  0  0  0  0
  138.3538  138.7292  153.0301 H   0  0  0  0  0  0  0  0  0  0  0  0
  141.7544  138.9235  153.1199 H   0  0  0  0  0  0  0  0  0  0  0  0
  143.3377  137.0043  153.1042 H   0  0  0  0  0  0  0  0  0  0  0  0
  142.6594  133.7494  154.3226 H   0  0  0  0  0  0  0  0  0  0  0  0
  144.3474  132.6415  153.8365 H   0  0  0  0  0  0  0  0  0  0  0  0
  146.4254  133.8956  152.0202 H   0  0  0  0  0  0  0  0  0  0  0  0
  146.9208  131.7166  151.1916 H   0  0  0  0  0  0  0  0  0  0  0  0
  144.0210  130.9831  151.6929 H   0  0  0  0  0  0  0  0  0  0  0  0
  144.9368  130.8974  150.1706 H   0  0  0  0  0  0  0  0  0  0  0  0
  144.8991  128.8656  152.2337 H   0  0  0  0  0  0  0  0  0  0  0  0
  146.0464  128.9117  150.8923 H   0  0  0  0  0  0  0  0  0  0  0  0
  145.3986  130.9503  153.7964 H   0  0  0  0  0  0  0  0  0  0  0  0
  148.9205  131.4257  152.8957 H   0  0  0  0  0  0  0  0  0  0  0  0
  148.7180  133.0299  152.2303 H   0  0  0  0  0  0  0  0  0  0  0  0
  150.3692  132.5766  154.3582 H   0  0  0  0  0  0  0  0  0  0  0  0
  149.4517  134.0726  154.1946 H   0  0  0  0  0  0  0  0  0  0  0  0
  148.7080  131.6401  155.8391 H   0  0  0  0  0  0  0  0  0  0  0  0
  148.7274  133.3231  156.3675 H   0  0  0  0  0  0  0  0  0  0  0  0
  146.7665  133.8313  155.1100 H   0  0  0  0  0  0  0  0  0  0  0  0
  146.4001  132.1988  155.6224 H   0  0  0  0  0  0  0  0  0  0  0  0
  138.6993  136.1967  154.4867 H   0  0  0  0  0  0  0  0  0  0  0  0
  1  2  1  0  0  0  0
  1 23  1  0  0  0  0
  1 24  1  0  0  0  0
  1 25  1  0  0  0  0
  2 22  1  0  0  0  0
  2  3  2  0  0  0  0
  3  4  1  0  0  0  0
  3 26  1  0  0  0  0
  4  5  2  0  0  0  0
  4 27  1  0  0  0  0
  5  6  1  0  0  0  0
  5 21  1  0  0  0  0
  6  7  1  0  0  0  0
  6 28  1  0  0  0  0
  7  8  2  0  0  0  0
  7  9  1  0  0  0  0
  9 10  1  0  0  0  0
  9 29  1  0  0  0  0
 10 16  1  0  0  0  0
 10 11  1  0  0  0  0
 10 30  1  0  0  0  0
 11 15  1  0  0  0  0
 11 12  1  0  0  0  0
 11 31  1  0  0  0  0
 12 13  1  0  0  0  0
 12 32  1  0  0  0  0
 12 33  1  0  0  0  0
 13 14  1  0  0  0  0
 13 34  1  0  0  0  0
 13 35  1  0  0  0  0
 14 15  1  0  0  0  0
 15 16  1  0  0  0  0
 15 36  1  0  0  0  0
 16 20  1  0  0  0  0
 16 17  1  0  0  0  0
 17 18  1  0  0  0  0
 17 37  1  0  0  0  0
 17 38  1  0  0  0  0
 18 19  1  0  0  0  0
 18 39  1  0  0  0  0
 18 40  1  0  0  0  0
 19 20  1  0  0  0  0
 19 41  1  0  0  0  0
 19 42  1  0  0  0  0
 20 43  1  0  0  0  0
 20 44  1  0  0  0  0
 21 22  2  0  0  0  0
 22 45  1  0  0  0  0
M  END
> <s_m_source_file>
AV-unprocessed.smi

> <i_m_source_file_index>
2217

> <i_lp_mmshare_version>
43012

> <i_f3d_flags>
0

> <s_epik_input>
W0NIM11jMVtjSF1bY0hdYyhuW2NIXTEpW05IXUMoPU8pW05IXVtDQEBIXTJbQ0BASF0oW0NIMl1bQ0gyXU8zKVtDQEhdM0MyNFtDSDJdW0NIMl1bQ0gyXVtDSDJdNA==

> <s_epik_cmdline>
J2VwaWtfcHl0aG9uJywgJy1waCcsICc3LjAnLCAnLXRuJywgJzgnLCAnLW1hJywgJzIwMCcsICctbWV0YWxfYmluZGluZycsICctaW1hZScsICc8aW5maWxlLm1hZT4nLCAnLW9tYWUnLCAnPG91dGZpbGUubWFlPic=

> <r_lp_tautomer_probability>
1

> <r_epik_Ionization_Penalty>
6.14796e-05

> <r_epik_Ionization_Penalty_Charging>
0

> <r_epik_Ionization_Penalty_Neutral>
6.14796e-05

> <r_epik_State_Penalty>
-0

> <r_epik_Charging_Adjusted_Penalty>
0

> <i_epik_Tot_Q>
0

> <i_epik_Tot_abs_Q>
0

> <r_epik_Metal_State_Penalty>
-0

> <b_epik_Metal_Only>
0

> <s_lp_Force_Field>
OPLS_2005

> <r_lp_Energy>
82.2768

> <b_lp_Chiralities_Consistent>
1

> <s_lp_Variant>
AV-unprocessed.smi:2217-7

> <Gold.Version>
5.8.1

> <Gold.Id.Protein>
6NUR|6NUR_protein|mol2

> <Gold.PLP.Fitness>
48.3030

> <Gold.PLP.PLP>
-39.9444

> <Gold.PLP.part.hbond>
-3.7346

> <Gold.PLP.part.metal>
0.0000

> <Gold.PLP.part.buried>
-8.6050

> <Gold.PLP.part.nonpolar>
-29.7752

> <Gold.PLP.part.repulsive>
0.4310

> <Gold.PLP.ligand.clash>
0.0075

> <Gold.PLP.ligand.torsion>
0.2327

> <Gold.PLP.Chemscore.Hbond>
2.8525

> <Gold.PLP.Chemscore.CHOScore>
0.0000

> <Gold.PLP.Chemscore.Metal>
0.0000

> <Gold.Chemscore.Hbonds>
donor molecule, donor type, donor heavy atom, donor atom, acceptor molecule, acceptor atom, score
      L1  H     6    28       P1 10957  0.99
      L1  H     9    29       P1 10957  0.81
      P1  H 11000 11005       L1    21  0.99

> <Gold.PLP.Chemscore.Internal.Correction>
0.2739

> <Gold.Rescore>
     Score         DG    S(hbond)    S(metal)    S(lipo)     H(rot)  DE(clash)    DE(int)     intcor
     19.62     -21.29       2.34        0.00      90.37       1.00       0.00       1.68       ----

> <Gold.Chemscore.Fitness>
19.6173

> <Gold.Chemscore.DG>
-21.2947

> <Gold.Chemscore.ZeroCoef>
-5.4800

> <Gold.Chemscore.Hbond>
2.3359

> <Gold.Chemscore.Metal>
0.0000

> <Gold.Chemscore.Lipo>
90.3660

> <Gold.Chemscore.Internal_Hbond>
0.0000

> <Gold.Chemscore.DEClash>
0.0021

> <Gold.Chemscore.DEInternal>
1.6752

> <Gold.Chemscore.Rot>
1.0000

> <Gold.Chemscore.Internal.Correction>
   9.000000E+99

> <Gold.Chemscore.Hbonds>
donor molecule, donor type, donor heavy atom, donor atom, acceptor molecule, acceptor atom, score
      L1  H     6    28       P1 10957  0.91
      L1  H     9    29       P1 10957  0.45
      P1  H 11000 11005       L1    21  0.71

> <Gold.Chemscore.Hbond.Weighted>
-7.8019

> <Gold.Chemscore.Metal.Weighted>
-0.0000

> <Gold.Chemscore.Lipo.Weighted>
-10.5728

> <Gold.Chemscore.Internal_Hbond.Weighted>
0.0000

> <Gold.Chemscore.DEClash.Weighted>
0.0021

> <Gold.Chemscore.DEInternal.Weighted>
1.6752

> <Gold.Chemscore.Rot.Weighted>
2.5600

> <Gold.Chemscore.Internal.Correction.Weighted>
   9.000000E+99

> <Gold.Protein.RotatedTorsions>
[ 6907 6896 6895 6894 ] final  -37.16 input  -60.11 | X-H torsion
[ 7974 7965 7964 7962 ] final  117.51 input  175.53 | X-H torsion
[ 8008 7997 7996 7995 ] final -134.15 input   59.86 | X-H torsion
[ 10167 10162 10161 10158 ] final  -55.97 input  -65.29 | X-H torsion
[ 10718 10713 10712 10709 ] final -165.80 input   66.30 | X-H torsion
[ 10763 10752 10751 10750 ] final -172.72 input  -60.55 | X-H torsion
[ 11005 11000 10999 10996 ] final   23.19 input  -57.11 | X-H torsion

> <Gold.Protein.ActiveResidues>
 VAL166  LYS551  ARG553  GLY616  TRP617  ASP618  TYR619  PRO620  LYS621  CYS622 
 ASP623  PHE694  ASN695  SER759  ASP760  ASP761  ALA762  ILE779  LEU786  VAL792 
 PHE793  MET794  SER795  GLU796  ALA797  LYS798  CYS799  TRP800  GLU811  SER814 

> <Gold.Protein.RotatedAtoms>
  151.0182  134.9449  159.8044 H   0  0  0  0  0  0  0  0  0  0  0  0  # atno 6907 bound_to 6896
  152.5319  134.2939  159.9063 H   0  0  0  0  0  0  0  0  0  0  0  0  # atno 6908 bound_to 6896
  151.2946  133.4108  159.2669 H   0  0  0  0  0  0  0  0  0  0  0  0  # atno 6909 bound_to 6896
  145.1665  139.3125  143.4490 H   0  0  0  0  0  0  0  0  0  0  0  0  # atno 7974 bound_to 7965
  155.3574  140.0481  157.3046 H   0  0  0  0  0  0  0  0  0  0  0  0  # atno 8008 bound_to 7997
  154.5196  140.2220  155.8965 H   0  0  0  0  0  0  0  0  0  0  0  0  # atno 8009 bound_to 7997
  156.1674  140.3103  155.8919 H   0  0  0  0  0  0  0  0  0  0  0  0  # atno 8010 bound_to 7997
  140.6344  143.2475  151.5156 H   0  0  0  0  0  0  0  0  0  0  0  0  # atno 10167 bound_to 10162
  156.6586  130.9037  151.3025 H   0  0  0  0  0  0  0  0  0  0  0  0  # atno 10718 bound_to 10713
  154.6161  135.2870  155.0379 H   0  0  0  0  0  0  0  0  0  0  0  0  # atno 10763 bound_to 10752
  154.1591  135.6491  153.4985 H   0  0  0  0  0  0  0  0  0  0  0  0  # atno 10764 bound_to 10752
  153.0215  135.5374  154.6932 H   0  0  0  0  0  0  0  0  0  0  0  0  # atno 10765 bound_to 10752
  140.3723  134.2009  155.7666 H   0  0  0  0  0  0  0  0  0  0  0  0  # atno 11005 bound_to 11000
  146.3475  140.1795  142.8589 LP  0  0  0  0  0  0  0  0  0  0  0  0  # atno 17320 bound_to 7965
  145.0276  140.8845  143.5129 LP  0  0  0  0  0  0  0  0  0  0  0  0  # atno 17321 bound_to 7965
  139.5556  144.2285  152.1606 LP  0  0  0  0  0  0  0  0  0  0  0  0  # atno 17342 bound_to 10162
  140.1537  144.5090  150.6672 LP  0  0  0  0  0  0  0  0  0  0  0  0  # atno 17343 bound_to 10162
  157.7117  130.9448  150.1112 LP  0  0  0  0  0  0  0  0  0  0  0  0  # atno 17370 bound_to 10713
  156.2028  130.3661  149.8767 LP  0  0  0  0  0  0  0  0  0  0  0  0  # atno 17371 bound_to 10713
  141.1950  133.8115  157.0732 LP  0  0  0  0  0  0  0  0  0  0  0  0  # atno 17394 bound_to 11000
  140.0542  134.9789  157.1190 LP  0  0  0  0  0  0  0  0  0  0  0  0  # atno 17395 bound_to 11000

$$$$
