AV-unprocessed.smi:2646|AV-procd|sdf|10281|dock9
  -GOLD-   2272014293D 1   1.00000     0.00000
 Structure written by MMmdl.
 43 44  0  0  0  0  0  0  0  0  1 V2000
  148.7780  132.3937  155.2614 C   0  0  0  0  0  0  0  0  0  0  0  0
  147.8285  133.4215  154.5941 C   0  0  1  0  0  0  0  0  0  0  0  0
  146.7069  133.7901  155.6096 C   0  0  0  0  0  0  0  0  0  0  0  0
  146.0102  134.9635  155.2405 O   0  0  0  0  0  0  0  0  0  0  0  0
  148.5788  134.6361  154.2379 N   0  0  0  0  0  0  0  0  0  0  0  0
  149.2157  135.5029  155.0424 C   0  0  0  0  0  0  0  0  0  0  0  0
  149.2636  135.4009  156.2675 O   0  0  0  0  0  0  0  0  0  0  0  0
  149.7679  136.4983  154.3281 N   0  0  0  0  0  0  0  0  0  0  0  0
  150.5306  137.6020  154.7954 C   0  0  0  0  0  0  0  0  0  0  0  0
  151.1819  137.4767  156.0396 C   0  0  0  0  0  0  0  0  0  0  0  0
  151.9293  138.5618  156.5351 C   0  0  0  0  0  0  0  0  0  0  0  0
  151.9890  139.7403  155.7666 C   0  0  0  0  0  0  0  0  0  0  0  0
  151.3588  139.8834  154.5818 N   0  0  0  0  0  0  0  0  0  0  0  0
  150.6447  138.8380  154.1114 C   0  0  0  0  0  0  0  0  0  0  0  0
  147.2364  132.8319  153.2647 C   0  0  0  0  0  0  0  0  0  0  0  0
  146.4256  133.8647  152.4346 C   0  0  0  0  0  0  0  0  0  0  0  0
  145.9048  133.2729  151.1151 C   0  0  0  0  0  0  0  0  0  0  0  0
  145.0525  132.0222  151.3621 C   0  0  0  0  0  0  0  0  0  0  0  0
  145.8430  130.9799  152.1620 C   0  0  0  0  0  0  0  0  0  0  0  0
  146.3648  131.5654  153.4837 C   0  0  0  0  0  0  0  0  0  0  0  0
  148.3028  131.4161  155.3494 H   0  0  0  0  0  0  0  0  0  0  0  0
  149.0636  132.6974  156.2685 H   0  0  0  0  0  0  0  0  0  0  0  0
  149.7030  132.2625  154.7007 H   0  0  0  0  0  0  0  0  0  0  0  0
  145.9724  132.9891  155.6927 H   0  0  0  0  0  0  0  0  0  0  0  0
  147.1106  133.9285  156.6126 H   0  0  0  0  0  0  0  0  0  0  0  0
  146.0082  135.0257  154.2976 H   0  0  0  0  0  0  0  0  0  0  0  0
  148.6126  134.8378  153.2494 H   0  0  0  0  0  0  0  0  0  0  0  0
  149.5713  136.4961  153.3380 H   0  0  0  0  0  0  0  0  0  0  0  0
  151.1153  136.5603  156.6077 H   0  0  0  0  0  0  0  0  0  0  0  0
  152.4449  138.4929  157.4816 H   0  0  0  0  0  0  0  0  0  0  0  0
  152.5532  140.5925  156.1159 H   0  0  0  0  0  0  0  0  0  0  0  0
  150.1422  139.0220  153.1748 H   0  0  0  0  0  0  0  0  0  0  0  0
  148.0775  132.5311  152.6383 H   0  0  0  0  0  0  0  0  0  0  0  0
  145.5800  134.2381  153.0132 H   0  0  0  0  0  0  0  0  0  0  0  0
  147.0379  134.7319  152.1914 H   0  0  0  0  0  0  0  0  0  0  0  0
  145.3187  134.0203  150.5794 H   0  0  0  0  0  0  0  0  0  0  0  0
  146.7473  133.0207  150.4699 H   0  0  0  0  0  0  0  0  0  0  0  0
  144.1464  132.2943  151.9054 H   0  0  0  0  0  0  0  0  0  0  0  0
  144.7298  131.5965  150.4115 H   0  0  0  0  0  0  0  0  0  0  0  0
  145.2140  130.1125  152.3640 H   0  0  0  0  0  0  0  0  0  0  0  0
  146.6829  130.6204  151.5660 H   0  0  0  0  0  0  0  0  0  0  0  0
  146.9340  130.7870  153.9894 H   0  0  0  0  0  0  0  0  0  0  0  0
  145.5179  131.7963  154.1309 H   0  0  0  0  0  0  0  0  0  0  0  0
  1  2  1  0  0  0  0
  1 21  1  0  0  0  0
  1 22  1  0  0  0  0
  1 23  1  0  0  0  0
  2  3  1  0  0  0  0
  2  5  1  0  0  0  0
  2 15  1  0  0  0  0
  3  4  1  0  0  0  0
  3 24  1  0  0  0  0
  3 25  1  0  0  0  0
  4 26  1  0  0  0  0
  5  6  1  0  0  0  0
  5 27  1  0  0  0  0
  6  7  2  0  0  0  0
  6  8  1  0  0  0  0
  8  9  1  0  0  0  0
  8 28  1  0  0  0  0
  9 14  1  0  0  0  0
  9 10  2  0  0  0  0
 10 11  1  0  0  0  0
 10 29  1  0  0  0  0
 11 12  2  0  0  0  0
 11 30  1  0  0  0  0
 12 13  1  0  0  0  0
 12 31  1  0  0  0  0
 13 14  2  0  0  0  0
 14 32  1  0  0  0  0
 15 20  1  0  0  0  0
 15 16  1  0  0  0  0
 15 33  1  0  0  0  0
 16 17  1  0  0  0  0
 16 34  1  0  0  0  0
 16 35  1  0  0  0  0
 17 18  1  0  0  0  0
 17 36  1  0  0  0  0
 17 37  1  0  0  0  0
 18 19  1  0  0  0  0
 18 38  1  0  0  0  0
 18 39  1  0  0  0  0
 19 20  1  0  0  0  0
 19 40  1  0  0  0  0
 19 41  1  0  0  0  0
 20 42  1  0  0  0  0
 20 43  1  0  0  0  0
M  END
> <s_m_source_file>
AV-unprocessed.smi

> <i_m_source_file_index>
2646

> <i_lp_mmshare_version>
43012

> <i_f3d_flags>
0

> <s_epik_input>
W0NIMl0xW0NIMl1bQ0gyXVtDSDJdW0NIMl1bQ0hdMVtDQF0oW0NIM10pKFtDSDJdW09IXSlbTkhdQyg9TylbTkhdYzJbY0hdW2NIXVtjSF1uW2NIXTI=

> <s_epik_cmdline>
J2VwaWtfcHl0aG9uJywgJy1waCcsICc3LjAnLCAnLXRuJywgJzgnLCAnLW1hJywgJzIwMCcsICctbWV0YWxfYmluZGluZycsICctaW1hZScsICc8aW5maWxlLm1hZT4nLCAnLW9tYWUnLCAnPG91dGZpbGUubWFlPic=

> <r_epik_Ionization_Penalty>
0.00498697

> <r_epik_Ionization_Penalty_Charging>
0

> <r_epik_Ionization_Penalty_Neutral>
0.00498697

> <r_epik_State_Penalty>
0.00359645

> <r_epik_Charging_Adjusted_Penalty>
0.00359645

> <i_epik_Tot_Q>
0

> <i_epik_Tot_abs_Q>
0

> <r_epik_Metal_State_Penalty>
-0

> <b_epik_Metal_Only>
0

> <s_lp_Force_Field>
OPLS_2005

> <r_lp_Energy>
21.3241

> <b_lp_Chiralities_Consistent>
1

> <s_lp_Variant>
AV-unprocessed.smi:2646-1

> <Gold.Version>
5.8.1

> <Gold.Id.Protein>
6NUR|6NUR_protein|mol2

> <Gold.PLP.Fitness>
43.3722

> <Gold.PLP.PLP>
-32.1092

> <Gold.PLP.part.hbond>
-4.0000

> <Gold.PLP.part.metal>
0.0000

> <Gold.PLP.part.buried>
-2.7602

> <Gold.PLP.part.nonpolar>
-25.9747

> <Gold.PLP.part.repulsive>
0.1493

> <Gold.PLP.ligand.clash>
0.0000

> <Gold.PLP.ligand.torsion>
0.3542

> <Gold.PLP.Chemscore.Hbond>
2.9760

> <Gold.PLP.Chemscore.CHOScore>
0.9992

> <Gold.PLP.Chemscore.Metal>
0.0000

> <Gold.Chemscore.Hbonds>
donor molecule, donor type, donor heavy atom, donor atom, acceptor molecule, acceptor atom, score
      L1  H     5    27       P1  7948  0.94
      L1  H     8    28       P1  7948  1.00
      P1  H  7989  7998       L1    13  0.89
      L1  C    14    32       P1  7957  1.00

> <Gold.PLP.Chemscore.Internal.Correction>
0.0457

> <Gold.Rescore>
     Score         DG    S(hbond)    S(metal)    S(lipo)     H(rot)  DE(clash)    DE(int)     intcor
     14.98     -16.82       2.15        0.00      78.98       1.98       0.00       1.84       ----

> <Gold.Chemscore.Fitness>
14.9800

> <Gold.Chemscore.DG>
-16.8237

> <Gold.Chemscore.ZeroCoef>
-5.4800

> <Gold.Chemscore.Hbond>
2.1472

> <Gold.Chemscore.Metal>
0.0000

> <Gold.Chemscore.Lipo>
78.9751

> <Gold.Chemscore.Internal_Hbond>
0.0000

> <Gold.Chemscore.DEClash>
0.0000

> <Gold.Chemscore.DEInternal>
1.8437

> <Gold.Chemscore.Rot>
1.9798

> <Gold.Chemscore.Internal.Correction>
   9.000000E+99

> <Gold.Chemscore.Hbonds>
donor molecule, donor type, donor heavy atom, donor atom, acceptor molecule, acceptor atom, score
      L1  H     5    27       P1  7948  0.45
      L1  H     8    28       P1  7948  0.54
      P1  H  7989  7998       L1    13  0.67

> <Gold.Chemscore.Hbond.Weighted>
-7.1717

> <Gold.Chemscore.Metal.Weighted>
-0.0000

> <Gold.Chemscore.Lipo.Weighted>
-9.2401

> <Gold.Chemscore.Internal_Hbond.Weighted>
0.0000

> <Gold.Chemscore.DEClash.Weighted>
0.0000

> <Gold.Chemscore.DEInternal.Weighted>
1.8437

> <Gold.Chemscore.Rot.Weighted>
5.0682

> <Gold.Chemscore.Internal.Correction.Weighted>
   9.000000E+99

> <Gold.Protein.RotatedTorsions>
[ 6907 6896 6895 6894 ] final   40.15 input  -60.11 | X-H torsion
[ 7974 7965 7964 7962 ] final  -29.64 input  175.53 | X-H torsion
[ 8008 7997 7996 7995 ] final   63.36 input   59.86 | X-H torsion
[ 10167 10162 10161 10158 ] final  -82.21 input  -65.29 | X-H torsion
[ 10718 10713 10712 10709 ] final -122.01 input   66.30 | X-H torsion
[ 10763 10752 10751 10750 ] final  149.76 input  -60.55 | X-H torsion
[ 11005 11000 10999 10996 ] final  124.18 input  -57.11 | X-H torsion

> <Gold.Protein.ActiveResidues>
 VAL166  LYS551  ARG553  GLY616  TRP617  ASP618  TYR619  PRO620  LYS621  CYS622 
 ASP623  PHE694  ASN695  SER759  ASP760  ASP761  ALA762  ILE779  LEU786  VAL792 
 PHE793  MET794  SER795  GLU796  ALA797  LYS798  CYS799  TRP800  GLU811  SER814 

> <Gold.Protein.RotatedAtoms>
  152.1788  134.8772  160.0527 H   0  0  0  0  0  0  0  0  0  0  0  0  # atno 6907 bound_to 6896
  151.9704  133.3719  159.4077 H   0  0  0  0  0  0  0  0  0  0  0  0  # atno 6908 bound_to 6896
  150.6914  134.4069  159.5188 H   0  0  0  0  0  0  0  0  0  0  0  0  # atno 6909 bound_to 6896
  146.1201  140.5439  142.8739 H   0  0  0  0  0  0  0  0  0  0  0  0  # atno 7974 bound_to 7965
  155.6290  140.3496  155.4676 H   0  0  0  0  0  0  0  0  0  0  0  0  # atno 8008 bound_to 7997
  156.0019  140.1215  157.0563 H   0  0  0  0  0  0  0  0  0  0  0  0  # atno 8009 bound_to 7997
  154.4251  140.1099  156.5694 H   0  0  0  0  0  0  0  0  0  0  0  0  # atno 8010 bound_to 7997
  140.4341  143.2538  151.8718 H   0  0  0  0  0  0  0  0  0  0  0  0  # atno 10167 bound_to 10162
  156.1383  130.6447  150.9731 H   0  0  0  0  0  0  0  0  0  0  0  0  # atno 10718 bound_to 10713
  154.0763  135.2863  155.3299 H   0  0  0  0  0  0  0  0  0  0  0  0  # atno 10763 bound_to 10752
  154.6713  135.5298  153.8145 H   0  0  0  0  0  0  0  0  0  0  0  0  # atno 10764 bound_to 10752
  153.0466  135.6558  154.0942 H   0  0  0  0  0  0  0  0  0  0  0  0  # atno 10765 bound_to 10752
  139.9347  134.9640  156.8371 H   0  0  0  0  0  0  0  0  0  0  0  0  # atno 11005 bound_to 11000
  144.7589  140.5375  143.6749 LP  0  0  0  0  0  0  0  0  0  0  0  0  # atno 17320 bound_to 7965
  145.5483  139.1476  143.3408 LP  0  0  0  0  0  0  0  0  0  0  0  0  # atno 17321 bound_to 7965
  139.4786  144.5302  151.8677 LP  0  0  0  0  0  0  0  0  0  0  0  0  # atno 17342 bound_to 10162
  140.4393  144.2008  150.5890 LP  0  0  0  0  0  0  0  0  0  0  0  0  # atno 17343 bound_to 10162
  157.6553  131.0890  150.7962 LP  0  0  0  0  0  0  0  0  0  0  0  0  # atno 17370 bound_to 10713
  156.8039  130.4930  149.5365 LP  0  0  0  0  0  0  0  0  0  0  0  0  # atno 17371 bound_to 10713
  140.6108  134.0084  155.7576 LP  0  0  0  0  0  0  0  0  0  0  0  0  # atno 17394 bound_to 11000
  141.0954  133.9851  157.3168 LP  0  0  0  0  0  0  0  0  0  0  0  0  # atno 17395 bound_to 11000

$$$$
