AV-unprocessed.smi:99|AV-procd|sdf|877|dock5
  -GOLD-   2262017343D 1   1.00000     0.00000
 Structure written by MMmdl.
 53 56  0  0  0  0  0  0  0  0  1 V2000
  145.3164  137.8406  157.2349 O   0  0  0  0  0  0  0  0  0  0  0  0
  145.3616  138.0236  156.0165 C   0  0  0  0  0  0  0  0  0  0  0  0
  144.4930  137.4728  155.1468 O   0  0  0  0  0  0  0  0  0  0  0  0
  143.3372  136.8055  155.6241 C   0  0  0  0  0  0  0  0  0  0  0  0
  142.8729  135.7924  154.5642 C   0  0  2  0  0  0  0  0  0  0  0  0
  144.0265  135.1766  153.9904 O   0  0  0  0  0  0  0  0  0  0  0  0
  144.3292  135.7236  152.7363 C   0  0  1  0  0  0  0  0  0  0  0  0
  144.2530  134.6336  151.6895 N   0  0  0  0  0  0  0  0  0  0  0  0
  143.5997  133.4318  151.9330 C   0  0  0  0  0  0  0  0  0  0  0  0
  143.4974  132.4466  151.0099 C   0  0  0  0  0  0  0  0  0  0  0  0
  144.0801  132.6119  149.6825 C   0  0  0  0  0  0  0  0  0  0  0  0
  144.0417  131.7760  148.7824 O   0  0  0  0  0  0  0  0  0  0  0  0
  144.7150  133.8399  149.4766 N   0  0  0  0  0  0  0  0  0  0  0  0
  144.8223  134.8649  150.4179 C   0  0  0  0  0  0  0  0  0  0  0  0
  145.3866  135.9170  150.1206 O   0  0  0  0  0  0  0  0  0  0  0  0
  143.2965  136.8174  152.4284 C   0  0  2  0  0  0  0  0  0  0  0  0
  143.8225  138.0980  152.7233 O   0  0  0  0  0  0  0  0  0  0  0  0
  142.1634  136.4128  153.3599 C   0  0  2  0  0  0  0  0  0  0  0  0
  141.2609  137.4693  153.6695 O   0  0  0  0  0  0  0  0  0  0  0  0
  140.0496  137.2105  154.2063 C   0  0  0  0  0  0  0  0  0  0  0  0
  139.7429  136.1287  154.7113 O   0  0  0  0  0  0  0  0  0  0  0  0
  139.1175  138.3706  154.1162 C   0  0  0  0  0  0  0  0  0  0  0  0
  139.6362  139.6564  153.8360 C   0  0  0  0  0  0  0  0  0  0  0  0
  138.7806  140.7718  153.7491 C   0  0  0  0  0  0  0  0  0  0  0  0
  137.3958  140.6147  153.9414 C   0  0  0  0  0  0  0  0  0  0  0  0
  136.8673  139.3409  154.2205 C   0  0  0  0  0  0  0  0  0  0  0  0
  137.7212  138.2242  154.3076 C   0  0  0  0  0  0  0  0  0  0  0  0
  146.3869  138.8764  155.3489 C   0  0  0  0  0  0  0  0  0  0  0  0
  147.3264  139.5782  156.1397 C   0  0  0  0  0  0  0  0  0  0  0  0
  148.3059  140.3911  155.5366 C   0  0  0  0  0  0  0  0  0  0  0  0
  148.3567  140.5135  154.1359 C   0  0  0  0  0  0  0  0  0  0  0  0
  147.4268  139.8216  153.3383 C   0  0  0  0  0  0  0  0  0  0  0  0
  146.4472  139.0073  153.9394 C   0  0  0  0  0  0  0  0  0  0  0  0
  145.1253  134.0012  148.5682 H   0  0  0  0  0  0  0  0  0  0  0  0
  143.5885  136.2876  156.5506 H   0  0  0  0  0  0  0  0  0  0  0  0
  142.5535  137.5284  155.8517 H   0  0  0  0  0  0  0  0  0  0  0  0
  142.2338  135.0417  155.0303 H   0  0  0  0  0  0  0  0  0  0  0  0
  145.3646  136.0702  152.7433 H   0  0  0  0  0  0  0  0  0  0  0  0
  143.1411  133.2565  152.8948 H   0  0  0  0  0  0  0  0  0  0  0  0
  142.9788  131.5308  151.2545 H   0  0  0  0  0  0  0  0  0  0  0  0
  142.9959  136.7980  151.3800 H   0  0  0  0  0  0  0  0  0  0  0  0
  143.9289  138.5726  151.9129 H   0  0  0  0  0  0  0  0  0  0  0  0
  141.6093  135.6039  152.8807 H   0  0  0  0  0  0  0  0  0  0  0  0
  140.6963  139.8016  153.6852 H   0  0  0  0  0  0  0  0  0  0  0  0
  139.1881  141.7490  153.5354 H   0  0  0  0  0  0  0  0  0  0  0  0
  136.7398  141.4703  153.8759 H   0  0  0  0  0  0  0  0  0  0  0  0
  135.8044  139.2195  154.3688 H   0  0  0  0  0  0  0  0  0  0  0  0
  137.2823  137.2612  154.5247 H   0  0  0  0  0  0  0  0  0  0  0  0
  147.3078  139.4995  157.2171 H   0  0  0  0  0  0  0  0  0  0  0  0
  149.0194  140.9209  156.1502 H   0  0  0  0  0  0  0  0  0  0  0  0
  149.1078  141.1371  153.6738 H   0  0  0  0  0  0  0  0  0  0  0  0
  147.4642  139.9151  152.2631 H   0  0  0  0  0  0  0  0  0  0  0  0
  145.7478  138.4917  153.2977 H   0  0  0  0  0  0  0  0  0  0  0  0
  1  2  2  0  0  0  0
  2  3  1  0  0  0  0
  2 28  1  0  0  0  0
  3  4  1  0  0  0  0
  4  5  1  0  0  0  0
  4 35  1  0  0  0  0
  4 36  1  0  0  0  0
  5 18  1  0  0  0  0
  5  6  1  0  0  0  0
  5 37  1  0  0  0  0
  6  7  1  0  0  0  0
  7  8  1  0  0  0  0
  7 16  1  0  0  0  0
  7 38  1  0  0  0  0
  8 14  1  0  0  0  0
  8  9  1  0  0  0  0
  9 10  2  0  0  0  0
  9 39  1  0  0  0  0
 10 11  1  0  0  0  0
 10 40  1  0  0  0  0
 11 12  2  0  0  0  0
 11 13  1  0  0  0  0
 13 34  1  0  0  0  0
 13 14  1  0  0  0  0
 14 15  2  0  0  0  0
 16 17  1  0  0  0  0
 16 18  1  0  0  0  0
 16 41  1  0  0  0  0
 17 42  1  0  0  0  0
 18 19  1  0  0  0  0
 18 43  1  0  0  0  0
 19 20  1  0  0  0  0
 20 21  2  0  0  0  0
 20 22  1  0  0  0  0
 22 27  1  0  0  0  0
 22 23  2  0  0  0  0
 23 24  1  0  0  0  0
 23 44  1  0  0  0  0
 24 25  2  0  0  0  0
 24 45  1  0  0  0  0
 25 26  1  0  0  0  0
 25 46  1  0  0  0  0
 26 27  2  0  0  0  0
 26 47  1  0  0  0  0
 27 48  1  0  0  0  0
 28 33  1  0  0  0  0
 28 29  2  0  0  0  0
 29 30  1  0  0  0  0
 29 49  1  0  0  0  0
 30 31  2  0  0  0  0
 30 50  1  0  0  0  0
 31 32  1  0  0  0  0
 31 51  1  0  0  0  0
 32 33  2  0  0  0  0
 32 52  1  0  0  0  0
 33 53  1  0  0  0  0
M  END
> <s_m_source_file>
AV-unprocessed.smi

> <i_m_source_file_index>
99

> <i_lp_mmshare_version>
43012

> <i_f3d_flags>
0

> <s_epik_input>
W2NIXTFbY0hdW2NIXVtjSF1bY0hdYzFDKD1PKU9bQ0gyXVtDQEBIXTJPW0NAQEhdKG4zW2NIXVtjSF1jKD1PKVtuSF1jMz1PKVtDQEBIXShbT0hdKVtDQEhdMk9DKD1PKWM0W2NIXVtjSF1bY0hdW2NIXVtjSF00

> <s_epik_cmdline>
J2VwaWtfcHl0aG9uJywgJy1waCcsICc3LjAnLCAnLXRuJywgJzgnLCAnLW1hJywgJzIwMCcsICctbWV0YWxfYmluZGluZycsICctaW1hZScsICc8aW5maWxlLm1hZT4nLCAnLW9tYWUnLCAnPG91dGZpbGUubWFlPic=

> <r_lp_tautomer_probability>
1

> <r_epik_Ionization_Penalty>
0.00454555

> <r_epik_Ionization_Penalty_Charging>
0.0045191

> <r_epik_Ionization_Penalty_Neutral>
2.64449e-05

> <r_epik_State_Penalty>
-0

> <r_epik_Charging_Adjusted_Penalty>
0.0045191

> <i_epik_Tot_Q>
0

> <i_epik_Tot_abs_Q>
0

> <r_epik_Metal_State_Penalty>
1.27877

> <b_epik_Metal_Only>
0

> <s_epik_Chemistry_Notes>
This compound has an ester and may undergo hydrolysis at high or low pH. This compound contains an acetal/aminal-like group ( X-CH(R)-Y where X, Y are N, S, or O) that may be acid/base labile, releasing an aldehyde.

> <s_lp_Force_Field>
OPLS_2005

> <r_lp_Energy>
39.429

> <b_lp_Chiralities_Consistent>
1

> <s_lp_Variant>
AV-unprocessed.smi:99-13

> <Gold.Version>
5.8.1

> <Gold.Id.Protein>
6NUR|6NUR_protein|mol2

> <Gold.PLP.Fitness>
53.8436

> <Gold.PLP.PLP>
-42.9308

> <Gold.PLP.part.hbond>
-4.1937

> <Gold.PLP.part.metal>
0.0000

> <Gold.PLP.part.buried>
-6.9634

> <Gold.PLP.part.nonpolar>
-35.3489

> <Gold.PLP.part.repulsive>
3.4820

> <Gold.PLP.ligand.clash>
0.0000

> <Gold.PLP.ligand.torsion>
1.2654

> <Gold.PLP.Chemscore.Hbond>
3.4467

> <Gold.PLP.Chemscore.CHOScore>
1.0000

> <Gold.PLP.Chemscore.Metal>
0.0000

> <Gold.Chemscore.Hbonds>
donor molecule, donor type, donor heavy atom, donor atom, acceptor molecule, acceptor atom, score
      L1  H    13    34       P1  7921  1.00
      L1  H    17    42       P1 10171  0.85
      P1  H 10785 10796       L1    12  0.53
      P1  H 11000 11005       L1    21  1.00
      L1  C     9    39       P1 10957  1.00

> <Gold.PLP.Chemscore.Internal.Correction>
0.1035

> <Gold.Rescore>
     Score         DG    S(hbond)    S(metal)    S(lipo)     H(rot)  DE(clash)    DE(int)     intcor
     12.86     -18.24       3.29        0.00      84.91       3.19       1.34       4.04       ----

> <Gold.Chemscore.Fitness>
12.8621

> <Gold.Chemscore.DG>
-18.2368

> <Gold.Chemscore.ZeroCoef>
-5.4800

> <Gold.Chemscore.Hbond>
3.2901

> <Gold.Chemscore.Metal>
0.0000

> <Gold.Chemscore.Lipo>
84.9149

> <Gold.Chemscore.Internal_Hbond>
0.0000

> <Gold.Chemscore.DEClash>
1.3361

> <Gold.Chemscore.DEInternal>
4.0386

> <Gold.Chemscore.Rot>
3.1903

> <Gold.Chemscore.Internal.Correction>
   9.000000E+99

> <Gold.Chemscore.Hbonds>
donor molecule, donor type, donor heavy atom, donor atom, acceptor molecule, acceptor atom, score
      L1  H    13    34       P1  7921  0.92
      L1  H    17    42       P1 10171  0.75
      P1  H 10785 10796       L1    12  0.54
      P1  H 11000 11005       L1    21  1.00

> <Gold.Chemscore.Hbond.Weighted>
-10.9888

> <Gold.Chemscore.Metal.Weighted>
-0.0000

> <Gold.Chemscore.Lipo.Weighted>
-9.9350

> <Gold.Chemscore.Internal_Hbond.Weighted>
0.0000

> <Gold.Chemscore.DEClash.Weighted>
1.3361

> <Gold.Chemscore.DEInternal.Weighted>
4.0386

> <Gold.Chemscore.Rot.Weighted>
8.1671

> <Gold.Chemscore.Internal.Correction.Weighted>
   9.000000E+99

> <Gold.Protein.RotatedTorsions>
[ 6907 6896 6895 6894 ] final   56.47 input  -60.11 | X-H torsion
[ 7974 7965 7964 7962 ] final  160.31 input  175.53 | X-H torsion
[ 8008 7997 7996 7995 ] final   35.99 input   59.86 | X-H torsion
[ 10167 10162 10161 10158 ] final   24.79 input  -65.29 | X-H torsion
[ 10718 10713 10712 10709 ] final  -11.94 input   66.30 | X-H torsion
[ 10763 10752 10751 10750 ] final   77.10 input  -60.55 | X-H torsion
[ 11005 11000 10999 10996 ] final   65.48 input  -57.11 | X-H torsion

> <Gold.Protein.ActiveResidues>
 VAL166  LYS551  ARG553  GLY616  TRP617  ASP618  TYR619  PRO620  LYS621  CYS622 
 ASP623  PHE694  ASN695  SER759  ASP760  ASP761  ALA762  ILE779  LEU786  VAL792 
 PHE793  MET794  SER795  GLU796  ALA797  LYS798  CYS799  TRP800  GLU811  SER814 

> <Gold.Protein.RotatedAtoms>
  152.3639  134.6833  160.0198 H   0  0  0  0  0  0  0  0  0  0  0  0  # atno 6907 bound_to 6896
  151.7147  133.3307  159.3308 H   0  0  0  0  0  0  0  0  0  0  0  0  # atno 6908 bound_to 6896
  150.7624  134.6435  159.6294 H   0  0  0  0  0  0  0  0  0  0  0  0  # atno 6909 bound_to 6896
  144.7744  139.7739  143.6284 H   0  0  0  0  0  0  0  0  0  0  0  0  # atno 7974 bound_to 7965
  155.1801  140.3299  155.4376 H   0  0  0  0  0  0  0  0  0  0  0  0  # atno 8008 bound_to 7997
  156.2480  140.1928  156.6850 H   0  0  0  0  0  0  0  0  0  0  0  0  # atno 8009 bound_to 7997
  154.6277  140.0587  156.9680 H   0  0  0  0  0  0  0  0  0  0  0  0  # atno 8010 bound_to 7997
  140.5159  144.0083  150.6394 H   0  0  0  0  0  0  0  0  0  0  0  0  # atno 10167 bound_to 10162
  156.6518  130.4957  149.6059 H   0  0  0  0  0  0  0  0  0  0  0  0  # atno 10718 bound_to 10713
  153.0774  135.4927  154.8432 H   0  0  0  0  0  0  0  0  0  0  0  0  # atno 10763 bound_to 10752
  154.7105  135.3019  154.9207 H   0  0  0  0  0  0  0  0  0  0  0  0  # atno 10764 bound_to 10752
  153.9902  135.6779  153.4807 H   0  0  0  0  0  0  0  0  0  0  0  0  # atno 10765 bound_to 10752
  139.9891  134.6619  156.0122 H   0  0  0  0  0  0  0  0  0  0  0  0  # atno 11005 bound_to 11000
  146.1913  139.5155  142.9803 LP  0  0  0  0  0  0  0  0  0  0  0  0  # atno 17320 bound_to 7965
  145.6230  141.0319  143.1905 LP  0  0  0  0  0  0  0  0  0  0  0  0  # atno 17321 bound_to 7965
  140.3418  143.3015  152.0580 LP  0  0  0  0  0  0  0  0  0  0  0  0  # atno 17342 bound_to 10162
  139.4909  144.6437  151.6824 LP  0  0  0  0  0  0  0  0  0  0  0  0  # atno 17343 bound_to 10162
  156.2078  130.6660  151.1237 LP  0  0  0  0  0  0  0  0  0  0  0  0  # atno 17370 bound_to 10713
  157.7138  131.0720  150.6402 LP  0  0  0  0  0  0  0  0  0  0  0  0  # atno 17371 bound_to 10713
  141.1551  133.6544  156.4135 LP  0  0  0  0  0  0  0  0  0  0  0  0  # atno 17394 bound_to 11000
  140.4943  134.6546  157.5223 LP  0  0  0  0  0  0  0  0  0  0  0  0  # atno 17395 bound_to 11000

$$$$
