AV-unprocessed.smi:2248|AV-procd|sdf|9097|dock8
  -GOLD-   2272012293D 1   1.00000     0.00000
 Structure written by MMmdl.
 35 36  0  0  0  0  0  0  0  0  1 V2000
  153.0922  140.7240  160.1817 C   0  0  0  0  0  0  0  0  0  0  0  0
  152.6613  141.9837  159.4606 C   0  0  0  0  0  0  0  0  0  0  0  0
  153.4172  143.1684  159.5581 C   0  0  0  0  0  0  0  0  0  0  0  0
  152.9647  144.3022  158.8601 C   0  0  0  0  0  0  0  0  0  0  0  0
  151.7845  144.2054  158.0981 C   0  0  0  0  0  0  0  0  0  0  0  0
  151.0845  142.9786  158.0537 C   0  0  0  0  0  0  0  0  0  0  0  0
  149.9093  142.9845  157.2563 N   0  0  0  0  0  0  0  0  0  0  0  0
  148.9414  142.0531  157.1951 C   0  0  0  0  0  0  0  0  0  0  0  0
  148.9028  141.0185  157.8623 O   0  0  0  0  0  0  0  0  0  0  0  0
  148.0011  142.3898  156.3011 N   0  0  0  0  0  0  0  0  0  0  0  0
  146.8291  141.5838  155.9789 C   0  0  1  0  0  0  0  0  0  0  0  0
  145.9386  141.4503  157.1850 C   0  0  0  0  0  0  0  0  0  0  0  0
  144.7074  141.9091  156.9708 C   0  0  0  0  0  0  0  0  0  0  0  0
  144.5264  142.4544  155.5777 C   0  0  1  0  0  0  0  0  0  0  0  0
  144.0159  143.9078  155.5579 C   0  0  0  0  0  0  0  0  0  0  0  0
  143.8660  144.3934  154.2382 O   0  0  0  0  0  0  0  0  0  0  0  0
  145.9155  142.2552  154.9185 C   0  0  0  0  0  0  0  0  0  0  0  0
  151.5294  141.8905  158.7302 N   0  0  0  0  0  0  0  0  0  0  0  0
  147.1323  140.5857  155.6582 H   0  0  0  0  0  0  0  0  0  0  0  0
  143.7968  141.8209  155.0722 H   0  0  0  0  0  0  0  0  0  0  0  0
  153.8571  140.9396  160.9285 H   0  0  0  0  0  0  0  0  0  0  0  0
  153.5005  140.0050  159.4713 H   0  0  0  0  0  0  0  0  0  0  0  0
  152.2442  140.2629  160.6892 H   0  0  0  0  0  0  0  0  0  0  0  0
  154.3196  143.2095  160.1504 H   0  0  0  0  0  0  0  0  0  0  0  0
  153.5138  145.2311  158.9070 H   0  0  0  0  0  0  0  0  0  0  0  0
  151.4239  145.0671  157.5553 H   0  0  0  0  0  0  0  0  0  0  0  0
  149.7969  143.7873  156.6553 H   0  0  0  0  0  0  0  0  0  0  0  0
  148.1108  143.2554  155.7936 H   0  0  0  0  0  0  0  0  0  0  0  0
  146.2858  141.0145  158.1103 H   0  0  0  0  0  0  0  0  0  0  0  0
  143.9069  141.9043  157.6957 H   0  0  0  0  0  0  0  0  0  0  0  0
  143.0560  143.9775  156.0705 H   0  0  0  0  0  0  0  0  0  0  0  0
  144.7093  144.5582  156.0915 H   0  0  0  0  0  0  0  0  0  0  0  0
  143.6241  143.6716  153.6784 H   0  0  0  0  0  0  0  0  0  0  0  0
  146.3297  143.2031  154.5717 H   0  0  0  0  0  0  0  0  0  0  0  0
  145.8296  141.6181  154.0377 H   0  0  0  0  0  0  0  0  0  0  0  0
  1  2  1  0  0  0  0
  1 21  1  0  0  0  0
  1 22  1  0  0  0  0
  1 23  1  0  0  0  0
  2 18  1  0  0  0  0
  2  3  2  0  0  0  0
  3  4  1  0  0  0  0
  3 24  1  0  0  0  0
  4  5  2  0  0  0  0
  4 25  1  0  0  0  0
  5  6  1  0  0  0  0
  5 26  1  0  0  0  0
  6  7  1  0  0  0  0
  6 18  2  0  0  0  0
  7  8  1  0  0  0  0
  7 27  1  0  0  0  0
  8  9  2  0  0  0  0
  8 10  1  0  0  0  0
 10 11  1  0  0  0  0
 10 28  1  0  0  0  0
 11 19  1  0  0  0  0
 11 17  1  0  0  0  0
 11 12  1  0  0  0  0
 12 13  2  0  0  0  0
 12 29  1  0  0  0  0
 13 14  1  0  0  0  0
 13 30  1  0  0  0  0
 14 20  1  0  0  0  0
 14 15  1  0  0  0  0
 14 17  1  0  0  0  0
 15 16  1  0  0  0  0
 15 31  1  0  0  0  0
 15 32  1  0  0  0  0
 16 33  1  0  0  0  0
 17 34  1  0  0  0  0
 17 35  1  0  0  0  0
M  END
> <s_m_source_file>
AV-unprocessed.smi

> <i_m_source_file_index>
2248

> <i_lp_mmshare_version>
43012

> <i_f3d_flags>
0

> <s_epik_input>
W0NIM11jMVtjSF1bY0hdW2NIXWMobjEpW05IXUMoPU8pW05IXVtDQEBIXTJbQ0hdPVtDSF1bQ0BASF0oW0NIMl0yKVtDSDJdW09IXQ==

> <s_epik_cmdline>
J2VwaWtfcHl0aG9uJywgJy1waCcsICc3LjAnLCAnLXRuJywgJzgnLCAnLW1hJywgJzIwMCcsICctbWV0YWxfYmluZGluZycsICctaW1hZScsICc8aW5maWxlLm1hZT4nLCAnLW9tYWUnLCAnPG91dGZpbGUubWFlPic=

> <r_lp_tautomer_probability>
1

> <r_epik_Ionization_Penalty>
8.36606e-05

> <r_epik_Ionization_Penalty_Charging>
0

> <r_epik_Ionization_Penalty_Neutral>
8.36606e-05

> <r_epik_State_Penalty>
-0

> <r_epik_Charging_Adjusted_Penalty>
0

> <i_epik_Tot_Q>
0

> <i_epik_Tot_abs_Q>
0

> <r_epik_Metal_State_Penalty>
-0

> <b_epik_Metal_Only>
0

> <s_lp_Force_Field>
OPLS_2005

> <r_lp_Energy>
18.8307

> <b_lp_Chiralities_Consistent>
1

> <s_lp_Variant>
AV-unprocessed.smi:2248-4

> <Gold.Version>
5.8.1

> <Gold.Id.Protein>
6NUR|6NUR_protein|mol2

> <Gold.PLP.Fitness>
40.1236

> <Gold.PLP.PLP>
-31.2137

> <Gold.PLP.part.hbond>
-3.0000

> <Gold.PLP.part.metal>
0.0000

> <Gold.PLP.part.buried>
-3.9882

> <Gold.PLP.part.nonpolar>
-24.9599

> <Gold.PLP.part.repulsive>
0.0841

> <Gold.PLP.ligand.clash>
0.0000

> <Gold.PLP.ligand.torsion>
0.0388

> <Gold.PLP.Chemscore.Hbond>
2.9920

> <Gold.PLP.Chemscore.CHOScore>
0.0000

> <Gold.PLP.Chemscore.Metal>
0.0000

> <Gold.Chemscore.Hbonds>
donor molecule, donor type, donor heavy atom, donor atom, acceptor molecule, acceptor atom, score
      L1  H     7    27       P1  8028  1.00
      L1  H    10    28       P1  8028  0.98
      L1  H    16    33       P1 10174  0.67

> <Gold.PLP.Chemscore.Internal.Correction>
0.0114

> <Gold.Rescore>
     Score         DG    S(hbond)    S(metal)    S(lipo)     H(rot)  DE(clash)    DE(int)     intcor
     17.78     -19.17       2.82        0.00      76.32       1.82       0.04       1.35       ----

> <Gold.Chemscore.Fitness>
17.7763

> <Gold.Chemscore.DG>
-19.1676

> <Gold.Chemscore.ZeroCoef>
-5.4800

> <Gold.Chemscore.Hbond>
2.8182

> <Gold.Chemscore.Metal>
0.0000

> <Gold.Chemscore.Lipo>
76.3234

> <Gold.Chemscore.Internal_Hbond>
0.0000

> <Gold.Chemscore.DEClash>
0.0402

> <Gold.Chemscore.DEInternal>
1.3510

> <Gold.Chemscore.Rot>
1.8184

> <Gold.Chemscore.Internal.Correction>
   9.000000E+99

> <Gold.Chemscore.Hbonds>
donor molecule, donor type, donor heavy atom, donor atom, acceptor molecule, acceptor atom, score
      L1  H     7    27       P1  8028  0.95
      L1  H    10    28       P1  8028  0.61
      L1  H    16    33       P1 10174  0.57

> <Gold.Chemscore.Hbond.Weighted>
-9.4128

> <Gold.Chemscore.Metal.Weighted>
-0.0000

> <Gold.Chemscore.Lipo.Weighted>
-8.9298

> <Gold.Chemscore.Internal_Hbond.Weighted>
0.0000

> <Gold.Chemscore.DEClash.Weighted>
0.0402

> <Gold.Chemscore.DEInternal.Weighted>
1.3510

> <Gold.Chemscore.Rot.Weighted>
4.6551

> <Gold.Chemscore.Internal.Correction.Weighted>
   9.000000E+99

> <Gold.Protein.RotatedTorsions>
[ 6907 6896 6895 6894 ] final -107.68 input  -60.11 | X-H torsion
[ 7974 7965 7964 7962 ] final  -25.71 input  175.53 | X-H torsion
[ 8008 7997 7996 7995 ] final   48.71 input   59.86 | X-H torsion
[ 10167 10162 10161 10158 ] final -118.86 input  -65.29 | X-H torsion
[ 10718 10713 10712 10709 ] final   38.25 input   66.30 | X-H torsion
[ 10763 10752 10751 10750 ] final  -92.89 input  -60.55 | X-H torsion
[ 11005 11000 10999 10996 ] final   -7.20 input  -57.11 | X-H torsion

> <Gold.Protein.ActiveResidues>
 VAL166  LYS551  ARG553  GLY616  TRP617  ASP618  TYR619  PRO620  LYS621  CYS622 
 ASP623  PHE694  ASN695  SER759  ASP760  ASP761  ALA762  ILE779  LEU786  VAL792 
 PHE793  MET794  SER795  GLU796  ALA797  LYS798  CYS799  TRP800  GLU811  SER814 

> <Gold.Protein.RotatedAtoms>
  150.7458  133.9791  159.3570 H   0  0  0  0  0  0  0  0  0  0  0  0  # atno 6907 bound_to 6896
  151.7731  135.0779  160.0372 H   0  0  0  0  0  0  0  0  0  0  0  0  # atno 6908 bound_to 6896
  152.3326  133.5938  159.5856 H   0  0  0  0  0  0  0  0  0  0  0  0  # atno 6909 bound_to 6896
  146.1473  140.4922  142.8626 H   0  0  0  0  0  0  0  0  0  0  0  0  # atno 7974 bound_to 7965
  155.3902  140.3433  155.4251 H   0  0  0  0  0  0  0  0  0  0  0  0  # atno 8008 bound_to 7997
  156.1562  140.1586  156.8722 H   0  0  0  0  0  0  0  0  0  0  0  0  # atno 8009 bound_to 7997
  154.5097  140.0793  156.7946 H   0  0  0  0  0  0  0  0  0  0  0  0  # atno 8010 bound_to 7997
  140.0530  143.5042  152.2072 H   0  0  0  0  0  0  0  0  0  0  0  0  # atno 10167 bound_to 10162
  157.3566  130.7627  149.7017 H   0  0  0  0  0  0  0  0  0  0  0  0  # atno 10718 bound_to 10713
  154.6906  135.5214  153.8387 H   0  0  0  0  0  0  0  0  0  0  0  0  # atno 10763 bound_to 10752
  153.0629  135.6575  154.0430 H   0  0  0  0  0  0  0  0  0  0  0  0  # atno 10764 bound_to 10752
  154.0304  135.2986  155.3349 H   0  0  0  0  0  0  0  0  0  0  0  0  # atno 10765 bound_to 10752
  140.7102  133.8915  155.8745 H   0  0  0  0  0  0  0  0  0  0  0  0  # atno 11005 bound_to 11000
  144.7862  140.5941  143.6572 LP  0  0  0  0  0  0  0  0  0  0  0  0  # atno 17320 bound_to 7965
  145.4906  139.1489  143.3712 LP  0  0  0  0  0  0  0  0  0  0  0  0  # atno 17321 bound_to 7965
  139.5941  144.7561  151.3328 LP  0  0  0  0  0  0  0  0  0  0  0  0  # atno 17342 bound_to 10162
  140.7208  143.7141  150.7746 LP  0  0  0  0  0  0  0  0  0  0  0  0  # atno 17343 bound_to 10162
  155.9730  130.4125  150.4037 LP  0  0  0  0  0  0  0  0  0  0  0  0  # atno 17370 bound_to 10713
  157.2108  131.0460  151.2600 LP  0  0  0  0  0  0  0  0  0  0  0  0  # atno 17371 bound_to 10713
  141.0090  134.1046  157.4240 LP  0  0  0  0  0  0  0  0  0  0  0  0  # atno 17394 bound_to 11000
  139.8873  135.0089  156.6555 LP  0  0  0  0  0  0  0  0  0  0  0  0  # atno 17395 bound_to 11000

$$$$
