AV-unprocessed.smi:261|AV-procd|sdf|1988|dock3
  -GOLD-   2262021173D 1   1.00000     0.00000
 Structure written by MMmdl.
 51 54  0  0  0  0  0  0  0  0  1 V2000
  151.9678  143.7897  161.5142 C   0  0  0  0  0  0  0  0  0  0  0  0
  153.1485  143.0099  161.4172 O   0  0  0  0  0  0  0  0  0  0  0  0
  152.9352  141.7268  160.8470 C   0  0  2  0  0  0  0  0  0  0  0  0
  154.2181  141.0654  160.3345 C   0  0  0  0  0  0  0  0  0  0  0  0
  153.7354  140.0859  159.2513 C   0  0  1  0  0  0  0  0  0  0  0  0
  153.4451  138.6898  159.8308 C   0  0  0  0  0  0  0  0  0  0  0  0
  154.4604  138.0684  160.4353 N   0  0  0  0  0  0  0  0  0  0  0  0
  152.3265  138.1843  159.7495 O   0  0  0  0  0  0  0  0  0  0  0  0
  152.5244  140.7274  158.7328 N   0  0  0  0  0  0  0  0  0  0  0  0
  152.0168  140.4861  157.4924 C   0  0  0  0  0  0  0  0  0  0  0  0
  152.6495  139.5785  156.7014 N   0  0  0  0  0  0  0  0  0  0  0  0
  152.1934  139.3008  155.4776 C   0  0  0  0  0  0  0  0  0  0  0  0
  151.1333  139.8082  154.8492 N   0  0  0  0  0  0  0  0  0  0  0  0
  150.4898  140.7213  155.6301 C   0  0  0  0  0  0  0  0  0  0  0  0
  150.8562  141.1177  156.9498 C   0  0  0  0  0  0  0  0  0  0  0  0
  149.9513  142.0688  157.4120 N   0  0  0  0  0  0  0  0  0  0  0  0
  149.1079  142.2246  156.4295 C   0  0  0  0  0  0  0  0  0  0  0  0
  149.3613  141.4572  155.3172 N   0  0  0  0  0  0  0  0  0  0  0  0
  148.5966  141.4321  154.0834 C   0  0  0  0  0  0  0  0  0  0  0  0
  147.0705  141.4675  154.3133 C   0  0  1  0  0  0  0  0  0  0  0  0
  146.4553  141.4664  153.0407 O   0  0  0  0  0  0  0  0  0  0  0  0
  146.5219  140.2840  155.1412 C   0  0  2  0  0  0  0  0  0  0  0  0
  146.6285  138.9230  154.4505 C   0  0  0  0  0  0  0  0  0  0  0  0
  145.5607  138.0895  155.1392 C   0  0  0  0  0  0  0  0  0  0  0  0
  144.6380  139.1294  155.7792 C   0  0  0  0  0  0  0  0  0  0  0  0
  145.1168  140.3856  155.3202 O   0  0  0  0  0  0  0  0  0  0  0  0
  152.0873  141.8303  159.5784 C   0  0  0  0  0  0  0  0  0  0  0  0
  152.4323  141.0671  161.5569 H   0  0  0  0  0  0  0  0  0  0  0  0
  154.4985  140.0069  158.4748 H   0  0  0  0  0  0  0  0  0  0  0  0
  152.2128  144.7720  161.9178 H   0  0  0  0  0  0  0  0  0  0  0  0
  151.2373  143.3297  162.1801 H   0  0  0  0  0  0  0  0  0  0  0  0
  151.5081  143.9346  160.5358 H   0  0  0  0  0  0  0  0  0  0  0  0
  154.8622  141.8184  159.8781 H   0  0  0  0  0  0  0  0  0  0  0  0
  154.7915  140.5861  161.1291 H   0  0  0  0  0  0  0  0  0  0  0  0
  154.3229  137.1530  160.8381 H   0  0  0  0  0  0  0  0  0  0  0  0
  155.3612  138.5206  160.4917 H   0  0  0  0  0  0  0  0  0  0  0  0
  152.7593  138.5673  154.9227 H   0  0  0  0  0  0  0  0  0  0  0  0
  148.2780  142.9136  156.4876 H   0  0  0  0  0  0  0  0  0  0  0  0
  148.9066  142.2848  153.4778 H   0  0  0  0  0  0  0  0  0  0  0  0
  148.8739  140.5366  153.5254 H   0  0  0  0  0  0  0  0  0  0  0  0
  146.7995  142.4029  154.8042 H   0  0  0  0  0  0  0  0  0  0  0  0
  145.5733  141.1406  153.1340 H   0  0  0  0  0  0  0  0  0  0  0  0
  147.0062  140.2436  156.1188 H   0  0  0  0  0  0  0  0  0  0  0  0
  146.3881  139.0209  153.3908 H   0  0  0  0  0  0  0  0  0  0  0  0
  147.6232  138.4841  154.5304 H   0  0  0  0  0  0  0  0  0  0  0  0
  145.0324  137.4557  154.4259 H   0  0  0  0  0  0  0  0  0  0  0  0
  145.9956  137.4454  155.9043 H   0  0  0  0  0  0  0  0  0  0  0  0
  143.5930  138.9894  155.5019 H   0  0  0  0  0  0  0  0  0  0  0  0
  144.7108  139.0915  156.8668 H   0  0  0  0  0  0  0  0  0  0  0  0
  151.0250  141.7698  159.8162 H   0  0  0  0  0  0  0  0  0  0  0  0
  152.2778  142.7718  159.0610 H   0  0  0  0  0  0  0  0  0  0  0  0
  1  2  1  0  0  0  0
  1 30  1  0  0  0  0
  1 31  1  0  0  0  0
  1 32  1  0  0  0  0
  2  3  1  0  0  0  0
  3 28  1  0  0  0  0
  3 27  1  0  0  0  0
  3  4  1  0  0  0  0
  4  5  1  0  0  0  0
  4 33  1  0  0  0  0
  4 34  1  0  0  0  0
  5 29  1  0  0  0  0
  5  6  1  0  0  0  0
  5  9  1  0  0  0  0
  6  7  1  0  0  0  0
  6  8  2  0  0  0  0
  7 35  1  0  0  0  0
  7 36  1  0  0  0  0
  9 10  1  0  0  0  0
  9 27  1  0  0  0  0
 10 15  1  0  0  0  0
 10 11  2  0  0  0  0
 11 12  1  0  0  0  0
 12 13  2  0  0  0  0
 12 37  1  0  0  0  0
 13 14  1  0  0  0  0
 14 18  1  0  0  0  0
 14 15  2  0  0  0  0
 15 16  1  0  0  0  0
 16 17  2  0  0  0  0
 17 18  1  0  0  0  0
 17 38  1  0  0  0  0
 18 19  1  0  0  0  0
 19 20  1  0  0  0  0
 19 39  1  0  0  0  0
 19 40  1  0  0  0  0
 20 21  1  0  0  0  0
 20 22  1  0  0  0  0
 20 41  1  0  0  0  0
 21 42  1  0  0  0  0
 22 26  1  0  0  0  0
 22 23  1  0  0  0  0
 22 43  1  0  0  0  0
 23 24  1  0  0  0  0
 23 44  1  0  0  0  0
 23 45  1  0  0  0  0
 24 25  1  0  0  0  0
 24 46  1  0  0  0  0
 24 47  1  0  0  0  0
 25 26  1  0  0  0  0
 25 48  1  0  0  0  0
 25 49  1  0  0  0  0
 27 50  1  0  0  0  0
 27 51  1  0  0  0  0
M  END
> <s_m_source_file>
AV-unprocessed.smi

> <i_m_source_file_index>
261

> <i_lp_mmshare_version>
43012

> <i_f3d_flags>
0

> <s_epik_input>
W0NIM11PW0NASF0xW0NIMl1bQ0BASF0oQyg9TylbTkgyXSlOKFtDSDJdMSljKG5bY0hdbjIpYyhjMjMpbltjSF1uM1tDSDJdW0NASF0oW09IXSlbQ0BASF00W0NIMl1bQ0gyXVtDSDJdTzQ=

> <s_epik_cmdline>
J2VwaWtfcHl0aG9uJywgJy1waCcsICc3LjAnLCAnLXRuJywgJzgnLCAnLW1hJywgJzIwMCcsICctbWV0YWxfYmluZGluZycsICctaW1hZScsICc8aW5maWxlLm1hZT4nLCAnLW9tYWUnLCAnPG91dGZpbGUubWFlPic=

> <r_lp_tautomer_probability>
1

> <r_epik_Ionization_Penalty>
0.000713824

> <r_epik_Ionization_Penalty_Charging>
0

> <r_epik_Ionization_Penalty_Neutral>
0.000713824

> <r_epik_State_Penalty>
0.000402132

> <r_epik_Charging_Adjusted_Penalty>
0.000402132

> <i_epik_Tot_Q>
0

> <i_epik_Tot_abs_Q>
0

> <r_epik_Metal_State_Penalty>
-0

> <b_epik_Metal_Only>
0

> <s_lp_Force_Field>
OPLS_2005

> <r_lp_Energy>
43.323

> <b_lp_Chiralities_Consistent>
1

> <s_lp_Variant>
AV-unprocessed.smi:261-6

> <Gold.Version>
5.8.1

> <Gold.Id.Protein>
6NUR|6NUR_protein|mol2

> <Gold.PLP.Fitness>
48.1053

> <Gold.PLP.PLP>
-38.1374

> <Gold.PLP.part.hbond>
-3.0000

> <Gold.PLP.part.metal>
0.0000

> <Gold.PLP.part.buried>
-0.3497

> <Gold.PLP.part.nonpolar>
-34.7837

> <Gold.PLP.part.repulsive>
0.3440

> <Gold.PLP.ligand.clash>
0.0000

> <Gold.PLP.ligand.torsion>
0.4559

> <Gold.PLP.Chemscore.Hbond>
3.0000

> <Gold.PLP.Chemscore.CHOScore>
0.5388

> <Gold.PLP.Chemscore.Metal>
0.0000

> <Gold.Chemscore.Hbonds>
donor molecule, donor type, donor heavy atom, donor atom, acceptor molecule, acceptor atom, score
      L1  H    21    42       P1 10175  0.84
      P1  H  7989  7998       L1    13  1.00
      P1  H  7997  8008       L1    11  1.00
      L1  C    17    38       P1  8028  0.58

> <Gold.PLP.Chemscore.Internal.Correction>
0.2633

> <Gold.Rescore>
     Score         DG    S(hbond)    S(metal)    S(lipo)     H(rot)  DE(clash)    DE(int)     intcor
      8.76     -11.71       1.69        0.00      74.78       3.18       1.59       1.37       ----

> <Gold.Chemscore.Fitness>
8.7592

> <Gold.Chemscore.DG>
-11.7149

> <Gold.Chemscore.ZeroCoef>
-5.4800

> <Gold.Chemscore.Hbond>
1.6868

> <Gold.Chemscore.Metal>
0.0000

> <Gold.Chemscore.Lipo>
74.7832

> <Gold.Chemscore.Internal_Hbond>
0.0000

> <Gold.Chemscore.DEClash>
1.5893

> <Gold.Chemscore.DEInternal>
1.3664

> <Gold.Chemscore.Rot>
3.1831

> <Gold.Chemscore.Internal.Correction>
   9.000000E+99

> <Gold.Chemscore.Hbonds>
donor molecule, donor type, donor heavy atom, donor atom, acceptor molecule, acceptor atom, score
      L1  H    21    42       P1 10175  0.21
      P1  H  7989  7998       L1    13  0.20
      P1  H  7997  8008       L1    11  0.44

> <Gold.Chemscore.Hbond.Weighted>
-5.6339

> <Gold.Chemscore.Metal.Weighted>
-0.0000

> <Gold.Chemscore.Lipo.Weighted>
-8.7496

> <Gold.Chemscore.Internal_Hbond.Weighted>
0.0000

> <Gold.Chemscore.DEClash.Weighted>
1.5893

> <Gold.Chemscore.DEInternal.Weighted>
1.3664

> <Gold.Chemscore.Rot.Weighted>
8.1486

> <Gold.Chemscore.Internal.Correction.Weighted>
   9.000000E+99

> <Gold.Protein.RotatedTorsions>
[ 6907 6896 6895 6894 ] final  -55.77 input  -60.11 | X-H torsion
[ 7974 7965 7964 7962 ] final  142.97 input  175.53 | X-H torsion
[ 8008 7997 7996 7995 ] final  -67.91 input   59.86 | X-H torsion
[ 10167 10162 10161 10158 ] final   23.26 input  -65.29 | X-H torsion
[ 10718 10713 10712 10709 ] final -115.19 input   66.30 | X-H torsion
[ 10763 10752 10751 10750 ] final   76.80 input  -60.55 | X-H torsion
[ 11005 11000 10999 10996 ] final   53.11 input  -57.11 | X-H torsion

> <Gold.Protein.ActiveResidues>
 VAL166  LYS551  ARG553  GLY616  TRP617  ASP618  TYR619  PRO620  LYS621  CYS622 
 ASP623  PHE694  ASN695  SER759  ASP760  ASP761  ALA762  ILE779  LEU786  VAL792 
 PHE793  MET794  SER795  GLU796  ALA797  LYS798  CYS799  TRP800  GLU811  SER814 

> <Gold.Protein.RotatedAtoms>
  150.8224  134.7438  159.6783 H   0  0  0  0  0  0  0  0  0  0  0  0  # atno 6907 bound_to 6896
  152.4338  134.5723  159.9934 H   0  0  0  0  0  0  0  0  0  0  0  0  # atno 6908 bound_to 6896
  151.5904  133.3330  159.3062 H   0  0  0  0  0  0  0  0  0  0  0  0  # atno 6909 bound_to 6896
  144.8961  139.5489  143.5775 H   0  0  0  0  0  0  0  0  0  0  0  0  # atno 7974 bound_to 7965
  154.4832  140.0883  156.7425 H   0  0  0  0  0  0  0  0  0  0  0  0  # atno 8008 bound_to 7997
  155.4418  140.3454  155.4272 H   0  0  0  0  0  0  0  0  0  0  0  0  # atno 8009 bound_to 7997
  156.1222  140.1477  156.9176 H   0  0  0  0  0  0  0  0  0  0  0  0  # atno 8010 bound_to 7997
  140.5283  143.9886  150.6452 H   0  0  0  0  0  0  0  0  0  0  0  0  # atno 10167 bound_to 10162
  156.0879  130.6067  150.8874 H   0  0  0  0  0  0  0  0  0  0  0  0  # atno 10718 bound_to 10713
  153.0751  135.4938  154.8388 H   0  0  0  0  0  0  0  0  0  0  0  0  # atno 10763 bound_to 10752
  154.7076  135.3013  154.9248 H   0  0  0  0  0  0  0  0  0  0  0  0  # atno 10764 bound_to 10752
  153.9952  135.6773  153.4809 H   0  0  0  0  0  0  0  0  0  0  0  0  # atno 10765 bound_to 10752
  140.0794  134.5359  155.8962 H   0  0  0  0  0  0  0  0  0  0  0  0  # atno 11005 bound_to 11000
  146.3082  139.7653  142.9040 LP  0  0  0  0  0  0  0  0  0  0  0  0  # atno 17320 bound_to 7965
  145.3698  141.0340  143.3238 LP  0  0  0  0  0  0  0  0  0  0  0  0  # atno 17321 bound_to 7965
  140.3253  143.3111  152.0742 LP  0  0  0  0  0  0  0  0  0  0  0  0  # atno 17342 bound_to 10162
  139.4945  144.6546  151.6601 LP  0  0  0  0  0  0  0  0  0  0  0  0  # atno 17343 bound_to 10162
  157.6020  131.0941  150.8944 LP  0  0  0  0  0  0  0  0  0  0  0  0  # atno 17370 bound_to 10713
  156.9100  130.5277  149.5280 LP  0  0  0  0  0  0  0  0  0  0  0  0  # atno 17371 bound_to 10713
  141.2041  133.6637  156.6102 LP  0  0  0  0  0  0  0  0  0  0  0  0  # atno 17394 bound_to 11000
  140.3510  134.7769  157.4467 LP  0  0  0  0  0  0  0  0  0  0  0  0  # atno 17395 bound_to 11000

$$$$
