AV-unprocessed.smi:3032|AV-procd|sdf|11558|dock5
  -GOLD-   2272016523D 1   1.00000     0.00000
 Structure written by MMmdl.
 37 38  0  0  0  0  0  0  0  0  1 V2000
  153.0843  141.8991  160.9076 C   0  0  0  0  0  0  0  0  0  0  0  0
  152.1801  142.6491  159.9191 C   0  0  1  0  0  0  0  0  0  0  0  0
  152.8130  143.9817  159.4747 C   0  0  0  0  0  0  0  0  0  0  0  0
  151.9150  144.7285  158.4754 C   0  0  0  0  0  0  0  0  0  0  0  0
  151.5821  143.8494  157.2597 C   0  0  0  0  0  0  0  0  0  0  0  0
  150.9301  142.5213  157.6965 C   0  0  1  0  0  0  0  0  0  0  0  0
  150.6172  141.6302  156.4880 C   0  0  0  0  0  0  0  0  0  0  0  0
  151.0892  140.4951  156.4168 O   0  0  0  0  0  0  0  0  0  0  0  0
  149.7964  142.1477  155.5595 N   0  0  0  0  0  0  0  0  0  0  0  0
  149.2810  141.4344  154.3927 C   0  0  0  0  0  0  0  0  0  0  0  0
  147.7402  141.4245  154.3510 C   0  0  0  0  0  0  0  0  0  0  0  0
  147.1540  140.1640  153.7960 C   0  0  0  0  0  0  0  0  0  0  0  0
  147.4765  139.6993  152.5869 N   0  0  0  0  0  0  0  0  0  0  0  0
  146.7673  138.5795  152.3354 N   0  0  0  0  0  0  0  0  0  0  0  0
  146.0509  138.4479  153.4504 C   0  0  0  0  0  0  0  0  0  0  0  0
  146.2493  139.4055  154.4055 N   0  0  0  0  0  0  0  0  0  0  0  0
  151.8446  141.7777  158.6933 C   0  0  0  0  0  0  0  0  0  0  0  0
  148.1305  140.0981  151.9285 H   0  0  0  0  0  0  0  0  0  0  0  0
  154.0430  141.6458  160.4538 H   0  0  0  0  0  0  0  0  0  0  0  0
  152.6181  140.9712  161.2400 H   0  0  0  0  0  0  0  0  0  0  0  0
  153.2839  142.5030  161.7929 H   0  0  0  0  0  0  0  0  0  0  0  0
  151.2465  142.8758  160.4358 H   0  0  0  0  0  0  0  0  0  0  0  0
  152.9979  144.6156  160.3427 H   0  0  0  0  0  0  0  0  0  0  0  0
  153.7854  143.7940  159.0176 H   0  0  0  0  0  0  0  0  0  0  0  0
  150.9918  145.0330  158.9697 H   0  0  0  0  0  0  0  0  0  0  0  0
  152.4071  145.6447  158.1475 H   0  0  0  0  0  0  0  0  0  0  0  0
  150.9159  144.3931  156.5885 H   0  0  0  0  0  0  0  0  0  0  0  0
  152.4966  143.6549  156.6968 H   0  0  0  0  0  0  0  0  0  0  0  0
  149.9919  142.7549  158.2034 H   0  0  0  0  0  0  0  0  0  0  0  0
  149.4672  143.0923  155.6965 H   0  0  0  0  0  0  0  0  0  0  0  0
  149.6675  141.9209  153.4970 H   0  0  0  0  0  0  0  0  0  0  0  0
  149.6592  140.4111  154.3680 H   0  0  0  0  0  0  0  0  0  0  0  0
  147.3457  141.5802  155.3562 H   0  0  0  0  0  0  0  0  0  0  0  0
  147.3851  142.2636  153.7521 H   0  0  0  0  0  0  0  0  0  0  0  0
  145.3581  137.6299  153.5820 H   0  0  0  0  0  0  0  0  0  0  0  0
  152.7702  141.4765  158.1991 H   0  0  0  0  0  0  0  0  0  0  0  0
  151.3601  140.8569  159.0217 H   0  0  0  0  0  0  0  0  0  0  0  0
  1  2  1  0  0  0  0
  1 19  1  0  0  0  0
  1 20  1  0  0  0  0
  1 21  1  0  0  0  0
  2 17  1  0  0  0  0
  2  3  1  0  0  0  0
  2 22  1  0  0  0  0
  3  4  1  0  0  0  0
  3 23  1  0  0  0  0
  3 24  1  0  0  0  0
  4  5  1  0  0  0  0
  4 25  1  0  0  0  0
  4 26  1  0  0  0  0
  5  6  1  0  0  0  0
  5 27  1  0  0  0  0
  5 28  1  0  0  0  0
  6  7  1  0  0  0  0
  6 17  1  0  0  0  0
  6 29  1  0  0  0  0
  7  8  2  0  0  0  0
  7  9  1  0  0  0  0
  9 10  1  0  0  0  0
  9 30  1  0  0  0  0
 10 11  1  0  0  0  0
 10 31  1  0  0  0  0
 10 32  1  0  0  0  0
 11 33  1  0  0  0  0
 11 34  1  0  0  0  0
 11 12  1  0  0  0  0
 12 16  2  0  0  0  0
 12 13  1  0  0  0  0
 13 18  1  0  0  0  0
 13 14  1  0  0  0  0
 14 15  2  0  0  0  0
 15 16  1  0  0  0  0
 15 35  1  0  0  0  0
 17 36  1  0  0  0  0
 17 37  1  0  0  0  0
M  END
> <s_m_source_file>
AV-unprocessed.smi

> <i_m_source_file_index>
3032

> <i_lp_mmshare_version>
43012

> <i_f3d_flags>
0

> <s_epik_input>
W0NIM11bQ0BASF0xW0NIMl1bQ0gyXVtDSDJdW0NASF0oW0NIMl0xKUMoPU8pW05IXVtDSDJdW0NIMl1jMm5uW2NIXVtuSF0y

> <s_epik_cmdline>
J2VwaWtfcHl0aG9uJywgJy1waCcsICc3LjAnLCAnLXRuJywgJzgnLCAnLW1hJywgJzIwMCcsICctbWV0YWxfYmluZGluZycsICctaW1hZScsICc8aW5maWxlLm1hZT4nLCAnLW9tYWUnLCAnPG91dGZpbGUubWFlPic=

> <r_lp_tautomer_probability>
0.948284

> <r_epik_Ionization_Penalty>
0.000474052

> <r_epik_Ionization_Penalty_Charging>
0

> <r_epik_Ionization_Penalty_Neutral>
0.000474052

> <r_epik_State_Penalty>
0.271807

> <r_epik_Charging_Adjusted_Penalty>
0.271807

> <i_epik_Tot_Q>
0

> <i_epik_Tot_abs_Q>
0

> <r_epik_Metal_State_Penalty>
0.397201

> <b_epik_Metal_Only>
0

> <s_lp_Force_Field>
OPLS_2005

> <r_lp_Energy>
10.7407

> <b_lp_Chiralities_Consistent>
1

> <s_lp_Variant>
AV-unprocessed.smi:3032-2

> <Gold.Version>
5.8.1

> <Gold.Id.Protein>
6NUR|6NUR_protein|mol2

> <Gold.PLP.Fitness>
42.9612

> <Gold.PLP.PLP>
-37.4881

> <Gold.PLP.part.hbond>
-2.0000

> <Gold.PLP.part.metal>
0.0000

> <Gold.PLP.part.buried>
-4.3289

> <Gold.PLP.part.nonpolar>
-32.1243

> <Gold.PLP.part.repulsive>
0.6596

> <Gold.PLP.ligand.clash>
0.0000

> <Gold.PLP.ligand.torsion>
0.2720

> <Gold.PLP.Chemscore.Hbond>
2.0000

> <Gold.PLP.Chemscore.CHOScore>
0.0000

> <Gold.PLP.Chemscore.Metal>
0.0000

> <Gold.Chemscore.Hbonds>
donor molecule, donor type, donor heavy atom, donor atom, acceptor molecule, acceptor atom, score
      L1  H     9    30       P1  8028  1.00
      L1  H    13    18       P1  7957  1.00

> <Gold.PLP.Chemscore.Internal.Correction>
0.0172

> <Gold.Rescore>
     Score         DG    S(hbond)    S(metal)    S(lipo)     H(rot)  DE(clash)    DE(int)     intcor
     17.11     -17.43       1.99        0.00      94.63       2.25       0.02       0.29       ----

> <Gold.Chemscore.Fitness>
17.1143

> <Gold.Chemscore.DG>
-17.4323

> <Gold.Chemscore.ZeroCoef>
-5.4800

> <Gold.Chemscore.Hbond>
1.9884

> <Gold.Chemscore.Metal>
0.0000

> <Gold.Chemscore.Lipo>
94.6275

> <Gold.Chemscore.Internal_Hbond>
0.0000

> <Gold.Chemscore.DEClash>
0.0234

> <Gold.Chemscore.DEInternal>
0.2946

> <Gold.Chemscore.Rot>
2.2501

> <Gold.Chemscore.Internal.Correction>
   9.000000E+99

> <Gold.Chemscore.Hbonds>
donor molecule, donor type, donor heavy atom, donor atom, acceptor molecule, acceptor atom, score
      L1  H     9    30       P1  8028  1.00
      L1  H    13    18       P1  7957  0.94

> <Gold.Chemscore.Hbond.Weighted>
-6.6412

> <Gold.Chemscore.Metal.Weighted>
-0.0000

> <Gold.Chemscore.Lipo.Weighted>
-11.0714

> <Gold.Chemscore.Internal_Hbond.Weighted>
0.0000

> <Gold.Chemscore.DEClash.Weighted>
0.0234

> <Gold.Chemscore.DEInternal.Weighted>
0.2946

> <Gold.Chemscore.Rot.Weighted>
5.7603

> <Gold.Chemscore.Internal.Correction.Weighted>
   9.000000E+99

> <Gold.Protein.RotatedTorsions>
[ 6907 6896 6895 6894 ] final -170.35 input  -60.11 | X-H torsion
[ 7974 7965 7964 7962 ] final  121.90 input  175.53 | X-H torsion
[ 8008 7997 7996 7995 ] final   57.01 input   59.86 | X-H torsion
[ 10167 10162 10161 10158 ] final   10.08 input  -65.29 | X-H torsion
[ 10718 10713 10712 10709 ] final   62.47 input   66.30 | X-H torsion
[ 10763 10752 10751 10750 ] final -114.15 input  -60.55 | X-H torsion
[ 11005 11000 10999 10996 ] final -171.24 input  -57.11 | X-H torsion

> <Gold.Protein.ActiveResidues>
 VAL166  LYS551  ARG553  GLY616  TRP617  ASP618  TYR619  PRO620  LYS621  CYS622 
 ASP623  PHE694  ASN695  SER759  ASP760  ASP761  ALA762  ILE779  LEU786  VAL792 
 PHE793  MET794  SER795  GLU796  ALA797  LYS798  CYS799  TRP800  GLU811  SER814 

> <Gold.Protein.RotatedAtoms>
  151.5063  133.3494  159.2877 H   0  0  0  0  0  0  0  0  0  0  0  0  # atno 6907 bound_to 6896
  150.8740  134.8122  159.7187 H   0  0  0  0  0  0  0  0  0  0  0  0  # atno 6908 bound_to 6896
  152.4718  134.4951  159.9759 H   0  0  0  0  0  0  0  0  0  0  0  0  # atno 6909 bound_to 6896
  145.1139  139.3434  143.4749 H   0  0  0  0  0  0  0  0  0  0  0  0  # atno 7974 bound_to 7965
  155.5269  140.3481  155.4418 H   0  0  0  0  0  0  0  0  0  0  0  0  # atno 8008 bound_to 7997
  156.0746  140.1371  156.9814 H   0  0  0  0  0  0  0  0  0  0  0  0  # atno 8009 bound_to 7997
  154.4546  140.0958  156.6695 H   0  0  0  0  0  0  0  0  0  0  0  0  # atno 8010 bound_to 7997
  140.6216  143.8192  150.7182 H   0  0  0  0  0  0  0  0  0  0  0  0  # atno 10167 bound_to 10162
  157.5903  130.9052  149.9591 H   0  0  0  0  0  0  0  0  0  0  0  0  # atno 10718 bound_to 10713
  154.8428  135.4428  154.1461 H   0  0  0  0  0  0  0  0  0  0  0  0  # atno 10763 bound_to 10752
  153.2634  135.6938  153.7561 H   0  0  0  0  0  0  0  0  0  0  0  0  # atno 10764 bound_to 10752
  153.6829  135.3400  155.3158 H   0  0  0  0  0  0  0  0  0  0  0  0  # atno 10765 bound_to 10752
  140.5104  134.5807  157.5017 H   0  0  0  0  0  0  0  0  0  0  0  0  # atno 11005 bound_to 11000
  146.3525  140.1069  142.8605 LP  0  0  0  0  0  0  0  0  0  0  0  0  # atno 17320 bound_to 7965
  145.0816  140.9225  143.4822 LP  0  0  0  0  0  0  0  0  0  0  0  0  # atno 17321 bound_to 7965
  140.1783  143.4136  152.1951 LP  0  0  0  0  0  0  0  0  0  0  0  0  # atno 17342 bound_to 10162
  139.5443  144.7285  151.4632 LP  0  0  0  0  0  0  0  0  0  0  0  0  # atno 17343 bound_to 10162
  156.0956  130.3659  150.0312 LP  0  0  0  0  0  0  0  0  0  0  0  0  # atno 17370 bound_to 10713
  156.8436  130.9434  151.3630 LP  0  0  0  0  0  0  0  0  0  0  0  0  # atno 17371 bound_to 10713
  139.9662  134.7369  156.0134 LP  0  0  0  0  0  0  0  0  0  0  0  0  # atno 17394 bound_to 11000
  141.1388  133.6569  156.3671 LP  0  0  0  0  0  0  0  0  0  0  0  0  # atno 17395 bound_to 11000

$$$$
