AV-unprocessed.smi:1976|AV-procd|sdf|7985|dock6
  -GOLD-   2272010163D 1   1.00000     0.00000
 Structure written by MMmdl.
 45 47  0  0  0  0  0  0  0  0  2 V2000
  150.6210  140.0722  154.3249 O   0  0  0  0  0  0  0  0  0  0  0  0
  150.1004  140.8124  155.1603 C   0  0  0  0  0  0  0  0  0  0  0  0
  150.7715  142.1292  155.5748 C   0  0  0  0  0  0  0  0  0  0  0  0
  151.4305  142.0484  156.8888 N   0  0  0  0  0  0  0  0  0  0  0  0
  151.1838  143.1064  157.7853 C   0  0  0  0  0  0  0  0  0  0  0  0
  151.7013  143.1514  159.0275 C   0  0  0  0  0  0  0  0  0  0  0  0
  151.4466  144.3315  159.9523 C   0  0  0  0  0  0  0  0  0  0  0  0
  151.9892  145.4499  159.4704 F   0  0  0  0  0  0  0  0  0  0  0  0
  150.1391  144.5363  160.1156 F   0  0  0  0  0  0  0  0  0  0  0  0
  151.9796  144.0917  161.1496 F   0  0  0  0  0  0  0  0  0  0  0  0
  152.5735  142.0559  159.4028 C   0  0  0  0  0  0  0  0  0  0  0  0
  152.8224  141.0374  158.5563 C   0  0  0  0  0  0  0  0  0  0  0  0
  152.2282  140.9887  157.2184 C   0  0  0  0  0  0  0  0  0  0  0  0
  152.4336  140.0541  156.4440 O   0  0  0  0  0  0  0  0  0  0  0  0
  148.9294  140.5363  155.7544 N   0  0  0  0  0  0  0  0  0  0  0  0
  148.1336  139.3335  155.5275 C   0  0  2  0  0  0  0  0  0  0  0  0
  148.8621  138.0517  155.9144 C   0  0  0  0  0  0  0  0  0  0  0  0
  148.0710  136.9869  155.1517 C   0  0  0  0  0  0  0  0  0  0  0  0
  147.6150  137.6339  153.8994 N   0  3  1  0  0  0  0  0  0  0  0  0
  146.2683  137.2104  153.4437 C   0  0  0  0  0  0  0  0  0  0  0  0
  145.8908  137.9088  152.1236 C   0  0  0  0  0  0  0  0  0  0  0  0
  146.1362  139.4316  152.1502 C   0  0  0  0  0  0  0  0  0  0  0  0
  146.6006  139.9240  153.5288 C   0  0  0  0  0  0  0  0  0  0  0  0
  147.8084  139.1052  154.0408 C   0  0  1  0  0  0  0  0  0  0  0  0
  151.4771  142.4193  154.7946 H   0  0  0  0  0  0  0  0  0  0  0  0
  150.0244  142.9245  155.5901 H   0  0  0  0  0  0  0  0  0  0  0  0
  150.5369  143.8805  157.3979 H   0  0  0  0  0  0  0  0  0  0  0  0
  153.0325  142.0472  160.3803 H   0  0  0  0  0  0  0  0  0  0  0  0
  153.4750  140.2360  158.8705 H   0  0  0  0  0  0  0  0  0  0  0  0
  148.5679  141.2058  156.4185 H   0  0  0  0  0  0  0  0  0  0  0  0
  147.2083  139.3790  156.1064 H   0  0  0  0  0  0  0  0  0  0  0  0
  149.8938  138.0754  155.5596 H   0  0  0  0  0  0  0  0  0  0  0  0
  148.8770  137.8772  156.9908 H   0  0  0  0  0  0  0  0  0  0  0  0
  148.6626  136.0946  154.9458 H   0  0  0  0  0  0  0  0  0  0  0  0
  147.2098  136.6840  155.7498 H   0  0  0  0  0  0  0  0  0  0  0  0
  146.2518  136.1281  153.3102 H   0  0  0  0  0  0  0  0  0  0  0  0
  145.5317  137.4423  154.2148 H   0  0  0  0  0  0  0  0  0  0  0  0
  146.4649  137.4714  151.3059 H   0  0  0  0  0  0  0  0  0  0  0  0
  144.8440  137.7060  151.8956 H   0  0  0  0  0  0  0  0  0  0  0  0
  146.8961  139.6844  151.4098 H   0  0  0  0  0  0  0  0  0  0  0  0
  145.2338  139.9645  151.8489 H   0  0  0  0  0  0  0  0  0  0  0  0
  146.8600  140.9814  153.4718 H   0  0  0  0  0  0  0  0  0  0  0  0
  145.7718  139.8541  154.2344 H   0  0  0  0  0  0  0  0  0  0  0  0
  148.6839  139.3512  153.4375 H   0  0  0  0  0  0  0  0  0  0  0  0
  148.2588  137.3470  153.1760 H   0  0  0  0  0  0  0  0  0  0  0  0
  1  2  2  0  0  0  0
  2  3  1  0  0  0  0
  2 15  1  0  0  0  0
  3  4  1  0  0  0  0
  3 25  1  0  0  0  0
  3 26  1  0  0  0  0
  4 13  1  0  0  0  0
  4  5  1  0  0  0  0
  5  6  2  0  0  0  0
  5 27  1  0  0  0  0
  6  7  1  0  0  0  0
  6 11  1  0  0  0  0
  7  8  1  0  0  0  0
  7  9  1  0  0  0  0
  7 10  1  0  0  0  0
 11 12  2  0  0  0  0
 11 28  1  0  0  0  0
 12 13  1  0  0  0  0
 12 29  1  0  0  0  0
 13 14  2  0  0  0  0
 15 16  1  0  0  0  0
 15 30  1  0  0  0  0
 16 24  1  0  0  0  0
 16 17  1  0  0  0  0
 16 31  1  0  0  0  0
 17 18  1  0  0  0  0
 17 32  1  0  0  0  0
 17 33  1  0  0  0  0
 18 19  1  0  0  0  0
 18 34  1  0  0  0  0
 18 35  1  0  0  0  0
 19 24  1  0  0  0  0
 19 20  1  0  0  0  0
 19 45  1  0  0  0  0
 20 21  1  0  0  0  0
 20 36  1  0  0  0  0
 20 37  1  0  0  0  0
 21 22  1  0  0  0  0
 21 38  1  0  0  0  0
 21 39  1  0  0  0  0
 22 23  1  0  0  0  0
 22 40  1  0  0  0  0
 22 41  1  0  0  0  0
 23 24  1  0  0  0  0
 23 42  1  0  0  0  0
 23 43  1  0  0  0  0
 24 44  1  0  0  0  0
M  CHG  1  19   1
M  END
> <s_m_source_file>
AV-unprocessed.smi

> <i_m_source_file_index>
1976

> <i_lp_mmshare_version>
43012

> <i_f3d_flags>
0

> <s_epik_input>
W0NIMl0xW0NIMl1bQ0gyXVtDSDJdW0NASF0oTjEyKVtDQEBIXShbQ0gyXVtDSDJdMilbTkhdQyg9TylbQ0gyXW4zW2NIXWMoQyhGKShGKUYpW2NIXVtjSF1jMz1P

> <s_epik_cmdline>
J2VwaWtfcHl0aG9uJywgJy1waCcsICc3LjAnLCAnLXRuJywgJzgnLCAnLW1hJywgJzIwMCcsICctbWV0YWxfYmluZGluZycsICctaW1hZScsICc8aW5maWxlLm1hZT4nLCAnLW9tYWUnLCAnPG91dGZpbGUubWFlPic=

> <r_lp_tautomer_probability>
1

> <r_epik_Ionization_Penalty>
0.00171506

> <r_epik_Ionization_Penalty_Charging>
0.00171498

> <r_epik_Ionization_Penalty_Neutral>
7.81737e-08

> <r_epik_State_Penalty>
0.00115937

> <r_epik_Charging_Adjusted_Penalty>
0.00287436

> <i_epik_Tot_Q>
1

> <i_epik_Tot_abs_Q>
1

> <r_epik_Metal_State_Penalty>
-0

> <b_epik_Metal_Only>
0

> <s_lp_Force_Field>
OPLS_2005

> <r_lp_Energy>
51.6

> <b_lp_Chiralities_Consistent>
1

> <s_lp_Variant>
AV-unprocessed.smi:1976-3

> <Gold.Version>
5.8.1

> <Gold.Id.Protein>
6NUR|6NUR_protein|mol2

> <Gold.PLP.Fitness>
51.8230

> <Gold.PLP.PLP>
-39.5944

> <Gold.PLP.part.hbond>
-3.0000

> <Gold.PLP.part.metal>
0.0000

> <Gold.PLP.part.buried>
-0.7848

> <Gold.PLP.part.nonpolar>
-34.9384

> <Gold.PLP.part.repulsive>
0.1339

> <Gold.PLP.ligand.clash>
0.0924

> <Gold.PLP.ligand.torsion>
0.5259

> <Gold.PLP.Chemscore.Hbond>
3.4914

> <Gold.PLP.Chemscore.CHOScore>
0.9543

> <Gold.PLP.Chemscore.Metal>
0.0000

> <Gold.Chemscore.Hbonds>
donor molecule, donor type, donor heavy atom, donor atom, acceptor molecule, acceptor atom, score
      L1  H    19    45       P1  7948  2.00
      P1  H  7989  7998       L1     1  0.99
      P1  H  7997  8008       L1    14  0.85
      L1  C     5    27       P1  8028  1.00

> <Gold.PLP.Chemscore.Internal.Correction>
0.0355

> <Gold.Rescore>
     Score         DG    S(hbond)    S(metal)    S(lipo)     H(rot)  DE(clash)    DE(int)     intcor
     11.32     -16.05       1.65        0.00      77.85       1.58       0.29       4.43       ----

> <Gold.Chemscore.Fitness>
11.3237

> <Gold.Chemscore.DG>
-16.0494

> <Gold.Chemscore.ZeroCoef>
-5.4800

> <Gold.Chemscore.Hbond>
1.6508

> <Gold.Chemscore.Metal>
0.0000

> <Gold.Chemscore.Lipo>
77.8464

> <Gold.Chemscore.Internal_Hbond>
0.0000

> <Gold.Chemscore.DEClash>
0.2941

> <Gold.Chemscore.DEInternal>
4.4316

> <Gold.Chemscore.Rot>
1.5830

> <Gold.Chemscore.Internal.Correction>
   9.000000E+99

> <Gold.Chemscore.Hbonds>
donor molecule, donor type, donor heavy atom, donor atom, acceptor molecule, acceptor atom, score
      L1  H    19    45       P1  7948  0.99
      P1  H  7989  7998       L1     1  0.69
      P1  H  7997  8008       L1    14  0.36

> <Gold.Chemscore.Hbond.Weighted>
-5.5137

> <Gold.Chemscore.Metal.Weighted>
-0.0000

> <Gold.Chemscore.Lipo.Weighted>
-9.1080

> <Gold.Chemscore.Internal_Hbond.Weighted>
0.0000

> <Gold.Chemscore.DEClash.Weighted>
0.2941

> <Gold.Chemscore.DEInternal.Weighted>
4.4316

> <Gold.Chemscore.Rot.Weighted>
4.0524

> <Gold.Chemscore.Internal.Correction.Weighted>
   9.000000E+99

> <Gold.Protein.RotatedTorsions>
[ 6907 6896 6895 6894 ] final   -8.69 input  -60.11 | X-H torsion
[ 7974 7965 7964 7962 ] final  -18.29 input  175.53 | X-H torsion
[ 8008 7997 7996 7995 ] final  -23.50 input   59.86 | X-H torsion
[ 10167 10162 10161 10158 ] final  -24.56 input  -65.29 | X-H torsion
[ 10718 10713 10712 10709 ] final   55.04 input   66.30 | X-H torsion
[ 10763 10752 10751 10750 ] final -152.48 input  -60.55 | X-H torsion
[ 11005 11000 10999 10996 ] final  134.06 input  -57.11 | X-H torsion

> <Gold.Protein.ActiveResidues>
 VAL166  LYS551  ARG553  GLY616  TRP617  ASP618  TYR619  PRO620  LYS621  CYS622 
 ASP623  PHE694  ASN695  SER759  ASP760  ASP761  ALA762  ILE779  LEU786  VAL792 
 PHE793  MET794  SER795  GLU796  ALA797  LYS798  CYS799  TRP800  GLU811  SER814 

> <Gold.Protein.RotatedAtoms>
  151.4296  135.1008  159.9638 H   0  0  0  0  0  0  0  0  0  0  0  0  # atno 6907 bound_to 6896
  152.4960  133.8630  159.7270 H   0  0  0  0  0  0  0  0  0  0  0  0  # atno 6908 bound_to 6896
  150.9164  133.6875  159.2870 H   0  0  0  0  0  0  0  0  0  0  0  0  # atno 6909 bound_to 6896
  146.1899  140.3900  142.8462 H   0  0  0  0  0  0  0  0  0  0  0  0  # atno 7974 bound_to 7965
  154.4581  140.1979  156.0320 H   0  0  0  0  0  0  0  0  0  0  0  0  # atno 8008 bound_to 7997
  156.0787  140.3274  155.7638 H   0  0  0  0  0  0  0  0  0  0  0  0  # atno 8009 bound_to 7997
  155.5146  140.0564  157.2908 H   0  0  0  0  0  0  0  0  0  0  0  0  # atno 8010 bound_to 7997
  140.7288  143.4342  151.0755 H   0  0  0  0  0  0  0  0  0  0  0  0  # atno 10167 bound_to 10162
  157.5310  130.8630  149.8687 H   0  0  0  0  0  0  0  0  0  0  0  0  # atno 10718 bound_to 10713
  154.7991  135.3235  154.7594 H   0  0  0  0  0  0  0  0  0  0  0  0  # atno 10763 bound_to 10752
  153.8266  135.6883  153.4824 H   0  0  0  0  0  0  0  0  0  0  0  0  # atno 10764 bound_to 10752
  153.1698  135.4628  154.9829 H   0  0  0  0  0  0  0  0  0  0  0  0  # atno 10765 bound_to 10752
  139.9890  134.9522  156.9812 H   0  0  0  0  0  0  0  0  0  0  0  0  # atno 11005 bound_to 11000
  144.8467  140.6940  143.6194 LP  0  0  0  0  0  0  0  0  0  0  0  0  # atno 17320 bound_to 7965
  145.3824  139.1634  143.4273 LP  0  0  0  0  0  0  0  0  0  0  0  0  # atno 17321 bound_to 7965
  139.8002  143.8094  152.3162 LP  0  0  0  0  0  0  0  0  0  0  0  0  # atno 17342 bound_to 10162
  139.8108  144.7336  150.9700 LP  0  0  0  0  0  0  0  0  0  0  0  0  # atno 17343 bound_to 10162
  156.0422  130.3736  150.1406 LP  0  0  0  0  0  0  0  0  0  0  0  0  # atno 17370 bound_to 10713
  156.9590  130.9799  151.3483 LP  0  0  0  0  0  0  0  0  0  0  0  0  # atno 17371 bound_to 10713
  140.4945  134.1160  155.7238 LP  0  0  0  0  0  0  0  0  0  0  0  0  # atno 17394 bound_to 11000
  141.1550  133.8899  157.2001 LP  0  0  0  0  0  0  0  0  0  0  0  0  # atno 17395 bound_to 11000

$$$$
