AV-unprocessed.smi:1828|AV-procd|sdf|7424|dock3
  -GOLD-   22720 9103D 1   1.00000     0.00000
 Structure written by MMmdl.
 39 41  0  0  0  0  0  0  0  0  1 V2000
  153.2455  139.3698  154.8842 O   0  0  0  0  0  0  0  0  0  0  0  0
  152.1288  139.2371  155.7372 C   0  0  0  0  0  0  0  0  0  0  0  0
  152.2240  140.1073  156.9528 C   0  0  0  0  0  0  0  0  0  0  0  0
  153.1109  139.8707  157.9204 N   0  0  0  0  0  0  0  0  0  0  0  0
  152.8627  140.8918  158.8167 C   0  0  0  0  0  0  0  0  0  0  0  0
  153.4737  141.1972  160.0540 C   0  0  0  0  0  0  0  0  0  0  0  0
  153.0464  142.3117  160.8054 C   0  0  0  0  0  0  0  0  0  0  0  0
  152.0042  143.1350  160.3317 C   0  0  0  0  0  0  0  0  0  0  0  0
  151.3809  142.8476  159.1021 C   0  0  0  0  0  0  0  0  0  0  0  0
  151.8114  141.7339  158.3564 C   0  0  0  0  0  0  0  0  0  0  0  0
  151.4204  141.1851  157.1396 N   0  0  0  0  0  0  0  0  0  0  0  0
  150.3657  141.6943  156.2729 C   0  0  0  0  0  0  0  0  0  0  0  0
  149.0269  140.9564  156.4725 C   0  0  2  0  0  0  0  0  0  0  0  0
  149.1821  139.5799  156.1859 O   0  0  0  0  0  0  0  0  0  0  0  0
  147.9187  141.5930  155.6487 C   0  0  0  0  0  0  0  0  0  0  0  0
  148.0116  141.6498  154.2414 C   0  0  0  0  0  0  0  0  0  0  0  0
  146.9821  142.2435  153.4875 C   0  0  0  0  0  0  0  0  0  0  0  0
  145.8575  142.7895  154.1352 C   0  0  0  0  0  0  0  0  0  0  0  0
  145.7583  142.7498  155.5430 C   0  0  0  0  0  0  0  0  0  0  0  0
  144.5453  143.3326  156.2532 C   0  0  0  0  0  0  0  0  0  0  0  0
  144.9236  144.2521  157.1416 F   0  0  0  0  0  0  0  0  0  0  0  0
  143.7055  143.9065  155.3907 F   0  0  0  0  0  0  0  0  0  0  0  0
  143.9018  142.3571  156.8930 F   0  0  0  0  0  0  0  0  0  0  0  0
  146.7911  142.1458  156.2925 C   0  0  0  0  0  0  0  0  0  0  0  0
  152.9340  139.4887  154.0002 H   0  0  0  0  0  0  0  0  0  0  0  0
  151.2187  139.4695  155.1849 H   0  0  0  0  0  0  0  0  0  0  0  0
  152.0495  138.1943  156.0458 H   0  0  0  0  0  0  0  0  0  0  0  0
  154.2733  140.5730  160.4247 H   0  0  0  0  0  0  0  0  0  0  0  0
  153.5210  142.5367  161.7492 H   0  0  0  0  0  0  0  0  0  0  0  0
  151.6837  143.9874  160.9129 H   0  0  0  0  0  0  0  0  0  0  0  0
  150.5825  143.4758  158.7361 H   0  0  0  0  0  0  0  0  0  0  0  0
  150.2382  142.7552  156.4914 H   0  0  0  0  0  0  0  0  0  0  0  0
  150.6842  141.6385  155.2323 H   0  0  0  0  0  0  0  0  0  0  0  0
  148.7467  141.0207  157.5247 H   0  0  0  0  0  0  0  0  0  0  0  0
  149.7446  139.1995  156.8433 H   0  0  0  0  0  0  0  0  0  0  0  0
  148.8729  141.2380  153.7357 H   0  0  0  0  0  0  0  0  0  0  0  0
  147.0551  142.2803  152.4104 H   0  0  0  0  0  0  0  0  0  0  0  0
  145.0728  143.2376  153.5436 H   0  0  0  0  0  0  0  0  0  0  0  0
  146.7161  142.1068  157.3695 H   0  0  0  0  0  0  0  0  0  0  0  0
  1  2  1  0  0  0  0
  1 25  1  0  0  0  0
  2  3  1  0  0  0  0
  2 26  1  0  0  0  0
  2 27  1  0  0  0  0
  3 11  1  0  0  0  0
  3  4  2  0  0  0  0
  4  5  1  0  0  0  0
  5 10  2  0  0  0  0
  5  6  1  0  0  0  0
  6  7  2  0  0  0  0
  6 28  1  0  0  0  0
  7  8  1  0  0  0  0
  7 29  1  0  0  0  0
  8  9  2  0  0  0  0
  8 30  1  0  0  0  0
  9 10  1  0  0  0  0
  9 31  1  0  0  0  0
 10 11  1  0  0  0  0
 11 12  1  0  0  0  0
 12 13  1  0  0  0  0
 12 32  1  0  0  0  0
 12 33  1  0  0  0  0
 13 14  1  0  0  0  0
 13 15  1  0  0  0  0
 13 34  1  0  0  0  0
 14 35  1  0  0  0  0
 15 24  1  0  0  0  0
 15 16  2  0  0  0  0
 16 17  1  0  0  0  0
 16 36  1  0  0  0  0
 17 18  2  0  0  0  0
 17 37  1  0  0  0  0
 18 19  1  0  0  0  0
 18 38  1  0  0  0  0
 19 20  1  0  0  0  0
 19 24  2  0  0  0  0
 20 21  1  0  0  0  0
 20 22  1  0  0  0  0
 20 23  1  0  0  0  0
 24 39  1  0  0  0  0
M  END
> <s_m_source_file>
AV-unprocessed.smi

> <i_m_source_file_index>
1828

> <i_lp_mmshare_version>
43012

> <i_f3d_flags>
0

> <s_epik_input>
W2NIXTFbY0hdW2NIXVtjSF1jKGMxMiluKGMobjIpW0NIMl1bT0hdKVtDSDJdW0NASF0oW09IXSljM1tjSF1bY0hdW2NIXWMoQyhGKShGKUYpW2NIXTM=

> <s_epik_cmdline>
J2VwaWtfcHl0aG9uJywgJy1waCcsICc3LjAnLCAnLXRuJywgJzgnLCAnLW1hJywgJzIwMCcsICctbWV0YWxfYmluZGluZycsICctaW1hZScsICc8aW5maWxlLm1hZT4nLCAnLW9tYWUnLCAnPG91dGZpbGUubWFlPic=

> <r_epik_Ionization_Penalty>
0.0634719

> <r_epik_Ionization_Penalty_Charging>
0

> <r_epik_Ionization_Penalty_Neutral>
0.0634719

> <r_epik_State_Penalty>
0.0551572

> <r_epik_Charging_Adjusted_Penalty>
0.0551572

> <i_epik_Tot_Q>
0

> <i_epik_Tot_abs_Q>
0

> <r_epik_Metal_State_Penalty>
5.78034e-05

> <b_epik_Metal_Only>
0

> <s_lp_Force_Field>
OPLS_2005

> <r_lp_Energy>
12.8621

> <b_lp_Chiralities_Consistent>
1

> <s_lp_Variant>
AV-unprocessed.smi:1828-1

> <Gold.Version>
5.8.1

> <Gold.Id.Protein>
6NUR|6NUR_protein|mol2

> <Gold.PLP.Fitness>
49.5091

> <Gold.PLP.PLP>
-45.5224

> <Gold.PLP.part.hbond>
-2.3884

> <Gold.PLP.part.metal>
0.0000

> <Gold.PLP.part.buried>
-4.3186

> <Gold.PLP.part.nonpolar>
-37.7539

> <Gold.PLP.part.repulsive>
0.0000

> <Gold.PLP.ligand.clash>
0.7085

> <Gold.PLP.ligand.torsion>
0.4572

> <Gold.PLP.Chemscore.Hbond>
1.5680

> <Gold.PLP.Chemscore.CHOScore>
0.0000

> <Gold.PLP.Chemscore.Metal>
0.0000

> <Gold.Chemscore.Hbonds>
donor molecule, donor type, donor heavy atom, donor atom, acceptor molecule, acceptor atom, score
      P1  H  7997  8008       L1     4  0.86
      P1  H  7997  8009       L1     1  0.70

> <Gold.PLP.Chemscore.Internal.Correction>
0.9056

> <Gold.Rescore>
     Score         DG    S(hbond)    S(metal)    S(lipo)     H(rot)  DE(clash)    DE(int)     intcor
     14.26     -14.77       1.35        0.00     104.78       2.91       0.12       0.40       ----

> <Gold.Chemscore.Fitness>
14.2606

> <Gold.Chemscore.DG>
-14.7741

> <Gold.Chemscore.ZeroCoef>
-5.4800

> <Gold.Chemscore.Hbond>
1.3458

> <Gold.Chemscore.Metal>
0.0000

> <Gold.Chemscore.Lipo>
104.7795

> <Gold.Chemscore.Internal_Hbond>
0.0000

> <Gold.Chemscore.DEClash>
0.1182

> <Gold.Chemscore.DEInternal>
0.3953

> <Gold.Chemscore.Rot>
2.9141

> <Gold.Chemscore.Internal.Correction>
   9.000000E+99

> <Gold.Chemscore.Hbonds>
donor molecule, donor type, donor heavy atom, donor atom, acceptor molecule, acceptor atom, score
      P1  H  7997  8008       L1     4  0.37
      P1  H  7997  8009       L1     1  0.66

> <Gold.Chemscore.Hbond.Weighted>
-4.4949

> <Gold.Chemscore.Metal.Weighted>
-0.0000

> <Gold.Chemscore.Lipo.Weighted>
-12.2592

> <Gold.Chemscore.Internal_Hbond.Weighted>
0.0000

> <Gold.Chemscore.DEClash.Weighted>
0.1182

> <Gold.Chemscore.DEInternal.Weighted>
0.3953

> <Gold.Chemscore.Rot.Weighted>
7.4600

> <Gold.Chemscore.Internal.Correction.Weighted>
   9.000000E+99

> <Gold.Protein.RotatedTorsions>
[ 6907 6896 6895 6894 ] final -170.45 input  -60.11 | X-H torsion
[ 7974 7965 7964 7962 ] final -173.19 input  175.53 | X-H torsion
[ 8008 7997 7996 7995 ] final  -99.53 input   59.86 | X-H torsion
[ 10167 10162 10161 10158 ] final  116.53 input  -65.29 | X-H torsion
[ 10718 10713 10712 10709 ] final   19.96 input   66.30 | X-H torsion
[ 10763 10752 10751 10750 ] final   39.18 input  -60.55 | X-H torsion
[ 11005 11000 10999 10996 ] final  -28.08 input  -57.11 | X-H torsion

> <Gold.Protein.ActiveResidues>
 VAL166  LYS551  ARG553  GLY616  TRP617  ASP618  TYR619  PRO620  LYS621  CYS622 
 ASP623  PHE694  ASN695  SER759  ASP760  ASP761  ALA762  ILE779  LEU786  VAL792 
 PHE793  MET794  SER795  GLU796  ALA797  LYS798  CYS799  TRP800  GLU811  SER814 

> <Gold.Protein.RotatedAtoms>
  151.5078  133.3491  159.2879 H   0  0  0  0  0  0  0  0  0  0  0  0  # atno 6907 bound_to 6896
  150.8731  134.8111  159.7181 H   0  0  0  0  0  0  0  0  0  0  0  0  # atno 6908 bound_to 6896
  152.4712  134.4965  159.9763 H   0  0  0  0  0  0  0  0  0  0  0  0  # atno 6909 bound_to 6896
  144.7140  140.1659  143.6372 H   0  0  0  0  0  0  0  0  0  0  0  0  # atno 7974 bound_to 7965
  154.8160  140.0447  157.1377 H   0  0  0  0  0  0  0  0  0  0  0  0  # atno 8008 bound_to 7997
  154.9313  140.3040  155.5146 H   0  0  0  0  0  0  0  0  0  0  0  0  # atno 8009 bound_to 7997
  156.2976  140.2322  156.4374 H   0  0  0  0  0  0  0  0  0  0  0  0  # atno 8010 bound_to 7997
  139.6240  144.7105  151.2572 H   0  0  0  0  0  0  0  0  0  0  0  0  # atno 10167 bound_to 10162
  157.1178  130.6536  149.5915 H   0  0  0  0  0  0  0  0  0  0  0  0  # atno 10718 bound_to 10713
  152.9976  135.6228  154.2423 H   0  0  0  0  0  0  0  0  0  0  0  0  # atno 10763 bound_to 10752
  154.2164  135.2797  155.2942 H   0  0  0  0  0  0  0  0  0  0  0  0  # atno 10764 bound_to 10752
  154.5565  135.5718  153.7027 H   0  0  0  0  0  0  0  0  0  0  0  0  # atno 10765 bound_to 10752
  140.9177  133.7419  156.0757 H   0  0  0  0  0  0  0  0  0  0  0  0  # atno 11005 bound_to 11000
  145.8987  139.2418  143.1506 LP  0  0  0  0  0  0  0  0  0  0  0  0  # atno 17320 bound_to 7965
  145.9832  140.8665  143.0104 LP  0  0  0  0  0  0  0  0  0  0  0  0  # atno 17321 bound_to 7965
  140.7400  143.6602  150.8171 LP  0  0  0  0  0  0  0  0  0  0  0  0  # atno 17342 bound_to 10162
  140.0217  143.5536  152.2798 LP  0  0  0  0  0  0  0  0  0  0  0  0  # atno 17343 bound_to 10162
  155.9835  130.4855  150.6937 LP  0  0  0  0  0  0  0  0  0  0  0  0  # atno 17370 bound_to 10713
  157.4503  131.0871  151.0853 LP  0  0  0  0  0  0  0  0  0  0  0  0  # atno 17371 bound_to 10713
  140.8029  134.3488  157.5434 LP  0  0  0  0  0  0  0  0  0  0  0  0  # atno 17394 bound_to 11000
  139.8769  134.9208  156.3260 LP  0  0  0  0  0  0  0  0  0  0  0  0  # atno 17395 bound_to 11000

$$$$
