AV-unprocessed.smi:176|AV-procd|sdf|1434|dock7
  -GOLD-   2262019213D 1   1.00000     0.00000
 Structure written by MMmdl.
 57 61  0  0  0  0  0  0  0  0  1 V2000
  151.6273  142.6337  161.5636 O   0  0  0  0  0  0  0  0  0  0  0  0
  152.0764  143.7100  160.7657 C   0  0  0  0  0  0  0  0  0  0  0  0
  152.0568  143.3414  159.2734 C   0  0  0  0  0  0  0  0  0  0  0  0
  152.5542  144.5442  158.4465 C   0  0  0  0  0  0  0  0  0  0  0  0
  152.0149  145.7597  158.9259 O   0  0  0  0  0  0  0  0  0  0  0  0
  152.7011  141.9832  158.9147 C   0  0  0  0  0  0  0  0  0  0  0  0
  151.5531  141.7017  157.9431 C   0  0  0  0  0  0  0  0  0  0  0  0
  151.0834  140.3654  157.7250 N   0  0  0  0  0  0  0  0  0  0  0  0
  149.9717  139.7792  158.2875 C   0  0  0  0  0  0  0  0  0  0  0  0
  149.7289  138.5579  157.8978 N   0  0  0  0  0  0  0  0  0  0  0  0
  150.7308  138.2927  156.9718 C   0  0  0  0  0  0  0  0  0  0  0  0
  151.0542  137.1709  156.1584 C   0  0  0  0  0  0  0  0  0  0  0  0
  150.3456  136.0152  156.1974 N   0  0  0  0  0  0  0  0  0  0  0  0
  149.4865  135.8698  157.3703 C   0  0  0  0  0  0  0  0  0  0  0  0
  148.4180  134.7878  157.1381 C   0  0  0  0  0  0  0  0  0  0  0  0
  149.0351  133.4458  156.6756 C   0  0  1  0  0  0  0  0  0  0  0  0
  149.7801  132.9255  157.7626 O   0  0  0  0  0  0  0  0  0  0  0  0
  147.9620  132.3806  156.3481 C   0  0  0  0  0  0  0  0  0  0  0  0
  147.2163  132.6635  155.0335 C   0  0  0  0  0  0  0  0  0  0  0  0
  148.1998  132.8260  153.8670 C   0  0  0  0  0  0  0  0  0  0  0  0
  149.2261  133.9296  154.1604 C   0  0  0  0  0  0  0  0  0  0  0  0
  149.9965  133.6636  155.4732 C   0  0  1  0  0  0  0  0  0  0  0  0
  151.0140  134.7889  155.7604 C   0  0  0  0  0  0  0  0  0  0  0  0
  152.1189  137.2905  155.3207 N   0  0  0  0  0  0  0  0  0  0  0  0
  152.8266  138.4237  155.2878 C   0  0  0  0  0  0  0  0  0  0  0  0
  152.6468  139.5407  155.9954 N   0  0  0  0  0  0  0  0  0  0  0  0
  151.5773  139.4284  156.8341 C   0  0  0  0  0  0  0  0  0  0  0  0
  150.7437  142.7003  158.7739 C   0  0  0  0  0  0  0  0  0  0  0  0
  152.2080  142.5466  162.3041 H   0  0  0  0  0  0  0  0  0  0  0  0
  151.4624  144.5867  160.9728 H   0  0  0  0  0  0  0  0  0  0  0  0
  153.0870  143.9626  161.0879 H   0  0  0  0  0  0  0  0  0  0  0  0
  153.6405  144.6258  158.4845 H   0  0  0  0  0  0  0  0  0  0  0  0
  152.2967  144.4374  157.3925 H   0  0  0  0  0  0  0  0  0  0  0  0
  151.7979  145.6519  159.8393 H   0  0  0  0  0  0  0  0  0  0  0  0
  153.6824  142.0446  158.4434 H   0  0  0  0  0  0  0  0  0  0  0  0
  152.7163  141.2823  159.7515 H   0  0  0  0  0  0  0  0  0  0  0  0
  151.7753  142.1095  156.9555 H   0  0  0  0  0  0  0  0  0  0  0  0
  149.3445  140.2849  159.0073 H   0  0  0  0  0  0  0  0  0  0  0  0
  150.1078  135.6050  158.2268 H   0  0  0  0  0  0  0  0  0  0  0  0
  148.9958  136.8090  157.6241 H   0  0  0  0  0  0  0  0  0  0  0  0
  147.8346  134.6452  158.0486 H   0  0  0  0  0  0  0  0  0  0  0  0
  147.7176  135.1566  156.3892 H   0  0  0  0  0  0  0  0  0  0  0  0
  149.5700  132.0093  157.8587 H   0  0  0  0  0  0  0  0  0  0  0  0
  148.4370  131.4017  156.2630 H   0  0  0  0  0  0  0  0  0  0  0  0
  147.2476  132.2978  157.1683 H   0  0  0  0  0  0  0  0  0  0  0  0
  146.5239  131.8486  154.8210 H   0  0  0  0  0  0  0  0  0  0  0  0
  146.6071  133.5622  155.1316 H   0  0  0  0  0  0  0  0  0  0  0  0
  148.7169  131.8824  153.6885 H   0  0  0  0  0  0  0  0  0  0  0  0
  147.6553  133.0585  152.9514 H   0  0  0  0  0  0  0  0  0  0  0  0
  149.9272  134.0023  153.3284 H   0  0  0  0  0  0  0  0  0  0  0  0
  148.7153  134.8919  154.2091 H   0  0  0  0  0  0  0  0  0  0  0  0
  150.5622  132.7432  155.3190 H   0  0  0  0  0  0  0  0  0  0  0  0
  151.6097  134.9809  154.8666 H   0  0  0  0  0  0  0  0  0  0  0  0
  151.7081  134.4705  156.5396 H   0  0  0  0  0  0  0  0  0  0  0  0
  153.6570  138.4359  154.5977 H   0  0  0  0  0  0  0  0  0  0  0  0
  150.1774  142.2182  159.5734 H   0  0  0  0  0  0  0  0  0  0  0  0
  150.1046  143.3616  158.1881 H   0  0  0  0  0  0  0  0  0  0  0  0
  1  2  1  0  0  0  0
  1 29  1  0  0  0  0
  2  3  1  0  0  0  0
  2 30  1  0  0  0  0
  2 31  1  0  0  0  0
  3 28  1  0  0  0  0
  3  4  1  0  0  0  0
  3  6  1  0  0  0  0
  4  5  1  0  0  0  0
  4 32  1  0  0  0  0
  4 33  1  0  0  0  0
  5 34  1  0  0  0  0
  6  7  1  0  0  0  0
  6 35  1  0  0  0  0
  6 36  1  0  0  0  0
  7  8  1  0  0  0  0
  7 28  1  0  0  0  0
  7 37  1  0  0  0  0
  8 27  1  0  0  0  0
  8  9  1  0  0  0  0
  9 10  2  0  0  0  0
  9 38  1  0  0  0  0
 10 11  1  0  0  0  0
 11 27  2  0  0  0  0
 11 12  1  0  0  0  0
 12 13  1  0  0  0  0
 12 24  2  0  0  0  0
 13 23  1  0  0  0  0
 13 14  1  0  0  0  0
 14 15  1  0  0  0  0
 14 39  1  0  0  0  0
 14 40  1  0  0  0  0
 15 16  1  0  0  0  0
 15 41  1  0  0  0  0
 15 42  1  0  0  0  0
 16 22  1  0  0  0  0
 16 17  1  0  0  0  0
 16 18  1  0  0  0  0
 17 43  1  0  0  0  0
 18 19  1  0  0  0  0
 18 44  1  0  0  0  0
 18 45  1  0  0  0  0
 19 20  1  0  0  0  0
 19 46  1  0  0  0  0
 19 47  1  0  0  0  0
 20 21  1  0  0  0  0
 20 48  1  0  0  0  0
 20 49  1  0  0  0  0
 21 22  1  0  0  0  0
 21 50  1  0  0  0  0
 21 51  1  0  0  0  0
 22 23  1  0  0  0  0
 22 52  1  0  0  0  0
 23 53  1  0  0  0  0
 23 54  1  0  0  0  0
 24 25  1  0  0  0  0
 25 26  2  0  0  0  0
 25 55  1  0  0  0  0
 26 27  1  0  0  0  0
 28 56  1  0  0  0  0
 28 57  1  0  0  0  0
M  END
> <s_m_source_file>
AV-unprocessed.smi

> <i_m_source_file_index>
176

> <i_lp_mmshare_version>
43012

> <i_f3d_flags>
0

> <s_epik_input>
W09IXVtDSDJdQzEoW0NIMl1bT0hdKVtDSDJdW0NIXShbQ0gyXTEpbihbY0hdbjIpYyhjMjMpbltjSF1uYzNOKFtDSDJdW0NIMl00KVtDSDJdW0NAQEhdKFtDQF00NVtPSF0pW0NIMl1bQ0gyXVtDSDJdW0NIMl01

> <s_epik_cmdline>
J2VwaWtfcHl0aG9uJywgJy1waCcsICc3LjAnLCAnLXRuJywgJzgnLCAnLW1hJywgJzIwMCcsICctbWV0YWxfYmluZGluZycsICctaW1hZScsICc8aW5maWxlLm1hZT4nLCAnLW9tYWUnLCAnPG91dGZpbGUubWFlPic=

> <r_lp_tautomer_probability>
1

> <r_epik_Ionization_Penalty>
0.00642876

> <r_epik_Ionization_Penalty_Charging>
0

> <r_epik_Ionization_Penalty_Neutral>
0.00642876

> <r_epik_State_Penalty>
0.00467813

> <r_epik_Charging_Adjusted_Penalty>
0.00467813

> <i_epik_Tot_Q>
0

> <i_epik_Tot_abs_Q>
0

> <r_epik_Metal_State_Penalty>
-0

> <b_epik_Metal_Only>
0

> <s_lp_Force_Field>
OPLS_2005

> <r_lp_Energy>
50.7593

> <b_lp_Chiralities_Consistent>
1

> <s_lp_Variant>
AV-unprocessed.smi:176-2

> <Gold.Version>
5.8.1

> <Gold.Id.Protein>
6NUR|6NUR_protein|mol2

> <Gold.PLP.Fitness>
50.9536

> <Gold.PLP.PLP>
-42.2022

> <Gold.PLP.part.hbond>
-5.0567

> <Gold.PLP.part.metal>
0.0000

> <Gold.PLP.part.buried>
-4.5914

> <Gold.PLP.part.nonpolar>
-32.1147

> <Gold.PLP.part.repulsive>
0.0902

> <Gold.PLP.ligand.clash>
0.0000

> <Gold.PLP.ligand.torsion>
1.2726

> <Gold.PLP.Chemscore.Hbond>
3.4720

> <Gold.PLP.Chemscore.CHOScore>
0.0000

> <Gold.PLP.Chemscore.Metal>
0.0000

> <Gold.Chemscore.Hbonds>
donor molecule, donor type, donor heavy atom, donor atom, acceptor molecule, acceptor atom, score
      P1  H  6896  6907       L1    17  1.00
      P1  H  6933  6945       L1     1  0.61
      P1  H  7997  8010       L1    26  1.00
      P1  H 10752 10765       L1    24  0.85

> <Gold.PLP.Chemscore.Internal.Correction>
0.8806

> <Gold.Rescore>
     Score         DG    S(hbond)    S(metal)    S(lipo)     H(rot)  DE(clash)    DE(int)     intcor
     15.22     -18.03       3.11        0.00      99.81       3.71       0.02       2.79       ----

> <Gold.Chemscore.Fitness>
15.2204

> <Gold.Chemscore.DG>
-18.0307

> <Gold.Chemscore.ZeroCoef>
-5.4800

> <Gold.Chemscore.Hbond>
3.1056

> <Gold.Chemscore.Metal>
0.0000

> <Gold.Chemscore.Lipo>
99.8123

> <Gold.Chemscore.Internal_Hbond>
0.0000

> <Gold.Chemscore.DEClash>
0.0186

> <Gold.Chemscore.DEInternal>
2.7917

> <Gold.Chemscore.Rot>
3.7109

> <Gold.Chemscore.Internal.Correction>
   9.000000E+99

> <Gold.Chemscore.Hbonds>
donor molecule, donor type, donor heavy atom, donor atom, acceptor molecule, acceptor atom, score
      P1  H  6896  6907       L1    17  0.90
      P1  H  6933  6945       L1     1  0.18
      P1  H  7997  8010       L1    26  0.25
      P1  H 10752 10765       L1    24  0.72

> <Gold.Chemscore.Hbond.Weighted>
-10.3726

> <Gold.Chemscore.Metal.Weighted>
-0.0000

> <Gold.Chemscore.Lipo.Weighted>
-11.6780

> <Gold.Chemscore.Internal_Hbond.Weighted>
0.0000

> <Gold.Chemscore.DEClash.Weighted>
0.0186

> <Gold.Chemscore.DEInternal.Weighted>
2.7917

> <Gold.Chemscore.Rot.Weighted>
9.5000

> <Gold.Chemscore.Internal.Correction.Weighted>
   9.000000E+99

> <Gold.Protein.RotatedTorsions>
[ 6907 6896 6895 6894 ] final -123.91 input  -60.11 | X-H torsion
[ 7974 7965 7964 7962 ] final  -32.31 input  175.53 | X-H torsion
[ 8008 7997 7996 7995 ] final   96.47 input   59.86 | X-H torsion
[ 10167 10162 10161 10158 ] final  -83.35 input  -65.29 | X-H torsion
[ 10718 10713 10712 10709 ] final -163.04 input   66.30 | X-H torsion
[ 10763 10752 10751 10750 ] final -169.89 input  -60.55 | X-H torsion
[ 11005 11000 10999 10996 ] final -130.07 input  -57.11 | X-H torsion

> <Gold.Protein.ActiveResidues>
 VAL166  LYS551  ARG553  GLY616  TRP617  ASP618  TYR619  PRO620  LYS621  CYS622 
 ASP623  PHE694  ASN695  SER759  ASP760  ASP761  ALA762  ILE779  LEU786  VAL792 
 PHE793  MET794  SER795  GLU796  ALA797  LYS798  CYS799  TRP800  GLU811  SER814 

> <Gold.Protein.RotatedAtoms>
  150.8716  133.7497  159.2959 H   0  0  0  0  0  0  0  0  0  0  0  0  # atno 6907 bound_to 6896
  151.5107  135.1063  159.9863 H   0  0  0  0  0  0  0  0  0  0  0  0  # atno 6908 bound_to 6896
  152.4699  133.7961  159.6984 H   0  0  0  0  0  0  0  0  0  0  0  0  # atno 6909 bound_to 6896
  146.1000  140.5776  142.8825 H   0  0  0  0  0  0  0  0  0  0  0  0  # atno 7974 bound_to 7965
  156.0800  140.3272  155.7681 H   0  0  0  0  0  0  0  0  0  0  0  0  # atno 8008 bound_to 7997
  155.5169  140.0582  157.2931 H   0  0  0  0  0  0  0  0  0  0  0  0  # atno 8009 bound_to 7997
  154.4576  140.1951  156.0351 H   0  0  0  0  0  0  0  0  0  0  0  0  # atno 8010 bound_to 7997
  140.4234  143.2575  151.8858 H   0  0  0  0  0  0  0  0  0  0  0  0  # atno 10167 bound_to 10162
  156.6191  130.8882  151.2953 H   0  0  0  0  0  0  0  0  0  0  0  0  # atno 10718 bound_to 10713
  154.6475  135.2907  155.0028 H   0  0  0  0  0  0  0  0  0  0  0  0  # atno 10763 bound_to 10752
  154.1133  135.6559  153.4893 H   0  0  0  0  0  0  0  0  0  0  0  0  # atno 10764 bound_to 10752
  153.0358  135.5270  154.7368 H   0  0  0  0  0  0  0  0  0  0  0  0  # atno 10765 bound_to 10752
  140.9378  134.1234  157.4178 H   0  0  0  0  0  0  0  0  0  0  0  0  # atno 11005 bound_to 11000
  144.7425  140.4980  143.6859 LP  0  0  0  0  0  0  0  0  0  0  0  0  # atno 17320 bound_to 7965
  145.5873  139.1493  143.3202 LP  0  0  0  0  0  0  0  0  0  0  0  0  # atno 17321 bound_to 7965
  139.4783  144.5412  151.8525 LP  0  0  0  0  0  0  0  0  0  0  0  0  # atno 17342 bound_to 10162
  140.4508  144.1858  150.5897 LP  0  0  0  0  0  0  0  0  0  0  0  0  # atno 17343 bound_to 10162
  157.7233  130.9587  150.1527 LP  0  0  0  0  0  0  0  0  0  0  0  0  # atno 17370 bound_to 10713
  156.2327  130.3683  149.8427 LP  0  0  0  0  0  0  0  0  0  0  0  0  # atno 17371 bound_to 10713
  139.8812  135.0026  156.6139 LP  0  0  0  0  0  0  0  0  0  0  0  0  # atno 17394 bound_to 11000
  140.7776  133.8687  155.8541 LP  0  0  0  0  0  0  0  0  0  0  0  0  # atno 17395 bound_to 11000

$$$$
