AV-unprocessed.smi:1283|AV-procd|sdf|5362|dock7
  -GOLD-   22720 4503D 1   1.00000     0.00000
 Structure written by MMmdl.
 30 31  0  0  0  0  0  0  0  0  1 V2000
  154.2815  136.3450  162.6060 C   0  0  0  0  0  0  0  0  0  0  0  0
  153.9417  137.5018  161.7760 N   0  0  0  0  0  0  0  0  0  0  0  0
  154.3094  138.7047  162.3420 N   0  0  0  0  0  0  0  0  0  0  0  0
  154.0643  139.8035  161.7157 C   0  0  0  0  0  0  0  0  0  0  0  0
  153.4083  139.8407  160.4186 C   0  0  0  0  0  0  0  0  0  0  0  0
  153.1438  141.0278  159.7494 N   0  0  0  0  0  0  0  0  0  0  0  0
  153.4466  142.3847  160.1770 C   0  0  0  0  0  0  0  0  0  0  0  0
  152.2053  143.2905  160.1612 C   0  0  1  0  0  0  0  0  0  0  0  0
  152.0999  144.2947  161.3114 C   0  0  0  0  0  0  0  0  0  0  0  0
  151.2123  145.3544  160.6984 C   0  0  0  0  0  0  0  0  0  0  0  0
  151.7181  145.3873  159.2584 C   0  0  0  0  0  0  0  0  0  0  0  0
  152.1393  144.0582  158.9618 O   0  0  0  0  0  0  0  0  0  0  0  0
  153.0587  138.6416  159.8810 C   0  0  0  0  0  0  0  0  0  0  0  0
  152.2752  138.5731  158.3373 Cl  0  0  0  0  0  0  0  0  0  0  0  0
  153.3228  137.3669  160.5653 C   0  0  0  0  0  0  0  0  0  0  0  0
  153.0158  136.2714  160.0938 O   0  0  0  0  0  0  0  0  0  0  0  0
  153.9950  135.3859  162.1731 H   0  0  0  0  0  0  0  0  0  0  0  0
  153.7882  136.4228  163.5758 H   0  0  0  0  0  0  0  0  0  0  0  0
  155.3576  136.3137  162.7807 H   0  0  0  0  0  0  0  0  0  0  0  0
  154.3422  140.7681  162.1397 H   0  0  0  0  0  0  0  0  0  0  0  0
  152.6862  140.9572  158.8514 H   0  0  0  0  0  0  0  0  0  0  0  0
  153.8669  142.3533  161.1826 H   0  0  0  0  0  0  0  0  0  0  0  0
  154.2124  142.8009  159.5215 H   0  0  0  0  0  0  0  0  0  0  0  0
  151.3141  142.6614  160.1764 H   0  0  0  0  0  0  0  0  0  0  0  0
  151.6833  143.8590  162.2199 H   0  0  0  0  0  0  0  0  0  0  0  0
  153.0713  144.7268  161.5551 H   0  0  0  0  0  0  0  0  0  0  0  0
  150.1703  145.0322  160.7241 H   0  0  0  0  0  0  0  0  0  0  0  0
  151.2854  146.3201  161.1992 H   0  0  0  0  0  0  0  0  0  0  0  0
  150.9575  145.7317  158.5574 H   0  0  0  0  0  0  0  0  0  0  0  0
  152.5807  146.0495  159.1751 H   0  0  0  0  0  0  0  0  0  0  0  0
  1  2  1  0  0  0  0
  1 17  1  0  0  0  0
  1 18  1  0  0  0  0
  1 19  1  0  0  0  0
  2 15  1  0  0  0  0
  2  3  1  0  0  0  0
  3  4  2  0  0  0  0
  4  5  1  0  0  0  0
  4 20  1  0  0  0  0
  5  6  1  0  0  0  0
  5 13  2  0  0  0  0
  6  7  1  0  0  0  0
  6 21  1  0  0  0  0
  7  8  1  0  0  0  0
  7 22  1  0  0  0  0
  7 23  1  0  0  0  0
  8 12  1  0  0  0  0
  8  9  1  0  0  0  0
  8 24  1  0  0  0  0
  9 10  1  0  0  0  0
  9 25  1  0  0  0  0
  9 26  1  0  0  0  0
 10 11  1  0  0  0  0
 10 27  1  0  0  0  0
 10 28  1  0  0  0  0
 11 12  1  0  0  0  0
 11 29  1  0  0  0  0
 11 30  1  0  0  0  0
 13 14  1  0  0  0  0
 13 15  1  0  0  0  0
 15 16  2  0  0  0  0
M  END
> <s_m_source_file>
AV-unprocessed.smi

> <i_m_source_file_index>
1283

> <i_lp_mmshare_version>
43012

> <i_f3d_flags>
0

> <s_epik_input>
W0NIM11uMW5bY0hdYyhjKENsKWMxPU8pW05IXVtDSDJdW0NAQEhdMltDSDJdW0NIMl1bQ0gyXU8y

> <s_epik_cmdline>
J2VwaWtfcHl0aG9uJywgJy1waCcsICc3LjAnLCAnLXRuJywgJzgnLCAnLW1hJywgJzIwMCcsICctbWV0YWxfYmluZGluZycsICctaW1hZScsICc8aW5maWxlLm1hZT4nLCAnLW9tYWUnLCAnPG91dGZpbGUubWFlPic=

> <r_lp_tautomer_probability>
1

> <r_epik_Ionization_Penalty>
2.40876e-05

> <r_epik_Ionization_Penalty_Charging>
4.17655e-09

> <r_epik_Ionization_Penalty_Neutral>
2.40834e-05

> <r_epik_State_Penalty>
-0

> <r_epik_Charging_Adjusted_Penalty>
4.17655e-09

> <i_epik_Tot_Q>
0

> <i_epik_Tot_abs_Q>
0

> <r_epik_Metal_State_Penalty>
-0

> <b_epik_Metal_Only>
0

> <s_lp_Force_Field>
OPLS_2005

> <r_lp_Energy>
41.0811

> <b_lp_Chiralities_Consistent>
1

> <s_lp_Variant>
AV-unprocessed.smi:1283-2

> <Gold.Version>
5.8.1

> <Gold.Id.Protein>
6NUR|6NUR_protein|mol2

> <Gold.PLP.Fitness>
37.4933

> <Gold.PLP.PLP>
-35.5781

> <Gold.PLP.part.hbond>
-1.0000

> <Gold.PLP.part.metal>
0.0000

> <Gold.PLP.part.buried>
-5.8447

> <Gold.PLP.part.nonpolar>
-27.8131

> <Gold.PLP.part.repulsive>
0.0998

> <Gold.PLP.ligand.clash>
0.0000

> <Gold.PLP.ligand.torsion>
0.5426

> <Gold.PLP.Chemscore.Hbond>
1.0000

> <Gold.PLP.Chemscore.CHOScore>
0.0000

> <Gold.PLP.Chemscore.Metal>
0.0000

> <Gold.Chemscore.Hbonds>
donor molecule, donor type, donor heavy atom, donor atom, acceptor molecule, acceptor atom, score
      P1  H  6896  6909       L1    16  1.00

> <Gold.PLP.Chemscore.Internal.Correction>
0.0004

> <Gold.Rescore>
     Score         DG    S(hbond)    S(metal)    S(lipo)     H(rot)  DE(clash)    DE(int)     intcor
     16.13     -16.72       1.00        0.00      94.24       1.22       0.01       0.58       ----

> <Gold.Chemscore.Fitness>
16.1290

> <Gold.Chemscore.DG>
-16.7195

> <Gold.Chemscore.ZeroCoef>
-5.4800

> <Gold.Chemscore.Hbond>
0.9997

> <Gold.Chemscore.Metal>
0.0000

> <Gold.Chemscore.Lipo>
94.2376

> <Gold.Chemscore.Internal_Hbond>
0.0000

> <Gold.Chemscore.DEClash>
0.0149

> <Gold.Chemscore.DEInternal>
0.5756

> <Gold.Chemscore.Rot>
1.2208

> <Gold.Chemscore.Internal.Correction>
   9.000000E+99

> <Gold.Chemscore.Hbonds>
donor molecule, donor type, donor heavy atom, donor atom, acceptor molecule, acceptor atom, score
      P1  H  6896  6909       L1    16  0.97

> <Gold.Chemscore.Hbond.Weighted>
-3.3391

> <Gold.Chemscore.Metal.Weighted>
-0.0000

> <Gold.Chemscore.Lipo.Weighted>
-11.0258

> <Gold.Chemscore.Internal_Hbond.Weighted>
0.0000

> <Gold.Chemscore.DEClash.Weighted>
0.0149

> <Gold.Chemscore.DEInternal.Weighted>
0.5756

> <Gold.Chemscore.Rot.Weighted>
3.1253

> <Gold.Chemscore.Internal.Correction.Weighted>
   9.000000E+99

> <Gold.Protein.RotatedTorsions>
[ 6907 6896 6895 6894 ] final  144.24 input  -60.11 | X-H torsion
[ 7974 7965 7964 7962 ] final   55.96 input  175.53 | X-H torsion
[ 8008 7997 7996 7995 ] final   59.50 input   59.86 | X-H torsion
[ 10167 10162 10161 10158 ] final  177.30 input  -65.29 | X-H torsion
[ 10718 10713 10712 10709 ] final  -93.59 input   66.30 | X-H torsion
[ 10763 10752 10751 10750 ] final   73.00 input  -60.55 | X-H torsion
[ 11005 11000 10999 10996 ] final -143.71 input  -57.11 | X-H torsion

> <Gold.Protein.ActiveResidues>
 VAL166  LYS551  ARG553  GLY616  TRP617  ASP618  TYR619  PRO620  LYS621  CYS622 
 ASP623  PHE694  ASN695  SER759  ASP760  ASP761  ALA762  ILE779  LEU786  VAL792 
 PHE793  MET794  SER795  GLU796  ALA797  LYS798  CYS799  TRP800  GLU811  SER814 

> <Gold.Protein.RotatedAtoms>
  152.1962  133.4808  159.5033 H   0  0  0  0  0  0  0  0  0  0  0  0  # atno 6907 bound_to 6896
  150.6960  134.1649  159.4199 H   0  0  0  0  0  0  0  0  0  0  0  0  # atno 6908 bound_to 6896
  151.9566  135.0143  160.0596 H   0  0  0  0  0  0  0  0  0  0  0  0  # atno 6909 bound_to 6896
  145.9449  139.3920  143.0341 H   0  0  0  0  0  0  0  0  0  0  0  0  # atno 7974 bound_to 7965
  155.5672  140.3489  155.4506 H   0  0  0  0  0  0  0  0  0  0  0  0  # atno 8008 bound_to 7997
  156.0471  140.1309  157.0117 H   0  0  0  0  0  0  0  0  0  0  0  0  # atno 8009 bound_to 7997
  154.4417  140.1012  156.6307 H   0  0  0  0  0  0  0  0  0  0  0  0  # atno 8010 bound_to 7997
  139.5248  144.2814  152.0543 H   0  0  0  0  0  0  0  0  0  0  0  0  # atno 10167 bound_to 10162
  156.0015  130.5033  150.5800 H   0  0  0  0  0  0  0  0  0  0  0  0  # atno 10718 bound_to 10713
  153.0494  135.5079  154.7829 H   0  0  0  0  0  0  0  0  0  0  0  0  # atno 10763 bound_to 10752
  154.6703  135.2952  154.9753 H   0  0  0  0  0  0  0  0  0  0  0  0  # atno 10764 bound_to 10752
  154.0574  135.6695  153.4860 H   0  0  0  0  0  0  0  0  0  0  0  0  # atno 10765 bound_to 10752
  140.8098  134.2758  157.4945 H   0  0  0  0  0  0  0  0  0  0  0  0  # atno 11005 bound_to 11000
  145.8250  140.9660  143.0879 LP  0  0  0  0  0  0  0  0  0  0  0  0  # atno 17320 bound_to 7965
  144.6785  140.0090  143.7484 LP  0  0  0  0  0  0  0  0  0  0  0  0  # atno 17321 bound_to 7965
  140.2269  144.4409  150.6317 LP  0  0  0  0  0  0  0  0  0  0  0  0  # atno 17342 bound_to 10162
  140.6381  143.2198  151.6350 LP  0  0  0  0  0  0  0  0  0  0  0  0  # atno 17343 bound_to 10162
  157.3681  131.0761  151.1580 LP  0  0  0  0  0  0  0  0  0  0  0  0  # atno 17370 bound_to 10713
  157.2343  130.6539  149.5862 LP  0  0  0  0  0  0  0  0  0  0  0  0  # atno 17371 bound_to 10713
  139.8715  134.9476  156.3973 LP  0  0  0  0  0  0  0  0  0  0  0  0  # atno 17394 bound_to 11000
  140.9209  133.7645  155.9906 LP  0  0  0  0  0  0  0  0  0  0  0  0  # atno 17395 bound_to 11000

$$$$
