AV-unprocessed.smi:2107|AV-procd|sdf|8601|dock2
  -GOLD-   2272011343D 1   1.00000     0.00000
 Structure written by MMmdl.
 47 48  0  0  0  0  0  0  0  0  2 V2000
  144.3809  133.9751  162.3845 C   0  0  0  0  0  0  0  0  0  0  0  0
  144.6546  135.0712  161.3404 C   0  0  0  0  0  0  0  0  0  0  0  0
  146.0910  135.2335  161.0446 N   0  0  0  0  0  0  0  0  0  0  0  0
  147.0278  134.6482  162.0259 C   0  0  0  0  0  0  0  0  0  0  0  0
  147.5332  135.6639  163.0604 C   0  0  0  0  0  0  0  0  0  0  0  0
  146.5964  136.5701  160.0573 S   0  0  0  0  0  0  0  0  0  0  0  0
  145.4460  137.0551  159.2796 O   0  0  0  0  0  0  0  0  0  0  0  0
  147.3965  137.4956  160.8737 O   0  0  0  0  0  0  0  0  0  0  0  0
  147.6558  135.7484  158.9742 N   0  0  0  0  0  0  0  0  0  0  0  0
  148.2623  136.4482  157.8417 C   0  0  0  0  0  0  0  0  0  0  0  0
  148.3236  135.6238  156.5591 C   0  0  0  0  0  0  0  0  0  0  0  0
  147.8156  134.3046  156.5804 C   0  0  0  0  0  0  0  0  0  0  0  0
  147.8303  133.5258  155.4071 C   0  0  0  0  0  0  0  0  0  0  0  0
  148.3548  134.0825  154.2267 C   0  0  0  0  0  0  0  0  0  0  0  0
  148.8347  135.3436  154.2377 N   0  3  0  0  0  0  0  0  0  0  0  0
  148.8458  136.1360  155.3386 C   0  0  0  0  0  0  0  0  0  0  0  0
  149.3827  137.4314  155.2248 N   0  0  0  0  0  0  0  0  0  0  0  0
  150.8087  137.4439  154.9272 C   0  0  0  0  0  0  0  0  0  0  0  0
  151.3567  138.8754  155.0521 C   0  0  0  0  0  0  0  0  0  0  0  0
  150.6153  139.7448  154.2013 O   0  0  0  0  0  0  0  0  0  0  0  0
  149.2351  139.7893  154.5511 C   0  0  0  0  0  0  0  0  0  0  0  0
  148.6243  138.3838  154.4198 C   0  0  0  0  0  0  0  0  0  0  0  0
  143.3080  133.8512  162.5319 H   0  0  0  0  0  0  0  0  0  0  0  0
  144.8110  134.2266  163.3540 H   0  0  0  0  0  0  0  0  0  0  0  0
  144.7827  133.0081  162.0860 H   0  0  0  0  0  0  0  0  0  0  0  0
  144.1081  134.8558  160.4214 H   0  0  0  0  0  0  0  0  0  0  0  0
  144.2678  136.0219  161.7080 H   0  0  0  0  0  0  0  0  0  0  0  0
  146.5373  133.8190  162.5367 H   0  0  0  0  0  0  0  0  0  0  0  0
  147.8763  134.2114  161.5021 H   0  0  0  0  0  0  0  0  0  0  0  0
  148.2880  135.2085  163.7018 H   0  0  0  0  0  0  0  0  0  0  0  0
  146.7294  136.0084  163.7102 H   0  0  0  0  0  0  0  0  0  0  0  0
  147.9890  136.5329  162.5871 H   0  0  0  0  0  0  0  0  0  0  0  0
  147.4578  134.7573  158.8373 H   0  0  0  0  0  0  0  0  0  0  0  0
  147.6948  137.3578  157.6492 H   0  0  0  0  0  0  0  0  0  0  0  0
  149.2627  136.7707  158.1323 H   0  0  0  0  0  0  0  0  0  0  0  0
  147.4071  133.8888  157.4898 H   0  0  0  0  0  0  0  0  0  0  0  0
  147.4414  132.5182  155.4126 H   0  0  0  0  0  0  0  0  0  0  0  0
  148.4052  133.5622  153.2812 H   0  0  0  0  0  0  0  0  0  0  0  0
  151.3499  136.7782  155.5987 H   0  0  0  0  0  0  0  0  0  0  0  0
  150.9664  137.0713  153.9142 H   0  0  0  0  0  0  0  0  0  0  0  0
  151.3015  139.2244  156.0847 H   0  0  0  0  0  0  0  0  0  0  0  0
  152.4069  138.9029  154.7611 H   0  0  0  0  0  0  0  0  0  0  0  0
  149.1206  140.1730  155.5649 H   0  0  0  0  0  0  0  0  0  0  0  0
  148.7215  140.4858  153.8884 H   0  0  0  0  0  0  0  0  0  0  0  0
  148.6370  138.0773  153.3729 H   0  0  0  0  0  0  0  0  0  0  0  0
  147.5830  138.3964  154.7450 H   0  0  0  0  0  0  0  0  0  0  0  0
  149.2110  135.7210  153.3680 H   0  0  0  0  0  0  0  0  0  0  0  0
  1  2  1  0  0  0  0
  1 23  1  0  0  0  0
  1 24  1  0  0  0  0
  1 25  1  0  0  0  0
  2  3  1  0  0  0  0
  2 26  1  0  0  0  0
  2 27  1  0  0  0  0
  3  4  1  0  0  0  0
  3  6  1  0  0  0  0
  4  5  1  0  0  0  0
  4 28  1  0  0  0  0
  4 29  1  0  0  0  0
  5 30  1  0  0  0  0
  5 31  1  0  0  0  0
  5 32  1  0  0  0  0
  6  7  2  0  0  0  0
  6  8  2  0  0  0  0
  6  9  1  0  0  0  0
  9 10  1  0  0  0  0
  9 33  1  0  0  0  0
 10 11  1  0  0  0  0
 10 34  1  0  0  0  0
 10 35  1  0  0  0  0
 11 16  1  0  0  0  0
 11 12  2  0  0  0  0
 12 13  1  0  0  0  0
 12 36  1  0  0  0  0
 13 14  2  0  0  0  0
 13 37  1  0  0  0  0
 14 15  1  0  0  0  0
 14 38  1  0  0  0  0
 15 16  2  0  0  0  0
 15 47  1  0  0  0  0
 16 17  1  0  0  0  0
 17 22  1  0  0  0  0
 17 18  1  0  0  0  0
 18 19  1  0  0  0  0
 18 39  1  0  0  0  0
 18 40  1  0  0  0  0
 19 20  1  0  0  0  0
 19 41  1  0  0  0  0
 19 42  1  0  0  0  0
 20 21  1  0  0  0  0
 21 22  1  0  0  0  0
 21 43  1  0  0  0  0
 21 44  1  0  0  0  0
 22 45  1  0  0  0  0
 22 46  1  0  0  0  0
M  CHG  1  15   1
M  END
> <s_m_source_file>
AV-unprocessed.smi

> <i_m_source_file_index>
2107

> <i_lp_mmshare_version>
43012

> <i_f3d_flags>
0

> <s_epik_input>
W0NIM11bQ0gyXU4oW0NIMl1bQ0gzXSlTKD1PKSg9TylbTkhdW0NIMl1jMVtjSF1bY0hdW2NIXW5jMU4yW0NIMl1bQ0gyXU9bQ0gyXVtDSDJdMg==

> <s_epik_cmdline>
J2VwaWtfcHl0aG9uJywgJy1waCcsICc3LjAnLCAnLXRuJywgJzgnLCAnLW1hJywgJzIwMCcsICctbWV0YWxfYmluZGluZycsICctaW1hZScsICc8aW5maWxlLm1hZT4nLCAnLW9tYWUnLCAnPG91dGZpbGUubWFlPic=

> <r_lp_tautomer_probability>
0.999994

> <r_epik_Ionization_Penalty>
2.66893

> <r_epik_Ionization_Penalty_Charging>
2.61323

> <r_epik_Ionization_Penalty_Neutral>
0.0557011

> <r_epik_State_Penalty>
2.68492

> <r_epik_Charging_Adjusted_Penalty>
5.29815

> <i_epik_Tot_Q>
1

> <i_epik_Tot_abs_Q>
1

> <r_epik_Metal_State_Penalty>
5.63236

> <b_epik_Metal_Only>
0

> <s_lp_Force_Field>
OPLS_2005

> <r_lp_Energy>
23.5693

> <b_lp_Chiralities_Consistent>
1

> <s_lp_Variant>
AV-unprocessed.smi:2107-2

> <Gold.Version>
5.8.1

> <Gold.Id.Protein>
6NUR|6NUR_protein|mol2

> <Gold.PLP.Fitness>
41.6708

> <Gold.PLP.PLP>
-28.2782

> <Gold.PLP.part.hbond>
-3.8283

> <Gold.PLP.part.metal>
0.0000

> <Gold.PLP.part.buried>
-2.8856

> <Gold.PLP.part.nonpolar>
-21.6522

> <Gold.PLP.part.repulsive>
0.3615

> <Gold.PLP.ligand.clash>
0.0000

> <Gold.PLP.ligand.torsion>
2.2496

> <Gold.PLP.Chemscore.Hbond>
4.6720

> <Gold.PLP.Chemscore.CHOScore>
0.0000

> <Gold.PLP.Chemscore.Metal>
0.0000

> <Gold.Chemscore.Hbonds>
donor molecule, donor type, donor heavy atom, donor atom, acceptor molecule, acceptor atom, score
      L1  H    15    47       P1  7948  2.00
      P1  H  6931  6943       L1     8  0.61
      P1  H  6934  6947       L1     8  1.00
      P1  H  7989  7998       L1    20  1.00

> <Gold.PLP.Chemscore.Internal.Correction>
3.8758

> <Gold.Rescore>
     Score         DG    S(hbond)    S(metal)    S(lipo)     H(rot)  DE(clash)    DE(int)     intcor
     17.88     -20.34       3.52        0.00      65.28       1.77       0.05       2.41       ----

> <Gold.Chemscore.Fitness>
17.8790

> <Gold.Chemscore.DG>
-20.3382

> <Gold.Chemscore.ZeroCoef>
-5.4800

> <Gold.Chemscore.Hbond>
3.5168

> <Gold.Chemscore.Metal>
0.0000

> <Gold.Chemscore.Lipo>
65.2834

> <Gold.Chemscore.Internal_Hbond>
0.0000

> <Gold.Chemscore.DEClash>
0.0456

> <Gold.Chemscore.DEInternal>
2.4136

> <Gold.Chemscore.Rot>
1.7680

> <Gold.Chemscore.Internal.Correction>
   9.000000E+99

> <Gold.Chemscore.Hbonds>
donor molecule, donor type, donor heavy atom, donor atom, acceptor molecule, acceptor atom, score
      L1  H    15    47       P1  7948  0.51
      P1  H  6931  6943       L1     8  0.59
      P1  H  6934  6947       L1     8  0.91
      P1  H  7989  7998       L1    20  0.78

> <Gold.Chemscore.Hbond.Weighted>
-11.7461

> <Gold.Chemscore.Metal.Weighted>
-0.0000

> <Gold.Chemscore.Lipo.Weighted>
-7.6382

> <Gold.Chemscore.Internal_Hbond.Weighted>
0.0000

> <Gold.Chemscore.DEClash.Weighted>
0.0456

> <Gold.Chemscore.DEInternal.Weighted>
2.4136

> <Gold.Chemscore.Rot.Weighted>
4.5261

> <Gold.Chemscore.Internal.Correction.Weighted>
   9.000000E+99

> <Gold.Protein.RotatedTorsions>
[ 6907 6896 6895 6894 ] final -111.54 input  -60.11 | X-H torsion
[ 7974 7965 7964 7962 ] final -123.62 input  175.53 | X-H torsion
[ 8008 7997 7996 7995 ] final  -90.73 input   59.86 | X-H torsion
[ 10167 10162 10161 10158 ] final  166.23 input  -65.29 | X-H torsion
[ 10718 10713 10712 10709 ] final   63.57 input   66.30 | X-H torsion
[ 10763 10752 10751 10750 ] final -100.63 input  -60.55 | X-H torsion
[ 11005 11000 10999 10996 ] final -178.53 input  -57.11 | X-H torsion

> <Gold.Protein.ActiveResidues>
 VAL166  LYS551  ARG553  GLY616  TRP617  ASP618  TYR619  PRO620  LYS621  CYS622 
 ASP623  PHE694  ASN695  SER759  ASP760  ASP761  ALA762  ILE779  LEU786  VAL792 
 PHE793  MET794  SER795  GLU796  ALA797  LYS798  CYS799  TRP800  GLU811  SER814 

> <Gold.Protein.RotatedAtoms>
  150.7697  133.9220  159.3400 H   0  0  0  0  0  0  0  0  0  0  0  0  # atno 6907 bound_to 6896
  151.7109  135.0911  160.0277 H   0  0  0  0  0  0  0  0  0  0  0  0  # atno 6908 bound_to 6896
  152.3710  133.6380  159.6122 H   0  0  0  0  0  0  0  0  0  0  0  0  # atno 6909 bound_to 6896
  145.0168  140.7953  143.4405 H   0  0  0  0  0  0  0  0  0  0  0  0  # atno 7974 bound_to 7965
  154.7021  140.0527  157.0468 H   0  0  0  0  0  0  0  0  0  0  0  0  # atno 8008 bound_to 7997
  155.0670  140.3195  155.4623 H   0  0  0  0  0  0  0  0  0  0  0  0  # atno 8009 bound_to 7997
  156.2763  140.2088  156.5797 H   0  0  0  0  0  0  0  0  0  0  0  0  # atno 8010 bound_to 7997
  139.4921  144.4049  151.9367 H   0  0  0  0  0  0  0  0  0  0  0  0  # atno 10167 bound_to 10162
  157.5981  130.9113  149.9734 H   0  0  0  0  0  0  0  0  0  0  0  0  # atno 10718 bound_to 10713
  154.7594  135.4928  153.9435 H   0  0  0  0  0  0  0  0  0  0  0  0  # atno 10763 bound_to 10752
  153.1233  135.6737  153.9306 H   0  0  0  0  0  0  0  0  0  0  0  0  # atno 10764 bound_to 10752
  153.9031  135.3107  155.3427 H   0  0  0  0  0  0  0  0  0  0  0  0  # atno 10765 bound_to 10752
  140.4288  134.6538  157.4701 H   0  0  0  0  0  0  0  0  0  0  0  0  # atno 11005 bound_to 11000
  145.1949  139.2282  143.5223 LP  0  0  0  0  0  0  0  0  0  0  0  0  # atno 17320 bound_to 7965
  146.3479  140.1753  142.8589 LP  0  0  0  0  0  0  0  0  0  0  0  0  # atno 17321 bound_to 7965
  140.3489  144.3113  150.5953 LP  0  0  0  0  0  0  0  0  0  0  0  0  # atno 17342 bound_to 10162
  140.5502  143.2208  151.7939 LP  0  0  0  0  0  0  0  0  0  0  0  0  # atno 17343 bound_to 10162
  156.1047  130.3653  150.0154 LP  0  0  0  0  0  0  0  0  0  0  0  0  # atno 17370 bound_to 10713
  156.8263  130.9376  151.3639 LP  0  0  0  0  0  0  0  0  0  0  0  0  # atno 17371 bound_to 10713
  140.0149  134.6634  155.9325 LP  0  0  0  0  0  0  0  0  0  0  0  0  # atno 17394 bound_to 11000
  141.1754  133.6540  156.4809 LP  0  0  0  0  0  0  0  0  0  0  0  0  # atno 17395 bound_to 11000

$$$$
