AV-unprocessed.smi:2913|AV-procd|sdf|11184|dock4
  -GOLD-   2272016 73D 1   1.00000     0.00000
 Structure written by MMmdl.
 41 42  0  0  0  0  0  0  0  0  1 V2000
  153.0263  143.1689  163.1255 C   0  0  0  0  0  0  0  0  0  0  0  0
  152.7372  143.3948  161.6506 C   0  0  0  0  0  0  0  0  0  0  0  0
  152.1943  144.5640  161.2437 C   0  0  0  0  0  0  0  0  0  0  0  0
  151.8883  144.8501  159.8410 C   0  0  0  0  0  0  0  0  0  0  0  0
  151.3979  145.9203  159.4799 O   0  0  0  0  0  0  0  0  0  0  0  0
  152.1796  143.8525  158.9617 N   0  0  0  0  0  0  0  0  0  0  0  0
  151.8999  144.0350  157.5348 C   0  0  0  0  0  0  0  0  0  0  0  0
  152.7442  142.6327  159.3709 C   0  0  0  0  0  0  0  0  0  0  0  0
  153.0399  142.3667  160.6627 C   0  0  0  0  0  0  0  0  0  0  0  0
  153.5951  141.1581  161.1165 N   0  0  0  0  0  0  0  0  0  0  0  0
  154.1148  140.1349  160.4126 C   0  0  0  0  0  0  0  0  0  0  0  0
  154.2365  140.0895  159.1888 O   0  0  0  0  0  0  0  0  0  0  0  0
  154.5143  139.1524  161.2328 N   0  0  0  0  0  0  0  0  0  0  0  0
  155.1763  137.9133  160.8307 C   0  0  2  0  0  0  0  0  0  0  0  0
  154.4121  137.3057  159.6439 C   0  0  0  0  0  0  0  0  0  0  0  0
  155.2449  136.9606  162.0404 C   0  0  1  0  0  0  0  0  0  0  0  0
  155.8794  137.5634  163.2947 C   0  0  0  0  0  0  0  0  0  0  0  0
  155.2836  136.7011  164.3831 C   0  0  0  0  0  0  0  0  0  0  0  0
  153.8592  136.5009  163.8753 C   0  0  0  0  0  0  0  0  0  0  0  0
  153.9323  136.5834  162.4542 O   0  0  0  0  0  0  0  0  0  0  0  0
  152.7575  144.0374  163.7280 H   0  0  0  0  0  0  0  0  0  0  0  0
  154.0876  142.9709  163.2782 H   0  0  0  0  0  0  0  0  0  0  0  0
  152.4591  142.3148  163.4965 H   0  0  0  0  0  0  0  0  0  0  0  0
  151.9718  145.3269  161.9756 H   0  0  0  0  0  0  0  0  0  0  0  0
  152.1800  143.1700  156.9330 H   0  0  0  0  0  0  0  0  0  0  0  0
  152.4488  144.8928  157.1438 H   0  0  0  0  0  0  0  0  0  0  0  0
  150.8353  144.2107  157.3735 H   0  0  0  0  0  0  0  0  0  0  0  0
  152.9011  141.9416  158.5587 H   0  0  0  0  0  0  0  0  0  0  0  0
  153.6182  141.0603  162.1209 H   0  0  0  0  0  0  0  0  0  0  0  0
  154.3753  139.2833  162.2237 H   0  0  0  0  0  0  0  0  0  0  0  0
  156.1960  138.1189  160.5005 H   0  0  0  0  0  0  0  0  0  0  0  0
  154.9014  136.4042  159.2755 H   0  0  0  0  0  0  0  0  0  0  0  0
  154.3594  138.0084  158.8115 H   0  0  0  0  0  0  0  0  0  0  0  0
  153.3914  137.0411  159.9219 H   0  0  0  0  0  0  0  0  0  0  0  0
  155.7810  136.0481  161.7732 H   0  0  0  0  0  0  0  0  0  0  0  0
  156.9692  137.5340  163.2786 H   0  0  0  0  0  0  0  0  0  0  0  0
  155.5650  138.5999  163.4269 H   0  0  0  0  0  0  0  0  0  0  0  0
  155.8051  135.7439  164.4299 H   0  0  0  0  0  0  0  0  0  0  0  0
  155.3247  137.1628  165.3699 H   0  0  0  0  0  0  0  0  0  0  0  0
  153.4347  135.5499  164.1975 H   0  0  0  0  0  0  0  0  0  0  0  0
  153.2099  137.3003  164.2345 H   0  0  0  0  0  0  0  0  0  0  0  0
  1  2  1  0  0  0  0
  1 21  1  0  0  0  0
  1 22  1  0  0  0  0
  1 23  1  0  0  0  0
  2  9  1  0  0  0  0
  2  3  2  0  0  0  0
  3  4  1  0  0  0  0
  3 24  1  0  0  0  0
  4  5  2  0  0  0  0
  4  6  1  0  0  0  0
  6  7  1  0  0  0  0
  6  8  1  0  0  0  0
  7 25  1  0  0  0  0
  7 26  1  0  0  0  0
  7 27  1  0  0  0  0
  8  9  2  0  0  0  0
  8 28  1  0  0  0  0
  9 10  1  0  0  0  0
 10 11  1  0  0  0  0
 10 29  1  0  0  0  0
 11 12  2  0  0  0  0
 11 13  1  0  0  0  0
 13 14  1  0  0  0  0
 13 30  1  0  0  0  0
 14 15  1  0  0  0  0
 14 16  1  0  0  0  0
 14 31  1  0  0  0  0
 15 32  1  0  0  0  0
 15 33  1  0  0  0  0
 15 34  1  0  0  0  0
 16 20  1  0  0  0  0
 16 17  1  0  0  0  0
 16 35  1  0  0  0  0
 17 18  1  0  0  0  0
 17 36  1  0  0  0  0
 17 37  1  0  0  0  0
 18 19  1  0  0  0  0
 18 38  1  0  0  0  0
 18 39  1  0  0  0  0
 19 20  1  0  0  0  0
 19 40  1  0  0  0  0
 19 41  1  0  0  0  0
M  END
> <s_m_source_file>
AV-unprocessed.smi

> <i_m_source_file_index>
2913

> <i_lp_mmshare_version>
43012

> <i_f3d_flags>
0

> <s_epik_input>
W0NIM11jMVtjSF1jKD1PKW4oW0NIM10pW2NIXWMxW05IXUMoPU8pW05IXVtDQEhdKFtDSDNdKVtDQEBIXTJbQ0gyXVtDSDJdW0NIMl1PMg==

> <s_epik_cmdline>
J2VwaWtfcHl0aG9uJywgJy1waCcsICc3LjAnLCAnLXRuJywgJzgnLCAnLW1hJywgJzIwMCcsICctbWV0YWxfYmluZGluZycsICctaW1hZScsICc8aW5maWxlLm1hZT4nLCAnLW9tYWUnLCAnPG91dGZpbGUubWFlPic=

> <r_lp_tautomer_probability>
1

> <r_epik_Ionization_Penalty>
2.72039e-05

> <r_epik_Ionization_Penalty_Charging>
8.03976e-06

> <r_epik_Ionization_Penalty_Neutral>
1.91642e-05

> <r_epik_State_Penalty>
-0

> <r_epik_Charging_Adjusted_Penalty>
8.03976e-06

> <i_epik_Tot_Q>
0

> <i_epik_Tot_abs_Q>
0

> <r_epik_Metal_State_Penalty>
-0

> <b_epik_Metal_Only>
0

> <s_lp_Force_Field>
OPLS_2005

> <r_lp_Energy>
32.0319

> <b_lp_Chiralities_Consistent>
1

> <s_lp_Variant>
AV-unprocessed.smi:2913-3

> <Gold.Version>
5.8.1

> <Gold.Id.Protein>
6NUR|6NUR_protein|mol2

> <Gold.PLP.Fitness>
48.5191

> <Gold.PLP.PLP>
-45.9025

> <Gold.PLP.part.hbond>
-2.6335

> <Gold.PLP.part.metal>
0.0000

> <Gold.PLP.part.buried>
-4.4435

> <Gold.PLP.part.nonpolar>
-37.4962

> <Gold.PLP.part.repulsive>
0.2336

> <Gold.PLP.ligand.clash>
0.0000

> <Gold.PLP.ligand.torsion>
0.1619

> <Gold.PLP.Chemscore.Hbond>
0.9760

> <Gold.PLP.Chemscore.CHOScore>
0.0000

> <Gold.PLP.Chemscore.Metal>
0.0000

> <Gold.Chemscore.Hbonds>
donor molecule, donor type, donor heavy atom, donor atom, acceptor molecule, acceptor atom, score
      P1  H  7997  8009       L1    12  0.97

> <Gold.PLP.Chemscore.Internal.Correction>
0.0123

> <Gold.Rescore>
     Score         DG    S(hbond)    S(metal)    S(lipo)     H(rot)  DE(clash)    DE(int)     intcor
     14.74     -17.57       0.96        0.00     102.50       1.21       0.07       2.76       ----

> <Gold.Chemscore.Fitness>
14.7401

> <Gold.Chemscore.DG>
-17.5676

> <Gold.Chemscore.ZeroCoef>
-5.4800

> <Gold.Chemscore.Hbond>
0.9560

> <Gold.Chemscore.Metal>
0.0000

> <Gold.Chemscore.Lipo>
102.4998

> <Gold.Chemscore.Internal_Hbond>
0.0000

> <Gold.Chemscore.DEClash>
0.0680

> <Gold.Chemscore.DEInternal>
2.7595

> <Gold.Chemscore.Rot>
1.2101

> <Gold.Chemscore.Internal.Correction>
   9.000000E+99

> <Gold.Chemscore.Hbonds>
donor molecule, donor type, donor heavy atom, donor atom, acceptor molecule, acceptor atom, score
      P1  H  7997  8009       L1    12  0.86

> <Gold.Chemscore.Hbond.Weighted>
-3.1931

> <Gold.Chemscore.Metal.Weighted>
-0.0000

> <Gold.Chemscore.Lipo.Weighted>
-11.9925

> <Gold.Chemscore.Internal_Hbond.Weighted>
0.0000

> <Gold.Chemscore.DEClash.Weighted>
0.0680

> <Gold.Chemscore.DEInternal.Weighted>
2.7595

> <Gold.Chemscore.Rot.Weighted>
3.0979

> <Gold.Chemscore.Internal.Correction.Weighted>
   9.000000E+99

> <Gold.Protein.RotatedTorsions>
[ 6907 6896 6895 6894 ] final   11.42 input  -60.11 | X-H torsion
[ 7974 7965 7964 7962 ] final   71.25 input  175.53 | X-H torsion
[ 8008 7997 7996 7995 ] final  121.67 input   59.86 | X-H torsion
[ 10167 10162 10161 10158 ] final -162.08 input  -65.29 | X-H torsion
[ 10718 10713 10712 10709 ] final   20.84 input   66.30 | X-H torsion
[ 10763 10752 10751 10750 ] final  -36.42 input  -60.55 | X-H torsion
[ 11005 11000 10999 10996 ] final -110.74 input  -57.11 | X-H torsion

> <Gold.Protein.ActiveResidues>
 VAL166  LYS551  ARG553  GLY616  TRP617  ASP618  TYR619  PRO620  LYS621  CYS622 
 ASP623  PHE694  ASN695  SER759  ASP760  ASP761  ALA762  ILE779  LEU786  VAL792 
 PHE793  MET794  SER795  GLU796  ALA797  LYS798  CYS799  TRP800  GLU811  SER814 

> <Gold.Protein.RotatedAtoms>
  151.7541  135.0826  160.0335 H   0  0  0  0  0  0  0  0  0  0  0  0  # atno 6907 bound_to 6896
  152.3397  133.6048  159.5876 H   0  0  0  0  0  0  0  0  0  0  0  0  # atno 6908 bound_to 6896
  150.7472  133.9657  159.3571 H   0  0  0  0  0  0  0  0  0  0  0  0  # atno 6909 bound_to 6896
  145.7682  139.2831  143.1336 H   0  0  0  0  0  0  0  0  0  0  0  0  # atno 7974 bound_to 7965
  156.2696  140.2803  156.1345 H   0  0  0  0  0  0  0  0  0  0  0  0  # atno 8008 bound_to 7997
  155.1019  140.0390  157.2717 H   0  0  0  0  0  0  0  0  0  0  0  0  # atno 8009 bound_to 7997
  154.6808  140.2608  155.6916 H   0  0  0  0  0  0  0  0  0  0  0  0  # atno 8010 bound_to 7997
  139.6418  144.0245  152.2097 H   0  0  0  0  0  0  0  0  0  0  0  0  # atno 10167 bound_to 10162
  157.1301  130.6587  149.5949 H   0  0  0  0  0  0  0  0  0  0  0  0  # atno 10718 bound_to 10713
  153.8795  135.6823  153.4768 H   0  0  0  0  0  0  0  0  0  0  0  0  # atno 10763 bound_to 10752
  153.1242  135.4726  154.9242 H   0  0  0  0  0  0  0  0  0  0  0  0  # atno 10764 bound_to 10752
  154.7675  135.3229  154.8207 H   0  0  0  0  0  0  0  0  0  0  0  0  # atno 10765 bound_to 10752
  141.0774  133.9277  157.2360 H   0  0  0  0  0  0  0  0  0  0  0  0  # atno 11005 bound_to 11000
  146.0196  140.8360  142.9930 LP  0  0  0  0  0  0  0  0  0  0  0  0  # atno 17320 bound_to 7965
  144.6817  140.2610  143.7319 LP  0  0  0  0  0  0  0  0  0  0  0  0  # atno 17321 bound_to 7965
  139.9937  144.6343  150.7791 LP  0  0  0  0  0  0  0  0  0  0  0  0  # atno 17342 bound_to 10162
  140.7495  143.2939  151.3257 LP  0  0  0  0  0  0  0  0  0  0  0  0  # atno 17343 bound_to 10162
  155.9810  130.4814  150.6803 LP  0  0  0  0  0  0  0  0  0  0  0  0  # atno 17370 bound_to 10713
  157.4400  131.0860  151.0953 LP  0  0  0  0  0  0  0  0  0  0  0  0  # atno 17371 bound_to 10713
  139.9587  135.0159  156.9200 LP  0  0  0  0  0  0  0  0  0  0  0  0  # atno 17394 bound_to 11000
  140.5543  134.0597  155.7379 LP  0  0  0  0  0  0  0  0  0  0  0  0  # atno 17395 bound_to 11000

$$$$
