AV-unprocessed.smi:1323|AV-procd|sdf|5467|dock6
  -GOLD-   22720 5 33D 1   1.00000     0.00000
 Structure written by MMmdl.
 45 46  0  0  0  0  0  0  0  0  1 V2000
  153.4115  140.7780  160.0865 C   0  0  0  0  0  0  0  0  0  0  0  0
  153.0941  142.2801  160.1293 C   0  0  2  0  0  0  0  0  0  0  0  0
  152.4827  142.6982  161.4816 C   0  0  0  0  0  0  0  0  0  0  0  0
  152.2311  144.2129  161.5412 C   0  0  0  0  0  0  0  0  0  0  0  0
  151.3484  144.6780  160.3734 C   0  0  0  0  0  0  0  0  0  0  0  0
  151.9436  144.2562  159.0189 C   0  0  0  0  0  0  0  0  0  0  0  0
  152.2009  142.7395  158.9517 C   0  0  2  0  0  0  0  0  0  0  0  0
  150.9370  142.0909  159.0148 O   0  0  0  0  0  0  0  0  0  0  0  0
  150.0099  142.4827  158.0149 C   0  0  0  0  0  0  0  0  0  0  0  0
  150.5142  141.9993  156.6476 C   0  0  0  0  0  0  0  0  0  0  0  0
  149.4538  142.0205  155.6445 N   0  0  0  0  0  0  0  0  0  0  0  0
  149.1039  140.9857  154.8646 C   0  0  0  0  0  0  0  0  0  0  0  0
  149.6411  139.8791  154.9306 O   0  0  0  0  0  0  0  0  0  0  0  0
  147.9540  141.2408  153.8800 C   0  0  0  0  0  0  0  0  0  0  0  0
  146.8181  141.9510  154.4913 N   0  0  0  0  0  0  0  0  0  0  0  0
  146.2721  143.0288  153.7657 C   0  0  0  0  0  0  0  0  0  0  0  0
  145.2458  143.7547  154.2364 C   0  0  0  0  0  0  0  0  0  0  0  0
  144.6991  143.4069  155.5266 C   0  0  0  0  0  0  0  0  0  0  0  0
  145.2130  142.3773  156.2285 C   0  0  0  0  0  0  0  0  0  0  0  0
  146.3309  141.5778  155.7147 C   0  0  0  0  0  0  0  0  0  0  0  0
  146.7979  140.6300  156.3460 O   0  0  0  0  0  0  0  0  0  0  0  0
  152.5112  140.1761  160.2088 H   0  0  0  0  0  0  0  0  0  0  0  0
  154.1020  140.5013  160.8835 H   0  0  0  0  0  0  0  0  0  0  0  0
  153.8735  140.5008  159.1389 H   0  0  0  0  0  0  0  0  0  0  0  0
  154.0479  142.8006  160.0311 H   0  0  0  0  0  0  0  0  0  0  0  0
  151.5438  142.1682  161.6439 H   0  0  0  0  0  0  0  0  0  0  0  0
  153.1439  142.4064  162.2981 H   0  0  0  0  0  0  0  0  0  0  0  0
  151.7598  144.4734  162.4892 H   0  0  0  0  0  0  0  0  0  0  0  0
  153.1837  144.7429  161.5131 H   0  0  0  0  0  0  0  0  0  0  0  0
  150.3483  144.2561  160.4825 H   0  0  0  0  0  0  0  0  0  0  0  0
  151.2300  145.7612  160.4059 H   0  0  0  0  0  0  0  0  0  0  0  0
  151.2765  144.5568  158.2103 H   0  0  0  0  0  0  0  0  0  0  0  0
  152.8814  144.7889  158.8565 H   0  0  0  0  0  0  0  0  0  0  0  0
  152.7013  142.5225  158.0058 H   0  0  0  0  0  0  0  0  0  0  0  0
  149.0400  142.0345  158.2342 H   0  0  0  0  0  0  0  0  0  0  0  0
  149.8714  143.5644  158.0035 H   0  0  0  0  0  0  0  0  0  0  0  0
  151.3728  142.5891  156.3226 H   0  0  0  0  0  0  0  0  0  0  0  0
  150.8630  140.9703  156.7347 H   0  0  0  0  0  0  0  0  0  0  0  0
  148.9552  142.8906  155.5278 H   0  0  0  0  0  0  0  0  0  0  0  0
  148.3481  141.8144  153.0399 H   0  0  0  0  0  0  0  0  0  0  0  0
  147.6262  140.2932  153.4480 H   0  0  0  0  0  0  0  0  0  0  0  0
  146.7445  143.2284  152.8146 H   0  0  0  0  0  0  0  0  0  0  0  0
  144.8433  144.5799  153.6675 H   0  0  0  0  0  0  0  0  0  0  0  0
  143.8758  143.9766  155.9320 H   0  0  0  0  0  0  0  0  0  0  0  0
  144.7931  142.1330  157.1933 H   0  0  0  0  0  0  0  0  0  0  0  0
  1  2  1  0  0  0  0
  1 22  1  0  0  0  0
  1 23  1  0  0  0  0
  1 24  1  0  0  0  0
  2  7  1  0  0  0  0
  2  3  1  0  0  0  0
  2 25  1  0  0  0  0
  3  4  1  0  0  0  0
  3 26  1  0  0  0  0
  3 27  1  0  0  0  0
  4  5  1  0  0  0  0
  4 28  1  0  0  0  0
  4 29  1  0  0  0  0
  5  6  1  0  0  0  0
  5 30  1  0  0  0  0
  5 31  1  0  0  0  0
  6  7  1  0  0  0  0
  6 32  1  0  0  0  0
  6 33  1  0  0  0  0
  7  8  1  0  0  0  0
  7 34  1  0  0  0  0
  8  9  1  0  0  0  0
  9 10  1  0  0  0  0
  9 35  1  0  0  0  0
  9 36  1  0  0  0  0
 10 11  1  0  0  0  0
 10 37  1  0  0  0  0
 10 38  1  0  0  0  0
 11 12  1  0  0  0  0
 11 39  1  0  0  0  0
 12 13  2  0  0  0  0
 12 14  1  0  0  0  0
 14 15  1  0  0  0  0
 14 40  1  0  0  0  0
 14 41  1  0  0  0  0
 15 20  1  0  0  0  0
 15 16  1  0  0  0  0
 16 17  2  0  0  0  0
 16 42  1  0  0  0  0
 17 18  1  0  0  0  0
 17 43  1  0  0  0  0
 18 19  2  0  0  0  0
 18 44  1  0  0  0  0
 19 20  1  0  0  0  0
 19 45  1  0  0  0  0
 20 21  2  0  0  0  0
M  END
> <s_m_source_file>
AV-unprocessed.smi

> <i_m_source_file_index>
1323

> <i_lp_mmshare_version>
43012

> <i_f3d_flags>
0

> <s_epik_input>
W0NIM11bQ0BASF0xW0NIMl1bQ0gyXVtDSDJdW0NIMl1bQ0BIXTFPW0NIMl1bQ0gyXVtOSF1DKD1PKVtDSDJdbjJbY0hdW2NIXVtjSF1bY0hdYzI9Tw==

> <s_epik_cmdline>
J2VwaWtfcHl0aG9uJywgJy1waCcsICc3LjAnLCAnLXRuJywgJzgnLCAnLW1hJywgJzIwMCcsICctbWV0YWxfYmluZGluZycsICctaW1hZScsICc8aW5maWxlLm1hZT4nLCAnLW9tYWUnLCAnPG91dGZpbGUubWFlPic=

> <r_lp_tautomer_probability>
1

> <r_epik_Ionization_Penalty>
4.02412e-07

> <r_epik_Ionization_Penalty_Charging>
3.74552e-07

> <r_epik_Ionization_Penalty_Neutral>
2.78599e-08

> <r_epik_State_Penalty>
-0

> <r_epik_Charging_Adjusted_Penalty>
3.74552e-07

> <i_epik_Tot_Q>
0

> <i_epik_Tot_abs_Q>
0

> <r_epik_Metal_State_Penalty>
-0

> <b_epik_Metal_Only>
0

> <s_lp_Force_Field>
OPLS_2005

> <r_lp_Energy>
19.1209

> <b_lp_Chiralities_Consistent>
1

> <s_lp_Variant>
AV-unprocessed.smi:1323-3

> <Gold.Version>
5.8.1

> <Gold.Id.Protein>
6NUR|6NUR_protein|mol2

> <Gold.PLP.Fitness>
54.2543

> <Gold.PLP.PLP>
-52.1224

> <Gold.PLP.part.hbond>
-1.0000

> <Gold.PLP.part.metal>
0.0000

> <Gold.PLP.part.buried>
-8.6010

> <Gold.PLP.part.nonpolar>
-43.7244

> <Gold.PLP.part.repulsive>
0.2622

> <Gold.PLP.ligand.clash>
0.0000

> <Gold.PLP.ligand.torsion>
0.4584

> <Gold.PLP.Chemscore.Hbond>
1.0000

> <Gold.PLP.Chemscore.CHOScore>
0.0000

> <Gold.PLP.Chemscore.Metal>
0.0000

> <Gold.Chemscore.Hbonds>
donor molecule, donor type, donor heavy atom, donor atom, acceptor molecule, acceptor atom, score
      L1  H    11    39       P1  8028  1.00

> <Gold.PLP.Chemscore.Internal.Correction>
0.0487

> <Gold.Rescore>
     Score         DG    S(hbond)    S(metal)    S(lipo)     H(rot)  DE(clash)    DE(int)     intcor
     16.08     -17.77       0.95        0.00     120.28       1.94       0.07       1.62       ----

> <Gold.Chemscore.Fitness>
16.0840

> <Gold.Chemscore.DG>
-17.7726

> <Gold.Chemscore.ZeroCoef>
-5.4800

> <Gold.Chemscore.Hbond>
0.9537

> <Gold.Chemscore.Metal>
0.0000

> <Gold.Chemscore.Lipo>
120.2828

> <Gold.Chemscore.Internal_Hbond>
0.0000

> <Gold.Chemscore.DEClash>
0.0676

> <Gold.Chemscore.DEInternal>
1.6209

> <Gold.Chemscore.Rot>
1.9398

> <Gold.Chemscore.Internal.Correction>
   9.000000E+99

> <Gold.Chemscore.Hbonds>
donor molecule, donor type, donor heavy atom, donor atom, acceptor molecule, acceptor atom, score
      L1  H    11    39       P1  8028  0.95

> <Gold.Chemscore.Hbond.Weighted>
-3.1854

> <Gold.Chemscore.Metal.Weighted>
-0.0000

> <Gold.Chemscore.Lipo.Weighted>
-14.0731

> <Gold.Chemscore.Internal_Hbond.Weighted>
0.0000

> <Gold.Chemscore.DEClash.Weighted>
0.0676

> <Gold.Chemscore.DEInternal.Weighted>
1.6209

> <Gold.Chemscore.Rot.Weighted>
4.9659

> <Gold.Chemscore.Internal.Correction.Weighted>
   9.000000E+99

> <Gold.Protein.RotatedTorsions>
[ 6907 6896 6895 6894 ] final   18.27 input  -60.11 | X-H torsion
[ 7974 7965 7964 7962 ] final  -67.83 input  175.53 | X-H torsion
[ 8008 7997 7996 7995 ] final -145.39 input   59.86 | X-H torsion
[ 10167 10162 10161 10158 ] final   -6.89 input  -65.29 | X-H torsion
[ 10718 10713 10712 10709 ] final -116.38 input   66.30 | X-H torsion
[ 10763 10752 10751 10750 ] final  -37.52 input  -60.55 | X-H torsion
[ 11005 11000 10999 10996 ] final  152.98 input  -57.11 | X-H torsion

> <Gold.Protein.ActiveResidues>
 VAL166  LYS551  ARG553  GLY616  TRP617  ASP618  TYR619  PRO620  LYS621  CYS622 
 ASP623  PHE694  ASN695  SER759  ASP760  ASP761  ALA762  ILE779  LEU786  VAL792 
 PHE793  MET794  SER795  GLU796  ALA797  LYS798  CYS799  TRP800  GLU811  SER814 

> <Gold.Protein.RotatedAtoms>
  151.8626  135.0518  160.0470 H   0  0  0  0  0  0  0  0  0  0  0  0  # atno 6907 bound_to 6896
  152.2651  133.5327  159.5413 H   0  0  0  0  0  0  0  0  0  0  0  0  # atno 6908 bound_to 6896
  150.7130  134.0692  159.3901 H   0  0  0  0  0  0  0  0  0  0  0  0  # atno 6909 bound_to 6896
  145.7241  140.9025  143.0614 H   0  0  0  0  0  0  0  0  0  0  0  0  # atno 7974 bound_to 7965
  155.5424  140.0609  157.2867 H   0  0  0  0  0  0  0  0  0  0  0  0  # atno 8008 bound_to 7997
  154.4448  140.1917  156.0648 H   0  0  0  0  0  0  0  0  0  0  0  0  # atno 8009 bound_to 7997
  156.0575  140.3276  155.7427 H   0  0  0  0  0  0  0  0  0  0  0  0  # atno 8010 bound_to 7997
  140.7012  143.6142  150.8674 H   0  0  0  0  0  0  0  0  0  0  0  0  # atno 10167 bound_to 10162
  156.0959  130.6132  150.9027 H   0  0  0  0  0  0  0  0  0  0  0  0  # atno 10718 bound_to 10713
  153.8976  135.6805  153.4757 H   0  0  0  0  0  0  0  0  0  0  0  0  # atno 10763 bound_to 10752
  153.1147  135.4767  154.9092 H   0  0  0  0  0  0  0  0  0  0  0  0  # atno 10764 bound_to 10752
  154.7591  135.3205  154.8366 H   0  0  0  0  0  0  0  0  0  0  0  0  # atno 10765 bound_to 10752
  140.1357  134.8772  157.2263 H   0  0  0  0  0  0  0  0  0  0  0  0  # atno 11005 bound_to 11000
  144.6909  139.9243  143.7469 LP  0  0  0  0  0  0  0  0  0  0  0  0  # atno 17320 bound_to 7965
  146.0598  139.3592  143.0588 LP  0  0  0  0  0  0  0  0  0  0  0  0  # atno 17321 bound_to 7965
  139.9864  143.5894  152.2925 LP  0  0  0  0  0  0  0  0  0  0  0  0  # atno 17342 bound_to 10162
  139.6534  144.7661  151.2103 LP  0  0  0  0  0  0  0  0  0  0  0  0  # atno 17343 bound_to 10162
  157.6120  131.0936  150.8778 LP  0  0  0  0  0  0  0  0  0  0  0  0  # atno 17370 bound_to 10713
  156.8916  130.5215  149.5286 LP  0  0  0  0  0  0  0  0  0  0  0  0  # atno 17371 bound_to 10713
  140.2786  134.3376  155.7350 LP  0  0  0  0  0  0  0  0  0  0  0  0  # atno 17394 bound_to 11000
  141.2178  133.7465  156.9330 LP  0  0  0  0  0  0  0  0  0  0  0  0  # atno 17395 bound_to 11000

$$$$
