AV-unprocessed.smi:2196|AV-procd|sdf|8908|dock9
  -GOLD-   2272012123D 1   1.00000     0.00000
 Structure written by MMmdl.
 45 46  0  0  0  0  0  0  0  0  1 V2000
  154.0299  137.4356  160.1462 C   0  0  0  0  0  0  0  0  0  0  0  0
  152.6997  138.1921  160.2561 C   0  0  0  0  0  0  0  0  0  0  0  0
  152.3962  138.9550  159.0483 N   0  0  0  0  0  0  0  0  0  0  0  0
  153.2525  140.1094  158.7745 C   0  0  0  0  0  0  0  0  0  0  0  0
  153.1582  141.2063  159.8207 C   0  0  0  0  0  0  0  0  0  0  0  0
  152.3525  142.3395  159.5838 C   0  0  0  0  0  0  0  0  0  0  0  0
  152.2393  143.3444  160.5641 C   0  0  0  0  0  0  0  0  0  0  0  0
  152.9302  143.2184  161.7847 C   0  0  0  0  0  0  0  0  0  0  0  0
  153.7343  142.0875  162.0251 C   0  0  0  0  0  0  0  0  0  0  0  0
  153.8484  141.0828  161.0449 C   0  0  0  0  0  0  0  0  0  0  0  0
  151.2853  138.6567  158.2585 C   0  0  0  0  0  0  0  0  0  0  0  0
  150.9854  139.3092  157.0969 C   0  0  0  0  0  0  0  0  0  0  0  0
  151.7827  140.3573  156.6645 N   0  0  0  0  0  0  0  0  0  0  0  0
  149.8871  138.9512  156.3098 N   0  0  0  0  0  0  0  0  0  0  0  0
  149.5504  139.6007  155.0591 C   0  0  0  0  0  0  0  0  0  0  0  0
  149.2466  141.0952  155.2383 C   0  0  0  0  0  0  0  0  0  0  0  0
  147.8689  141.2493  155.5321 O   0  0  0  0  0  0  0  0  0  0  0  0
  147.0618  141.2315  154.3679 C   0  0  0  0  0  0  0  0  0  0  0  0
  149.0712  137.8584  156.6865 C   0  0  0  0  0  0  0  0  0  0  0  0
  148.1170  137.4585  156.0185 O   0  0  0  0  0  0  0  0  0  0  0  0
  149.3873  137.2146  157.8768 N   0  0  0  0  0  0  0  0  0  0  0  0
  150.4504  137.5382  158.7157 C   0  0  0  0  0  0  0  0  0  0  0  0
  150.6272  136.8825  159.7420 O   0  0  0  0  0  0  0  0  0  0  0  0
  148.8030  136.4386  158.1513 H   0  0  0  0  0  0  0  0  0  0  0  0
  154.2440  136.8956  161.0686 H   0  0  0  0  0  0  0  0  0  0  0  0
  154.8572  138.1218  159.9636 H   0  0  0  0  0  0  0  0  0  0  0  0
  154.0117  136.7075  159.3349 H   0  0  0  0  0  0  0  0  0  0  0  0
  151.8855  137.4947  160.4569 H   0  0  0  0  0  0  0  0  0  0  0  0
  152.7422  138.8614  161.1165 H   0  0  0  0  0  0  0  0  0  0  0  0
  154.2866  139.7790  158.6763 H   0  0  0  0  0  0  0  0  0  0  0  0
  152.9906  140.5497  157.8113 H   0  0  0  0  0  0  0  0  0  0  0  0
  151.8124  142.4345  158.6531 H   0  0  0  0  0  0  0  0  0  0  0  0
  151.6190  144.2094  160.3812 H   0  0  0  0  0  0  0  0  0  0  0  0
  152.8412  143.9878  162.5373 H   0  0  0  0  0  0  0  0  0  0  0  0
  154.2611  141.9890  162.9626 H   0  0  0  0  0  0  0  0  0  0  0  0
  154.4587  140.2131  161.2395 H   0  0  0  0  0  0  0  0  0  0  0  0
  152.5907  140.6573  157.1905 H   0  0  0  0  0  0  0  0  0  0  0  0
  151.5488  140.9049  155.8488 H   0  0  0  0  0  0  0  0  0  0  0  0
  150.3642  139.4284  154.3525 H   0  0  0  0  0  0  0  0  0  0  0  0
  148.6970  139.0675  154.6415 H   0  0  0  0  0  0  0  0  0  0  0  0
  149.8489  141.5061  156.0504 H   0  0  0  0  0  0  0  0  0  0  0  0
  149.4984  141.6458  154.3304 H   0  0  0  0  0  0  0  0  0  0  0  0
  146.0148  141.3524  154.6458 H   0  0  0  0  0  0  0  0  0  0  0  0
  147.1609  140.2857  153.8337 H   0  0  0  0  0  0  0  0  0  0  0  0
  147.3270  142.0454  153.6918 H   0  0  0  0  0  0  0  0  0  0  0  0
  1  2  1  0  0  0  0
  1 25  1  0  0  0  0
  1 26  1  0  0  0  0
  1 27  1  0  0  0  0
  2  3  1  0  0  0  0
  2 28  1  0  0  0  0
  2 29  1  0  0  0  0
  3  4  1  0  0  0  0
  3 11  1  0  0  0  0
  4  5  1  0  0  0  0
  4 30  1  0  0  0  0
  4 31  1  0  0  0  0
  5 10  1  0  0  0  0
  5  6  2  0  0  0  0
  6  7  1  0  0  0  0
  6 32  1  0  0  0  0
  7  8  2  0  0  0  0
  7 33  1  0  0  0  0
  8  9  1  0  0  0  0
  8 34  1  0  0  0  0
  9 10  2  0  0  0  0
  9 35  1  0  0  0  0
 10 36  1  0  0  0  0
 11 22  1  0  0  0  0
 11 12  2  0  0  0  0
 12 13  1  0  0  0  0
 12 14  1  0  0  0  0
 13 37  1  0  0  0  0
 13 38  1  0  0  0  0
 14 15  1  0  0  0  0
 14 19  1  0  0  0  0
 15 16  1  0  0  0  0
 15 39  1  0  0  0  0
 15 40  1  0  0  0  0
 16 17  1  0  0  0  0
 16 41  1  0  0  0  0
 16 42  1  0  0  0  0
 17 18  1  0  0  0  0
 18 43  1  0  0  0  0
 18 44  1  0  0  0  0
 18 45  1  0  0  0  0
 19 20  2  0  0  0  0
 19 21  1  0  0  0  0
 21 24  1  0  0  0  0
 21 22  1  0  0  0  0
 22 23  2  0  0  0  0
M  END
> <s_m_source_file>
AV-unprocessed.smi

> <i_m_source_file_index>
2196

> <i_lp_mmshare_version>
43012

> <i_f3d_flags>
0

> <s_epik_input>
W0NIM11PW0NIMl1bQ0gyXW4oYyg9TylbbkhdYzE9TyljKFtOSDJdKWMxTihbQ0gyXVtDSDNdKVtDSDJdYzJbY0hdW2NIXVtjSF1bY0hdW2NIXTI=

> <s_epik_cmdline>
J2VwaWtfcHl0aG9uJywgJy1waCcsICc3LjAnLCAnLXRuJywgJzgnLCAnLW1hJywgJzIwMCcsICctbWV0YWxfYmluZGluZycsICctaW1hZScsICc8aW5maWxlLm1hZT4nLCAnLW9tYWUnLCAnPG91dGZpbGUubWFlPic=

> <r_lp_tautomer_probability>
1

> <r_epik_Ionization_Penalty>
0.000571321

> <r_epik_Ionization_Penalty_Charging>
3.00664e-06

> <r_epik_Ionization_Penalty_Neutral>
0.000568314

> <r_epik_State_Penalty>
-0

> <r_epik_Charging_Adjusted_Penalty>
3.00664e-06

> <i_epik_Tot_Q>
0

> <i_epik_Tot_abs_Q>
0

> <r_epik_Metal_State_Penalty>
-0

> <b_epik_Metal_Only>
0

> <s_lp_Force_Field>
OPLS_2005

> <r_lp_Energy>
20.6449

> <b_lp_Chiralities_Consistent>
1

> <s_lp_Variant>
AV-unprocessed.smi:2196-1

> <Gold.Version>
5.8.1

> <Gold.Id.Protein>
6NUR|6NUR_protein|mol2

> <Gold.PLP.Fitness>
41.6300

> <Gold.PLP.PLP>
-39.9105

> <Gold.PLP.part.hbond>
-1.0000

> <Gold.PLP.part.metal>
0.0000

> <Gold.PLP.part.buried>
-1.7162

> <Gold.PLP.part.nonpolar>
-35.8573

> <Gold.PLP.part.repulsive>
0.3628

> <Gold.PLP.ligand.clash>
21.4381

> <Gold.PLP.ligand.torsion>
0.6636

> <Gold.PLP.Chemscore.Hbond>
1.0000

> <Gold.PLP.Chemscore.CHOScore>
0.0000

> <Gold.PLP.Chemscore.Metal>
0.0000

> <Gold.Chemscore.Hbonds>
donor molecule, donor type, donor heavy atom, donor atom, acceptor molecule, acceptor atom, score
      P1  H  6896  6907       L1    23  1.00

> <Gold.PLP.Chemscore.Internal.Correction>
21.4847

> <Gold.Rescore>
     Score         DG    S(hbond)    S(metal)    S(lipo)     H(rot)  DE(clash)    DE(int)     intcor
     11.77     -16.05       1.00        0.00     106.82       2.06       0.40       3.89       ----

> <Gold.Chemscore.Fitness>
11.7698

> <Gold.Chemscore.DG>
-16.0517

> <Gold.Chemscore.ZeroCoef>
-5.4800

> <Gold.Chemscore.Hbond>
0.9999

> <Gold.Chemscore.Metal>
0.0000

> <Gold.Chemscore.Lipo>
106.8215

> <Gold.Chemscore.Internal_Hbond>
0.0000

> <Gold.Chemscore.DEClash>
0.3951

> <Gold.Chemscore.DEInternal>
3.8868

> <Gold.Chemscore.Rot>
2.0571

> <Gold.Chemscore.Internal.Correction>
   9.000000E+99

> <Gold.Chemscore.Hbonds>
donor molecule, donor type, donor heavy atom, donor atom, acceptor molecule, acceptor atom, score
      P1  H  6896  6907       L1    23  1.00

> <Gold.Chemscore.Hbond.Weighted>
-3.3397

> <Gold.Chemscore.Metal.Weighted>
-0.0000

> <Gold.Chemscore.Lipo.Weighted>
-12.4981

> <Gold.Chemscore.Internal_Hbond.Weighted>
0.0000

> <Gold.Chemscore.DEClash.Weighted>
0.3951

> <Gold.Chemscore.DEInternal.Weighted>
3.8868

> <Gold.Chemscore.Rot.Weighted>
5.2661

> <Gold.Chemscore.Internal.Correction.Weighted>
   9.000000E+99

> <Gold.Protein.RotatedTorsions>
[ 6907 6896 6895 6894 ] final  -23.35 input  -60.11 | X-H torsion
[ 7974 7965 7964 7962 ] final  150.31 input  175.53 | X-H torsion
[ 8008 7997 7996 7995 ] final  124.47 input   59.86 | X-H torsion
[ 10167 10162 10161 10158 ] final -169.80 input  -65.29 | X-H torsion
[ 10718 10713 10712 10709 ] final -110.69 input   66.30 | X-H torsion
[ 10763 10752 10751 10750 ] final  -58.45 input  -60.55 | X-H torsion
[ 11005 11000 10999 10996 ] final  157.44 input  -57.11 | X-H torsion

> <Gold.Protein.ActiveResidues>
 VAL166  LYS551  ARG553  GLY616  TRP617  ASP618  TYR619  PRO620  LYS621  CYS622 
 ASP623  PHE694  ASN695  SER759  ASP760  ASP761  ALA762  ILE779  LEU786  VAL792 
 PHE793  MET794  SER795  GLU796  ALA797  LYS798  CYS799  TRP800  GLU811  SER814 

> <Gold.Protein.RotatedAtoms>
  151.2053  135.0459  159.8888 H   0  0  0  0  0  0  0  0  0  0  0  0  # atno 6907 bound_to 6896
  152.5429  134.0805  159.8243 H   0  0  0  0  0  0  0  0  0  0  0  0  # atno 6908 bound_to 6896
  151.0951  133.5239  159.2645 H   0  0  0  0  0  0  0  0  0  0  0  0  # atno 6909 bound_to 6896
  144.8374  139.6392  143.6032 H   0  0  0  0  0  0  0  0  0  0  0  0  # atno 7974 bound_to 7965
  156.2802  140.2739  156.1793 H   0  0  0  0  0  0  0  0  0  0  0  0  # atno 8008 bound_to 7997
  155.0573  140.0386  157.2582 H   0  0  0  0  0  0  0  0  0  0  0  0  # atno 8009 bound_to 7997
  154.7146  140.2675  155.6603 H   0  0  0  0  0  0  0  0  0  0  0  0  # atno 8010 bound_to 7997
  139.5901  144.1233  152.1623 H   0  0  0  0  0  0  0  0  0  0  0  0  # atno 10167 bound_to 10162
  156.0605  130.5828  150.8272 H   0  0  0  0  0  0  0  0  0  0  0  0  # atno 10718 bound_to 10713
  154.2383  135.6348  153.5198 H   0  0  0  0  0  0  0  0  0  0  0  0  # atno 10763 bound_to 10752
  152.9935  135.5536  154.5938 H   0  0  0  0  0  0  0  0  0  0  0  0  # atno 10764 bound_to 10752
  154.5437  135.2896  155.1046 H   0  0  0  0  0  0  0  0  0  0  0  0  # atno 10765 bound_to 10752
  140.1769  134.8503  157.2757 H   0  0  0  0  0  0  0  0  0  0  0  0  # atno 11005 bound_to 11000
  146.2671  139.6545  142.9322 LP  0  0  0  0  0  0  0  0  0  0  0  0  # atno 17320 bound_to 7965
  145.4767  141.0437  143.2669 LP  0  0  0  0  0  0  0  0  0  0  0  0  # atno 17321 bound_to 7965
  140.0805  144.5704  150.7125 LP  0  0  0  0  0  0  0  0  0  0  0  0  # atno 17342 bound_to 10162
  140.7165  143.2549  151.4417 LP  0  0  0  0  0  0  0  0  0  0  0  0  # atno 17343 bound_to 10162
  157.5610  131.0946  150.9560 LP  0  0  0  0  0  0  0  0  0  0  0  0  # atno 17370 bound_to 10713
  156.9797  130.5522  149.5295 LP  0  0  0  0  0  0  0  0  0  0  0  0  # atno 17371 bound_to 10713
  140.2312  134.3907  155.7521 LP  0  0  0  0  0  0  0  0  0  0  0  0  # atno 17394 bound_to 11000
  141.2221  133.7216  156.8643 LP  0  0  0  0  0  0  0  0  0  0  0  0  # atno 17395 bound_to 11000

$$$$
