AV-unprocessed.smi:2539|AV-procd|sdf|9985|dock3
  -GOLD-   2272014 33D 1   1.00000     0.00000
 Structure written by MMmdl.
 40 41  0  0  0  0  0  0  0  0  1 V2000
  154.8494  138.9353  158.9738 O   0  0  0  0  0  0  0  0  0  0  0  0
  155.2665  139.3655  160.0500 C   0  0  0  0  0  0  0  0  0  0  0  0
  155.0489  140.6311  160.4498 N   0  0  0  0  0  0  0  0  0  0  0  0
  154.2270  141.6167  159.7519 C   0  0  0  0  0  0  0  0  0  0  0  0
  153.4604  142.5274  160.7318 C   0  0  0  0  0  0  0  0  0  0  0  0
  152.6760  143.6341  160.0476 C   0  0  0  0  0  0  0  0  0  0  0  0
  152.0093  144.6253  160.7981 C   0  0  0  0  0  0  0  0  0  0  0  0
  151.2681  145.6086  160.1155 C   0  0  0  0  0  0  0  0  0  0  0  0
  151.2269  145.5606  158.7079 C   0  0  0  0  0  0  0  0  0  0  0  0
  151.8656  144.6205  157.9787 N   0  0  0  0  0  0  0  0  0  0  0  0
  152.5730  143.6801  158.6409 C   0  0  0  0  0  0  0  0  0  0  0  0
  155.9182  138.5923  160.9543 N   0  0  0  0  0  0  0  0  0  0  0  0
  156.4860  139.0370  162.2359 C   0  0  0  0  0  0  0  0  0  0  0  0
  155.5618  138.5613  163.3731 C   0  0  0  0  0  0  0  0  0  0  0  0
  155.3303  137.0274  163.3399 C   0  0  0  0  0  0  0  0  0  0  0  0
  156.5409  136.4018  163.7282 O   0  0  0  0  0  0  0  0  0  0  0  0
  154.2478  136.5944  164.3576 C   0  0  0  0  0  0  0  0  0  0  0  0
  154.2269  135.2660  164.4687 F   0  0  0  0  0  0  0  0  0  0  0  0
  154.5035  137.1079  165.5618 F   0  0  0  0  0  0  0  0  0  0  0  0
  153.0395  136.9956  163.9599 F   0  0  0  0  0  0  0  0  0  0  0  0
  154.9931  136.5446  161.9039 C   0  0  0  0  0  0  0  0  0  0  0  0
  155.9505  137.1306  160.8467 C   0  0  0  0  0  0  0  0  0  0  0  0
  155.4218  140.9077  161.3461 H   0  0  0  0  0  0  0  0  0  0  0  0
  154.8812  142.2236  159.1259 H   0  0  0  0  0  0  0  0  0  0  0  0
  153.5292  141.1246  159.0722 H   0  0  0  0  0  0  0  0  0  0  0  0
  152.7758  141.9261  161.3316 H   0  0  0  0  0  0  0  0  0  0  0  0
  154.1603  142.9795  161.4353 H   0  0  0  0  0  0  0  0  0  0  0  0
  152.0532  144.6272  161.8772 H   0  0  0  0  0  0  0  0  0  0  0  0
  150.7412  146.3800  160.6570 H   0  0  0  0  0  0  0  0  0  0  0  0
  150.6668  146.2981  158.1523 H   0  0  0  0  0  0  0  0  0  0  0  0
  153.0624  142.9353  158.0305 H   0  0  0  0  0  0  0  0  0  0  0  0
  157.4809  138.6062  162.3566 H   0  0  0  0  0  0  0  0  0  0  0  0
  156.6363  140.1149  162.2973 H   0  0  0  0  0  0  0  0  0  0  0  0
  155.9738  138.8628  164.3368 H   0  0  0  0  0  0  0  0  0  0  0  0
  154.6050  139.0764  163.2792 H   0  0  0  0  0  0  0  0  0  0  0  0
  156.3511  135.7910  164.4241 H   0  0  0  0  0  0  0  0  0  0  0  0
  155.0070  135.4553  161.8538 H   0  0  0  0  0  0  0  0  0  0  0  0
  153.9751  136.8440  161.6503 H   0  0  0  0  0  0  0  0  0  0  0  0
  155.6701  136.7732  159.8549 H   0  0  0  0  0  0  0  0  0  0  0  0
  156.9676  136.7719  161.0109 H   0  0  0  0  0  0  0  0  0  0  0  0
  1  2  2  0  0  0  0
  2  3  1  0  0  0  0
  2 12  1  0  0  0  0
  3  4  1  0  0  0  0
  3 23  1  0  0  0  0
  4  5  1  0  0  0  0
  4 24  1  0  0  0  0
  4 25  1  0  0  0  0
  5  6  1  0  0  0  0
  5 26  1  0  0  0  0
  5 27  1  0  0  0  0
  6 11  1  0  0  0  0
  6  7  2  0  0  0  0
  7  8  1  0  0  0  0
  7 28  1  0  0  0  0
  8  9  2  0  0  0  0
  8 29  1  0  0  0  0
  9 10  1  0  0  0  0
  9 30  1  0  0  0  0
 10 11  2  0  0  0  0
 11 31  1  0  0  0  0
 12 22  1  0  0  0  0
 12 13  1  0  0  0  0
 13 14  1  0  0  0  0
 13 32  1  0  0  0  0
 13 33  1  0  0  0  0
 14 15  1  0  0  0  0
 14 34  1  0  0  0  0
 14 35  1  0  0  0  0
 15 16  1  0  0  0  0
 15 17  1  0  0  0  0
 15 21  1  0  0  0  0
 16 36  1  0  0  0  0
 17 18  1  0  0  0  0
 17 19  1  0  0  0  0
 17 20  1  0  0  0  0
 21 22  1  0  0  0  0
 21 37  1  0  0  0  0
 21 38  1  0  0  0  0
 22 39  1  0  0  0  0
 22 40  1  0  0  0  0
M  END
> <s_m_source_file>
AV-unprocessed.smi

> <i_m_source_file_index>
2539

> <i_lp_mmshare_version>
43012

> <i_f3d_flags>
0

> <s_epik_input>
RkMoRikoRilDMShbT0hdKVtDSDJdW0NIMl1OKFtDSDJdW0NIMl0xKUMoPU8pW05IXVtDSDJdW0NIMl1jMltjSF1bY0hdW2NIXW5bY0hdMg==

> <s_epik_cmdline>
J2VwaWtfcHl0aG9uJywgJy1waCcsICc3LjAnLCAnLXRuJywgJzgnLCAnLW1hJywgJzIwMCcsICctbWV0YWxfYmluZGluZycsICctaW1hZScsICc8aW5maWxlLm1hZT4nLCAnLW9tYWUnLCAnPG91dGZpbGUubWFlPic=

> <r_epik_Ionization_Penalty>
0.0144431

> <r_epik_Ionization_Penalty_Charging>
0

> <r_epik_Ionization_Penalty_Neutral>
0.0144431

> <r_epik_State_Penalty>
0.0112443

> <r_epik_Charging_Adjusted_Penalty>
0.0112443

> <i_epik_Tot_Q>
0

> <i_epik_Tot_abs_Q>
0

> <r_epik_Metal_State_Penalty>
0.0109773

> <b_epik_Metal_Only>
0

> <s_lp_Force_Field>
OPLS_2005

> <r_lp_Energy>
34.3491

> <b_lp_Chiralities_Consistent>
1

> <s_lp_Variant>
AV-unprocessed.smi:2539-1

> <Gold.Version>
5.8.1

> <Gold.Id.Protein>
6NUR|6NUR_protein|mol2

> <Gold.PLP.Fitness>
43.5657

> <Gold.PLP.PLP>
-38.3218

> <Gold.PLP.part.hbond>
-1.4461

> <Gold.PLP.part.metal>
0.0000

> <Gold.PLP.part.buried>
-2.0870

> <Gold.PLP.part.nonpolar>
-35.2626

> <Gold.PLP.part.repulsive>
0.1720

> <Gold.PLP.ligand.clash>
0.0000

> <Gold.PLP.ligand.torsion>
0.4031

> <Gold.PLP.Chemscore.Hbond>
1.0000

> <Gold.PLP.Chemscore.CHOScore>
1.0000

> <Gold.PLP.Chemscore.Metal>
0.0000

> <Gold.Chemscore.Hbonds>
donor molecule, donor type, donor heavy atom, donor atom, acceptor molecule, acceptor atom, score
      P1  H  7997  8008       L1     1  1.00
      L1  C     9    30       P1  8029  0.09

> <Gold.PLP.Chemscore.Internal.Correction>
0.0503

> <Gold.Rescore>
     Score         DG    S(hbond)    S(metal)    S(lipo)     H(rot)  DE(clash)    DE(int)     intcor
     15.13     -15.87       0.98        0.00     103.86       1.97       0.36       0.38       ----

> <Gold.Chemscore.Fitness>
15.1267

> <Gold.Chemscore.DG>
-15.8670

> <Gold.Chemscore.ZeroCoef>
-5.4800

> <Gold.Chemscore.Hbond>
0.9844

> <Gold.Chemscore.Metal>
0.0000

> <Gold.Chemscore.Lipo>
103.8623

> <Gold.Chemscore.Internal_Hbond>
0.0000

> <Gold.Chemscore.DEClash>
0.3591

> <Gold.Chemscore.DEInternal>
0.3812

> <Gold.Chemscore.Rot>
1.9737

> <Gold.Chemscore.Internal.Correction>
   9.000000E+99

> <Gold.Chemscore.Hbonds>
donor molecule, donor type, donor heavy atom, donor atom, acceptor molecule, acceptor atom, score
      P1  H  7997  8008       L1     1  0.96

> <Gold.Chemscore.Hbond.Weighted>
-3.2879

> <Gold.Chemscore.Metal.Weighted>
-0.0000

> <Gold.Chemscore.Lipo.Weighted>
-12.1519

> <Gold.Chemscore.Internal_Hbond.Weighted>
0.0000

> <Gold.Chemscore.DEClash.Weighted>
0.3591

> <Gold.Chemscore.DEInternal.Weighted>
0.3812

> <Gold.Chemscore.Rot.Weighted>
5.0528

> <Gold.Chemscore.Internal.Correction.Weighted>
   9.000000E+99

> <Gold.Protein.RotatedTorsions>
[ 6907 6896 6895 6894 ] final   13.48 input  -60.11 | X-H torsion
[ 7974 7965 7964 7962 ] final  -95.74 input  175.53 | X-H torsion
[ 8008 7997 7996 7995 ] final -114.29 input   59.86 | X-H torsion
[ 10167 10162 10161 10158 ] final   81.56 input  -65.29 | X-H torsion
[ 10718 10713 10712 10709 ] final  -77.20 input   66.30 | X-H torsion
[ 10763 10752 10751 10750 ] final   85.99 input  -60.55 | X-H torsion
[ 11005 11000 10999 10996 ] final  127.96 input  -57.11 | X-H torsion

> <Gold.Protein.ActiveResidues>
 VAL166  LYS551  ARG553  GLY616  TRP617  ASP618  TYR619  PRO620  LYS621  CYS622 
 ASP623  PHE694  ASN695  SER759  ASP760  ASP761  ALA762  ILE779  LEU786  VAL792 
 PHE793  MET794  SER795  GLU796  ALA797  LYS798  CYS799  TRP800  GLU811  SER814 

> <Gold.Protein.RotatedAtoms>
  151.7870  135.0746  160.0381 H   0  0  0  0  0  0  0  0  0  0  0  0  # atno 6907 bound_to 6896
  152.3183  133.5822  159.5735 H   0  0  0  0  0  0  0  0  0  0  0  0  # atno 6908 bound_to 6896
  150.7356  133.9965  159.3666 H   0  0  0  0  0  0  0  0  0  0  0  0  # atno 6909 bound_to 6896
  145.3561  140.9484  143.2527 H   0  0  0  0  0  0  0  0  0  0  0  0  # atno 7974 bound_to 7965
  155.0341  140.0393  157.2485 H   0  0  0  0  0  0  0  0  0  0  0  0  # atno 8008 bound_to 7997
  154.7272  140.2723  155.6465 H   0  0  0  0  0  0  0  0  0  0  0  0  # atno 8009 bound_to 7997
  156.2832  140.2691  156.1961 H   0  0  0  0  0  0  0  0  0  0  0  0  # atno 8010 bound_to 7997
  139.9379  144.6109  150.8280 H   0  0  0  0  0  0  0  0  0  0  0  0  # atno 10167 bound_to 10162
  156.0152  130.4485  150.3308 H   0  0  0  0  0  0  0  0  0  0  0  0  # atno 10718 bound_to 10713
  153.1528  135.4597  154.9661 H   0  0  0  0  0  0  0  0  0  0  0  0  # atno 10763 bound_to 10752
  154.7838  135.3197  154.7934 H   0  0  0  0  0  0  0  0  0  0  0  0  # atno 10764 bound_to 10752
  153.8437  135.6928  153.4854 H   0  0  0  0  0  0  0  0  0  0  0  0  # atno 10765 bound_to 10752
  139.9535  134.9617  156.8931 H   0  0  0  0  0  0  0  0  0  0  0  0  # atno 11005 bound_to 11000
  144.8681  139.5078  143.6780 LP  0  0  0  0  0  0  0  0  0  0  0  0  # atno 17320 bound_to 7965
  146.2947  139.7243  142.9135 LP  0  0  0  0  0  0  0  0  0  0  0  0  # atno 17321 bound_to 7965
  140.7619  143.3185  151.2676 LP  0  0  0  0  0  0  0  0  0  0  0  0  # atno 17342 bound_to 10162
  139.6728  143.9990  152.2763 LP  0  0  0  0  0  0  0  0  0  0  0  0  # atno 17343 bound_to 10162
  157.1407  131.0295  151.2929 LP  0  0  0  0  0  0  0  0  0  0  0  0  # atno 17370 bound_to 10713
  157.4474  130.7579  149.7122 LP  0  0  0  0  0  0  0  0  0  0  0  0  # atno 17371 bound_to 10713
  140.5664  134.0485  155.7415 LP  0  0  0  0  0  0  0  0  0  0  0  0  # atno 17394 bound_to 11000
  141.1202  133.9474  157.2744 LP  0  0  0  0  0  0  0  0  0  0  0  0  # atno 17395 bound_to 11000

$$$$
