AV-unprocessed.smi:2104|AV-procd|sdf|8584|dock8
  -GOLD-   2272011313D 1   1.00000     0.00000
 Structure written by MMmdl.
 43 44  0  0  0  0  0  0  0  0  1 V2000
  144.1115  143.9203  162.4557 C   0  0  0  0  0  0  0  0  0  0  0  0
  144.9980  143.3761  161.3887 C   0  0  0  0  0  0  0  0  0  0  0  0
  145.9870  143.9323  160.6269 C   0  0  0  0  0  0  0  0  0  0  0  0
  146.4112  142.8486  159.8127 C   0  0  0  0  0  0  0  0  0  0  0  0
  147.4533  143.0143  158.8651 N   0  0  0  0  0  0  0  0  0  0  0  0
  147.9980  142.0721  158.0772 C   0  0  0  0  0  0  0  0  0  0  0  0
  147.6104  140.9060  157.9970 O   0  0  0  0  0  0  0  0  0  0  0  0
  149.0412  142.5574  157.3878 N   0  0  0  0  0  0  0  0  0  0  0  0
  149.9175  141.7685  156.5275 C   0  0  0  0  0  0  0  0  0  0  0  0
  151.2894  141.5505  157.1834 C   0  0  0  0  0  0  0  0  0  0  0  0
  151.3771  142.3689  158.3393 O   0  0  0  0  0  0  0  0  0  0  0  0
  152.5833  143.1095  158.4734 C   0  0  1  0  0  0  0  0  0  0  0  0
  152.4075  144.5342  157.9028 C   0  0  0  0  0  0  0  0  0  0  0  0
  151.3639  145.3418  158.6933 C   0  0  0  0  0  0  0  0  0  0  0  0
  151.7091  145.3864  160.1893 C   0  0  0  0  0  0  0  0  0  0  0  0
  151.8902  143.9729  160.7651 C   0  0  0  0  0  0  0  0  0  0  0  0
  152.9432  143.1686  159.9749 C   0  0  1  0  0  0  0  0  0  0  0  0
  153.1581  141.7692  160.5720 C   0  0  0  0  0  0  0  0  0  0  0  0
  145.7442  141.7312  160.0580 N   0  0  0  0  0  0  0  0  0  0  0  0
  144.8343  142.0638  161.0685 O   0  0  0  0  0  0  0  0  0  0  0  0
  144.2626  144.9929  162.5785 H   0  0  0  0  0  0  0  0  0  0  0  0
  144.3176  143.4381  163.4112 H   0  0  0  0  0  0  0  0  0  0  0  0
  143.0627  143.7528  162.2101 H   0  0  0  0  0  0  0  0  0  0  0  0
  146.3467  144.9502  160.6510 H   0  0  0  0  0  0  0  0  0  0  0  0
  147.8547  143.9386  158.8122 H   0  0  0  0  0  0  0  0  0  0  0  0
  149.2805  143.5307  157.5084 H   0  0  0  0  0  0  0  0  0  0  0  0
  149.4568  140.8143  156.2669 H   0  0  0  0  0  0  0  0  0  0  0  0
  150.0445  142.3158  155.5932 H   0  0  0  0  0  0  0  0  0  0  0  0
  151.4034  140.5060  157.4757 H   0  0  0  0  0  0  0  0  0  0  0  0
  152.0807  141.7756  156.4684 H   0  0  0  0  0  0  0  0  0  0  0  0
  153.3876  142.5980  157.9412 H   0  0  0  0  0  0  0  0  0  0  0  0
  153.3652  145.0545  157.9432 H   0  0  0  0  0  0  0  0  0  0  0  0
  152.1309  144.5037  156.8495 H   0  0  0  0  0  0  0  0  0  0  0  0
  151.3003  146.3556  158.2972 H   0  0  0  0  0  0  0  0  0  0  0  0
  150.3770  144.8987  158.5598 H   0  0  0  0  0  0  0  0  0  0  0  0
  152.6255  145.9595  160.3348 H   0  0  0  0  0  0  0  0  0  0  0  0
  150.9250  145.9121  160.7353 H   0  0  0  0  0  0  0  0  0  0  0  0
  152.1837  144.0427  161.8130 H   0  0  0  0  0  0  0  0  0  0  0  0
  150.9334  143.4487  160.7498 H   0  0  0  0  0  0  0  0  0  0  0  0
  153.8930  143.6983  160.0623 H   0  0  0  0  0  0  0  0  0  0  0  0
  152.2406  141.1804  160.5486 H   0  0  0  0  0  0  0  0  0  0  0  0
  153.4837  141.8324  161.6106 H   0  0  0  0  0  0  0  0  0  0  0  0
  153.9209  141.2198  160.0197 H   0  0  0  0  0  0  0  0  0  0  0  0
  1  2  1  0  0  0  0
  1 21  1  0  0  0  0
  1 22  1  0  0  0  0
  1 23  1  0  0  0  0
  2 20  1  0  0  0  0
  2  3  2  0  0  0  0
  3  4  1  0  0  0  0
  3 24  1  0  0  0  0
  4  5  1  0  0  0  0
  4 19  2  0  0  0  0
  5  6  1  0  0  0  0
  5 25  1  0  0  0  0
  6  7  2  0  0  0  0
  6  8  1  0  0  0  0
  8  9  1  0  0  0  0
  8 26  1  0  0  0  0
  9 10  1  0  0  0  0
  9 27  1  0  0  0  0
  9 28  1  0  0  0  0
 10 11  1  0  0  0  0
 10 29  1  0  0  0  0
 10 30  1  0  0  0  0
 11 12  1  0  0  0  0
 12 17  1  0  0  0  0
 12 13  1  0  0  0  0
 12 31  1  0  0  0  0
 13 14  1  0  0  0  0
 13 32  1  0  0  0  0
 13 33  1  0  0  0  0
 14 15  1  0  0  0  0
 14 34  1  0  0  0  0
 14 35  1  0  0  0  0
 15 16  1  0  0  0  0
 15 36  1  0  0  0  0
 15 37  1  0  0  0  0
 16 17  1  0  0  0  0
 16 38  1  0  0  0  0
 16 39  1  0  0  0  0
 17 18  1  0  0  0  0
 17 40  1  0  0  0  0
 18 41  1  0  0  0  0
 18 42  1  0  0  0  0
 18 43  1  0  0  0  0
 19 20  1  0  0  0  0
M  END
> <s_m_source_file>
AV-unprocessed.smi

> <i_m_source_file_index>
2104

> <i_lp_mmshare_version>
43012

> <i_f3d_flags>
0

> <s_epik_input>
W0NIM11jMVtjSF1jKG5vMSlbTkhdQyg9TylbTkhdW0NIMl1bQ0gyXU9bQ0BASF0yW0NIMl1bQ0gyXVtDSDJdW0NIMl1bQ0BIXTJbQ0gzXQ==

> <s_epik_cmdline>
J2VwaWtfcHl0aG9uJywgJy1waCcsICc3LjAnLCAnLXRuJywgJzgnLCAnLW1hJywgJzIwMCcsICctbWV0YWxfYmluZGluZycsICctaW1hZScsICc8aW5maWxlLm1hZT4nLCAnLW9tYWUnLCAnPG91dGZpbGUubWFlPic=

> <r_lp_tautomer_probability>
1

> <r_epik_Ionization_Penalty>
2.94418e-05

> <r_epik_Ionization_Penalty_Charging>
0

> <r_epik_Ionization_Penalty_Neutral>
2.94418e-05

> <r_epik_State_Penalty>
-0

> <r_epik_Charging_Adjusted_Penalty>
0

> <i_epik_Tot_Q>
0

> <i_epik_Tot_abs_Q>
0

> <r_epik_Metal_State_Penalty>
0.0104148

> <b_epik_Metal_Only>
0

> <s_lp_Force_Field>
OPLS_2005

> <r_lp_Energy>
8.22598

> <b_lp_Chiralities_Consistent>
1

> <s_lp_Variant>
AV-unprocessed.smi:2104-2

> <Gold.Version>
5.8.1

> <Gold.Id.Protein>
6NUR|6NUR_protein|mol2

> <Gold.PLP.Fitness>
47.5084

> <Gold.PLP.PLP>
-46.8537

> <Gold.PLP.part.hbond>
-3.1384

> <Gold.PLP.part.metal>
0.0000

> <Gold.PLP.part.buried>
-4.3364

> <Gold.PLP.part.nonpolar>
-39.5982

> <Gold.PLP.part.repulsive>
0.2530

> <Gold.PLP.ligand.clash>
0.0000

> <Gold.PLP.ligand.torsion>
1.2447

> <Gold.PLP.Chemscore.Hbond>
1.0429

> <Gold.PLP.Chemscore.CHOScore>
0.0000

> <Gold.PLP.Chemscore.Metal>
0.0000

> <Gold.Chemscore.Hbonds>
donor molecule, donor type, donor heavy atom, donor atom, acceptor molecule, acceptor atom, score
      L1  H     8    26       P1  8028  0.14
      P1  H  6934  6946       L1    19  1.00

> <Gold.PLP.Chemscore.Internal.Correction>
0.0155

> <Gold.Rescore>
     Score         DG    S(hbond)    S(metal)    S(lipo)     H(rot)  DE(clash)    DE(int)     intcor
     16.69     -21.45       2.02        0.00     117.17       1.75       2.03       2.74       ----

> <Gold.Chemscore.Fitness>
16.6860

> <Gold.Chemscore.DG>
-21.4547

> <Gold.Chemscore.ZeroCoef>
-5.4800

> <Gold.Chemscore.Hbond>
2.0216

> <Gold.Chemscore.Metal>
0.0000

> <Gold.Chemscore.Lipo>
117.1682

> <Gold.Chemscore.Internal_Hbond>
0.0000

> <Gold.Chemscore.DEClash>
2.0269

> <Gold.Chemscore.DEInternal>
2.7418

> <Gold.Chemscore.Rot>
1.7524

> <Gold.Chemscore.Internal.Correction>
   9.000000E+99

> <Gold.Chemscore.Hbonds>
donor molecule, donor type, donor heavy atom, donor atom, acceptor molecule, acceptor atom, score
      L1  H     5    25       P1  8029  0.01
      L1  H     8    26       P1  8028  0.06
      P1  H  6934  6946       L1    19  0.19

> <Gold.Chemscore.Hbond.Weighted>
-6.7522

> <Gold.Chemscore.Metal.Weighted>
-0.0000

> <Gold.Chemscore.Lipo.Weighted>
-13.7087

> <Gold.Chemscore.Internal_Hbond.Weighted>
0.0000

> <Gold.Chemscore.DEClash.Weighted>
2.0269

> <Gold.Chemscore.DEInternal.Weighted>
2.7418

> <Gold.Chemscore.Rot.Weighted>
4.4861

> <Gold.Chemscore.Internal.Correction.Weighted>
   9.000000E+99

> <Gold.Protein.RotatedTorsions>
[ 6907 6896 6895 6894 ] final  -55.17 input  -60.11 | X-H torsion
[ 7974 7965 7964 7962 ] final  169.64 input  175.53 | X-H torsion
[ 8008 7997 7996 7995 ] final    9.87 input   59.86 | X-H torsion
[ 10167 10162 10161 10158 ] final  165.72 input  -65.29 | X-H torsion
[ 10718 10713 10712 10709 ] final  -30.89 input   66.30 | X-H torsion
[ 10763 10752 10751 10750 ] final  111.46 input  -60.55 | X-H torsion
[ 11005 11000 10999 10996 ] final  -80.07 input  -57.11 | X-H torsion

> <Gold.Protein.ActiveResidues>
 VAL166  LYS551  ARG553  GLY616  TRP617  ASP618  TYR619  PRO620  LYS621  CYS622 
 ASP623  PHE694  ASN695  SER759  ASP760  ASP761  ALA762  ILE779  LEU786  VAL792 
 PHE793  MET794  SER795  GLU796  ALA797  LYS798  CYS799  TRP800  GLU811  SER814 

> <Gold.Protein.RotatedAtoms>
  150.8275  134.7513  159.6824 H   0  0  0  0  0  0  0  0  0  0  0  0  # atno 6907 bound_to 6896
  152.4384  134.5637  159.9911 H   0  0  0  0  0  0  0  0  0  0  0  0  # atno 6908 bound_to 6896
  151.5806  133.3340  159.3043 H   0  0  0  0  0  0  0  0  0  0  0  0  # atno 6909 bound_to 6896
  144.7348  139.9085  143.6413 H   0  0  0  0  0  0  0  0  0  0  0  0  # atno 7974 bound_to 7965
  154.7858  140.2827  155.6029 H   0  0  0  0  0  0  0  0  0  0  0  0  # atno 8008 bound_to 7997
  156.2957  140.2614  156.2622 H   0  0  0  0  0  0  0  0  0  0  0  0  # atno 8009 bound_to 7997
  154.9729  140.0376  157.2232 H   0  0  0  0  0  0  0  0  0  0  0  0  # atno 8010 bound_to 7997
  139.4911  144.4103  151.9307 H   0  0  0  0  0  0  0  0  0  0  0  0  # atno 10167 bound_to 10162
  156.3942  130.4378  149.7371 H   0  0  0  0  0  0  0  0  0  0  0  0  # atno 10718 bound_to 10713
  153.4636  135.3716  155.2352 H   0  0  0  0  0  0  0  0  0  0  0  0  # atno 10763 bound_to 10752
  154.8757  135.3914  154.3895 H   0  0  0  0  0  0  0  0  0  0  0  0  # atno 10764 bound_to 10752
  153.4472  135.7085  153.6196 H   0  0  0  0  0  0  0  0  0  0  0  0  # atno 10765 bound_to 10752
  141.1668  133.7134  156.8217 H   0  0  0  0  0  0  0  0  0  0  0  0  # atno 11005 bound_to 11000
  146.1019  139.4015  143.0341 LP  0  0  0  0  0  0  0  0  0  0  0  0  # atno 17320 bound_to 7965
  145.7567  140.9951  143.1222 LP  0  0  0  0  0  0  0  0  0  0  0  0  # atno 17321 bound_to 7965
  140.3544  144.3049  150.5944 LP  0  0  0  0  0  0  0  0  0  0  0  0  # atno 17342 bound_to 10162
  140.5457  143.2215  151.8011 LP  0  0  0  0  0  0  0  0  0  0  0  0  # atno 17343 bound_to 10162
  156.4413  130.7862  151.2883 LP  0  0  0  0  0  0  0  0  0  0  0  0  # atno 17370 bound_to 10713
  157.7500  131.0124  150.3382 LP  0  0  0  0  0  0  0  0  0  0  0  0  # atno 17371 bound_to 10713
  140.2114  134.8824  157.3279 LP  0  0  0  0  0  0  0  0  0  0  0  0  # atno 17394 bound_to 11000
  140.2082  134.4170  155.7626 LP  0  0  0  0  0  0  0  0  0  0  0  0  # atno 17395 bound_to 11000

$$$$
