AV-unprocessed.smi:35|AV-procd|sdf|259|dock4
  -GOLD-   2262016 23D 1   1.00000     0.00000
 Structure written by MMmdl.
 29 30  0  0  0  0  0  0  0  0  1 V2000
  140.1100  135.1415  153.9574 O   0  0  0  0  0  0  0  0  0  0  0  0
  141.2862  135.4385  153.7599 C   0  0  0  0  0  0  0  0  0  0  0  0
  142.2850  134.4654  153.8542 N   0  0  0  0  0  0  0  0  0  0  0  0
  143.6493  134.6823  153.6516 C   0  0  0  0  0  0  0  0  0  0  0  0
  144.4438  133.7477  153.7480 O   0  0  0  0  0  0  0  0  0  0  0  0
  144.0555  135.9960  153.3276 N   0  0  0  0  0  0  0  0  0  0  0  0
  145.5334  136.2575  153.1027 C   0  0  2  0  0  0  0  0  0  0  0  0
  145.9098  137.4302  153.7654 O   0  0  0  0  0  0  0  0  0  0  0  0
  146.1658  138.4683  152.8229 C   0  0  1  0  0  0  0  0  0  0  0  0
  147.1156  139.5060  153.4392 C   0  0  0  0  0  0  0  0  0  0  0  0
  147.4320  140.4958  152.4840 O   0  0  0  0  0  0  0  0  0  0  0  0
  146.7771  137.6848  151.6623 C   0  0  2  0  0  0  0  0  0  0  0  0
  146.8004  138.4129  150.4483 O   0  0  0  0  0  0  0  0  0  0  0  0
  145.9014  136.4369  151.6097 C   0  0  2  0  0  0  0  0  0  0  0  0
  144.7750  136.6117  150.7625 O   0  0  0  0  0  0  0  0  0  0  0  0
  143.0966  136.9965  153.2194 C   0  0  0  0  0  0  0  0  0  0  0  0
  141.7767  136.7690  153.4177 C   0  0  0  0  0  0  0  0  0  0  0  0
  140.5696  138.3267  153.2171 Br  0  0  0  0  0  0  0  0  0  0  0  0
  141.9942  133.5266  154.0855 H   0  0  0  0  0  0  0  0  0  0  0  0
  146.0605  135.4309  153.5831 H   0  0  0  0  0  0  0  0  0  0  0  0
  145.2298  138.9292  152.5020 H   0  0  0  0  0  0  0  0  0  0  0  0
  146.6838  139.9611  154.3309 H   0  0  0  0  0  0  0  0  0  0  0  0
  148.0498  139.0297  153.7378 H   0  0  0  0  0  0  0  0  0  0  0  0
  148.0682  140.1406  151.8823 H   0  0  0  0  0  0  0  0  0  0  0  0
  147.7973  137.3933  151.9181 H   0  0  0  0  0  0  0  0  0  0  0  0
  145.9168  138.4768  150.1194 H   0  0  0  0  0  0  0  0  0  0  0  0
  146.4617  135.5677  151.2638 H   0  0  0  0  0  0  0  0  0  0  0  0
  144.7167  137.5259  150.5301 H   0  0  0  0  0  0  0  0  0  0  0  0
  143.3919  138.0031  152.9672 H   0  0  0  0  0  0  0  0  0  0  0  0
  1  2  2  0  0  0  0
  2 17  1  0  0  0  0
  2  3  1  0  0  0  0
  3 19  1  0  0  0  0
  3  4  1  0  0  0  0
  4  5  2  0  0  0  0
  4  6  1  0  0  0  0
  6  7  1  0  0  0  0
  6 16  1  0  0  0  0
  7 14  1  0  0  0  0
  7  8  1  0  0  0  0
  7 20  1  0  0  0  0
  8  9  1  0  0  0  0
  9 10  1  0  0  0  0
  9 12  1  0  0  0  0
  9 21  1  0  0  0  0
 10 11  1  0  0  0  0
 10 22  1  0  0  0  0
 10 23  1  0  0  0  0
 11 24  1  0  0  0  0
 12 13  1  0  0  0  0
 12 14  1  0  0  0  0
 12 25  1  0  0  0  0
 13 26  1  0  0  0  0
 14 15  1  0  0  0  0
 14 27  1  0  0  0  0
 15 28  1  0  0  0  0
 16 17  2  0  0  0  0
 16 29  1  0  0  0  0
 17 18  1  0  0  0  0
M  END
> <s_m_source_file>
AV-unprocessed.smi

> <i_m_source_file_index>
35

> <i_lp_mmshare_version>
43012

> <i_f3d_flags>
0

> <s_epik_input>
Tz1jMVtuSF1jKD1PKW4oW2NIXWMxQnIpW0NAQEhdMk9bQ0BASF0oW0NIMl1bT0hdKVtDQEBIXShbT0hdKVtDQEhdMltPSF0=

> <s_epik_cmdline>
J2VwaWtfcHl0aG9uJywgJy1waCcsICc3LjAnLCAnLXRuJywgJzgnLCAnLW1hJywgJzIwMCcsICctbWV0YWxfYmluZGluZycsICctaW1hZScsICc8aW5maWxlLm1hZT4nLCAnLW9tYWUnLCAnPG91dGZpbGUubWFlPic=

> <r_lp_tautomer_probability>
0.999537

> <r_epik_Ionization_Penalty>
0.10812

> <r_epik_Ionization_Penalty_Charging>
0.108119

> <r_epik_Ionization_Penalty_Neutral>
4.93006e-07

> <r_epik_State_Penalty>
0.0979238

> <r_epik_Charging_Adjusted_Penalty>
0.206043

> <i_epik_Tot_Q>
0

> <i_epik_Tot_abs_Q>
0

> <r_epik_Metal_State_Penalty>
3.07911

> <b_epik_Metal_Only>
0

> <s_epik_Chemistry_Notes>
This compound contains an acetal/aminal-like group ( X-CH(R)-Y where X, Y are N, S, or O) that may be acid/base labile, releasing an aldehyde.

> <s_lp_Force_Field>
OPLS_2005

> <r_lp_Energy>
37.6264

> <b_lp_Chiralities_Consistent>
1

> <s_lp_Variant>
AV-unprocessed.smi:35-13

> <Gold.Version>
5.8.1

> <Gold.Id.Protein>
6NUR|6NUR_protein|mol2

> <Gold.PLP.Fitness>
38.5783

> <Gold.PLP.PLP>
-19.6149

> <Gold.PLP.part.hbond>
-6.4001

> <Gold.PLP.part.metal>
0.0000

> <Gold.PLP.part.buried>
3.8430

> <Gold.PLP.part.nonpolar>
-20.0509

> <Gold.PLP.part.repulsive>
2.1379

> <Gold.PLP.ligand.clash>
0.0000

> <Gold.PLP.ligand.torsion>
0.3759

> <Gold.PLP.Chemscore.Hbond>
5.5422

> <Gold.PLP.Chemscore.CHOScore>
1.0000

> <Gold.PLP.Chemscore.Metal>
0.0000

> <Gold.Chemscore.Hbonds>
donor molecule, donor type, donor heavy atom, donor atom, acceptor molecule, acceptor atom, score
      L1  H     3    19       P1 10957  0.88
      L1  H    11    24       P1  7957  1.00
      L1  H    13    26       P1 10171  0.96
      L1  H    15    28       P1 10171  0.90
      P1  H  7954  7966       L1    13  0.78
      P1  H 11000 11005       L1     1  1.00
      L1  C    16    29       P1 10175  1.00

> <Gold.PLP.Chemscore.Internal.Correction>
0.0886

> <Gold.Rescore>
     Score         DG    S(hbond)    S(metal)    S(lipo)     H(rot)  DE(clash)    DE(int)     intcor
     12.09     -15.52       4.32        0.00      42.83       3.67       2.04       1.39       ----

> <Gold.Chemscore.Fitness>
12.0925

> <Gold.Chemscore.DG>
-15.5247

> <Gold.Chemscore.ZeroCoef>
-5.4800

> <Gold.Chemscore.Hbond>
4.3202

> <Gold.Chemscore.Metal>
0.0000

> <Gold.Chemscore.Lipo>
42.8276

> <Gold.Chemscore.Internal_Hbond>
0.0000

> <Gold.Chemscore.DEClash>
2.0428

> <Gold.Chemscore.DEInternal>
1.3894

> <Gold.Chemscore.Rot>
3.6701

> <Gold.Chemscore.Internal.Correction>
   9.000000E+99

> <Gold.Chemscore.Hbonds>
donor molecule, donor type, donor heavy atom, donor atom, acceptor molecule, acceptor atom, score
      L1  H     3    19       P1 10957  0.84
      L1  H    11    24       P1  7957  0.98
      L1  H    13    26       P1 10171  0.91
      L1  H    15    28       P1 10171  0.82
      P1  H  7954  7966       L1    13  0.17
      P1  H 11000 11005       L1     1  0.30

> <Gold.Chemscore.Hbond.Weighted>
-14.4293

> <Gold.Chemscore.Metal.Weighted>
-0.0000

> <Gold.Chemscore.Lipo.Weighted>
-5.0108

> <Gold.Chemscore.Internal_Hbond.Weighted>
0.0000

> <Gold.Chemscore.DEClash.Weighted>
2.0428

> <Gold.Chemscore.DEInternal.Weighted>
1.3894

> <Gold.Chemscore.Rot.Weighted>
9.3955

> <Gold.Chemscore.Internal.Correction.Weighted>
   9.000000E+99

> <Gold.Protein.RotatedTorsions>
[ 6907 6896 6895 6894 ] final -126.79 input  -60.11 | X-H torsion
[ 7974 7965 7964 7962 ] final -149.27 input  175.53 | X-H torsion
[ 8008 7997 7996 7995 ] final   46.91 input   59.86 | X-H torsion
[ 10167 10162 10161 10158 ] final -170.04 input  -65.29 | X-H torsion
[ 10718 10713 10712 10709 ] final  -58.67 input   66.30 | X-H torsion
[ 10763 10752 10751 10750 ] final  -29.41 input  -60.55 | X-H torsion
[ 11005 11000 10999 10996 ] final   39.37 input  -57.11 | X-H torsion

> <Gold.Protein.ActiveResidues>
 VAL166  LYS551  ARG553  GLY616  TRP617  ASP618  TYR619  PRO620  LYS621  CYS622 
 ASP623  PHE694  ASN695  SER759  ASP760  ASP761  ALA762  ILE779  LEU786  VAL792 
 PHE793  MET794  SER795  GLU796  ALA797  LYS798  CYS799  TRP800  GLU811  SER814 

> <Gold.Protein.RotatedAtoms>
  150.9005  133.7124  159.2879 H   0  0  0  0  0  0  0  0  0  0  0  0  # atno 6907 bound_to 6896
  151.4644  135.1039  159.9743 H   0  0  0  0  0  0  0  0  0  0  0  0  # atno 6908 bound_to 6896
  152.4874  133.8361  159.7183 H   0  0  0  0  0  0  0  0  0  0  0  0  # atno 6909 bound_to 6896
  144.7978  140.5087  143.5728 H   0  0  0  0  0  0  0  0  0  0  0  0  # atno 7974 bound_to 7965
  155.3603  140.3418  155.4240 H   0  0  0  0  0  0  0  0  0  0  0  0  # atno 8008 bound_to 7997
  156.1717  140.1634  156.8470 H   0  0  0  0  0  0  0  0  0  0  0  0  # atno 8009 bound_to 7997
  154.5240  140.0760  156.8206 H   0  0  0  0  0  0  0  0  0  0  0  0  # atno 8010 bound_to 7997
  139.5886  144.1264  152.1606 H   0  0  0  0  0  0  0  0  0  0  0  0  # atno 10167 bound_to 10162
  156.1117  130.4174  150.0610 H   0  0  0  0  0  0  0  0  0  0  0  0  # atno 10718 bound_to 10713
  153.7641  135.6917  153.4919 H   0  0  0  0  0  0  0  0  0  0  0  0  # atno 10763 bound_to 10752
  153.1918  135.4468  155.0158 H   0  0  0  0  0  0  0  0  0  0  0  0  # atno 10764 bound_to 10752
  154.8142  135.3391  154.7154 H   0  0  0  0  0  0  0  0  0  0  0  0  # atno 10765 bound_to 10752
  140.2035  134.3841  155.8084 H   0  0  0  0  0  0  0  0  0  0  0  0  # atno 11005 bound_to 11000
  145.5630  139.1480  143.3331 LP  0  0  0  0  0  0  0  0  0  0  0  0  # atno 17320 bound_to 7965
  146.2251  140.5765  142.9000 LP  0  0  0  0  0  0  0  0  0  0  0  0  # atno 17321 bound_to 7965
  140.0833  144.5682  150.7106 LP  0  0  0  0  0  0  0  0  0  0  0  0  # atno 17342 bound_to 10162
  140.7153  143.2539  151.4454 LP  0  0  0  0  0  0  0  0  0  0  0  0  # atno 17343 bound_to 10162
  156.8571  130.9479  151.3621 LP  0  0  0  0  0  0  0  0  0  0  0  0  # atno 17370 bound_to 10713
  157.6299  130.8721  149.9255 LP  0  0  0  0  0  0  0  0  0  0  0  0  # atno 17371 bound_to 10713
  141.2227  133.7106  156.8298 LP  0  0  0  0  0  0  0  0  0  0  0  0  # atno 17394 bound_to 11000
  140.2028  134.8884  157.3188 LP  0  0  0  0  0  0  0  0  0  0  0  0  # atno 17395 bound_to 11000

$$$$
