AV-unprocessed.smi:1285|AV-procd|sdf|5371|dock10
  -GOLD-   22720 4513D 1   1.00000     0.00000
 Structure written by MMmdl.
 47 48  0  0  0  0  0  0  0  0  2 V2000
  151.1852  139.1477  154.9449 C   0  0  0  0  0  0  0  0  0  0  0  0
  150.9419  137.6315  154.8409 C   0  0  0  0  0  0  0  0  0  0  0  0
  149.5984  137.1197  155.4472 C   0  0  1  0  0  0  0  0  0  0  0  0
  149.7478  135.5898  155.6626 C   0  0  0  0  0  0  0  0  0  0  0  0
  149.3474  137.7993  156.8300 C   0  0  0  0  0  0  0  0  0  0  0  0
  148.3854  137.0741  157.6569 N   0  0  0  0  0  0  0  0  0  0  0  0
  148.6516  136.4602  158.8206 C   0  0  0  0  0  0  0  0  0  0  0  0
  149.7493  136.5106  159.3765 O   0  0  0  0  0  0  0  0  0  0  0  0
  147.5051  135.6283  159.4126 C   0  0  2  0  0  0  0  0  0  0  0  0
  146.1278  136.0012  158.8326 C   0  0  0  0  0  0  0  0  0  0  0  0
  147.5215  135.7486  160.8641 N   0  0  0  0  0  0  0  0  0  0  0  0
  147.4639  134.8168  161.8200 C   0  0  0  0  0  0  0  0  0  0  0  0
  147.4457  135.3098  163.0502 N   0  0  0  0  0  0  0  0  0  0  0  0
  147.4948  136.6438  162.7618 C   0  0  0  0  0  0  0  0  0  0  0  0
  147.5301  136.9615  161.4677 N   0  0  0  0  0  0  0  0  0  0  0  0
  148.4623  137.4089  154.4975 N   0  3  0  0  0  0  0  0  0  0  0  0
  147.1480  136.7955  154.8416 C   0  0  0  0  0  0  0  0  0  0  0  0
  146.1380  137.0062  153.7005 C   0  0  0  0  0  0  0  0  0  0  0  0
  145.9959  138.3938  153.4316 O   0  0  0  0  0  0  0  0  0  0  0  0
  147.2226  138.9762  153.0147 C   0  0  0  0  0  0  0  0  0  0  0  0
  148.2626  138.8421  154.1388 C   0  0  0  0  0  0  0  0  0  0  0  0
  152.1403  139.4099  154.4892 H   0  0  0  0  0  0  0  0  0  0  0  0
  151.2176  139.4859  155.9803 H   0  0  0  0  0  0  0  0  0  0  0  0
  150.4148  139.7182  154.4269 H   0  0  0  0  0  0  0  0  0  0  0  0
  150.9883  137.3726  153.7829 H   0  0  0  0  0  0  0  0  0  0  0  0
  151.7863  137.1052  155.2852 H   0  0  0  0  0  0  0  0  0  0  0  0
  150.6921  135.3404  156.1484 H   0  0  0  0  0  0  0  0  0  0  0  0
  149.7189  135.0424  154.7202 H   0  0  0  0  0  0  0  0  0  0  0  0
  148.9614  135.1874  156.3016 H   0  0  0  0  0  0  0  0  0  0  0  0
  150.2789  137.9268  157.3817 H   0  0  0  0  0  0  0  0  0  0  0  0
  148.9429  138.8017  156.6947 H   0  0  0  0  0  0  0  0  0  0  0  0
  147.4527  136.9745  157.2819 H   0  0  0  0  0  0  0  0  0  0  0  0
  147.6938  134.5833  159.1579 H   0  0  0  0  0  0  0  0  0  0  0  0
  146.1135  135.8875  157.7480 H   0  0  0  0  0  0  0  0  0  0  0  0
  145.8531  137.0313  159.0627 H   0  0  0  0  0  0  0  0  0  0  0  0
  145.3489  135.3547  159.2383 H   0  0  0  0  0  0  0  0  0  0  0  0
  147.4219  133.7576  161.6112 H   0  0  0  0  0  0  0  0  0  0  0  0
  147.4960  137.4043  163.5288 H   0  0  0  0  0  0  0  0  0  0  0  0
  147.2352  135.7234  155.0071 H   0  0  0  0  0  0  0  0  0  0  0  0
  146.7562  137.2333  155.7600 H   0  0  0  0  0  0  0  0  0  0  0  0
  146.4536  136.4788  152.7989 H   0  0  0  0  0  0  0  0  0  0  0  0
  145.1656  136.6008  153.9809 H   0  0  0  0  0  0  0  0  0  0  0  0
  147.5747  138.5033  152.0963 H   0  0  0  0  0  0  0  0  0  0  0  0
  147.0513  140.0280  152.7854 H   0  0  0  0  0  0  0  0  0  0  0  0
  147.9191  139.4071  155.0055 H   0  0  0  0  0  0  0  0  0  0  0  0
  149.1882  139.3034  153.8007 H   0  0  0  0  0  0  0  0  0  0  0  0
  148.7393  136.9591  153.6365 H   0  0  0  0  0  0  0  0  0  0  0  0
  1  2  1  0  0  0  0
  1 22  1  0  0  0  0
  1 23  1  0  0  0  0
  1 24  1  0  0  0  0
  2  3  1  0  0  0  0
  2 25  1  0  0  0  0
  2 26  1  0  0  0  0
  3  4  1  0  0  0  0
  3  5  1  0  0  0  0
  3 16  1  0  0  0  0
  4 27  1  0  0  0  0
  4 28  1  0  0  0  0
  4 29  1  0  0  0  0
  5  6  1  0  0  0  0
  5 30  1  0  0  0  0
  5 31  1  0  0  0  0
  6  7  1  0  0  0  0
  6 32  1  0  0  0  0
  7  8  2  0  0  0  0
  7  9  1  0  0  0  0
  9 10  1  0  0  0  0
  9 11  1  0  0  0  0
  9 33  1  0  0  0  0
 10 34  1  0  0  0  0
 10 35  1  0  0  0  0
 10 36  1  0  0  0  0
 11 15  1  0  0  0  0
 11 12  1  0  0  0  0
 12 13  2  0  0  0  0
 12 37  1  0  0  0  0
 13 14  1  0  0  0  0
 14 15  2  0  0  0  0
 14 38  1  0  0  0  0
 16 21  1  0  0  0  0
 16 17  1  0  0  0  0
 16 47  1  0  0  0  0
 17 18  1  0  0  0  0
 17 39  1  0  0  0  0
 17 40  1  0  0  0  0
 18 19  1  0  0  0  0
 18 41  1  0  0  0  0
 18 42  1  0  0  0  0
 19 20  1  0  0  0  0
 20 21  1  0  0  0  0
 20 43  1  0  0  0  0
 20 44  1  0  0  0  0
 21 45  1  0  0  0  0
 21 46  1  0  0  0  0
M  CHG  1  16   1
M  END
> <s_m_source_file>
AV-unprocessed.smi

> <i_m_source_file_index>
1285

> <i_lp_mmshare_version>
43012

> <i_f3d_flags>
0

> <s_epik_input>
W0NIMl0xW0NIMl1PW0NIMl1bQ0gyXU4xW0NAQF0oW0NIM10pKFtDSDJdW0NIM10pW0NIMl1bTkhdQyg9TylbQ0BIXShbQ0gzXSluMltjSF1uW2NIXW4y

> <s_epik_cmdline>
J2VwaWtfcHl0aG9uJywgJy1waCcsICc3LjAnLCAnLXRuJywgJzgnLCAnLW1hJywgJzIwMCcsICctbWV0YWxfYmluZGluZycsICctaW1hZScsICc8aW5maWxlLm1hZT4nLCAnLW9tYWUnLCAnPG91dGZpbGUubWFlPic=

> <r_lp_tautomer_probability>
1

> <r_epik_Ionization_Penalty>
0.569304

> <r_epik_Ionization_Penalty_Charging>
0.569295

> <r_epik_Ionization_Penalty_Neutral>
8.22697e-06

> <r_epik_State_Penalty>
0.581114

> <r_epik_Charging_Adjusted_Penalty>
1.15041

> <i_epik_Tot_Q>
1

> <i_epik_Tot_abs_Q>
1

> <r_epik_Metal_State_Penalty>
0.581117

> <b_epik_Metal_Only>
0

> <s_lp_Force_Field>
OPLS_2005

> <r_lp_Energy>
33.7003

> <b_lp_Chiralities_Consistent>
1

> <s_lp_Variant>
AV-unprocessed.smi:1285-5

> <Gold.Version>
5.8.1

> <Gold.Id.Protein>
6NUR|6NUR_protein|mol2

> <Gold.PLP.Fitness>
39.7677

> <Gold.PLP.PLP>
-29.3933

> <Gold.PLP.part.hbond>
-3.9731

> <Gold.PLP.part.metal>
0.0000

> <Gold.PLP.part.buried>
-3.9851

> <Gold.PLP.part.nonpolar>
-21.8697

> <Gold.PLP.part.repulsive>
0.2528

> <Gold.PLP.ligand.clash>
0.0000

> <Gold.PLP.ligand.torsion>
1.3495

> <Gold.PLP.Chemscore.Hbond>
4.2608

> <Gold.PLP.Chemscore.CHOScore>
0.0000

> <Gold.PLP.Chemscore.Metal>
0.0000

> <Gold.Chemscore.Hbonds>
donor molecule, donor type, donor heavy atom, donor atom, acceptor molecule, acceptor atom, score
      L1  H    16    47       P1  7948  2.00
      P1  H  6896  6908       L1     8  1.00
      P1  H  6931  6943       L1    15  0.40
      P1  H  6934  6947       L1    15  0.63

> <Gold.PLP.Chemscore.Internal.Correction>
0.2911

> <Gold.Rescore>
     Score         DG    S(hbond)    S(metal)    S(lipo)     H(rot)  DE(clash)    DE(int)     intcor
     10.51     -13.40       2.86        0.00      46.30       2.76       1.58       1.31       ----

> <Gold.Chemscore.Fitness>
10.5125

> <Gold.Chemscore.DG>
-13.4030

> <Gold.Chemscore.ZeroCoef>
-5.4800

> <Gold.Chemscore.Hbond>
2.8648

> <Gold.Chemscore.Metal>
0.0000

> <Gold.Chemscore.Lipo>
46.3021

> <Gold.Chemscore.Internal_Hbond>
0.0000

> <Gold.Chemscore.DEClash>
1.5770

> <Gold.Chemscore.DEInternal>
1.3135

> <Gold.Chemscore.Rot>
2.7589

> <Gold.Chemscore.Internal.Correction>
   9.000000E+99

> <Gold.Chemscore.Hbonds>
donor molecule, donor type, donor heavy atom, donor atom, acceptor molecule, acceptor atom, score
      L1  H    16    47       P1  7948  1.00
      P1  H  6896  6908       L1     8  0.97
      P1  H  6931  6943       L1    15  0.01
      P1  H  6934  6947       L1    15  0.57

> <Gold.Chemscore.Hbond.Weighted>
-9.5684

> <Gold.Chemscore.Metal.Weighted>
-0.0000

> <Gold.Chemscore.Lipo.Weighted>
-5.4173

> <Gold.Chemscore.Internal_Hbond.Weighted>
0.0000

> <Gold.Chemscore.DEClash.Weighted>
1.5770

> <Gold.Chemscore.DEInternal.Weighted>
1.3135

> <Gold.Chemscore.Rot.Weighted>
7.0627

> <Gold.Chemscore.Internal.Correction.Weighted>
   9.000000E+99

> <Gold.Protein.RotatedTorsions>
[ 6907 6896 6895 6894 ] final -163.74 input  -60.11 | X-H torsion
[ 7974 7965 7964 7962 ] final -112.91 input  175.53 | X-H torsion
[ 8008 7997 7996 7995 ] final  179.04 input   59.86 | X-H torsion
[ 10167 10162 10161 10158 ] final  -55.22 input  -65.29 | X-H torsion
[ 10718 10713 10712 10709 ] final  -29.18 input   66.30 | X-H torsion
[ 10763 10752 10751 10750 ] final  164.39 input  -60.55 | X-H torsion
[ 11005 11000 10999 10996 ] final -166.04 input  -57.11 | X-H torsion

> <Gold.Protein.ActiveResidues>
 VAL166  LYS551  ARG553  GLY616  TRP617  ASP618  TYR619  PRO620  LYS621  CYS622 
 ASP623  PHE694  ASN695  SER759  ASP760  ASP761  ALA762  ILE779  LEU786  VAL792 
 PHE793  MET794  SER795  GLU796  ALA797  LYS798  CYS799  TRP800  GLU811  SER814 

> <Gold.Protein.RotatedAtoms>
  151.4009  133.3758  159.2731 H   0  0  0  0  0  0  0  0  0  0  0  0  # atno 6907 bound_to 6896
  150.9434  134.8843  159.7637 H   0  0  0  0  0  0  0  0  0  0  0  0  # atno 6908 bound_to 6896
  152.5081  134.3960  159.9452 H   0  0  0  0  0  0  0  0  0  0  0  0  # atno 6909 bound_to 6896
  145.1383  140.8763  143.3717 H   0  0  0  0  0  0  0  0  0  0  0  0  # atno 7974 bound_to 7965
  156.0478  140.1318  157.0084 H   0  0  0  0  0  0  0  0  0  0  0  0  # atno 8008 bound_to 7997
  154.4421  140.1017  156.6402 H   0  0  0  0  0  0  0  0  0  0  0  0  # atno 8009 bound_to 7997
  155.5569  140.3464  155.4484 H   0  0  0  0  0  0  0  0  0  0  0  0  # atno 8010 bound_to 7997
  140.6387  143.2496  151.5048 H   0  0  0  0  0  0  0  0  0  0  0  0  # atno 10167 bound_to 10162
  156.4157  130.4416  149.7220 H   0  0  0  0  0  0  0  0  0  0  0  0  # atno 10718 bound_to 10713
  154.3082  135.2758  155.2578 H   0  0  0  0  0  0  0  0  0  0  0  0  # atno 10763 bound_to 10752
  154.4985  135.5814  153.6516 H   0  0  0  0  0  0  0  0  0  0  0  0  # atno 10764 bound_to 10752
  152.9891  135.6152  154.3258 H   0  0  0  0  0  0  0  0  0  0  0  0  # atno 10765 bound_to 10752
  140.5690  134.5257  157.5158 H   0  0  0  0  0  0  0  0  0  0  0  0  # atno 11005 bound_to 11000
  145.0560  139.3143  143.5904 LP  0  0  0  0  0  0  0  0  0  0  0  0  # atno 17320 bound_to 7965
  146.3507  139.9985  142.8678 LP  0  0  0  0  0  0  0  0  0  0  0  0  # atno 17321 bound_to 7965
  139.5597  144.2188  152.1670 LP  0  0  0  0  0  0  0  0  0  0  0  0  # atno 17342 bound_to 10162
  140.1452  144.5165  150.6720 LP  0  0  0  0  0  0  0  0  0  0  0  0  # atno 17343 bound_to 10162
  156.4180  130.7755  151.2771 LP  0  0  0  0  0  0  0  0  0  0  0  0  # atno 17370 bound_to 10713
  157.7508  131.0191  150.3654 LP  0  0  0  0  0  0  0  0  0  0  0  0  # atno 17371 bound_to 10713
  139.9371  134.7855  156.0774 LP  0  0  0  0  0  0  0  0  0  0  0  0  # atno 17394 bound_to 11000
  141.1068  133.6657  156.2883 LP  0  0  0  0  0  0  0  0  0  0  0  0  # atno 17395 bound_to 11000

$$$$
