AV-unprocessed.smi:2880|AV-procd|sdf|11053|dock10
  -GOLD-   2272015523D 1   1.00000     0.00000
 Structure written by MMmdl.
 47 48  0  0  0  0  0  0  0  0  1 V2000
  146.0279  133.6894  162.5256 C   0  0  0  0  0  0  0  0  0  0  0  0
  146.4210  135.1231  162.1201 C   0  0  0  0  0  0  0  0  0  0  0  0
  145.1378  135.9856  162.0583 C   0  0  0  0  0  0  0  0  0  0  0  0
  147.3632  135.7249  163.1811 C   0  0  0  0  0  0  0  0  0  0  0  0
  147.1223  135.0771  160.8299 N   0  0  0  0  0  0  0  0  0  0  0  0
  147.4379  133.9601  160.0745 C   0  0  0  0  0  0  0  0  0  0  0  0
  148.0845  134.3787  158.9468 C   0  0  0  0  0  0  0  0  0  0  0  0
  148.1200  135.7903  159.0989 C   0  0  0  0  0  0  0  0  0  0  0  0
  148.7255  136.6101  158.1129 N   0  0  0  0  0  0  0  0  0  0  0  0
  149.9839  137.0819  158.0981 C   0  0  0  0  0  0  0  0  0  0  0  0
  150.8254  136.8833  158.9748 O   0  0  0  0  0  0  0  0  0  0  0  0
  150.2144  137.8016  156.9900 N   0  0  0  0  0  0  0  0  0  0  0  0
  151.4781  138.4456  156.6231 C   0  0  2  0  0  0  0  0  0  0  0  0
  151.8650  139.4915  157.6883 C   0  0  0  0  0  0  0  0  0  0  0  0
  150.9325  140.7146  157.6695 C   0  0  0  0  0  0  0  0  0  0  0  0
  150.8710  141.3438  156.2702 C   0  0  0  0  0  0  0  0  0  0  0  0
  150.4633  140.3099  155.2085 C   0  0  0  0  0  0  0  0  0  0  0  0
  151.4040  139.0858  155.2100 C   0  0  2  0  0  0  0  0  0  0  0  0
  151.0176  138.0900  154.0956 C   0  0  0  0  0  0  0  0  0  0  0  0
  152.0613  137.1688  153.8593 O   0  0  0  0  0  0  0  0  0  0  0  0
  147.5475  136.2086  160.2174 N   0  0  0  0  0  0  0  0  0  0  0  0
  145.4952  133.6785  163.4769 H   0  0  0  0  0  0  0  0  0  0  0  0
  146.9014  133.0460  162.6363 H   0  0  0  0  0  0  0  0  0  0  0  0
  145.3767  133.2328  161.7794 H   0  0  0  0  0  0  0  0  0  0  0  0
  144.4242  135.5951  161.3315 H   0  0  0  0  0  0  0  0  0  0  0  0
  145.3596  137.0186  161.7870 H   0  0  0  0  0  0  0  0  0  0  0  0
  144.6319  136.0086  163.0241 H   0  0  0  0  0  0  0  0  0  0  0  0
  146.8750  135.7877  164.1542 H   0  0  0  0  0  0  0  0  0  0  0  0
  147.6755  136.7328  162.9051 H   0  0  0  0  0  0  0  0  0  0  0  0
  148.2649  135.1253  163.3097 H   0  0  0  0  0  0  0  0  0  0  0  0
  147.1775  132.9639  160.4003 H   0  0  0  0  0  0  0  0  0  0  0  0
  148.4698  133.7697  158.1427 H   0  0  0  0  0  0  0  0  0  0  0  0
  148.1414  136.8520  157.3264 H   0  0  0  0  0  0  0  0  0  0  0  0
  149.4548  137.9067  156.3339 H   0  0  0  0  0  0  0  0  0  0  0  0
  152.2734  137.6986  156.6108 H   0  0  0  0  0  0  0  0  0  0  0  0
  151.8664  139.0378  158.6801 H   0  0  0  0  0  0  0  0  0  0  0  0
  152.8883  139.8230  157.5069 H   0  0  0  0  0  0  0  0  0  0  0  0
  149.9303  140.4214  157.9845 H   0  0  0  0  0  0  0  0  0  0  0  0
  151.2773  141.4537  158.3930 H   0  0  0  0  0  0  0  0  0  0  0  0
  150.1674  142.1767  156.2679 H   0  0  0  0  0  0  0  0  0  0  0  0
  151.8453  141.7627  156.0155 H   0  0  0  0  0  0  0  0  0  0  0  0
  149.4352  139.9906  155.3846 H   0  0  0  0  0  0  0  0  0  0  0  0
  150.4717  140.7828  154.2260 H   0  0  0  0  0  0  0  0  0  0  0  0
  152.4024  139.4572  154.9718 H   0  0  0  0  0  0  0  0  0  0  0  0
  150.1050  137.5472  154.3426 H   0  0  0  0  0  0  0  0  0  0  0  0
  150.8241  138.6234  153.1646 H   0  0  0  0  0  0  0  0  0  0  0  0
  152.0501  136.9284  152.9454 H   0  0  0  0  0  0  0  0  0  0  0  0
  1  2  1  0  0  0  0
  1 22  1  0  0  0  0
  1 23  1  0  0  0  0
  1 24  1  0  0  0  0
  2  3  1  0  0  0  0
  2  4  1  0  0  0  0
  2  5  1  0  0  0  0
  3 25  1  0  0  0  0
  3 26  1  0  0  0  0
  3 27  1  0  0  0  0
  4 28  1  0  0  0  0
  4 29  1  0  0  0  0
  4 30  1  0  0  0  0
  5 21  1  0  0  0  0
  5  6  1  0  0  0  0
  6  7  2  0  0  0  0
  6 31  1  0  0  0  0
  7  8  1  0  0  0  0
  7 32  1  0  0  0  0
  8  9  1  0  0  0  0
  8 21  2  0  0  0  0
  9 10  1  0  0  0  0
  9 33  1  0  0  0  0
 10 11  2  0  0  0  0
 10 12  1  0  0  0  0
 12 13  1  0  0  0  0
 12 34  1  0  0  0  0
 13 18  1  0  0  0  0
 13 14  1  0  0  0  0
 13 35  1  0  0  0  0
 14 15  1  0  0  0  0
 14 36  1  0  0  0  0
 14 37  1  0  0  0  0
 15 16  1  0  0  0  0
 15 38  1  0  0  0  0
 15 39  1  0  0  0  0
 16 17  1  0  0  0  0
 16 40  1  0  0  0  0
 16 41  1  0  0  0  0
 17 18  1  0  0  0  0
 17 42  1  0  0  0  0
 17 43  1  0  0  0  0
 18 19  1  0  0  0  0
 18 44  1  0  0  0  0
 19 20  1  0  0  0  0
 19 45  1  0  0  0  0
 19 46  1  0  0  0  0
 20 47  1  0  0  0  0
M  END
> <s_m_source_file>
AV-unprocessed.smi

> <i_m_source_file_index>
2880

> <i_lp_mmshare_version>
43012

> <i_f3d_flags>
0

> <s_epik_input>
W0NIM11DKFtDSDNdKShbQ0gzXSluMVtjSF1bY0hdYyhuMSlbTkhdQyg9TylbTkhdW0NAQEhdMltDSDJdW0NIMl1bQ0gyXVtDSDJdW0NASF0yW0NIMl1bT0hd

> <s_epik_cmdline>
J2VwaWtfcHl0aG9uJywgJy1waCcsICc3LjAnLCAnLXRuJywgJzgnLCAnLW1hJywgJzIwMCcsICctbWV0YWxfYmluZGluZycsICctaW1hZScsICc8aW5maWxlLm1hZT4nLCAnLW9tYWUnLCAnPG91dGZpbGUubWFlPic=

> <r_lp_tautomer_probability>
1

> <r_epik_Ionization_Penalty>
3.89283e-05

> <r_epik_Ionization_Penalty_Charging>
0

> <r_epik_Ionization_Penalty_Neutral>
3.89283e-05

> <r_epik_State_Penalty>
-0

> <r_epik_Charging_Adjusted_Penalty>
0

> <i_epik_Tot_Q>
0

> <i_epik_Tot_abs_Q>
0

> <r_epik_Metal_State_Penalty>
-0

> <b_epik_Metal_Only>
0

> <s_lp_Force_Field>
OPLS_2005

> <r_lp_Energy>
20.6401

> <b_lp_Chiralities_Consistent>
1

> <s_lp_Variant>
AV-unprocessed.smi:2880-3

> <Gold.Version>
5.8.1

> <Gold.Id.Protein>
6NUR|6NUR_protein|mol2

> <Gold.PLP.Fitness>
43.3879

> <Gold.PLP.PLP>
-36.9428

> <Gold.PLP.part.hbond>
-3.0000

> <Gold.PLP.part.metal>
0.0000

> <Gold.PLP.part.buried>
-4.9735

> <Gold.PLP.part.nonpolar>
-29.6884

> <Gold.PLP.part.repulsive>
0.0783

> <Gold.PLP.ligand.clash>
0.0000

> <Gold.PLP.ligand.torsion>
0.8541

> <Gold.PLP.Chemscore.Hbond>
2.7088

> <Gold.PLP.Chemscore.CHOScore>
0.0000

> <Gold.PLP.Chemscore.Metal>
0.0000

> <Gold.Chemscore.Hbonds>
donor molecule, donor type, donor heavy atom, donor atom, acceptor molecule, acceptor atom, score
      L1  H    20    47       P1  7949  0.99
      P1  H  6896  6909       L1    11  0.99
      P1  H 10752 10765       L1    20  0.56

> <Gold.PLP.Chemscore.Internal.Correction>
0.0269

> <Gold.Rescore>
     Score         DG    S(hbond)    S(metal)    S(lipo)     H(rot)  DE(clash)    DE(int)     intcor
     17.22     -18.30       2.31        0.00      86.78       1.97       0.19       0.89       ----

> <Gold.Chemscore.Fitness>
17.2211

> <Gold.Chemscore.DG>
-18.2964

> <Gold.Chemscore.ZeroCoef>
-5.4800

> <Gold.Chemscore.Hbond>
2.3052

> <Gold.Chemscore.Metal>
0.0000

> <Gold.Chemscore.Lipo>
86.7798

> <Gold.Chemscore.Internal_Hbond>
0.0000

> <Gold.Chemscore.DEClash>
0.1882

> <Gold.Chemscore.DEInternal>
0.8871

> <Gold.Chemscore.Rot>
1.9672

> <Gold.Chemscore.Internal.Correction>
   9.000000E+99

> <Gold.Chemscore.Hbonds>
donor molecule, donor type, donor heavy atom, donor atom, acceptor molecule, acceptor atom, score
      L1  H    20    47       P1  7949  0.93
      P1  H  6896  6909       L1    11  0.89
      P1  H 10752 10765       L1    20  0.05

> <Gold.Chemscore.Hbond.Weighted>
-7.6992

> <Gold.Chemscore.Metal.Weighted>
-0.0000

> <Gold.Chemscore.Lipo.Weighted>
-10.1532

> <Gold.Chemscore.Internal_Hbond.Weighted>
0.0000

> <Gold.Chemscore.DEClash.Weighted>
0.1882

> <Gold.Chemscore.DEInternal.Weighted>
0.8871

> <Gold.Chemscore.Rot.Weighted>
5.0360

> <Gold.Chemscore.Internal.Correction.Weighted>
   9.000000E+99

> <Gold.Protein.RotatedTorsions>
[ 6907 6896 6895 6894 ] final   87.11 input  -60.11 | X-H torsion
[ 7974 7965 7964 7962 ] final -170.51 input  175.53 | X-H torsion
[ 8008 7997 7996 7995 ] final   86.99 input   59.86 | X-H torsion
[ 10167 10162 10161 10158 ] final  -98.95 input  -65.29 | X-H torsion
[ 10718 10713 10712 10709 ] final   64.34 input   66.30 | X-H torsion
[ 10763 10752 10751 10750 ] final  166.45 input  -60.55 | X-H torsion
[ 11005 11000 10999 10996 ] final  -84.63 input  -57.11 | X-H torsion

> <Gold.Protein.ActiveResidues>
 VAL166  LYS551  ARG553  GLY616  TRP617  ASP618  TYR619  PRO620  LYS621  CYS622 
 ASP623  PHE694  ASN695  SER759  ASP760  ASP761  ALA762  ILE779  LEU786  VAL792 
 PHE793  MET794  SER795  GLU796  ALA797  LYS798  CYS799  TRP800  GLU811  SER814 

> <Gold.Protein.RotatedAtoms>
  152.5406  134.2328  159.8831 H   0  0  0  0  0  0  0  0  0  0  0  0  # atno 6907 bound_to 6896
  151.2299  133.4449  159.2611 H   0  0  0  0  0  0  0  0  0  0  0  0  # atno 6908 bound_to 6896
  151.0725  134.9821  159.8372 H   0  0  0  0  0  0  0  0  0  0  0  0  # atno 6909 bound_to 6896
  144.7169  140.2061  143.6333 H   0  0  0  0  0  0  0  0  0  0  0  0  # atno 7974 bound_to 7965
  155.9698  140.3386  155.6565 H   0  0  0  0  0  0  0  0  0  0  0  0  # atno 8008 bound_to 7997
  155.6690  140.0724  157.2545 H   0  0  0  0  0  0  0  0  0  0  0  0  # atno 8009 bound_to 7997
  154.4163  140.1695  156.1845 H   0  0  0  0  0  0  0  0  0  0  0  0  # atno 8010 bound_to 7997
  140.2676  143.3365  152.0566 H   0  0  0  0  0  0  0  0  0  0  0  0  # atno 10167 bound_to 10162
  157.6033  130.9155  149.9833 H   0  0  0  0  0  0  0  0  0  0  0  0  # atno 10718 bound_to 10713
  154.3392  135.2754  155.2432 H   0  0  0  0  0  0  0  0  0  0  0  0  # atno 10763 bound_to 10752
  154.4710  135.5883  153.6325 H   0  0  0  0  0  0  0  0  0  0  0  0  # atno 10764 bound_to 10752
  152.9859  135.6088  154.3591 H   0  0  0  0  0  0  0  0  0  0  0  0  # atno 10765 bound_to 10752
  141.1649  133.7356  156.8897 H   0  0  0  0  0  0  0  0  0  0  0  0  # atno 11005 bound_to 11000
  145.8635  139.2235  143.1703 LP  0  0  0  0  0  0  0  0  0  0  0  0  # atno 17320 bound_to 7965
  146.0152  140.8399  142.9951 LP  0  0  0  0  0  0  0  0  0  0  0  0  # atno 17321 bound_to 7965
  139.4998  144.6678  151.6315 LP  0  0  0  0  0  0  0  0  0  0  0  0  # atno 17342 bound_to 10162
  140.5916  143.9770  150.6328 LP  0  0  0  0  0  0  0  0  0  0  0  0  # atno 17343 bound_to 10162
  156.1112  130.3650  150.0046 LP  0  0  0  0  0  0  0  0  0  0  0  0  # atno 17370 bound_to 10713
  156.8144  130.9336  151.3643 LP  0  0  0  0  0  0  0  0  0  0  0  0  # atno 17371 bound_to 10713
  140.1657  134.9135  157.2771 LP  0  0  0  0  0  0  0  0  0  0  0  0  # atno 17394 bound_to 11000
  140.2559  134.3628  155.7424 LP  0  0  0  0  0  0  0  0  0  0  0  0  # atno 17395 bound_to 11000

$$$$
