AV-unprocessed.smi:2198|AV-procd|sdf|8913|dock4
  -GOLD-   2272012133D 1   1.00000     0.00000
 Structure written by MMmdl.
 43 44  0  0  0  0  0  0  0  0  1 V2000
  146.4145  137.9508  152.4286 C   0  0  0  0  0  0  0  0  0  0  0  0
  147.1950  139.0900  153.0494 C   0  0  0  0  0  0  0  0  0  0  0  0
  146.7012  140.2621  153.2791 N   0  0  0  0  0  0  0  0  0  0  0  0
  147.5221  141.2371  153.8631 C   0  0  0  0  0  0  0  0  0  0  0  0
  146.8672  142.5872  154.1009 C   0  0  0  0  0  0  0  0  0  0  0  0
  148.8219  140.9759  154.1905 C   0  0  0  0  0  0  0  0  0  0  0  0
  149.7419  142.0156  154.8274 C   0  0  0  0  0  0  0  0  0  0  0  0
  150.2365  141.6732  156.2336 C   0  0  0  0  0  0  0  0  0  0  0  0
  150.3902  140.4971  156.5616 O   0  0  0  0  0  0  0  0  0  0  0  0
  150.4898  142.7085  157.0489 N   0  0  0  0  0  0  0  0  0  0  0  0
  150.9883  142.6049  158.4166 C   0  0  2  0  0  0  0  0  0  0  0  0
  151.4725  143.9779  158.9223 C   0  0  0  0  0  0  0  0  0  0  0  0
  152.0715  143.8729  160.3329 C   0  0  0  0  0  0  0  0  0  0  0  0
  153.2042  142.8353  160.3830 C   0  0  0  0  0  0  0  0  0  0  0  0
  152.7307  141.4558  159.8865 C   0  0  2  0  0  0  0  0  0  0  0  0
  153.8672  140.4243  159.9297 C   0  0  0  0  0  0  0  0  0  0  0  0
  152.1264  141.5685  158.4730 C   0  0  0  0  0  0  0  0  0  0  0  0
  149.3760  139.6346  153.9209 C   0  0  0  0  0  0  0  0  0  0  0  0
  150.5314  139.2934  154.1691 O   0  0  0  0  0  0  0  0  0  0  0  0
  148.5133  138.7592  153.3584 N   0  0  0  0  0  0  0  0  0  0  0  0
  148.8458  137.8281  153.1544 H   0  0  0  0  0  0  0  0  0  0  0  0
  146.0550  138.2365  151.4397 H   0  0  0  0  0  0  0  0  0  0  0  0
  145.5525  137.7050  153.0494 H   0  0  0  0  0  0  0  0  0  0  0  0
  147.0259  137.0534  152.3234 H   0  0  0  0  0  0  0  0  0  0  0  0
  146.8956  142.8495  155.1585 H   0  0  0  0  0  0  0  0  0  0  0  0
  145.8219  142.5805  153.7893 H   0  0  0  0  0  0  0  0  0  0  0  0
  147.3768  143.3666  153.5343 H   0  0  0  0  0  0  0  0  0  0  0  0
  150.5980  142.1728  154.1707 H   0  0  0  0  0  0  0  0  0  0  0  0
  149.2503  142.9881  154.8698 H   0  0  0  0  0  0  0  0  0  0  0  0
  150.3344  143.6399  156.6911 H   0  0  0  0  0  0  0  0  0  0  0  0
  150.1816  142.2550  159.0639 H   0  0  0  0  0  0  0  0  0  0  0  0
  152.2230  144.3801  158.2400 H   0  0  0  0  0  0  0  0  0  0  0  0
  150.6471  144.6908  158.9288 H   0  0  0  0  0  0  0  0  0  0  0  0
  152.4451  144.8466  160.6512 H   0  0  0  0  0  0  0  0  0  0  0  0
  151.2897  143.5956  161.0410 H   0  0  0  0  0  0  0  0  0  0  0  0
  154.0402  143.1806  159.7731 H   0  0  0  0  0  0  0  0  0  0  0  0
  153.5796  142.7555  161.4040 H   0  0  0  0  0  0  0  0  0  0  0  0
  151.9461  141.1077  160.5600 H   0  0  0  0  0  0  0  0  0  0  0  0
  154.6917  140.7153  159.2780 H   0  0  0  0  0  0  0  0  0  0  0  0
  153.5190  139.4423  159.6079 H   0  0  0  0  0  0  0  0  0  0  0  0
  154.2631  140.3178  160.9399 H   0  0  0  0  0  0  0  0  0  0  0  0
  151.7506  140.5947  158.1551 H   0  0  0  0  0  0  0  0  0  0  0  0
  152.9089  141.8429  157.7638 H   0  0  0  0  0  0  0  0  0  0  0  0
  1  2  1  0  0  0  0
  1 22  1  0  0  0  0
  1 23  1  0  0  0  0
  1 24  1  0  0  0  0
  2 20  1  0  0  0  0
  2  3  2  0  0  0  0
  3  4  1  0  0  0  0
  4  5  1  0  0  0  0
  4  6  2  0  0  0  0
  5 25  1  0  0  0  0
  5 26  1  0  0  0  0
  5 27  1  0  0  0  0
  6  7  1  0  0  0  0
  6 18  1  0  0  0  0
  7  8  1  0  0  0  0
  7 28  1  0  0  0  0
  7 29  1  0  0  0  0
  8  9  2  0  0  0  0
  8 10  1  0  0  0  0
 10 11  1  0  0  0  0
 10 30  1  0  0  0  0
 11 17  1  0  0  0  0
 11 12  1  0  0  0  0
 11 31  1  0  0  0  0
 12 13  1  0  0  0  0
 12 32  1  0  0  0  0
 12 33  1  0  0  0  0
 13 14  1  0  0  0  0
 13 34  1  0  0  0  0
 13 35  1  0  0  0  0
 14 15  1  0  0  0  0
 14 36  1  0  0  0  0
 14 37  1  0  0  0  0
 15 16  1  0  0  0  0
 15 17  1  0  0  0  0
 15 38  1  0  0  0  0
 16 39  1  0  0  0  0
 16 40  1  0  0  0  0
 16 41  1  0  0  0  0
 17 42  1  0  0  0  0
 17 43  1  0  0  0  0
 18 19  2  0  0  0  0
 18 20  1  0  0  0  0
 20 21  1  0  0  0  0
M  END
> <s_m_source_file>
AV-unprocessed.smi

> <i_m_source_file_index>
2198

> <i_lp_mmshare_version>
43012

> <i_f3d_flags>
0

> <s_epik_input>
W0NIM11jMW5jKFtDSDNdKWMoYyg9TylbbkhdMSlbQ0gyXUMoPU8pW05IXVtDQEBIXTJbQ0gyXVtDSDJdW0NIMl1bQ0BASF0oW0NIM10pW0NIMl0y

> <s_epik_cmdline>
J2VwaWtfcHl0aG9uJywgJy1waCcsICc3LjAnLCAnLXRuJywgJzgnLCAnLW1hJywgJzIwMCcsICctbWV0YWxfYmluZGluZycsICctaW1hZScsICc8aW5maWxlLm1hZT4nLCAnLW9tYWUnLCAnPG91dGZpbGUubWFlPic=

> <r_lp_tautomer_probability>
0.839158

> <r_epik_Ionization_Penalty>
0.000372587

> <r_epik_Ionization_Penalty_Charging>
0.000337977

> <r_epik_Ionization_Penalty_Neutral>
3.46101e-05

> <r_epik_State_Penalty>
0.09125

> <r_epik_Charging_Adjusted_Penalty>
0.091588

> <i_epik_Tot_Q>
0

> <i_epik_Tot_abs_Q>
0

> <r_epik_Metal_State_Penalty>
0.25197

> <b_epik_Metal_Only>
0

> <s_lp_Force_Field>
OPLS_2005

> <r_lp_Energy>
10.3768

> <b_lp_Chiralities_Consistent>
1

> <s_lp_Variant>
AV-unprocessed.smi:2198-3

> <Gold.Version>
5.8.1

> <Gold.Id.Protein>
6NUR|6NUR_protein|mol2

> <Gold.PLP.Fitness>
47.3551

> <Gold.PLP.PLP>
-39.9461

> <Gold.PLP.part.hbond>
-4.0000

> <Gold.PLP.part.metal>
0.0000

> <Gold.PLP.part.buried>
2.0273

> <Gold.PLP.part.nonpolar>
-38.3545

> <Gold.PLP.part.repulsive>
0.5894

> <Gold.PLP.ligand.clash>
0.0000

> <Gold.PLP.ligand.torsion>
0.5683

> <Gold.PLP.Chemscore.Hbond>
2.8475

> <Gold.PLP.Chemscore.CHOScore>
0.0000

> <Gold.PLP.Chemscore.Metal>
0.0000

> <Gold.Chemscore.Hbonds>
donor molecule, donor type, donor heavy atom, donor atom, acceptor molecule, acceptor atom, score
      L1  H    10    30       P1  8028  0.74
      L1  H    20    21       P1  7948  0.98
      P1  H  7989  7998       L1    19  1.00

> <Gold.PLP.Chemscore.Internal.Correction>
0.0033

> <Gold.Rescore>
     Score         DG    S(hbond)    S(metal)    S(lipo)     H(rot)  DE(clash)    DE(int)     intcor
     19.07     -22.95       2.80        0.00     101.65       1.48       1.67       2.21       ----

> <Gold.Chemscore.Fitness>
19.0691

> <Gold.Chemscore.DG>
-22.9481

> <Gold.Chemscore.ZeroCoef>
-5.4800

> <Gold.Chemscore.Hbond>
2.8038

> <Gold.Chemscore.Metal>
0.0000

> <Gold.Chemscore.Lipo>
101.6467

> <Gold.Chemscore.Internal_Hbond>
0.0000

> <Gold.Chemscore.DEClash>
1.6712

> <Gold.Chemscore.DEInternal>
2.2078

> <Gold.Chemscore.Rot>
1.4801

> <Gold.Chemscore.Internal.Correction>
   9.000000E+99

> <Gold.Chemscore.Hbonds>
donor molecule, donor type, donor heavy atom, donor atom, acceptor molecule, acceptor atom, score
      L1  H    10    30       P1  8028  0.71
      L1  H    20    21       P1  7948  0.86
      P1  H  7989  7998       L1    19  0.37

> <Gold.Chemscore.Hbond.Weighted>
-9.3646

> <Gold.Chemscore.Metal.Weighted>
-0.0000

> <Gold.Chemscore.Lipo.Weighted>
-11.8927

> <Gold.Chemscore.Internal_Hbond.Weighted>
0.0000

> <Gold.Chemscore.DEClash.Weighted>
1.6712

> <Gold.Chemscore.DEInternal.Weighted>
2.2078

> <Gold.Chemscore.Rot.Weighted>
3.7891

> <Gold.Chemscore.Internal.Correction.Weighted>
   9.000000E+99

> <Gold.Protein.RotatedTorsions>
[ 6907 6896 6895 6894 ] final  -96.13 input  -60.11 | X-H torsion
[ 7974 7965 7964 7962 ] final  105.73 input  175.53 | X-H torsion
[ 8008 7997 7996 7995 ] final -163.30 input   59.86 | X-H torsion
[ 10167 10162 10161 10158 ] final  146.53 input  -65.29 | X-H torsion
[ 10718 10713 10712 10709 ] final  -97.40 input   66.30 | X-H torsion
[ 10763 10752 10751 10750 ] final   17.20 input  -60.55 | X-H torsion
[ 11005 11000 10999 10996 ] final   35.17 input  -57.11 | X-H torsion

> <Gold.Protein.ActiveResidues>
 VAL166  LYS551  ARG553  GLY616  TRP617  ASP618  TYR619  PRO620  LYS621  CYS622 
 ASP623  PHE694  ASN695  SER759  ASP760  ASP761  ALA762  ILE779  LEU786  VAL792 
 PHE793  MET794  SER795  GLU796  ALA797  LYS798  CYS799  TRP800  GLU811  SER814 

> <Gold.Protein.RotatedAtoms>
  150.6981  134.1550  159.4154 H   0  0  0  0  0  0  0  0  0  0  0  0  # atno 6907 bound_to 6896
  151.9532  135.0157  160.0552 H   0  0  0  0  0  0  0  0  0  0  0  0  # atno 6908 bound_to 6896
  152.1992  133.4794  159.5086 H   0  0  0  0  0  0  0  0  0  0  0  0  # atno 6909 bound_to 6896
  145.3159  139.2526  143.3738 H   0  0  0  0  0  0  0  0  0  0  0  0  # atno 7974 bound_to 7965
  155.8193  140.0917  157.1858 H   0  0  0  0  0  0  0  0  0  0  0  0  # atno 8008 bound_to 7997
  154.3979  140.1440  156.3540 H   0  0  0  0  0  0  0  0  0  0  0  0  # atno 8009 bound_to 7997
  155.8283  140.3443  155.5559 H   0  0  0  0  0  0  0  0  0  0  0  0  # atno 8010 bound_to 7997
  139.4905  144.5822  151.6848 H   0  0  0  0  0  0  0  0  0  0  0  0  # atno 10167 bound_to 10162
  156.0083  130.5193  150.6369 H   0  0  0  0  0  0  0  0  0  0  0  0  # atno 10718 bound_to 10713
  153.1361  135.6750  153.9101 H   0  0  0  0  0  0  0  0  0  0  0  0  # atno 10763 bound_to 10752
  153.8572  135.3086  155.3437 H   0  0  0  0  0  0  0  0  0  0  0  0  # atno 10764 bound_to 10752
  154.7748  135.4920  153.9805 H   0  0  0  0  0  0  0  0  0  0  0  0  # atno 10765 bound_to 10752
  140.2454  134.3366  155.7910 H   0  0  0  0  0  0  0  0  0  0  0  0  # atno 11005 bound_to 11000
  146.3100  140.3705  142.8674 LP  0  0  0  0  0  0  0  0  0  0  0  0  # atno 17320 bound_to 7965
  144.8978  140.7605  143.5886 LP  0  0  0  0  0  0  0  0  0  0  0  0  # atno 17321 bound_to 7965
  140.5431  144.0547  150.6096 LP  0  0  0  0  0  0  0  0  0  0  0  0  # atno 17342 bound_to 10162
  140.3576  143.2926  152.0419 LP  0  0  0  0  0  0  0  0  0  0  0  0  # atno 17343 bound_to 10162
  157.4157  131.0830  151.1179 LP  0  0  0  0  0  0  0  0  0  0  0  0  # atno 17370 bound_to 10713
  157.1797  130.6304  149.5667 LP  0  0  0  0  0  0  0  0  0  0  0  0  # atno 17371 bound_to 10713
  141.2207  133.7322  156.8952 LP  0  0  0  0  0  0  0  0  0  0  0  0  # atno 17394 bound_to 11000
  140.1611  134.9164  157.2716 LP  0  0  0  0  0  0  0  0  0  0  0  0  # atno 17395 bound_to 11000

$$$$
