AV-unprocessed.smi:199|AV-procd|sdf|1561|dock5
  -GOLD-   2262019433D 1   1.00000     0.00000
 Structure written by MMmdl.
 51 55  0  0  0  0  0  0  0  0  1 V2000
  147.1134  136.8447  162.2797 C   0  0  0  0  0  0  0  0  0  0  0  0
  147.3612  135.3738  161.9071 C   0  0  1  0  0  0  0  0  0  0  0  0
  147.0374  134.5209  162.9956 O   0  0  0  0  0  0  0  0  0  0  0  0
  146.9147  133.2110  162.4719 C   0  0  0  0  0  0  0  0  0  0  0  0
  146.1065  133.4313  161.1989 C   0  0  0  0  0  0  0  0  0  0  0  0
  146.5669  134.8051  160.7008 C   0  0  1  0  0  0  0  0  0  0  0  0
  145.4139  135.5812  160.4184 O   0  0  0  0  0  0  0  0  0  0  0  0
  147.4090  134.7020  159.4053 C   0  0  0  0  0  0  0  0  0  0  0  0
  147.6992  135.9922  158.7978 N   0  0  0  0  0  0  0  0  0  0  0  0
  146.8562  136.7439  158.0116 C   0  0  0  0  0  0  0  0  0  0  0  0
  147.3512  137.8746  157.5896 N   0  0  0  0  0  0  0  0  0  0  0  0
  148.6356  137.9083  158.1206 C   0  0  0  0  0  0  0  0  0  0  0  0
  149.7153  138.8368  158.0629 C   0  0  0  0  0  0  0  0  0  0  0  0
  149.6571  140.0198  157.3925 N   0  0  0  0  0  0  0  0  0  0  0  0
  149.9130  141.2678  158.0924 C   0  0  1  0  0  0  0  0  0  0  0  0
  151.4414  141.2786  158.2929 C   0  0  0  0  0  0  0  0  0  0  0  0
  151.9187  140.5907  157.0046 C   0  0  0  0  0  0  0  0  0  0  0  0
  150.5749  140.3083  156.2977 C   0  0  2  0  0  0  0  0  0  0  0  0
  150.0263  141.6377  155.7334 C   0  0  1  0  0  0  0  0  0  0  0  0
  148.9055  141.4498  154.6946 C   0  0  0  0  0  0  0  0  0  0  0  0
  148.4904  142.6999  154.1865 O   0  0  0  0  0  0  0  0  0  0  0  0
  149.5341  142.3133  157.0302 C   0  0  0  0  0  0  0  0  0  0  0  0
  150.8679  138.4892  158.6955 N   0  0  0  0  0  0  0  0  0  0  0  0
  150.9548  137.3367  159.3644 C   0  0  0  0  0  0  0  0  0  0  0  0
  150.0273  136.3912  159.5186 N   0  0  0  0  0  0  0  0  0  0  0  0
  148.8741  136.7204  158.8700 C   0  0  0  0  0  0  0  0  0  0  0  0
  147.3493  137.5073  161.4468 H   0  0  0  0  0  0  0  0  0  0  0  0
  147.7395  137.1383  163.1222 H   0  0  0  0  0  0  0  0  0  0  0  0
  146.0761  137.0169  162.5672 H   0  0  0  0  0  0  0  0  0  0  0  0
  148.4290  135.2387  161.7313 H   0  0  0  0  0  0  0  0  0  0  0  0
  147.9037  132.8097  162.2450 H   0  0  0  0  0  0  0  0  0  0  0  0
  146.4211  132.5394  163.1744 H   0  0  0  0  0  0  0  0  0  0  0  0
  146.2576  132.6315  160.4730 H   0  0  0  0  0  0  0  0  0  0  0  0
  145.0455  133.4411  161.4549 H   0  0  0  0  0  0  0  0  0  0  0  0
  145.0108  135.2447  159.6329 H   0  0  0  0  0  0  0  0  0  0  0  0
  148.3562  134.2040  159.6171 H   0  0  0  0  0  0  0  0  0  0  0  0
  146.8999  134.0821  158.6660 H   0  0  0  0  0  0  0  0  0  0  0  0
  145.8530  136.4289  157.7642 H   0  0  0  0  0  0  0  0  0  0  0  0
  149.3607  141.4124  159.0193 H   0  0  0  0  0  0  0  0  0  0  0  0
  151.8429  142.2857  158.4110 H   0  0  0  0  0  0  0  0  0  0  0  0
  151.7258  140.6939  159.1688 H   0  0  0  0  0  0  0  0  0  0  0  0
  152.5857  141.2163  156.4103 H   0  0  0  0  0  0  0  0  0  0  0  0
  152.4476  139.6656  157.2366 H   0  0  0  0  0  0  0  0  0  0  0  0
  150.6457  139.5248  155.5422 H   0  0  0  0  0  0  0  0  0  0  0  0
  150.8262  142.2263  155.2812 H   0  0  0  0  0  0  0  0  0  0  0  0
  149.2344  140.8160  153.8704 H   0  0  0  0  0  0  0  0  0  0  0  0
  148.0436  140.9638  155.1526 H   0  0  0  0  0  0  0  0  0  0  0  0
  148.6139  143.3531  154.8583 H   0  0  0  0  0  0  0  0  0  0  0  0
  148.4537  142.4642  157.0149 H   0  0  0  0  0  0  0  0  0  0  0  0
  150.0039  143.2817  157.2073 H   0  0  0  0  0  0  0  0  0  0  0  0
  151.9034  137.1454  159.8441 H   0  0  0  0  0  0  0  0  0  0  0  0
  1  2  1  0  0  0  0
  1 27  1  0  0  0  0
  1 28  1  0  0  0  0
  1 29  1  0  0  0  0
  2  6  1  0  0  0  0
  2  3  1  0  0  0  0
  2 30  1  0  0  0  0
  3  4  1  0  0  0  0
  4  5  1  0  0  0  0
  4 31  1  0  0  0  0
  4 32  1  0  0  0  0
  5  6  1  0  0  0  0
  5 33  1  0  0  0  0
  5 34  1  0  0  0  0
  6  7  1  0  0  0  0
  6  8  1  0  0  0  0
  7 35  1  0  0  0  0
  8  9  1  0  0  0  0
  8 36  1  0  0  0  0
  8 37  1  0  0  0  0
  9 26  1  0  0  0  0
  9 10  1  0  0  0  0
 10 11  2  0  0  0  0
 10 38  1  0  0  0  0
 11 12  1  0  0  0  0
 12 26  2  0  0  0  0
 12 13  1  0  0  0  0
 13 14  1  0  0  0  0
 13 23  2  0  0  0  0
 14 18  1  0  0  0  0
 14 15  1  0  0  0  0
 15 22  1  0  0  0  0
 15 16  1  0  0  0  0
 15 39  1  0  0  0  0
 16 17  1  0  0  0  0
 16 40  1  0  0  0  0
 16 41  1  0  0  0  0
 17 18  1  0  0  0  0
 17 42  1  0  0  0  0
 17 43  1  0  0  0  0
 18 19  1  0  0  0  0
 18 44  1  0  0  0  0
 19 20  1  0  0  0  0
 19 22  1  0  0  0  0
 19 45  1  0  0  0  0
 20 21  1  0  0  0  0
 20 46  1  0  0  0  0
 20 47  1  0  0  0  0
 21 48  1  0  0  0  0
 22 49  1  0  0  0  0
 22 50  1  0  0  0  0
 23 24  1  0  0  0  0
 24 25  2  0  0  0  0
 24 51  1  0  0  0  0
 25 26  1  0  0  0  0
M  END
> <s_m_source_file>
AV-unprocessed.smi

> <i_m_source_file_index>
199

> <i_lp_mmshare_version>
43012

> <i_f3d_flags>
0

> <s_epik_input>
W0NIMl0xW0NIMl1PW0NAQEhdKFtDSDNdKVtDQEBdMShbT0hdKVtDSDJdbihbY0hdbjIpYyhjMjMpbltjSF1uYzNOKFtDQEBIXTQ1KVtDQEhdKFtDSDJdW0NIMl00KVtDQEhdKFtDSDJdNSlbQ0gyXVtPSF0=

> <s_epik_cmdline>
J2VwaWtfcHl0aG9uJywgJy1waCcsICc3LjAnLCAnLXRuJywgJzgnLCAnLW1hJywgJzIwMCcsICctbWV0YWxfYmluZGluZycsICctaW1hZScsICc8aW5maWxlLm1hZT4nLCAnLW9tYWUnLCAnPG91dGZpbGUubWFlPic=

> <r_lp_tautomer_probability>
1

> <r_epik_Ionization_Penalty>
0.00583903

> <r_epik_Ionization_Penalty_Charging>
0

> <r_epik_Ionization_Penalty_Neutral>
0.00583903

> <r_epik_State_Penalty>
-0

> <r_epik_Charging_Adjusted_Penalty>
0

> <i_epik_Tot_Q>
0

> <i_epik_Tot_abs_Q>
0

> <r_epik_Metal_State_Penalty>
-0

> <b_epik_Metal_Only>
0

> <s_lp_Force_Field>
OPLS_2005

> <r_lp_Energy>
83.4271

> <b_lp_Chiralities_Consistent>
1

> <s_lp_Variant>
AV-unprocessed.smi:199-2

> <Gold.Version>
5.8.1

> <Gold.Id.Protein>
6NUR|6NUR_protein|mol2

> <Gold.PLP.Fitness>
39.5735

> <Gold.PLP.PLP>
-34.1534

> <Gold.PLP.part.hbond>
-4.1321

> <Gold.PLP.part.metal>
0.0000

> <Gold.PLP.part.buried>
-2.5301

> <Gold.PLP.part.nonpolar>
-27.6477

> <Gold.PLP.part.repulsive>
0.0000

> <Gold.PLP.ligand.clash>
0.0000

> <Gold.PLP.ligand.torsion>
0.3632

> <Gold.PLP.Chemscore.Hbond>
2.0328

> <Gold.PLP.Chemscore.CHOScore>
0.0000

> <Gold.PLP.Chemscore.Metal>
0.0000

> <Gold.Chemscore.Hbonds>
donor molecule, donor type, donor heavy atom, donor atom, acceptor molecule, acceptor atom, score
      L1  H    21    48       P1  8028  1.00
      P1  H  6896  6907       L1    25  1.00
      P1  H  8011  8017       L1    21  0.01

> <Gold.PLP.Chemscore.Internal.Correction>
0.0481

> <Gold.Rescore>
     Score         DG    S(hbond)    S(metal)    S(lipo)     H(rot)  DE(clash)    DE(int)     intcor
      9.73     -13.96       1.96        0.00      83.74       3.07       1.17       3.06       ----

> <Gold.Chemscore.Fitness>
9.7331

> <Gold.Chemscore.DG>
-13.9577

> <Gold.Chemscore.ZeroCoef>
-5.4800

> <Gold.Chemscore.Hbond>
1.9602

> <Gold.Chemscore.Metal>
0.0000

> <Gold.Chemscore.Lipo>
83.7372

> <Gold.Chemscore.Internal_Hbond>
0.0000

> <Gold.Chemscore.DEClash>
1.1671

> <Gold.Chemscore.DEInternal>
3.0575

> <Gold.Chemscore.Rot>
3.0729

> <Gold.Chemscore.Internal.Correction>
   9.000000E+99

> <Gold.Chemscore.Hbonds>
donor molecule, donor type, donor heavy atom, donor atom, acceptor molecule, acceptor atom, score
      L1  H    21    48       P1  8028  0.98
      P1  H  6896  6907       L1    25  0.40

> <Gold.Chemscore.Hbond.Weighted>
-6.5471

> <Gold.Chemscore.Metal.Weighted>
-0.0000

> <Gold.Chemscore.Lipo.Weighted>
-9.7972

> <Gold.Chemscore.Internal_Hbond.Weighted>
0.0000

> <Gold.Chemscore.DEClash.Weighted>
1.1671

> <Gold.Chemscore.DEInternal.Weighted>
3.0575

> <Gold.Chemscore.Rot.Weighted>
7.8667

> <Gold.Chemscore.Internal.Correction.Weighted>
   9.000000E+99

> <Gold.Protein.RotatedTorsions>
[ 6907 6896 6895 6894 ] final  -40.28 input  -60.11 | X-H torsion
[ 7974 7965 7964 7962 ] final  167.19 input  175.53 | X-H torsion
[ 8008 7997 7996 7995 ] final   69.33 input   59.86 | X-H torsion
[ 10167 10162 10161 10158 ] final  113.97 input  -65.29 | X-H torsion
[ 10718 10713 10712 10709 ] final   46.02 input   66.30 | X-H torsion
[ 10763 10752 10751 10750 ] final   80.36 input  -60.55 | X-H torsion
[ 11005 11000 10999 10996 ] final   70.95 input  -57.11 | X-H torsion

> <Gold.Protein.ActiveResidues>
 VAL166  LYS551  ARG553  GLY616  TRP617  ASP618  TYR619  PRO620  LYS621  CYS622 
 ASP623  PHE694  ASN695  SER759  ASP760  ASP761  ALA762  ILE779  LEU786  VAL792 
 PHE793  MET794  SER795  GLU796  ALA797  LYS798  CYS799  TRP800  GLU811  SER814 

> <Gold.Protein.RotatedAtoms>
  150.9803  134.9159  159.7839 H   0  0  0  0  0  0  0  0  0  0  0  0  # atno 6907 bound_to 6896
  152.5219  134.3420  159.9230 H   0  0  0  0  0  0  0  0  0  0  0  0  # atno 6908 bound_to 6896
  151.3427  133.3915  159.2707 H   0  0  0  0  0  0  0  0  0  0  0  0  # atno 6909 bound_to 6896
  144.7433  139.8725  143.6390 H   0  0  0  0  0  0  0  0  0  0  0  0  # atno 7974 bound_to 7965
  155.7219  140.3493  155.5020 H   0  0  0  0  0  0  0  0  0  0  0  0  # atno 8008 bound_to 7997
  155.9261  140.1076  157.1190 H   0  0  0  0  0  0  0  0  0  0  0  0  # atno 8009 bound_to 7997
  154.4077  140.1240  156.4729 H   0  0  0  0  0  0  0  0  0  0  0  0  # atno 8010 bound_to 7997
  139.6422  144.7124  151.2213 H   0  0  0  0  0  0  0  0  0  0  0  0  # atno 10167 bound_to 10162
  157.4437  130.8096  149.7719 H   0  0  0  0  0  0  0  0  0  0  0  0  # atno 10718 bound_to 10713
  153.1027  135.4805  154.8896 H   0  0  0  0  0  0  0  0  0  0  0  0  # atno 10763 bound_to 10752
  154.7396  135.3079  154.8753 H   0  0  0  0  0  0  0  0  0  0  0  0  # atno 10764 bound_to 10752
  153.9365  135.6839  153.4798 H   0  0  0  0  0  0  0  0  0  0  0  0  # atno 10765 bound_to 10752
  139.9570  134.7127  156.0731 H   0  0  0  0  0  0  0  0  0  0  0  0  # atno 11005 bound_to 11000
  146.1269  139.4297  143.0193 LP  0  0  0  0  0  0  0  0  0  0  0  0  # atno 17320 bound_to 7965
  145.7221  141.0071  143.1397 LP  0  0  0  0  0  0  0  0  0  0  0  0  # atno 17321 bound_to 7965
  140.7497  143.6292  150.8439 LP  0  0  0  0  0  0  0  0  0  0  0  0  # atno 17342 bound_to 10162
  139.9930  143.5826  152.2903 LP  0  0  0  0  0  0  0  0  0  0  0  0  # atno 17343 bound_to 10162
  155.9959  130.3909  150.2802 LP  0  0  0  0  0  0  0  0  0  0  0  0  # atno 17370 bound_to 10713
  157.0968  131.0185  151.3100 LP  0  0  0  0  0  0  0  0  0  0  0  0  # atno 17371 bound_to 10713
  141.1242  133.6604  156.3294 LP  0  0  0  0  0  0  0  0  0  0  0  0  # atno 17394 bound_to 11000
  140.5587  134.5956  157.5428 LP  0  0  0  0  0  0  0  0  0  0  0  0  # atno 17395 bound_to 11000

$$$$
