AV-unprocessed.smi:82|AV-procd|sdf|799|dock3
  -GOLD-   2262017183D 1   1.00000     0.00000
 Structure written by MMmdl.
 58 61  0  0  0  0  0  0  0  0  1 V2000
  156.4046  133.1785  159.5149 C   0  0  0  0  0  0  0  0  0  0  0  0
  156.2829  132.2887  158.4188 O   0  0  0  0  0  0  0  0  0  0  0  0
  154.9602  131.8055  158.2545 C   0  0  0  0  0  0  0  0  0  0  0  0
  154.8058  131.2782  156.8183 C   0  0  0  0  0  0  0  0  0  0  0  0
  153.4870  130.7223  156.4863 N   0  0  0  0  0  0  0  0  0  0  0  0
  152.4455  131.7504  156.6089 C   0  0  0  0  0  0  0  0  0  0  0  0
  151.0395  131.2152  156.3040 C   0  0  0  0  0  0  0  0  0  0  0  0
  151.0138  130.6346  154.9655 N   0  0  0  0  0  0  0  0  0  0  0  0
  149.8065  130.3470  154.4153 C   0  0  0  0  0  0  0  0  0  0  0  0
  149.3199  129.0778  154.4663 N   0  0  0  0  0  0  0  0  0  0  0  0
  148.1384  128.7842  153.9157 C   0  0  0  0  0  0  0  0  0  0  0  0
  147.2892  129.5945  153.2817 N   0  0  0  0  0  0  0  0  0  0  0  0
  147.7633  130.8725  153.2389 C   0  0  0  0  0  0  0  0  0  0  0  0
  149.0025  131.3296  153.7711 C   0  0  0  0  0  0  0  0  0  0  0  0
  149.1438  132.6919  153.5336 N   0  0  0  0  0  0  0  0  0  0  0  0
  148.0596  133.0174  152.8846 C   0  0  0  0  0  0  0  0  0  0  0  0
  147.1619  131.9921  152.6905 N   0  0  0  0  0  0  0  0  0  0  0  0
  145.9177  132.0661  151.9827 C   0  0  0  0  0  0  0  0  0  0  0  0
  145.8619  132.5398  150.5290 C   0  0  0  0  0  0  0  0  0  0  0  0
  144.4659  133.1506  150.7892 C   0  0  0  0  0  0  0  0  0  0  0  0
  144.2053  134.5378  150.1771 C   0  0  0  0  0  0  0  0  0  0  0  0
  145.3932  135.2926  150.0552 O   0  0  0  0  0  0  0  0  0  0  0  0
  143.2520  132.2368  150.5173 C   0  0  0  0  0  0  0  0  0  0  0  0
  142.9220  132.1787  149.1448 O   0  0  0  0  0  0  0  0  0  0  0  0
  144.9064  133.1787  152.2702 C   0  0  0  0  0  0  0  0  0  0  0  0
  152.0366  129.6096  154.7809 C   0  0  0  0  0  0  0  0  0  0  0  0
  153.4420  130.1577  155.1206 C   0  0  2  0  0  0  0  0  0  0  0  0
  154.4599  129.0280  154.8650 C   0  0  0  0  0  0  0  0  0  0  0  0
  157.4386  133.5112  159.6041 H   0  0  0  0  0  0  0  0  0  0  0  0
  156.1260  132.6923  160.4505 H   0  0  0  0  0  0  0  0  0  0  0  0
  155.7777  134.0608  159.3784 H   0  0  0  0  0  0  0  0  0  0  0  0
  154.7658  131.0051  158.9703 H   0  0  0  0  0  0  0  0  0  0  0  0
  154.2562  132.6134  158.4553 H   0  0  0  0  0  0  0  0  0  0  0  0
  155.0680  132.0649  156.1094 H   0  0  0  0  0  0  0  0  0  0  0  0
  155.5634  130.5050  156.7055 H   0  0  0  0  0  0  0  0  0  0  0  0
  152.4291  132.1550  157.6198 H   0  0  0  0  0  0  0  0  0  0  0  0
  152.6680  132.5860  155.9431 H   0  0  0  0  0  0  0  0  0  0  0  0
  150.7564  130.4608  157.0394 H   0  0  0  0  0  0  0  0  0  0  0  0
  150.3163  132.0289  156.3742 H   0  0  0  0  0  0  0  0  0  0  0  0
  147.8285  127.7527  153.9959 H   0  0  0  0  0  0  0  0  0  0  0  0
  147.8813  134.0241  152.5353 H   0  0  0  0  0  0  0  0  0  0  0  0
  145.4538  131.0836  152.0860 H   0  0  0  0  0  0  0  0  0  0  0  0
  146.6164  133.2969  150.3060 H   0  0  0  0  0  0  0  0  0  0  0  0
  145.8875  131.7372  149.7915 H   0  0  0  0  0  0  0  0  0  0  0  0
  143.7340  134.4574  149.1972 H   0  0  0  0  0  0  0  0  0  0  0  0
  143.5189  135.1127  150.7997 H   0  0  0  0  0  0  0  0  0  0  0  0
  145.7526  135.1519  149.1929 H   0  0  0  0  0  0  0  0  0  0  0  0
  143.4460  131.2166  150.8487 H   0  0  0  0  0  0  0  0  0  0  0  0
  142.3758  132.5717  151.0733 H   0  0  0  0  0  0  0  0  0  0  0  0
  142.2693  132.8374  148.9638 H   0  0  0  0  0  0  0  0  0  0  0  0
  144.1301  132.9077  152.9865 H   0  0  0  0  0  0  0  0  0  0  0  0
  145.3915  134.1129  152.5596 H   0  0  0  0  0  0  0  0  0  0  0  0
  151.8006  128.7589  155.4223 H   0  0  0  0  0  0  0  0  0  0  0  0
  152.0311  129.2371  153.7572 H   0  0  0  0  0  0  0  0  0  0  0  0
  153.6596  130.9564  154.4095 H   0  0  0  0  0  0  0  0  0  0  0  0
  154.2918  128.5626  153.8933 H   0  0  0  0  0  0  0  0  0  0  0  0
  154.3835  128.2462  155.6213 H   0  0  0  0  0  0  0  0  0  0  0  0
  155.4870  129.3913  154.8538 H   0  0  0  0  0  0  0  0  0  0  0  0
  1  2  1  0  0  0  0
  1 29  1  0  0  0  0
  1 30  1  0  0  0  0
  1 31  1  0  0  0  0
  2  3  1  0  0  0  0
  3  4  1  0  0  0  0
  3 32  1  0  0  0  0
  3 33  1  0  0  0  0
  4  5  1  0  0  0  0
  4 34  1  0  0  0  0
  4 35  1  0  0  0  0
  5 27  1  0  0  0  0
  5  6  1  0  0  0  0
  6  7  1  0  0  0  0
  6 36  1  0  0  0  0
  6 37  1  0  0  0  0
  7  8  1  0  0  0  0
  7 38  1  0  0  0  0
  7 39  1  0  0  0  0
  8  9  1  0  0  0  0
  8 26  1  0  0  0  0
  9 14  1  0  0  0  0
  9 10  2  0  0  0  0
 10 11  1  0  0  0  0
 11 12  2  0  0  0  0
 11 40  1  0  0  0  0
 12 13  1  0  0  0  0
 13 17  1  0  0  0  0
 13 14  2  0  0  0  0
 14 15  1  0  0  0  0
 15 16  2  0  0  0  0
 16 17  1  0  0  0  0
 16 41  1  0  0  0  0
 17 18  1  0  0  0  0
 18 25  1  0  0  0  0
 18 19  1  0  0  0  0
 18 42  1  0  0  0  0
 19 20  1  0  0  0  0
 19 43  1  0  0  0  0
 19 44  1  0  0  0  0
 20 21  1  0  0  0  0
 20 23  1  0  0  0  0
 20 25  1  0  0  0  0
 21 22  1  0  0  0  0
 21 45  1  0  0  0  0
 21 46  1  0  0  0  0
 22 47  1  0  0  0  0
 23 24  1  0  0  0  0
 23 48  1  0  0  0  0
 23 49  1  0  0  0  0
 24 50  1  0  0  0  0
 25 51  1  0  0  0  0
 25 52  1  0  0  0  0
 26 27  1  0  0  0  0
 26 53  1  0  0  0  0
 26 54  1  0  0  0  0
 27 28  1  0  0  0  0
 27 55  1  0  0  0  0
 28 56  1  0  0  0  0
 28 57  1  0  0  0  0
 28 58  1  0  0  0  0
M  END
> <s_m_source_file>
AV-unprocessed.smi

> <i_m_source_file_index>
82

> <i_lp_mmshare_version>
43012

> <i_f3d_flags>
0

> <s_epik_input>
W0NIM11PW0NIMl1bQ0gyXU4xW0NIMl1bQ0gyXU4oW0NIMl1bQ0BIXTFbQ0gzXSljKG5bY0hdbjIpYyhjMjMpbltjSF1uM1tDSF0oW0NIMl00KVtDSDJdQzQoW0NIMl1bT0hdKVtDSDJdW09IXQ==

> <s_epik_cmdline>
J2VwaWtfcHl0aG9uJywgJy1waCcsICc3LjAnLCAnLXRuJywgJzgnLCAnLW1hJywgJzIwMCcsICctbWV0YWxfYmluZGluZycsICctaW1hZScsICc8aW5maWxlLm1hZT4nLCAnLW9tYWUnLCAnPG91dGZpbGUubWFlPic=

> <r_lp_tautomer_probability>
1

> <r_epik_Ionization_Penalty>
0.549054

> <r_epik_Ionization_Penalty_Charging>
0

> <r_epik_Ionization_Penalty_Neutral>
0.549054

> <r_epik_State_Penalty>
0.552556

> <r_epik_Charging_Adjusted_Penalty>
0.552556

> <i_epik_Tot_Q>
0

> <i_epik_Tot_abs_Q>
0

> <r_epik_Metal_State_Penalty>
0.545162

> <b_epik_Metal_Only>
0

> <s_lp_Force_Field>
OPLS_2005

> <r_lp_Energy>
68.3354

> <b_lp_Chiralities_Consistent>
1

> <s_lp_Variant>
AV-unprocessed.smi:82-6

> <Gold.Version>
5.8.1

> <Gold.Id.Protein>
6NUR|6NUR_protein|mol2

> <Gold.PLP.Fitness>
51.7377

> <Gold.PLP.PLP>
-42.1744

> <Gold.PLP.part.hbond>
-4.0000

> <Gold.PLP.part.metal>
0.0000

> <Gold.PLP.part.buried>
-5.0822

> <Gold.PLP.part.nonpolar>
-34.1512

> <Gold.PLP.part.repulsive>
0.3526

> <Gold.PLP.ligand.clash>
0.0000

> <Gold.PLP.ligand.torsion>
1.2566

> <Gold.PLP.Chemscore.Hbond>
2.6900

> <Gold.PLP.Chemscore.CHOScore>
1.0000

> <Gold.PLP.Chemscore.Metal>
0.0000

> <Gold.Chemscore.Hbonds>
donor molecule, donor type, donor heavy atom, donor atom, acceptor molecule, acceptor atom, score
      L1  H    22    47       P1  7921  1.00
      L1  H    24    50       P1 10186  0.84
      P1  H 10785 10796       L1    24  0.84
      L1  C    16    41       P1  7948  1.00

> <Gold.PLP.Chemscore.Internal.Correction>
1.0065

> <Gold.Rescore>
     Score         DG    S(hbond)    S(metal)    S(lipo)     H(rot)  DE(clash)    DE(int)     intcor
     11.09     -12.35       2.02        0.00      85.23       3.84       0.09       1.17       ----

> <Gold.Chemscore.Fitness>
11.0867

> <Gold.Chemscore.DG>
-12.3513

> <Gold.Chemscore.ZeroCoef>
-5.4800

> <Gold.Chemscore.Hbond>
2.0176

> <Gold.Chemscore.Metal>
0.0000

> <Gold.Chemscore.Lipo>
85.2274

> <Gold.Chemscore.Internal_Hbond>
0.0000

> <Gold.Chemscore.DEClash>
0.0933

> <Gold.Chemscore.DEInternal>
1.1713

> <Gold.Chemscore.Rot>
3.8434

> <Gold.Chemscore.Internal.Correction>
   9.000000E+99

> <Gold.Chemscore.Hbonds>
donor molecule, donor type, donor heavy atom, donor atom, acceptor molecule, acceptor atom, score
      L1  H    22    47       P1  7921  0.99
      L1  H    24    50       P1 10186  0.80
      P1  H 10785 10796       L1    24  0.28

> <Gold.Chemscore.Hbond.Weighted>
-6.7388

> <Gold.Chemscore.Metal.Weighted>
-0.0000

> <Gold.Chemscore.Lipo.Weighted>
-9.9716

> <Gold.Chemscore.Internal_Hbond.Weighted>
0.0000

> <Gold.Chemscore.DEClash.Weighted>
0.0933

> <Gold.Chemscore.DEInternal.Weighted>
1.1713

> <Gold.Chemscore.Rot.Weighted>
9.8391

> <Gold.Chemscore.Internal.Correction.Weighted>
   9.000000E+99

> <Gold.Protein.RotatedTorsions>
[ 6907 6896 6895 6894 ] final  -45.50 input  -60.11 | X-H torsion
[ 7974 7965 7964 7962 ] final   52.92 input  175.53 | X-H torsion
[ 8008 7997 7996 7995 ] final   37.96 input   59.86 | X-H torsion
[ 10167 10162 10161 10158 ] final  -18.18 input  -65.29 | X-H torsion
[ 10718 10713 10712 10709 ] final   61.07 input   66.30 | X-H torsion
[ 10763 10752 10751 10750 ] final   43.54 input  -60.55 | X-H torsion
[ 11005 11000 10999 10996 ] final -135.29 input  -57.11 | X-H torsion

> <Gold.Protein.ActiveResidues>
 VAL166  LYS551  ARG553  GLY616  TRP617  ASP618  TYR619  PRO620  LYS621  CYS622 
 ASP623  PHE694  ASN695  SER759  ASP760  ASP761  ALA762  ILE779  LEU786  VAL792 
 PHE793  MET794  SER795  GLU796  ALA797  LYS798  CYS799  TRP800  GLU811  SER814 

> <Gold.Protein.RotatedAtoms>
  150.9212  134.8630  159.7489 H   0  0  0  0  0  0  0  0  0  0  0  0  # atno 6907 bound_to 6896
  152.4993  134.4215  159.9492 H   0  0  0  0  0  0  0  0  0  0  0  0  # atno 6908 bound_to 6896
  151.4249  133.3647  159.2796 H   0  0  0  0  0  0  0  0  0  0  0  0  # atno 6909 bound_to 6896
  145.9764  139.4199  143.0158 H   0  0  0  0  0  0  0  0  0  0  0  0  # atno 7974 bound_to 7965
  155.2124  140.3324  155.4327 H   0  0  0  0  0  0  0  0  0  0  0  0  # atno 8008 bound_to 7997
  156.2365  140.1875  156.7153 H   0  0  0  0  0  0  0  0  0  0  0  0  # atno 8009 bound_to 7997
  154.6069  140.0614  156.9428 H   0  0  0  0  0  0  0  0  0  0  0  0  # atno 8010 bound_to 7997
  140.7256  143.4942  150.9953 H   0  0  0  0  0  0  0  0  0  0  0  0  # atno 10167 bound_to 10162
  157.5800  130.8974  149.9414 H   0  0  0  0  0  0  0  0  0  0  0  0  # atno 10718 bound_to 10713
  152.9858  135.6098  154.3128 H   0  0  0  0  0  0  0  0  0  0  0  0  # atno 10763 bound_to 10752
  154.2842  135.2776  155.2685 H   0  0  0  0  0  0  0  0  0  0  0  0  # atno 10764 bound_to 10752
  154.5010  135.5867  153.6588 H   0  0  0  0  0  0  0  0  0  0  0  0  # atno 10765 bound_to 10752
  140.8912  134.1810  157.4526 H   0  0  0  0  0  0  0  0  0  0  0  0  # atno 11005 bound_to 11000
  145.7832  140.9847  143.1088 LP  0  0  0  0  0  0  0  0  0  0  0  0  # atno 17320 bound_to 7965
  144.6850  139.9590  143.7480 LP  0  0  0  0  0  0  0  0  0  0  0  0  # atno 17321 bound_to 7965
  139.8648  143.7268  152.3171 LP  0  0  0  0  0  0  0  0  0  0  0  0  # atno 17342 bound_to 10162
  139.7496  144.7538  151.0526 LP  0  0  0  0  0  0  0  0  0  0  0  0  # atno 17343 bound_to 10162
  156.0846  130.3669  150.0513 LP  0  0  0  0  0  0  0  0  0  0  0  0  # atno 17370 bound_to 10713
  156.8654  130.9506  151.3614 LP  0  0  0  0  0  0  0  0  0  0  0  0  # atno 17371 bound_to 10713
  139.8730  134.9859  156.5301 LP  0  0  0  0  0  0  0  0  0  0  0  0  # atno 17394 bound_to 11000
  140.8345  133.8253  155.9015 LP  0  0  0  0  0  0  0  0  0  0  0  0  # atno 17395 bound_to 11000

$$$$
