AV-unprocessed.smi:290|AV-procd|sdf|2223|dock5
  -GOLD-   2262022 73D 1   1.00000     0.00000
 Structure written by MMmdl.
 59 62  0  0  0  0  0  0  0  0  2 V2000
  152.0406  144.0915  158.4305 C   0  0  0  0  0  0  0  0  0  0  0  0
  152.1044  142.5763  158.6741 C   0  0  2  0  0  0  0  0  0  0  0  0
  153.3326  142.0390  158.1908 O   0  0  0  0  0  0  0  0  0  0  0  0
  153.1311  140.7171  157.6986 C   0  0  0  0  0  0  0  0  0  0  0  0
  151.6866  140.3632  158.0406 C   0  0  0  0  0  0  0  0  0  0  0  0
  150.9979  141.7222  158.0261 C   0  0  1  0  0  0  0  0  0  0  0  0
  149.8616  141.6666  158.8679 O   0  0  0  0  0  0  0  0  0  0  0  0
  150.5798  142.1994  156.6078 C   0  0  0  0  0  0  0  0  0  0  0  0
  149.8073  141.2221  155.8576 N   0  0  0  0  0  0  0  0  0  0  0  0
  150.0123  140.8298  154.5532 C   0  0  0  0  0  0  0  0  0  0  0  0
  149.1774  139.9327  154.1025 N   0  0  0  0  0  0  0  0  0  0  0  0
  148.3249  139.7026  155.1743 C   0  0  0  0  0  0  0  0  0  0  0  0
  147.2023  138.8594  155.3758 C   0  0  0  0  0  0  0  0  0  0  0  0
  146.7531  138.0381  154.4015 N   0  0  0  0  0  0  0  0  0  0  0  0
  146.2300  138.7185  153.2276 C   0  0  0  0  0  0  0  0  0  0  0  0
  145.4956  137.6416  152.4214 C   0  0  0  0  0  0  0  0  0  0  0  0
  145.1783  136.5300  153.4465 C   0  0  1  0  0  0  0  0  0  0  0  0
  145.6710  135.1665  153.0758 N   0  3  2  0  0  0  0  0  0  0  0  0
  147.1198  135.0732  152.7593 C   0  0  0  0  0  0  0  0  0  0  0  0
  144.8341  134.4888  152.0523 C   0  0  0  0  0  0  0  0  0  0  0  0
  144.8028  135.2576  150.7201 C   0  0  0  0  0  0  0  0  0  0  0  0
  143.6511  134.9016  149.9849 O   0  0  0  0  0  0  0  0  0  0  0  0
  145.7369  137.0661  154.7814 C   0  0  1  0  0  0  0  0  0  0  0  0
  146.2088  136.0268  155.8186 C   0  0  0  0  0  0  0  0  0  0  0  0
  146.5884  138.8915  156.5879 N   0  0  0  0  0  0  0  0  0  0  0  0
  147.0479  139.7037  157.5450 C   0  0  0  0  0  0  0  0  0  0  0  0
  148.0844  140.5442  157.5003 N   0  0  0  0  0  0  0  0  0  0  0  0
  148.7019  140.5076  156.2842 C   0  0  0  0  0  0  0  0  0  0  0  0
  144.0972  136.4707  153.5700 H   0  0  0  0  0  0  0  0  0  0  0  0
  144.9234  137.6242  155.2488 H   0  0  0  0  0  0  0  0  0  0  0  0
  151.0865  144.5017  158.7622 H   0  0  0  0  0  0  0  0  0  0  0  0
  152.1678  144.3370  157.3762 H   0  0  0  0  0  0  0  0  0  0  0  0
  152.8303  144.6028  158.9810 H   0  0  0  0  0  0  0  0  0  0  0  0
  152.0996  142.3989  159.7515 H   0  0  0  0  0  0  0  0  0  0  0  0
  153.2815  140.7195  156.6185 H   0  0  0  0  0  0  0  0  0  0  0  0
  153.8427  140.0175  158.1371 H   0  0  0  0  0  0  0  0  0  0  0  0
  151.2544  139.6235  157.3682 H   0  0  0  0  0  0  0  0  0  0  0  0
  151.6584  139.9378  159.0454 H   0  0  0  0  0  0  0  0  0  0  0  0
  149.1225  142.0232  158.3990 H   0  0  0  0  0  0  0  0  0  0  0  0
  149.9823  143.1092  156.6747 H   0  0  0  0  0  0  0  0  0  0  0  0
  151.4597  142.4585  156.0178 H   0  0  0  0  0  0  0  0  0  0  0  0
  150.8118  141.2276  153.9449 H   0  0  0  0  0  0  0  0  0  0  0  0
  145.5363  139.5085  153.5196 H   0  0  0  0  0  0  0  0  0  0  0  0
  147.0337  139.1741  152.6481 H   0  0  0  0  0  0  0  0  0  0  0  0
  144.5869  138.0452  151.9737 H   0  0  0  0  0  0  0  0  0  0  0  0
  146.1196  137.2992  151.5986 H   0  0  0  0  0  0  0  0  0  0  0  0
  147.3381  135.4158  151.7479 H   0  0  0  0  0  0  0  0  0  0  0  0
  147.4440  134.0345  152.8267 H   0  0  0  0  0  0  0  0  0  0  0  0
  147.7326  135.6491  153.4515 H   0  0  0  0  0  0  0  0  0  0  0  0
  145.1991  133.4725  151.8981 H   0  0  0  0  0  0  0  0  0  0  0  0
  143.8091  134.3894  152.4136 H   0  0  0  0  0  0  0  0  0  0  0  0
  144.8254  136.3370  150.8642 H   0  0  0  0  0  0  0  0  0  0  0  0
  145.6796  135.0001  150.1254 H   0  0  0  0  0  0  0  0  0  0  0  0
  143.5550  135.5045  149.2628 H   0  0  0  0  0  0  0  0  0  0  0  0
  145.4255  135.2961  156.0210 H   0  0  0  0  0  0  0  0  0  0  0  0
  146.4552  136.5067  156.7662 H   0  0  0  0  0  0  0  0  0  0  0  0
  147.0966  135.4866  155.4920 H   0  0  0  0  0  0  0  0  0  0  0  0
  146.5091  139.6749  158.4808 H   0  0  0  0  0  0  0  0  0  0  0  0
  145.5537  134.6099  153.9109 H   0  0  0  0  0  0  0  0  0  0  0  0
  1  2  1  0  0  0  0
  1 31  1  0  0  0  0
  1 32  1  0  0  0  0
  1 33  1  0  0  0  0
  2  6  1  0  0  0  0
  2  3  1  0  0  0  0
  2 34  1  0  0  0  0
  3  4  1  0  0  0  0
  4  5  1  0  0  0  0
  4 35  1  0  0  0  0
  4 36  1  0  0  0  0
  5  6  1  0  0  0  0
  5 37  1  0  0  0  0
  5 38  1  0  0  0  0
  6  7  1  0  0  0  0
  6  8  1  0  0  0  0
  7 39  1  0  0  0  0
  8  9  1  0  0  0  0
  8 40  1  0  0  0  0
  8 41  1  0  0  0  0
  9 28  1  0  0  0  0
  9 10  1  0  0  0  0
 10 11  2  0  0  0  0
 10 42  1  0  0  0  0
 11 12  1  0  0  0  0
 12 28  2  0  0  0  0
 12 13  1  0  0  0  0
 13 14  1  0  0  0  0
 13 25  2  0  0  0  0
 14 23  1  0  0  0  0
 14 15  1  0  0  0  0
 15 16  1  0  0  0  0
 15 43  1  0  0  0  0
 15 44  1  0  0  0  0
 16 17  1  0  0  0  0
 16 45  1  0  0  0  0
 16 46  1  0  0  0  0
 17 29  1  0  0  0  0
 17 18  1  0  0  0  0
 17 23  1  0  0  0  0
 18 19  1  0  0  0  0
 18 20  1  0  0  0  0
 18 59  1  0  0  0  0
 19 47  1  0  0  0  0
 19 48  1  0  0  0  0
 19 49  1  0  0  0  0
 20 21  1  0  0  0  0
 20 50  1  0  0  0  0
 20 51  1  0  0  0  0
 21 22  1  0  0  0  0
 21 52  1  0  0  0  0
 21 53  1  0  0  0  0
 22 54  1  0  0  0  0
 23 30  1  0  0  0  0
 23 24  1  0  0  0  0
 24 55  1  0  0  0  0
 24 56  1  0  0  0  0
 24 57  1  0  0  0  0
 25 26  1  0  0  0  0
 26 27  2  0  0  0  0
 26 58  1  0  0  0  0
 27 28  1  0  0  0  0
M  CHG  1  18   1
M  END
> <s_m_source_file>
AV-unprocessed.smi

> <i_m_source_file_index>
290

> <i_lp_mmshare_version>
43012

> <i_f3d_flags>
0

> <s_epik_input>
W0NIMl0xW0NIMl1PW0NAQEhdKFtDSDNdKVtDQEBdMShbT0hdKVtDSDJdbihbY0hdbjIpYyhjMjMpbltjSF1uYzNONFtDSDJdW0NIMl1bQ0BIXShbQ0BIXTRbQ0gzXSlOKFtDSDNdKVtDSDJdW0NIMl1bT0hd

> <s_epik_cmdline>
J2VwaWtfcHl0aG9uJywgJy1waCcsICc3LjAnLCAnLXRuJywgJzgnLCAnLW1hJywgJzIwMCcsICctbWV0YWxfYmluZGluZycsICctaW1hZScsICc8aW5maWxlLm1hZT4nLCAnLW9tYWUnLCAnPG91dGZpbGUubWFlPic=

> <r_lp_tautomer_probability>
1

> <r_epik_Ionization_Penalty>
0.0036983

> <r_epik_Ionization_Penalty_Charging>
0.0032725

> <r_epik_Ionization_Penalty_Neutral>
0.000425798

> <r_epik_State_Penalty>
-0

> <r_epik_Charging_Adjusted_Penalty>
0.0032725

> <i_epik_Tot_Q>
1

> <i_epik_Tot_abs_Q>
1

> <r_epik_Metal_State_Penalty>
-0

> <b_epik_Metal_Only>
0

> <s_lp_Force_Field>
OPLS_2005

> <r_lp_Energy>
69.2508

> <b_lp_Chiralities_Consistent>
1

> <s_lp_Variant>
AV-unprocessed.smi:290-9

> <Gold.Version>
5.8.1

> <Gold.Id.Protein>
6NUR|6NUR_protein|mol2

> <Gold.PLP.Fitness>
41.7558

> <Gold.PLP.PLP>
-37.1242

> <Gold.PLP.part.hbond>
-2.9516

> <Gold.PLP.part.metal>
0.0000

> <Gold.PLP.part.buried>
-0.6788

> <Gold.PLP.part.nonpolar>
-35.2681

> <Gold.PLP.part.repulsive>
0.9167

> <Gold.PLP.ligand.clash>
0.0000

> <Gold.PLP.ligand.torsion>
0.6533

> <Gold.PLP.Chemscore.Hbond>
1.9280

> <Gold.PLP.Chemscore.CHOScore>
0.0000

> <Gold.PLP.Chemscore.Metal>
0.0000

> <Gold.PLP.Chemscore.Internal.Correction>
0.1543

> <Gold.Rescore>
     Score         DG    S(hbond)    S(metal)    S(lipo)     H(rot)  DE(clash)    DE(int)     intcor
      5.63     -10.88       1.54        0.00      82.30       3.67       0.73       4.52       ----

> <Gold.Chemscore.Fitness>
5.6328

> <Gold.Chemscore.DG>
-10.8834

> <Gold.Chemscore.ZeroCoef>
-5.4800

> <Gold.Chemscore.Hbond>
1.5447

> <Gold.Chemscore.Metal>
0.0000

> <Gold.Chemscore.Lipo>
82.2966

> <Gold.Chemscore.Internal_Hbond>
0.0000

> <Gold.Chemscore.DEClash>
0.7350

> <Gold.Chemscore.DEInternal>
4.5157

> <Gold.Chemscore.Rot>
3.6658

> <Gold.Chemscore.Internal.Correction>
   9.000000E+99

> <Gold.Chemscore.Hbond.Weighted>
-5.1592

> <Gold.Chemscore.Metal.Weighted>
-0.0000

> <Gold.Chemscore.Lipo.Weighted>
-9.6287

> <Gold.Chemscore.Internal_Hbond.Weighted>
0.0000

> <Gold.Chemscore.DEClash.Weighted>
0.7350

> <Gold.Chemscore.DEInternal.Weighted>
4.5157

> <Gold.Chemscore.Rot.Weighted>
9.3844

> <Gold.Chemscore.Internal.Correction.Weighted>
   9.000000E+99

> <Gold.Protein.RotatedTorsions>
[ 6907 6896 6895 6894 ] final -128.46 input  -60.11 | X-H torsion
[ 7974 7965 7964 7962 ] final  -37.98 input  175.53 | X-H torsion
[ 8008 7997 7996 7995 ] final  178.24 input   59.86 | X-H torsion
[ 10167 10162 10161 10158 ] final   81.05 input  -65.29 | X-H torsion
[ 10718 10713 10712 10709 ] final   43.29 input   66.30 | X-H torsion
[ 10763 10752 10751 10750 ] final   85.92 input  -60.55 | X-H torsion
[ 11005 11000 10999 10996 ] final -139.45 input  -57.11 | X-H torsion

> <Gold.Protein.ActiveResidues>
 VAL166  LYS551  ARG553  GLY616  TRP617  ASP618  TYR619  PRO620  LYS621  CYS622 
 ASP623  PHE694  ASN695  SER759  ASP760  ASP761  ALA762  ILE779  LEU786  VAL792 
 PHE793  MET794  SER795  GLU796  ALA797  LYS798  CYS799  TRP800  GLU811  SER814 

> <Gold.Protein.RotatedAtoms>
  150.9181  133.6914  159.2838 H   0  0  0  0  0  0  0  0  0  0  0  0  # atno 6907 bound_to 6896
  151.4377  135.1015  159.9671 H   0  0  0  0  0  0  0  0  0  0  0  0  # atno 6908 bound_to 6896
  152.4965  133.8597  159.7299 H   0  0  0  0  0  0  0  0  0  0  0  0  # atno 6909 bound_to 6896
  146.0527  140.6459  142.9034 H   0  0  0  0  0  0  0  0  0  0  0  0  # atno 7974 bound_to 7965
  156.0569  140.1338  156.9986 H   0  0  0  0  0  0  0  0  0  0  0  0  # atno 8008 bound_to 7997
  154.4462  140.0999  156.6529 H   0  0  0  0  0  0  0  0  0  0  0  0  # atno 8009 bound_to 7997
  155.5438  140.3461  155.4455 H   0  0  0  0  0  0  0  0  0  0  0  0  # atno 8010 bound_to 7997
  139.9433  144.6075  150.8230 H   0  0  0  0  0  0  0  0  0  0  0  0  # atno 10167 bound_to 10162
  157.4142  130.7932  149.7458 H   0  0  0  0  0  0  0  0  0  0  0  0  # atno 10718 bound_to 10713
  153.1520  135.4599  154.9651 H   0  0  0  0  0  0  0  0  0  0  0  0  # atno 10763 bound_to 10752
  154.7832  135.3195  154.7946 H   0  0  0  0  0  0  0  0  0  0  0  0  # atno 10764 bound_to 10752
  153.8449  135.6927  153.4853 H   0  0  0  0  0  0  0  0  0  0  0  0  # atno 10765 bound_to 10752
  140.8518  134.2276  157.4756 H   0  0  0  0  0  0  0  0  0  0  0  0  # atno 11005 bound_to 11000
  144.7131  140.4112  143.7065 LP  0  0  0  0  0  0  0  0  0  0  0  0  # atno 17320 bound_to 7965
  145.6697  139.1597  143.2762 LP  0  0  0  0  0  0  0  0  0  0  0  0  # atno 17321 bound_to 7965
  140.7604  143.3151  151.2752 LP  0  0  0  0  0  0  0  0  0  0  0  0  # atno 17342 bound_to 10162
  139.6687  144.0059  152.2739 LP  0  0  0  0  0  0  0  0  0  0  0  0  # atno 17343 bound_to 10162
  155.9860  130.3978  150.3234 LP  0  0  0  0  0  0  0  0  0  0  0  0  # atno 17370 bound_to 10713
  157.1375  131.0288  151.2942 LP  0  0  0  0  0  0  0  0  0  0  0  0  # atno 17371 bound_to 10713
  139.8704  134.9687  156.4640 LP  0  0  0  0  0  0  0  0  0  0  0  0  # atno 17394 bound_to 11000
  140.8782  133.7938  155.9437 LP  0  0  0  0  0  0  0  0  0  0  0  0  # atno 17395 bound_to 11000

$$$$
