AV-unprocessed.smi:786|AV-procd|sdf|3722|dock1
  -GOLD-   22720 1143D 1   1.00000     0.00000
 Structure written by MMmdl.
 40 41  0  0  0  0  0  0  0  0  2 V2000
  150.1074  134.4411  157.0385 O   0  0  0  0  0  0  0  0  0  0  0  0
  151.0392  135.3855  156.4043 S   0  0  0  0  0  0  0  0  0  0  0  0
  152.4160  135.5154  156.9053 O   0  0  0  0  0  0  0  0  0  0  0  0
  151.0539  135.0746  154.5800 C   0  0  0  0  0  0  0  0  0  0  0  0
  150.5346  133.6746  154.1945 C   0  0  0  0  0  0  0  0  0  0  0  0
  151.5364  132.5772  154.5905 C   0  0  0  0  0  0  0  0  0  0  0  0
  151.0330  131.1914  154.1541 C   0  0  0  0  0  0  0  0  0  0  0  0
  150.7961  131.1793  152.7510 O   0  0  0  0  0  0  0  0  0  0  0  0
  149.7912  132.1042  152.3509 C   0  0  0  0  0  0  0  0  0  0  0  0
  150.2311  133.5377  152.6900 C   0  0  0  0  0  0  0  0  0  0  0  0
  150.3010  136.9443  156.4980 N   0  0  0  0  0  0  0  0  0  0  0  0
  150.9781  138.0794  155.8703 C   0  0  0  0  0  0  0  0  0  0  0  0
  150.6271  138.1718  154.3769 C   0  0  0  0  0  0  0  0  0  0  0  0
  149.3804  138.9995  154.1319 C   0  0  0  0  0  0  0  0  0  0  0  0
  149.1473  140.2191  154.8036 C   0  0  0  0  0  0  0  0  0  0  0  0
  147.9638  140.9382  154.5359 C   0  0  0  0  0  0  0  0  0  0  0  0
  147.0392  140.4232  153.6037 C   0  0  0  0  0  0  0  0  0  0  0  0
  147.3215  139.1994  152.9630 C   0  0  0  0  0  0  0  0  0  0  0  0
  148.4664  138.5401  153.2465 N   0  3  0  0  0  0  0  0  0  0  0  0
  150.4466  135.8436  154.1019 H   0  0  0  0  0  0  0  0  0  0  0  0
  152.0763  135.2261  154.2334 H   0  0  0  0  0  0  0  0  0  0  0  0
  149.6161  133.4890  154.7534 H   0  0  0  0  0  0  0  0  0  0  0  0
  152.5036  132.7730  154.1256 H   0  0  0  0  0  0  0  0  0  0  0  0
  151.7007  132.5858  155.6684 H   0  0  0  0  0  0  0  0  0  0  0  0
  151.7775  130.4313  154.3914 H   0  0  0  0  0  0  0  0  0  0  0  0
  150.1215  130.9219  154.6897 H   0  0  0  0  0  0  0  0  0  0  0  0
  149.6314  132.0060  151.2770 H   0  0  0  0  0  0  0  0  0  0  0  0
  148.8447  131.8622  152.8367 H   0  0  0  0  0  0  0  0  0  0  0  0
  149.4579  134.2373  152.3768 H   0  0  0  0  0  0  0  0  0  0  0  0
  151.1209  133.7852  152.1098 H   0  0  0  0  0  0  0  0  0  0  0  0
  150.0427  137.1625  157.4603 H   0  0  0  0  0  0  0  0  0  0  0  0
  150.6705  138.9916  156.3821 H   0  0  0  0  0  0  0  0  0  0  0  0
  152.0553  137.9830  156.0134 H   0  0  0  0  0  0  0  0  0  0  0  0
  151.4518  138.6079  153.8132 H   0  0  0  0  0  0  0  0  0  0  0  0
  150.4743  137.1723  153.9673 H   0  0  0  0  0  0  0  0  0  0  0  0
  149.8645  140.5994  155.5169 H   0  0  0  0  0  0  0  0  0  0  0  0
  147.7680  141.8731  155.0403 H   0  0  0  0  0  0  0  0  0  0  0  0
  146.1268  140.9587  153.3841 H   0  0  0  0  0  0  0  0  0  0  0  0
  146.6711  138.7318  152.2384 H   0  0  0  0  0  0  0  0  0  0  0  0
  148.6498  137.6562  152.7711 H   0  0  0  0  0  0  0  0  0  0  0  0
  1  2  2  0  0  0  0
  2  3  2  0  0  0  0
  2  4  1  0  0  0  0
  2 11  1  0  0  0  0
  4  5  1  0  0  0  0
  4 20  1  0  0  0  0
  4 21  1  0  0  0  0
  5 10  1  0  0  0  0
  5  6  1  0  0  0  0
  5 22  1  0  0  0  0
  6  7  1  0  0  0  0
  6 23  1  0  0  0  0
  6 24  1  0  0  0  0
  7  8  1  0  0  0  0
  7 25  1  0  0  0  0
  7 26  1  0  0  0  0
  8  9  1  0  0  0  0
  9 10  1  0  0  0  0
  9 27  1  0  0  0  0
  9 28  1  0  0  0  0
 10 29  1  0  0  0  0
 10 30  1  0  0  0  0
 11 12  1  0  0  0  0
 11 31  1  0  0  0  0
 12 13  1  0  0  0  0
 12 32  1  0  0  0  0
 12 33  1  0  0  0  0
 13 14  1  0  0  0  0
 13 34  1  0  0  0  0
 13 35  1  0  0  0  0
 14 19  1  0  0  0  0
 14 15  2  0  0  0  0
 15 16  1  0  0  0  0
 15 36  1  0  0  0  0
 16 17  2  0  0  0  0
 16 37  1  0  0  0  0
 17 18  1  0  0  0  0
 17 38  1  0  0  0  0
 18 19  2  0  0  0  0
 18 39  1  0  0  0  0
 19 40  1  0  0  0  0
M  CHG  1  19   1
M  END
> <s_m_source_file>
AV-unprocessed.smi

> <i_m_source_file_index>
786

> <i_lp_mmshare_version>
43012

> <i_f3d_flags>
0

> <s_epik_input>
W0NIMl0xW0NIMl1PW0NIMl1bQ0gyXVtDSF0xW0NIMl1TKD1PKSg9TylbTkhdW0NIMl1bQ0gyXWMyW2NIXVtjSF1bY0hdW2NIXW4y

> <s_epik_cmdline>
J2VwaWtfcHl0aG9uJywgJy1waCcsICc3LjAnLCAnLXRuJywgJzgnLCAnLW1hJywgJzIwMCcsICctbWV0YWxfYmluZGluZycsICctaW1hZScsICc8aW5maWxlLm1hZT4nLCAnLW9tYWUnLCAnPG91dGZpbGUubWFlPic=

> <r_epik_Ionization_Penalty>
1.99786

> <r_epik_Ionization_Penalty_Charging>
1.99784

> <r_epik_Ionization_Penalty_Neutral>
1.9654e-05

> <r_epik_State_Penalty>
2.12638

> <r_epik_Charging_Adjusted_Penalty>
4.12422

> <i_epik_Tot_Q>
1

> <i_epik_Tot_abs_Q>
1

> <r_epik_Metal_State_Penalty>
2.17464

> <b_epik_Metal_Only>
0

> <s_lp_Force_Field>
OPLS_2005

> <r_lp_Energy>
11.1046

> <b_lp_Chiralities_Consistent>
1

> <s_lp_Variant>
AV-unprocessed.smi:786-2

> <Gold.Version>
5.8.1

> <Gold.Id.Protein>
6NUR|6NUR_protein|mol2

> <Gold.PLP.Fitness>
42.5808

> <Gold.PLP.PLP>
-35.1612

> <Gold.PLP.part.hbond>
-3.4785

> <Gold.PLP.part.metal>
0.0000

> <Gold.PLP.part.buried>
-1.7019

> <Gold.PLP.part.nonpolar>
-30.4622

> <Gold.PLP.part.repulsive>
0.1061

> <Gold.PLP.ligand.clash>
0.0000

> <Gold.PLP.ligand.torsion>
0.8732

> <Gold.PLP.Chemscore.Hbond>
2.9120

> <Gold.PLP.Chemscore.CHOScore>
0.0000

> <Gold.PLP.Chemscore.Metal>
0.0000

> <Gold.Chemscore.Hbonds>
donor molecule, donor type, donor heavy atom, donor atom, acceptor molecule, acceptor atom, score
      L1  H    19    40       P1  7948  2.00
      P1  H 10752 10765       L1     3  0.01

> <Gold.PLP.Chemscore.Internal.Correction>
0.4299

> <Gold.Rescore>
     Score         DG    S(hbond)    S(metal)    S(lipo)     H(rot)  DE(clash)    DE(int)     intcor
     15.06     -15.85       1.82        0.00      79.21       1.94       0.00       0.79       ----

> <Gold.Chemscore.Fitness>
15.0565

> <Gold.Chemscore.DG>
-15.8530

> <Gold.Chemscore.ZeroCoef>
-5.4800

> <Gold.Chemscore.Hbond>
1.8198

> <Gold.Chemscore.Metal>
0.0000

> <Gold.Chemscore.Lipo>
79.2121

> <Gold.Chemscore.Internal_Hbond>
0.0000

> <Gold.Chemscore.DEClash>
0.0021

> <Gold.Chemscore.DEInternal>
0.7943

> <Gold.Chemscore.Rot>
1.9426

> <Gold.Chemscore.Internal.Correction>
   9.000000E+99

> <Gold.Chemscore.Hbonds>
donor molecule, donor type, donor heavy atom, donor atom, acceptor molecule, acceptor atom, score
      L1  H    19    40       P1  7948  1.00
      P1  H  6896  6907       L1     1  0.01

> <Gold.Chemscore.Hbond.Weighted>
-6.0782

> <Gold.Chemscore.Metal.Weighted>
-0.0000

> <Gold.Chemscore.Lipo.Weighted>
-9.2678

> <Gold.Chemscore.Internal_Hbond.Weighted>
0.0000

> <Gold.Chemscore.DEClash.Weighted>
0.0021

> <Gold.Chemscore.DEInternal.Weighted>
0.7943

> <Gold.Chemscore.Rot.Weighted>
4.9731

> <Gold.Chemscore.Internal.Correction.Weighted>
   9.000000E+99

> <Gold.Protein.RotatedTorsions>
[ 6907 6896 6895 6894 ] final  -82.24 input  -60.11 | X-H torsion
[ 7974 7965 7964 7962 ] final -102.57 input  175.53 | X-H torsion
[ 8008 7997 7996 7995 ] final   93.04 input   59.86 | X-H torsion
[ 10167 10162 10161 10158 ] final  110.04 input  -65.29 | X-H torsion
[ 10718 10713 10712 10709 ] final  -83.00 input   66.30 | X-H torsion
[ 10763 10752 10751 10750 ] final  176.21 input  -60.55 | X-H torsion
[ 11005 11000 10999 10996 ] final   61.34 input  -57.11 | X-H torsion

> <Gold.Protein.ActiveResidues>
 VAL166  LYS551  ARG553  GLY616  TRP617  ASP618  TYR619  PRO620  LYS621  CYS622 
 ASP623  PHE694  ASN695  SER759  ASP760  ASP761  ALA762  ILE779  LEU786  VAL792 
 PHE793  MET794  SER795  GLU796  ALA797  LYS798  CYS799  TRP800  GLU811  SER814 

> <Gold.Protein.RotatedAtoms>
  150.6900  134.3695  159.4985 H   0  0  0  0  0  0  0  0  0  0  0  0  # atno 6907 bound_to 6896
  152.1512  134.8984  160.0557 H   0  0  0  0  0  0  0  0  0  0  0  0  # atno 6908 bound_to 6896
  152.0080  133.3816  159.4245 H   0  0  0  0  0  0  0  0  0  0  0  0  # atno 6909 bound_to 6896
  145.2670  140.9287  143.3008 H   0  0  0  0  0  0  0  0  0  0  0  0  # atno 7974 bound_to 7965
  156.0423  140.3318  155.7257 H   0  0  0  0  0  0  0  0  0  0  0  0  # atno 8008 bound_to 7997
  155.5726  140.0629  157.2820 H   0  0  0  0  0  0  0  0  0  0  0  0  # atno 8009 bound_to 7997
  154.4398  140.1858  156.0883 H   0  0  0  0  0  0  0  0  0  0  0  0  # atno 8010 bound_to 7997
  139.6719  144.7124  151.1671 H   0  0  0  0  0  0  0  0  0  0  0  0  # atno 10167 bound_to 10162
  156.0024  130.4652  150.4191 H   0  0  0  0  0  0  0  0  0  0  0  0  # atno 10718 bound_to 10713
  154.4781  135.2773  155.1592 H   0  0  0  0  0  0  0  0  0  0  0  0  # atno 10763 bound_to 10752
  154.3313  135.6189  153.5556 H   0  0  0  0  0  0  0  0  0  0  0  0  # atno 10764 bound_to 10752
  152.9872  135.5766  154.5175 H   0  0  0  0  0  0  0  0  0  0  0  0  # atno 10765 bound_to 10752
  140.0168  134.6213  155.9698 H   0  0  0  0  0  0  0  0  0  0  0  0  # atno 11005 bound_to 11000
  144.9368  139.4235  143.6468 LP  0  0  0  0  0  0  0  0  0  0  0  0  # atno 17320 bound_to 7965
  146.3258  139.8307  142.8909 LP  0  0  0  0  0  0  0  0  0  0  0  0  # atno 17321 bound_to 7965
  140.7621  143.5830  150.8875 LP  0  0  0  0  0  0  0  0  0  0  0  0  # atno 17342 bound_to 10162
  139.9496  143.6287  152.3032 LP  0  0  0  0  0  0  0  0  0  0  0  0  # atno 17343 bound_to 10162
  157.2248  131.0491  151.2526 LP  0  0  0  0  0  0  0  0  0  0  0  0  # atno 17370 bound_to 10713
  157.3766  130.7209  149.6601 LP  0  0  0  0  0  0  0  0  0  0  0  0  # atno 17371 bound_to 10713
  141.1748  133.6539  156.4786 LP  0  0  0  0  0  0  0  0  0  0  0  0  # atno 17394 bound_to 11000
  140.4457  134.6975  157.5014 LP  0  0  0  0  0  0  0  0  0  0  0  0  # atno 17395 bound_to 11000

$$$$
