AV-unprocessed.smi:2345|AV-procd|sdf|9364|dock4
  -GOLD-   2272012583D 1   1.00000     0.00000
 Structure written by MMmdl.
 37 38  0  0  0  0  0  0  0  0  1 V2000
  153.8418  141.8672  161.6959 C   0  0  0  0  0  0  0  0  0  0  0  0
  152.8624  140.9735  160.9314 C   0  0  0  0  0  0  0  0  0  0  0  0
  152.9067  141.3123  159.1497 S   0  0  0  0  0  0  0  0  0  0  0  0
  151.8077  142.7570  159.0567 C   0  0  1  0  0  0  0  0  0  0  0  0
  152.0950  143.7712  160.1671 C   0  0  0  0  0  0  0  0  0  0  0  0
  151.5925  145.0961  159.6038 C   0  0  0  0  0  0  0  0  0  0  0  0
  151.9619  145.0362  158.1214 C   0  0  0  0  0  0  0  0  0  0  0  0
  151.9426  143.5434  157.7347 C   0  0  2  0  0  0  0  0  0  0  0  0
  150.8280  143.2427  156.8392 N   0  0  0  0  0  0  0  0  0  0  0  0
  150.5945  142.0496  156.2754 C   0  0  0  0  0  0  0  0  0  0  0  0
  151.3162  141.0673  156.4454 O   0  0  0  0  0  0  0  0  0  0  0  0
  149.4752  142.0763  155.5322 N   0  0  0  0  0  0  0  0  0  0  0  0
  148.8826  141.0277  154.7767 C   0  0  0  0  0  0  0  0  0  0  0  0
  149.4290  139.7266  154.6570 C   0  0  0  0  0  0  0  0  0  0  0  0
  148.7512  138.7807  153.8619 C   0  0  0  0  0  0  0  0  0  0  0  0
  147.6076  139.0497  153.1971 N   0  0  0  0  0  0  0  0  0  0  0  0
  147.0973  140.2948  153.3021 C   0  0  0  0  0  0  0  0  0  0  0  0
  147.6949  141.3139  154.0705 C   0  0  0  0  0  0  0  0  0  0  0  0
  147.1313  142.5451  154.1296 F   0  0  0  0  0  0  0  0  0  0  0  0
  153.8095  141.6535  162.7643 H   0  0  0  0  0  0  0  0  0  0  0  0
  153.5995  142.9215  161.5598 H   0  0  0  0  0  0  0  0  0  0  0  0
  154.8655  141.7101  161.3552 H   0  0  0  0  0  0  0  0  0  0  0  0
  153.1074  139.9253  161.1024 H   0  0  0  0  0  0  0  0  0  0  0  0
  151.8486  141.1329  161.2989 H   0  0  0  0  0  0  0  0  0  0  0  0
  150.7803  142.4108  159.1826 H   0  0  0  0  0  0  0  0  0  0  0  0
  151.6151  143.5074  161.1100 H   0  0  0  0  0  0  0  0  0  0  0  0
  153.1688  143.8401  160.3477 H   0  0  0  0  0  0  0  0  0  0  0  0
  150.5087  145.1540  159.7118 H   0  0  0  0  0  0  0  0  0  0  0  0
  152.0258  145.9595  160.1093 H   0  0  0  0  0  0  0  0  0  0  0  0
  151.2970  145.6518  157.5138 H   0  0  0  0  0  0  0  0  0  0  0  0
  152.9707  145.4278  157.9849 H   0  0  0  0  0  0  0  0  0  0  0  0
  152.8869  143.2932  157.2471 H   0  0  0  0  0  0  0  0  0  0  0  0
  150.1827  143.9953  156.6483 H   0  0  0  0  0  0  0  0  0  0  0  0
  148.9481  142.9370  155.5563 H   0  0  0  0  0  0  0  0  0  0  0  0
  150.3490  139.4396  155.1418 H   0  0  0  0  0  0  0  0  0  0  0  0
  149.1433  137.7803  153.7523 H   0  0  0  0  0  0  0  0  0  0  0  0
  146.1855  140.4858  152.7554 H   0  0  0  0  0  0  0  0  0  0  0  0
  1  2  1  0  0  0  0
  1 20  1  0  0  0  0
  1 21  1  0  0  0  0
  1 22  1  0  0  0  0
  2  3  1  0  0  0  0
  2 23  1  0  0  0  0
  2 24  1  0  0  0  0
  3  4  1  0  0  0  0
  4  8  1  0  0  0  0
  4  5  1  0  0  0  0
  4 25  1  0  0  0  0
  5  6  1  0  0  0  0
  5 26  1  0  0  0  0
  5 27  1  0  0  0  0
  6  7  1  0  0  0  0
  6 28  1  0  0  0  0
  6 29  1  0  0  0  0
  7  8  1  0  0  0  0
  7 30  1  0  0  0  0
  7 31  1  0  0  0  0
  8  9  1  0  0  0  0
  8 32  1  0  0  0  0
  9 10  1  0  0  0  0
  9 33  1  0  0  0  0
 10 11  2  0  0  0  0
 10 12  1  0  0  0  0
 12 13  1  0  0  0  0
 12 34  1  0  0  0  0
 13 18  1  0  0  0  0
 13 14  2  0  0  0  0
 14 15  1  0  0  0  0
 14 35  1  0  0  0  0
 15 16  2  0  0  0  0
 15 36  1  0  0  0  0
 16 17  1  0  0  0  0
 17 18  2  0  0  0  0
 17 37  1  0  0  0  0
 18 19  1  0  0  0  0
M  END
> <s_m_source_file>
AV-unprocessed.smi

> <i_m_source_file_index>
2345

> <i_lp_mmshare_version>
43012

> <i_f3d_flags>
0

> <s_epik_input>
W0NIM11bQ0gyXVNbQ0BASF0xW0NIMl1bQ0gyXVtDSDJdW0NASF0xW05IXUMoPU8pW05IXWMyW2NIXVtjSF1uW2NIXWMyRg==

> <s_epik_cmdline>
J2VwaWtfcHl0aG9uJywgJy1waCcsICc3LjAnLCAnLXRuJywgJzgnLCAnLW1hJywgJzIwMCcsICctbWV0YWxfYmluZGluZycsICctaW1hZScsICc8aW5maWxlLm1hZT4nLCAnLW9tYWUnLCAnPG91dGZpbGUubWFlPic=

> <r_epik_Ionization_Penalty>
0.00333745

> <r_epik_Ionization_Penalty_Charging>
0

> <r_epik_Ionization_Penalty_Neutral>
0.00333745

> <r_epik_State_Penalty>
0.00233401

> <r_epik_Charging_Adjusted_Penalty>
0.00233401

> <i_epik_Tot_Q>
0

> <i_epik_Tot_abs_Q>
0

> <r_epik_Metal_State_Penalty>
-0

> <b_epik_Metal_Only>
0

> <s_lp_Force_Field>
OPLS_2005

> <r_lp_Energy>
20.2483

> <b_lp_Chiralities_Consistent>
1

> <s_lp_Variant>
AV-unprocessed.smi:2345-4

> <Gold.Version>
5.8.1

> <Gold.Id.Protein>
6NUR|6NUR_protein|mol2

> <Gold.PLP.Fitness>
52.8502

> <Gold.PLP.PLP>
-41.3812

> <Gold.PLP.part.hbond>
-2.0000

> <Gold.PLP.part.metal>
0.0000

> <Gold.PLP.part.buried>
-3.7567

> <Gold.PLP.part.nonpolar>
-36.4981

> <Gold.PLP.part.repulsive>
1.3041

> <Gold.PLP.ligand.clash>
0.0000

> <Gold.PLP.ligand.torsion>
0.2688

> <Gold.PLP.Chemscore.Hbond>
2.0000

> <Gold.PLP.Chemscore.CHOScore>
1.9988

> <Gold.PLP.Chemscore.Metal>
0.0000

> <Gold.Chemscore.Hbonds>
donor molecule, donor type, donor heavy atom, donor atom, acceptor molecule, acceptor atom, score
      L1  H     9    33       P1  8028  1.00
      L1  H    12    34       P1  8028  1.00
      L1  C    15    36       P1  7948  0.99
      L1  C    17    37       P1 10175  1.00

> <Gold.PLP.Chemscore.Internal.Correction>
0.0104

> <Gold.Rescore>
     Score         DG    S(hbond)    S(metal)    S(lipo)     H(rot)  DE(clash)    DE(int)     intcor
     20.52     -22.66       1.91        0.00     121.89       1.35       0.60       1.54       ----

> <Gold.Chemscore.Fitness>
20.5204

> <Gold.Chemscore.DG>
-22.6575

> <Gold.Chemscore.ZeroCoef>
-5.4800

> <Gold.Chemscore.Hbond>
1.9061

> <Gold.Chemscore.Metal>
0.0000

> <Gold.Chemscore.Lipo>
121.8877

> <Gold.Chemscore.Internal_Hbond>
0.0000

> <Gold.Chemscore.DEClash>
0.5953

> <Gold.Chemscore.DEInternal>
1.5418

> <Gold.Chemscore.Rot>
1.3475

> <Gold.Chemscore.Internal.Correction>
   9.000000E+99

> <Gold.Chemscore.Hbonds>
donor molecule, donor type, donor heavy atom, donor atom, acceptor molecule, acceptor atom, score
      L1  H     9    33       P1  8028  0.96
      L1  H    12    34       P1  8028  0.95

> <Gold.Chemscore.Hbond.Weighted>
-6.3663

> <Gold.Chemscore.Metal.Weighted>
-0.0000

> <Gold.Chemscore.Lipo.Weighted>
-14.2609

> <Gold.Chemscore.Internal_Hbond.Weighted>
0.0000

> <Gold.Chemscore.DEClash.Weighted>
0.5953

> <Gold.Chemscore.DEInternal.Weighted>
1.5418

> <Gold.Chemscore.Rot.Weighted>
3.4496

> <Gold.Chemscore.Internal.Correction.Weighted>
   9.000000E+99

> <Gold.Protein.RotatedTorsions>
[ 6907 6896 6895 6894 ] final  -32.02 input  -60.11 | X-H torsion
[ 7974 7965 7964 7962 ] final   96.87 input  175.53 | X-H torsion
[ 8008 7997 7996 7995 ] final -128.06 input   59.86 | X-H torsion
[ 10167 10162 10161 10158 ] final  -81.34 input  -65.29 | X-H torsion
[ 10718 10713 10712 10709 ] final -132.78 input   66.30 | X-H torsion
[ 10763 10752 10751 10750 ] final  -81.41 input  -60.55 | X-H torsion
[ 11005 11000 10999 10996 ] final  -23.05 input  -57.11 | X-H torsion

> <Gold.Protein.ActiveResidues>
 VAL166  LYS551  ARG553  GLY616  TRP617  ASP618  TYR619  PRO620  LYS621  CYS622 
 ASP623  PHE694  ASN695  SER759  ASP760  ASP761  ALA762  ILE779  LEU786  VAL792 
 PHE793  MET794  SER795  GLU796  ALA797  LYS798  CYS799  TRP800  GLU811  SER814 

> <Gold.Protein.RotatedAtoms>
  151.0843  134.9877  159.8371 H   0  0  0  0  0  0  0  0  0  0  0  0  # atno 6907 bound_to 6896
  152.5423  134.2143  159.8772 H   0  0  0  0  0  0  0  0  0  0  0  0  # atno 6908 bound_to 6896
  151.2175  133.4477  159.2633 H   0  0  0  0  0  0  0  0  0  0  0  0  # atno 6909 bound_to 6896
  145.4330  139.2308  143.3133 H   0  0  0  0  0  0  0  0  0  0  0  0  # atno 7974 bound_to 7965
  155.2565  140.0434  157.2992 H   0  0  0  0  0  0  0  0  0  0  0  0  # atno 8008 bound_to 7997
  154.5737  140.2381  155.8123 H   0  0  0  0  0  0  0  0  0  0  0  0  # atno 8009 bound_to 7997
  156.2142  140.2990  155.9809 H   0  0  0  0  0  0  0  0  0  0  0  0  # atno 8010 bound_to 7997
  140.4421  143.2511  151.8611 H   0  0  0  0  0  0  0  0  0  0  0  0  # atno 10167 bound_to 10162
  156.2381  130.7079  151.0928 H   0  0  0  0  0  0  0  0  0  0  0  0  # atno 10718 bound_to 10713
  154.5632  135.5627  153.7027 H   0  0  0  0  0  0  0  0  0  0  0  0  # atno 10763 bound_to 10752
  153.0025  135.6279  154.2215 H   0  0  0  0  0  0  0  0  0  0  0  0  # atno 10764 bound_to 10752
  154.2154  135.2872  155.2923 H   0  0  0  0  0  0  0  0  0  0  0  0  # atno 10765 bound_to 10752
  140.8714  133.7717  156.0192 H   0  0  0  0  0  0  0  0  0  0  0  0  # atno 11005 bound_to 11000
  146.2597  140.5070  142.8859 LP  0  0  0  0  0  0  0  0  0  0  0  0  # atno 17320 bound_to 7965
  144.8170  140.6485  143.6378 LP  0  0  0  0  0  0  0  0  0  0  0  0  # atno 17321 bound_to 7965
  139.4790  144.5217  151.8792 LP  0  0  0  0  0  0  0  0  0  0  0  0  # atno 17342 bound_to 10162
  140.4306  144.2120  150.5888 LP  0  0  0  0  0  0  0  0  0  0  0  0  # atno 17343 bound_to 10162
  157.7163  131.0708  150.6313 LP  0  0  0  0  0  0  0  0  0  0  0  0  # atno 17370 bound_to 10713
  156.6385  130.4451  149.5761 LP  0  0  0  0  0  0  0  0  0  0  0  0  # atno 17371 bound_to 10713
  140.8568  134.2888  157.5252 LP  0  0  0  0  0  0  0  0  0  0  0  0  # atno 17394 bound_to 11000
  139.8712  134.9497  156.4034 LP  0  0  0  0  0  0  0  0  0  0  0  0  # atno 17395 bound_to 11000

$$$$
