AV-unprocessed.smi:2997|AV-procd|sdf|11415|dock1
  -GOLD-   2272016333D 1   1.00000     0.00000
 Structure written by MMmdl.
 39 41  0  0  0  0  0  0  0  0  2 V2000
  154.5090  141.0203  163.2439 C   0  0  0  0  0  0  0  0  0  0  0  0
  153.8041  141.7664  162.1238 C   0  0  0  0  0  0  0  0  0  0  0  0
  153.2291  143.0256  162.4097 C   0  0  0  0  0  0  0  0  0  0  0  0
  152.5889  143.6820  161.3652 C   0  0  0  0  0  0  0  0  0  0  0  0
  151.9322  144.9140  161.3230 N   0  3  0  0  0  0  0  0  0  0  0  0
  151.4572  145.1329  160.0653 C   0  0  0  0  0  0  0  0  0  0  0  0
  151.8026  144.0591  159.3044 N   0  0  0  0  0  0  0  0  0  0  0  0
  151.5371  143.7767  157.8878 C   0  0  0  0  0  0  0  0  0  0  0  0
  150.9409  142.3739  157.6642 C   0  0  1  0  0  0  0  0  0  0  0  0
  149.6449  142.3155  158.2313 O   0  0  0  0  0  0  0  0  0  0  0  0
  150.8794  142.0040  156.1700 C   0  0  0  0  0  0  0  0  0  0  0  0
  151.2997  140.6376  155.9153 N   0  0  0  0  0  0  0  0  0  0  0  0
  151.9815  139.7790  156.7518 C   0  0  0  0  0  0  0  0  0  0  0  0
  152.1503  138.6039  156.0771 C   0  0  0  0  0  0  0  0  0  0  0  0
  151.5275  138.8433  154.8202 C   0  0  0  0  0  0  0  0  0  0  0  0
  151.0158  140.0602  154.7276 N   0  0  0  0  0  0  0  0  0  0  0  0
  152.5097  143.1288  160.0728 C   0  0  0  0  0  0  0  0  0  0  0  0
  153.0706  141.8899  159.7734 C   0  0  0  0  0  0  0  0  0  0  0  0
  153.7257  141.2060  160.8223 C   0  0  0  0  0  0  0  0  0  0  0  0
  154.3458  139.8507  160.5268 C   0  0  0  0  0  0  0  0  0  0  0  0
  154.5083  141.5969  164.1694 H   0  0  0  0  0  0  0  0  0  0  0  0
  155.5471  140.8197  162.9783 H   0  0  0  0  0  0  0  0  0  0  0  0
  154.0112  140.0707  163.4416 H   0  0  0  0  0  0  0  0  0  0  0  0
  153.2837  143.4577  163.3981 H   0  0  0  0  0  0  0  0  0  0  0  0
  150.9027  145.9987  159.7334 H   0  0  0  0  0  0  0  0  0  0  0  0
  150.8545  144.5443  157.5205 H   0  0  0  0  0  0  0  0  0  0  0  0
  152.4682  143.8989  157.3330 H   0  0  0  0  0  0  0  0  0  0  0  0
  151.5585  141.6396  158.1828 H   0  0  0  0  0  0  0  0  0  0  0  0
  149.1113  142.9858  157.8329 H   0  0  0  0  0  0  0  0  0  0  0  0
  149.8670  142.1345  155.7853 H   0  0  0  0  0  0  0  0  0  0  0  0
  151.5205  142.6703  155.5908 H   0  0  0  0  0  0  0  0  0  0  0  0
  152.2882  140.0724  157.7449 H   0  0  0  0  0  0  0  0  0  0  0  0
  152.6437  137.7095  156.4277 H   0  0  0  0  0  0  0  0  0  0  0  0
  151.4315  138.1731  153.9786 H   0  0  0  0  0  0  0  0  0  0  0  0
  153.0080  141.4632  158.7832 H   0  0  0  0  0  0  0  0  0  0  0  0
  154.1986  139.5631  159.4853 H   0  0  0  0  0  0  0  0  0  0  0  0
  153.8952  139.0794  161.1517 H   0  0  0  0  0  0  0  0  0  0  0  0
  155.4190  139.8699  160.7178 H   0  0  0  0  0  0  0  0  0  0  0  0
  151.8125  145.5581  162.0942 H   0  0  0  0  0  0  0  0  0  0  0  0
  1  2  1  0  0  0  0
  1 21  1  0  0  0  0
  1 22  1  0  0  0  0
  1 23  1  0  0  0  0
  2 19  1  0  0  0  0
  2  3  2  0  0  0  0
  3  4  1  0  0  0  0
  3 24  1  0  0  0  0
  4 17  2  0  0  0  0
  4  5  1  0  0  0  0
  5  6  2  0  0  0  0
  5 39  1  0  0  0  0
  6  7  1  0  0  0  0
  6 25  1  0  0  0  0
  7  8  1  0  0  0  0
  7 17  1  0  0  0  0
  8  9  1  0  0  0  0
  8 26  1  0  0  0  0
  8 27  1  0  0  0  0
  9 10  1  0  0  0  0
  9 11  1  0  0  0  0
  9 28  1  0  0  0  0
 10 29  1  0  0  0  0
 11 12  1  0  0  0  0
 11 30  1  0  0  0  0
 11 31  1  0  0  0  0
 12 16  1  0  0  0  0
 12 13  1  0  0  0  0
 13 14  2  0  0  0  0
 13 32  1  0  0  0  0
 14 15  1  0  0  0  0
 14 33  1  0  0  0  0
 15 16  2  0  0  0  0
 15 34  1  0  0  0  0
 17 18  1  0  0  0  0
 18 19  2  0  0  0  0
 18 35  1  0  0  0  0
 19 20  1  0  0  0  0
 20 36  1  0  0  0  0
 20 37  1  0  0  0  0
 20 38  1  0  0  0  0
M  CHG  1   5   1
M  END
> <s_m_source_file>
AV-unprocessed.smi

> <i_m_source_file_index>
2997

> <i_lp_mmshare_version>
43012

> <i_f3d_flags>
0

> <s_epik_input>
W0NIM11jKFtjSF0xKWMoW0NIM10pW2NIXWMoYzEyKW4oW2NIXW4yKVtDSDJdW0NASF0oW09IXSlbQ0gyXW4zW2NIXVtjSF1bY0hdbjM=

> <s_epik_cmdline>
J2VwaWtfcHl0aG9uJywgJy1waCcsICc3LjAnLCAnLXRuJywgJzgnLCAnLW1hJywgJzIwMCcsICctbWV0YWxfYmluZGluZycsICctaW1hZScsICc8aW5maWxlLm1hZT4nLCAnLW9tYWUnLCAnPG91dGZpbGUubWFlPic=

> <r_lp_tautomer_probability>
1

> <r_epik_Ionization_Penalty>
1.09215

> <r_epik_Ionization_Penalty_Charging>
1.09214

> <r_epik_Ionization_Penalty_Neutral>
1.42327e-05

> <r_epik_State_Penalty>
1.14852

> <r_epik_Charging_Adjusted_Penalty>
2.24066

> <i_epik_Tot_Q>
1

> <i_epik_Tot_abs_Q>
1

> <r_epik_Metal_State_Penalty>
1.23686

> <b_epik_Metal_Only>
0

> <s_lp_Force_Field>
OPLS_2005

> <r_lp_Energy>
12.1799

> <b_lp_Chiralities_Consistent>
1

> <s_lp_Variant>
AV-unprocessed.smi:2997-4

> <Gold.Version>
5.8.1

> <Gold.Id.Protein>
6NUR|6NUR_protein|mol2

> <Gold.PLP.Fitness>
55.4033

> <Gold.PLP.PLP>
-54.1990

> <Gold.PLP.part.hbond>
-1.9736

> <Gold.PLP.part.metal>
0.0000

> <Gold.PLP.part.buried>
-4.2905

> <Gold.PLP.part.nonpolar>
-46.8244

> <Gold.PLP.part.repulsive>
0.1509

> <Gold.PLP.ligand.clash>
0.0000

> <Gold.PLP.ligand.torsion>
0.9179

> <Gold.PLP.Chemscore.Hbond>
1.0000

> <Gold.PLP.Chemscore.CHOScore>
0.0000

> <Gold.PLP.Chemscore.Metal>
0.0000

> <Gold.Chemscore.Hbonds>
donor molecule, donor type, donor heavy atom, donor atom, acceptor molecule, acceptor atom, score
      P1  H  7989  7998       L1    16  1.00

> <Gold.PLP.Chemscore.Internal.Correction>
0.0402

> <Gold.Rescore>
     Score         DG    S(hbond)    S(metal)    S(lipo)     H(rot)  DE(clash)    DE(int)     intcor
     18.41     -19.34       1.45        0.00     125.65       2.21       0.17       0.76       ----

> <Gold.Chemscore.Fitness>
18.4072

> <Gold.Chemscore.DG>
-19.3433

> <Gold.Chemscore.ZeroCoef>
-5.4800

> <Gold.Chemscore.Hbond>
1.4453

> <Gold.Chemscore.Metal>
0.0000

> <Gold.Chemscore.Lipo>
125.6479

> <Gold.Chemscore.Internal_Hbond>
0.0000

> <Gold.Chemscore.DEClash>
0.1726

> <Gold.Chemscore.DEInternal>
0.7635

> <Gold.Chemscore.Rot>
2.2129

> <Gold.Chemscore.Internal.Correction>
   9.000000E+99

> <Gold.Chemscore.Hbonds>
donor molecule, donor type, donor heavy atom, donor atom, acceptor molecule, acceptor atom, score
      P1  H  7989  7998       L1    16  0.66

> <Gold.Chemscore.Hbond.Weighted>
-4.8274

> <Gold.Chemscore.Metal.Weighted>
-0.0000

> <Gold.Chemscore.Lipo.Weighted>
-14.7008

> <Gold.Chemscore.Internal_Hbond.Weighted>
0.0000

> <Gold.Chemscore.DEClash.Weighted>
0.1726

> <Gold.Chemscore.DEInternal.Weighted>
0.7635

> <Gold.Chemscore.Rot.Weighted>
5.6649

> <Gold.Chemscore.Internal.Correction.Weighted>
   9.000000E+99

> <Gold.Protein.RotatedTorsions>
[ 6907 6896 6895 6894 ] final   96.00 input  -60.11 | X-H torsion
[ 7974 7965 7964 7962 ] final  179.50 input  175.53 | X-H torsion
[ 8008 7997 7996 7995 ] final   89.81 input   59.86 | X-H torsion
[ 10167 10162 10161 10158 ] final  -61.98 input  -65.29 | X-H torsion
[ 10718 10713 10712 10709 ] final   46.52 input   66.30 | X-H torsion
[ 10763 10752 10751 10750 ] final  -61.31 input  -60.55 | X-H torsion
[ 11005 11000 10999 10996 ] final  145.68 input  -57.11 | X-H torsion

> <Gold.Protein.ActiveResidues>
 VAL166  LYS551  ARG553  GLY616  TRP617  ASP618  TYR619  PRO620  LYS621  CYS622 
 ASP623  PHE694  ASN695  SER759  ASP760  ASP761  ALA762  ILE779  LEU786  VAL792 
 PHE793  MET794  SER795  GLU796  ALA797  LYS798  CYS799  TRP800  GLU811  SER814 

> <Gold.Protein.RotatedAtoms>
  152.5439  134.0953  159.8294 H   0  0  0  0  0  0  0  0  0  0  0  0  # atno 6907 bound_to 6896
  151.1038  133.5216  159.2616 H   0  0  0  0  0  0  0  0  0  0  0  0  # atno 6908 bound_to 6896
  151.1961  135.0432  159.8907 H   0  0  0  0  0  0  0  0  0  0  0  0  # atno 6909 bound_to 6896
  144.7145  140.0557  143.6434 H   0  0  0  0  0  0  0  0  0  0  0  0  # atno 7974 bound_to 7965
  156.0044  140.3356  155.6878 H   0  0  0  0  0  0  0  0  0  0  0  0  # atno 8008 bound_to 7997
  155.6245  140.0678  157.2686 H   0  0  0  0  0  0  0  0  0  0  0  0  # atno 8009 bound_to 7997
  154.4260  140.1770  156.1394 H   0  0  0  0  0  0  0  0  0  0  0  0  # atno 8010 bound_to 7997
  140.5970  143.2353  151.6014 H   0  0  0  0  0  0  0  0  0  0  0  0  # atno 10167 bound_to 10162
  157.4489  130.8126  149.7769 H   0  0  0  0  0  0  0  0  0  0  0  0  # atno 10718 bound_to 10713
  154.2826  135.6269  153.5353 H   0  0  0  0  0  0  0  0  0  0  0  0  # atno 10763 bound_to 10752
  152.9863  135.5636  154.5478 H   0  0  0  0  0  0  0  0  0  0  0  0  # atno 10764 bound_to 10752
  154.5072  135.2875  155.1348 H   0  0  0  0  0  0  0  0  0  0  0  0  # atno 10765 bound_to 10752
  140.0731  134.9140  157.1379 H   0  0  0  0  0  0  0  0  0  0  0  0  # atno 11005 bound_to 11000
  145.9906  139.3012  143.0987 LP  0  0  0  0  0  0  0  0  0  0  0  0  # atno 17320 bound_to 7965
  145.8907  140.9305  143.0553 LP  0  0  0  0  0  0  0  0  0  0  0  0  # atno 17321 bound_to 7965
  139.5265  144.3044  152.1046 LP  0  0  0  0  0  0  0  0  0  0  0  0  # atno 17342 bound_to 10162
  140.2218  144.4458  150.6338 LP  0  0  0  0  0  0  0  0  0  0  0  0  # atno 17343 bound_to 10162
  155.9979  130.3897  150.2723 LP  0  0  0  0  0  0  0  0  0  0  0  0  # atno 17370 bound_to 10713
  157.0893  131.0165  151.3128 LP  0  0  0  0  0  0  0  0  0  0  0  0  # atno 17371 bound_to 10713
  140.3597  134.2508  155.7188 LP  0  0  0  0  0  0  0  0  0  0  0  0  # atno 17394 bound_to 11000
  141.2019  133.7950  157.0415 LP  0  0  0  0  0  0  0  0  0  0  0  0  # atno 17395 bound_to 11000

$$$$
