AV-unprocessed.smi:1574|AV-procd|sdf|6337|dock9
  -GOLD-   22720 6553D 1   1.00000     0.00000
 Structure written by MMmdl.
 40 41  0  0  0  0  0  0  0  0  1 V2000
  151.0099  140.6728  157.9703 C   0  0  0  0  0  0  0  0  0  0  0  0
  151.0086  142.0880  158.5695 C   0  0  2  0  0  0  0  0  0  0  0  0
  151.2716  143.1648  157.4956 C   0  0  0  0  0  0  0  0  0  0  0  0
  151.2308  144.5799  158.0939 C   0  0  0  0  0  0  0  0  0  0  0  0
  152.2085  144.7157  159.2707 C   0  0  0  0  0  0  0  0  0  0  0  0
  151.9413  143.6461  160.3405 C   0  0  0  0  0  0  0  0  0  0  0  0
  152.0043  142.2229  159.7435 C   0  0  2  0  0  0  0  0  0  0  0  0
  153.3025  141.9322  159.2392 O   0  0  0  0  0  0  0  0  0  0  0  0
  154.3123  141.7273  160.2144 C   0  0  0  0  0  0  0  0  0  0  0  0
  154.0183  140.4171  160.9582 C   0  0  0  0  0  0  0  0  0  0  0  0
  154.7445  139.2951  160.3719 N   0  0  0  0  0  0  0  0  0  0  0  0
  156.0523  139.2944  160.0680 C   0  0  0  0  0  0  0  0  0  0  0  0
  156.7923  140.2631  160.2389 O   0  0  0  0  0  0  0  0  0  0  0  0
  156.6184  137.9999  159.4866 C   0  0  0  0  0  0  0  0  0  0  0  0
  155.9095  137.6184  158.2803 N   0  0  0  0  0  0  0  0  0  0  0  0
  155.1226  136.5728  158.0186 C   0  0  0  0  0  0  0  0  0  0  0  0
  154.6765  136.5973  156.7718 N   0  0  0  0  0  0  0  0  0  0  0  0
  155.2409  137.7528  156.2579 N   0  0  0  0  0  0  0  0  0  0  0  0
  155.9729  138.3636  157.1488 N   0  0  0  0  0  0  0  0  0  0  0  0
  151.9742  140.4283  157.5234 H   0  0  0  0  0  0  0  0  0  0  0  0
  150.2517  140.5763  157.1928 H   0  0  0  0  0  0  0  0  0  0  0  0
  150.7967  139.9235  158.7330 H   0  0  0  0  0  0  0  0  0  0  0  0
  150.0080  142.2612  158.9683 H   0  0  0  0  0  0  0  0  0  0  0  0
  152.2434  142.9959  157.0293 H   0  0  0  0  0  0  0  0  0  0  0  0
  150.5318  143.0857  156.6985 H   0  0  0  0  0  0  0  0  0  0  0  0
  151.4681  145.3152  157.3249 H   0  0  0  0  0  0  0  0  0  0  0  0
  150.2187  144.8041  158.4330 H   0  0  0  0  0  0  0  0  0  0  0  0
  153.2320  144.6162  158.9095 H   0  0  0  0  0  0  0  0  0  0  0  0
  152.1302  145.7115  159.7077 H   0  0  0  0  0  0  0  0  0  0  0  0
  152.6422  143.7606  161.1663 H   0  0  0  0  0  0  0  0  0  0  0  0
  150.9523  143.8105  160.7702 H   0  0  0  0  0  0  0  0  0  0  0  0
  151.7427  141.4931  160.5116 H   0  0  0  0  0  0  0  0  0  0  0  0
  155.3018  141.6803  159.7605 H   0  0  0  0  0  0  0  0  0  0  0  0
  154.3136  142.5582  160.9209 H   0  0  0  0  0  0  0  0  0  0  0  0
  154.3335  140.5114  161.9973 H   0  0  0  0  0  0  0  0  0  0  0  0
  152.9450  140.2205  160.9788 H   0  0  0  0  0  0  0  0  0  0  0  0
  154.2177  138.4507  160.2019 H   0  0  0  0  0  0  0  0  0  0  0  0
  157.6817  138.1074  159.2662 H   0  0  0  0  0  0  0  0  0  0  0  0
  156.5211  137.1962  160.2172 H   0  0  0  0  0  0  0  0  0  0  0  0
  154.8806  135.8006  158.7339 H   0  0  0  0  0  0  0  0  0  0  0  0
  1  2  1  0  0  0  0
  1 20  1  0  0  0  0
  1 21  1  0  0  0  0
  1 22  1  0  0  0  0
  2  7  1  0  0  0  0
  2  3  1  0  0  0  0
  2 23  1  0  0  0  0
  3  4  1  0  0  0  0
  3 24  1  0  0  0  0
  3 25  1  0  0  0  0
  4  5  1  0  0  0  0
  4 26  1  0  0  0  0
  4 27  1  0  0  0  0
  5  6  1  0  0  0  0
  5 28  1  0  0  0  0
  5 29  1  0  0  0  0
  6  7  1  0  0  0  0
  6 30  1  0  0  0  0
  6 31  1  0  0  0  0
  7  8  1  0  0  0  0
  7 32  1  0  0  0  0
  8  9  1  0  0  0  0
  9 10  1  0  0  0  0
  9 33  1  0  0  0  0
  9 34  1  0  0  0  0
 10 11  1  0  0  0  0
 10 35  1  0  0  0  0
 10 36  1  0  0  0  0
 11 12  1  0  0  0  0
 11 37  1  0  0  0  0
 12 13  2  0  0  0  0
 12 14  1  0  0  0  0
 14 15  1  0  0  0  0
 14 38  1  0  0  0  0
 14 39  1  0  0  0  0
 15 19  1  0  0  0  0
 15 16  1  0  0  0  0
 16 17  2  0  0  0  0
 16 40  1  0  0  0  0
 17 18  1  0  0  0  0
 18 19  2  0  0  0  0
M  END
> <s_m_source_file>
AV-unprocessed.smi

> <i_m_source_file_index>
1574

> <i_lp_mmshare_version>
43012

> <i_f3d_flags>
0

> <s_epik_input>
W0NIM11bQ0BASF0xW0NIMl1bQ0gyXVtDSDJdW0NIMl1bQ0BIXTFPW0NIMl1bQ0gyXVtOSF1DKD1PKVtDSDJdbjJbY0hdbm5uMg==

> <s_epik_cmdline>
J2VwaWtfcHl0aG9uJywgJy1waCcsICc3LjAnLCAnLXRuJywgJzgnLCAnLW1hJywgJzIwMCcsICctbWV0YWxfYmluZGluZycsICctaW1hZScsICc8aW5maWxlLm1hZT4nLCAnLW9tYWUnLCAnPG91dGZpbGUubWFlPic=

> <r_lp_tautomer_probability>
1

> <r_epik_Ionization_Penalty>
1.44269e-06

> <r_epik_Ionization_Penalty_Charging>
0

> <r_epik_Ionization_Penalty_Neutral>
1.44269e-06

> <r_epik_State_Penalty>
-0

> <r_epik_Charging_Adjusted_Penalty>
0

> <i_epik_Tot_Q>
0

> <i_epik_Tot_abs_Q>
0

> <r_epik_Metal_State_Penalty>
-0

> <b_epik_Metal_Only>
0

> <s_lp_Force_Field>
OPLS_2005

> <r_lp_Energy>
10.5238

> <b_lp_Chiralities_Consistent>
1

> <s_lp_Variant>
AV-unprocessed.smi:1574-3

> <Gold.Version>
5.8.1

> <Gold.Id.Protein>
6NUR|6NUR_protein|mol2

> <Gold.PLP.Fitness>
36.5963

> <Gold.PLP.PLP>
-33.4880

> <Gold.PLP.part.hbond>
-3.4519

> <Gold.PLP.part.metal>
0.0000

> <Gold.PLP.part.buried>
-4.6720

> <Gold.PLP.part.nonpolar>
-25.3827

> <Gold.PLP.part.repulsive>
0.0892

> <Gold.PLP.ligand.clash>
0.0000

> <Gold.PLP.ligand.torsion>
0.4359

> <Gold.PLP.Chemscore.Hbond>
1.3040

> <Gold.PLP.Chemscore.CHOScore>
0.0000

> <Gold.PLP.Chemscore.Metal>
0.0000

> <Gold.Chemscore.Hbonds>
donor molecule, donor type, donor heavy atom, donor atom, acceptor molecule, acceptor atom, score
      P1  H  7997  8009       L1    19  0.32
      P1  H 10752 10763       L1    17  0.80

> <Gold.PLP.Chemscore.Internal.Correction>
0.0680

> <Gold.Rescore>
     Score         DG    S(hbond)    S(metal)    S(lipo)     H(rot)  DE(clash)    DE(int)     intcor
     11.27     -12.76       1.16        0.00      92.73       2.90       0.01       1.48       ----

> <Gold.Chemscore.Fitness>
11.2721

> <Gold.Chemscore.DG>
-12.7604

> <Gold.Chemscore.ZeroCoef>
-5.4800

> <Gold.Chemscore.Hbond>
1.1581

> <Gold.Chemscore.Metal>
0.0000

> <Gold.Chemscore.Lipo>
92.7257

> <Gold.Chemscore.Internal_Hbond>
0.0000

> <Gold.Chemscore.DEClash>
0.0058

> <Gold.Chemscore.DEInternal>
1.4825

> <Gold.Chemscore.Rot>
2.9050

> <Gold.Chemscore.Internal.Correction>
   9.000000E+99

> <Gold.Chemscore.Hbonds>
donor molecule, donor type, donor heavy atom, donor atom, acceptor molecule, acceptor atom, score
      P1  H  7997  8009       L1    19  0.26
      P1  H 10752 10763       L1    17  0.69

> <Gold.Chemscore.Hbond.Weighted>
-3.8682

> <Gold.Chemscore.Metal.Weighted>
-0.0000

> <Gold.Chemscore.Lipo.Weighted>
-10.8489

> <Gold.Chemscore.Internal_Hbond.Weighted>
0.0000

> <Gold.Chemscore.DEClash.Weighted>
0.0058

> <Gold.Chemscore.DEInternal.Weighted>
1.4825

> <Gold.Chemscore.Rot.Weighted>
7.4367

> <Gold.Chemscore.Internal.Correction.Weighted>
   9.000000E+99

> <Gold.Protein.RotatedTorsions>
[ 6907 6896 6895 6894 ] final   63.53 input  -60.11 | X-H torsion
[ 7974 7965 7964 7962 ] final -167.96 input  175.53 | X-H torsion
[ 8008 7997 7996 7995 ] final   91.97 input   59.86 | X-H torsion
[ 10167 10162 10161 10158 ] final  -19.98 input  -65.29 | X-H torsion
[ 10718 10713 10712 10709 ] final -100.16 input   66.30 | X-H torsion
[ 10763 10752 10751 10750 ] final  138.14 input  -60.55 | X-H torsion
[ 11005 11000 10999 10996 ] final -164.18 input  -57.11 | X-H torsion

> <Gold.Protein.ActiveResidues>
 VAL166  LYS551  ARG553  GLY616  TRP617  ASP618  TYR619  PRO620  LYS621  CYS622 
 ASP623  PHE694  ASN695  SER759  ASP760  ASP761  ALA762  ILE779  LEU786  VAL792 
 PHE793  MET794  SER795  GLU796  ALA797  LYS798  CYS799  TRP800  GLU811  SER814 

> <Gold.Protein.RotatedAtoms>
  152.4260  134.5867  159.9962 H   0  0  0  0  0  0  0  0  0  0  0  0  # atno 6907 bound_to 6896
  151.6003  133.3351  159.3054 H   0  0  0  0  0  0  0  0  0  0  0  0  # atno 6908 bound_to 6896
  150.8150  134.7363  159.6787 H   0  0  0  0  0  0  0  0  0  0  0  0  # atno 6909 bound_to 6896
  144.7212  140.2441  143.6287 H   0  0  0  0  0  0  0  0  0  0  0  0  # atno 7974 bound_to 7965
  156.0299  140.3331  155.7129 H   0  0  0  0  0  0  0  0  0  0  0  0  # atno 8008 bound_to 7997
  155.5900  140.0645  157.2779 H   0  0  0  0  0  0  0  0  0  0  0  0  # atno 8009 bound_to 7997
  154.4349  140.1829  156.1052 H   0  0  0  0  0  0  0  0  0  0  0  0  # atno 8010 bound_to 7997
  140.7273  143.4766  151.0173 H   0  0  0  0  0  0  0  0  0  0  0  0  # atno 10167 bound_to 10162
  156.0155  130.5315  150.6776 H   0  0  0  0  0  0  0  0  0  0  0  0  # atno 10718 bound_to 10713
  153.8847  135.3040  155.3446 H   0  0  0  0  0  0  0  0  0  0  0  0  # atno 10763 bound_to 10752
  154.7745  135.4868  153.9719 H   0  0  0  0  0  0  0  0  0  0  0  0  # atno 10764 bound_to 10752
  153.1331  135.6808  153.9243 H   0  0  0  0  0  0  0  0  0  0  0  0  # atno 10765 bound_to 10752
  140.5898  134.5056  157.5191 H   0  0  0  0  0  0  0  0  0  0  0  0  # atno 11005 bound_to 11000
  145.8291  139.2078  143.1893 LP  0  0  0  0  0  0  0  0  0  0  0  0  # atno 17320 bound_to 7965
  146.0446  140.8130  142.9811 LP  0  0  0  0  0  0  0  0  0  0  0  0  # atno 17321 bound_to 7965
  139.8462  143.7498  152.3179 LP  0  0  0  0  0  0  0  0  0  0  0  0  # atno 17342 bound_to 10162
  139.7664  144.7490  151.0288 LP  0  0  0  0  0  0  0  0  0  0  0  0  # atno 17343 bound_to 10162
  157.4485  131.0870  151.0871 LP  0  0  0  0  0  0  0  0  0  0  0  0  # atno 17370 bound_to 10713
  157.1393  130.6136  149.5551 LP  0  0  0  0  0  0  0  0  0  0  0  0  # atno 17371 bound_to 10713
  139.9279  134.8020  156.1015 LP  0  0  0  0  0  0  0  0  0  0  0  0  # atno 17394 bound_to 11000
  141.0942  133.6702  156.2608 LP  0  0  0  0  0  0  0  0  0  0  0  0  # atno 17395 bound_to 11000

$$$$
