AV-unprocessed.smi:160|AV-procd|sdf|1347|dock3
  -GOLD-   2262019 43D 1   1.00000     0.00000
 Structure written by MMmdl.
 29 30  0  0  0  0  0  0  0  0  1 V2000
  147.1739  142.8051  156.9157 N   0  0  0  0  0  0  0  0  0  0  0  0
  147.6318  141.9813  157.8634 C   0  0  0  0  0  0  0  0  0  0  0  0
  146.9621  141.6708  158.8474 O   0  0  0  0  0  0  0  0  0  0  0  0
  149.0230  141.4490  157.6597 C   0  0  0  0  0  0  0  0  0  0  0  0
  149.9080  141.3118  158.6932 N   0  0  0  0  0  0  0  0  0  0  0  0
  150.9387  140.8195  158.0184 C   0  0  0  0  0  0  0  0  0  0  0  0
  150.7242  140.6951  156.7031 N   0  0  0  0  0  0  0  0  0  0  0  0
  151.5888  140.1297  155.6204 C   0  0  2  0  0  0  0  0  0  0  0  0
  150.8271  140.0515  154.4503 O   0  0  0  0  0  0  0  0  0  0  0  0
  150.4308  138.7079  154.1827 C   0  0  2  0  0  0  0  0  0  0  0  0
  149.0828  138.3947  154.8729 C   0  0  0  0  0  0  0  0  0  0  0  0
  148.6264  137.1191  154.4770 O   0  0  0  0  0  0  0  0  0  0  0  0
  151.6385  137.9232  154.7149 C   0  0  2  0  0  0  0  0  0  0  0  0
  151.3351  136.5754  155.0162 O   0  0  0  0  0  0  0  0  0  0  0  0
  152.0530  138.6994  155.9589 C   0  0  1  0  0  0  0  0  0  0  0  0
  153.4550  138.6271  156.1215 O   0  0  0  0  0  0  0  0  0  0  0  0
  149.4475  141.0772  156.4524 N   0  0  0  0  0  0  0  0  0  0  0  0
  152.3948  140.8563  155.5084 H   0  0  0  0  0  0  0  0  0  0  0  0
  150.3310  138.5538  153.1075 H   0  0  0  0  0  0  0  0  0  0  0  0
  152.4324  137.9551  153.9664 H   0  0  0  0  0  0  0  0  0  0  0  0
  151.5356  138.3262  156.8445 H   0  0  0  0  0  0  0  0  0  0  0  0
  146.2472  143.1974  156.9938 H   0  0  0  0  0  0  0  0  0  0  0  0
  147.7619  143.0298  156.1261 H   0  0  0  0  0  0  0  0  0  0  0  0
  151.8701  140.5463  158.4925 H   0  0  0  0  0  0  0  0  0  0  0  0
  149.2081  138.3554  155.9548 H   0  0  0  0  0  0  0  0  0  0  0  0
  148.3228  139.1488  154.6746 H   0  0  0  0  0  0  0  0  0  0  0  0
  148.9737  136.9291  153.6188 H   0  0  0  0  0  0  0  0  0  0  0  0
  150.7237  136.5631  155.7369 H   0  0  0  0  0  0  0  0  0  0  0  0
  153.6379  138.2563  156.9717 H   0  0  0  0  0  0  0  0  0  0  0  0
  1  2  1  0  0  0  0
  1 22  1  0  0  0  0
  1 23  1  0  0  0  0
  2  3  2  0  0  0  0
  2  4  1  0  0  0  0
  4 17  2  0  0  0  0
  4  5  1  0  0  0  0
  5  6  2  0  0  0  0
  6  7  1  0  0  0  0
  6 24  1  0  0  0  0
  7  8  1  0  0  0  0
  7 17  1  0  0  0  0
  8 18  1  0  0  0  0
  8 15  1  0  0  0  0
  8  9  1  0  0  0  0
  9 10  1  0  0  0  0
 10 19  1  0  0  0  0
 10 11  1  0  0  0  0
 10 13  1  0  0  0  0
 11 12  1  0  0  0  0
 11 25  1  0  0  0  0
 11 26  1  0  0  0  0
 12 27  1  0  0  0  0
 13 20  1  0  0  0  0
 13 14  1  0  0  0  0
 13 15  1  0  0  0  0
 14 28  1  0  0  0  0
 15 21  1  0  0  0  0
 15 16  1  0  0  0  0
 16 29  1  0  0  0  0
M  END
> <s_m_source_file>
AV-unprocessed.smi

> <i_m_source_file_index>
160

> <i_lp_mmshare_version>
43012

> <i_f3d_flags>
0

> <s_epik_input>
W05IMl1DKD1PKWMxbltjSF1uKG4xKVtDQEBIXTJPW0NASF0oW0NIMl1bT0hdKVtDQEBIXShbT0hdKVtDQEhdMltPSF0=

> <s_epik_cmdline>
J2VwaWtfcHl0aG9uJywgJy1waCcsICc3LjAnLCAnLXRuJywgJzgnLCAnLW1hJywgJzIwMCcsICctbWV0YWxfYmluZGluZycsICctaW1hZScsICc8aW5maWxlLm1hZT4nLCAnLW9tYWUnLCAnPG91dGZpbGUubWFlPic=

> <r_lp_tautomer_probability>
1

> <r_epik_Ionization_Penalty>
1.06932e-05

> <r_epik_Ionization_Penalty_Charging>
0

> <r_epik_Ionization_Penalty_Neutral>
1.06932e-05

> <r_epik_State_Penalty>
-0

> <r_epik_Charging_Adjusted_Penalty>
0

> <i_epik_Tot_Q>
0

> <i_epik_Tot_abs_Q>
0

> <r_epik_Metal_State_Penalty>
0.0142097

> <b_epik_Metal_Only>
0

> <s_epik_Chemistry_Notes>
This compound contains an acetal/aminal-like group ( X-CH(R)-Y where X, Y are N, S, or O) that may be acid/base labile, releasing an aldehyde.

> <s_lp_Force_Field>
OPLS_2005

> <r_lp_Energy>
36.3531

> <b_lp_Chiralities_Consistent>
1

> <s_lp_Variant>
AV-unprocessed.smi:160-5

> <Gold.Version>
5.8.1

> <Gold.Id.Protein>
6NUR|6NUR_protein|mol2

> <Gold.PLP.Fitness>
37.8552

> <Gold.PLP.PLP>
-24.4189

> <Gold.PLP.part.hbond>
-7.0624

> <Gold.PLP.part.metal>
0.0000

> <Gold.PLP.part.buried>
-2.4463

> <Gold.PLP.part.nonpolar>
-16.0313

> <Gold.PLP.part.repulsive>
0.2085

> <Gold.PLP.ligand.clash>
0.0000

> <Gold.PLP.ligand.torsion>
0.7227

> <Gold.PLP.Chemscore.Hbond>
4.9418

> <Gold.PLP.Chemscore.CHOScore>
0.0000

> <Gold.PLP.Chemscore.Metal>
0.0000

> <Gold.Chemscore.Hbonds>
donor molecule, donor type, donor heavy atom, donor atom, acceptor molecule, acceptor atom, score
      L1  H     1    23       P1  8028  0.58
      L1  H    12    27       P1  7948  1.00
      P1  H  6934  6946       L1     3  0.54
      P1  H  7989  7998       L1     9  0.89
      P1  H  7997  8009       L1    16  0.82
      P1  H 10752 10765       L1    14  1.00

> <Gold.PLP.Chemscore.Internal.Correction>
0.0565

> <Gold.Rescore>
     Score         DG    S(hbond)    S(metal)    S(lipo)     H(rot)  DE(clash)    DE(int)     intcor
     10.25     -10.99       3.81        0.00      27.04       4.06       0.14       0.60       ----

> <Gold.Chemscore.Fitness>
10.2456

> <Gold.Chemscore.DG>
-10.9851

> <Gold.Chemscore.ZeroCoef>
-5.4800

> <Gold.Chemscore.Hbond>
3.8130

> <Gold.Chemscore.Metal>
0.0000

> <Gold.Chemscore.Lipo>
27.0369

> <Gold.Chemscore.Internal_Hbond>
0.0000

> <Gold.Chemscore.DEClash>
0.1407

> <Gold.Chemscore.DEInternal>
0.5988

> <Gold.Chemscore.Rot>
4.0600

> <Gold.Chemscore.Internal.Correction>
   9.000000E+99

> <Gold.Chemscore.Hbonds>
donor molecule, donor type, donor heavy atom, donor atom, acceptor molecule, acceptor atom, score
      L1  H     1    23       P1  8028  0.15
      L1  H    12    27       P1  7948  0.99
      P1  H  6934  6946       L1     3  0.51
      P1  H  7989  7998       L1     9  0.30
      P1  H  7997  8009       L1    16  0.18
      P1  H 10752 10765       L1    14  0.57

> <Gold.Chemscore.Hbond.Weighted>
-12.7354

> <Gold.Chemscore.Metal.Weighted>
-0.0000

> <Gold.Chemscore.Lipo.Weighted>
-3.1633

> <Gold.Chemscore.Internal_Hbond.Weighted>
0.0000

> <Gold.Chemscore.DEClash.Weighted>
0.1407

> <Gold.Chemscore.DEInternal.Weighted>
0.5988

> <Gold.Chemscore.Rot.Weighted>
10.3936

> <Gold.Chemscore.Internal.Correction.Weighted>
   9.000000E+99

> <Gold.Protein.RotatedTorsions>
[ 6907 6896 6895 6894 ] final  117.37 input  -60.11 | X-H torsion
[ 7974 7965 7964 7962 ] final  -45.13 input  175.53 | X-H torsion
[ 8008 7997 7996 7995 ] final -158.06 input   59.86 | X-H torsion
[ 10167 10162 10161 10158 ] final  -62.56 input  -65.29 | X-H torsion
[ 10718 10713 10712 10709 ] final  -24.98 input   66.30 | X-H torsion
[ 10763 10752 10751 10750 ] final -162.53 input  -60.55 | X-H torsion
[ 11005 11000 10999 10996 ] final -126.18 input  -57.11 | X-H torsion

> <Gold.Protein.ActiveResidues>
 VAL166  LYS551  ARG553  GLY616  TRP617  ASP618  TYR619  PRO620  LYS621  CYS622 
 ASP623  PHE694  ASN695  SER759  ASP760  ASP761  ALA762  ILE779  LEU786  VAL792 
 PHE793  MET794  SER795  GLU796  ALA797  LYS798  CYS799  TRP800  GLU811  SER814 

> <Gold.Protein.RotatedAtoms>
  152.4616  133.7834  159.6862 H   0  0  0  0  0  0  0  0  0  0  0  0  # atno 6907 bound_to 6896
  150.8562  133.7701  159.3014 H   0  0  0  0  0  0  0  0  0  0  0  0  # atno 6908 bound_to 6896
  151.5281  135.1071  159.9947 H   0  0  0  0  0  0  0  0  0  0  0  0  # atno 6909 bound_to 6896
  145.9851  140.7242  142.9344 H   0  0  0  0  0  0  0  0  0  0  0  0  # atno 7974 bound_to 7965
  155.7418  140.0815  157.2242 H   0  0  0  0  0  0  0  0  0  0  0  0  # atno 8008 bound_to 7997
  154.4021  140.1576  156.2680 H   0  0  0  0  0  0  0  0  0  0  0  0  # atno 8009 bound_to 7997
  155.9013  140.3409  155.6031 H   0  0  0  0  0  0  0  0  0  0  0  0  # atno 8010 bound_to 7997
  140.5930  143.2345  151.6097 H   0  0  0  0  0  0  0  0  0  0  0  0  # atno 10167 bound_to 10162
  156.4704  130.4523  149.6873 H   0  0  0  0  0  0  0  0  0  0  0  0  # atno 10718 bound_to 10713
  154.7205  135.3025  154.9054 H   0  0  0  0  0  0  0  0  0  0  0  0  # atno 10763 bound_to 10752
  153.9927  135.6716  153.4759 H   0  0  0  0  0  0  0  0  0  0  0  0  # atno 10764 bound_to 10752
  153.0830  135.4999  154.8458 H   0  0  0  0  0  0  0  0  0  0  0  0  # atno 10765 bound_to 10752
  140.9702  134.0816  157.3877 H   0  0  0  0  0  0  0  0  0  0  0  0  # atno 11005 bound_to 11000
  144.6872  140.2974  143.7268 LP  0  0  0  0  0  0  0  0  0  0  0  0  # atno 17320 bound_to 7965
  145.7712  139.1858  143.2211 LP  0  0  0  0  0  0  0  0  0  0  0  0  # atno 17321 bound_to 7965
  139.5240  144.3117  152.0987 LP  0  0  0  0  0  0  0  0  0  0  0  0  # atno 17342 bound_to 10162
  140.2284  144.4393  150.6310 LP  0  0  0  0  0  0  0  0  0  0  0  0  # atno 17343 bound_to 10162
  156.3624  130.7488  151.2462 LP  0  0  0  0  0  0  0  0  0  0  0  0  # atno 17370 bound_to 10713
  157.7491  131.0346  150.4326 LP  0  0  0  0  0  0  0  0  0  0  0  0  # atno 17371 bound_to 10713
  139.8909  135.0115  156.6764 LP  0  0  0  0  0  0  0  0  0  0  0  0  # atno 17394 bound_to 11000
  140.7340  133.9035  155.8231 LP  0  0  0  0  0  0  0  0  0  0  0  0  # atno 17395 bound_to 11000

$$$$
