AV-unprocessed.smi:1734|AV-procd|sdf|6986|dock4
  -GOLD-   22720 8203D 1   1.00000     0.00000
 Structure written by MMmdl.
 51 53  0  0  0  0  0  0  0  0  2 V2000
  147.6737  132.7303  152.5687 C   0  0  0  0  0  0  0  0  0  0  0  0
  146.3895  132.9714  151.7921 C   0  0  0  0  0  0  0  0  0  0  0  0
  145.7650  131.8871  151.1398 C   0  0  0  0  0  0  0  0  0  0  0  0
  144.5772  132.1095  150.4230 C   0  0  0  0  0  0  0  0  0  0  0  0
  144.0607  133.4158  150.3878 C   0  0  0  0  0  0  0  0  0  0  0  0
  144.6514  134.4580  151.0071 N   0  0  0  0  0  0  0  0  0  0  0  0
  145.7995  134.2609  151.7030 C   0  0  0  0  0  0  0  0  0  0  0  0
  146.4754  135.3136  152.3832 N   0  0  0  0  0  0  0  0  0  0  0  0
  146.0316  136.0691  153.4034 C   0  0  0  0  0  0  0  0  0  0  0  0
  144.9147  135.9914  153.9153 O   0  0  0  0  0  0  0  0  0  0  0  0
  146.9720  136.9355  153.8086 N   0  0  0  0  0  0  0  0  0  0  0  0
  146.8218  137.8963  154.8974 C   0  0  0  0  0  0  0  0  0  0  0  0
  147.7434  137.5841  156.1073 C   0  0  2  0  0  0  0  0  0  0  0  0
  147.1454  137.9982  157.4833 C   0  0  1  0  0  0  0  0  0  0  0  0
  145.7289  137.5247  157.7717 C   0  0  0  0  0  0  0  0  0  0  0  0
  145.6391  137.6158  159.2925 C   0  0  0  0  0  0  0  0  0  0  0  0
  146.9684  137.4645  159.7767 O   0  0  0  0  0  0  0  0  0  0  0  0
  147.8726  137.3814  158.6836 C   0  0  0  0  0  0  0  0  0  0  0  0
  149.0971  138.1966  155.9442 N   0  3  0  0  0  0  0  0  0  0  0  0
  149.8744  137.6587  154.8011 C   0  0  0  0  0  0  0  0  0  0  0  0
  151.3135  138.2011  154.8404 C   0  0  0  0  0  0  0  0  0  0  0  0
  151.2908  139.6237  154.8372 O   0  0  0  0  0  0  0  0  0  0  0  0
  150.6152  140.1518  155.9725 C   0  0  0  0  0  0  0  0  0  0  0  0
  149.1516  139.6809  155.9640 C   0  0  0  0  0  0  0  0  0  0  0  0
  147.9726  131.6824  152.5257 H   0  0  0  0  0  0  0  0  0  0  0  0
  147.5420  132.9986  153.6173 H   0  0  0  0  0  0  0  0  0  0  0  0
  148.4870  133.3276  152.1558 H   0  0  0  0  0  0  0  0  0  0  0  0
  146.1890  130.8948  151.1866 H   0  0  0  0  0  0  0  0  0  0  0  0
  144.0756  131.2999  149.9139 H   0  0  0  0  0  0  0  0  0  0  0  0
  143.1495  133.6304  149.8492 H   0  0  0  0  0  0  0  0  0  0  0  0
  147.4100  135.5066  152.0556 H   0  0  0  0  0  0  0  0  0  0  0  0
  147.8585  136.9308  153.3253 H   0  0  0  0  0  0  0  0  0  0  0  0
  147.0495  138.8782  154.4836 H   0  0  0  0  0  0  0  0  0  0  0  0
  145.7834  137.9340  155.2287 H   0  0  0  0  0  0  0  0  0  0  0  0
  147.8923  136.5035  156.1422 H   0  0  0  0  0  0  0  0  0  0  0  0
  147.1650  139.0841  157.5860 H   0  0  0  0  0  0  0  0  0  0  0  0
  144.9612  138.1305  157.2913 H   0  0  0  0  0  0  0  0  0  0  0  0
  145.5996  136.4897  157.4519 H   0  0  0  0  0  0  0  0  0  0  0  0
  145.2699  138.5959  159.5966 H   0  0  0  0  0  0  0  0  0  0  0  0
  144.9748  136.8597  159.7116 H   0  0  0  0  0  0  0  0  0  0  0  0
  148.0961  136.3292  158.5008 H   0  0  0  0  0  0  0  0  0  0  0  0
  148.8091  137.8893  158.9154 H   0  0  0  0  0  0  0  0  0  0  0  0
  149.8952  136.5693  154.8409 H   0  0  0  0  0  0  0  0  0  0  0  0
  149.4021  137.9372  153.8586 H   0  0  0  0  0  0  0  0  0  0  0  0
  151.8430  137.8366  155.7225 H   0  0  0  0  0  0  0  0  0  0  0  0
  151.8702  137.8543  153.9694 H   0  0  0  0  0  0  0  0  0  0  0  0
  151.1193  139.8425  156.8896 H   0  0  0  0  0  0  0  0  0  0  0  0
  150.6601  141.2404  155.9358 H   0  0  0  0  0  0  0  0  0  0  0  0
  148.6492  140.0915  155.0872 H   0  0  0  0  0  0  0  0  0  0  0  0
  148.6397  140.0712  156.8429 H   0  0  0  0  0  0  0  0  0  0  0  0
  149.6090  137.8989  156.7624 H   0  0  0  0  0  0  0  0  0  0  0  0
  1  2  1  0  0  0  0
  1 25  1  0  0  0  0
  1 26  1  0  0  0  0
  1 27  1  0  0  0  0
  2  7  1  0  0  0  0
  2  3  2  0  0  0  0
  3  4  1  0  0  0  0
  3 28  1  0  0  0  0
  4  5  2  0  0  0  0
  4 29  1  0  0  0  0
  5  6  1  0  0  0  0
  5 30  1  0  0  0  0
  6  7  2  0  0  0  0
  7  8  1  0  0  0  0
  8  9  1  0  0  0  0
  8 31  1  0  0  0  0
  9 10  2  0  0  0  0
  9 11  1  0  0  0  0
 11 12  1  0  0  0  0
 11 32  1  0  0  0  0
 12 13  1  0  0  0  0
 12 33  1  0  0  0  0
 12 34  1  0  0  0  0
 13 14  1  0  0  0  0
 13 19  1  0  0  0  0
 13 35  1  0  0  0  0
 14 18  1  0  0  0  0
 14 15  1  0  0  0  0
 14 36  1  0  0  0  0
 15 16  1  0  0  0  0
 15 37  1  0  0  0  0
 15 38  1  0  0  0  0
 16 17  1  0  0  0  0
 16 39  1  0  0  0  0
 16 40  1  0  0  0  0
 17 18  1  0  0  0  0
 18 41  1  0  0  0  0
 18 42  1  0  0  0  0
 19 24  1  0  0  0  0
 19 20  1  0  0  0  0
 19 51  1  0  0  0  0
 20 21  1  0  0  0  0
 20 43  1  0  0  0  0
 20 44  1  0  0  0  0
 21 22  1  0  0  0  0
 21 45  1  0  0  0  0
 21 46  1  0  0  0  0
 22 23  1  0  0  0  0
 23 24  1  0  0  0  0
 23 47  1  0  0  0  0
 23 48  1  0  0  0  0
 24 49  1  0  0  0  0
 24 50  1  0  0  0  0
M  CHG  1  19   1
M  END
> <s_m_source_file>
AV-unprocessed.smi

> <i_m_source_file_index>
1734

> <i_lp_mmshare_version>
43012

> <i_f3d_flags>
0

> <s_epik_input>
W0NIM11jMVtjSF1bY0hdW2NIXW5jMVtOSF1DKD1PKVtOSF1bQ0gyXVtDQEhdKFtDQEBIXTJbQ0gyXVtDSDJdT1tDSDJdMilOM1tDSDJdW0NIMl1PW0NIMl1bQ0gyXTM=

> <s_epik_cmdline>
J2VwaWtfcHl0aG9uJywgJy1waCcsICc3LjAnLCAnLXRuJywgJzgnLCAnLW1hJywgJzIwMCcsICctbWV0YWxfYmluZGluZycsICctaW1hZScsICc8aW5maWxlLm1hZT4nLCAnLW9tYWUnLCAnPG91dGZpbGUubWFlPic=

> <r_epik_Ionization_Penalty>
0.983302

> <r_epik_Ionization_Penalty_Charging>
0.98326

> <r_epik_Ionization_Penalty_Neutral>
4.21967e-05

> <r_epik_State_Penalty>
1.0303

> <r_epik_Charging_Adjusted_Penalty>
2.01356

> <i_epik_Tot_Q>
1

> <i_epik_Tot_abs_Q>
1

> <r_epik_Metal_State_Penalty>
1.03031

> <b_epik_Metal_Only>
0

> <s_lp_Force_Field>
OPLS_2005

> <r_lp_Energy>
41.1253

> <b_lp_Chiralities_Consistent>
1

> <s_lp_Variant>
AV-unprocessed.smi:1734-7

> <Gold.Version>
5.8.1

> <Gold.Id.Protein>
6NUR|6NUR_protein|mol2

> <Gold.PLP.Fitness>
42.7416

> <Gold.PLP.PLP>
-29.9109

> <Gold.PLP.part.hbond>
-4.0000

> <Gold.PLP.part.metal>
0.0000

> <Gold.PLP.part.buried>
-6.4255

> <Gold.PLP.part.nonpolar>
-21.4813

> <Gold.PLP.part.repulsive>
0.2877

> <Gold.PLP.ligand.clash>
0.0000

> <Gold.PLP.ligand.torsion>
1.1214

> <Gold.PLP.Chemscore.Hbond>
3.8720

> <Gold.PLP.Chemscore.CHOScore>
1.0000

> <Gold.PLP.Chemscore.Metal>
0.0000

> <Gold.Chemscore.Hbonds>
donor molecule, donor type, donor heavy atom, donor atom, acceptor molecule, acceptor atom, score
      L1  H     8    31       P1  7948  1.00
      L1  H    11    32       P1  7948  0.98
      P1  H  6934  6947       L1    17  1.00
      P1  H  7989  7998       L1    22  1.00
      L1  C     5    30       P1 10186  1.00

> <Gold.PLP.Chemscore.Internal.Correction>
0.4575

> <Gold.Rescore>
     Score         DG    S(hbond)    S(metal)    S(lipo)     H(rot)  DE(clash)    DE(int)     intcor
     20.07     -21.19       3.70        0.00      65.87       1.70       0.09       1.03       ----

> <Gold.Chemscore.Fitness>
20.0750

> <Gold.Chemscore.DG>
-21.1868

> <Gold.Chemscore.ZeroCoef>
-5.4800

> <Gold.Chemscore.Hbond>
3.6972

> <Gold.Chemscore.Metal>
0.0000

> <Gold.Chemscore.Lipo>
65.8689

> <Gold.Chemscore.Internal_Hbond>
0.0000

> <Gold.Chemscore.DEClash>
0.0859

> <Gold.Chemscore.DEInternal>
1.0259

> <Gold.Chemscore.Rot>
1.6986

> <Gold.Chemscore.Internal.Correction>
   9.000000E+99

> <Gold.Chemscore.Hbonds>
donor molecule, donor type, donor heavy atom, donor atom, acceptor molecule, acceptor atom, score
      L1  H     8    31       P1  7948  1.00
      L1  H    11    32       P1  7948  0.92
      P1  H  6934  6947       L1    17  0.30
      P1  H  7989  7998       L1    22  0.91

> <Gold.Chemscore.Hbond.Weighted>
-12.3486

> <Gold.Chemscore.Metal.Weighted>
-0.0000

> <Gold.Chemscore.Lipo.Weighted>
-7.7067

> <Gold.Chemscore.Internal_Hbond.Weighted>
0.0000

> <Gold.Chemscore.DEClash.Weighted>
0.0859

> <Gold.Chemscore.DEInternal.Weighted>
1.0259

> <Gold.Chemscore.Rot.Weighted>
4.3485

> <Gold.Chemscore.Internal.Correction.Weighted>
   9.000000E+99

> <Gold.Protein.RotatedTorsions>
[ 6907 6896 6895 6894 ] final  -45.22 input  -60.11 | X-H torsion
[ 7974 7965 7964 7962 ] final   26.54 input  175.53 | X-H torsion
[ 8008 7997 7996 7995 ] final -178.57 input   59.86 | X-H torsion
[ 10167 10162 10161 10158 ] final  -37.37 input  -65.29 | X-H torsion
[ 10718 10713 10712 10709 ] final -123.63 input   66.30 | X-H torsion
[ 10763 10752 10751 10750 ] final   26.25 input  -60.55 | X-H torsion
[ 11005 11000 10999 10996 ] final  176.96 input  -57.11 | X-H torsion

> <Gold.Protein.ActiveResidues>
 VAL166  LYS551  ARG553  GLY616  TRP617  ASP618  TYR619  PRO620  LYS621  CYS622 
 ASP623  PHE694  ASN695  SER759  ASP760  ASP761  ALA762  ILE779  LEU786  VAL792 
 PHE793  MET794  SER795  GLU796  ALA797  LYS798  CYS799  TRP800  GLU811  SER814 

> <Gold.Protein.RotatedAtoms>
  150.9243  134.8660  159.7509 H   0  0  0  0  0  0  0  0  0  0  0  0  # atno 6907 bound_to 6896
  152.5008  134.4172  159.9478 H   0  0  0  0  0  0  0  0  0  0  0  0  # atno 6908 bound_to 6896
  151.4204  133.3660  159.2790 H   0  0  0  0  0  0  0  0  0  0  0  0  # atno 6909 bound_to 6896
  146.1832  139.7314  142.8885 H   0  0  0  0  0  0  0  0  0  0  0  0  # atno 7974 bound_to 7965
  156.0204  140.1260  157.0363 H   0  0  0  0  0  0  0  0  0  0  0  0  # atno 8008 bound_to 7997
  154.4309  140.1070  156.6026 H   0  0  0  0  0  0  0  0  0  0  0  0  # atno 8009 bound_to 7997
  155.5952  140.3470  155.4580 H   0  0  0  0  0  0  0  0  0  0  0  0  # atno 8010 bound_to 7997
  140.7120  143.3346  151.2492 H   0  0  0  0  0  0  0  0  0  0  0  0  # atno 10167 bound_to 10162
  156.1518  130.6540  150.9925 H   0  0  0  0  0  0  0  0  0  0  0  0  # atno 10718 bound_to 10713
  153.0636  135.6564  154.0407 H   0  0  0  0  0  0  0  0  0  0  0  0  # atno 10763 bound_to 10752
  154.0069  135.2932  155.3398 H   0  0  0  0  0  0  0  0  0  0  0  0  # atno 10764 bound_to 10752
  154.6984  135.5254  153.8560 H   0  0  0  0  0  0  0  0  0  0  0  0  # atno 10765 bound_to 10752
  140.3789  134.6964  157.4438 H   0  0  0  0  0  0  0  0  0  0  0  0  # atno 11005 bound_to 11000
  145.4015  141.0386  143.3068 LP  0  0  0  0  0  0  0  0  0  0  0  0  # atno 17320 bound_to 7965
  144.8351  139.5563  143.6926 LP  0  0  0  0  0  0  0  0  0  0  0  0  # atno 17321 bound_to 7965
  139.6837  143.9810  152.2823 LP  0  0  0  0  0  0  0  0  0  0  0  0  # atno 17342 bound_to 10162
  139.9448  144.6658  150.8230 LP  0  0  0  0  0  0  0  0  0  0  0  0  # atno 17343 bound_to 10162
  157.6663  131.0871  150.7720 LP  0  0  0  0  0  0  0  0  0  0  0  0  # atno 17370 bound_to 10713
  156.7787  130.4852  149.5405 LP  0  0  0  0  0  0  0  0  0  0  0  0  # atno 17371 bound_to 10713
  140.0494  134.6152  155.8880 LP  0  0  0  0  0  0  0  0  0  0  0  0  # atno 17394 bound_to 11000
  141.1930  133.6577  156.5528 LP  0  0  0  0  0  0  0  0  0  0  0  0  # atno 17395 bound_to 11000

$$$$
