AV-unprocessed.smi:126|AV-procd|sdf|1151|dock10
  -GOLD-   2262018283D 1   1.00000     0.00000
 Structure written by MMmdl.
 40 42  0  0  0  0  0  0  0  0  1 V2000
  152.9529  139.5612  157.3302 O   0  0  0  0  0  0  0  0  0  0  0  0
  151.9464  139.9910  156.7649 C   0  0  0  0  0  0  0  0  0  0  0  0
  151.1800  139.1111  155.7647 C   0  0  0  0  0  0  0  0  0  0  0  0
  150.6337  137.8741  156.3646 N   0  0  0  0  0  0  0  0  0  0  0  0
  149.8833  137.9682  157.5629 C   0  0  0  0  0  0  0  0  0  0  0  0
  149.6873  139.0538  158.1108 O   0  0  0  0  0  0  0  0  0  0  0  0
  149.3659  136.7072  158.0823 C   0  0  0  0  0  0  0  0  0  0  0  0
  148.6487  136.7001  159.2187 F   0  0  0  0  0  0  0  0  0  0  0  0
  149.5954  135.5436  157.4395 C   0  0  0  0  0  0  0  0  0  0  0  0
  150.3211  135.4684  156.2643 N   0  0  0  0  0  0  0  0  0  0  0  0
  150.5562  134.1565  155.5479 C   0  0  2  0  0  0  0  0  0  0  0  0
  149.7927  134.1269  154.2121 C   0  0  0  0  0  0  0  0  0  0  0  0
  149.0844  132.7886  154.2666 C   0  0  0  0  0  0  0  0  0  0  0  0
  148.8599  132.6152  155.7613 C   0  0  0  0  0  0  0  0  0  0  0  0
  150.0732  133.0972  156.3248 O   0  0  0  0  0  0  0  0  0  0  0  0
  150.8563  136.6456  155.6986 C   0  0  0  0  0  0  0  0  0  0  0  0
  151.4949  136.6016  154.6447 O   0  0  0  0  0  0  0  0  0  0  0  0
  151.4534  141.2324  156.9265 N   0  0  0  0  0  0  0  0  0  0  0  0
  151.9176  142.2675  157.7825 C   0  0  0  0  0  0  0  0  0  0  0  0
  152.5353  141.8792  158.9900 C   0  0  0  0  0  0  0  0  0  0  0  0
  153.0372  142.8483  159.8800 C   0  0  0  0  0  0  0  0  0  0  0  0
  152.9348  144.2158  159.5631 C   0  0  0  0  0  0  0  0  0  0  0  0
  152.3358  144.6124  158.3528 C   0  0  0  0  0  0  0  0  0  0  0  0
  151.8330  143.6445  157.4614 C   0  0  0  0  0  0  0  0  0  0  0  0
  150.3792  139.7013  155.3153 H   0  0  0  0  0  0  0  0  0  0  0  0
  151.8441  138.8890  154.9282 H   0  0  0  0  0  0  0  0  0  0  0  0
  149.1860  134.6462  157.8769 H   0  0  0  0  0  0  0  0  0  0  0  0
  151.6384  134.0585  155.4464 H   0  0  0  0  0  0  0  0  0  0  0  0
  149.0661  134.9402  154.1756 H   0  0  0  0  0  0  0  0  0  0  0  0
  150.4754  134.2223  153.3672 H   0  0  0  0  0  0  0  0  0  0  0  0
  148.1596  132.7699  153.6897 H   0  0  0  0  0  0  0  0  0  0  0  0
  149.7395  132.0007  153.8927 H   0  0  0  0  0  0  0  0  0  0  0  0
  148.0199  133.2234  156.0994 H   0  0  0  0  0  0  0  0  0  0  0  0
  148.6708  131.5793  156.0433 H   0  0  0  0  0  0  0  0  0  0  0  0
  150.6852  141.4835  156.3212 H   0  0  0  0  0  0  0  0  0  0  0  0
  152.6222  140.8324  159.2425 H   0  0  0  0  0  0  0  0  0  0  0  0
  153.5027  142.5421  160.8051 H   0  0  0  0  0  0  0  0  0  0  0  0
  153.3212  144.9595  160.2443 H   0  0  0  0  0  0  0  0  0  0  0  0
  152.2667  145.6610  158.1037 H   0  0  0  0  0  0  0  0  0  0  0  0
  151.4007  143.9813  156.5318 H   0  0  0  0  0  0  0  0  0  0  0  0
  1  2  2  0  0  0  0
  2  3  1  0  0  0  0
  2 18  1  0  0  0  0
  3  4  1  0  0  0  0
  3 25  1  0  0  0  0
  3 26  1  0  0  0  0
  4 16  1  0  0  0  0
  4  5  1  0  0  0  0
  5  6  2  0  0  0  0
  5  7  1  0  0  0  0
  7  8  1  0  0  0  0
  7  9  2  0  0  0  0
  9 10  1  0  0  0  0
  9 27  1  0  0  0  0
 10 11  1  0  0  0  0
 10 16  1  0  0  0  0
 11 15  1  0  0  0  0
 11 12  1  0  0  0  0
 11 28  1  0  0  0  0
 12 13  1  0  0  0  0
 12 29  1  0  0  0  0
 12 30  1  0  0  0  0
 13 14  1  0  0  0  0
 13 31  1  0  0  0  0
 13 32  1  0  0  0  0
 14 15  1  0  0  0  0
 14 33  1  0  0  0  0
 14 34  1  0  0  0  0
 16 17  2  0  0  0  0
 18 19  1  0  0  0  0
 18 35  1  0  0  0  0
 19 24  1  0  0  0  0
 19 20  2  0  0  0  0
 20 21  1  0  0  0  0
 20 36  1  0  0  0  0
 21 22  2  0  0  0  0
 21 37  1  0  0  0  0
 22 23  1  0  0  0  0
 22 38  1  0  0  0  0
 23 24  2  0  0  0  0
 23 39  1  0  0  0  0
 24 40  1  0  0  0  0
M  END
> <s_m_source_file>
AV-unprocessed.smi

> <i_m_source_file_index>
126

> <i_lp_mmshare_version>
43012

> <i_f3d_flags>
0

> <s_epik_input>
W2NIXTFbY0hdW2NIXVtjSF1bY0hdYzFbTkhdQyg9TylbQ0gyXW4yYyg9TyljKEYpW2NIXW4oYzI9TylbQ0BASF0zW0NIMl1bQ0gyXVtDSDJdTzM=

> <s_epik_cmdline>
J2VwaWtfcHl0aG9uJywgJy1waCcsICc3LjAnLCAnLXRuJywgJzgnLCAnLW1hJywgJzIwMCcsICctbWV0YWxfYmluZGluZycsICctaW1hZScsICc8aW5maWxlLm1hZT4nLCAnLW9tYWUnLCAnPG91dGZpbGUubWFlPic=

> <r_lp_tautomer_probability>
1

> <r_epik_Ionization_Penalty>
1.86934e-06

> <r_epik_Ionization_Penalty_Charging>
3.88729e-08

> <r_epik_Ionization_Penalty_Neutral>
1.83046e-06

> <r_epik_State_Penalty>
-0

> <r_epik_Charging_Adjusted_Penalty>
3.88729e-08

> <i_epik_Tot_Q>
0

> <i_epik_Tot_abs_Q>
0

> <r_epik_Metal_State_Penalty>
-0

> <b_epik_Metal_Only>
0

> <s_epik_Chemistry_Notes>
This compound contains an acetal/aminal-like group ( X-CH(R)-Y where X, Y are N, S, or O) that may be acid/base labile, releasing an aldehyde.

> <s_lp_Force_Field>
OPLS_2005

> <r_lp_Energy>
33.0924

> <b_lp_Chiralities_Consistent>
1

> <s_lp_Variant>
AV-unprocessed.smi:126-1

> <Gold.Version>
5.8.1

> <Gold.Id.Protein>
6NUR|6NUR_protein|mol2

> <Gold.PLP.Fitness>
45.2742

> <Gold.PLP.PLP>
-40.1022

> <Gold.PLP.part.hbond>
-2.0000

> <Gold.PLP.part.metal>
0.0000

> <Gold.PLP.part.buried>
-6.3593

> <Gold.PLP.part.nonpolar>
-32.3322

> <Gold.PLP.part.repulsive>
0.2426

> <Gold.PLP.ligand.clash>
0.0000

> <Gold.PLP.ligand.torsion>
0.4217

> <Gold.PLP.Chemscore.Hbond>
2.0000

> <Gold.PLP.Chemscore.CHOScore>
0.0000

> <Gold.PLP.Chemscore.Metal>
0.0000

> <Gold.Chemscore.Hbonds>
donor molecule, donor type, donor heavy atom, donor atom, acceptor molecule, acceptor atom, score
      P1  H  7997  8008       L1     1  1.00
      P1  H 10752 10764       L1    17  1.00

> <Gold.PLP.Chemscore.Internal.Correction>
0.0153

> <Gold.Rescore>
     Score         DG    S(hbond)    S(metal)    S(lipo)     H(rot)  DE(clash)    DE(int)     intcor
     15.36     -19.18       1.99        0.00      96.62       1.66       0.02       3.81       ----

> <Gold.Chemscore.Fitness>
15.3551

> <Gold.Chemscore.DG>
-19.1827

> <Gold.Chemscore.ZeroCoef>
-5.4800

> <Gold.Chemscore.Hbond>
1.9920

> <Gold.Chemscore.Metal>
0.0000

> <Gold.Chemscore.Lipo>
96.6197

> <Gold.Chemscore.Internal_Hbond>
0.0000

> <Gold.Chemscore.DEClash>
0.0183

> <Gold.Chemscore.DEInternal>
3.8093

> <Gold.Chemscore.Rot>
1.6621

> <Gold.Chemscore.Internal.Correction>
   9.000000E+99

> <Gold.Chemscore.Hbonds>
donor molecule, donor type, donor heavy atom, donor atom, acceptor molecule, acceptor atom, score
      P1  H  7997  8008       L1     1  0.85
      P1  H 10752 10764       L1    17  1.00

> <Gold.Chemscore.Hbond.Weighted>
-6.6532

> <Gold.Chemscore.Metal.Weighted>
-0.0000

> <Gold.Chemscore.Lipo.Weighted>
-11.3045

> <Gold.Chemscore.Internal_Hbond.Weighted>
0.0000

> <Gold.Chemscore.DEClash.Weighted>
0.0183

> <Gold.Chemscore.DEInternal.Weighted>
3.8093

> <Gold.Chemscore.Rot.Weighted>
4.2550

> <Gold.Chemscore.Internal.Correction.Weighted>
   9.000000E+99

> <Gold.Protein.RotatedTorsions>
[ 6907 6896 6895 6894 ] final  -45.69 input  -60.11 | X-H torsion
[ 7974 7965 7964 7962 ] final  -60.39 input  175.53 | X-H torsion
[ 8008 7997 7996 7995 ] final  -57.80 input   59.86 | X-H torsion
[ 10167 10162 10161 10158 ] final  139.06 input  -65.29 | X-H torsion
[ 10718 10713 10712 10709 ] final  153.26 input   66.30 | X-H torsion
[ 10763 10752 10751 10750 ] final  -75.17 input  -60.55 | X-H torsion
[ 11005 11000 10999 10996 ] final  134.05 input  -57.11 | X-H torsion

> <Gold.Protein.ActiveResidues>
 VAL166  LYS551  ARG553  GLY616  TRP617  ASP618  TYR619  PRO620  LYS621  CYS622 
 ASP623  PHE694  ASN695  SER759  ASP760  ASP761  ALA762  ILE779  LEU786  VAL792 
 PHE793  MET794  SER795  GLU796  ALA797  LYS798  CYS799  TRP800  GLU811  SER814 

> <Gold.Protein.RotatedAtoms>
  150.9192  134.8609  159.7477 H   0  0  0  0  0  0  0  0  0  0  0  0  # atno 6907 bound_to 6896
  152.4984  134.4244  159.9501 H   0  0  0  0  0  0  0  0  0  0  0  0  # atno 6908 bound_to 6896
  151.4279  133.3639  159.2800 H   0  0  0  0  0  0  0  0  0  0  0  0  # atno 6909 bound_to 6896
  145.8161  140.8569  143.0157 H   0  0  0  0  0  0  0  0  0  0  0  0  # atno 7974 bound_to 7965
  154.4282  140.1098  156.5855 H   0  0  0  0  0  0  0  0  0  0  0  0  # atno 8008 bound_to 7997
  155.6067  140.3494  155.4591 H   0  0  0  0  0  0  0  0  0  0  0  0  # atno 8009 bound_to 7997
  156.0131  140.1223  157.0423 H   0  0  0  0  0  0  0  0  0  0  0  0  # atno 8010 bound_to 7997
  139.5090  144.6317  151.5801 H   0  0  0  0  0  0  0  0  0  0  0  0  # atno 10167 bound_to 10162
  157.2470  131.0771  151.1755 H   0  0  0  0  0  0  0  0  0  0  0  0  # atno 10718 bound_to 10713
  154.4830  135.5840  153.6403 H   0  0  0  0  0  0  0  0  0  0  0  0  # atno 10763 bound_to 10752
  152.9850  135.6094  154.3222 H   0  0  0  0  0  0  0  0  0  0  0  0  # atno 10764 bound_to 10752
  154.3115  135.2845  155.2543 H   0  0  0  0  0  0  0  0  0  0  0  0  # atno 10765 bound_to 10752
  139.9890  134.9522  156.9811 H   0  0  0  0  0  0  0  0  0  0  0  0  # atno 11005 bound_to 11000
  144.6752  140.0466  143.7480 LP  0  0  0  0  0  0  0  0  0  0  0  0  # atno 17320 bound_to 7965
  145.9725  139.2880  143.1090 LP  0  0  0  0  0  0  0  0  0  0  0  0  # atno 17321 bound_to 7965
  140.6052  143.9538  150.6413 LP  0  0  0  0  0  0  0  0  0  0  0  0  # atno 17342 bound_to 10162
  140.2763  143.3421  152.1192 LP  0  0  0  0  0  0  0  0  0  0  0  0  # atno 17343 bound_to 10162
  157.3318  130.6989  149.6329 LP  0  0  0  0  0  0  0  0  0  0  0  0  # atno 17370 bound_to 10713
  155.9667  130.4305  150.4880 LP  0  0  0  0  0  0  0  0  0  0  0  0  # atno 17371 bound_to 10713
  140.4945  134.1159  155.7239 LP  0  0  0  0  0  0  0  0  0  0  0  0  # atno 17394 bound_to 11000
  141.1550  133.8900  157.2001 LP  0  0  0  0  0  0  0  0  0  0  0  0  # atno 17395 bound_to 11000

$$$$
