AV-unprocessed.smi:2664|AV-procd|sdf|10329|dock10
  -GOLD-   2272014343D 1   1.00000     0.00000
 Structure written by MMmdl.
 44 45  0  0  0  0  0  0  0  0  2 V2000
  145.3568  138.1093  153.7268 O   0  0  0  0  0  0  0  0  0  0  0  0
  146.4180  137.6906  153.2661 C   0  0  0  0  0  0  0  0  0  0  0  0
  147.5773  138.3710  153.2497 N   0  0  0  0  0  0  0  0  0  0  0  0
  147.8338  139.6978  153.6915 C   0  0  0  0  0  0  0  0  0  0  0  0
  149.0825  139.9527  154.3009 C   0  0  0  0  0  0  0  0  0  0  0  0
  149.3899  141.2570  154.7393 C   0  0  0  0  0  0  0  0  0  0  0  0
  148.4948  142.2529  154.5661 N   0  3  0  0  0  0  0  0  0  0  0  0
  147.2948  142.0615  153.9776 C   0  0  0  0  0  0  0  0  0  0  0  0
  146.9320  140.7790  153.5180 C   0  0  0  0  0  0  0  0  0  0  0  0
  146.5670  136.4710  152.7266 N   0  0  0  0  0  0  0  0  0  0  0  0
  145.5151  135.4618  152.5711 C   0  0  1  0  0  0  0  0  0  0  0  0
  145.1790  135.3149  151.0651 C   0  0  0  0  0  0  0  0  0  0  0  0
  144.4253  134.0262  150.6844 C   0  0  0  0  0  0  0  0  0  0  0  0
  144.0381  134.0598  149.3271 O   0  0  0  0  0  0  0  0  0  0  0  0
  145.9518  134.1275  153.2434 C   0  0  0  0  0  0  0  0  0  0  0  0
  146.2935  134.3040  154.7440 C   0  0  0  0  0  0  0  0  0  0  0  0
  146.7362  132.9882  155.4040 C   0  0  0  0  0  0  0  0  0  0  0  0
  147.9271  132.3638  154.6672 C   0  0  0  0  0  0  0  0  0  0  0  0
  147.5949  132.1562  153.1848 C   0  0  0  0  0  0  0  0  0  0  0  0
  147.1577  133.4717  152.5211 C   0  0  0  0  0  0  0  0  0  0  0  0
  148.3836  137.8608  152.9199 H   0  0  0  0  0  0  0  0  0  0  0  0
  149.7998  139.1564  154.4384 H   0  0  0  0  0  0  0  0  0  0  0  0
  150.3187  141.5313  155.2179 H   0  0  0  0  0  0  0  0  0  0  0  0
  146.6664  142.9355  153.8859 H   0  0  0  0  0  0  0  0  0  0  0  0
  145.9765  140.6551  153.0321 H   0  0  0  0  0  0  0  0  0  0  0  0
  147.4818  136.2165  152.3839 H   0  0  0  0  0  0  0  0  0  0  0  0
  144.6085  135.7963  153.0780 H   0  0  0  0  0  0  0  0  0  0  0  0
  144.5840  136.1725  150.7487 H   0  0  0  0  0  0  0  0  0  0  0  0
  146.0896  135.3466  150.4688 H   0  0  0  0  0  0  0  0  0  0  0  0
  145.0257  133.1360  150.8714 H   0  0  0  0  0  0  0  0  0  0  0  0
  143.5260  133.9311  151.2933 H   0  0  0  0  0  0  0  0  0  0  0  0
  144.7246  134.4748  148.8273 H   0  0  0  0  0  0  0  0  0  0  0  0
  145.1131  133.4326  153.1755 H   0  0  0  0  0  0  0  0  0  0  0  0
  147.0812  135.0503  154.8564 H   0  0  0  0  0  0  0  0  0  0  0  0
  145.4333  134.6766  155.2974 H   0  0  0  0  0  0  0  0  0  0  0  0
  146.9985  133.1667  156.4473 H   0  0  0  0  0  0  0  0  0  0  0  0
  145.9022  132.2856  155.4116 H   0  0  0  0  0  0  0  0  0  0  0  0
  148.8004  133.0103  154.7628 H   0  0  0  0  0  0  0  0  0  0  0  0
  148.1926  131.4115  155.1271 H   0  0  0  0  0  0  0  0  0  0  0  0
  148.4619  131.7480  152.6645 H   0  0  0  0  0  0  0  0  0  0  0  0
  146.7996  131.4161  153.0879 H   0  0  0  0  0  0  0  0  0  0  0  0
  146.9186  133.2602  151.4791 H   0  0  0  0  0  0  0  0  0  0  0  0
  147.9979  134.1676  152.5066 H   0  0  0  0  0  0  0  0  0  0  0  0
  148.7370  143.1901  154.8891 H   0  0  0  0  0  0  0  0  0  0  0  0
  1  2  2  0  0  0  0
  2  3  1  0  0  0  0
  2 10  1  0  0  0  0
  3  4  1  0  0  0  0
  3 21  1  0  0  0  0
  4  9  1  0  0  0  0
  4  5  2  0  0  0  0
  5  6  1  0  0  0  0
  5 22  1  0  0  0  0
  6  7  2  0  0  0  0
  6 23  1  0  0  0  0
  7  8  1  0  0  0  0
  7 44  1  0  0  0  0
  8  9  2  0  0  0  0
  8 24  1  0  0  0  0
  9 25  1  0  0  0  0
 10 11  1  0  0  0  0
 10 26  1  0  0  0  0
 11 12  1  0  0  0  0
 11 15  1  0  0  0  0
 11 27  1  0  0  0  0
 12 13  1  0  0  0  0
 12 28  1  0  0  0  0
 12 29  1  0  0  0  0
 13 14  1  0  0  0  0
 13 30  1  0  0  0  0
 13 31  1  0  0  0  0
 14 32  1  0  0  0  0
 15 20  1  0  0  0  0
 15 16  1  0  0  0  0
 15 33  1  0  0  0  0
 16 17  1  0  0  0  0
 16 34  1  0  0  0  0
 16 35  1  0  0  0  0
 17 18  1  0  0  0  0
 17 36  1  0  0  0  0
 17 37  1  0  0  0  0
 18 19  1  0  0  0  0
 18 38  1  0  0  0  0
 18 39  1  0  0  0  0
 19 20  1  0  0  0  0
 19 40  1  0  0  0  0
 19 41  1  0  0  0  0
 20 42  1  0  0  0  0
 20 43  1  0  0  0  0
M  CHG  1   7   1
M  END
> <s_m_source_file>
AV-unprocessed.smi

> <i_m_source_file_index>
2664

> <i_lp_mmshare_version>
43012

> <i_f3d_flags>
0

> <s_epik_input>
W2NIXTFbY0hdbltjSF1bY0hdYzFbTkhdQyg9TylbTkhdW0NASF0oW0NIMl1bQ0gyXVtPSF0pW0NIXTJbQ0gyXVtDSDJdW0NIMl1bQ0gyXVtDSDJdMg==

> <s_epik_cmdline>
J2VwaWtfcHl0aG9uJywgJy1waCcsICc3LjAnLCAnLXRuJywgJzgnLCAnLW1hJywgJzIwMCcsICctbWV0YWxfYmluZGluZycsICctaW1hZScsICc8aW5maWxlLm1hZT4nLCAnLW9tYWUnLCAnPG91dGZpbGUubWFlPic=

> <r_epik_Ionization_Penalty>
1.0085

> <r_epik_Ionization_Penalty_Charging>
1.00848

> <r_epik_Ionization_Penalty_Neutral>
2.14516e-05

> <r_epik_State_Penalty>
1.05769

> <r_epik_Charging_Adjusted_Penalty>
2.06617

> <i_epik_Tot_Q>
1

> <i_epik_Tot_abs_Q>
1

> <r_epik_Metal_State_Penalty>
1.15842

> <b_epik_Metal_Only>
0

> <s_lp_Force_Field>
OPLS_2005

> <r_lp_Energy>
27.8621

> <b_lp_Chiralities_Consistent>
1

> <s_lp_Variant>
AV-unprocessed.smi:2664-4

> <Gold.Version>
5.8.1

> <Gold.Id.Protein>
6NUR|6NUR_protein|mol2

> <Gold.PLP.Fitness>
47.1320

> <Gold.PLP.PLP>
-33.4902

> <Gold.PLP.part.hbond>
-4.9038

> <Gold.PLP.part.metal>
0.0000

> <Gold.PLP.part.buried>
-4.3319

> <Gold.PLP.part.nonpolar>
-26.2518

> <Gold.PLP.part.repulsive>
0.7497

> <Gold.PLP.ligand.clash>
0.0000

> <Gold.PLP.ligand.torsion>
0.5366

> <Gold.PLP.Chemscore.Hbond>
4.8872

> <Gold.PLP.Chemscore.CHOScore>
0.0000

> <Gold.PLP.Chemscore.Metal>
0.0000

> <Gold.Chemscore.Hbonds>
donor molecule, donor type, donor heavy atom, donor atom, acceptor molecule, acceptor atom, score
      L1  H     3    21       P1  7948  0.88
      L1  H     7    44       P1  8028  2.00
      L1  H    10    26       P1  7948  1.00
      L1  H    14    32       P1  7921  1.00

> <Gold.PLP.Chemscore.Internal.Correction>
0.0532

> <Gold.Rescore>
     Score         DG    S(hbond)    S(metal)    S(lipo)     H(rot)  DE(clash)    DE(int)     intcor
     20.38     -21.52       3.88        0.00      76.07       2.27       0.39       0.75       ----

> <Gold.Chemscore.Fitness>
20.3811

> <Gold.Chemscore.DG>
-21.5229

> <Gold.Chemscore.ZeroCoef>
-5.4800

> <Gold.Chemscore.Hbond>
3.8809

> <Gold.Chemscore.Metal>
0.0000

> <Gold.Chemscore.Lipo>
76.0683

> <Gold.Chemscore.Internal_Hbond>
0.0000

> <Gold.Chemscore.DEClash>
0.3910

> <Gold.Chemscore.DEInternal>
0.7508

> <Gold.Chemscore.Rot>
2.2731

> <Gold.Chemscore.Internal.Correction>
   9.000000E+99

> <Gold.Chemscore.Hbonds>
donor molecule, donor type, donor heavy atom, donor atom, acceptor molecule, acceptor atom, score
      L1  H     3    21       P1  7948  0.82
      L1  H     7    44       P1  8028  1.00
      L1  H    10    26       P1  7948  0.95
      L1  H    14    32       P1  7921  1.00

> <Gold.Chemscore.Hbond.Weighted>
-12.9622

> <Gold.Chemscore.Metal.Weighted>
-0.0000

> <Gold.Chemscore.Lipo.Weighted>
-8.9000

> <Gold.Chemscore.Internal_Hbond.Weighted>
0.0000

> <Gold.Chemscore.DEClash.Weighted>
0.3910

> <Gold.Chemscore.DEInternal.Weighted>
0.7508

> <Gold.Chemscore.Rot.Weighted>
5.8192

> <Gold.Chemscore.Internal.Correction.Weighted>
   9.000000E+99

> <Gold.Protein.RotatedTorsions>
[ 6907 6896 6895 6894 ] final  175.59 input  -60.11 | X-H torsion
[ 7974 7965 7964 7962 ] final   -5.62 input  175.53 | X-H torsion
[ 8008 7997 7996 7995 ] final -173.15 input   59.86 | X-H torsion
[ 10167 10162 10161 10158 ] final  -54.56 input  -65.29 | X-H torsion
[ 10718 10713 10712 10709 ] final -162.37 input   66.30 | X-H torsion
[ 10763 10752 10751 10750 ] final  155.38 input  -60.55 | X-H torsion
[ 11005 11000 10999 10996 ] final -135.34 input  -57.11 | X-H torsion

> <Gold.Protein.ActiveResidues>
 VAL166  LYS551  ARG553  GLY616  TRP617  ASP618  TYR619  PRO620  LYS621  CYS622 
 ASP623  PHE694  ASN695  SER759  ASP760  ASP761  ALA762  ILE779  LEU786  VAL792 
 PHE793  MET794  SER795  GLU796  ALA797  LYS798  CYS799  TRP800  GLU811  SER814 

> <Gold.Protein.RotatedAtoms>
  151.7338  133.3319  159.3347 H   0  0  0  0  0  0  0  0  0  0  0  0  # atno 6907 bound_to 6896
  150.7601  134.6339  159.6210 H   0  0  0  0  0  0  0  0  0  0  0  0  # atno 6908 bound_to 6896
  152.3574  134.6922  160.0269 H   0  0  0  0  0  0  0  0  0  0  0  0  # atno 6909 bound_to 6896
  146.2349  140.2048  142.8334 H   0  0  0  0  0  0  0  0  0  0  0  0  # atno 7974 bound_to 7965
  155.9538  140.1131  157.0954 H   0  0  0  0  0  0  0  0  0  0  0  0  # atno 8008 bound_to 7997
  154.4116  140.1195  156.5154 H   0  0  0  0  0  0  0  0  0  0  0  0  # atno 8009 bound_to 7997
  155.6808  140.3473  155.4857 H   0  0  0  0  0  0  0  0  0  0  0  0  # atno 8010 bound_to 7997
  140.6423  143.2515  151.4954 H   0  0  0  0  0  0  0  0  0  0  0  0  # atno 10167 bound_to 10162
  156.6094  130.8844  151.2933 H   0  0  0  0  0  0  0  0  0  0  0  0  # atno 10718 bound_to 10713
  154.1675  135.2806  155.3091 H   0  0  0  0  0  0  0  0  0  0  0  0  # atno 10763 bound_to 10752
  154.6101  135.5501  153.7467 H   0  0  0  0  0  0  0  0  0  0  0  0  # atno 10764 bound_to 10752
  153.0174  135.6413  154.1815 H   0  0  0  0  0  0  0  0  0  0  0  0  # atno 10765 bound_to 10752
  140.8907  134.1816  157.4530 H   0  0  0  0  0  0  0  0  0  0  0  0  # atno 11005 bound_to 11000
  144.9753  140.8408  143.5430 LP  0  0  0  0  0  0  0  0  0  0  0  0  # atno 17320 bound_to 7965
  145.2035  139.2240  143.5180 LP  0  0  0  0  0  0  0  0  0  0  0  0  # atno 17321 bound_to 7965
  139.5633  144.2104  152.1725 LP  0  0  0  0  0  0  0  0  0  0  0  0  # atno 17342 bound_to 10162
  140.1378  144.5230  150.6763 LP  0  0  0  0  0  0  0  0  0  0  0  0  # atno 17343 bound_to 10162
  157.7258  130.9621  150.1630 LP  0  0  0  0  0  0  0  0  0  0  0  0  # atno 17370 bound_to 10713
  156.2402  130.3690  149.8346 LP  0  0  0  0  0  0  0  0  0  0  0  0  # atno 17371 bound_to 10713
  139.8729  134.9857  156.5293 LP  0  0  0  0  0  0  0  0  0  0  0  0  # atno 17394 bound_to 11000
  140.8351  133.8249  155.9021 LP  0  0  0  0  0  0  0  0  0  0  0  0  # atno 17395 bound_to 11000

$$$$
