AV-unprocessed.smi:1019|AV-procd|sdf|4450|dock3
  -GOLD-   22720 2413D 1   1.00000     0.00000
 Structure written by MMmdl.
 45 47  0  0  0  0  0  0  0  0  3 V2000
  154.6095  136.0423  159.1531 C   0  0  0  0  0  0  0  0  0  0  0  0
  153.7642  137.2465  159.3338 N   0  3  2  0  0  0  0  0  0  0  0  0
  153.0461  137.2530  160.6350 C   0  0  0  0  0  0  0  0  0  0  0  0
  153.9981  137.1371  161.8123 C   0  0  0  0  0  0  0  0  0  0  0  0
  155.0447  138.0694  161.9790 C   0  0  0  0  0  0  0  0  0  0  0  0
  155.9213  137.9600  163.0758 C   0  0  0  0  0  0  0  0  0  0  0  0
  155.7570  136.9174  164.0081 C   0  0  0  0  0  0  0  0  0  0  0  0
  154.7162  135.9834  163.8431 C   0  0  0  0  0  0  0  0  0  0  0  0
  153.8387  136.0921  162.7466 C   0  0  0  0  0  0  0  0  0  0  0  0
  152.8658  137.4706  158.1717 C   0  0  0  0  0  0  0  0  0  0  0  0
  152.7056  138.9650  157.8263 C   0  0  1  0  0  0  0  0  0  0  0  0
  153.2764  139.2039  156.5538 O   0  0  0  0  0  0  0  0  0  0  0  0
  151.2231  139.3876  157.8050 C   0  0  0  0  0  0  0  0  0  0  0  0
  151.0404  140.8405  157.6853 N   0  0  0  0  0  0  0  0  0  0  0  0
  150.3033  141.5597  156.7951 C   0  0  0  0  0  0  0  0  0  0  0  0
  150.4559  142.8773  157.1040 N   0  3  0  0  0  0  0  0  0  0  0  0
  151.3012  143.0028  158.2084 C   0  0  0  0  0  0  0  0  0  0  0  0
  151.7511  144.1300  158.8887 C   0  0  0  0  0  0  0  0  0  0  0  0
  152.6103  143.9064  159.9848 C   0  0  0  0  0  0  0  0  0  0  0  0
  152.9912  142.6032  160.3661 C   0  0  0  0  0  0  0  0  0  0  0  0
  152.5299  141.4672  159.6685 C   0  0  0  0  0  0  0  0  0  0  0  0
  151.6801  141.6973  158.5872 C   0  0  0  0  0  0  0  0  0  0  0  0
  153.9988  135.1394  159.1149 H   0  0  0  0  0  0  0  0  0  0  0  0
  155.3293  135.9342  159.9640 H   0  0  0  0  0  0  0  0  0  0  0  0
  155.1807  136.1073  158.2264 H   0  0  0  0  0  0  0  0  0  0  0  0
  152.4845  138.1784  160.7595 H   0  0  0  0  0  0  0  0  0  0  0  0
  152.3113  136.4465  160.6596 H   0  0  0  0  0  0  0  0  0  0  0  0
  155.1765  138.8734  161.2697 H   0  0  0  0  0  0  0  0  0  0  0  0
  156.7202  138.6760  163.2023 H   0  0  0  0  0  0  0  0  0  0  0  0
  156.4296  136.8341  164.8491 H   0  0  0  0  0  0  0  0  0  0  0  0
  154.5913  135.1831  164.5578 H   0  0  0  0  0  0  0  0  0  0  0  0
  153.0419  135.3724  162.6265 H   0  0  0  0  0  0  0  0  0  0  0  0
  153.2580  136.9562  157.2928 H   0  0  0  0  0  0  0  0  0  0  0  0
  151.8951  137.0165  158.3774 H   0  0  0  0  0  0  0  0  0  0  0  0
  153.2355  139.5821  158.5512 H   0  0  0  0  0  0  0  0  0  0  0  0
  152.7964  138.7089  155.9073 H   0  0  0  0  0  0  0  0  0  0  0  0
  150.7085  138.9247  156.9616 H   0  0  0  0  0  0  0  0  0  0  0  0
  150.7070  139.0487  158.7042 H   0  0  0  0  0  0  0  0  0  0  0  0
  149.7057  141.1591  155.9889 H   0  0  0  0  0  0  0  0  0  0  0  0
  151.4603  145.1295  158.5996 H   0  0  0  0  0  0  0  0  0  0  0  0
  152.9839  144.7516  160.5448 H   0  0  0  0  0  0  0  0  0  0  0  0
  153.6503  142.4725  161.2122 H   0  0  0  0  0  0  0  0  0  0  0  0
  152.8269  140.4737  159.9690 H   0  0  0  0  0  0  0  0  0  0  0  0
  154.3974  138.0340  159.3482 H   0  0  0  0  0  0  0  0  0  0  0  0
  150.0129  143.6335  156.5976 H   0  0  0  0  0  0  0  0  0  0  0  0
  1  2  1  0  0  0  0
  1 23  1  0  0  0  0
  1 24  1  0  0  0  0
  1 25  1  0  0  0  0
  2  3  1  0  0  0  0
  2 10  1  0  0  0  0
  2 44  1  0  0  0  0
  3  4  1  0  0  0  0
  3 26  1  0  0  0  0
  3 27  1  0  0  0  0
  4  9  1  0  0  0  0
  4  5  2  0  0  0  0
  5  6  1  0  0  0  0
  5 28  1  0  0  0  0
  6  7  2  0  0  0  0
  6 29  1  0  0  0  0
  7  8  1  0  0  0  0
  7 30  1  0  0  0  0
  8  9  2  0  0  0  0
  8 31  1  0  0  0  0
  9 32  1  0  0  0  0
 10 11  1  0  0  0  0
 10 33  1  0  0  0  0
 10 34  1  0  0  0  0
 11 12  1  0  0  0  0
 11 13  1  0  0  0  0
 11 35  1  0  0  0  0
 12 36  1  0  0  0  0
 13 14  1  0  0  0  0
 13 37  1  0  0  0  0
 13 38  1  0  0  0  0
 14 22  1  0  0  0  0
 14 15  1  0  0  0  0
 15 16  2  0  0  0  0
 15 39  1  0  0  0  0
 16 17  1  0  0  0  0
 16 45  1  0  0  0  0
 17 22  2  0  0  0  0
 17 18  1  0  0  0  0
 18 19  2  0  0  0  0
 18 40  1  0  0  0  0
 19 20  1  0  0  0  0
 19 41  1  0  0  0  0
 20 21  2  0  0  0  0
 20 42  1  0  0  0  0
 21 22  1  0  0  0  0
 21 43  1  0  0  0  0
M  CHG  1   2   1
M  CHG  1  16   1
M  END
> <s_m_source_file>
AV-unprocessed.smi

> <i_m_source_file_index>
1019

> <i_lp_mmshare_version>
43012

> <i_f3d_flags>
0

> <s_epik_input>
W2NIXTFbY0hdW2NIXVtjSF1bY0hdYzFbQ0gyXU4oW0NIM10pW0NIMl1bQ0BIXShbT0hdKVtDSDJdbihbY0hdbjIpYyhjMjMpW2NIXVtjSF1bY0hdW2NIXTM=

> <s_epik_cmdline>
J2VwaWtfcHl0aG9uJywgJy1waCcsICc3LjAnLCAnLXRuJywgJzgnLCAnLW1hJywgJzIwMCcsICctbWV0YWxfYmluZGluZycsICctaW1hZScsICc8aW5maWxlLm1hZT4nLCAnLW9tYWUnLCAnPG91dGZpbGUubWFlPic=

> <r_epik_Ionization_Penalty>
1.5198

> <r_epik_Ionization_Penalty_Charging>
1.5198

> <r_epik_Ionization_Penalty_Neutral>
3.13312e-06

> <r_epik_State_Penalty>
1.624

> <r_epik_Charging_Adjusted_Penalty>
3.1438

> <i_epik_Tot_Q>
2

> <i_epik_Tot_abs_Q>
2

> <r_epik_Metal_State_Penalty>
5.67392

> <b_epik_Metal_Only>
0

> <s_lp_Force_Field>
OPLS_2005

> <r_lp_Energy>
24.6792

> <b_lp_Chiralities_Consistent>
1

> <s_lp_Variant>
AV-unprocessed.smi:1019-8

> <Gold.Version>
5.8.1

> <Gold.Id.Protein>
6NUR|6NUR_protein|mol2

> <Gold.PLP.Fitness>
52.7143

> <Gold.PLP.PLP>
-46.0863

> <Gold.PLP.part.hbond>
-1.7703

> <Gold.PLP.part.metal>
0.0000

> <Gold.PLP.part.buried>
-6.1510

> <Gold.PLP.part.nonpolar>
-38.9412

> <Gold.PLP.part.repulsive>
0.1313

> <Gold.PLP.ligand.clash>
0.0000

> <Gold.PLP.ligand.torsion>
1.2838

> <Gold.PLP.Chemscore.Hbond>
3.0000

> <Gold.PLP.Chemscore.CHOScore>
0.0000

> <Gold.PLP.Chemscore.Metal>
0.0000

> <Gold.Chemscore.Hbonds>
donor molecule, donor type, donor heavy atom, donor atom, acceptor molecule, acceptor atom, score
      L1  H    16    45       P1  8028  2.00
      P1  H  7997  8008       L1    12  0.71

> <Gold.PLP.Chemscore.Internal.Correction>
0.1956

> <Gold.Rescore>
     Score         DG    S(hbond)    S(metal)    S(lipo)     H(rot)  DE(clash)    DE(int)     intcor
     18.92     -20.92       1.89        0.00     131.59       2.46       0.05       1.95       ----

> <Gold.Chemscore.Fitness>
18.9163

> <Gold.Chemscore.DG>
-20.9175

> <Gold.Chemscore.ZeroCoef>
-5.4800

> <Gold.Chemscore.Hbond>
1.8944

> <Gold.Chemscore.Metal>
0.0000

> <Gold.Chemscore.Lipo>
131.5861

> <Gold.Chemscore.Internal_Hbond>
0.0000

> <Gold.Chemscore.DEClash>
0.0515

> <Gold.Chemscore.DEInternal>
1.9498

> <Gold.Chemscore.Rot>
2.4552

> <Gold.Chemscore.Internal.Correction>
   9.000000E+99

> <Gold.Chemscore.Hbonds>
donor molecule, donor type, donor heavy atom, donor atom, acceptor molecule, acceptor atom, score
      L1  H    16    45       P1  8028  1.00
      P1  H  7997  8008       L1    12  0.70

> <Gold.Chemscore.Hbond.Weighted>
-6.3274

> <Gold.Chemscore.Metal.Weighted>
-0.0000

> <Gold.Chemscore.Lipo.Weighted>
-15.3956

> <Gold.Chemscore.Internal_Hbond.Weighted>
0.0000

> <Gold.Chemscore.DEClash.Weighted>
0.0515

> <Gold.Chemscore.DEInternal.Weighted>
1.9498

> <Gold.Chemscore.Rot.Weighted>
6.2854

> <Gold.Chemscore.Internal.Correction.Weighted>
   9.000000E+99

> <Gold.Protein.RotatedTorsions>
[ 6907 6896 6895 6894 ] final   57.80 input  -60.11 | X-H torsion
[ 7974 7965 7964 7962 ] final -165.61 input  175.53 | X-H torsion
[ 8008 7997 7996 7995 ] final  -42.19 input   59.86 | X-H torsion
[ 10167 10162 10161 10158 ] final -120.36 input  -65.29 | X-H torsion
[ 10718 10713 10712 10709 ] final  -70.75 input   66.30 | X-H torsion
[ 10763 10752 10751 10750 ] final  -24.58 input  -60.55 | X-H torsion
[ 11005 11000 10999 10996 ] final -100.16 input  -57.11 | X-H torsion

> <Gold.Protein.ActiveResidues>
 VAL166  LYS551  ARG553  GLY616  TRP617  ASP618  TYR619  PRO620  LYS621  CYS622 
 ASP623  PHE694  ASN695  SER759  ASP760  ASP761  ALA762  ILE779  LEU786  VAL792 
 PHE793  MET794  SER795  GLU796  ALA797  LYS798  CYS799  TRP800  GLU811  SER814 

> <Gold.Protein.RotatedAtoms>
  152.3765  134.6655  160.0157 H   0  0  0  0  0  0  0  0  0  0  0  0  # atno 6907 bound_to 6896
  151.6931  133.3305  159.3256 H   0  0  0  0  0  0  0  0  0  0  0  0  # atno 6908 bound_to 6896
  150.7714  134.6616  159.6387 H   0  0  0  0  0  0  0  0  0  0  0  0  # atno 6909 bound_to 6896
  144.7265  140.2788  143.6239 H   0  0  0  0  0  0  0  0  0  0  0  0  # atno 7974 bound_to 7965
  154.4000  140.1480  156.3314 H   0  0  0  0  0  0  0  0  0  0  0  0  # atno 8008 bound_to 7997
  155.8440  140.3461  155.5629 H   0  0  0  0  0  0  0  0  0  0  0  0  # atno 8009 bound_to 7997
  155.8056  140.0876  157.1923 H   0  0  0  0  0  0  0  0  0  0  0  0  # atno 8010 bound_to 7997
  140.0367  143.5194  152.2150 H   0  0  0  0  0  0  0  0  0  0  0  0  # atno 10167 bound_to 10162
  156.0393  130.4338  150.2342 H   0  0  0  0  0  0  0  0  0  0  0  0  # atno 10718 bound_to 10713
  153.6861  135.6964  153.5103 H   0  0  0  0  0  0  0  0  0  0  0  0  # atno 10763 bound_to 10752
  153.2448  135.4294  155.0735 H   0  0  0  0  0  0  0  0  0  0  0  0  # atno 10764 bound_to 10752
  154.8386  135.3517  154.6403 H   0  0  0  0  0  0  0  0  0  0  0  0  # atno 10765 bound_to 10752
  141.1281  133.8377  157.1066 H   0  0  0  0  0  0  0  0  0  0  0  0  # atno 11005 bound_to 11000
  145.7970  139.1949  143.2070 LP  0  0  0  0  0  0  0  0  0  0  0  0  # atno 17320 bound_to 7965
  146.0708  140.7870  142.9689 LP  0  0  0  0  0  0  0  0  0  0  0  0  # atno 17321 bound_to 7965
  139.6041  144.7591  151.3104 LP  0  0  0  0  0  0  0  0  0  0  0  0  # atno 17342 bound_to 10162
  140.7278  143.6952  150.7889 LP  0  0  0  0  0  0  0  0  0  0  0  0  # atno 17343 bound_to 10162
  157.0439  131.0043  151.3275 LP  0  0  0  0  0  0  0  0  0  0  0  0  # atno 17370 bound_to 10713
  157.5190  130.7986  149.7787 LP  0  0  0  0  0  0  0  0  0  0  0  0  # atno 17371 bound_to 10713
  140.0301  134.9905  157.0763 LP  0  0  0  0  0  0  0  0  0  0  0  0  # atno 17394 bound_to 11000
  140.4299  134.1791  155.7167 LP  0  0  0  0  0  0  0  0  0  0  0  0  # atno 17395 bound_to 11000

$$$$
