AV-unprocessed.smi:283|AV-procd|sdf|2128|dock8
  -GOLD-   2262021443D 1   1.00000     0.00000
 Structure written by MMmdl.
 48 51  0  0  0  0  0  0  0  0  1 V2000
  149.8595  141.6560  156.3955 C   0  0  0  0  0  0  0  0  0  0  0  0
  150.9866  141.2309  157.3460 C   0  0  1  0  0  0  0  0  0  0  0  0
  152.0157  140.5128  156.5974 N   0  0  0  0  0  0  0  0  0  0  0  0
  151.7658  139.3138  156.0256 C   0  0  0  0  0  0  0  0  0  0  0  0
  152.0069  139.2447  154.6956 N   0  0  0  0  0  0  0  0  0  0  0  0
  151.8091  138.1000  154.0389 C   0  0  0  0  0  0  0  0  0  0  0  0
  151.3823  136.9309  154.5156 N   0  0  0  0  0  0  0  0  0  0  0  0
  151.1289  136.9849  155.8556 C   0  0  0  0  0  0  0  0  0  0  0  0
  151.2826  138.1403  156.6776 C   0  0  0  0  0  0  0  0  0  0  0  0
  150.8987  137.8341  157.9765 N   0  0  0  0  0  0  0  0  0  0  0  0
  150.5640  136.5759  157.9263 C   0  0  0  0  0  0  0  0  0  0  0  0
  150.6882  135.9743  156.6942 N   0  0  0  0  0  0  0  0  0  0  0  0
  150.3780  134.5352  156.3746 C   0  0  1  0  0  0  0  0  0  0  0  0
  150.1484  133.8231  157.5538 O   0  0  0  0  0  0  0  0  0  0  0  0
  148.7569  133.5350  157.7171 C   0  0  2  0  0  0  0  0  0  0  0  0
  148.5803  132.0104  157.8528 C   0  0  0  0  0  0  0  0  0  0  0  0
  149.2743  131.4854  158.9663 O   0  0  0  0  0  0  0  0  0  0  0  0
  148.0103  134.1861  156.5399 C   0  0  1  0  0  0  0  0  0  0  0  0
  147.4304  135.4085  156.9601 O   0  0  0  0  0  0  0  0  0  0  0  0
  149.1139  134.3890  155.5089 C   0  0  1  0  0  0  0  0  0  0  0  0
  148.8553  135.4527  154.6077 O   0  0  0  0  0  0  0  0  0  0  0  0
  151.4923  142.4365  158.1444 C   0  0  0  0  0  0  0  0  0  0  0  0
  150.9280  143.7158  157.9287 C   0  0  0  0  0  0  0  0  0  0  0  0
  151.3861  144.8343  158.6498 C   0  0  0  0  0  0  0  0  0  0  0  0
  152.4095  144.6847  159.6026 C   0  0  0  0  0  0  0  0  0  0  0  0
  152.9678  143.4148  159.8371 C   0  0  0  0  0  0  0  0  0  0  0  0
  152.5128  142.2914  159.1182 C   0  0  0  0  0  0  0  0  0  0  0  0
  153.2266  140.7536  159.4590 Cl  0  0  0  0  0  0  0  0  0  0  0  0
  151.2830  134.1812  155.8797 H   0  0  0  0  0  0  0  0  0  0  0  0
  148.4322  133.9733  158.6617 H   0  0  0  0  0  0  0  0  0  0  0  0
  147.2081  133.5574  156.1519 H   0  0  0  0  0  0  0  0  0  0  0  0
  149.2298  133.4716  154.9308 H   0  0  0  0  0  0  0  0  0  0  0  0
  149.0356  142.1143  156.9434 H   0  0  0  0  0  0  0  0  0  0  0  0
  149.4567  140.7988  155.8552 H   0  0  0  0  0  0  0  0  0  0  0  0
  150.2122  142.3790  155.6591 H   0  0  0  0  0  0  0  0  0  0  0  0
  150.5587  140.5050  158.0354 H   0  0  0  0  0  0  0  0  0  0  0  0
  152.9581  140.8359  156.7613 H   0  0  0  0  0  0  0  0  0  0  0  0
  152.0281  138.1216  152.9817 H   0  0  0  0  0  0  0  0  0  0  0  0
  150.2228  136.0418  158.8010 H   0  0  0  0  0  0  0  0  0  0  0  0
  147.5235  131.7519  157.9258 H   0  0  0  0  0  0  0  0  0  0  0  0
  148.9664  131.5173  156.9602 H   0  0  0  0  0  0  0  0  0  0  0  0
  150.0884  131.9564  159.0609 H   0  0  0  0  0  0  0  0  0  0  0  0
  147.7980  136.1057  156.4384 H   0  0  0  0  0  0  0  0  0  0  0  0
  149.1391  135.1913  153.7454 H   0  0  0  0  0  0  0  0  0  0  0  0
  150.1398  143.8495  157.2025 H   0  0  0  0  0  0  0  0  0  0  0  0
  150.9512  145.8068  158.4721 H   0  0  0  0  0  0  0  0  0  0  0  0
  152.7627  145.5418  160.1569 H   0  0  0  0  0  0  0  0  0  0  0  0
  153.7489  143.3024  160.5746 H   0  0  0  0  0  0  0  0  0  0  0  0
  1  2  1  0  0  0  0
  1 33  1  0  0  0  0
  1 34  1  0  0  0  0
  1 35  1  0  0  0  0
  2  3  1  0  0  0  0
  2 22  1  0  0  0  0
  2 36  1  0  0  0  0
  3  4  1  0  0  0  0
  3 37  1  0  0  0  0
  4  9  1  0  0  0  0
  4  5  2  0  0  0  0
  5  6  1  0  0  0  0
  6  7  2  0  0  0  0
  6 38  1  0  0  0  0
  7  8  1  0  0  0  0
  8 12  1  0  0  0  0
  8  9  2  0  0  0  0
  9 10  1  0  0  0  0
 10 11  2  0  0  0  0
 11 12  1  0  0  0  0
 11 39  1  0  0  0  0
 12 13  1  0  0  0  0
 13 29  1  0  0  0  0
 13 20  1  0  0  0  0
 13 14  1  0  0  0  0
 14 15  1  0  0  0  0
 15 30  1  0  0  0  0
 15 16  1  0  0  0  0
 15 18  1  0  0  0  0
 16 17  1  0  0  0  0
 16 40  1  0  0  0  0
 16 41  1  0  0  0  0
 17 42  1  0  0  0  0
 18 31  1  0  0  0  0
 18 19  1  0  0  0  0
 18 20  1  0  0  0  0
 19 43  1  0  0  0  0
 20 32  1  0  0  0  0
 20 21  1  0  0  0  0
 21 44  1  0  0  0  0
 22 27  1  0  0  0  0
 22 23  2  0  0  0  0
 23 24  1  0  0  0  0
 23 45  1  0  0  0  0
 24 25  2  0  0  0  0
 24 46  1  0  0  0  0
 25 26  1  0  0  0  0
 25 47  1  0  0  0  0
 26 27  2  0  0  0  0
 26 48  1  0  0  0  0
 27 28  1  0  0  0  0
M  END
> <s_m_source_file>
AV-unprocessed.smi

> <i_m_source_file_index>
283

> <i_lp_mmshare_version>
43012

> <i_f3d_flags>
0

> <s_epik_input>
Q2xjMVtjSF1bY0hdW2NIXVtjSF1jMVtDQEhdKFtDSDNdKVtOSF1jKG5bY0hdbjIpYyhjMjMpbltjSF1uM1tDQEBIXTRPW0NASF0oW0NIMl1bT0hdKVtDQEBIXShbT0hdKVtDQEhdNFtPSF0=

> <s_epik_cmdline>
J2VwaWtfcHl0aG9uJywgJy1waCcsICc3LjAnLCAnLXRuJywgJzgnLCAnLW1hJywgJzIwMCcsICctbWV0YWxfYmluZGluZycsICctaW1hZScsICc8aW5maWxlLm1hZT4nLCAnLW9tYWUnLCAnPG91dGZpbGUubWFlPic=

> <r_lp_tautomer_probability>
1

> <r_epik_Ionization_Penalty>
0.000266407

> <r_epik_Ionization_Penalty_Charging>
0

> <r_epik_Ionization_Penalty_Neutral>
0.000266407

> <r_epik_State_Penalty>
-0

> <r_epik_Charging_Adjusted_Penalty>
0

> <i_epik_Tot_Q>
0

> <i_epik_Tot_abs_Q>
0

> <r_epik_Metal_State_Penalty>
-0

> <b_epik_Metal_Only>
0

> <s_epik_Chemistry_Notes>
This compound contains an acetal/aminal-like group ( X-CH(R)-Y where X, Y are N, S, or O) that may be acid/base labile, releasing an aldehyde.

> <s_lp_Force_Field>
OPLS_2005

> <r_lp_Energy>
53.7739

> <b_lp_Chiralities_Consistent>
1

> <s_lp_Variant>
AV-unprocessed.smi:283-4

> <Gold.Version>
5.8.1

> <Gold.Id.Protein>
6NUR|6NUR_protein|mol2

> <Gold.PLP.Fitness>
50.8672

> <Gold.PLP.PLP>
-40.5859

> <Gold.PLP.part.hbond>
-4.0000

> <Gold.PLP.part.metal>
0.0000

> <Gold.PLP.part.buried>
-5.4061

> <Gold.PLP.part.nonpolar>
-31.6837

> <Gold.PLP.part.repulsive>
0.3889

> <Gold.PLP.ligand.clash>
0.0000

> <Gold.PLP.ligand.torsion>
0.7750

> <Gold.PLP.Chemscore.Hbond>
3.4965

> <Gold.PLP.Chemscore.CHOScore>
0.3190

> <Gold.PLP.Chemscore.Metal>
0.0000

> <Gold.Chemscore.Hbonds>
donor molecule, donor type, donor heavy atom, donor atom, acceptor molecule, acceptor atom, score
      L1  H    21    44       P1  7948  0.48
      P1  H  6896  6909       L1    14  0.96
      P1  H  7989  7998       L1     5  0.90
      P1  H 10752 10764       L1     7  1.00
      L1  C     6    38       P1  7949  0.38

> <Gold.PLP.Chemscore.Internal.Correction>
0.3851

> <Gold.Rescore>
     Score         DG    S(hbond)    S(metal)    S(lipo)     H(rot)  DE(clash)    DE(int)     intcor
     10.91     -12.77       1.95        0.00      96.41       4.10       0.04       1.82       ----

> <Gold.Chemscore.Fitness>
10.9076

> <Gold.Chemscore.DG>
-12.7730

> <Gold.Chemscore.ZeroCoef>
-5.4800

> <Gold.Chemscore.Hbond>
1.9462

> <Gold.Chemscore.Metal>
0.0000

> <Gold.Chemscore.Lipo>
96.4143

> <Gold.Chemscore.Internal_Hbond>
0.0000

> <Gold.Chemscore.DEClash>
0.0444

> <Gold.Chemscore.DEInternal>
1.8209

> <Gold.Chemscore.Rot>
4.0968

> <Gold.Chemscore.Internal.Correction>
   9.000000E+99

> <Gold.Chemscore.Hbonds>
donor molecule, donor type, donor heavy atom, donor atom, acceptor molecule, acceptor atom, score
      L1  H    21    44       P1  7948  0.21
      P1  H  6896  6909       L1    14  0.46
      P1  H  7989  7998       L1     5  0.64
      P1  H 10752 10764       L1     7  0.26

> <Gold.Chemscore.Hbond.Weighted>
-6.5004

> <Gold.Chemscore.Metal.Weighted>
-0.0000

> <Gold.Chemscore.Lipo.Weighted>
-11.2805

> <Gold.Chemscore.Internal_Hbond.Weighted>
0.0000

> <Gold.Chemscore.DEClash.Weighted>
0.0444

> <Gold.Chemscore.DEInternal.Weighted>
1.8209

> <Gold.Chemscore.Rot.Weighted>
10.4879

> <Gold.Chemscore.Internal.Correction.Weighted>
   9.000000E+99

> <Gold.Protein.RotatedTorsions>
[ 6907 6896 6895 6894 ] final   -5.84 input  -60.11 | X-H torsion
[ 7974 7965 7964 7962 ] final  -61.82 input  175.53 | X-H torsion
[ 8008 7997 7996 7995 ] final    9.12 input   59.86 | X-H torsion
[ 10167 10162 10161 10158 ] final    2.11 input  -65.29 | X-H torsion
[ 10718 10713 10712 10709 ] final  -16.64 input   66.30 | X-H torsion
[ 10763 10752 10751 10750 ] final  -77.88 input  -60.55 | X-H torsion
[ 11005 11000 10999 10996 ] final  -82.08 input  -57.11 | X-H torsion

> <Gold.Protein.ActiveResidues>
 VAL166  LYS551  ARG553  GLY616  TRP617  ASP618  TYR619  PRO620  LYS621  CYS622 
 ASP623  PHE694  ASN695  SER759  ASP760  ASP761  ALA762  ILE779  LEU786  VAL792 
 PHE793  MET794  SER795  GLU796  ALA797  LYS798  CYS799  TRP800  GLU811  SER814 

> <Gold.Protein.RotatedAtoms>
  151.4752  135.1048  159.9762 H   0  0  0  0  0  0  0  0  0  0  0  0  # atno 6907 bound_to 6896
  152.4801  133.8229  159.7073 H   0  0  0  0  0  0  0  0  0  0  0  0  # atno 6908 bound_to 6896
  150.8866  133.7238  159.2943 H   0  0  0  0  0  0  0  0  0  0  0  0  # atno 6909 bound_to 6896
  145.7988  140.8667  143.0242 H   0  0  0  0  0  0  0  0  0  0  0  0  # atno 7974 bound_to 7965
  154.7758  140.2810  155.6102 H   0  0  0  0  0  0  0  0  0  0  0  0  # atno 8008 bound_to 7997
  156.2941  140.2632  156.2499 H   0  0  0  0  0  0  0  0  0  0  0  0  # atno 8009 bound_to 7997
  154.9845  140.0374  157.2282 H   0  0  0  0  0  0  0  0  0  0  0  0  # atno 8010 bound_to 7997
  140.6651  143.7201  150.7811 H   0  0  0  0  0  0  0  0  0  0  0  0  # atno 10167 bound_to 10162
  156.5847  130.4783  149.6305 H   0  0  0  0  0  0  0  0  0  0  0  0  # atno 10718 bound_to 10713
  154.5187  135.5749  153.6663 H   0  0  0  0  0  0  0  0  0  0  0  0  # atno 10763 bound_to 10752
  152.9912  135.6176  154.2784 H   0  0  0  0  0  0  0  0  0  0  0  0  # atno 10764 bound_to 10752
  154.2703  135.2853  155.2720 H   0  0  0  0  0  0  0  0  0  0  0  0  # atno 10765 bound_to 10752
  141.1664  133.7227  156.8518 H   0  0  0  0  0  0  0  0  0  0  0  0  # atno 11005 bound_to 11000
  144.6771  140.0229  143.7483 LP  0  0  0  0  0  0  0  0  0  0  0  0  # atno 17320 bound_to 7965
  145.9899  139.3007  143.0991 LP  0  0  0  0  0  0  0  0  0  0  0  0  # atno 17321 bound_to 7965
  140.0877  143.4907  152.2496 LP  0  0  0  0  0  0  0  0  0  0  0  0  # atno 17342 bound_to 10162
  139.5897  144.7545  151.3432 LP  0  0  0  0  0  0  0  0  0  0  0  0  # atno 17343 bound_to 10162
  156.2601  130.6957  151.1723 LP  0  0  0  0  0  0  0  0  0  0  0  0  # atno 17370 bound_to 10713
  157.7318  131.0605  150.5659 LP  0  0  0  0  0  0  0  0  0  0  0  0  # atno 17371 bound_to 10713
  140.1910  134.8965  157.3061 LP  0  0  0  0  0  0  0  0  0  0  0  0  # atno 17394 bound_to 11000
  140.2290  134.3932  155.7530 LP  0  0  0  0  0  0  0  0  0  0  0  0  # atno 17395 bound_to 11000

$$$$
