AV-unprocessed.smi:767|AV-procd|sdf|3657|dock8
  -GOLD-   22720 1 63D 1   1.00000     0.00000
 Structure written by MMmdl.
 47 49  0  0  0  0  0  0  0  0  1 V2000
  154.9729  140.5056  162.6047 C   0  0  0  0  0  0  0  0  0  0  0  0
  154.0942  141.5037  161.8798 C   0  0  0  0  0  0  0  0  0  0  0  0
  153.4572  142.5488  162.5817 C   0  0  0  0  0  0  0  0  0  0  0  0
  152.6527  143.4499  161.8578 C   0  0  0  0  0  0  0  0  0  0  0  0
  152.5186  143.2741  160.4653 C   0  0  0  0  0  0  0  0  0  0  0  0
  151.6697  144.2200  159.6394 C   0  0  0  0  0  0  0  0  0  0  0  0
  150.4664  143.5079  159.0012 C   0  0  0  0  0  0  0  0  0  0  0  0
  149.2982  144.3780  158.9426 N   0  0  0  0  0  0  0  0  0  0  0  0
  148.4295  144.5659  159.9454 C   0  0  0  0  0  0  0  0  0  0  0  0
  148.5133  144.0177  161.0447 O   0  0  0  0  0  0  0  0  0  0  0  0
  147.4622  145.4287  159.6094 N   0  0  0  0  0  0  0  0  0  0  0  0
  146.3893  145.8491  160.5023 C   0  0  2  0  0  0  0  0  0  0  0  0
  145.6074  144.6665  161.0747 C   0  0  1  0  0  0  0  0  0  0  0  0
  145.4344  144.0872  162.4334 C   0  0  0  0  0  0  0  0  0  0  0  0
  143.8910  143.9239  162.3987 C   0  0  0  0  0  0  0  0  0  0  0  0
  143.4414  144.6432  161.2241 O   0  0  0  0  0  0  0  0  0  0  0  0
  144.4359  145.6282  161.0323 C   0  0  2  0  0  0  0  0  0  0  0  0
  145.0558  146.2245  159.7525 C   0  0  0  0  0  0  0  0  0  0  0  0
  144.8199  147.7215  159.5499 C   0  0  0  0  0  0  0  0  0  0  0  0
  144.7176  145.5478  158.4085 C   0  0  0  0  0  0  0  0  0  0  0  0
  153.2010  142.1984  159.8589 C   0  0  0  0  0  0  0  0  0  0  0  0
  153.9733  141.3287  160.5453 N   0  0  0  0  0  0  0  0  0  0  0  0
  154.7785  140.5180  163.6775 H   0  0  0  0  0  0  0  0  0  0  0  0
  156.0245  140.7438  162.4442 H   0  0  0  0  0  0  0  0  0  0  0  0
  154.7896  139.4942  162.2402 H   0  0  0  0  0  0  0  0  0  0  0  0
  153.5803  142.6597  163.6491 H   0  0  0  0  0  0  0  0  0  0  0  0
  152.1508  144.2614  162.3643 H   0  0  0  0  0  0  0  0  0  0  0  0
  151.3315  145.0361  160.2792 H   0  0  0  0  0  0  0  0  0  0  0  0
  152.2908  144.6731  158.8655 H   0  0  0  0  0  0  0  0  0  0  0  0
  150.7115  143.2055  157.9826 H   0  0  0  0  0  0  0  0  0  0  0  0
  150.2257  142.5945  159.5480 H   0  0  0  0  0  0  0  0  0  0  0  0
  149.1436  144.8757  158.0781 H   0  0  0  0  0  0  0  0  0  0  0  0
  147.4748  145.8304  158.6833 H   0  0  0  0  0  0  0  0  0  0  0  0
  146.6956  146.5706  161.2656 H   0  0  0  0  0  0  0  0  0  0  0  0
  145.5318  143.8671  160.3335 H   0  0  0  0  0  0  0  0  0  0  0  0
  145.9537  143.1370  162.5598 H   0  0  0  0  0  0  0  0  0  0  0  0
  145.7563  144.7771  163.2150 H   0  0  0  0  0  0  0  0  0  0  0  0
  143.5944  142.8776  162.3205 H   0  0  0  0  0  0  0  0  0  0  0  0
  143.4357  144.3395  163.2984 H   0  0  0  0  0  0  0  0  0  0  0  0
  144.4265  146.3510  161.8564 H   0  0  0  0  0  0  0  0  0  0  0  0
  143.7799  147.9328  159.2994 H   0  0  0  0  0  0  0  0  0  0  0  0
  145.4415  148.1202  158.7476 H   0  0  0  0  0  0  0  0  0  0  0  0
  145.0565  148.2896  160.4499 H   0  0  0  0  0  0  0  0  0  0  0  0
  143.6721  145.7062  158.1429 H   0  0  0  0  0  0  0  0  0  0  0  0
  144.8786  144.4713  158.4059 H   0  0  0  0  0  0  0  0  0  0  0  0
  145.3214  145.9551  157.5969 H   0  0  0  0  0  0  0  0  0  0  0  0
  153.1284  142.0320  158.7941 H   0  0  0  0  0  0  0  0  0  0  0  0
  1  2  1  0  0  0  0
  1 23  1  0  0  0  0
  1 24  1  0  0  0  0
  1 25  1  0  0  0  0
  2 22  1  0  0  0  0
  2  3  2  0  0  0  0
  3  4  1  0  0  0  0
  3 26  1  0  0  0  0
  4  5  2  0  0  0  0
  4 27  1  0  0  0  0
  5  6  1  0  0  0  0
  5 21  1  0  0  0  0
  6  7  1  0  0  0  0
  6 28  1  0  0  0  0
  6 29  1  0  0  0  0
  7  8  1  0  0  0  0
  7 30  1  0  0  0  0
  7 31  1  0  0  0  0
  8  9  1  0  0  0  0
  8 32  1  0  0  0  0
  9 10  2  0  0  0  0
  9 11  1  0  0  0  0
 11 12  1  0  0  0  0
 11 33  1  0  0  0  0
 12 18  1  0  0  0  0
 12 13  1  0  0  0  0
 12 34  1  0  0  0  0
 13 17  1  0  0  0  0
 13 14  1  0  0  0  0
 13 35  1  0  0  0  0
 14 15  1  0  0  0  0
 14 36  1  0  0  0  0
 14 37  1  0  0  0  0
 15 16  1  0  0  0  0
 15 38  1  0  0  0  0
 15 39  1  0  0  0  0
 16 17  1  0  0  0  0
 17 18  1  0  0  0  0
 17 40  1  0  0  0  0
 18 19  1  0  0  0  0
 18 20  1  0  0  0  0
 19 41  1  0  0  0  0
 19 42  1  0  0  0  0
 19 43  1  0  0  0  0
 20 44  1  0  0  0  0
 20 45  1  0  0  0  0
 20 46  1  0  0  0  0
 21 22  2  0  0  0  0
 21 47  1  0  0  0  0
M  END
> <s_m_source_file>
AV-unprocessed.smi

> <i_m_source_file_index>
767

> <i_lp_mmshare_version>
43012

> <i_f3d_flags>
0

> <s_epik_input>
W0NIM11jMVtjSF1bY0hdYyhbY0hdbjEpW0NIMl1bQ0gyXVtOSF1DKD1PKVtOSF1bQ0BIXTJDKFtDSDNdKShbQ0gzXSlbQ0BIXShbQ0BASF0yMylPW0NIMl1bQ0gyXTM=

> <s_epik_cmdline>
J2VwaWtfcHl0aG9uJywgJy1waCcsICc3LjAnLCAnLXRuJywgJzgnLCAnLW1hJywgJzIwMCcsICctbWV0YWxfYmluZGluZycsICctaW1hZScsICc8aW5maWxlLm1hZT4nLCAnLW9tYWUnLCAnPG91dGZpbGUubWFlPic=

> <r_epik_Ionization_Penalty>
0.0567523

> <r_epik_Ionization_Penalty_Charging>
0

> <r_epik_Ionization_Penalty_Neutral>
0.0567523

> <r_epik_State_Penalty>
0.0489186

> <r_epik_Charging_Adjusted_Penalty>
0.0489186

> <i_epik_Tot_Q>
0

> <i_epik_Tot_abs_Q>
0

> <r_epik_Metal_State_Penalty>
0.044622

> <b_epik_Metal_Only>
0

> <s_lp_Force_Field>
OPLS_2005

> <r_lp_Energy>
54.5337

> <b_lp_Chiralities_Consistent>
1

> <s_lp_Variant>
AV-unprocessed.smi:767-1

> <Gold.Version>
5.8.1

> <Gold.Id.Protein>
6NUR|6NUR_protein|mol2

> <Gold.PLP.Fitness>
51.9827

> <Gold.PLP.PLP>
-45.1982

> <Gold.PLP.part.hbond>
-2.5977

> <Gold.PLP.part.metal>
0.0000

> <Gold.PLP.part.buried>
-2.4087

> <Gold.PLP.part.nonpolar>
-41.9109

> <Gold.PLP.part.repulsive>
0.4871

> <Gold.PLP.ligand.clash>
0.0000

> <Gold.PLP.ligand.torsion>
0.6235

> <Gold.PLP.Chemscore.Hbond>
2.5880

> <Gold.PLP.Chemscore.CHOScore>
0.0000

> <Gold.PLP.Chemscore.Metal>
0.0000

> <Gold.Chemscore.Hbonds>
donor molecule, donor type, donor heavy atom, donor atom, acceptor molecule, acceptor atom, score
      L1  H     8    32       P1  8029  0.83
      L1  H    11    33       P1  8029  0.81
      P1  H  6933  6944       L1    10  0.91

> <Gold.PLP.Chemscore.Internal.Correction>
0.2675

> <Gold.Rescore>
     Score         DG    S(hbond)    S(metal)    S(lipo)     H(rot)  DE(clash)    DE(int)     intcor
     21.95     -25.17       2.27        0.00     135.27       1.45       1.80       1.42       ----

> <Gold.Chemscore.Fitness>
21.9503

> <Gold.Chemscore.DG>
-25.1677

> <Gold.Chemscore.ZeroCoef>
-5.4800

> <Gold.Chemscore.Hbond>
2.2670

> <Gold.Chemscore.Metal>
0.0000

> <Gold.Chemscore.Lipo>
135.2745

> <Gold.Chemscore.Internal_Hbond>
0.0000

> <Gold.Chemscore.DEClash>
1.8004

> <Gold.Chemscore.DEInternal>
1.4170

> <Gold.Chemscore.Rot>
1.4497

> <Gold.Chemscore.Internal.Correction>
   9.000000E+99

> <Gold.Chemscore.Hbonds>
donor molecule, donor type, donor heavy atom, donor atom, acceptor molecule, acceptor atom, score
      L1  H     8    32       P1  8029  0.21
      L1  H    11    33       P1  8029  0.78
      P1  H  6933  6944       L1    10  0.90

> <Gold.Chemscore.Hbond.Weighted>
-7.5718

> <Gold.Chemscore.Metal.Weighted>
-0.0000

> <Gold.Chemscore.Lipo.Weighted>
-15.8271

> <Gold.Chemscore.Internal_Hbond.Weighted>
0.0000

> <Gold.Chemscore.DEClash.Weighted>
1.8004

> <Gold.Chemscore.DEInternal.Weighted>
1.4170

> <Gold.Chemscore.Rot.Weighted>
3.7112

> <Gold.Chemscore.Internal.Correction.Weighted>
   9.000000E+99

> <Gold.Protein.RotatedTorsions>
[ 6907 6896 6895 6894 ] final  -99.54 input  -60.11 | X-H torsion
[ 7974 7965 7964 7962 ] final -127.03 input  175.53 | X-H torsion
[ 8008 7997 7996 7995 ] final   20.54 input   59.86 | X-H torsion
[ 10167 10162 10161 10158 ] final  107.67 input  -65.29 | X-H torsion
[ 10718 10713 10712 10709 ] final  -85.94 input   66.30 | X-H torsion
[ 10763 10752 10751 10750 ] final   37.95 input  -60.55 | X-H torsion
[ 11005 11000 10999 10996 ] final  -48.47 input  -57.11 | X-H torsion

> <Gold.Protein.ActiveResidues>
 VAL166  LYS551  ARG553  GLY616  TRP617  ASP618  TYR619  PRO620  LYS621  CYS622 
 ASP623  PHE694  ASN695  SER759  ASP760  ASP761  ALA762  ILE779  LEU786  VAL792 
 PHE793  MET794  SER795  GLU796  ALA797  LYS798  CYS799  TRP800  GLU811  SER814 

> <Gold.Protein.RotatedAtoms>
  150.7083  134.1026  159.3970 H   0  0  0  0  0  0  0  0  0  0  0  0  # atno 6907 bound_to 6896
  151.9012  135.0375  160.0516 H   0  0  0  0  0  0  0  0  0  0  0  0  # atno 6908 bound_to 6896
  152.2413  133.5102  159.5308 H   0  0  0  0  0  0  0  0  0  0  0  0  # atno 6909 bound_to 6896
  144.9813  140.7642  143.4611 H   0  0  0  0  0  0  0  0  0  0  0  0  # atno 7974 bound_to 7965
  154.9371  140.3048  155.5139 H   0  0  0  0  0  0  0  0  0  0  0  0  # atno 8008 bound_to 7997
  156.2999  140.2343  156.4373 H   0  0  0  0  0  0  0  0  0  0  0  0  # atno 8009 bound_to 7997
  154.8181  140.0425  157.1380 H   0  0  0  0  0  0  0  0  0  0  0  0  # atno 8010 bound_to 7997
  139.6908  144.7108  151.1351 H   0  0  0  0  0  0  0  0  0  0  0  0  # atno 10167 bound_to 10162
  155.9993  130.4748  150.4639 H   0  0  0  0  0  0  0  0  0  0  0  0  # atno 10718 bound_to 10713
  153.0018  135.6263  154.2227 H   0  0  0  0  0  0  0  0  0  0  0  0  # atno 10763 bound_to 10752
  154.1970  135.2806  155.3005 H   0  0  0  0  0  0  0  0  0  0  0  0  # atno 10764 bound_to 10752
  154.5714  135.5675  153.7158 H   0  0  0  0  0  0  0  0  0  0  0  0  # atno 10765 bound_to 10752
  141.0702  133.6681  156.3445 H   0  0  0  0  0  0  0  0  0  0  0  0  # atno 11005 bound_to 11000
  145.2417  139.2069  143.4989 LP  0  0  0  0  0  0  0  0  0  0  0  0  # atno 17320 bound_to 7965
  146.3408  140.2314  142.8593 LP  0  0  0  0  0  0  0  0  0  0  0  0  # atno 17321 bound_to 7965
  140.7682  143.5562  150.9150 LP  0  0  0  0  0  0  0  0  0  0  0  0  # atno 17342 bound_to 10162
  139.9239  143.6573  152.3091 LP  0  0  0  0  0  0  0  0  0  0  0  0  # atno 17343 bound_to 10162
  157.2661  131.0577  151.2290 LP  0  0  0  0  0  0  0  0  0  0  0  0  # atno 17370 bound_to 10713
  157.3387  130.7022  149.6368 LP  0  0  0  0  0  0  0  0  0  0  0  0  # atno 17371 bound_to 10713
  140.5689  134.5860  157.5452 LP  0  0  0  0  0  0  0  0  0  0  0  0  # atno 17394 bound_to 11000
  139.9516  134.7607  156.0435 LP  0  0  0  0  0  0  0  0  0  0  0  0  # atno 17395 bound_to 11000

$$$$
