AV-unprocessed.smi:415|AV-procd|sdf|2519|dock9
  -GOLD-   2262022473D 1   1.00000     0.00000
 Structure written by MMmdl.
 53 54  0  0  0  0  0  0  0  0  1 V2000
  147.6016  136.4799  157.6561 C   0  0  0  0  0  0  0  0  0  0  0  0
  146.5671  137.1953  157.0038 O   0  0  0  0  0  0  0  0  0  0  0  0
  146.1941  136.6075  155.7693 C   0  0  0  0  0  0  0  0  0  0  0  0
  147.3712  136.7262  154.7902 C   0  0  0  0  0  0  0  0  0  0  0  0
  147.7536  138.1023  154.5401 N   0  0  0  0  0  0  0  0  0  0  0  0
  146.8982  139.0376  153.9646 C   0  0  0  0  0  0  0  0  0  0  0  0
  145.6093  138.6676  153.6248 N   0  0  0  0  0  0  0  0  0  0  0  0
  147.2939  140.3105  153.7416 C   0  0  0  0  0  0  0  0  0  0  0  0
  148.6286  140.7734  154.0937 C   0  0  0  0  0  0  0  0  0  0  0  0
  149.0166  141.9216  153.8752 O   0  0  0  0  0  0  0  0  0  0  0  0
  149.4700  139.8160  154.7059 N   0  0  0  0  0  0  0  0  0  0  0  0
  150.8441  140.2232  155.0759 C   0  0  0  0  0  0  0  0  0  0  0  0
  151.0310  140.4349  156.5862 C   0  0  0  0  0  0  0  0  0  0  0  0
  151.0531  139.4795  157.3634 O   0  0  0  0  0  0  0  0  0  0  0  0
  151.1506  141.7099  156.9863 N   0  0  0  0  0  0  0  0  0  0  0  0
  151.3245  142.1520  158.3682 C   0  0  1  0  0  0  0  0  0  0  0  0
  152.5927  141.5116  158.9650 C   0  0  0  0  0  0  0  0  0  0  0  0
  152.7922  141.9299  160.4293 C   0  0  0  0  0  0  0  0  0  0  0  0
  152.8073  143.4587  160.5832 C   0  0  0  0  0  0  0  0  0  0  0  0
  151.5398  144.0986  159.9809 C   0  0  1  0  0  0  0  0  0  0  0  0
  151.4948  145.6164  160.2235 C   0  0  0  0  0  0  0  0  0  0  0  0
  151.3500  143.7006  158.4923 C   0  0  1  0  0  0  0  0  0  0  0  0
  152.3679  144.3697  157.5391 C   0  0  0  0  0  0  0  0  0  0  0  0
  149.0579  138.4849  154.9462 C   0  0  0  0  0  0  0  0  0  0  0  0
  149.8227  137.6847  155.4922 O   0  0  0  0  0  0  0  0  0  0  0  0
  147.8507  136.9723  158.5961 H   0  0  0  0  0  0  0  0  0  0  0  0
  148.5047  136.4461  157.0453 H   0  0  0  0  0  0  0  0  0  0  0  0
  147.2933  135.4585  157.8826 H   0  0  0  0  0  0  0  0  0  0  0  0
  145.9370  135.5579  155.9209 H   0  0  0  0  0  0  0  0  0  0  0  0
  145.3123  137.1092  155.3676 H   0  0  0  0  0  0  0  0  0  0  0  0
  148.2518  136.1810  155.1343 H   0  0  0  0  0  0  0  0  0  0  0  0
  147.1276  136.2842  153.8244 H   0  0  0  0  0  0  0  0  0  0  0  0
  145.2639  137.7317  153.7817 H   0  0  0  0  0  0  0  0  0  0  0  0
  144.9511  139.3274  153.2356 H   0  0  0  0  0  0  0  0  0  0  0  0
  146.6077  141.0123  153.2896 H   0  0  0  0  0  0  0  0  0  0  0  0
  151.5692  139.4845  154.7298 H   0  0  0  0  0  0  0  0  0  0  0  0
  151.1412  141.1403  154.5654 H   0  0  0  0  0  0  0  0  0  0  0  0
  151.1169  142.4315  156.2810 H   0  0  0  0  0  0  0  0  0  0  0  0
  150.4770  141.7789  158.9473 H   0  0  0  0  0  0  0  0  0  0  0  0
  152.5229  140.4246  158.9065 H   0  0  0  0  0  0  0  0  0  0  0  0
  153.4698  141.7924  158.3809 H   0  0  0  0  0  0  0  0  0  0  0  0
  151.9895  141.5120  161.0380 H   0  0  0  0  0  0  0  0  0  0  0  0
  153.7212  141.5080  160.8136 H   0  0  0  0  0  0  0  0  0  0  0  0
  152.8840  143.7123  161.6412 H   0  0  0  0  0  0  0  0  0  0  0  0
  153.6994  143.8679  160.1080 H   0  0  0  0  0  0  0  0  0  0  0  0
  150.6891  143.6843  160.5246 H   0  0  0  0  0  0  0  0  0  0  0  0
  152.3615  146.1227  159.7985 H   0  0  0  0  0  0  0  0  0  0  0  0
  151.4834  145.8381  161.2909 H   0  0  0  0  0  0  0  0  0  0  0  0
  150.5985  146.0581  159.7874 H   0  0  0  0  0  0  0  0  0  0  0  0
  150.3664  144.0632  158.1900 H   0  0  0  0  0  0  0  0  0  0  0  0
  153.3938  144.0857  157.7698 H   0  0  0  0  0  0  0  0  0  0  0  0
  152.3082  145.4562  157.5880 H   0  0  0  0  0  0  0  0  0  0  0  0
  152.1796  144.1010  156.4999 H   0  0  0  0  0  0  0  0  0  0  0  0
  1  2  1  0  0  0  0
  1 26  1  0  0  0  0
  1 27  1  0  0  0  0
  1 28  1  0  0  0  0
  2  3  1  0  0  0  0
  3  4  1  0  0  0  0
  3 29  1  0  0  0  0
  3 30  1  0  0  0  0
  4  5  1  0  0  0  0
  4 31  1  0  0  0  0
  4 32  1  0  0  0  0
  5 24  1  0  0  0  0
  5  6  1  0  0  0  0
  6  7  1  0  0  0  0
  6  8  2  0  0  0  0
  7 33  1  0  0  0  0
  7 34  1  0  0  0  0
  8  9  1  0  0  0  0
  8 35  1  0  0  0  0
  9 10  2  0  0  0  0
  9 11  1  0  0  0  0
 11 12  1  0  0  0  0
 11 24  1  0  0  0  0
 12 13  1  0  0  0  0
 12 36  1  0  0  0  0
 12 37  1  0  0  0  0
 13 14  2  0  0  0  0
 13 15  1  0  0  0  0
 15 16  1  0  0  0  0
 15 38  1  0  0  0  0
 16 22  1  0  0  0  0
 16 17  1  0  0  0  0
 16 39  1  0  0  0  0
 17 18  1  0  0  0  0
 17 40  1  0  0  0  0
 17 41  1  0  0  0  0
 18 19  1  0  0  0  0
 18 42  1  0  0  0  0
 18 43  1  0  0  0  0
 19 20  1  0  0  0  0
 19 44  1  0  0  0  0
 19 45  1  0  0  0  0
 20 21  1  0  0  0  0
 20 22  1  0  0  0  0
 20 46  1  0  0  0  0
 21 47  1  0  0  0  0
 21 48  1  0  0  0  0
 21 49  1  0  0  0  0
 22 23  1  0  0  0  0
 22 50  1  0  0  0  0
 23 51  1  0  0  0  0
 23 52  1  0  0  0  0
 23 53  1  0  0  0  0
 24 25  2  0  0  0  0
M  END
> <s_m_source_file>
AV-unprocessed.smi

> <i_m_source_file_index>
415

> <i_lp_mmshare_version>
43012

> <i_f3d_flags>
0

> <s_epik_input>
W0NIM11PW0NIMl1bQ0gyXW4xYyhbTkgyXSlbY0hdYyg9TyluKGMxPU8pW0NIMl1DKD1PKVtOSF1bQ0BASF0yW0NIMl1bQ0gyXVtDSDJdW0NAQEhdKFtDSDNdKVtDQEhdMltDSDNd

> <s_epik_cmdline>
J2VwaWtfcHl0aG9uJywgJy1waCcsICc3LjAnLCAnLXRuJywgJzgnLCAnLW1hJywgJzIwMCcsICctbWV0YWxfYmluZGluZycsICctaW1hZScsICc8aW5maWxlLm1hZT4nLCAnLW9tYWUnLCAnPG91dGZpbGUubWFlPic=

> <r_lp_tautomer_probability>
1

> <r_epik_Ionization_Penalty>
8.6647e-06

> <r_epik_Ionization_Penalty_Charging>
1.81162e-08

> <r_epik_Ionization_Penalty_Neutral>
8.64658e-06

> <r_epik_State_Penalty>
-0

> <r_epik_Charging_Adjusted_Penalty>
1.81162e-08

> <i_epik_Tot_Q>
0

> <i_epik_Tot_abs_Q>
0

> <r_epik_Metal_State_Penalty>
-0

> <b_epik_Metal_Only>
0

> <s_lp_Force_Field>
OPLS_2005

> <r_lp_Energy>
22.062

> <b_lp_Chiralities_Consistent>
1

> <s_lp_Variant>
AV-unprocessed.smi:415-2

> <Gold.Version>
5.8.1

> <Gold.Id.Protein>
6NUR|6NUR_protein|mol2

> <Gold.PLP.Fitness>
45.0184

> <Gold.PLP.PLP>
-41.2292

> <Gold.PLP.part.hbond>
-2.3032

> <Gold.PLP.part.metal>
0.0000

> <Gold.PLP.part.buried>
-2.8380

> <Gold.PLP.part.nonpolar>
-36.5896

> <Gold.PLP.part.repulsive>
0.3665

> <Gold.PLP.ligand.clash>
0.0000

> <Gold.PLP.ligand.torsion>
0.3470

> <Gold.PLP.Chemscore.Hbond>
1.4800

> <Gold.PLP.Chemscore.CHOScore>
0.0000

> <Gold.PLP.Chemscore.Metal>
0.0000

> <Gold.Chemscore.Hbonds>
donor molecule, donor type, donor heavy atom, donor atom, acceptor molecule, acceptor atom, score
      L1  H     7    34       P1 10175  1.00
      P1  H  8011  8017       L1    10  0.50

> <Gold.PLP.Chemscore.Internal.Correction>
0.0433

> <Gold.Rescore>
     Score         DG    S(hbond)    S(metal)    S(lipo)     H(rot)  DE(clash)    DE(int)     intcor
     14.36     -17.06       1.56        0.00     104.07       2.26       0.91       1.78       ----

> <Gold.Chemscore.Fitness>
14.3641

> <Gold.Chemscore.DG>
-17.0577

> <Gold.Chemscore.ZeroCoef>
-5.4800

> <Gold.Chemscore.Hbond>
1.5566

> <Gold.Chemscore.Metal>
0.0000

> <Gold.Chemscore.Lipo>
104.0674

> <Gold.Chemscore.Internal_Hbond>
0.0000

> <Gold.Chemscore.DEClash>
0.9139

> <Gold.Chemscore.DEInternal>
1.7796

> <Gold.Chemscore.Rot>
2.2645

> <Gold.Chemscore.Internal.Correction>
   9.000000E+99

> <Gold.Chemscore.Hbonds>
donor molecule, donor type, donor heavy atom, donor atom, acceptor molecule, acceptor atom, score
      L1  H     7    34       P1 10175  1.00
      P1  H  8011  8017       L1    10  0.48

> <Gold.Chemscore.Hbond.Weighted>
-5.1990

> <Gold.Chemscore.Metal.Weighted>
-0.0000

> <Gold.Chemscore.Lipo.Weighted>
-12.1759

> <Gold.Chemscore.Internal_Hbond.Weighted>
0.0000

> <Gold.Chemscore.DEClash.Weighted>
0.9139

> <Gold.Chemscore.DEInternal.Weighted>
1.7796

> <Gold.Chemscore.Rot.Weighted>
5.7972

> <Gold.Chemscore.Internal.Correction.Weighted>
   9.000000E+99

> <Gold.Protein.RotatedTorsions>
[ 6907 6896 6895 6894 ] final  -27.98 input  -60.11 | X-H torsion
[ 7974 7965 7964 7962 ] final -165.18 input  175.53 | X-H torsion
[ 8008 7997 7996 7995 ] final  102.64 input   59.86 | X-H torsion
[ 10167 10162 10161 10158 ] final    2.30 input  -65.29 | X-H torsion
[ 10718 10713 10712 10709 ] final  -26.86 input   66.30 | X-H torsion
[ 10763 10752 10751 10750 ] final   52.99 input  -60.55 | X-H torsion
[ 11005 11000 10999 10996 ] final -123.88 input  -57.11 | X-H torsion

> <Gold.Protein.ActiveResidues>
 VAL166  LYS551  ARG553  GLY616  TRP617  ASP618  TYR619  PRO620  LYS621  CYS622 
 ASP623  PHE694  ASN695  SER759  ASP760  ASP761  ALA762  ILE779  LEU786  VAL792 
 PHE793  MET794  SER795  GLU796  ALA797  LYS798  CYS799  TRP800  GLU811  SER814 

> <Gold.Protein.RotatedAtoms>
  151.1393  135.0171  159.8617 H   0  0  0  0  0  0  0  0  0  0  0  0  # atno 6907 bound_to 6896
  152.5452  134.1518  159.8532 H   0  0  0  0  0  0  0  0  0  0  0  0  # atno 6908 bound_to 6896
  151.1592  133.4811  159.2627 H   0  0  0  0  0  0  0  0  0  0  0  0  # atno 6909 bound_to 6896
  144.7277  140.2851  143.6229 H   0  0  0  0  0  0  0  0  0  0  0  0  # atno 7974 bound_to 7965
  156.1412  140.3178  155.8498 H   0  0  0  0  0  0  0  0  0  0  0  0  # atno 8008 bound_to 7997
  155.4151  140.0508  157.3046 H   0  0  0  0  0  0  0  0  0  0  0  0  # atno 8009 bound_to 7997
  154.4978  140.2117  155.9423 H   0  0  0  0  0  0  0  0  0  0  0  0  # atno 8010 bound_to 7997
  140.6641  143.7225  150.7794 H   0  0  0  0  0  0  0  0  0  0  0  0  # atno 10167 bound_to 10162
  156.4457  130.4473  149.7023 H   0  0  0  0  0  0  0  0  0  0  0  0  # atno 10718 bound_to 10713
  152.9792  135.5794  154.4668 H   0  0  0  0  0  0  0  0  0  0  0  0  # atno 10763 bound_to 10752
  154.4236  135.2772  155.1961 H   0  0  0  0  0  0  0  0  0  0  0  0  # atno 10764 bound_to 10752
  154.3699  135.6170  153.5788 H   0  0  0  0  0  0  0  0  0  0  0  0  # atno 10765 bound_to 10752
  140.9885  134.0573  157.3683 H   0  0  0  0  0  0  0  0  0  0  0  0  # atno 11005 bound_to 11000
  145.7910  139.1927  143.2103 LP  0  0  0  0  0  0  0  0  0  0  0  0  # atno 17320 bound_to 7965
  146.0755  140.7821  142.9667 LP  0  0  0  0  0  0  0  0  0  0  0  0  # atno 17321 bound_to 7965
  140.0899  143.4887  152.2484 LP  0  0  0  0  0  0  0  0  0  0  0  0  # atno 17342 bound_to 10162
  139.5884  144.7540  151.3461 LP  0  0  0  0  0  0  0  0  0  0  0  0  # atno 17343 bound_to 10162
  156.3870  130.7608  151.2606 LP  0  0  0  0  0  0  0  0  0  0  0  0  # atno 17370 bound_to 10713
  157.7505  131.0279  150.4025 LP  0  0  0  0  0  0  0  0  0  0  0  0  # atno 17371 bound_to 10713
  139.8981  135.0153  156.7133 LP  0  0  0  0  0  0  0  0  0  0  0  0  # atno 17394 bound_to 11000
  140.7077  133.9250  155.8064 LP  0  0  0  0  0  0  0  0  0  0  0  0  # atno 17395 bound_to 11000

$$$$
