AV-unprocessed.smi:2229|AV-procd|sdf|9031|dock5
  -GOLD-   2272012233D 1   1.00000     0.00000
 Structure written by MMmdl.
 43 44  0  0  0  0  0  0  0  0  2 V2000
  149.5587  141.4190  155.5441 C   0  0  0  0  0  0  0  0  0  0  0  0
  150.9745  141.4829  156.1369 C   0  0  0  0  0  0  0  0  0  0  0  0
  151.7001  140.1415  155.9290 C   0  0  0  0  0  0  0  0  0  0  0  0
  150.9246  141.8997  157.6214 C   0  0  0  0  0  0  0  0  0  0  0  0
  152.3093  142.0667  158.2710 C   0  0  0  0  0  0  0  0  0  0  0  0
  152.2730  141.9963  159.8089 C   0  0  2  0  0  0  0  0  0  0  0  0
  152.0200  143.3315  160.5132 C   0  0  0  0  0  0  0  0  0  0  0  0
  152.4768  143.0770  161.9473 C   0  0  0  0  0  0  0  0  0  0  0  0
  153.6928  142.1542  161.8166 C   0  0  0  0  0  0  0  0  0  0  0  0
  153.5811  141.4746  160.4379 C   0  0  1  0  0  0  0  0  0  0  0  0
  153.5499  140.0204  160.5641 N   0  0  0  0  0  0  0  0  0  0  0  0
  154.3005  139.1684  159.8494 C   0  0  0  0  0  0  0  0  0  0  0  0
  155.1861  139.5300  159.0736 O   0  0  0  0  0  0  0  0  0  0  0  0
  154.0078  137.6775  160.0496 C   0  0  0  0  0  0  0  0  0  0  0  0
  153.4719  137.0469  158.8403 N   0  0  0  0  0  0  0  0  0  0  0  0
  152.2661  137.3968  158.2866 C   0  0  0  0  0  0  0  0  0  0  0  0
  152.0317  136.7042  157.2303 N   0  0  0  0  0  0  0  0  0  0  0  0
  153.1524  135.8299  157.0614 N   0  5  0  0  0  0  0  0  0  0  0  0
  154.0024  136.0861  158.0803 C   0  0  0  0  0  0  0  0  0  0  0  0
  155.0899  135.5611  158.3178 O   0  0  0  0  0  0  0  0  0  0  0  0
  148.9506  140.6691  156.0512 H   0  0  0  0  0  0  0  0  0  0  0  0
  149.5864  141.1635  154.4845 H   0  0  0  0  0  0  0  0  0  0  0  0
  149.0489  142.3785  155.6353 H   0  0  0  0  0  0  0  0  0  0  0  0
  151.5206  142.2502  155.5864 H   0  0  0  0  0  0  0  0  0  0  0  0
  151.2285  139.3423  156.5017 H   0  0  0  0  0  0  0  0  0  0  0  0
  152.7457  140.1925  156.2309 H   0  0  0  0  0  0  0  0  0  0  0  0
  151.6866  139.8472  154.8794 H   0  0  0  0  0  0  0  0  0  0  0  0
  150.3898  142.8462  157.7068 H   0  0  0  0  0  0  0  0  0  0  0  0
  150.3384  141.1706  158.1824 H   0  0  0  0  0  0  0  0  0  0  0  0
  152.9682  141.2776  157.9123 H   0  0  0  0  0  0  0  0  0  0  0  0
  152.7589  143.0070  157.9503 H   0  0  0  0  0  0  0  0  0  0  0  0
  151.4632  141.3239  160.1001 H   0  0  0  0  0  0  0  0  0  0  0  0
  152.6300  144.1168  160.0642 H   0  0  0  0  0  0  0  0  0  0  0  0
  150.9767  143.6442  160.4605 H   0  0  0  0  0  0  0  0  0  0  0  0
  152.7050  143.9981  162.4844 H   0  0  0  0  0  0  0  0  0  0  0  0
  151.6856  142.5621  162.4938 H   0  0  0  0  0  0  0  0  0  0  0  0
  154.6113  142.7406  161.8598 H   0  0  0  0  0  0  0  0  0  0  0  0
  153.7321  141.4408  162.6411 H   0  0  0  0  0  0  0  0  0  0  0  0
  154.4351  141.7942  159.8372 H   0  0  0  0  0  0  0  0  0  0  0  0
  152.8551  139.6315  161.1848 H   0  0  0  0  0  0  0  0  0  0  0  0
  154.9266  137.1856  160.3723 H   0  0  0  0  0  0  0  0  0  0  0  0
  153.2866  137.5448  160.8579 H   0  0  0  0  0  0  0  0  0  0  0  0
  151.6515  138.1708  158.7492 H   0  0  0  0  0  0  0  0  0  0  0  0
  1  2  1  0  0  0  0
  1 21  1  0  0  0  0
  1 22  1  0  0  0  0
  1 23  1  0  0  0  0
  2  3  1  0  0  0  0
  2  4  1  0  0  0  0
  2 24  1  0  0  0  0
  3 25  1  0  0  0  0
  3 26  1  0  0  0  0
  3 27  1  0  0  0  0
  4  5  1  0  0  0  0
  4 28  1  0  0  0  0
  4 29  1  0  0  0  0
  5  6  1  0  0  0  0
  5 30  1  0  0  0  0
  5 31  1  0  0  0  0
  6 10  1  0  0  0  0
  6  7  1  0  0  0  0
  6 32  1  0  0  0  0
  7  8  1  0  0  0  0
  7 33  1  0  0  0  0
  7 34  1  0  0  0  0
  8  9  1  0  0  0  0
  8 35  1  0  0  0  0
  8 36  1  0  0  0  0
  9 10  1  0  0  0  0
  9 37  1  0  0  0  0
  9 38  1  0  0  0  0
 10 11  1  0  0  0  0
 10 39  1  0  0  0  0
 11 12  1  0  0  0  0
 11 40  1  0  0  0  0
 12 13  2  0  0  0  0
 12 14  1  0  0  0  0
 14 15  1  0  0  0  0
 14 41  1  0  0  0  0
 14 42  1  0  0  0  0
 15 19  1  0  0  0  0
 15 16  1  0  0  0  0
 16 17  2  0  0  0  0
 16 43  1  0  0  0  0
 17 18  1  0  0  0  0
 18 19  1  0  0  0  0
 19 20  2  0  0  0  0
M  CHG  1  18  -1
M  END
> <s_m_source_file>
AV-unprocessed.smi

> <i_m_source_file_index>
2229

> <i_lp_mmshare_version>
43012

> <i_f3d_flags>
0

> <s_epik_input>
W0NIM11bQ0hdKFtDSDNdKVtDSDJdW0NIMl1bQ0BASF0xW0NIMl1bQ0gyXVtDSDJdW0NASF0xW05IXUMoPU8pW0NIMl1uMltjSF1uW25IXWMyPU8=

> <s_epik_cmdline>
J2VwaWtfcHl0aG9uJywgJy1waCcsICc3LjAnLCAnLXRuJywgJzgnLCAnLW1hJywgJzIwMCcsICctbWV0YWxfYmluZGluZycsICctaW1hZScsICc8aW5maWxlLm1hZT4nLCAnLW9tYWUnLCAnPG91dGZpbGUubWFlPic=

> <r_lp_tautomer_probability>
1

> <r_epik_Ionization_Penalty>
13.6733

> <r_epik_Ionization_Penalty_Charging>
13.6725

> <r_epik_Ionization_Penalty_Neutral>
0.000837689

> <r_epik_State_Penalty>
5.67062

> <r_epik_Charging_Adjusted_Penalty>
19.3431

> <i_epik_Tot_Q>
-1

> <i_epik_Tot_abs_Q>
1

> <r_epik_Metal_State_Penalty>
1.61781

> <b_epik_Metal_Only>
1

> <s_lp_Force_Field>
OPLS_2005

> <r_lp_Energy>
25.828

> <b_lp_Chiralities_Consistent>
1

> <s_lp_Variant>
AV-unprocessed.smi:2229-5

> <Gold.Version>
5.8.1

> <Gold.Id.Protein>
6NUR|6NUR_protein|mol2

> <Gold.PLP.Fitness>
44.4934

> <Gold.PLP.PLP>
-36.6500

> <Gold.PLP.part.hbond>
-2.0000

> <Gold.PLP.part.metal>
0.0000

> <Gold.PLP.part.buried>
-4.9501

> <Gold.PLP.part.nonpolar>
-28.7370

> <Gold.PLP.part.repulsive>
0.0641

> <Gold.PLP.ligand.clash>
0.0000

> <Gold.PLP.ligand.torsion>
0.5961

> <Gold.PLP.Chemscore.Hbond>
3.0000

> <Gold.PLP.Chemscore.CHOScore>
0.0000

> <Gold.PLP.Chemscore.Metal>
0.0000

> <Gold.Chemscore.Hbonds>
donor molecule, donor type, donor heavy atom, donor atom, acceptor molecule, acceptor atom, score
      P1  H  7997  8009       L1    13  1.00
      P1  H 10752 10763       L1    18  2.00

> <Gold.PLP.Chemscore.Internal.Correction>
0.0355

> <Gold.Rescore>
     Score         DG    S(hbond)    S(metal)    S(lipo)     H(rot)  DE(clash)    DE(int)     intcor
     16.08     -16.78       1.99        0.00      96.67       2.59       0.05       0.65       ----

> <Gold.Chemscore.Fitness>
16.0796

> <Gold.Chemscore.DG>
-16.7845

> <Gold.Chemscore.ZeroCoef>
-5.4800

> <Gold.Chemscore.Hbond>
1.9865

> <Gold.Chemscore.Metal>
0.0000

> <Gold.Chemscore.Lipo>
96.6686

> <Gold.Chemscore.Internal_Hbond>
0.0000

> <Gold.Chemscore.DEClash>
0.0518

> <Gold.Chemscore.DEInternal>
0.6531

> <Gold.Chemscore.Rot>
2.5939

> <Gold.Chemscore.Internal.Correction>
   9.000000E+99

> <Gold.Chemscore.Hbonds>
donor molecule, donor type, donor heavy atom, donor atom, acceptor molecule, acceptor atom, score
      P1  H  7997  8009       L1    13  1.00
      P1  H 10752 10763       L1    18  0.88

> <Gold.Chemscore.Hbond.Weighted>
-6.6347

> <Gold.Chemscore.Metal.Weighted>
-0.0000

> <Gold.Chemscore.Lipo.Weighted>
-11.3102

> <Gold.Chemscore.Internal_Hbond.Weighted>
0.0000

> <Gold.Chemscore.DEClash.Weighted>
0.0518

> <Gold.Chemscore.DEInternal.Weighted>
0.6531

> <Gold.Chemscore.Rot.Weighted>
6.6405

> <Gold.Chemscore.Internal.Correction.Weighted>
   9.000000E+99

> <Gold.Protein.RotatedTorsions>
[ 6907 6896 6895 6894 ] final  -47.53 input  -60.11 | X-H torsion
[ 7974 7965 7964 7962 ] final   -7.21 input  175.53 | X-H torsion
[ 8008 7997 7996 7995 ] final  102.55 input   59.86 | X-H torsion
[ 10167 10162 10161 10158 ] final   98.72 input  -65.29 | X-H torsion
[ 10718 10713 10712 10709 ] final   60.87 input   66.30 | X-H torsion
[ 10763 10752 10751 10750 ] final  114.33 input  -60.55 | X-H torsion
[ 11005 11000 10999 10996 ] final  111.21 input  -57.11 | X-H torsion

> <Gold.Protein.ActiveResidues>
 VAL166  LYS551  ARG553  GLY616  TRP617  ASP618  TYR619  PRO620  LYS621  CYS622 
 ASP623  PHE694  ASN695  SER759  ASP760  ASP761  ALA762  ILE779  LEU786  VAL792 
 PHE793  MET794  SER795  GLU796  ALA797  LYS798  CYS799  TRP800  GLU811  SER814 

> <Gold.Protein.RotatedAtoms>
  150.8998  134.8410  159.7352 H   0  0  0  0  0  0  0  0  0  0  0  0  # atno 6907 bound_to 6896
  152.4886  134.4519  159.9587 H   0  0  0  0  0  0  0  0  0  0  0  0  # atno 6908 bound_to 6896
  151.4572  133.3563  159.2839 H   0  0  0  0  0  0  0  0  0  0  0  0  # atno 6909 bound_to 6896
  146.2312  140.2285  142.8339 H   0  0  0  0  0  0  0  0  0  0  0  0  # atno 7974 bound_to 7965
  156.1403  140.3179  155.8486 H   0  0  0  0  0  0  0  0  0  0  0  0  # atno 8008 bound_to 7997
  155.4166  140.0509  157.3045 H   0  0  0  0  0  0  0  0  0  0  0  0  # atno 8009 bound_to 7997
  154.4971  140.2115  155.9436 H   0  0  0  0  0  0  0  0  0  0  0  0  # atno 8010 bound_to 7997
  139.7683  144.6931  151.0193 H   0  0  0  0  0  0  0  0  0  0  0  0  # atno 10167 bound_to 10162
  157.5785  130.8963  149.9389 H   0  0  0  0  0  0  0  0  0  0  0  0  # atno 10718 bound_to 10713
  153.5057  135.3628  155.2562 H   0  0  0  0  0  0  0  0  0  0  0  0  # atno 10763 bound_to 10752
  154.8745  135.4010  154.3427 H   0  0  0  0  0  0  0  0  0  0  0  0  # atno 10764 bound_to 10752
  153.4071  135.7076  153.6452 H   0  0  0  0  0  0  0  0  0  0  0  0  # atno 10765 bound_to 10752
  139.8898  134.9502  156.6397 H   0  0  0  0  0  0  0  0  0  0  0  0  # atno 11005 bound_to 11000
  144.9576  140.8243  143.5533 LP  0  0  0  0  0  0  0  0  0  0  0  0  # atno 17320 bound_to 7965
  145.2252  139.2140  143.5072 LP  0  0  0  0  0  0  0  0  0  0  0  0  # atno 17321 bound_to 7965
  140.7812  143.4618  151.0268 LP  0  0  0  0  0  0  0  0  0  0  0  0  # atno 17342 bound_to 10162
  139.8302  143.7701  152.3179 LP  0  0  0  0  0  0  0  0  0  0  0  0  # atno 17343 bound_to 10162
  156.0830  130.3671  150.0542 LP  0  0  0  0  0  0  0  0  0  0  0  0  # atno 17370 bound_to 10713
  156.8685  130.9516  151.3611 LP  0  0  0  0  0  0  0  0  0  0  0  0  # atno 17371 bound_to 10713
  140.7603  133.8823  155.8413 LP  0  0  0  0  0  0  0  0  0  0  0  0  # atno 17394 bound_to 11000
  140.9927  134.1256  157.4393 LP  0  0  0  0  0  0  0  0  0  0  0  0  # atno 17395 bound_to 11000

$$$$
