AV-unprocessed.smi:1056|AV-procd|sdf|4645|dock1
  -GOLD-   22720 3153D 1   1.00000     0.00000
 Structure written by MMmdl.
 44 46  0  0  0  0  0  0  0  0  3 V2000
  151.9786  143.8632  161.3092 C   0  0  0  0  0  0  0  0  0  0  0  0
  151.7998  143.0168  160.0607 C   0  0  0  0  0  0  0  0  0  0  0  0
  152.2687  141.6839  160.0617 C   0  0  0  0  0  0  0  0  0  0  0  0
  152.1184  140.8625  158.9231 C   0  0  0  0  0  0  0  0  0  0  0  0
  152.4993  139.5496  158.7058 N   0  0  0  0  0  0  0  0  0  0  0  0
  152.0836  139.3524  157.4585 C   0  0  0  0  0  0  0  0  0  0  0  0
  151.4814  140.3852  156.8386 N   0  0  0  0  0  0  0  0  0  0  0  0
  150.9521  140.4003  155.4871 C   0  0  0  0  0  0  0  0  0  0  0  0
  149.8106  141.4201  155.3085 C   0  0  1  0  0  0  0  0  0  0  0  0
  149.5103  141.4807  153.9283 O   0  0  0  0  0  0  0  0  0  0  0  0
  148.5306  141.0456  156.0895 C   0  0  0  0  0  0  0  0  0  0  0  0
  147.3992  141.9708  155.8265 N   0  3  1  0  0  0  0  0  0  0  0  0
  146.5765  141.5486  154.6641 C   0  0  0  0  0  0  0  0  0  0  0  0
  145.6270  142.6851  154.2397 C   0  0  0  0  0  0  0  0  0  0  0  0
  144.9371  143.2379  155.4111 N   0  5  0  0  0  0  0  0  0  0  0  0
  145.3577  143.1655  156.7122 C   0  0  0  0  0  0  0  0  0  0  0  0
  144.8383  143.7467  157.6623 O   0  0  0  0  0  0  0  0  0  0  0  0
  146.5596  142.2355  157.0305 C   0  0  0  0  0  0  0  0  0  0  0  0
  151.4792  141.4143  157.7746 C   0  0  0  0  0  0  0  0  0  0  0  0
  151.0106  142.7400  157.7604 C   0  0  0  0  0  0  0  0  0  0  0  0
  151.1711  143.5477  158.9058 C   0  0  0  0  0  0  0  0  0  0  0  0
  150.6619  144.9779  158.8808 C   0  0  0  0  0  0  0  0  0  0  0  0
  152.4286  143.2885  162.1191 H   0  0  0  0  0  0  0  0  0  0  0  0
  151.0165  144.2358  161.6609 H   0  0  0  0  0  0  0  0  0  0  0  0
  152.6263  144.7157  161.1035 H   0  0  0  0  0  0  0  0  0  0  0  0
  152.7482  141.2795  160.9410 H   0  0  0  0  0  0  0  0  0  0  0  0
  152.2270  138.4023  156.9645 H   0  0  0  0  0  0  0  0  0  0  0  0
  151.7725  140.6297  154.8054 H   0  0  0  0  0  0  0  0  0  0  0  0
  150.6114  139.3954  155.2339 H   0  0  0  0  0  0  0  0  0  0  0  0
  150.1780  142.3983  155.6169 H   0  0  0  0  0  0  0  0  0  0  0  0
  148.8571  140.8282  153.7271 H   0  0  0  0  0  0  0  0  0  0  0  0
  148.2487  140.0281  155.8147 H   0  0  0  0  0  0  0  0  0  0  0  0
  148.7158  141.0281  157.1638 H   0  0  0  0  0  0  0  0  0  0  0  0
  147.2138  141.2887  153.8181 H   0  0  0  0  0  0  0  0  0  0  0  0
  146.0122  140.6513  154.9238 H   0  0  0  0  0  0  0  0  0  0  0  0
  146.2123  143.4565  153.7387 H   0  0  0  0  0  0  0  0  0  0  0  0
  144.9276  142.3109  153.4926 H   0  0  0  0  0  0  0  0  0  0  0  0
  146.1744  141.2964  157.4303 H   0  0  0  0  0  0  0  0  0  0  0  0
  147.1562  142.7003  157.8145 H   0  0  0  0  0  0  0  0  0  0  0  0
  150.5319  143.1324  156.8755 H   0  0  0  0  0  0  0  0  0  0  0  0
  150.2558  145.2388  157.9031 H   0  0  0  0  0  0  0  0  0  0  0  0
  151.4688  145.6762  159.1042 H   0  0  0  0  0  0  0  0  0  0  0  0
  149.8717  145.1131  159.6194 H   0  0  0  0  0  0  0  0  0  0  0  0
  147.8021  142.8558  155.5552 H   0  0  0  0  0  0  0  0  0  0  0  0
  1  2  1  0  0  0  0
  1 23  1  0  0  0  0
  1 24  1  0  0  0  0
  1 25  1  0  0  0  0
  2 21  1  0  0  0  0
  2  3  2  0  0  0  0
  3  4  1  0  0  0  0
  3 26  1  0  0  0  0
  4 19  2  0  0  0  0
  4  5  1  0  0  0  0
  5  6  2  0  0  0  0
  6  7  1  0  0  0  0
  6 27  1  0  0  0  0
  7  8  1  0  0  0  0
  7 19  1  0  0  0  0
  8  9  1  0  0  0  0
  8 28  1  0  0  0  0
  8 29  1  0  0  0  0
  9 10  1  0  0  0  0
  9 11  1  0  0  0  0
  9 30  1  0  0  0  0
 10 31  1  0  0  0  0
 11 12  1  0  0  0  0
 11 32  1  0  0  0  0
 11 33  1  0  0  0  0
 12 18  1  0  0  0  0
 12 13  1  0  0  0  0
 12 44  1  0  0  0  0
 13 14  1  0  0  0  0
 13 34  1  0  0  0  0
 13 35  1  0  0  0  0
 14 15  1  0  0  0  0
 14 36  1  0  0  0  0
 14 37  1  0  0  0  0
 15 16  1  0  0  0  0
 16 17  2  0  0  0  0
 16 18  1  0  0  0  0
 18 38  1  0  0  0  0
 18 39  1  0  0  0  0
 19 20  1  0  0  0  0
 20 21  2  0  0  0  0
 20 40  1  0  0  0  0
 21 22  1  0  0  0  0
 22 41  1  0  0  0  0
 22 42  1  0  0  0  0
 22 43  1  0  0  0  0
M  CHG  1  12   1
M  CHG  1  15  -1
M  END
> <s_m_source_file>
AV-unprocessed.smi

> <i_m_source_file_index>
1056

> <i_lp_mmshare_version>
43012

> <i_f3d_flags>
0

> <s_epik_input>
W0NIM11jKFtjSF0xKWMoW0NIM10pW2NIXWMoYzEyKW4oW2NIXW4yKVtDSDJdW0NASF0oW09IXSlbQ0gyXU4zW0NIMl1bQ0gyXVtOSF1DKD1PKVtDSDJdMw==

> <s_epik_cmdline>
J2VwaWtfcHl0aG9uJywgJy1waCcsICc3LjAnLCAnLXRuJywgJzgnLCAnLW1hJywgJzIwMCcsICctbWV0YWxfYmluZGluZycsICctaW1hZScsICc8aW5maWxlLm1hZT4nLCAnLW9tYWUnLCAnPG91dGZpbGUubWFlPic=

> <r_epik_Ionization_Penalty>
5.13411

> <r_epik_Ionization_Penalty_Charging>
5.04792

> <r_epik_Ionization_Penalty_Neutral>
0.0861879

> <r_epik_State_Penalty>
5.18224

> <r_epik_Charging_Adjusted_Penalty>
10.2302

> <i_epik_Tot_Q>
0

> <i_epik_Tot_abs_Q>
2

> <r_epik_Metal_State_Penalty>
1.33873

> <b_epik_Metal_Only>
1

> <s_lp_Force_Field>
OPLS_2005

> <r_lp_Energy>
19.55

> <b_lp_Chiralities_Consistent>
1

> <s_lp_Variant>
AV-unprocessed.smi:1056-16

> <Gold.Version>
5.8.1

> <Gold.Id.Protein>
6NUR|6NUR_protein|mol2

> <Gold.PLP.Fitness>
50.5395

> <Gold.PLP.PLP>
-43.6635

> <Gold.PLP.part.hbond>
-3.8236

> <Gold.PLP.part.metal>
0.0000

> <Gold.PLP.part.buried>
-5.1451

> <Gold.PLP.part.nonpolar>
-34.9198

> <Gold.PLP.part.repulsive>
0.3495

> <Gold.PLP.ligand.clash>
0.0000

> <Gold.PLP.ligand.torsion>
0.8308

> <Gold.PLP.Chemscore.Hbond>
2.8269

> <Gold.PLP.Chemscore.CHOScore>
0.0000

> <Gold.PLP.Chemscore.Metal>
0.0000

> <Gold.Chemscore.Hbonds>
donor molecule, donor type, donor heavy atom, donor atom, acceptor molecule, acceptor atom, score
      L1  H    12    44       P1  8028  1.50
      P1  H  7989  7998       L1    10  0.06
      P1  H  8011  8017       L1    10  0.70

> <Gold.PLP.Chemscore.Internal.Correction>
0.0570

> <Gold.Rescore>
     Score         DG    S(hbond)    S(metal)    S(lipo)     H(rot)  DE(clash)    DE(int)     intcor
     14.53     -16.71       1.27        0.00     110.45       2.31       0.28       1.90       ----

> <Gold.Chemscore.Fitness>
14.5270

> <Gold.Chemscore.DG>
-16.7055

> <Gold.Chemscore.ZeroCoef>
-5.4800

> <Gold.Chemscore.Hbond>
1.2659

> <Gold.Chemscore.Metal>
0.0000

> <Gold.Chemscore.Lipo>
110.4521

> <Gold.Chemscore.Internal_Hbond>
0.0000

> <Gold.Chemscore.DEClash>
0.2780

> <Gold.Chemscore.DEInternal>
1.9005

> <Gold.Chemscore.Rot>
2.3147

> <Gold.Chemscore.Internal.Correction>
   9.000000E+99

> <Gold.Chemscore.Hbonds>
donor molecule, donor type, donor heavy atom, donor atom, acceptor molecule, acceptor atom, score
      L1  H    12    44       P1  8028  0.49
      P1  H  8011  8017       L1    10  0.39

> <Gold.Chemscore.Hbond.Weighted>
-4.2281

> <Gold.Chemscore.Metal.Weighted>
-0.0000

> <Gold.Chemscore.Lipo.Weighted>
-12.9229

> <Gold.Chemscore.Internal_Hbond.Weighted>
0.0000

> <Gold.Chemscore.DEClash.Weighted>
0.2780

> <Gold.Chemscore.DEInternal.Weighted>
1.9005

> <Gold.Chemscore.Rot.Weighted>
5.9256

> <Gold.Chemscore.Internal.Correction.Weighted>
   9.000000E+99

> <Gold.Protein.RotatedTorsions>
[ 6907 6896 6895 6894 ] final -132.50 input  -60.11 | X-H torsion
[ 7974 7965 7964 7962 ] final   56.04 input  175.53 | X-H torsion
[ 8008 7997 7996 7995 ] final  127.44 input   59.86 | X-H torsion
[ 10167 10162 10161 10158 ] final   68.90 input  -65.29 | X-H torsion
[ 10718 10713 10712 10709 ] final  173.16 input   66.30 | X-H torsion
[ 10763 10752 10751 10750 ] final  162.41 input  -60.55 | X-H torsion
[ 11005 11000 10999 10996 ] final -151.57 input  -57.11 | X-H torsion

> <Gold.Protein.ActiveResidues>
 VAL166  LYS551  ARG553  GLY616  TRP617  ASP618  TYR619  PRO620  LYS621  CYS622 
 ASP623  PHE694  ASN695  SER759  ASP760  ASP761  ALA762  ILE779  LEU786  VAL792 
 PHE793  MET794  SER795  GLU796  ALA797  LYS798  CYS799  TRP800  GLU811  SER814 

> <Gold.Protein.RotatedAtoms>
  150.9631  133.6423  159.2750 H   0  0  0  0  0  0  0  0  0  0  0  0  # atno 6907 bound_to 6896
  151.3739  135.0926  159.9484 H   0  0  0  0  0  0  0  0  0  0  0  0  # atno 6908 bound_to 6896
  152.5155  133.9180  159.7575 H   0  0  0  0  0  0  0  0  0  0  0  0  # atno 6909 bound_to 6896
  145.9440  139.3913  143.0346 H   0  0  0  0  0  0  0  0  0  0  0  0  # atno 7974 bound_to 7965
  156.2891  140.2669  156.2274 H   0  0  0  0  0  0  0  0  0  0  0  0  # atno 8008 bound_to 7997
  155.0107  140.0387  157.2416 H   0  0  0  0  0  0  0  0  0  0  0  0  # atno 8009 bound_to 7997
  154.7521  140.2745  155.6289 H   0  0  0  0  0  0  0  0  0  0  0  0  # atno 8010 bound_to 7997
  140.0736  144.5131  150.7210 H   0  0  0  0  0  0  0  0  0  0  0  0  # atno 10167 bound_to 10162
  156.9684  131.0082  151.2911 H   0  0  0  0  0  0  0  0  0  0  0  0  # atno 10718 bound_to 10713
  154.2779  135.2764  155.2710 H   0  0  0  0  0  0  0  0  0  0  0  0  # atno 10763 bound_to 10752
  154.5244  135.5747  153.6710 H   0  0  0  0  0  0  0  0  0  0  0  0  # atno 10764 bound_to 10752
  152.9934  135.6212  154.2937 H   0  0  0  0  0  0  0  0  0  0  0  0  # atno 10765 bound_to 10752
  140.7282  134.3651  157.5171 H   0  0  0  0  0  0  0  0  0  0  0  0  # atno 11005 bound_to 11000
  145.8261  140.9654  143.0873 LP  0  0  0  0  0  0  0  0  0  0  0  0  # atno 17320 bound_to 7965
  144.6784  140.0103  143.7484 LP  0  0  0  0  0  0  0  0  0  0  0  0  # atno 17321 bound_to 7965
  140.7113  143.2507  151.4572 LP  0  0  0  0  0  0  0  0  0  0  0  0  # atno 17342 bound_to 10162
  139.5821  144.1686  152.1982 LP  0  0  0  0  0  0  0  0  0  0  0  0  # atno 17343 bound_to 10162
  157.5610  130.8245  149.8265 LP  0  0  0  0  0  0  0  0  0  0  0  0  # atno 17370 bound_to 10713
  156.0293  130.3769  150.1733 LP  0  0  0  0  0  0  0  0  0  0  0  0  # atno 17371 bound_to 10713
  139.8832  134.9000  156.2780 LP  0  0  0  0  0  0  0  0  0  0  0  0  # atno 17394 bound_to 11000
  140.9944  133.7189  156.0864 LP  0  0  0  0  0  0  0  0  0  0  0  0  # atno 17395 bound_to 11000

$$$$
