AV-unprocessed.smi:1760|AV-procd|sdf|7090|dock6
  -GOLD-   22720 8303D 1   1.00000     0.00000
 Structure written by MMmdl.
 44 46  0  0  0  0  0  0  0  0  2 V2000
  154.6832  141.9370  162.8812 O   0  0  0  0  0  0  0  0  0  0  0  0
  154.9074  140.8535  162.3424 C   0  0  0  0  0  0  0  0  0  0  0  0
  154.3572  140.4157  161.1949 N   0  0  0  0  0  0  0  0  0  0  0  0
  153.4113  141.0419  160.3655 C   0  0  0  0  0  0  0  0  0  0  0  0
  153.1444  142.3741  160.3572 C   0  0  0  0  0  0  0  0  0  0  0  0
  152.1450  142.9552  159.4761 C   0  0  0  0  0  0  0  0  0  0  0  0
  151.9166  144.4575  159.4128 C   0  0  0  0  0  0  0  0  0  0  0  0
  152.4526  144.9826  158.3102 F   0  0  0  0  0  0  0  0  0  0  0  0
  150.6098  144.7163  159.4025 F   0  0  0  0  0  0  0  0  0  0  0  0
  152.4523  145.0679  160.4699 F   0  0  0  0  0  0  0  0  0  0  0  0
  151.4962  142.1038  158.6604 C   0  0  0  0  0  0  0  0  0  0  0  0
  151.7468  140.7300  158.6805 N   0  0  0  0  0  0  0  0  0  0  0  0
  152.6618  140.1362  159.4791 C   0  0  0  0  0  0  0  0  0  0  0  0
  152.8257  138.9173  159.4365 O   0  0  0  0  0  0  0  0  0  0  0  0
  155.7723  139.9516  162.8294 N   0  0  0  0  0  0  0  0  0  0  0  0
  156.5796  140.1052  164.0372 C   0  0  2  0  0  0  0  0  0  0  0  0
  155.7429  139.7449  165.2760 C   0  0  0  0  0  0  0  0  0  0  0  0
  156.5320  140.0007  166.5741 C   0  0  0  0  0  0  0  0  0  0  0  0
  157.0327  141.3970  166.6578 N   0  3  2  0  0  0  0  0  0  0  0  0
  155.9719  142.3829  166.9721 C   0  0  0  0  0  0  0  0  0  0  0  0
  156.4947  143.6619  167.5832 C   0  0  0  0  0  0  0  0  0  0  0  0
  155.8002  142.6367  168.4516 C   0  0  0  0  0  0  0  0  0  0  0  0
  157.8505  141.7692  165.4744 C   0  0  0  0  0  0  0  0  0  0  0  0
  157.0908  141.5510  164.1518 C   0  0  0  0  0  0  0  0  0  0  0  0
  151.2052  140.1552  158.0511 H   0  0  0  0  0  0  0  0  0  0  0  0
  154.6952  139.5308  160.8454 H   0  0  0  0  0  0  0  0  0  0  0  0
  153.6562  143.0478  161.0246 H   0  0  0  0  0  0  0  0  0  0  0  0
  150.7524  142.4025  157.9364 H   0  0  0  0  0  0  0  0  0  0  0  0
  155.8907  139.0915  162.3140 H   0  0  0  0  0  0  0  0  0  0  0  0
  157.4442  139.4394  164.0074 H   0  0  0  0  0  0  0  0  0  0  0  0
  154.8191  140.3249  165.2851 H   0  0  0  0  0  0  0  0  0  0  0  0
  155.4440  138.6969  165.2306 H   0  0  0  0  0  0  0  0  0  0  0  0
  155.9170  139.7721  167.4451 H   0  0  0  0  0  0  0  0  0  0  0  0
  157.3877  139.3256  166.6172 H   0  0  0  0  0  0  0  0  0  0  0  0
  155.1093  142.4059  166.3092 H   0  0  0  0  0  0  0  0  0  0  0  0
  157.5707  143.7751  167.7027 H   0  0  0  0  0  0  0  0  0  0  0  0
  155.9524  144.5800  167.3659 H   0  0  0  0  0  0  0  0  0  0  0  0
  154.8004  142.8791  168.8063 H   0  0  0  0  0  0  0  0  0  0  0  0
  156.4152  142.0693  169.1479 H   0  0  0  0  0  0  0  0  0  0  0  0
  158.1783  142.8058  165.5590 H   0  0  0  0  0  0  0  0  0  0  0  0
  158.7556  141.1604  165.4774 H   0  0  0  0  0  0  0  0  0  0  0  0
  157.7469  141.7808  163.3114 H   0  0  0  0  0  0  0  0  0  0  0  0
  156.2557  142.2495  164.0861 H   0  0  0  0  0  0  0  0  0  0  0  0
  157.6595  141.4220  167.4496 H   0  0  0  0  0  0  0  0  0  0  0  0
  1  2  2  0  0  0  0
  2  3  1  0  0  0  0
  2 15  1  0  0  0  0
  3  4  1  0  0  0  0
  3 26  1  0  0  0  0
  4 13  1  0  0  0  0
  4  5  2  0  0  0  0
  5  6  1  0  0  0  0
  5 27  1  0  0  0  0
  6  7  1  0  0  0  0
  6 11  2  0  0  0  0
  7  8  1  0  0  0  0
  7  9  1  0  0  0  0
  7 10  1  0  0  0  0
 11 12  1  0  0  0  0
 11 28  1  0  0  0  0
 12 25  1  0  0  0  0
 12 13  1  0  0  0  0
 13 14  2  0  0  0  0
 15 16  1  0  0  0  0
 15 29  1  0  0  0  0
 16 24  1  0  0  0  0
 16 17  1  0  0  0  0
 16 30  1  0  0  0  0
 17 18  1  0  0  0  0
 17 31  1  0  0  0  0
 17 32  1  0  0  0  0
 18 19  1  0  0  0  0
 18 33  1  0  0  0  0
 18 34  1  0  0  0  0
 19 20  1  0  0  0  0
 19 23  1  0  0  0  0
 19 44  1  0  0  0  0
 20 22  1  0  0  0  0
 20 21  1  0  0  0  0
 20 35  1  0  0  0  0
 21 22  1  0  0  0  0
 21 36  1  0  0  0  0
 21 37  1  0  0  0  0
 22 38  1  0  0  0  0
 22 39  1  0  0  0  0
 23 24  1  0  0  0  0
 23 40  1  0  0  0  0
 23 41  1  0  0  0  0
 24 42  1  0  0  0  0
 24 43  1  0  0  0  0
M  CHG  1  19   1
M  END
> <s_m_source_file>
AV-unprocessed.smi

> <i_m_source_file_index>
1760

> <i_lp_mmshare_version>
43012

> <i_f3d_flags>
0

> <s_epik_input>
W0NIMl0xW0NIMl1bQ0hdMU4oW0NIMl1bQ0gyXTIpW0NIMl1bQ0gyXVtDSF0yW05IXUMoPU8pW05IXWMzW2NIXWMoQyhGKShGKUYpW2NIXVtuSF1jMz1P

> <s_epik_cmdline>
J2VwaWtfcHl0aG9uJywgJy1waCcsICc3LjAnLCAnLXRuJywgJzgnLCAnLW1hJywgJzIwMCcsICctbWV0YWxfYmluZGluZycsICctaW1hZScsICc8aW5maWxlLm1hZT4nLCAnLW9tYWUnLCAnPG91dGZpbGUubWFlPic=

> <r_lp_tautomer_probability>
0.999

> <r_epik_Ionization_Penalty>
0.131122

> <r_epik_Ionization_Penalty_Charging>
0.131104

> <r_epik_Ionization_Penalty_Neutral>
1.84439e-05

> <r_epik_State_Penalty>
0.116042

> <r_epik_Charging_Adjusted_Penalty>
0.247146

> <i_epik_Tot_Q>
1

> <i_epik_Tot_abs_Q>
1

> <r_epik_Metal_State_Penalty>
0.492282

> <b_epik_Metal_Only>
0

> <s_lp_Force_Field>
OPLS_2005

> <r_lp_Energy>
39.2626

> <b_lp_Chiralities_Consistent>
1

> <s_lp_Variant>
AV-unprocessed.smi:1760-2

> <Gold.Version>
5.8.1

> <Gold.Id.Protein>
6NUR|6NUR_protein|mol2

> <Gold.PLP.Fitness>
42.2699

> <Gold.PLP.PLP>
-44.0938

> <Gold.PLP.part.hbond>
-1.0000

> <Gold.PLP.part.metal>
0.0000

> <Gold.PLP.part.buried>
-4.1915

> <Gold.PLP.part.nonpolar>
-38.8137

> <Gold.PLP.part.repulsive>
0.1444

> <Gold.PLP.ligand.clash>
0.0138

> <Gold.PLP.ligand.torsion>
1.5581

> <Gold.PLP.Chemscore.Hbond>
0.0000

> <Gold.PLP.Chemscore.CHOScore>
0.0000

> <Gold.PLP.Chemscore.Metal>
0.0000

> <Gold.PLP.Chemscore.Internal.Correction>
1.3061

> <Gold.Rescore>
     Score         DG    S(hbond)    S(metal)    S(lipo)     H(rot)  DE(clash)    DE(int)     intcor
      8.20     -12.97       0.00        0.00      92.20       1.29       0.67       4.10       ----

> <Gold.Chemscore.Fitness>
8.1999

> <Gold.Chemscore.DG>
-12.9713

> <Gold.Chemscore.ZeroCoef>
-5.4800

> <Gold.Chemscore.Hbond>
0.0000

> <Gold.Chemscore.Metal>
0.0000

> <Gold.Chemscore.Lipo>
92.1994

> <Gold.Chemscore.Internal_Hbond>
0.0000

> <Gold.Chemscore.DEClash>
0.6695

> <Gold.Chemscore.DEInternal>
4.1020

> <Gold.Chemscore.Rot>
1.2875

> <Gold.Chemscore.Internal.Correction>
   9.000000E+99

> <Gold.Chemscore.Hbond.Weighted>
-0.0000

> <Gold.Chemscore.Metal.Weighted>
-0.0000

> <Gold.Chemscore.Lipo.Weighted>
-10.7873

> <Gold.Chemscore.Internal_Hbond.Weighted>
0.0000

> <Gold.Chemscore.DEClash.Weighted>
0.6695

> <Gold.Chemscore.DEInternal.Weighted>
4.1020

> <Gold.Chemscore.Rot.Weighted>
3.2960

> <Gold.Chemscore.Internal.Correction.Weighted>
   9.000000E+99

> <Gold.Protein.RotatedTorsions>
[ 6907 6896 6895 6894 ] final   49.44 input  -60.11 | X-H torsion
[ 7974 7965 7964 7962 ] final  -93.46 input  175.53 | X-H torsion
[ 8008 7997 7996 7995 ] final -157.99 input   59.86 | X-H torsion
[ 10167 10162 10161 10158 ] final  -84.55 input  -65.29 | X-H torsion
[ 10718 10713 10712 10709 ] final  158.78 input   66.30 | X-H torsion
[ 10763 10752 10751 10750 ] final    0.14 input  -60.55 | X-H torsion
[ 11005 11000 10999 10996 ] final -161.91 input  -57.11 | X-H torsion

> <Gold.Protein.ActiveResidues>
 VAL166  LYS551  ARG553  GLY616  TRP617  ASP618  TYR619  PRO620  LYS621  CYS622 
 ASP623  PHE694  ASN695  SER759  ASP760  ASP761  ALA762  ILE779  LEU786  VAL792 
 PHE793  MET794  SER795  GLU796  ALA797  LYS798  CYS799  TRP800  GLU811  SER814 

> <Gold.Protein.RotatedAtoms>
  152.2908  134.7723  160.0377 H   0  0  0  0  0  0  0  0  0  0  0  0  # atno 6907 bound_to 6896
  151.8270  133.3397  159.3609 H   0  0  0  0  0  0  0  0  0  0  0  0  # atno 6908 bound_to 6896
  150.7229  134.5448  159.5810 H   0  0  0  0  0  0  0  0  0  0  0  0  # atno 6909 bound_to 6896
  145.3862  140.9523  143.2366 H   0  0  0  0  0  0  0  0  0  0  0  0  # atno 7974 bound_to 7965
  155.7408  140.0814  157.2246 H   0  0  0  0  0  0  0  0  0  0  0  0  # atno 8008 bound_to 7997
  154.4022  140.1578  156.2669 H   0  0  0  0  0  0  0  0  0  0  0  0  # atno 8009 bound_to 7997
  155.9022  140.3409  155.6037 H   0  0  0  0  0  0  0  0  0  0  0  0  # atno 8010 bound_to 7997
  140.4121  143.2618  151.9003 H   0  0  0  0  0  0  0  0  0  0  0  0  # atno 10167 bound_to 10162
  157.1732  131.0615  151.2172 H   0  0  0  0  0  0  0  0  0  0  0  0  # atno 10718 bound_to 10713
  153.3245  135.6971  153.7001 H   0  0  0  0  0  0  0  0  0  0  0  0  # atno 10763 bound_to 10752
  153.5828  135.3494  155.2882 H   0  0  0  0  0  0  0  0  0  0  0  0  # atno 10764 bound_to 10752
  154.8605  135.4299  154.2418 H   0  0  0  0  0  0  0  0  0  0  0  0  # atno 10765 bound_to 10752
  140.6151  134.4809  157.5219 H   0  0  0  0  0  0  0  0  0  0  0  0  # atno 11005 bound_to 11000
  144.8472  139.5378  143.6873 LP  0  0  0  0  0  0  0  0  0  0  0  0  # atno 17320 bound_to 7965
  146.2819  139.6900  142.9223 LP  0  0  0  0  0  0  0  0  0  0  0  0  # atno 17321 bound_to 7965
  139.4782  144.5526  151.8363 LP  0  0  0  0  0  0  0  0  0  0  0  0  # atno 17342 bound_to 10162
  140.4626  144.1700  150.5908 LP  0  0  0  0  0  0  0  0  0  0  0  0  # atno 17343 bound_to 10162
  157.4023  130.7340  149.6777 LP  0  0  0  0  0  0  0  0  0  0  0  0  # atno 17370 bound_to 10713
  155.9735  130.4117  150.3996 LP  0  0  0  0  0  0  0  0  0  0  0  0  # atno 17371 bound_to 10713
  139.9176  134.8214  156.1315 LP  0  0  0  0  0  0  0  0  0  0  0  0  # atno 17394 bound_to 11000
  141.0781  133.6766  156.2279 LP  0  0  0  0  0  0  0  0  0  0  0  0  # atno 17395 bound_to 11000

$$$$
