AV-unprocessed.smi:1512|AV-procd|sdf|6103|dock7
  -GOLD-   22720 6233D 1   1.00000     0.00000
 Structure written by MMmdl.
 44 46  0  0  0  0  0  0  0  0  3 V2000
  152.8120  139.6693  159.2522 C   0  0  0  0  0  0  0  0  0  0  0  0
  152.2772  140.7662  158.3156 C   0  0  1  0  0  0  0  0  0  0  0  0
  151.2517  140.2092  157.4403 N   0  0  0  0  0  0  0  0  0  0  0  0
  151.3603  140.0108  156.1159 C   0  0  0  0  0  0  0  0  0  0  0  0
  152.3889  140.2546  155.4865 O   0  0  0  0  0  0  0  0  0  0  0  0
  150.1327  139.4681  155.3633 C   0  0  0  0  0  0  0  0  0  0  0  0
  148.9523  140.3526  155.3911 N   0  0  0  0  0  0  0  0  0  0  0  0
  148.5046  140.8456  154.1510 C   0  0  0  0  0  0  0  0  0  0  0  0
  147.4524  141.6701  154.0539 C   0  0  0  0  0  0  0  0  0  0  0  0
  146.7757  142.0585  155.2671 C   0  0  0  0  0  0  0  0  0  0  0  0
  147.1911  141.6032  156.4717 C   0  0  0  0  0  0  0  0  0  0  0  0
  146.4784  142.0470  157.6481 N   0  3  0  0  0  0  0  0  0  0  0  0
  145.5383  142.8242  157.5140 O   0  0  0  0  0  0  0  0  0  0  0  0
  146.8292  141.6166  158.7428 O   0  5  0  0  0  0  0  0  0  0  0  0
  148.3450  140.6852  156.5729 C   0  0  0  0  0  0  0  0  0  0  0  0
  148.7512  140.2372  157.6464 O   0  0  0  0  0  0  0  0  0  0  0  0
  151.6829  141.9587  159.1010 C   0  0  1  0  0  0  0  0  0  0  0  0
  152.7204  142.8300  159.8435 C   0  0  0  0  0  0  0  0  0  0  0  0
  152.3448  144.2598  159.4107 C   0  0  1  0  0  0  0  0  0  0  0  0
  152.7859  144.4755  157.9513 C   0  0  0  0  0  0  0  0  0  0  0  0
  151.7697  143.6294  157.1630 C   0  0  0  0  0  0  0  0  0  0  0  0
  150.8994  143.0135  158.2781 C   0  0  2  0  0  0  0  0  0  0  0  0
  150.8295  144.1689  159.2714 C   0  0  0  0  0  0  0  0  0  0  0  0
  153.5925  140.0544  159.9085 H   0  0  0  0  0  0  0  0  0  0  0  0
  153.2429  138.8421  158.6871 H   0  0  0  0  0  0  0  0  0  0  0  0
  152.0194  139.2631  159.8815 H   0  0  0  0  0  0  0  0  0  0  0  0
  153.1081  141.1243  157.7062 H   0  0  0  0  0  0  0  0  0  0  0  0
  150.3709  139.9783  157.8760 H   0  0  0  0  0  0  0  0  0  0  0  0
  150.4286  139.2772  154.3306 H   0  0  0  0  0  0  0  0  0  0  0  0
  149.8880  138.4843  155.7671 H   0  0  0  0  0  0  0  0  0  0  0  0
  149.0723  140.5162  153.2925 H   0  0  0  0  0  0  0  0  0  0  0  0
  147.1250  142.0404  153.0937 H   0  0  0  0  0  0  0  0  0  0  0  0
  145.9358  142.7348  155.1990 H   0  0  0  0  0  0  0  0  0  0  0  0
  150.9904  141.5532  159.8415 H   0  0  0  0  0  0  0  0  0  0  0  0
  152.6189  142.7072  160.9225 H   0  0  0  0  0  0  0  0  0  0  0  0
  153.7505  142.5873  159.5795 H   0  0  0  0  0  0  0  0  0  0  0  0
  152.7018  145.0315  160.0933 H   0  0  0  0  0  0  0  0  0  0  0  0
  152.7078  145.5268  157.6713 H   0  0  0  0  0  0  0  0  0  0  0  0
  153.8151  144.1585  157.7788 H   0  0  0  0  0  0  0  0  0  0  0  0
  151.1647  144.2698  156.5200 H   0  0  0  0  0  0  0  0  0  0  0  0
  152.2440  142.8866  156.5227 H   0  0  0  0  0  0  0  0  0  0  0  0
  149.9278  142.6624  157.9279 H   0  0  0  0  0  0  0  0  0  0  0  0
  150.3229  143.9122  160.2035 H   0  0  0  0  0  0  0  0  0  0  0  0
  150.3781  145.0722  158.8566 H   0  0  0  0  0  0  0  0  0  0  0  0
  1  2  1  0  0  0  0
  1 24  1  0  0  0  0
  1 25  1  0  0  0  0
  1 26  1  0  0  0  0
  2  3  1  0  0  0  0
  2 17  1  0  0  0  0
  2 27  1  0  0  0  0
  3  4  1  0  0  0  0
  3 28  1  0  0  0  0
  4  5  2  0  0  0  0
  4  6  1  0  0  0  0
  6  7  1  0  0  0  0
  6 29  1  0  0  0  0
  6 30  1  0  0  0  0
  7 15  1  0  0  0  0
  7  8  1  0  0  0  0
  8  9  2  0  0  0  0
  8 31  1  0  0  0  0
  9 10  1  0  0  0  0
  9 32  1  0  0  0  0
 10 11  2  0  0  0  0
 10 33  1  0  0  0  0
 11 12  1  0  0  0  0
 11 15  1  0  0  0  0
 12 13  2  0  0  0  0
 12 14  1  0  0  0  0
 15 16  2  0  0  0  0
 17 22  1  0  0  0  0
 17 18  1  0  0  0  0
 17 34  1  0  0  0  0
 18 19  1  0  0  0  0
 18 35  1  0  0  0  0
 18 36  1  0  0  0  0
 19 23  1  0  0  0  0
 19 20  1  0  0  0  0
 19 37  1  0  0  0  0
 20 21  1  0  0  0  0
 20 38  1  0  0  0  0
 20 39  1  0  0  0  0
 21 22  1  0  0  0  0
 21 40  1  0  0  0  0
 21 41  1  0  0  0  0
 22 23  1  0  0  0  0
 22 42  1  0  0  0  0
 23 43  1  0  0  0  0
 23 44  1  0  0  0  0
M  CHG  1  12   1
M  CHG  1  14  -1
M  END
> <s_m_source_file>
AV-unprocessed.smi

> <i_m_source_file_index>
1512

> <i_lp_mmshare_version>
43012

> <i_f3d_flags>
0

> <s_epik_input>
W0NIMl0xW0NIMl1bQ0BIXShbQ0gyXTIpW0NAQEhdKFtDSDJdW0NAQEhdMTIpW0NASF0oW0NIM10pW05IXUMoPU8pW0NIMl1uM1tjSF1bY0hdW2NIXWMoW04rXSg9TylbTy1dKWMzPU8=

> <s_epik_cmdline>
J2VwaWtfcHl0aG9uJywgJy1waCcsICc3LjAnLCAnLXRuJywgJzgnLCAnLW1hJywgJzIwMCcsICctbWV0YWxfYmluZGluZycsICctaW1hZScsICc8aW5maWxlLm1hZT4nLCAnLW9tYWUnLCAnPG91dGZpbGUubWFlPic=

> <r_lp_tautomer_probability>
1

> <r_epik_Ionization_Penalty>
2.17697e-08

> <r_epik_Ionization_Penalty_Charging>
1.42735e-10

> <r_epik_Ionization_Penalty_Neutral>
2.16269e-08

> <r_epik_State_Penalty>
-0

> <r_epik_Charging_Adjusted_Penalty>
1.42735e-10

> <i_epik_Tot_Q>
0

> <i_epik_Tot_abs_Q>
2

> <r_epik_Metal_State_Penalty>
-0

> <b_epik_Metal_Only>
0

> <s_lp_Force_Field>
OPLS_2005

> <r_lp_Energy>
64.3313

> <b_lp_Chiralities_Consistent>
1

> <s_lp_Variant>
AV-unprocessed.smi:1512-4

> <Gold.Version>
5.8.1

> <Gold.Id.Protein>
6NUR|6NUR_protein|mol2

> <Gold.PLP.Fitness>
51.0948

> <Gold.PLP.PLP>
-43.0916

> <Gold.PLP.part.hbond>
-3.0000

> <Gold.PLP.part.metal>
0.0000

> <Gold.PLP.part.buried>
-1.6164

> <Gold.PLP.part.nonpolar>
-38.4809

> <Gold.PLP.part.repulsive>
0.1625

> <Gold.PLP.ligand.clash>
0.0000

> <Gold.PLP.ligand.torsion>
0.1986

> <Gold.PLP.Chemscore.Hbond>
1.7909

> <Gold.PLP.Chemscore.CHOScore>
1.0000

> <Gold.PLP.Chemscore.Metal>
0.0000

> <Gold.Chemscore.Hbonds>
donor molecule, donor type, donor heavy atom, donor atom, acceptor molecule, acceptor atom, score
      P1  H  6934  6946       L1    14  0.47
      P1  H  7989  7998       L1     5  0.35
      P1  H  7997  8008       L1     5  0.91
      L1  C     8    31       P1  7957  1.00

> <Gold.PLP.Chemscore.Internal.Correction>
0.0278

> <Gold.Rescore>
     Score         DG    S(hbond)    S(metal)    S(lipo)     H(rot)  DE(clash)    DE(int)     intcor
     14.45     -19.00       1.38        0.00     114.35       1.75       0.98       3.56       ----

> <Gold.Chemscore.Fitness>
14.4504

> <Gold.Chemscore.DG>
-18.9954

> <Gold.Chemscore.ZeroCoef>
-5.4800

> <Gold.Chemscore.Hbond>
1.3802

> <Gold.Chemscore.Metal>
0.0000

> <Gold.Chemscore.Lipo>
114.3491

> <Gold.Chemscore.Internal_Hbond>
0.0000

> <Gold.Chemscore.DEClash>
0.9826

> <Gold.Chemscore.DEInternal>
3.5624

> <Gold.Chemscore.Rot>
1.7474

> <Gold.Chemscore.Internal.Correction>
   9.000000E+99

> <Gold.Chemscore.Hbonds>
donor molecule, donor type, donor heavy atom, donor atom, acceptor molecule, acceptor atom, score
      P1  H  6934  6946       L1    14  0.46
      P1  H  7989  7998       L1     5  0.18
      P1  H  7997  8008       L1     5  0.86

> <Gold.Chemscore.Hbond.Weighted>
-4.6098

> <Gold.Chemscore.Metal.Weighted>
-0.0000

> <Gold.Chemscore.Lipo.Weighted>
-13.3788

> <Gold.Chemscore.Internal_Hbond.Weighted>
0.0000

> <Gold.Chemscore.DEClash.Weighted>
0.9826

> <Gold.Chemscore.DEInternal.Weighted>
3.5624

> <Gold.Chemscore.Rot.Weighted>
4.4733

> <Gold.Chemscore.Internal.Correction.Weighted>
   9.000000E+99

> <Gold.Protein.RotatedTorsions>
[ 6907 6896 6895 6894 ] final   71.78 input  -60.11 | X-H torsion
[ 7974 7965 7964 7962 ] final  -28.17 input  175.53 | X-H torsion
[ 8008 7997 7996 7995 ] final  -24.75 input   59.86 | X-H torsion
[ 10167 10162 10161 10158 ] final   50.87 input  -65.29 | X-H torsion
[ 10718 10713 10712 10709 ] final  -51.30 input   66.30 | X-H torsion
[ 10763 10752 10751 10750 ] final  160.26 input  -60.55 | X-H torsion
[ 11005 11000 10999 10996 ] final -171.29 input  -57.11 | X-H torsion

> <Gold.Protein.ActiveResidues>
 VAL166  LYS551  ARG553  GLY616  TRP617  ASP618  TYR619  PRO620  LYS621  CYS622 
 ASP623  PHE694  ASN695  SER759  ASP760  ASP761  ALA762  ILE779  LEU786  VAL792 
 PHE793  MET794  SER795  GLU796  ALA797  LYS798  CYS799  TRP800  GLU811  SER814 

> <Gold.Protein.RotatedAtoms>
  152.4830  134.4670  159.9623 H   0  0  0  0  0  0  0  0  0  0  0  0  # atno 6907 bound_to 6896
  151.4672  133.3572  159.2826 H   0  0  0  0  0  0  0  0  0  0  0  0  # atno 6908 bound_to 6896
  150.8917  134.8346  159.7358 H   0  0  0  0  0  0  0  0  0  0  0  0  # atno 6909 bound_to 6896
  146.1307  140.5247  142.8694 H   0  0  0  0  0  0  0  0  0  0  0  0  # atno 7974 bound_to 7965
  154.4512  140.1945  156.0513 H   0  0  0  0  0  0  0  0  0  0  0  0  # atno 8008 bound_to 7997
  156.0652  140.3291  155.7482 H   0  0  0  0  0  0  0  0  0  0  0  0  # atno 8009 bound_to 7997
  155.5349  140.0581  157.2872 H   0  0  0  0  0  0  0  0  0  0  0  0  # atno 8010 bound_to 7997
  140.2679  144.3299  150.6298 H   0  0  0  0  0  0  0  0  0  0  0  0  # atno 10167 bound_to 10162
  156.1722  130.4149  149.9630 H   0  0  0  0  0  0  0  0  0  0  0  0  # atno 10718 bound_to 10713
  154.2446  135.2773  155.2840 H   0  0  0  0  0  0  0  0  0  0  0  0  # atno 10763 bound_to 10752
  154.5516  135.5673  153.6931 H   0  0  0  0  0  0  0  0  0  0  0  0  # atno 10764 bound_to 10752
  152.9993  135.6276  154.2591 H   0  0  0  0  0  0  0  0  0  0  0  0  # atno 10765 bound_to 10752
  140.5099  134.5812  157.5015 H   0  0  0  0  0  0  0  0  0  0  0  0  # atno 11005 bound_to 11000
  144.7688  140.5590  143.6685 LP  0  0  0  0  0  0  0  0  0  0  0  0  # atno 17320 bound_to 7965
  145.5267  139.1476  143.3522 LP  0  0  0  0  0  0  0  0  0  0  0  0  # atno 17321 bound_to 7965
  140.5913  143.2168  151.7247 LP  0  0  0  0  0  0  0  0  0  0  0  0  # atno 17342 bound_to 10162
  139.4997  144.3934  152.0256 LP  0  0  0  0  0  0  0  0  0  0  0  0  # atno 17343 bound_to 10162
  156.7427  130.9085  151.3633 LP  0  0  0  0  0  0  0  0  0  0  0  0  # atno 17370 bound_to 10713
  157.6811  130.9140  150.0269 LP  0  0  0  0  0  0  0  0  0  0  0  0  # atno 17371 bound_to 10713
  139.9665  134.7365  156.0128 LP  0  0  0  0  0  0  0  0  0  0  0  0  # atno 17394 bound_to 11000
  141.1391  133.6568  156.3678 LP  0  0  0  0  0  0  0  0  0  0  0  0  # atno 17395 bound_to 11000

$$$$
