AV-unprocessed.smi:3076|AV-procd|sdf|11727|dock1
  -GOLD-   2272017123D 1   1.00000     0.00000
 Structure written by MMmdl.
 20 20  0  0  0  0  0  0  0  0  1 V2000
  147.9511  138.8698  152.5352 N   0  0  0  0  0  0  0  0  0  0  0  0
  147.9862  139.3417  153.9280 C   0  0  0  0  0  0  0  0  0  0  0  0
  149.1589  140.2983  154.2054 C   0  0  2  0  0  0  0  0  0  0  0  0
  149.3215  141.1419  153.0823 O   0  0  0  0  0  0  0  0  0  0  0  0
  150.4331  139.5232  154.5004 C   0  0  0  0  0  0  0  0  0  0  0  0
  150.4865  138.1184  154.3676 C   0  0  0  0  0  0  0  0  0  0  0  0
  151.6901  137.4514  154.6665 C   0  0  0  0  0  0  0  0  0  0  0  0
  152.7942  138.2175  155.0893 C   0  0  0  0  0  0  0  0  0  0  0  0
  152.7563  139.5605  155.2234 N   0  0  0  0  0  0  0  0  0  0  0  0
  151.5980  140.1924  154.9348 C   0  0  0  0  0  0  0  0  0  0  0  0
  148.5073  139.4802  151.9384 H   0  0  0  0  0  0  0  0  0  0  0  0
  148.3521  137.9357  152.4653 H   0  0  0  0  0  0  0  0  0  0  0  0
  147.0530  139.8676  154.1322 H   0  0  0  0  0  0  0  0  0  0  0  0
  148.0131  138.4967  154.6170 H   0  0  0  0  0  0  0  0  0  0  0  0
  148.9259  140.9257  155.0671 H   0  0  0  0  0  0  0  0  0  0  0  0
  149.1298  140.6439  152.3024 H   0  0  0  0  0  0  0  0  0  0  0  0
  149.6204  137.5593  154.0449 H   0  0  0  0  0  0  0  0  0  0  0  0
  151.7646  136.3779  154.5759 H   0  0  0  0  0  0  0  0  0  0  0  0
  153.7321  137.7385  155.3281 H   0  0  0  0  0  0  0  0  0  0  0  0
  151.6034  141.2656  155.0575 H   0  0  0  0  0  0  0  0  0  0  0  0
  1  2  1  0  0  0  0
  1 11  1  0  0  0  0
  1 12  1  0  0  0  0
  2  3  1  0  0  0  0
  2 13  1  0  0  0  0
  2 14  1  0  0  0  0
  3  4  1  0  0  0  0
  3  5  1  0  0  0  0
  3 15  1  0  0  0  0
  4 16  1  0  0  0  0
  5 10  1  0  0  0  0
  5  6  2  0  0  0  0
  6  7  1  0  0  0  0
  6 17  1  0  0  0  0
  7  8  2  0  0  0  0
  7 18  1  0  0  0  0
  8  9  1  0  0  0  0
  8 19  1  0  0  0  0
  9 10  2  0  0  0  0
 10 20  1  0  0  0  0
M  END
> <s_m_source_file>
AV-unprocessed.smi

> <i_m_source_file_index>
3076

> <i_lp_mmshare_version>
43012

> <i_f3d_flags>
0

> <s_epik_input>
W05IMl1bQ0gyXVtDQEhdKFtPSF0pYzFbY0hdW2NIXVtjSF1uW2NIXTE=

> <s_epik_cmdline>
J2VwaWtfcHl0aG9uJywgJy1waCcsICc3LjAnLCAnLXRuJywgJzgnLCAnLW1hJywgJzIwMCcsICctbWV0YWxfYmluZGluZycsICctaW1hZScsICc8aW5maWxlLm1hZT4nLCAnLW9tYWUnLCAnPG91dGZpbGUubWFlPic=

> <r_epik_Ionization_Penalty>
2.22627

> <r_epik_Ionization_Penalty_Charging>
0

> <r_epik_Ionization_Penalty_Neutral>
2.22627

> <r_epik_State_Penalty>
2.36938

> <r_epik_Charging_Adjusted_Penalty>
2.36938

> <i_epik_Tot_Q>
0

> <i_epik_Tot_abs_Q>
0

> <r_epik_Metal_State_Penalty>
2.36785

> <b_epik_Metal_Only>
0

> <s_lp_Force_Field>
OPLS_2005

> <r_lp_Energy>
11.5599

> <b_lp_Chiralities_Consistent>
1

> <s_lp_Variant>
AV-unprocessed.smi:3076-3

> <Gold.Version>
5.8.1

> <Gold.Id.Protein>
6NUR|6NUR_protein|mol2

> <Gold.PLP.Fitness>
34.7112

> <Gold.PLP.PLP>
-22.4307

> <Gold.PLP.part.hbond>
-5.8500

> <Gold.PLP.part.metal>
0.0000

> <Gold.PLP.part.buried>
0.0270

> <Gold.PLP.part.nonpolar>
-17.4295

> <Gold.PLP.part.repulsive>
0.0000

> <Gold.PLP.ligand.clash>
0.0000

> <Gold.PLP.ligand.torsion>
0.3117

> <Gold.PLP.Chemscore.Hbond>
4.3000

> <Gold.PLP.Chemscore.CHOScore>
0.0000

> <Gold.PLP.Chemscore.Metal>
0.0000

> <Gold.Chemscore.Hbonds>
donor molecule, donor type, donor heavy atom, donor atom, acceptor molecule, acceptor atom, score
      L1  H     1    11       P1  7957  0.76
      L1  H     1    12       P1  7948  1.00
      L1  H     4    16       P1  7957  0.58
      P1  H  7989  7998       L1     4  0.01
      P1  H  7997  8010       L1     9  1.00
      P1  H  8011  8017       L1     4  0.75

> <Gold.PLP.Chemscore.Internal.Correction>
0.0039

> <Gold.Rescore>
     Score         DG    S(hbond)    S(metal)    S(lipo)     H(rot)  DE(clash)    DE(int)     intcor
     18.35     -19.03       3.88        0.00      45.57       1.85       0.35       0.33       ----

> <Gold.Chemscore.Fitness>
18.3532

> <Gold.Chemscore.DG>
-19.0342

> <Gold.Chemscore.ZeroCoef>
-5.4800

> <Gold.Chemscore.Hbond>
3.8765

> <Gold.Chemscore.Metal>
0.0000

> <Gold.Chemscore.Lipo>
45.5654

> <Gold.Chemscore.Internal_Hbond>
0.0000

> <Gold.Chemscore.DEClash>
0.3470

> <Gold.Chemscore.DEInternal>
0.3339

> <Gold.Chemscore.Rot>
1.8455

> <Gold.Chemscore.Internal.Correction>
   9.000000E+99

> <Gold.Chemscore.Hbonds>
donor molecule, donor type, donor heavy atom, donor atom, acceptor molecule, acceptor atom, score
      L1  H     1    11       P1  7957  0.77
      L1  H     1    12       P1  7948  1.00
      L1  H     4    16       P1  7957  0.56
      P1  H  7997  8010       L1     9  0.74
      P1  H  8011  8017       L1     4  0.09

> <Gold.Chemscore.Hbond.Weighted>
-12.9475

> <Gold.Chemscore.Metal.Weighted>
-0.0000

> <Gold.Chemscore.Lipo.Weighted>
-5.3312

> <Gold.Chemscore.Internal_Hbond.Weighted>
0.0000

> <Gold.Chemscore.DEClash.Weighted>
0.3470

> <Gold.Chemscore.DEInternal.Weighted>
0.3339

> <Gold.Chemscore.Rot.Weighted>
4.7245

> <Gold.Chemscore.Internal.Correction.Weighted>
   9.000000E+99

> <Gold.Protein.RotatedTorsions>
[ 6907 6896 6895 6894 ] final   53.61 input  -60.11 | X-H torsion
[ 7974 7965 7964 7962 ] final  148.83 input  175.53 | X-H torsion
[ 8008 7997 7996 7995 ] final   96.90 input   59.86 | X-H torsion
[ 10167 10162 10161 10158 ] final  -31.79 input  -65.29 | X-H torsion
[ 10718 10713 10712 10709 ] final   76.65 input   66.30 | X-H torsion
[ 10763 10752 10751 10750 ] final  -54.32 input  -60.55 | X-H torsion
[ 11005 11000 10999 10996 ] final  142.65 input  -57.11 | X-H torsion

> <Gold.Protein.ActiveResidues>
 VAL166  LYS551  ARG553  GLY616  TRP617  ASP618  TYR619  PRO620  LYS621  CYS622 
 ASP623  PHE694  ASN695  SER759  ASP760  ASP761  ALA762  ILE779  LEU786  VAL792 
 PHE793  MET794  SER795  GLU796  ALA797  LYS798  CYS799  TRP800  GLU811  SER814 

> <Gold.Protein.RotatedAtoms>
  152.3354  134.7205  160.0278 H   0  0  0  0  0  0  0  0  0  0  0  0  # atno 6907 bound_to 6896
  151.7607  133.3328  159.3425 H   0  0  0  0  0  0  0  0  0  0  0  0  # atno 6908 bound_to 6896
  150.7447  134.6040  159.6096 H   0  0  0  0  0  0  0  0  0  0  0  0  # atno 6909 bound_to 6896
  144.8484  139.6203  143.5985 H   0  0  0  0  0  0  0  0  0  0  0  0  # atno 7974 bound_to 7965
  156.0844  140.3266  155.7735 H   0  0  0  0  0  0  0  0  0  0  0  0  # atno 8008 bound_to 7997
  155.5099  140.0576  157.2942 H   0  0  0  0  0  0  0  0  0  0  0  0  # atno 8009 bound_to 7997
  154.4601  140.1962  156.0286 H   0  0  0  0  0  0  0  0  0  0  0  0  # atno 8010 bound_to 7997
  140.7231  143.3744  151.1718 H   0  0  0  0  0  0  0  0  0  0  0  0  # atno 10167 bound_to 10162
  157.6681  130.9784  150.1527 H   0  0  0  0  0  0  0  0  0  0  0  0  # atno 10718 bound_to 10713
  154.1730  135.6456  153.5014 H   0  0  0  0  0  0  0  0  0  0  0  0  # atno 10763 bound_to 10752
  153.0079  135.5388  154.6593 H   0  0  0  0  0  0  0  0  0  0  0  0  # atno 10764 bound_to 10752
  154.5937  135.2936  155.0581 H   0  0  0  0  0  0  0  0  0  0  0  0  # atno 10765 bound_to 10752
  140.0493  134.9264  157.0987 H   0  0  0  0  0  0  0  0  0  0  0  0  # atno 11005 bound_to 11000
  146.2764  139.6763  142.9260 LP  0  0  0  0  0  0  0  0  0  0  0  0  # atno 17320 bound_to 7965
  145.4550  141.0430  143.2783 LP  0  0  0  0  0  0  0  0  0  0  0  0  # atno 17321 bound_to 7965
  139.7321  143.9056  152.3023 LP  0  0  0  0  0  0  0  0  0  0  0  0  # atno 17342 bound_to 10162
  139.8849  144.6997  150.8836 LP  0  0  0  0  0  0  0  0  0  0  0  0  # atno 17343 bound_to 10162
  156.2322  130.3683  149.8431 LP  0  0  0  0  0  0  0  0  0  0  0  0  # atno 17370 bound_to 10713
  156.6255  130.8644  151.3484 LP  0  0  0  0  0  0  0  0  0  0  0  0  # atno 17371 bound_to 10713
  140.3943  134.2151  155.7165 LP  0  0  0  0  0  0  0  0  0  0  0  0  # atno 17394 bound_to 11000
  141.1922  133.8177  157.0847 LP  0  0  0  0  0  0  0  0  0  0  0  0  # atno 17395 bound_to 11000

$$$$
