AV-unprocessed.smi:226|AV-procd|sdf|1725|dock10
  -GOLD-   2262020213D 1   1.00000     0.00000
 Structure written by MMmdl.
 54 58  0  0  0  0  0  0  0  0  1 V2000
  150.1948  140.3611  154.5442 O   0  0  0  0  0  0  0  0  0  0  0  0
  149.0987  140.6536  155.0248 C   0  0  0  0  0  0  0  0  0  0  0  0
  148.9326  141.0477  156.2955 N   0  0  0  0  0  0  0  0  0  0  0  0
  149.9731  141.2033  157.2589 C   0  0  0  0  0  0  0  0  0  0  0  0
  149.8388  142.3242  158.2667 C   0  0  0  0  0  0  0  0  0  0  0  0
  150.8439  142.4363  157.1537 C   0  0  0  0  0  0  0  0  0  0  0  0
  147.8181  140.5764  154.1733 C   0  0  2  0  0  0  0  0  0  0  0  0
  147.0219  141.8921  154.2258 C   0  0  0  0  0  0  0  0  0  0  0  0
  146.0592  141.7101  155.3978 C   0  0  0  0  0  0  0  0  0  0  0  0
  145.7252  140.2198  155.3430 C   0  0  0  0  0  0  0  0  0  0  0  0
  146.8681  139.5902  154.6885 N   0  0  0  0  0  0  0  0  0  0  0  0
  146.9644  138.2413  154.5232 C   0  0  0  0  0  0  0  0  0  0  0  0
  147.7304  137.5494  155.4083 N   0  0  0  0  0  0  0  0  0  0  0  0
  147.8703  136.2258  155.3055 C   0  0  0  0  0  0  0  0  0  0  0  0
  147.3418  135.4011  154.4024 N   0  0  0  0  0  0  0  0  0  0  0  0
  146.5711  136.0796  153.5061 C   0  0  0  0  0  0  0  0  0  0  0  0
  146.3221  137.4841  153.4949 C   0  0  0  0  0  0  0  0  0  0  0  0
  145.4685  137.7882  152.4387 N   0  0  0  0  0  0  0  0  0  0  0  0
  145.2299  136.6413  151.8659 C   0  0  0  0  0  0  0  0  0  0  0  0
  145.8764  135.5646  152.4253 N   0  0  0  0  0  0  0  0  0  0  0  0
  145.7640  134.1916  152.0264 C   0  0  0  0  0  0  0  0  0  0  0  0
  146.1956  133.7393  150.6286 C   0  0  0  0  0  0  0  0  0  0  0  0
  145.0292  132.7277  150.5805 C   0  0  0  0  0  0  0  0  0  0  0  0
  144.2197  132.7277  149.2745 C   0  0  0  0  0  0  0  0  0  0  0  0
  142.9682  132.0935  149.4437 O   0  0  0  0  0  0  0  0  0  0  0  0
  145.3590  131.2546  150.9100 C   0  0  0  0  0  0  0  0  0  0  0  0
  146.5317  131.1032  151.6844 O   0  0  0  0  0  0  0  0  0  0  0  0
  144.4014  133.5605  151.7211 C   0  0  0  0  0  0  0  0  0  0  0  0
  147.9952  141.2664  156.6009 H   0  0  0  0  0  0  0  0  0  0  0  0
  150.4672  140.2994  157.6127 H   0  0  0  0  0  0  0  0  0  0  0  0
  148.9547  142.9564  158.2112 H   0  0  0  0  0  0  0  0  0  0  0  0
  150.2188  142.1436  159.2703 H   0  0  0  0  0  0  0  0  0  0  0  0
  151.8953  142.3299  157.4126 H   0  0  0  0  0  0  0  0  0  0  0  0
  150.6310  143.1430  156.3536 H   0  0  0  0  0  0  0  0  0  0  0  0
  148.0730  140.3612  153.1351 H   0  0  0  0  0  0  0  0  0  0  0  0
  147.6486  142.7785  154.3353 H   0  0  0  0  0  0  0  0  0  0  0  0
  146.4524  142.0103  153.3028 H   0  0  0  0  0  0  0  0  0  0  0  0
  146.5698  141.9424  156.3334 H   0  0  0  0  0  0  0  0  0  0  0  0
  145.1762  142.3461  155.3293 H   0  0  0  0  0  0  0  0  0  0  0  0
  145.5532  139.8191  156.3430 H   0  0  0  0  0  0  0  0  0  0  0  0
  144.8297  140.0490  154.7438 H   0  0  0  0  0  0  0  0  0  0  0  0
  148.4966  135.7620  156.0533 H   0  0  0  0  0  0  0  0  0  0  0  0
  144.5757  136.5527  151.0107 H   0  0  0  0  0  0  0  0  0  0  0  0
  146.2897  133.6196  152.7918 H   0  0  0  0  0  0  0  0  0  0  0  0
  146.0965  134.5355  149.8887 H   0  0  0  0  0  0  0  0  0  0  0  0
  147.1902  133.2938  150.5888 H   0  0  0  0  0  0  0  0  0  0  0  0
  144.0559  133.7425  148.9103 H   0  0  0  0  0  0  0  0  0  0  0  0
  144.7542  132.1997  148.4841 H   0  0  0  0  0  0  0  0  0  0  0  0
  142.2898  132.7491  149.3833 H   0  0  0  0  0  0  0  0  0  0  0  0
  144.5395  130.7896  151.4590 H   0  0  0  0  0  0  0  0  0  0  0  0
  145.4945  130.6710  149.9988 H   0  0  0  0  0  0  0  0  0  0  0  0
  147.2191  130.7713  151.1271 H   0  0  0  0  0  0  0  0  0  0  0  0
  143.9854  132.9750  152.5415 H   0  0  0  0  0  0  0  0  0  0  0  0
  143.6761  134.2925  151.3620 H   0  0  0  0  0  0  0  0  0  0  0  0
  1  2  2  0  0  0  0
  2  3  1  0  0  0  0
  2  7  1  0  0  0  0
  3  4  1  0  0  0  0
  3 29  1  0  0  0  0
  4  6  1  0  0  0  0
  4  5  1  0  0  0  0
  4 30  1  0  0  0  0
  5  6  1  0  0  0  0
  5 31  1  0  0  0  0
  5 32  1  0  0  0  0
  6 33  1  0  0  0  0
  6 34  1  0  0  0  0
  7 11  1  0  0  0  0
  7  8  1  0  0  0  0
  7 35  1  0  0  0  0
  8  9  1  0  0  0  0
  8 36  1  0  0  0  0
  8 37  1  0  0  0  0
  9 10  1  0  0  0  0
  9 38  1  0  0  0  0
  9 39  1  0  0  0  0
 10 11  1  0  0  0  0
 10 40  1  0  0  0  0
 10 41  1  0  0  0  0
 11 12  1  0  0  0  0
 12 17  1  0  0  0  0
 12 13  2  0  0  0  0
 13 14  1  0  0  0  0
 14 15  2  0  0  0  0
 14 42  1  0  0  0  0
 15 16  1  0  0  0  0
 16 20  1  0  0  0  0
 16 17  2  0  0  0  0
 17 18  1  0  0  0  0
 18 19  2  0  0  0  0
 19 20  1  0  0  0  0
 19 43  1  0  0  0  0
 20 21  1  0  0  0  0
 21 28  1  0  0  0  0
 21 22  1  0  0  0  0
 21 44  1  0  0  0  0
 22 23  1  0  0  0  0
 22 45  1  0  0  0  0
 22 46  1  0  0  0  0
 23 24  1  0  0  0  0
 23 26  1  0  0  0  0
 23 28  1  0  0  0  0
 24 25  1  0  0  0  0
 24 47  1  0  0  0  0
 24 48  1  0  0  0  0
 25 49  1  0  0  0  0
 26 27  1  0  0  0  0
 26 50  1  0  0  0  0
 26 51  1  0  0  0  0
 27 52  1  0  0  0  0
 28 53  1  0  0  0  0
 28 54  1  0  0  0  0
M  END
> <s_m_source_file>
AV-unprocessed.smi

> <i_m_source_file_index>
226

> <i_lp_mmshare_version>
43012

> <i_f3d_flags>
0

> <s_epik_input>
W0NIMl0xW0NIMl1bQ0hdMVtOSF1DKD1PKVtDQEBIXTJbQ0gyXVtDSDJdW0NIMl1OMmMobltjSF1uMyljKGMzNCluW2NIXW40W0NIXShbQ0gyXTUpW0NIMl1DNShbQ0gyXVtPSF0pW0NIMl1bT0hd

> <s_epik_cmdline>
J2VwaWtfcHl0aG9uJywgJy1waCcsICc3LjAnLCAnLXRuJywgJzgnLCAnLW1hJywgJzIwMCcsICctbWV0YWxfYmluZGluZycsICctaW1hZScsICc8aW5maWxlLm1hZT4nLCAnLW9tYWUnLCAnPG91dGZpbGUubWFlPic=

> <r_lp_tautomer_probability>
1

> <r_epik_Ionization_Penalty>
0.000818715

> <r_epik_Ionization_Penalty_Charging>
0

> <r_epik_Ionization_Penalty_Neutral>
0.000818715

> <r_epik_State_Penalty>
0.000426447

> <r_epik_Charging_Adjusted_Penalty>
0.000426447

> <i_epik_Tot_Q>
0

> <i_epik_Tot_abs_Q>
0

> <r_epik_Metal_State_Penalty>
-0

> <b_epik_Metal_Only>
0

> <s_lp_Force_Field>
OPLS_2005

> <r_lp_Energy>
61.6174

> <b_lp_Chiralities_Consistent>
1

> <s_lp_Variant>
AV-unprocessed.smi:226-1

> <Gold.Version>
5.8.1

> <Gold.Id.Protein>
6NUR|6NUR_protein|mol2

> <Gold.PLP.Fitness>
49.8022

> <Gold.PLP.PLP>
-40.7892

> <Gold.PLP.part.hbond>
-4.7640

> <Gold.PLP.part.metal>
0.0000

> <Gold.PLP.part.buried>
-4.7091

> <Gold.PLP.part.nonpolar>
-31.8032

> <Gold.PLP.part.repulsive>
1.0308

> <Gold.PLP.ligand.clash>
0.0000

> <Gold.PLP.ligand.torsion>
2.5431

> <Gold.PLP.Chemscore.Hbond>
3.7388

> <Gold.PLP.Chemscore.CHOScore>
0.7936

> <Gold.PLP.Chemscore.Metal>
0.0000

> <Gold.Chemscore.Hbonds>
donor molecule, donor type, donor heavy atom, donor atom, acceptor molecule, acceptor atom, score
      L1  H    25    49       P1 10186  0.81
      L1  H    27    52       P1 10747  1.00
      P1  H  7989  7998       L1     1  0.99
      P1  H 10785 10796       L1    25  0.86
      L1  C    19    43       P1 10171  0.80

> <Gold.PLP.Chemscore.Internal.Correction>
0.5022

> <Gold.Rescore>
     Score         DG    S(hbond)    S(metal)    S(lipo)     H(rot)  DE(clash)    DE(int)     intcor
     13.00     -17.90       3.38        0.00      86.78       3.52       2.03       2.87       ----

> <Gold.Chemscore.Fitness>
13.0035

> <Gold.Chemscore.DG>
-17.9031

> <Gold.Chemscore.ZeroCoef>
-5.4800

> <Gold.Chemscore.Hbond>
3.3810

> <Gold.Chemscore.Metal>
0.0000

> <Gold.Chemscore.Lipo>
86.7779

> <Gold.Chemscore.Internal_Hbond>
0.0000

> <Gold.Chemscore.DEClash>
2.0270

> <Gold.Chemscore.DEInternal>
2.8725

> <Gold.Chemscore.Rot>
3.5244

> <Gold.Chemscore.Internal.Correction>
   9.000000E+99

> <Gold.Chemscore.Hbonds>
donor molecule, donor type, donor heavy atom, donor atom, acceptor molecule, acceptor atom, score
      L1  H    25    49       P1 10186  0.80
      L1  H    27    52       P1 10747  0.97
      P1  H  7989  7998       L1     1  0.94
      P1  H 10785 10796       L1    25  0.51

> <Gold.Chemscore.Hbond.Weighted>
-11.2926

> <Gold.Chemscore.Metal.Weighted>
-0.0000

> <Gold.Chemscore.Lipo.Weighted>
-10.1530

> <Gold.Chemscore.Internal_Hbond.Weighted>
0.0000

> <Gold.Chemscore.DEClash.Weighted>
2.0270

> <Gold.Chemscore.DEInternal.Weighted>
2.8725

> <Gold.Chemscore.Rot.Weighted>
9.0225

> <Gold.Chemscore.Internal.Correction.Weighted>
   9.000000E+99

> <Gold.Protein.RotatedTorsions>
[ 6907 6896 6895 6894 ] final -166.15 input  -60.11 | X-H torsion
[ 7974 7965 7964 7962 ] final   70.71 input  175.53 | X-H torsion
[ 8008 7997 7996 7995 ] final  164.98 input   59.86 | X-H torsion
[ 10167 10162 10161 10158 ] final   96.91 input  -65.29 | X-H torsion
[ 10718 10713 10712 10709 ] final -112.50 input   66.30 | X-H torsion
[ 10763 10752 10751 10750 ] final -121.04 input  -60.55 | X-H torsion
[ 11005 11000 10999 10996 ] final  100.35 input  -57.11 | X-H torsion

> <Gold.Protein.ActiveResidues>
 VAL166  LYS551  ARG553  GLY616  TRP617  ASP618  TYR619  PRO620  LYS621  CYS622 
 ASP623  PHE694  ASN695  SER759  ASP760  ASP761  ALA762  ILE779  LEU786  VAL792 
 PHE793  MET794  SER795  GLU796  ALA797  LYS798  CYS799  TRP800  GLU811  SER814 

> <Gold.Protein.RotatedAtoms>
  151.4390  133.3648  159.2778 H   0  0  0  0  0  0  0  0  0  0  0  0  # atno 6907 bound_to 6896
  150.9171  134.8590  159.7475 H   0  0  0  0  0  0  0  0  0  0  0  0  # atno 6908 bound_to 6896
  152.4963  134.4325  159.9569 H   0  0  0  0  0  0  0  0  0  0  0  0  # atno 6909 bound_to 6896
  145.7748  139.2860  143.1300 H   0  0  0  0  0  0  0  0  0  0  0  0  # atno 7974 bound_to 7965
  156.1837  140.1682  156.8226 H   0  0  0  0  0  0  0  0  0  0  0  0  # atno 8008 bound_to 7997
  154.5389  140.0741  156.8508 H   0  0  0  0  0  0  0  0  0  0  0  0  # atno 8009 bound_to 7997
  155.3255  140.3376  155.4242 H   0  0  0  0  0  0  0  0  0  0  0  0  # atno 8010 bound_to 7997
  139.7850  144.6874  150.9970 H   0  0  0  0  0  0  0  0  0  0  0  0  # atno 10167 bound_to 10162
  156.0710  130.5923  150.8517 H   0  0  0  0  0  0  0  0  0  0  0  0  # atno 10718 bound_to 10713
  154.8659  135.4182  154.2556 H   0  0  0  0  0  0  0  0  0  0  0  0  # atno 10763 bound_to 10752
  153.3494  135.6998  153.6806 H   0  0  0  0  0  0  0  0  0  0  0  0  # atno 10764 bound_to 10752
  153.5752  135.3583  155.2826 H   0  0  0  0  0  0  0  0  0  0  0  0  # atno 10765 bound_to 10752
  139.8771  134.9136  156.4742 H   0  0  0  0  0  0  0  0  0  0  0  0  # atno 11005 bound_to 11000
  146.0133  140.8415  142.9960 LP  0  0  0  0  0  0  0  0  0  0  0  0  # atno 17320 bound_to 7965
  144.6806  140.2522  143.7330 LP  0  0  0  0  0  0  0  0  0  0  0  0  # atno 17321 bound_to 7965
  140.7819  143.4442  151.0507 LP  0  0  0  0  0  0  0  0  0  0  0  0  # atno 17342 bound_to 10162
  139.8121  143.7937  152.3172 LP  0  0  0  0  0  0  0  0  0  0  0  0  # atno 17343 bound_to 10162
  157.5780  131.0946  150.9315 LP  0  0  0  0  0  0  0  0  0  0  0  0  # atno 17370 bound_to 10713
  156.9517  130.5422  149.5282 LP  0  0  0  0  0  0  0  0  0  0  0  0  # atno 17371 bound_to 10713
  140.8774  133.7943  155.9429 LP  0  0  0  0  0  0  0  0  0  0  0  0  # atno 17394 bound_to 11000
  140.8890  134.2518  157.5104 LP  0  0  0  0  0  0  0  0  0  0  0  0  # atno 17395 bound_to 11000

$$$$
