AV-unprocessed.smi:3116|AV-procd|sdf|11874|dock4
  -GOLD-   2272017253D 1   1.00000     0.00000
 Structure written by MMmdl.
 33 33  0  0  0  0  0  0  0  0  1 V2000
  151.5239  139.7020  156.5398 C   0  0  0  0  0  0  0  0  0  0  0  0
  151.9841  139.7629  158.0100 C   0  0  2  0  0  0  0  0  0  0  0  0
  152.5700  141.0799  158.3081 N   0  0  0  0  0  0  0  0  0  0  0  0
  151.6104  142.1726  158.4665 C   0  0  2  0  0  0  0  0  0  0  0  0
  151.0603  142.6133  157.0959 C   0  0  0  0  0  0  0  0  0  0  0  0
  152.2711  143.3434  159.2426 C   0  0  1  0  0  0  0  0  0  0  0  0
  151.4437  144.6416  159.2035 C   0  0  0  0  0  0  0  0  0  0  0  0
  152.6472  142.9880  160.6087 N   0  0  0  0  0  0  0  0  0  0  0  0
  152.3387  143.6313  161.7921 C   0  0  0  0  0  0  0  0  0  0  0  0
  152.8902  142.9072  162.8096 C   0  0  0  0  0  0  0  0  0  0  0  0
  153.5224  141.8201  162.1454 C   0  0  0  0  0  0  0  0  0  0  0  0
  153.3723  141.8689  160.8321 N   0  0  0  0  0  0  0  0  0  0  0  0
  152.9927  138.6523  158.3446 C   0  0  0  0  0  0  0  0  0  0  0  0
  152.5799  137.3939  158.1684 N   0  0  0  0  0  0  0  0  0  0  0  0
  154.1245  138.9111  158.7505 O   0  0  0  0  0  0  0  0  0  0  0  0
  151.0790  138.7346  156.3034 H   0  0  0  0  0  0  0  0  0  0  0  0
  152.3558  139.8630  155.8525 H   0  0  0  0  0  0  0  0  0  0  0  0
  150.7726  140.4601  156.3219 H   0  0  0  0  0  0  0  0  0  0  0  0
  151.1166  139.5862  158.6481 H   0  0  0  0  0  0  0  0  0  0  0  0
  153.2983  141.3308  157.6547 H   0  0  0  0  0  0  0  0  0  0  0  0
  150.7770  141.8156  159.0738 H   0  0  0  0  0  0  0  0  0  0  0  0
  150.4268  143.4946  157.1979 H   0  0  0  0  0  0  0  0  0  0  0  0
  150.4486  141.8355  156.6397 H   0  0  0  0  0  0  0  0  0  0  0  0
  151.8609  142.8617  156.3983 H   0  0  0  0  0  0  0  0  0  0  0  0
  153.1983  143.5751  158.7147 H   0  0  0  0  0  0  0  0  0  0  0  0
  151.2380  144.9419  158.1760 H   0  0  0  0  0  0  0  0  0  0  0  0
  151.9805  145.4605  159.6834 H   0  0  0  0  0  0  0  0  0  0  0  0
  150.4857  144.5318  159.7125 H   0  0  0  0  0  0  0  0  0  0  0  0
  151.7560  144.5405  161.8132 H   0  0  0  0  0  0  0  0  0  0  0  0
  152.8465  143.1201  163.8673 H   0  0  0  0  0  0  0  0  0  0  0  0
  154.0795  141.0010  162.5753 H   0  0  0  0  0  0  0  0  0  0  0  0
  153.2083  136.6283  158.3632 H   0  0  0  0  0  0  0  0  0  0  0  0
  151.6453  137.2151  157.8306 H   0  0  0  0  0  0  0  0  0  0  0  0
  1  2  1  0  0  0  0
  1 16  1  0  0  0  0
  1 17  1  0  0  0  0
  1 18  1  0  0  0  0
  2  3  1  0  0  0  0
  2 13  1  0  0  0  0
  2 19  1  0  0  0  0
  3  4  1  0  0  0  0
  3 20  1  0  0  0  0
  4  5  1  0  0  0  0
  4  6  1  0  0  0  0
  4 21  1  0  0  0  0
  5 22  1  0  0  0  0
  5 23  1  0  0  0  0
  5 24  1  0  0  0  0
  6  7  1  0  0  0  0
  6  8  1  0  0  0  0
  6 25  1  0  0  0  0
  7 26  1  0  0  0  0
  7 27  1  0  0  0  0
  7 28  1  0  0  0  0
  8 12  1  0  0  0  0
  8  9  1  0  0  0  0
  9 10  2  0  0  0  0
  9 29  1  0  0  0  0
 10 11  1  0  0  0  0
 10 30  1  0  0  0  0
 11 12  2  0  0  0  0
 11 31  1  0  0  0  0
 13 14  1  0  0  0  0
 13 15  2  0  0  0  0
 14 32  1  0  0  0  0
 14 33  1  0  0  0  0
M  END
> <s_m_source_file>
AV-unprocessed.smi

> <i_m_source_file_index>
3116

> <i_lp_mmshare_version>
43012

> <i_f3d_flags>
0

> <s_epik_input>
W05IMl1DKD1PKVtDQEhdKFtDSDNdKVtOSF1bQ0BIXShbQ0gzXSlbQ0BIXShbQ0gzXSluMVtjSF1bY0hdW2NIXW4x

> <s_epik_cmdline>
J2VwaWtfcHl0aG9uJywgJy1waCcsICc3LjAnLCAnLXRuJywgJzgnLCAnLW1hJywgJzIwMCcsICctbWV0YWxfYmluZGluZycsICctaW1hZScsICc8aW5maWxlLm1hZT4nLCAnLW9tYWUnLCAnPG91dGZpbGUubWFlPic=

> <r_lp_tautomer_probability>
1

> <r_epik_Ionization_Penalty>
0.865977

> <r_epik_Ionization_Penalty_Charging>
0

> <r_epik_Ionization_Penalty_Neutral>
0.865977

> <r_epik_State_Penalty>
0.901888

> <r_epik_Charging_Adjusted_Penalty>
0.901888

> <i_epik_Tot_Q>
0

> <i_epik_Tot_abs_Q>
0

> <r_epik_Metal_State_Penalty>
0.901181

> <b_epik_Metal_Only>
0

> <s_lp_Force_Field>
OPLS_2005

> <r_lp_Energy>
11.5103

> <b_lp_Chiralities_Consistent>
1

> <s_lp_Variant>
AV-unprocessed.smi:3116-13

> <Gold.Version>
5.8.1

> <Gold.Id.Protein>
6NUR|6NUR_protein|mol2

> <Gold.PLP.Fitness>
38.0934

> <Gold.PLP.PLP>
-35.8571

> <Gold.PLP.part.hbond>
-1.1603

> <Gold.PLP.part.metal>
0.0000

> <Gold.PLP.part.buried>
-3.6913

> <Gold.PLP.part.nonpolar>
-30.0381

> <Gold.PLP.part.repulsive>
0.1144

> <Gold.PLP.ligand.clash>
0.0001

> <Gold.PLP.ligand.torsion>
0.4863

> <Gold.PLP.Chemscore.Hbond>
1.0000

> <Gold.PLP.Chemscore.CHOScore>
0.0000

> <Gold.PLP.Chemscore.Metal>
0.0000

> <Gold.Chemscore.Hbonds>
donor molecule, donor type, donor heavy atom, donor atom, acceptor molecule, acceptor atom, score
      P1  H  7997  8008       L1    15  1.00

> <Gold.PLP.Chemscore.Internal.Correction>
0.2089

> <Gold.Rescore>
     Score         DG    S(hbond)    S(metal)    S(lipo)     H(rot)  DE(clash)    DE(int)     intcor
     10.87     -12.88       0.99        0.00      87.27       2.38       0.00       2.01       ----

> <Gold.Chemscore.Fitness>
10.8711

> <Gold.Chemscore.DG>
-12.8816

> <Gold.Chemscore.ZeroCoef>
-5.4800

> <Gold.Chemscore.Hbond>
0.9859

> <Gold.Chemscore.Metal>
0.0000

> <Gold.Chemscore.Lipo>
87.2717

> <Gold.Chemscore.Internal_Hbond>
0.0000

> <Gold.Chemscore.DEClash>
0.0009

> <Gold.Chemscore.DEInternal>
2.0096

> <Gold.Chemscore.Rot>
2.3836

> <Gold.Chemscore.Internal.Correction>
   9.000000E+99

> <Gold.Chemscore.Hbonds>
donor molecule, donor type, donor heavy atom, donor atom, acceptor molecule, acceptor atom, score
      P1  H  7997  8008       L1    15  0.43

> <Gold.Chemscore.Hbond.Weighted>
-3.2927

> <Gold.Chemscore.Metal.Weighted>
-0.0000

> <Gold.Chemscore.Lipo.Weighted>
-10.2108

> <Gold.Chemscore.Internal_Hbond.Weighted>
0.0000

> <Gold.Chemscore.DEClash.Weighted>
0.0009

> <Gold.Chemscore.DEInternal.Weighted>
2.0096

> <Gold.Chemscore.Rot.Weighted>
6.1020

> <Gold.Chemscore.Internal.Correction.Weighted>
   9.000000E+99

> <Gold.Protein.RotatedTorsions>
[ 6907 6896 6895 6894 ] final  119.37 input  -60.11 | X-H torsion
[ 7974 7965 7964 7962 ] final  110.70 input  175.53 | X-H torsion
[ 8008 7997 7996 7995 ] final -109.36 input   59.86 | X-H torsion
[ 10167 10162 10161 10158 ] final -152.38 input  -65.29 | X-H torsion
[ 10718 10713 10712 10709 ] final   57.96 input   66.30 | X-H torsion
[ 10763 10752 10751 10750 ] final  -46.37 input  -60.55 | X-H torsion
[ 11005 11000 10999 10996 ] final  141.84 input  -57.11 | X-H torsion

> <Gold.Protein.ActiveResidues>
 VAL166  LYS551  ARG553  GLY616  TRP617  ASP618  TYR619  PRO620  LYS621  CYS622 
 ASP623  PHE694  ASN695  SER759  ASP760  ASP761  ALA762  ILE779  LEU786  VAL792 
 PHE793  MET794  SER795  GLU796  ALA797  LYS798  CYS799  TRP800  GLU811  SER814 

> <Gold.Protein.RotatedAtoms>
  152.4477  133.7567  159.6723 H   0  0  0  0  0  0  0  0  0  0  0  0  # atno 6907 bound_to 6896
  150.8380  133.7971  159.3078 H   0  0  0  0  0  0  0  0  0  0  0  0  # atno 6908 bound_to 6896
  151.5605  135.1068  160.0023 H   0  0  0  0  0  0  0  0  0  0  0  0  # atno 6909 bound_to 6896
  145.2517  139.2737  143.4064 H   0  0  0  0  0  0  0  0  0  0  0  0  # atno 7974 bound_to 7965
  154.9582  140.0399  157.2177 H   0  0  0  0  0  0  0  0  0  0  0  0  # atno 8008 bound_to 7997
  154.7914  140.2836  155.5967 H   0  0  0  0  0  0  0  0  0  0  0  0  # atno 8009 bound_to 7997
  156.2950  140.2572  156.2762 H   0  0  0  0  0  0  0  0  0  0  0  0  # atno 8010 bound_to 7997
  139.7186  143.8993  152.2495 H   0  0  0  0  0  0  0  0  0  0  0  0  # atno 10167 bound_to 10162
  157.5558  130.8799  149.9033 H   0  0  0  0  0  0  0  0  0  0  0  0  # atno 10718 bound_to 10713
  154.0439  135.6640  153.4793 H   0  0  0  0  0  0  0  0  0  0  0  0  # atno 10763 bound_to 10752
  153.0490  135.5096  154.7815 H   0  0  0  0  0  0  0  0  0  0  0  0  # atno 10764 bound_to 10752
  154.6800  135.3043  154.9592 H   0  0  0  0  0  0  0  0  0  0  0  0  # atno 10765 bound_to 10752
  140.0431  134.9294  157.0880 H   0  0  0  0  0  0  0  0  0  0  0  0  # atno 11005 bound_to 11000
  146.3301  140.2909  142.8615 LP  0  0  0  0  0  0  0  0  0  0  0  0  # atno 17320 bound_to 7965
  144.9497  140.8165  143.5579 LP  0  0  0  0  0  0  0  0  0  0  0  0  # atno 17321 bound_to 7965
  139.8882  144.6980  150.8800 LP  0  0  0  0  0  0  0  0  0  0  0  0  # atno 17342 bound_to 10162
  140.7749  143.3607  151.1834 LP  0  0  0  0  0  0  0  0  0  0  0  0  # atno 17343 bound_to 10162
  156.0617  130.3699  150.0968 LP  0  0  0  0  0  0  0  0  0  0  0  0  # atno 17370 bound_to 10713
  156.9137  130.9660  151.3559 LP  0  0  0  0  0  0  0  0  0  0  0  0  # atno 17371 bound_to 10713
  140.4036  134.2056  155.7163 LP  0  0  0  0  0  0  0  0  0  0  0  0  # atno 17394 bound_to 11000
  141.1893  133.8241  157.0961 LP  0  0  0  0  0  0  0  0  0  0  0  0  # atno 17395 bound_to 11000

$$$$
