AV-unprocessed.smi:2988|AV-procd|sdf|11390|dock7
  -GOLD-   2272016313D 1   1.00000     0.00000
 Structure written by MMmdl.
 37 38  0  0  0  0  0  0  0  0  1 V2000
  153.1598  139.4833  159.4666 C   0  0  0  0  0  0  0  0  0  0  0  0
  152.5140  140.8449  159.7823 C   0  0  1  0  0  0  0  0  0  0  0  0
  153.4517  141.6987  160.6604 C   0  0  0  0  0  0  0  0  0  0  0  0
  152.8324  143.0621  161.0016 C   0  0  0  0  0  0  0  0  0  0  0  0
  152.4509  143.8280  159.7276 C   0  0  0  0  0  0  0  0  0  0  0  0
  151.5059  142.9976  158.8472 C   0  0  0  0  0  0  0  0  0  0  0  0
  152.1088  141.6199  158.5036 C   0  0  2  0  0  0  0  0  0  0  0  0
  151.1448  140.8458  157.7247 N   0  0  0  0  0  0  0  0  0  0  0  0
  151.4408  140.0491  156.6869 C   0  0  0  0  0  0  0  0  0  0  0  0
  152.5819  139.9057  156.2462 O   0  0  0  0  0  0  0  0  0  0  0  0
  150.2569  139.3197  156.0368 C   0  0  0  0  0  0  0  0  0  0  0  0
  149.1728  140.2304  155.6416 N   0  0  0  0  0  0  0  0  0  0  0  0
  149.0598  140.4166  154.2749 N   0  0  0  0  0  0  0  0  0  0  0  0
  148.1311  141.1818  153.8141 C   0  0  0  0  0  0  0  0  0  0  0  0
  147.1959  141.8658  154.6796 C   0  0  0  0  0  0  0  0  0  0  0  0
  145.9704  142.8798  154.0032 Cl  0  0  0  0  0  0  0  0  0  0  0  0
  147.3198  141.6817  156.0182 C   0  0  0  0  0  0  0  0  0  0  0  0
  146.2380  142.4662  157.1176 Cl  0  0  0  0  0  0  0  0  0  0  0  0
  148.3669  140.8169  156.5797 C   0  0  0  0  0  0  0  0  0  0  0  0
  148.5156  140.6276  157.7880 O   0  0  0  0  0  0  0  0  0  0  0  0
  154.0626  139.6037  158.8671 H   0  0  0  0  0  0  0  0  0  0  0  0
  152.4809  138.8310  158.9168 H   0  0  0  0  0  0  0  0  0  0  0  0
  153.4375  138.9607  160.3823 H   0  0  0  0  0  0  0  0  0  0  0  0
  151.6095  140.6506  160.3609 H   0  0  0  0  0  0  0  0  0  0  0  0
  153.6858  141.1662  161.5827 H   0  0  0  0  0  0  0  0  0  0  0  0
  154.4007  141.8517  160.1448 H   0  0  0  0  0  0  0  0  0  0  0  0
  151.9476  142.9179  161.6228 H   0  0  0  0  0  0  0  0  0  0  0  0
  153.5336  143.6514  161.5932 H   0  0  0  0  0  0  0  0  0  0  0  0
  151.9781  144.7746  159.9901 H   0  0  0  0  0  0  0  0  0  0  0  0
  153.3518  144.0763  159.1652 H   0  0  0  0  0  0  0  0  0  0  0  0
  150.5546  142.8659  159.3650 H   0  0  0  0  0  0  0  0  0  0  0  0
  151.2843  143.5483  157.9322 H   0  0  0  0  0  0  0  0  0  0  0  0
  153.0115  141.7770  157.9095 H   0  0  0  0  0  0  0  0  0  0  0  0
  150.1786  140.9074  158.0115 H   0  0  0  0  0  0  0  0  0  0  0  0
  150.5985  138.7503  155.1699 H   0  0  0  0  0  0  0  0  0  0  0  0
  149.8890  138.5768  156.7468 H   0  0  0  0  0  0  0  0  0  0  0  0
  148.0007  141.3547  152.7457 H   0  0  0  0  0  0  0  0  0  0  0  0
  1  2  1  0  0  0  0
  1 21  1  0  0  0  0
  1 22  1  0  0  0  0
  1 23  1  0  0  0  0
  2  7  1  0  0  0  0
  2  3  1  0  0  0  0
  2 24  1  0  0  0  0
  3  4  1  0  0  0  0
  3 25  1  0  0  0  0
  3 26  1  0  0  0  0
  4  5  1  0  0  0  0
  4 27  1  0  0  0  0
  4 28  1  0  0  0  0
  5  6  1  0  0  0  0
  5 29  1  0  0  0  0
  5 30  1  0  0  0  0
  6  7  1  0  0  0  0
  6 31  1  0  0  0  0
  6 32  1  0  0  0  0
  7  8  1  0  0  0  0
  7 33  1  0  0  0  0
  8  9  1  0  0  0  0
  8 34  1  0  0  0  0
  9 10  2  0  0  0  0
  9 11  1  0  0  0  0
 11 12  1  0  0  0  0
 11 35  1  0  0  0  0
 11 36  1  0  0  0  0
 12 19  1  0  0  0  0
 12 13  1  0  0  0  0
 13 14  2  0  0  0  0
 14 15  1  0  0  0  0
 14 37  1  0  0  0  0
 15 16  1  0  0  0  0
 15 17  2  0  0  0  0
 17 18  1  0  0  0  0
 17 19  1  0  0  0  0
 19 20  2  0  0  0  0
M  END
> <s_m_source_file>
AV-unprocessed.smi

> <i_m_source_file_index>
2988

> <i_lp_mmshare_version>
43012

> <i_f3d_flags>
0

> <s_epik_input>
W0NIM11bQ0BASF0xW0NIMl1bQ0gyXVtDSDJdW0NIMl1bQ0BIXTFbTkhdQyg9TylbQ0gyXW4ybltjSF1jKENsKWMoQ2wpYzI9Tw==

> <s_epik_cmdline>
J2VwaWtfcHl0aG9uJywgJy1waCcsICc3LjAnLCAnLXRuJywgJzgnLCAnLW1hJywgJzIwMCcsICctbWV0YWxfYmluZGluZycsICctaW1hZScsICc8aW5maWxlLm1hZT4nLCAnLW9tYWUnLCAnPG91dGZpbGUubWFlPic=

> <r_lp_tautomer_probability>
1

> <r_epik_Ionization_Penalty>
1.90782e-08

> <r_epik_Ionization_Penalty_Charging>
3.13143e-11

> <r_epik_Ionization_Penalty_Neutral>
1.90469e-08

> <r_epik_State_Penalty>
-0

> <r_epik_Charging_Adjusted_Penalty>
3.13143e-11

> <i_epik_Tot_Q>
0

> <i_epik_Tot_abs_Q>
0

> <r_epik_Metal_State_Penalty>
-0

> <b_epik_Metal_Only>
0

> <s_lp_Force_Field>
OPLS_2005

> <r_lp_Energy>
24.109

> <b_lp_Chiralities_Consistent>
1

> <s_lp_Variant>
AV-unprocessed.smi:2988-4

> <Gold.Version>
5.8.1

> <Gold.Id.Protein>
6NUR|6NUR_protein|mol2

> <Gold.PLP.Fitness>
41.2744

> <Gold.PLP.PLP>
-37.0066

> <Gold.PLP.part.hbond>
-1.0000

> <Gold.PLP.part.metal>
0.0000

> <Gold.PLP.part.buried>
-4.3306

> <Gold.PLP.part.nonpolar>
-32.0619

> <Gold.PLP.part.repulsive>
0.2128

> <Gold.PLP.ligand.clash>
0.0000

> <Gold.PLP.ligand.torsion>
0.4896

> <Gold.PLP.Chemscore.Hbond>
1.0000

> <Gold.PLP.Chemscore.CHOScore>
0.7471

> <Gold.PLP.Chemscore.Metal>
0.0000

> <Gold.Chemscore.Hbonds>
donor molecule, donor type, donor heavy atom, donor atom, acceptor molecule, acceptor atom, score
      P1  H  7997  8010       L1    10  1.00
      L1  C    14    37       P1  7957  0.63

> <Gold.PLP.Chemscore.Internal.Correction>
0.0057

> <Gold.Rescore>
     Score         DG    S(hbond)    S(metal)    S(lipo)     H(rot)  DE(clash)    DE(int)     intcor
     16.59     -17.16       1.07        0.00     102.02       1.50       0.12       0.45       ----

> <Gold.Chemscore.Fitness>
16.5930

> <Gold.Chemscore.DG>
-17.1636

> <Gold.Chemscore.ZeroCoef>
-5.4800

> <Gold.Chemscore.Hbond>
1.0723

> <Gold.Chemscore.Metal>
0.0000

> <Gold.Chemscore.Lipo>
102.0196

> <Gold.Chemscore.Internal_Hbond>
0.0000

> <Gold.Chemscore.DEClash>
0.1192

> <Gold.Chemscore.DEInternal>
0.4514

> <Gold.Chemscore.Rot>
1.4977

> <Gold.Chemscore.Internal.Correction>
   9.000000E+99

> <Gold.Chemscore.Hbonds>
donor molecule, donor type, donor heavy atom, donor atom, acceptor molecule, acceptor atom, score
      P1  H  7997  8010       L1    10  0.99

> <Gold.Chemscore.Hbond.Weighted>
-3.5814

> <Gold.Chemscore.Metal.Weighted>
-0.0000

> <Gold.Chemscore.Lipo.Weighted>
-11.9363

> <Gold.Chemscore.Internal_Hbond.Weighted>
0.0000

> <Gold.Chemscore.DEClash.Weighted>
0.1192

> <Gold.Chemscore.DEInternal.Weighted>
0.4514

> <Gold.Chemscore.Rot.Weighted>
3.8341

> <Gold.Chemscore.Internal.Correction.Weighted>
   9.000000E+99

> <Gold.Protein.RotatedTorsions>
[ 6907 6896 6895 6894 ] final -127.57 input  -60.11 | X-H torsion
[ 7974 7965 7964 7962 ] final -118.12 input  175.53 | X-H torsion
[ 8008 7997 7996 7995 ] final   88.25 input   59.86 | X-H torsion
[ 10167 10162 10161 10158 ] final  124.41 input  -65.29 | X-H torsion
[ 10718 10713 10712 10709 ] final  -17.90 input   66.30 | X-H torsion
[ 10763 10752 10751 10750 ] final -107.85 input  -60.55 | X-H torsion
[ 11005 11000 10999 10996 ] final  114.15 input  -57.11 | X-H torsion

> <Gold.Protein.ActiveResidues>
 VAL166  LYS551  ARG553  GLY616  TRP617  ASP618  TYR619  PRO620  LYS621  CYS622 
 ASP623  PHE694  ASN695  SER759  ASP760  ASP761  ALA762  ILE779  LEU786  VAL792 
 PHE793  MET794  SER795  GLU796  ALA797  LYS798  CYS799  TRP800  GLU811  SER814 

> <Gold.Protein.RotatedAtoms>
  150.9087  133.7026  159.2860 H   0  0  0  0  0  0  0  0  0  0  0  0  # atno 6907 bound_to 6896
  151.4520  135.1029  159.9710 H   0  0  0  0  0  0  0  0  0  0  0  0  # atno 6908 bound_to 6896
  152.4917  133.8470  159.7237 H   0  0  0  0  0  0  0  0  0  0  0  0  # atno 6909 bound_to 6896
  145.0775  140.8402  143.4059 H   0  0  0  0  0  0  0  0  0  0  0  0  # atno 7974 bound_to 7965
  155.9855  140.3373  155.6703 H   0  0  0  0  0  0  0  0  0  0  0  0  # atno 8008 bound_to 7997
  155.6492  140.0703  157.2611 H   0  0  0  0  0  0  0  0  0  0  0  0  # atno 8009 bound_to 7997
  154.4204  140.1729  156.1643 H   0  0  0  0  0  0  0  0  0  0  0  0  # atno 8010 bound_to 7997
  139.5743  144.6955  151.3695 H   0  0  0  0  0  0  0  0  0  0  0  0  # atno 10167 bound_to 10162
  156.5671  130.4740  149.6380 H   0  0  0  0  0  0  0  0  0  0  0  0  # atno 10718 bound_to 10713
  154.8100  135.4660  154.0491 H   0  0  0  0  0  0  0  0  0  0  0  0  # atno 10763 bound_to 10752
  153.1930  135.6858  153.8335 H   0  0  0  0  0  0  0  0  0  0  0  0  # atno 10764 bound_to 10752
  153.7846  135.3251  155.3348 H   0  0  0  0  0  0  0  0  0  0  0  0  # atno 10765 bound_to 10752
  139.8972  134.9563  156.6847 H   0  0  0  0  0  0  0  0  0  0  0  0  # atno 11005 bound_to 11000
  145.1218  139.2688  143.5584 LP  0  0  0  0  0  0  0  0  0  0  0  0  # atno 17320 bound_to 7965
  146.3530  140.0844  142.8616 LP  0  0  0  0  0  0  0  0  0  0  0  0  # atno 17321 bound_to 7965
  140.7026  143.7593  150.7429 LP  0  0  0  0  0  0  0  0  0  0  0  0  # atno 17342 bound_to 10162
  140.1108  143.4701  152.2371 LP  0  0  0  0  0  0  0  0  0  0  0  0  # atno 17343 bound_to 10162
  156.2747  130.7037  151.1845 LP  0  0  0  0  0  0  0  0  0  0  0  0  # atno 17370 bound_to 10713
  157.7356  131.0570  150.5460 LP  0  0  0  0  0  0  0  0  0  0  0  0  # atno 17371 bound_to 10713
  140.7271  133.9090  155.8186 LP  0  0  0  0  0  0  0  0  0  0  0  0  # atno 17394 bound_to 11000
  141.0182  134.0926  157.4149 LP  0  0  0  0  0  0  0  0  0  0  0  0  # atno 17395 bound_to 11000

$$$$
