AV-unprocessed.smi:3116|AV-procd|sdf|11873|dock9
  -GOLD-   2272017253D 1   1.00000     0.00000
 Structure written by MMmdl.
 33 33  0  0  0  0  0  0  0  0  1 V2000
  152.9003  137.5161  156.6348 C   0  0  0  0  0  0  0  0  0  0  0  0
  152.1958  138.8804  156.7836 C   0  0  1  0  0  0  0  0  0  0  0  0
  153.0100  139.8168  157.5739 N   0  0  0  0  0  0  0  0  0  0  0  0
  152.3018  141.0360  157.9622 C   0  0  1  0  0  0  0  0  0  0  0  0
  150.9418  140.5965  158.5314 C   0  0  0  0  0  0  0  0  0  0  0  0
  153.1663  141.8253  158.9834 C   0  0  2  0  0  0  0  0  0  0  0  0
  153.3296  141.0927  160.3290 C   0  0  0  0  0  0  0  0  0  0  0  0
  152.6412  143.1686  159.2087 N   0  0  0  0  0  0  0  0  0  0  0  0
  152.4818  144.1846  158.2890 C   0  0  0  0  0  0  0  0  0  0  0  0
  151.9372  145.2505  158.9460 C   0  0  0  0  0  0  0  0  0  0  0  0
  151.7964  144.7867  160.2832 C   0  0  0  0  0  0  0  0  0  0  0  0
  152.2160  143.5420  160.4375 N   0  0  0  0  0  0  0  0  0  0  0  0
  151.8617  139.5076  155.4234 C   0  0  0  0  0  0  0  0  0  0  0  0
  151.0749  138.7940  154.6137 N   0  0  0  0  0  0  0  0  0  0  0  0
  152.2879  140.6168  155.1051 O   0  0  0  0  0  0  0  0  0  0  0  0
  152.3175  136.8362  156.0118 H   0  0  0  0  0  0  0  0  0  0  0  0
  153.0334  137.0274  157.5998 H   0  0  0  0  0  0  0  0  0  0  0  0
  153.8869  137.6206  156.1813 H   0  0  0  0  0  0  0  0  0  0  0  0
  151.2404  138.7232  157.2874 H   0  0  0  0  0  0  0  0  0  0  0  0
  153.4030  139.3705  158.3901 H   0  0  0  0  0  0  0  0  0  0  0  0
  152.1134  141.6723  157.0957 H   0  0  0  0  0  0  0  0  0  0  0  0
  150.3075  141.4532  158.7575 H   0  0  0  0  0  0  0  0  0  0  0  0
  151.0599  140.0168  159.4478 H   0  0  0  0  0  0  0  0  0  0  0  0
  150.3955  139.9801  157.8164 H   0  0  0  0  0  0  0  0  0  0  0  0
  154.1652  141.9453  158.5604 H   0  0  0  0  0  0  0  0  0  0  0  0
  153.8864  140.1632  160.2152 H   0  0  0  0  0  0  0  0  0  0  0  0
  152.3638  140.8508  160.7736 H   0  0  0  0  0  0  0  0  0  0  0  0
  153.8790  141.7068  161.0432 H   0  0  0  0  0  0  0  0  0  0  0  0
  152.7619  144.0641  157.2528 H   0  0  0  0  0  0  0  0  0  0  0  0
  151.6780  146.2143  158.5337 H   0  0  0  0  0  0  0  0  0  0  0  0
  151.4032  145.3134  161.1402 H   0  0  0  0  0  0  0  0  0  0  0  0
  150.8289  139.1602  153.7052 H   0  0  0  0  0  0  0  0  0  0  0  0
  150.7342  137.8915  154.9116 H   0  0  0  0  0  0  0  0  0  0  0  0
  1  2  1  0  0  0  0
  1 16  1  0  0  0  0
  1 17  1  0  0  0  0
  1 18  1  0  0  0  0
  2  3  1  0  0  0  0
  2 13  1  0  0  0  0
  2 19  1  0  0  0  0
  3  4  1  0  0  0  0
  3 20  1  0  0  0  0
  4  5  1  0  0  0  0
  4  6  1  0  0  0  0
  4 21  1  0  0  0  0
  5 22  1  0  0  0  0
  5 23  1  0  0  0  0
  5 24  1  0  0  0  0
  6  7  1  0  0  0  0
  6  8  1  0  0  0  0
  6 25  1  0  0  0  0
  7 26  1  0  0  0  0
  7 27  1  0  0  0  0
  7 28  1  0  0  0  0
  8 12  1  0  0  0  0
  8  9  1  0  0  0  0
  9 10  2  0  0  0  0
  9 29  1  0  0  0  0
 10 11  1  0  0  0  0
 10 30  1  0  0  0  0
 11 12  2  0  0  0  0
 11 31  1  0  0  0  0
 13 14  1  0  0  0  0
 13 15  2  0  0  0  0
 14 32  1  0  0  0  0
 14 33  1  0  0  0  0
M  END
> <s_m_source_file>
AV-unprocessed.smi

> <i_m_source_file_index>
3116

> <i_lp_mmshare_version>
43012

> <i_f3d_flags>
0

> <s_epik_input>
W05IMl1DKD1PKVtDQEhdKFtDSDNdKVtOSF1bQ0BIXShbQ0gzXSlbQ0BIXShbQ0gzXSluMVtjSF1bY0hdW2NIXW4x

> <s_epik_cmdline>
J2VwaWtfcHl0aG9uJywgJy1waCcsICc3LjAnLCAnLXRuJywgJzgnLCAnLW1hJywgJzIwMCcsICctbWV0YWxfYmluZGluZycsICctaW1hZScsICc8aW5maWxlLm1hZT4nLCAnLW9tYWUnLCAnPG91dGZpbGUubWFlPic=

> <r_lp_tautomer_probability>
1

> <r_epik_Ionization_Penalty>
0.865977

> <r_epik_Ionization_Penalty_Charging>
0

> <r_epik_Ionization_Penalty_Neutral>
0.865977

> <r_epik_State_Penalty>
0.901888

> <r_epik_Charging_Adjusted_Penalty>
0.901888

> <i_epik_Tot_Q>
0

> <i_epik_Tot_abs_Q>
0

> <r_epik_Metal_State_Penalty>
0.901181

> <b_epik_Metal_Only>
0

> <s_lp_Force_Field>
OPLS_2005

> <r_lp_Energy>
8.51746

> <b_lp_Chiralities_Consistent>
1

> <s_lp_Variant>
AV-unprocessed.smi:3116-12

> <Gold.Version>
5.8.1

> <Gold.Id.Protein>
6NUR|6NUR_protein|mol2

> <Gold.PLP.Fitness>
37.5557

> <Gold.PLP.PLP>
-32.9499

> <Gold.PLP.part.hbond>
-2.0000

> <Gold.PLP.part.metal>
0.0000

> <Gold.PLP.part.buried>
-4.4173

> <Gold.PLP.part.nonpolar>
-26.3950

> <Gold.PLP.part.repulsive>
0.1339

> <Gold.PLP.ligand.clash>
0.0000

> <Gold.PLP.ligand.torsion>
0.2682

> <Gold.PLP.Chemscore.Hbond>
1.6800

> <Gold.PLP.Chemscore.CHOScore>
0.0000

> <Gold.PLP.Chemscore.Metal>
0.0000

> <Gold.Chemscore.Hbonds>
donor molecule, donor type, donor heavy atom, donor atom, acceptor molecule, acceptor atom, score
      P1  H  7989  7998       L1    15  0.46
      P1  H  7997  8010       L1     3  0.91

> <Gold.PLP.Chemscore.Internal.Correction>
0.1021

> <Gold.Rescore>
     Score         DG    S(hbond)    S(metal)    S(lipo)     H(rot)  DE(clash)    DE(int)     intcor
     11.32     -11.75       0.97        0.00      78.05       2.38       0.01       0.42       ----

> <Gold.Chemscore.Fitness>
11.3201

> <Gold.Chemscore.DG>
-11.7519

> <Gold.Chemscore.ZeroCoef>
-5.4800

> <Gold.Chemscore.Hbond>
0.9706

> <Gold.Chemscore.Metal>
0.0000

> <Gold.Chemscore.Lipo>
78.0525

> <Gold.Chemscore.Internal_Hbond>
0.0000

> <Gold.Chemscore.DEClash>
0.0073

> <Gold.Chemscore.DEInternal>
0.4245

> <Gold.Chemscore.Rot>
2.3836

> <Gold.Chemscore.Internal.Correction>
   9.000000E+99

> <Gold.Chemscore.Hbonds>
donor molecule, donor type, donor heavy atom, donor atom, acceptor molecule, acceptor atom, score
      P1  H  7989  7998       L1    15  0.23
      P1  H  7997  8010       L1     3  0.13

> <Gold.Chemscore.Hbond.Weighted>
-3.2418

> <Gold.Chemscore.Metal.Weighted>
-0.0000

> <Gold.Chemscore.Lipo.Weighted>
-9.1321

> <Gold.Chemscore.Internal_Hbond.Weighted>
0.0000

> <Gold.Chemscore.DEClash.Weighted>
0.0073

> <Gold.Chemscore.DEInternal.Weighted>
0.4245

> <Gold.Chemscore.Rot.Weighted>
6.1020

> <Gold.Chemscore.Internal.Correction.Weighted>
   9.000000E+99

> <Gold.Protein.RotatedTorsions>
[ 6907 6896 6895 6894 ] final  -95.50 input  -60.11 | X-H torsion
[ 7974 7965 7964 7962 ] final  104.07 input  175.53 | X-H torsion
[ 8008 7997 7996 7995 ] final   68.47 input   59.86 | X-H torsion
[ 10167 10162 10161 10158 ] final   -2.73 input  -65.29 | X-H torsion
[ 10718 10713 10712 10709 ] final  -77.93 input   66.30 | X-H torsion
[ 10763 10752 10751 10750 ] final -107.64 input  -60.55 | X-H torsion
[ 11005 11000 10999 10996 ] final  -82.06 input  -57.11 | X-H torsion

> <Gold.Protein.ActiveResidues>
 VAL166  LYS551  ARG553  GLY616  TRP617  ASP618  TYR619  PRO620  LYS621  CYS622 
 ASP623  PHE694  ASN695  SER759  ASP760  ASP761  ALA762  ILE779  LEU786  VAL792 
 PHE793  MET794  SER795  GLU796  ALA797  LYS798  CYS799  TRP800  GLU811  SER814 

> <Gold.Protein.RotatedAtoms>
  150.6965  134.1648  159.4189 H   0  0  0  0  0  0  0  0  0  0  0  0  # atno 6907 bound_to 6896
  151.9627  135.0113  160.0558 H   0  0  0  0  0  0  0  0  0  0  0  0  # atno 6908 bound_to 6896
  152.1912  133.4739  159.5046 H   0  0  0  0  0  0  0  0  0  0  0  0  # atno 6909 bound_to 6896
  145.3376  139.2470  143.3627 H   0  0  0  0  0  0  0  0  0  0  0  0  # atno 7974 bound_to 7965
  155.7088  140.3494  155.4965 H   0  0  0  0  0  0  0  0  0  0  0  0  # atno 8008 bound_to 7997
  155.9374  140.1095  157.1105 H   0  0  0  0  0  0  0  0  0  0  0  0  # atno 8009 bound_to 7997
  154.4096  140.1219  156.4869 H   0  0  0  0  0  0  0  0  0  0  0  0  # atno 8010 bound_to 7997
  140.6862  143.6623  150.8256 H   0  0  0  0  0  0  0  0  0  0  0  0  # atno 10167 bound_to 10162
  156.0131  130.4504  150.3420 H   0  0  0  0  0  0  0  0  0  0  0  0  # atno 10718 bound_to 10713
  154.8088  135.4667  154.0461 H   0  0  0  0  0  0  0  0  0  0  0  0  # atno 10763 bound_to 10752
  153.1909  135.6855  153.8361 H   0  0  0  0  0  0  0  0  0  0  0  0  # atno 10764 bound_to 10752
  153.7879  135.3247  155.3352 H   0  0  0  0  0  0  0  0  0  0  0  0  # atno 10765 bound_to 10752
  141.1664  133.7226  156.8515 H   0  0  0  0  0  0  0  0  0  0  0  0  # atno 11005 bound_to 11000
  146.3021  140.3966  142.8700 LP  0  0  0  0  0  0  0  0  0  0  0  0  # atno 17320 bound_to 7965
  144.8815  140.7407  143.5983 LP  0  0  0  0  0  0  0  0  0  0  0  0  # atno 17321 bound_to 7965
  140.0330  143.5423  152.2751 LP  0  0  0  0  0  0  0  0  0  0  0  0  # atno 17342 bound_to 10162
  139.6223  144.7631  151.2713 LP  0  0  0  0  0  0  0  0  0  0  0  0  # atno 17343 bound_to 10162
  157.1515  131.0322  151.2883 LP  0  0  0  0  0  0  0  0  0  0  0  0  # atno 17370 bound_to 10713
  157.4388  130.7532  149.7051 LP  0  0  0  0  0  0  0  0  0  0  0  0  # atno 17371 bound_to 10713
  140.1912  134.8964  157.3063 LP  0  0  0  0  0  0  0  0  0  0  0  0  # atno 17394 bound_to 11000
  140.2288  134.3934  155.7531 LP  0  0  0  0  0  0  0  0  0  0  0  0  # atno 17395 bound_to 11000

$$$$
