AV-unprocessed.smi:3056|AV-procd|sdf|11658|dock2
  -GOLD-   2272017 63D 1   1.00000     0.00000
 Structure written by MMmdl.
 47 48  0  0  0  0  0  0  0  0  1 V2000
  145.3153  144.3473  153.1247 C   0  0  0  0  0  0  0  0  0  0  0  0
  145.9121  143.3025  154.0228 C   0  0  0  0  0  0  0  0  0  0  0  0
  145.5078  142.9467  155.3402 C   0  0  0  0  0  0  0  0  0  0  0  0
  146.2431  141.9771  155.8583 N   0  0  0  0  0  0  0  0  0  0  0  0
  147.1491  141.6821  154.8983 N   0  0  0  0  0  0  0  0  0  0  0  0
  148.1340  140.6211  155.0984 C   0  0  1  0  0  0  0  0  0  0  0  0
  147.9586  139.4655  154.0930 C   0  0  0  0  0  0  0  0  0  0  0  0
  149.5949  141.1420  155.1826 C   0  0  2  0  0  0  0  0  0  0  0  0
  150.6142  140.0017  155.3842 C   0  0  0  0  0  0  0  0  0  0  0  0
  149.7159  142.1155  156.2653 N   0  0  0  0  0  0  0  0  0  0  0  0
  151.0823  142.6265  156.4325 C   0  0  0  0  0  0  0  0  0  0  0  0
  151.7063  142.1410  157.7457 C   0  0  0  0  0  0  0  0  0  0  0  0
  151.6102  140.9437  158.0166 O   0  0  0  0  0  0  0  0  0  0  0  0
  152.3329  143.0233  158.5623 N   0  0  0  0  0  0  0  0  0  0  0  0
  152.4618  144.4681  158.3472 C   0  0  0  0  0  0  0  0  0  0  0  0
  151.7035  145.1942  159.4714 C   0  0  0  0  0  0  0  0  0  0  0  0
  152.2229  144.7942  160.7376 O   0  0  0  0  0  0  0  0  0  0  0  0
  152.1356  143.3887  160.9674 C   0  0  2  0  0  0  0  0  0  0  0  0
  152.6998  143.0951  162.3615 C   0  0  0  0  0  0  0  0  0  0  0  0
  152.9064  142.6464  159.8573 C   0  0  0  0  0  0  0  0  0  0  0  0
  146.9642  142.4665  153.7779 C   0  0  0  0  0  0  0  0  0  0  0  0
  144.2726  144.5464  153.3733 H   0  0  0  0  0  0  0  0  0  0  0  0
  145.3425  144.0437  152.0781 H   0  0  0  0  0  0  0  0  0  0  0  0
  145.8509  145.2936  153.1997 H   0  0  0  0  0  0  0  0  0  0  0  0
  144.7038  143.3601  155.9307 H   0  0  0  0  0  0  0  0  0  0  0  0
  147.9082  140.1917  156.0757 H   0  0  0  0  0  0  0  0  0  0  0  0
  148.6350  138.6424  154.3239 H   0  0  0  0  0  0  0  0  0  0  0  0
  148.1594  139.7785  153.0681 H   0  0  0  0  0  0  0  0  0  0  0  0
  146.9420  139.0729  154.1246 H   0  0  0  0  0  0  0  0  0  0  0  0
  149.8120  141.6399  154.2360 H   0  0  0  0  0  0  0  0  0  0  0  0
  150.4653  139.2148  154.6444 H   0  0  0  0  0  0  0  0  0  0  0  0
  150.5225  139.5478  156.3717 H   0  0  0  0  0  0  0  0  0  0  0  0
  151.6417  140.3469  155.2749 H   0  0  0  0  0  0  0  0  0  0  0  0
  149.0694  142.8721  156.0912 H   0  0  0  0  0  0  0  0  0  0  0  0
  151.7223  142.3367  155.6000 H   0  0  0  0  0  0  0  0  0  0  0  0
  151.0587  143.7174  156.4364 H   0  0  0  0  0  0  0  0  0  0  0  0
  153.5177  144.7404  158.3711 H   0  0  0  0  0  0  0  0  0  0  0  0
  152.0922  144.8077  157.3819 H   0  0  0  0  0  0  0  0  0  0  0  0
  151.8188  146.2732  159.3682 H   0  0  0  0  0  0  0  0  0  0  0  0
  150.6348  144.9800  159.4208 H   0  0  0  0  0  0  0  0  0  0  0  0
  151.0857  143.0906  160.9466 H   0  0  0  0  0  0  0  0  0  0  0  0
  152.6416  142.0311  162.5922 H   0  0  0  0  0  0  0  0  0  0  0  0
  152.1412  143.6318  163.1287 H   0  0  0  0  0  0  0  0  0  0  0  0
  153.7446  143.3976  162.4366 H   0  0  0  0  0  0  0  0  0  0  0  0
  152.8705  141.5713  160.0383 H   0  0  0  0  0  0  0  0  0  0  0  0
  153.9623  142.9203  159.8773 H   0  0  0  0  0  0  0  0  0  0  0  0
  147.5903  142.3632  152.9039 H   0  0  0  0  0  0  0  0  0  0  0  0
  1  2  1  0  0  0  0
  1 22  1  0  0  0  0
  1 23  1  0  0  0  0
  1 24  1  0  0  0  0
  2 21  2  0  0  0  0
  2  3  1  0  0  0  0
  3  4  2  0  0  0  0
  3 25  1  0  0  0  0
  4  5  1  0  0  0  0
  5  6  1  0  0  0  0
  5 21  1  0  0  0  0
  6  7  1  0  0  0  0
  6  8  1  0  0  0  0
  6 26  1  0  0  0  0
  7 27  1  0  0  0  0
  7 28  1  0  0  0  0
  7 29  1  0  0  0  0
  8  9  1  0  0  0  0
  8 10  1  0  0  0  0
  8 30  1  0  0  0  0
  9 31  1  0  0  0  0
  9 32  1  0  0  0  0
  9 33  1  0  0  0  0
 10 11  1  0  0  0  0
 10 34  1  0  0  0  0
 11 12  1  0  0  0  0
 11 35  1  0  0  0  0
 11 36  1  0  0  0  0
 12 13  2  0  0  0  0
 12 14  1  0  0  0  0
 14 20  1  0  0  0  0
 14 15  1  0  0  0  0
 15 16  1  0  0  0  0
 15 37  1  0  0  0  0
 15 38  1  0  0  0  0
 16 17  1  0  0  0  0
 16 39  1  0  0  0  0
 16 40  1  0  0  0  0
 17 18  1  0  0  0  0
 18 19  1  0  0  0  0
 18 20  1  0  0  0  0
 18 41  1  0  0  0  0
 19 42  1  0  0  0  0
 19 43  1  0  0  0  0
 19 44  1  0  0  0  0
 20 45  1  0  0  0  0
 20 46  1  0  0  0  0
 21 47  1  0  0  0  0
M  END
> <s_m_source_file>
AV-unprocessed.smi

> <i_m_source_file_index>
3056

> <i_lp_mmshare_version>
43012

> <i_f3d_flags>
0

> <s_epik_input>
W0NIM11jMVtjSF1ubihbY0hdMSlbQ0BIXShbQ0gzXSlbQ0BIXShbQ0gzXSlbTkhdW0NIMl1DKD1PKU4yW0NIMl1bQ0gyXU9bQ0BASF0oW0NIM10pW0NIMl0y

> <s_epik_cmdline>
J2VwaWtfcHl0aG9uJywgJy1waCcsICc3LjAnLCAnLXRuJywgJzgnLCAnLW1hJywgJzIwMCcsICctbWV0YWxfYmluZGluZycsICctaW1hZScsICc8aW5maWxlLm1hZT4nLCAnLW9tYWUnLCAnPG91dGZpbGUubWFlPic=

> <r_lp_tautomer_probability>
1

> <r_epik_Ionization_Penalty>
0.667689

> <r_epik_Ionization_Penalty_Charging>
0

> <r_epik_Ionization_Penalty_Neutral>
0.667689

> <r_epik_State_Penalty>
0.684601

> <r_epik_Charging_Adjusted_Penalty>
0.684601

> <i_epik_Tot_Q>
0

> <i_epik_Tot_abs_Q>
0

> <r_epik_Metal_State_Penalty>
0.681448

> <b_epik_Metal_Only>
0

> <s_lp_Force_Field>
OPLS_2005

> <r_lp_Energy>
30.4655

> <b_lp_Chiralities_Consistent>
1

> <s_lp_Variant>
AV-unprocessed.smi:3056-14

> <Gold.Version>
5.8.1

> <Gold.Id.Protein>
6NUR|6NUR_protein|mol2

> <Gold.PLP.Fitness>
52.8599

> <Gold.PLP.PLP>
-51.1068

> <Gold.PLP.part.hbond>
-1.0000

> <Gold.PLP.part.metal>
0.0000

> <Gold.PLP.part.buried>
-6.0229

> <Gold.PLP.part.nonpolar>
-44.0123

> <Gold.PLP.part.repulsive>
0.2549

> <Gold.PLP.ligand.clash>
0.0000

> <Gold.PLP.ligand.torsion>
0.6060

> <Gold.PLP.Chemscore.Hbond>
0.9120

> <Gold.PLP.Chemscore.CHOScore>
0.0000

> <Gold.PLP.Chemscore.Metal>
0.0000

> <Gold.Chemscore.Hbonds>
donor molecule, donor type, donor heavy atom, donor atom, acceptor molecule, acceptor atom, score
      L1  H    10    34       P1  8028  0.93

> <Gold.PLP.Chemscore.Internal.Correction>
0.2292

> <Gold.Rescore>
     Score         DG    S(hbond)    S(metal)    S(lipo)     H(rot)  DE(clash)    DE(int)     intcor
     17.32     -18.61       0.94        0.00     122.05       1.68       0.58       0.72       ----

> <Gold.Chemscore.Fitness>
17.3184

> <Gold.Chemscore.DG>
-18.6144

> <Gold.Chemscore.ZeroCoef>
-5.4800

> <Gold.Chemscore.Hbond>
0.9443

> <Gold.Chemscore.Metal>
0.0000

> <Gold.Chemscore.Lipo>
122.0480

> <Gold.Chemscore.Internal_Hbond>
0.0000

> <Gold.Chemscore.DEClash>
0.5804

> <Gold.Chemscore.DEInternal>
0.7155

> <Gold.Chemscore.Rot>
1.6793

> <Gold.Chemscore.Internal.Correction>
   9.000000E+99

> <Gold.Chemscore.Hbonds>
donor molecule, donor type, donor heavy atom, donor atom, acceptor molecule, acceptor atom, score
      L1  H    10    34       P1  8028  0.89

> <Gold.Chemscore.Hbond.Weighted>
-3.1538

> <Gold.Chemscore.Metal.Weighted>
-0.0000

> <Gold.Chemscore.Lipo.Weighted>
-14.2796

> <Gold.Chemscore.Internal_Hbond.Weighted>
0.0000

> <Gold.Chemscore.DEClash.Weighted>
0.5804

> <Gold.Chemscore.DEInternal.Weighted>
0.7155

> <Gold.Chemscore.Rot.Weighted>
4.2990

> <Gold.Chemscore.Internal.Correction.Weighted>
   9.000000E+99

> <Gold.Protein.RotatedTorsions>
[ 6907 6896 6895 6894 ] final -137.87 input  -60.11 | X-H torsion
[ 7974 7965 7964 7962 ] final   91.21 input  175.53 | X-H torsion
[ 8008 7997 7996 7995 ] final    0.20 input   59.86 | X-H torsion
[ 10167 10162 10161 10158 ] final  -20.67 input  -65.29 | X-H torsion
[ 10718 10713 10712 10709 ] final  -58.96 input   66.30 | X-H torsion
[ 10763 10752 10751 10750 ] final   50.55 input  -60.55 | X-H torsion
[ 11005 11000 10999 10996 ] final  -69.41 input  -57.11 | X-H torsion

> <Gold.Protein.ActiveResidues>
 VAL166  LYS551  ARG553  GLY616  TRP617  ASP618  TYR619  PRO620  LYS621  CYS622 
 ASP623  PHE694  ASN695  SER759  ASP760  ASP761  ALA762  ILE779  LEU786  VAL792 
 PHE793  MET794  SER795  GLU796  ALA797  LYS798  CYS799  TRP800  GLU811  SER814 

> <Gold.Protein.RotatedAtoms>
  151.0278  133.5817  159.2663 H   0  0  0  0  0  0  0  0  0  0  0  0  # atno 6907 bound_to 6896
  151.2910  135.0741  159.9214 H   0  0  0  0  0  0  0  0  0  0  0  0  # atno 6908 bound_to 6896
  152.5338  133.9976  159.7934 H   0  0  0  0  0  0  0  0  0  0  0  0  # atno 6909 bound_to 6896
  145.5087  139.2276  143.2736 H   0  0  0  0  0  0  0  0  0  0  0  0  # atno 7974 bound_to 7965
  154.6653  140.2600  155.7064 H   0  0  0  0  0  0  0  0  0  0  0  0  # atno 8008 bound_to 7997
  156.2636  140.2840  156.1063 H   0  0  0  0  0  0  0  0  0  0  0  0  # atno 8009 bound_to 7997
  155.1247  140.0377  157.2749 H   0  0  0  0  0  0  0  0  0  0  0  0  # atno 8010 bound_to 7997
  140.7277  143.4701  151.0259 H   0  0  0  0  0  0  0  0  0  0  0  0  # atno 10167 bound_to 10162
  156.1097  130.4176  150.0649 H   0  0  0  0  0  0  0  0  0  0  0  0  # atno 10718 bound_to 10713
  152.9784  135.5875  154.4271 H   0  0  0  0  0  0  0  0  0  0  0  0  # atno 10763 bound_to 10752
  154.3888  135.2767  155.2169 H   0  0  0  0  0  0  0  0  0  0  0  0  # atno 10764 bound_to 10752
  154.4050  135.6094  153.5974 H   0  0  0  0  0  0  0  0  0  0  0  0  # atno 10765 bound_to 10752
  141.1553  133.6764  156.6595 H   0  0  0  0  0  0  0  0  0  0  0  0  # atno 11005 bound_to 11000
  146.2180  140.5892  142.9030 LP  0  0  0  0  0  0  0  0  0  0  0  0  # atno 17320 bound_to 7965
  144.7739  140.5698  143.6651 LP  0  0  0  0  0  0  0  0  0  0  0  0  # atno 17321 bound_to 7965
  139.8392  143.7587  152.3180 LP  0  0  0  0  0  0  0  0  0  0  0  0  # atno 17342 bound_to 10162
  139.7729  144.7470  151.0198 LP  0  0  0  0  0  0  0  0  0  0  0  0  # atno 17343 bound_to 10162
  156.8615  130.9493  151.3617 LP  0  0  0  0  0  0  0  0  0  0  0  0  # atno 17370 bound_to 10713
  157.6277  130.8704  149.9218 LP  0  0  0  0  0  0  0  0  0  0  0  0  # atno 17371 bound_to 10713
  140.3258  134.7969  157.4288 LP  0  0  0  0  0  0  0  0  0  0  0  0  # atno 17394 bound_to 11000
  140.1058  134.5412  155.8311 LP  0  0  0  0  0  0  0  0  0  0  0  0  # atno 17395 bound_to 11000

$$$$
