AV-unprocessed.smi:183|AV-procd|sdf|1459|dock10
  -GOLD-   2262019263D 1   1.00000     0.00000
 Structure written by MMmdl.
 55 57  0  0  0  0  0  0  0  0  1 V2000
  145.6777  131.5220  149.5058 C   0  0  0  0  0  0  0  0  0  0  0  0
  145.8994  132.1344  150.8843 C   0  0  0  0  0  0  0  0  0  0  0  0
  145.0119  132.8027  151.4139 O   0  0  0  0  0  0  0  0  0  0  0  0
  147.0901  131.8968  151.4544 N   0  0  0  0  0  0  0  0  0  0  0  0
  147.5031  132.3931  152.7601 C   0  0  0  0  0  0  0  0  0  0  0  0
  148.7543  131.6508  153.2703 C   0  0  0  0  0  0  0  0  0  0  0  0
  148.6215  131.1541  154.6430 N   0  0  0  0  0  0  0  0  0  0  0  0
  149.2084  131.9931  155.5317 C   0  0  0  0  0  0  0  0  0  0  0  0
  149.6740  131.4465  156.6828 N   0  0  0  0  0  0  0  0  0  0  0  0
  150.2528  132.2200  157.6060 C   0  0  0  0  0  0  0  0  0  0  0  0
  150.4569  133.5384  157.5821 N   0  0  0  0  0  0  0  0  0  0  0  0
  149.9812  134.0932  156.4306 C   0  0  0  0  0  0  0  0  0  0  0  0
  149.3461  133.4011  155.3613 C   0  0  0  0  0  0  0  0  0  0  0  0
  148.9844  134.3013  154.3654 N   0  0  0  0  0  0  0  0  0  0  0  0
  149.3856  135.4570  154.8184 C   0  0  0  0  0  0  0  0  0  0  0  0
  150.0028  135.4229  156.0482 N   0  0  0  0  0  0  0  0  0  0  0  0
  150.5465  136.5548  156.7821 C   0  0  0  0  0  0  0  0  0  0  0  0
  151.8081  137.1640  156.1256 C   0  0  1  0  0  0  0  0  0  0  0  0
  152.8945  136.2722  156.3181 O   0  0  0  0  0  0  0  0  0  0  0  0
  151.6642  137.4280  154.6336 C   0  0  0  0  0  0  0  0  0  0  0  0
  152.6930  138.5247  154.3917 C   0  0  0  0  0  0  0  0  0  0  0  0
  152.6325  139.3340  155.5581 O   0  0  0  0  0  0  0  0  0  0  0  0
  152.1487  138.5723  156.6640 C   0  0  2  0  0  0  0  0  0  0  0  0
  153.1321  138.6392  157.8435 C   0  0  0  0  0  0  0  0  0  0  0  0
  148.6904  129.7079  154.9158 C   0  0  0  0  0  0  0  0  0  0  0  0
  147.9658  129.3369  156.2237 C   0  0  0  0  0  0  0  0  0  0  0  0
  150.1433  129.1896  154.9901 C   0  0  0  0  0  0  0  0  0  0  0  0
  145.5959  130.4375  149.5825 H   0  0  0  0  0  0  0  0  0  0  0  0
  146.5086  131.7611  148.8415 H   0  0  0  0  0  0  0  0  0  0  0  0
  144.7612  131.9035  149.0547 H   0  0  0  0  0  0  0  0  0  0  0  0
  147.7584  131.3365  150.9457 H   0  0  0  0  0  0  0  0  0  0  0  0
  147.7058  133.4591  152.6610 H   0  0  0  0  0  0  0  0  0  0  0  0
  146.6766  132.2983  153.4652 H   0  0  0  0  0  0  0  0  0  0  0  0
  148.9786  130.8168  152.6032 H   0  0  0  0  0  0  0  0  0  0  0  0
  149.6251  132.3030  153.2098 H   0  0  0  0  0  0  0  0  0  0  0  0
  150.6003  131.7094  158.4918 H   0  0  0  0  0  0  0  0  0  0  0  0
  149.2445  136.3721  154.2622 H   0  0  0  0  0  0  0  0  0  0  0  0
  149.7617  137.3079  156.8643 H   0  0  0  0  0  0  0  0  0  0  0  0
  150.7683  136.2345  157.8010 H   0  0  0  0  0  0  0  0  0  0  0  0
  152.6767  135.6829  157.0238 H   0  0  0  0  0  0  0  0  0  0  0  0
  151.8242  136.5457  154.0122 H   0  0  0  0  0  0  0  0  0  0  0  0
  150.6689  137.8167  154.4142 H   0  0  0  0  0  0  0  0  0  0  0  0
  153.6942  138.1008  154.3044 H   0  0  0  0  0  0  0  0  0  0  0  0
  152.4886  139.1035  153.4908 H   0  0  0  0  0  0  0  0  0  0  0  0
  151.2230  139.0627  156.9684 H   0  0  0  0  0  0  0  0  0  0  0  0
  152.7752  138.0456  158.6852 H   0  0  0  0  0  0  0  0  0  0  0  0
  153.2502  139.6665  158.1886 H   0  0  0  0  0  0  0  0  0  0  0  0
  154.1205  138.2728  157.5655 H   0  0  0  0  0  0  0  0  0  0  0  0
  148.1867  129.1821  154.1048 H   0  0  0  0  0  0  0  0  0  0  0  0
  148.0693  128.2735  156.4405 H   0  0  0  0  0  0  0  0  0  0  0  0
  146.8966  129.5408  156.1685 H   0  0  0  0  0  0  0  0  0  0  0  0
  148.3712  129.8883  157.0727 H   0  0  0  0  0  0  0  0  0  0  0  0
  150.1664  128.1270  155.2330 H   0  0  0  0  0  0  0  0  0  0  0  0
  150.7102  129.7153  155.7592 H   0  0  0  0  0  0  0  0  0  0  0  0
  150.6771  129.3042  154.0472 H   0  0  0  0  0  0  0  0  0  0  0  0
  1  2  1  0  0  0  0
  1 28  1  0  0  0  0
  1 29  1  0  0  0  0
  1 30  1  0  0  0  0
  2  3  2  0  0  0  0
  2  4  1  0  0  0  0
  4  5  1  0  0  0  0
  4 31  1  0  0  0  0
  5  6  1  0  0  0  0
  5 32  1  0  0  0  0
  5 33  1  0  0  0  0
  6  7  1  0  0  0  0
  6 34  1  0  0  0  0
  6 35  1  0  0  0  0
  7  8  1  0  0  0  0
  7 25  1  0  0  0  0
  8 13  1  0  0  0  0
  8  9  2  0  0  0  0
  9 10  1  0  0  0  0
 10 11  2  0  0  0  0
 10 36  1  0  0  0  0
 11 12  1  0  0  0  0
 12 16  1  0  0  0  0
 12 13  2  0  0  0  0
 13 14  1  0  0  0  0
 14 15  2  0  0  0  0
 15 16  1  0  0  0  0
 15 37  1  0  0  0  0
 16 17  1  0  0  0  0
 17 18  1  0  0  0  0
 17 38  1  0  0  0  0
 17 39  1  0  0  0  0
 18 23  1  0  0  0  0
 18 19  1  0  0  0  0
 18 20  1  0  0  0  0
 19 40  1  0  0  0  0
 20 21  1  0  0  0  0
 20 41  1  0  0  0  0
 20 42  1  0  0  0  0
 21 22  1  0  0  0  0
 21 43  1  0  0  0  0
 21 44  1  0  0  0  0
 22 23  1  0  0  0  0
 23 24  1  0  0  0  0
 23 45  1  0  0  0  0
 24 46  1  0  0  0  0
 24 47  1  0  0  0  0
 24 48  1  0  0  0  0
 25 26  1  0  0  0  0
 25 27  1  0  0  0  0
 25 49  1  0  0  0  0
 26 50  1  0  0  0  0
 26 51  1  0  0  0  0
 26 52  1  0  0  0  0
 27 53  1  0  0  0  0
 27 54  1  0  0  0  0
 27 55  1  0  0  0  0
M  END
> <s_m_source_file>
AV-unprocessed.smi

> <i_m_source_file_index>
183

> <i_lp_mmshare_version>
43012

> <i_f3d_flags>
0

> <s_epik_input>
W0NIM11DKD1PKVtOSF1bQ0gyXVtDSDJdTihbQ0hdKFtDSDNdKVtDSDNdKWMobltjSF1uMSljKGMxMiluW2NIXW4yW0NIMl1bQ0BAXTMoW09IXSlbQ0gyXVtDSDJdT1tDQEhdM1tDSDNd

> <s_epik_cmdline>
J2VwaWtfcHl0aG9uJywgJy1waCcsICc3LjAnLCAnLXRuJywgJzgnLCAnLW1hJywgJzIwMCcsICctbWV0YWxfYmluZGluZycsICctaW1hZScsICc8aW5maWxlLm1hZT4nLCAnLW9tYWUnLCAnPG91dGZpbGUubWFlPic=

> <r_lp_tautomer_probability>
1

> <r_epik_Ionization_Penalty>
0.00156158

> <r_epik_Ionization_Penalty_Charging>
0

> <r_epik_Ionization_Penalty_Neutral>
0.00156158

> <r_epik_State_Penalty>
0.000865808

> <r_epik_Charging_Adjusted_Penalty>
0.000865808

> <i_epik_Tot_Q>
0

> <i_epik_Tot_abs_Q>
0

> <r_epik_Metal_State_Penalty>
-0

> <b_epik_Metal_Only>
0

> <s_lp_Force_Field>
OPLS_2005

> <r_lp_Energy>
29.9876

> <b_lp_Chiralities_Consistent>
1

> <s_lp_Variant>
AV-unprocessed.smi:183-3

> <Gold.Version>
5.8.1

> <Gold.Id.Protein>
6NUR|6NUR_protein|mol2

> <Gold.PLP.Fitness>
45.7943

> <Gold.PLP.PLP>
-35.5456

> <Gold.PLP.part.hbond>
-3.8705

> <Gold.PLP.part.metal>
0.0000

> <Gold.PLP.part.buried>
-4.6337

> <Gold.PLP.part.nonpolar>
-28.6057

> <Gold.PLP.part.repulsive>
0.8337

> <Gold.PLP.ligand.clash>
0.0000

> <Gold.PLP.ligand.torsion>
1.9482

> <Gold.PLP.Chemscore.Hbond>
3.9280

> <Gold.PLP.Chemscore.CHOScore>
0.4383

> <Gold.PLP.Chemscore.Metal>
0.0000

> <Gold.Chemscore.Hbonds>
donor molecule, donor type, donor heavy atom, donor atom, acceptor molecule, acceptor atom, score
      L1  H     4    31       P1 10747  0.86
      P1  H  6896  6909       L1    11  0.54
      P1  H  7997  8009       L1    22  1.00
      P1  H 10752 10765       L1    19  0.78
      L1  C    15    37       P1  7948  0.76

> <Gold.PLP.Chemscore.Internal.Correction>
1.0461

> <Gold.Rescore>
     Score         DG    S(hbond)    S(metal)    S(lipo)     H(rot)  DE(clash)    DE(int)     intcor
      9.11     -13.84       2.77        0.00      67.65       3.45       0.17       4.56       ----

> <Gold.Chemscore.Fitness>
9.1096

> <Gold.Chemscore.DG>
-13.8424

> <Gold.Chemscore.ZeroCoef>
-5.4800

> <Gold.Chemscore.Hbond>
2.7744

> <Gold.Chemscore.Metal>
0.0000

> <Gold.Chemscore.Lipo>
67.6531

> <Gold.Chemscore.Internal_Hbond>
0.0000

> <Gold.Chemscore.DEClash>
0.1730

> <Gold.Chemscore.DEInternal>
4.5598

> <Gold.Chemscore.Rot>
3.4451

> <Gold.Chemscore.Internal.Correction>
   9.000000E+99

> <Gold.Chemscore.Hbonds>
donor molecule, donor type, donor heavy atom, donor atom, acceptor molecule, acceptor atom, score
      L1  H     4    31       P1 10747  0.84
      P1  H  6896  6909       L1    11  0.04
      P1  H  7997  8009       L1    22  0.56
      P1  H 10752 10765       L1    19  0.41

> <Gold.Chemscore.Hbond.Weighted>
-9.2664

> <Gold.Chemscore.Metal.Weighted>
-0.0000

> <Gold.Chemscore.Lipo.Weighted>
-7.9154

> <Gold.Chemscore.Internal_Hbond.Weighted>
0.0000

> <Gold.Chemscore.DEClash.Weighted>
0.1730

> <Gold.Chemscore.DEInternal.Weighted>
4.5598

> <Gold.Chemscore.Rot.Weighted>
8.8194

> <Gold.Chemscore.Internal.Correction.Weighted>
   9.000000E+99

> <Gold.Protein.RotatedTorsions>
[ 6907 6896 6895 6894 ] final  -20.41 input  -60.11 | X-H torsion
[ 7974 7965 7964 7962 ] final  -63.05 input  175.53 | X-H torsion
[ 8008 7997 7996 7995 ] final -147.15 input   59.86 | X-H torsion
[ 10167 10162 10161 10158 ] final   -4.64 input  -65.29 | X-H torsion
[ 10718 10713 10712 10709 ] final  115.66 input   66.30 | X-H torsion
[ 10763 10752 10751 10750 ] final -135.66 input  -60.55 | X-H torsion
[ 11005 11000 10999 10996 ] final -162.11 input  -57.11 | X-H torsion

> <Gold.Protein.ActiveResidues>
 VAL166  LYS551  ARG553  GLY616  TRP617  ASP618  TYR619  PRO620  LYS621  CYS622 
 ASP623  PHE694  ASN695  SER759  ASP760  ASP761  ALA762  ILE779  LEU786  VAL792 
 PHE793  MET794  SER795  GLU796  ALA797  LYS798  CYS799  TRP800  GLU811  SER814 

> <Gold.Protein.RotatedAtoms>
  151.2486  135.0614  159.9052 H   0  0  0  0  0  0  0  0  0  0  0  0  # atno 6907 bound_to 6896
  152.5383  134.0356  159.8055 H   0  0  0  0  0  0  0  0  0  0  0  0  # atno 6908 bound_to 6896
  151.0561  133.5534  159.2669 H   0  0  0  0  0  0  0  0  0  0  0  0  # atno 6909 bound_to 6896
  145.7838  140.8747  143.0316 H   0  0  0  0  0  0  0  0  0  0  0  0  # atno 7974 bound_to 7965
  155.5708  140.0634  157.2807 H   0  0  0  0  0  0  0  0  0  0  0  0  # atno 8008 bound_to 7997
  154.4361  140.1869  156.0923 H   0  0  0  0  0  0  0  0  0  0  0  0  # atno 8009 bound_to 7997
  156.0377  140.3299  155.7213 H   0  0  0  0  0  0  0  0  0  0  0  0  # atno 8010 bound_to 7997
  140.6935  143.6400  150.8444 H   0  0  0  0  0  0  0  0  0  0  0  0  # atno 10167 bound_to 10162
  157.6209  131.1015  150.7361 H   0  0  0  0  0  0  0  0  0  0  0  0  # atno 10718 bound_to 10713
  154.8699  135.3696  154.4935 H   0  0  0  0  0  0  0  0  0  0  0  0  # atno 10763 bound_to 10752
  153.5580  135.7023  153.5565 H   0  0  0  0  0  0  0  0  0  0  0  0  # atno 10764 bound_to 10752
  153.3654  135.4035  155.1713 H   0  0  0  0  0  0  0  0  0  0  0  0  # atno 10765 bound_to 10752
  140.6129  134.4830  157.5217 H   0  0  0  0  0  0  0  0  0  0  0  0  # atno 11005 bound_to 11000
  144.6792  140.0026  143.7484 LP  0  0  0  0  0  0  0  0  0  0  0  0  # atno 17320 bound_to 7965
  146.0047  139.3120  143.0906 LP  0  0  0  0  0  0  0  0  0  0  0  0  # atno 17321 bound_to 7965
  140.0116  143.5637  152.2837 LP  0  0  0  0  0  0  0  0  0  0  0  0  # atno 17342 bound_to 10162
  139.6363  144.7650  151.2432 LP  0  0  0  0  0  0  0  0  0  0  0  0  # atno 17343 bound_to 10162
  156.7719  130.4831  149.5417 LP  0  0  0  0  0  0  0  0  0  0  0  0  # atno 17370 bound_to 10713
  156.1353  130.6207  151.0392 LP  0  0  0  0  0  0  0  0  0  0  0  0  # atno 17371 bound_to 10713
  139.9184  134.8198  156.1289 LP  0  0  0  0  0  0  0  0  0  0  0  0  # atno 17394 bound_to 11000
  141.0795  133.6760  156.2307 LP  0  0  0  0  0  0  0  0  0  0  0  0  # atno 17395 bound_to 11000

$$$$
