AV-unprocessed.smi:3068|AV-procd|sdf|11708|dock6
  -GOLD-   2272017113D 1   1.00000     0.00000
 Structure written by MMmdl.
 39 41  0  0  0  0  0  0  0  0  1 V2000
  146.7950  141.6659  158.8884 N   0  0  0  0  0  0  0  0  0  0  0  0
  147.0851  141.5643  157.7727 C   0  0  0  0  0  0  0  0  0  0  0  0
  147.4503  141.4368  156.3675 C   0  0  0  0  0  0  0  0  0  0  0  0
  146.7880  142.2303  155.4939 N   0  0  0  0  0  0  0  0  0  0  0  0
  147.1169  142.1230  154.1891 C   0  0  0  0  0  0  0  0  0  0  0  0
  148.1077  141.2237  153.7501 C   0  0  0  0  0  0  0  0  0  0  0  0
  148.7720  140.4278  154.6140 N   0  0  0  0  0  0  0  0  0  0  0  0
  148.4533  140.5264  155.9292 C   0  0  0  0  0  0  0  0  0  0  0  0
  149.1352  139.7009  156.8426 N   0  0  0  0  0  0  0  0  0  0  0  0
  149.8176  140.2469  158.0100 C   0  0  0  0  0  0  0  0  0  0  0  0
  151.2865  140.6193  157.7141 C   0  0  2  0  0  0  0  0  0  0  0  0
  152.0677  141.0174  158.9806 C   0  0  0  0  0  0  0  0  0  0  0  0
  151.6751  142.3214  159.5010 N   0  0  0  0  0  0  0  0  0  0  0  0
  152.4530  142.6689  160.6896 C   0  0  0  0  0  0  0  0  0  0  0  0
  152.0427  144.0247  161.2846 C   0  0  0  0  0  0  0  0  0  0  0  0
  152.1718  145.1293  160.2267 C   0  0  0  0  0  0  0  0  0  0  0  0
  151.3946  144.7378  158.9607 C   0  0  0  0  0  0  0  0  0  0  0  0
  151.8184  143.3414  158.4585 C   0  0  2  0  0  0  0  0  0  0  0  0
  151.0172  142.9584  157.1986 C   0  0  0  0  0  0  0  0  0  0  0  0
  151.3928  141.6613  156.7418 O   0  0  0  0  0  0  0  0  0  0  0  0
  146.5878  142.7563  153.4926 H   0  0  0  0  0  0  0  0  0  0  0  0
  148.3671  141.1425  152.7049 H   0  0  0  0  0  0  0  0  0  0  0  0
  148.9834  138.7029  156.8073 H   0  0  0  0  0  0  0  0  0  0  0  0
  149.2610  141.1167  158.3569 H   0  0  0  0  0  0  0  0  0  0  0  0
  149.7713  139.5277  158.8281 H   0  0  0  0  0  0  0  0  0  0  0  0
  151.7801  139.7443  157.2906 H   0  0  0  0  0  0  0  0  0  0  0  0
  151.9333  140.2542  159.7481 H   0  0  0  0  0  0  0  0  0  0  0  0
  153.1330  141.0289  158.7444 H   0  0  0  0  0  0  0  0  0  0  0  0
  152.3269  141.8959  161.4486 H   0  0  0  0  0  0  0  0  0  0  0  0
  153.5159  142.6883  160.4437 H   0  0  0  0  0  0  0  0  0  0  0  0
  151.0130  143.9720  161.6404 H   0  0  0  0  0  0  0  0  0  0  0  0
  152.6616  144.2587  162.1511 H   0  0  0  0  0  0  0  0  0  0  0  0
  151.8042  146.0773  160.6205 H   0  0  0  0  0  0  0  0  0  0  0  0
  153.2235  145.2788  159.9789 H   0  0  0  0  0  0  0  0  0  0  0  0
  150.3251  144.7434  159.1765 H   0  0  0  0  0  0  0  0  0  0  0  0
  151.5576  145.4844  158.1828 H   0  0  0  0  0  0  0  0  0  0  0  0
  152.8705  143.3971  158.1729 H   0  0  0  0  0  0  0  0  0  0  0  0
  149.9447  142.9929  157.3922 H   0  0  0  0  0  0  0  0  0  0  0  0
  151.2096  143.6727  156.3978 H   0  0  0  0  0  0  0  0  0  0  0  0
  1  2  3  0  0  0  0
  2  3  1  0  0  0  0
  3  8  1  0  0  0  0
  3  4  2  0  0  0  0
  4  5  1  0  0  0  0
  5  6  2  0  0  0  0
  5 21  1  0  0  0  0
  6  7  1  0  0  0  0
  6 22  1  0  0  0  0
  7  8  2  0  0  0  0
  8  9  1  0  0  0  0
  9 10  1  0  0  0  0
  9 23  1  0  0  0  0
 10 11  1  0  0  0  0
 10 24  1  0  0  0  0
 10 25  1  0  0  0  0
 11 20  1  0  0  0  0
 11 12  1  0  0  0  0
 11 26  1  0  0  0  0
 12 13  1  0  0  0  0
 12 27  1  0  0  0  0
 12 28  1  0  0  0  0
 13 18  1  0  0  0  0
 13 14  1  0  0  0  0
 14 15  1  0  0  0  0
 14 29  1  0  0  0  0
 14 30  1  0  0  0  0
 15 16  1  0  0  0  0
 15 31  1  0  0  0  0
 15 32  1  0  0  0  0
 16 17  1  0  0  0  0
 16 33  1  0  0  0  0
 16 34  1  0  0  0  0
 17 18  1  0  0  0  0
 17 35  1  0  0  0  0
 17 36  1  0  0  0  0
 18 19  1  0  0  0  0
 18 37  1  0  0  0  0
 19 20  1  0  0  0  0
 19 38  1  0  0  0  0
 19 39  1  0  0  0  0
M  END
> <s_m_source_file>
AV-unprocessed.smi

> <i_m_source_file_index>
3068

> <i_lp_mmshare_version>
43012

> <i_f3d_flags>
0

> <s_epik_input>
TiNDYzFuW2NIXVtjSF1uYzFbTkhdW0NIMl1bQ0BIXShbQ0gyXTIpT1tDSDJdW0NAQEhdKE4yMylbQ0gyXVtDSDJdW0NIMl1bQ0gyXTM=

> <s_epik_cmdline>
J2VwaWtfcHl0aG9uJywgJy1waCcsICc3LjAnLCAnLXRuJywgJzgnLCAnLW1hJywgJzIwMCcsICctbWV0YWxfYmluZGluZycsICctaW1hZScsICc8aW5maWxlLm1hZT4nLCAnLW9tYWUnLCAnPG91dGZpbGUubWFlPic=

> <r_epik_Ionization_Penalty>
1.22359

> <r_epik_Ionization_Penalty_Charging>
0

> <r_epik_Ionization_Penalty_Neutral>
1.22359

> <r_epik_State_Penalty>
1.29103

> <r_epik_Charging_Adjusted_Penalty>
1.29103

> <i_epik_Tot_Q>
0

> <i_epik_Tot_abs_Q>
0

> <r_epik_Metal_State_Penalty>
1.29103

> <b_epik_Metal_Only>
0

> <s_lp_Force_Field>
OPLS_2005

> <r_lp_Energy>
49.2937

> <b_lp_Chiralities_Consistent>
1

> <s_lp_Variant>
AV-unprocessed.smi:3068-11

> <Gold.Version>
5.8.1

> <Gold.Id.Protein>
6NUR|6NUR_protein|mol2

> <Gold.PLP.Fitness>
40.1491

> <Gold.PLP.PLP>
-36.4185

> <Gold.PLP.part.hbond>
-1.0000

> <Gold.PLP.part.metal>
0.0000

> <Gold.PLP.part.buried>
-5.0159

> <Gold.PLP.part.nonpolar>
-30.7164

> <Gold.PLP.part.repulsive>
0.3705

> <Gold.PLP.ligand.clash>
0.0000

> <Gold.PLP.ligand.torsion>
0.6931

> <Gold.PLP.Chemscore.Hbond>
0.7040

> <Gold.PLP.Chemscore.CHOScore>
1.0000

> <Gold.PLP.Chemscore.Metal>
0.0000

> <Gold.Chemscore.Hbonds>
donor molecule, donor type, donor heavy atom, donor atom, acceptor molecule, acceptor atom, score
      P1  H  6934  6946       L1     1  0.61
      L1  C     6    22       P1  7957  1.00

> <Gold.PLP.Chemscore.Internal.Correction>
0.0048

> <Gold.Rescore>
     Score         DG    S(hbond)    S(metal)    S(lipo)     H(rot)  DE(clash)    DE(int)     intcor
     14.76     -16.46       0.81        0.00      99.13       1.30       0.93       0.77       ----

> <Gold.Chemscore.Fitness>
14.7568

> <Gold.Chemscore.DG>
-16.4637

> <Gold.Chemscore.ZeroCoef>
-5.4800

> <Gold.Chemscore.Hbond>
0.8137

> <Gold.Chemscore.Metal>
0.0000

> <Gold.Chemscore.Lipo>
99.1349

> <Gold.Chemscore.Internal_Hbond>
0.0000

> <Gold.Chemscore.DEClash>
0.9319

> <Gold.Chemscore.DEInternal>
0.7750

> <Gold.Chemscore.Rot>
1.3019

> <Gold.Chemscore.Internal.Correction>
   9.000000E+99

> <Gold.Chemscore.Hbonds>
donor molecule, donor type, donor heavy atom, donor atom, acceptor molecule, acceptor atom, score
      P1  H  6934  6946       L1     1  0.60

> <Gold.Chemscore.Hbond.Weighted>
-2.7176

> <Gold.Chemscore.Metal.Weighted>
-0.0000

> <Gold.Chemscore.Lipo.Weighted>
-11.5988

> <Gold.Chemscore.Internal_Hbond.Weighted>
0.0000

> <Gold.Chemscore.DEClash.Weighted>
0.9319

> <Gold.Chemscore.DEInternal.Weighted>
0.7750

> <Gold.Chemscore.Rot.Weighted>
3.3327

> <Gold.Chemscore.Internal.Correction.Weighted>
   9.000000E+99

> <Gold.Protein.RotatedTorsions>
[ 6907 6896 6895 6894 ] final  152.96 input  -60.11 | X-H torsion
[ 7974 7965 7964 7962 ] final   -9.50 input  175.53 | X-H torsion
[ 8008 7997 7996 7995 ] final  167.32 input   59.86 | X-H torsion
[ 10167 10162 10161 10158 ] final   78.00 input  -65.29 | X-H torsion
[ 10718 10713 10712 10709 ] final   57.76 input   66.30 | X-H torsion
[ 10763 10752 10751 10750 ] final  114.97 input  -60.55 | X-H torsion
[ 11005 11000 10999 10996 ] final  -34.59 input  -57.11 | X-H torsion

> <Gold.Protein.ActiveResidues>
 VAL166  LYS551  ARG553  GLY616  TRP617  ASP618  TYR619  PRO620  LYS621  CYS622 
 ASP623  PHE694  ASN695  SER759  ASP760  ASP761  ALA762  ILE779  LEU786  VAL792 
 PHE793  MET794  SER795  GLU796  ALA797  LYS798  CYS799  TRP800  GLU811  SER814 

> <Gold.Protein.RotatedAtoms>
  152.0794  133.4145  159.4494 H   0  0  0  0  0  0  0  0  0  0  0  0  # atno 6907 bound_to 6896
  150.6862  134.3000  159.4711 H   0  0  0  0  0  0  0  0  0  0  0  0  # atno 6908 bound_to 6896
  152.0840  134.9451  160.0623 H   0  0  0  0  0  0  0  0  0  0  0  0  # atno 6909 bound_to 6896
  146.2250  140.2625  142.8352 H   0  0  0  0  0  0  0  0  0  0  0  0  # atno 7974 bound_to 7965
  156.1644  140.1620  156.8557 H   0  0  0  0  0  0  0  0  0  0  0  0  # atno 8008 bound_to 7997
  154.5193  140.0782  156.8176 H   0  0  0  0  0  0  0  0  0  0  0  0  # atno 8009 bound_to 7997
  155.3641  140.3397  155.4244 H   0  0  0  0  0  0  0  0  0  0  0  0  # atno 8010 bound_to 7997
  139.9756  144.5863  150.7946 H   0  0  0  0  0  0  0  0  0  0  0  0  # atno 10167 bound_to 10162
  157.5541  130.8787  149.9008 H   0  0  0  0  0  0  0  0  0  0  0  0  # atno 10718 bound_to 10713
  153.5153  135.3609  155.2606 H   0  0  0  0  0  0  0  0  0  0  0  0  # atno 10763 bound_to 10752
  154.8739  135.4032  154.3322 H   0  0  0  0  0  0  0  0  0  0  0  0  # atno 10764 bound_to 10752
  153.3983  135.7074  153.6512 H   0  0  0  0  0  0  0  0  0  0  0  0  # atno 10765 bound_to 10752
  140.9728  133.7100  156.1552 H   0  0  0  0  0  0  0  0  0  0  0  0  # atno 11005 bound_to 11000
  144.9328  140.7994  143.5678 LP  0  0  0  0  0  0  0  0  0  0  0  0  # atno 17320 bound_to 7965
  145.2570  139.2008  143.4912 LP  0  0  0  0  0  0  0  0  0  0  0  0  # atno 17321 bound_to 7965
  140.7507  143.2960  151.3205 LP  0  0  0  0  0  0  0  0  0  0  0  0  # atno 17342 bound_to 10162
  139.6448  144.0471  152.2582 LP  0  0  0  0  0  0  0  0  0  0  0  0  # atno 17343 bound_to 10162
  156.0602  130.3701  150.0999 LP  0  0  0  0  0  0  0  0  0  0  0  0  # atno 17370 bound_to 10713
  156.9169  130.9670  151.3554 LP  0  0  0  0  0  0  0  0  0  0  0  0  # atno 17371 bound_to 10713
  140.7303  134.4261  157.5566 LP  0  0  0  0  0  0  0  0  0  0  0  0  # atno 17394 bound_to 11000
  139.8919  134.8769  156.2298 LP  0  0  0  0  0  0  0  0  0  0  0  0  # atno 17395 bound_to 11000

$$$$
