AV-unprocessed.smi:1564|AV-procd|sdf|6296|dock5
  -GOLD-   22720 6493D 1   1.00000     0.00000
 Structure written by MMmdl.
 43 44  0  0  0  0  0  0  0  0  2 V2000
  152.4317  130.7145  158.0379 C   0  0  0  0  0  0  0  0  0  0  0  0
  152.5042  132.1123  157.7793 O   0  0  0  0  0  0  0  0  0  0  0  0
  151.6357  132.6522  156.8531 C   0  0  0  0  0  0  0  0  0  0  0  0
  150.9604  131.7828  155.9741 C   0  0  0  0  0  0  0  0  0  0  0  0
  150.0774  132.3305  155.0247 C   0  0  0  0  0  0  0  0  0  0  0  0
  149.8978  133.7278  154.9748 C   0  0  0  0  0  0  0  0  0  0  0  0
  148.9893  134.2452  154.0111 N   0  0  0  0  0  0  0  0  0  0  0  0
  147.8654  133.6883  153.5273 C   0  0  0  0  0  0  0  0  0  0  0  0
  147.4079  132.5950  153.8582 O   0  0  0  0  0  0  0  0  0  0  0  0
  147.2751  134.4902  152.6302 N   0  0  0  0  0  0  0  0  0  0  0  0
  146.0379  134.1769  151.9231 C   0  0  1  0  0  0  0  0  0  0  0  0
  145.3017  135.3783  151.3435 C   0  0  0  0  0  0  0  0  0  0  0  0
  144.3901  134.7050  150.3182 C   0  0  0  0  0  0  0  0  0  0  0  0
  145.1719  133.5798  149.7461 N   0  3  2  0  0  0  0  0  0  0  0  0
  144.3798  132.3931  149.3128 C   0  0  0  0  0  0  0  0  0  0  0  0
  143.4771  132.7378  148.1120 C   0  0  0  0  0  0  0  0  0  0  0  0
  143.5043  131.8394  150.4553 C   0  0  0  0  0  0  0  0  0  0  0  0
  146.2837  133.2999  150.6921 C   0  0  0  0  0  0  0  0  0  0  0  0
  150.6120  134.5156  155.9109 C   0  0  0  0  0  0  0  0  0  0  0  0
  151.4604  133.9964  156.8236 N   0  0  0  0  0  0  0  0  0  0  0  0
  153.1772  130.4473  158.7866 H   0  0  0  0  0  0  0  0  0  0  0  0
  152.6404  130.1302  157.1407 H   0  0  0  0  0  0  0  0  0  0  0  0
  151.4533  130.4323  158.4297 H   0  0  0  0  0  0  0  0  0  0  0  0
  151.1185  130.7157  156.0265 H   0  0  0  0  0  0  0  0  0  0  0  0
  149.5486  131.6819  154.3412 H   0  0  0  0  0  0  0  0  0  0  0  0
  149.1969  135.1775  153.6842 H   0  0  0  0  0  0  0  0  0  0  0  0
  147.7155  135.3738  152.4186 H   0  0  0  0  0  0  0  0  0  0  0  0
  145.3662  133.6438  152.5996 H   0  0  0  0  0  0  0  0  0  0  0  0
  144.7480  135.9445  152.0932 H   0  0  0  0  0  0  0  0  0  0  0  0
  145.9982  136.0554  150.8463 H   0  0  0  0  0  0  0  0  0  0  0  0
  143.5104  134.3191  150.8366 H   0  0  0  0  0  0  0  0  0  0  0  0
  144.0513  135.3950  149.5450 H   0  0  0  0  0  0  0  0  0  0  0  0
  145.0783  131.6112  149.0102 H   0  0  0  0  0  0  0  0  0  0  0  0
  142.8914  131.8710  147.8045 H   0  0  0  0  0  0  0  0  0  0  0  0
  144.0443  133.0581  147.2390 H   0  0  0  0  0  0  0  0  0  0  0  0
  142.7762  133.5347  148.3622 H   0  0  0  0  0  0  0  0  0  0  0  0
  142.8864  131.0109  150.1070 H   0  0  0  0  0  0  0  0  0  0  0  0
  142.8348  132.6053  150.8484 H   0  0  0  0  0  0  0  0  0  0  0  0
  144.0988  131.4565  151.2846 H   0  0  0  0  0  0  0  0  0  0  0  0
  147.2195  133.5667  150.1988 H   0  0  0  0  0  0  0  0  0  0  0  0
  146.3497  132.2515  150.9841 H   0  0  0  0  0  0  0  0  0  0  0  0
  150.5051  135.5874  155.9620 H   0  0  0  0  0  0  0  0  0  0  0  0
  145.6095  133.9461  148.9125 H   0  0  0  0  0  0  0  0  0  0  0  0
  1  2  1  0  0  0  0
  1 21  1  0  0  0  0
  1 22  1  0  0  0  0
  1 23  1  0  0  0  0
  2  3  1  0  0  0  0
  3 20  1  0  0  0  0
  3  4  2  0  0  0  0
  4  5  1  0  0  0  0
  4 24  1  0  0  0  0
  5  6  2  0  0  0  0
  5 25  1  0  0  0  0
  6  7  1  0  0  0  0
  6 19  1  0  0  0  0
  7  8  1  0  0  0  0
  7 26  1  0  0  0  0
  8  9  2  0  0  0  0
  8 10  1  0  0  0  0
 10 11  1  0  0  0  0
 10 27  1  0  0  0  0
 11 18  1  0  0  0  0
 11 12  1  0  0  0  0
 11 28  1  0  0  0  0
 12 13  1  0  0  0  0
 12 29  1  0  0  0  0
 12 30  1  0  0  0  0
 13 14  1  0  0  0  0
 13 31  1  0  0  0  0
 13 32  1  0  0  0  0
 14 15  1  0  0  0  0
 14 18  1  0  0  0  0
 14 43  1  0  0  0  0
 15 16  1  0  0  0  0
 15 17  1  0  0  0  0
 15 33  1  0  0  0  0
 16 34  1  0  0  0  0
 16 35  1  0  0  0  0
 16 36  1  0  0  0  0
 17 37  1  0  0  0  0
 17 38  1  0  0  0  0
 17 39  1  0  0  0  0
 18 40  1  0  0  0  0
 18 41  1  0  0  0  0
 19 20  2  0  0  0  0
 19 42  1  0  0  0  0
M  CHG  1  14   1
M  END
> <s_m_source_file>
AV-unprocessed.smi

> <i_m_source_file_index>
1564

> <i_lp_mmshare_version>
43012

> <i_f3d_flags>
0

> <s_epik_input>
W0NIM11PYzFbY0hdW2NIXWMoW2NIXW4xKVtOSF1DKD1PKVtOSF1bQ0BASF0yW0NIMl1bQ0gyXU4oW0NIMl0yKVtDSF0oW0NIM10pW0NIM10=

> <s_epik_cmdline>
J2VwaWtfcHl0aG9uJywgJy1waCcsICc3LjAnLCAnLXRuJywgJzgnLCAnLW1hJywgJzIwMCcsICctbWV0YWxfYmluZGluZycsICctaW1hZScsICc8aW5maWxlLm1hZT4nLCAnLW9tYWUnLCAnPG91dGZpbGUubWFlPic=

> <r_lp_tautomer_probability>
1

> <r_epik_Ionization_Penalty>
0.000679474

> <r_epik_Ionization_Penalty_Charging>
0.000606352

> <r_epik_Ionization_Penalty_Neutral>
7.31222e-05

> <r_epik_State_Penalty>
0.000382168

> <r_epik_Charging_Adjusted_Penalty>
0.00098852

> <i_epik_Tot_Q>
1

> <i_epik_Tot_abs_Q>
1

> <r_epik_Metal_State_Penalty>
-0

> <b_epik_Metal_Only>
0

> <s_lp_Force_Field>
OPLS_2005

> <r_lp_Energy>
33.6805

> <b_lp_Chiralities_Consistent>
1

> <s_lp_Variant>
AV-unprocessed.smi:1564-4

> <Gold.Version>
5.8.1

> <Gold.Id.Protein>
6NUR|6NUR_protein|mol2

> <Gold.PLP.Fitness>
46.4511

> <Gold.PLP.PLP>
-36.9825

> <Gold.PLP.part.hbond>
-4.5252

> <Gold.PLP.part.metal>
0.0000

> <Gold.PLP.part.buried>
-0.9968

> <Gold.PLP.part.nonpolar>
-31.5388

> <Gold.PLP.part.repulsive>
0.2032

> <Gold.PLP.ligand.clash>
0.0000

> <Gold.PLP.ligand.torsion>
0.8169

> <Gold.PLP.Chemscore.Hbond>
3.6891

> <Gold.PLP.Chemscore.CHOScore>
0.0000

> <Gold.PLP.Chemscore.Metal>
0.0000

> <Gold.Chemscore.Hbonds>
donor molecule, donor type, donor heavy atom, donor atom, acceptor molecule, acceptor atom, score
      L1  H     7    26       P1  7948  0.61
      L1  H    10    27       P1  7948  0.99
      L1  H    14    43       P1  7921  1.00
      P1  H  6896  6908       L1     2  0.79

> <Gold.PLP.Chemscore.Internal.Correction>
0.0350

> <Gold.Rescore>
     Score         DG    S(hbond)    S(metal)    S(lipo)     H(rot)  DE(clash)    DE(int)     intcor
     17.94     -20.01       2.42        0.00      86.79       1.44       0.14       1.92       ----

> <Gold.Chemscore.Fitness>
17.9437

> <Gold.Chemscore.DG>
-20.0092

> <Gold.Chemscore.ZeroCoef>
-5.4800

> <Gold.Chemscore.Hbond>
2.4169

> <Gold.Chemscore.Metal>
0.0000

> <Gold.Chemscore.Lipo>
86.7917

> <Gold.Chemscore.Internal_Hbond>
0.0000

> <Gold.Chemscore.DEClash>
0.1414

> <Gold.Chemscore.DEInternal>
1.9242

> <Gold.Chemscore.Rot>
1.4445

> <Gold.Chemscore.Internal.Correction>
   9.000000E+99

> <Gold.Chemscore.Hbonds>
donor molecule, donor type, donor heavy atom, donor atom, acceptor molecule, acceptor atom, score
      L1  H     7    26       P1  7948  0.20
      L1  H    10    27       P1  7948  0.92
      L1  H    14    43       P1  7921  0.55
      P1  H  6896  6908       L1     2  0.14

> <Gold.Chemscore.Hbond.Weighted>
-8.0725

> <Gold.Chemscore.Metal.Weighted>
-0.0000

> <Gold.Chemscore.Lipo.Weighted>
-10.1546

> <Gold.Chemscore.Internal_Hbond.Weighted>
0.0000

> <Gold.Chemscore.DEClash.Weighted>
0.1414

> <Gold.Chemscore.DEInternal.Weighted>
1.9242

> <Gold.Chemscore.Rot.Weighted>
3.6979

> <Gold.Chemscore.Internal.Correction.Weighted>
   9.000000E+99

> <Gold.Protein.RotatedTorsions>
[ 6907 6896 6895 6894 ] final   35.32 input  -60.11 | X-H torsion
[ 7974 7965 7964 7962 ] final -123.08 input  175.53 | X-H torsion
[ 8008 7997 7996 7995 ] final   52.73 input   59.86 | X-H torsion
[ 10167 10162 10161 10158 ] final   25.56 input  -65.29 | X-H torsion
[ 10718 10713 10712 10709 ] final  -98.93 input   66.30 | X-H torsion
[ 10763 10752 10751 10750 ] final   80.42 input  -60.55 | X-H torsion
[ 11005 11000 10999 10996 ] final  -96.50 input  -57.11 | X-H torsion

> <Gold.Protein.ActiveResidues>
 VAL166  LYS551  ARG553  GLY616  TRP617  ASP618  TYR619  PRO620  LYS621  CYS622 
 ASP623  PHE694  ASN695  SER759  ASP760  ASP761  ALA762  ILE779  LEU786  VAL792 
 PHE793  MET794  SER795  GLU796  ALA797  LYS798  CYS799  TRP800  GLU811  SER814 

> <Gold.Protein.RotatedAtoms>
  152.1145  134.9251  160.0565 H   0  0  0  0  0  0  0  0  0  0  0  0  # atno 6907 bound_to 6896
  152.0415  133.3975  159.4347 H   0  0  0  0  0  0  0  0  0  0  0  0  # atno 6908 bound_to 6896
  150.6845  134.3330  159.4879 H   0  0  0  0  0  0  0  0  0  0  0  0  # atno 6909 bound_to 6896
  145.0225  140.8000  143.4372 H   0  0  0  0  0  0  0  0  0  0  0  0  # atno 7974 bound_to 7965
  155.4566  140.3460  155.4307 H   0  0  0  0  0  0  0  0  0  0  0  0  # atno 8008 bound_to 7997
  156.1187  140.1481  156.9265 H   0  0  0  0  0  0  0  0  0  0  0  0  # atno 8009 bound_to 7997
  154.4807  140.0870  156.7351 H   0  0  0  0  0  0  0  0  0  0  0  0  # atno 8010 bound_to 7997
  140.5096  144.0183  150.6367 H   0  0  0  0  0  0  0  0  0  0  0  0  # atno 10167 bound_to 10162
  156.0120  130.5260  150.6595 H   0  0  0  0  0  0  0  0  0  0  0  0  # atno 10718 bound_to 10713
  153.1032  135.4803  154.8904 H   0  0  0  0  0  0  0  0  0  0  0  0  # atno 10763 bound_to 10752
  154.7402  135.3080  154.8744 H   0  0  0  0  0  0  0  0  0  0  0  0  # atno 10764 bound_to 10752
  153.9355  135.6840  153.4798 H   0  0  0  0  0  0  0  0  0  0  0  0  # atno 10765 bound_to 10752
  141.1409  133.8102  157.0579 H   0  0  0  0  0  0  0  0  0  0  0  0  # atno 11005 bound_to 11000
  145.1877  139.2317  143.5259 LP  0  0  0  0  0  0  0  0  0  0  0  0  # atno 17320 bound_to 7965
  146.3487  140.1666  142.8590 LP  0  0  0  0  0  0  0  0  0  0  0  0  # atno 17321 bound_to 7965
  140.3501  143.2968  152.0496 LP  0  0  0  0  0  0  0  0  0  0  0  0  # atno 17342 bound_to 10162
  139.4892  144.6380  151.6936 LP  0  0  0  0  0  0  0  0  0  0  0  0  # atno 17343 bound_to 10162
  157.4340  131.0853  151.1010 LP  0  0  0  0  0  0  0  0  0  0  0  0  # atno 17370 bound_to 10713
  157.1574  130.6210  149.5600 LP  0  0  0  0  0  0  0  0  0  0  0  0  # atno 17371 bound_to 10713
  140.0590  134.9765  157.1271 LP  0  0  0  0  0  0  0  0  0  0  0  0  # atno 17394 bound_to 11000
  140.3877  134.2218  155.7167 LP  0  0  0  0  0  0  0  0  0  0  0  0  # atno 17395 bound_to 11000

$$$$
