AV-unprocessed.smi:1177|AV-procd|sdf|4954|dock1
  -GOLD-   22720 3543D 1   1.00000     0.00000
 Structure written by MMmdl.
 30 31  0  0  0  0  0  0  0  0  1 V2000
  150.3268  140.7067  155.1891 O   0  0  0  0  0  0  0  0  0  0  0  0
  149.8193  141.8013  155.4343 C   0  0  0  0  0  0  0  0  0  0  0  0
  150.3656  142.7159  156.2479 N   0  0  0  0  0  0  0  0  0  0  0  0
  151.6284  142.5542  156.9596 C   0  0  0  0  0  0  0  0  0  0  0  0
  151.9975  143.8167  157.7566 C   0  0  0  0  0  0  0  0  0  0  0  0
  152.2601  143.5153  159.2200 C   0  0  0  0  0  0  0  0  0  0  0  0
  151.9806  144.4766  160.2150 C   0  0  0  0  0  0  0  0  0  0  0  0
  152.2482  144.1490  161.5583 C   0  0  0  0  0  0  0  0  0  0  0  0
  152.7840  142.8806  161.8535 C   0  0  0  0  0  0  0  0  0  0  0  0
  153.0299  141.9926  160.7873 C   0  0  0  0  0  0  0  0  0  0  0  0
  152.7765  142.2965  159.4961 N   0  0  0  0  0  0  0  0  0  0  0  0
  148.6547  142.2240  154.9244 N   0  0  0  0  0  0  0  0  0  0  0  0
  147.8268  141.4826  154.0290 C   0  0  0  0  0  0  0  0  0  0  0  0
  146.5750  142.1558  153.5091 C   0  0  0  0  0  0  0  0  0  0  0  0
  146.4630  141.0531  154.5254 C   0  0  0  0  0  0  0  0  0  0  0  0
  149.8744  143.5873  156.3838 H   0  0  0  0  0  0  0  0  0  0  0  0
  151.5780  141.6851  157.6180 H   0  0  0  0  0  0  0  0  0  0  0  0
  152.4044  142.3417  156.2239 H   0  0  0  0  0  0  0  0  0  0  0  0
  152.8819  144.2855  157.3232 H   0  0  0  0  0  0  0  0  0  0  0  0
  151.1966  144.5546  157.6893 H   0  0  0  0  0  0  0  0  0  0  0  0
  151.5724  145.4428  159.9569 H   0  0  0  0  0  0  0  0  0  0  0  0
  152.0475  144.8584  162.3478 H   0  0  0  0  0  0  0  0  0  0  0  0
  153.0022  142.5951  162.8719 H   0  0  0  0  0  0  0  0  0  0  0  0
  153.4415  141.0122  160.9766 H   0  0  0  0  0  0  0  0  0  0  0  0
  148.3257  143.1403  155.1914 H   0  0  0  0  0  0  0  0  0  0  0  0
  148.3219  140.7979  153.3416 H   0  0  0  0  0  0  0  0  0  0  0  0
  146.3636  143.1695  153.8445 H   0  0  0  0  0  0  0  0  0  0  0  0
  146.2721  141.9308  152.4885 H   0  0  0  0  0  0  0  0  0  0  0  0
  146.0842  140.0921  154.1835 H   0  0  0  0  0  0  0  0  0  0  0  0
  146.1780  141.3316  155.5382 H   0  0  0  0  0  0  0  0  0  0  0  0
  1  2  2  0  0  0  0
  2  3  1  0  0  0  0
  2 12  1  0  0  0  0
  3  4  1  0  0  0  0
  3 16  1  0  0  0  0
  4  5  1  0  0  0  0
  4 17  1  0  0  0  0
  4 18  1  0  0  0  0
  5  6  1  0  0  0  0
  5 19  1  0  0  0  0
  5 20  1  0  0  0  0
  6 11  1  0  0  0  0
  6  7  2  0  0  0  0
  7  8  1  0  0  0  0
  7 21  1  0  0  0  0
  8  9  2  0  0  0  0
  8 22  1  0  0  0  0
  9 10  1  0  0  0  0
  9 23  1  0  0  0  0
 10 11  2  0  0  0  0
 10 24  1  0  0  0  0
 12 13  1  0  0  0  0
 12 25  1  0  0  0  0
 13 15  1  0  0  0  0
 13 14  1  0  0  0  0
 13 26  1  0  0  0  0
 14 15  1  0  0  0  0
 14 27  1  0  0  0  0
 14 28  1  0  0  0  0
 15 29  1  0  0  0  0
 15 30  1  0  0  0  0
M  END
> <s_m_source_file>
AV-unprocessed.smi

> <i_m_source_file_index>
1177

> <i_lp_mmshare_version>
43012

> <i_f3d_flags>
0

> <s_epik_input>
W0NIMl0xW0NIMl1bQ0hdMVtOSF1DKD1PKVtOSF1bQ0gyXVtDSDJdYzJbY0hdW2NIXVtjSF1bY0hdbjI=

> <s_epik_cmdline>
J2VwaWtfcHl0aG9uJywgJy1waCcsICc3LjAnLCAnLXRuJywgJzgnLCAnLW1hJywgJzIwMCcsICctbWV0YWxfYmluZGluZycsICctaW1hZScsICc8aW5maWxlLm1hZT4nLCAnLW9tYWUnLCAnPG91dGZpbGUubWFlPic=

> <r_epik_Ionization_Penalty>
0.0440342

> <r_epik_Ionization_Penalty_Charging>
0

> <r_epik_Ionization_Penalty_Neutral>
0.0440342

> <r_epik_State_Penalty>
0.0372351

> <r_epik_Charging_Adjusted_Penalty>
0.0372351

> <i_epik_Tot_Q>
0

> <i_epik_Tot_abs_Q>
0

> <r_epik_Metal_State_Penalty>
0.0346506

> <b_epik_Metal_Only>
0

> <s_lp_Force_Field>
OPLS_2005

> <r_lp_Energy>
12.265

> <b_lp_Chiralities_Consistent>
1

> <s_lp_Variant>
AV-unprocessed.smi:1177-1

> <Gold.Version>
5.8.1

> <Gold.Id.Protein>
6NUR|6NUR_protein|mol2

> <Gold.PLP.Fitness>
44.6295

> <Gold.PLP.PLP>
-38.7650

> <Gold.PLP.part.hbond>
-2.9239

> <Gold.PLP.part.metal>
0.0000

> <Gold.PLP.part.buried>
-5.6531

> <Gold.PLP.part.nonpolar>
-29.1633

> <Gold.PLP.part.repulsive>
0.3915

> <Gold.PLP.ligand.clash>
0.0000

> <Gold.PLP.ligand.torsion>
0.7631

> <Gold.PLP.Chemscore.Hbond>
2.4480

> <Gold.PLP.Chemscore.CHOScore>
0.0000

> <Gold.PLP.Chemscore.Metal>
0.0000

> <Gold.Chemscore.Hbonds>
donor molecule, donor type, donor heavy atom, donor atom, acceptor molecule, acceptor atom, score
      L1  H     3    16       P1  8028  0.91
      L1  H    12    25       P1  8028  0.86
      P1  H  7989  7998       L1     1  0.64

> <Gold.PLP.Chemscore.Internal.Correction>
0.0468

> <Gold.Rescore>
     Score         DG    S(hbond)    S(metal)    S(lipo)     H(rot)  DE(clash)    DE(int)     intcor
     19.38     -21.59       2.41        0.00     104.28       1.61       1.46       0.76       ----

> <Gold.Chemscore.Fitness>
19.3784

> <Gold.Chemscore.DG>
-21.5934

> <Gold.Chemscore.ZeroCoef>
-5.4800

> <Gold.Chemscore.Hbond>
2.4090

> <Gold.Chemscore.Metal>
0.0000

> <Gold.Chemscore.Lipo>
104.2808

> <Gold.Chemscore.Internal_Hbond>
0.0000

> <Gold.Chemscore.DEClash>
1.4550

> <Gold.Chemscore.DEInternal>
0.7600

> <Gold.Chemscore.Rot>
1.6147

> <Gold.Chemscore.Internal.Correction>
   9.000000E+99

> <Gold.Chemscore.Hbonds>
donor molecule, donor type, donor heavy atom, donor atom, acceptor molecule, acceptor atom, score
      L1  H     3    16       P1  8028  0.88
      L1  H    12    25       P1  8028  0.84
      P1  H  7989  7998       L1     1  0.44

> <Gold.Chemscore.Hbond.Weighted>
-8.0461

> <Gold.Chemscore.Metal.Weighted>
-0.0000

> <Gold.Chemscore.Lipo.Weighted>
-12.2009

> <Gold.Chemscore.Internal_Hbond.Weighted>
0.0000

> <Gold.Chemscore.DEClash.Weighted>
1.4550

> <Gold.Chemscore.DEInternal.Weighted>
0.7600

> <Gold.Chemscore.Rot.Weighted>
4.1336

> <Gold.Chemscore.Internal.Correction.Weighted>
   9.000000E+99

> <Gold.Protein.RotatedTorsions>
[ 6907 6896 6895 6894 ] final  170.29 input  -60.11 | X-H torsion
[ 7974 7965 7964 7962 ] final -151.19 input  175.53 | X-H torsion
[ 8008 7997 7996 7995 ] final  -52.59 input   59.86 | X-H torsion
[ 10167 10162 10161 10158 ] final   92.30 input  -65.29 | X-H torsion
[ 10718 10713 10712 10709 ] final    8.23 input   66.30 | X-H torsion
[ 10763 10752 10751 10750 ] final -124.87 input  -60.55 | X-H torsion
[ 11005 11000 10999 10996 ] final  159.49 input  -57.11 | X-H torsion

> <Gold.Protein.ActiveResidues>
 VAL166  LYS551  ARG553  GLY616  TRP617  ASP618  TYR619  PRO620  LYS621  CYS622 
 ASP623  PHE694  ASN695  SER759  ASP760  ASP761  ALA762  ILE779  LEU786  VAL792 
 PHE793  MET794  SER795  GLU796  ALA797  LYS798  CYS799  TRP800  GLU811  SER814 

> <Gold.Protein.RotatedAtoms>
  151.8184  133.3391  159.3576 H   0  0  0  0  0  0  0  0  0  0  0  0  # atno 6907 bound_to 6896
  150.7303  134.5597  159.5845 H   0  0  0  0  0  0  0  0  0  0  0  0  # atno 6908 bound_to 6896
  152.3024  134.7596  160.0406 H   0  0  0  0  0  0  0  0  0  0  0  0  # atno 6909 bound_to 6896
  144.7864  140.4831  143.5803 H   0  0  0  0  0  0  0  0  0  0  0  0  # atno 7974 bound_to 7965
  154.4110  140.1220  156.5016 H   0  0  0  0  0  0  0  0  0  0  0  0  # atno 8008 bound_to 7997
  155.6889  140.3495  155.4866 H   0  0  0  0  0  0  0  0  0  0  0  0  # atno 8009 bound_to 7997
  155.9486  140.1100  157.0986 H   0  0  0  0  0  0  0  0  0  0  0  0  # atno 8010 bound_to 7997
  139.8290  144.6696  150.9423 H   0  0  0  0  0  0  0  0  0  0  0  0  # atno 10167 bound_to 10162
  156.9486  130.5888  149.5655 H   0  0  0  0  0  0  0  0  0  0  0  0  # atno 10718 bound_to 10713
  154.8729  135.4049  154.3176 H   0  0  0  0  0  0  0  0  0  0  0  0  # atno 10763 bound_to 10752
  153.4010  135.7018  153.6431 H   0  0  0  0  0  0  0  0  0  0  0  0  # atno 10764 bound_to 10752
  153.5174  135.3694  155.2586 H   0  0  0  0  0  0  0  0  0  0  0  0  # atno 10765 bound_to 10752
  140.1967  134.8368  157.2973 H   0  0  0  0  0  0  0  0  0  0  0  0  # atno 11005 bound_to 11000
  145.5910  139.1495  143.3182 LP  0  0  0  0  0  0  0  0  0  0  0  0  # atno 17320 bound_to 7965
  146.2097  140.6036  142.9065 LP  0  0  0  0  0  0  0  0  0  0  0  0  # atno 17321 bound_to 7965
  140.7808  143.4019  151.1135 LP  0  0  0  0  0  0  0  0  0  0  0  0  # atno 17342 bound_to 10162
  139.7674  143.8545  152.3113 LP  0  0  0  0  0  0  0  0  0  0  0  0  # atno 17343 bound_to 10162
  156.0373  130.5459  150.8684 LP  0  0  0  0  0  0  0  0  0  0  0  0  # atno 17370 bound_to 10713
  157.5737  131.0946  150.9378 LP  0  0  0  0  0  0  0  0  0  0  0  0  # atno 17371 bound_to 10713
  140.2099  134.4151  155.7618 LP  0  0  0  0  0  0  0  0  0  0  0  0  # atno 17394 bound_to 11000
  141.2227  133.7113  156.8321 LP  0  0  0  0  0  0  0  0  0  0  0  0  # atno 17395 bound_to 11000

$$$$
