AV-unprocessed.smi:2725|AV-procd|sdf|10517|dock5
  -GOLD-   2272014553D 1   1.00000     0.00000
 Structure written by MMmdl.
 45 46  0  0  0  0  0  0  0  0  2 V2000
  152.3393  136.8155  159.1951 O   0  0  0  0  0  0  0  0  0  0  0  0
  151.6859  137.8520  159.0716 C   0  0  0  0  0  0  0  0  0  0  0  0
  152.3843  139.2093  158.9436 C   0  0  0  0  0  0  0  0  0  0  0  0
  151.4022  140.3907  158.8257 C   0  0  0  0  0  0  0  0  0  0  0  0
  152.1085  141.7542  158.7231 C   0  0  0  0  0  0  0  0  0  0  0  0
  152.6686  142.2827  160.0481 C   0  0  0  0  0  0  0  0  0  0  0  0
  152.8106  143.7981  159.8567 C   0  0  0  0  0  0  0  0  0  0  0  0
  151.9208  144.1699  158.6610 C   0  0  0  0  0  0  0  0  0  0  0  0
  151.1876  142.8860  158.2627 C   0  0  0  0  0  0  0  0  0  0  0  0
  150.3445  137.8742  159.0393 N   0  0  0  0  0  0  0  0  0  0  0  0
  149.4771  136.7005  159.1203 C   0  0  2  0  0  0  0  0  0  0  0  0
  149.3509  136.0864  157.7106 C   0  0  0  0  0  0  0  0  0  0  0  0
  149.5032  134.6846  157.7773 O   0  0  0  0  0  0  0  0  0  0  0  0
  148.1144  137.1208  159.7184 C   0  0  0  0  0  0  0  0  0  0  0  0
  147.5440  136.1108  160.6985 C   0  0  0  0  0  0  0  0  0  0  0  0
  147.8845  136.1305  162.0685 C   0  0  0  0  0  0  0  0  0  0  0  0
  147.3326  135.1604  162.9309 C   0  0  0  0  0  0  0  0  0  0  0  0
  146.4533  134.1908  162.4056 C   0  0  0  0  0  0  0  0  0  0  0  0
  146.1477  134.2164  161.0297 C   0  0  0  0  0  0  0  0  0  0  0  0
  146.6967  135.1624  160.2361 N   0  3  0  0  0  0  0  0  0  0  0  0
  153.0307  139.3428  159.8114 H   0  0  0  0  0  0  0  0  0  0  0  0
  153.0350  139.1898  158.0680 H   0  0  0  0  0  0  0  0  0  0  0  0
  150.7795  140.2527  157.9404 H   0  0  0  0  0  0  0  0  0  0  0  0
  150.7220  140.3957  159.6787 H   0  0  0  0  0  0  0  0  0  0  0  0
  152.9287  141.6776  158.0073 H   0  0  0  0  0  0  0  0  0  0  0  0
  151.9616  142.0862  160.8552 H   0  0  0  0  0  0  0  0  0  0  0  0
  153.6140  141.8113  160.3184 H   0  0  0  0  0  0  0  0  0  0  0  0
  152.5169  144.3345  160.7595 H   0  0  0  0  0  0  0  0  0  0  0  0
  153.8476  144.0615  159.6448 H   0  0  0  0  0  0  0  0  0  0  0  0
  151.2255  144.9754  158.8989 H   0  0  0  0  0  0  0  0  0  0  0  0
  152.5448  144.5108  157.8339 H   0  0  0  0  0  0  0  0  0  0  0  0
  150.9727  142.8438  157.1945 H   0  0  0  0  0  0  0  0  0  0  0  0
  150.2360  142.8316  158.7939 H   0  0  0  0  0  0  0  0  0  0  0  0
  149.8906  138.7690  158.9258 H   0  0  0  0  0  0  0  0  0  0  0  0
  149.9286  135.9653  159.7902 H   0  0  0  0  0  0  0  0  0  0  0  0
  148.3647  136.2699  157.2873 H   0  0  0  0  0  0  0  0  0  0  0  0
  150.0768  136.5132  157.0173 H   0  0  0  0  0  0  0  0  0  0  0  0
  150.0283  134.4013  157.0441 H   0  0  0  0  0  0  0  0  0  0  0  0
  148.2132  138.0672  160.2520 H   0  0  0  0  0  0  0  0  0  0  0  0
  147.3939  137.3024  158.9194 H   0  0  0  0  0  0  0  0  0  0  0  0
  148.5629  136.8780  162.4541 H   0  0  0  0  0  0  0  0  0  0  0  0
  147.5817  135.1593  163.9820 H   0  0  0  0  0  0  0  0  0  0  0  0
  146.0203  133.4387  163.0489 H   0  0  0  0  0  0  0  0  0  0  0  0
  145.4863  133.5143  160.5433 H   0  0  0  0  0  0  0  0  0  0  0  0
  146.4611  135.1615  159.2436 H   0  0  0  0  0  0  0  0  0  0  0  0
  1  2  2  0  0  0  0
  2  3  1  0  0  0  0
  2 10  1  0  0  0  0
  3  4  1  0  0  0  0
  3 21  1  0  0  0  0
  3 22  1  0  0  0  0
  4  5  1  0  0  0  0
  4 23  1  0  0  0  0
  4 24  1  0  0  0  0
  5  9  1  0  0  0  0
  5  6  1  0  0  0  0
  5 25  1  0  0  0  0
  6  7  1  0  0  0  0
  6 26  1  0  0  0  0
  6 27  1  0  0  0  0
  7  8  1  0  0  0  0
  7 28  1  0  0  0  0
  7 29  1  0  0  0  0
  8  9  1  0  0  0  0
  8 30  1  0  0  0  0
  8 31  1  0  0  0  0
  9 32  1  0  0  0  0
  9 33  1  0  0  0  0
 10 11  1  0  0  0  0
 10 34  1  0  0  0  0
 11 12  1  0  0  0  0
 11 14  1  0  0  0  0
 11 35  1  0  0  0  0
 12 13  1  0  0  0  0
 12 36  1  0  0  0  0
 12 37  1  0  0  0  0
 13 38  1  0  0  0  0
 14 15  1  0  0  0  0
 14 39  1  0  0  0  0
 14 40  1  0  0  0  0
 15 20  1  0  0  0  0
 15 16  2  0  0  0  0
 16 17  1  0  0  0  0
 16 41  1  0  0  0  0
 17 18  2  0  0  0  0
 17 42  1  0  0  0  0
 18 19  1  0  0  0  0
 18 43  1  0  0  0  0
 19 20  2  0  0  0  0
 19 44  1  0  0  0  0
 20 45  1  0  0  0  0
M  CHG  1  20   1
M  END
> <s_m_source_file>
AV-unprocessed.smi

> <i_m_source_file_index>
2725

> <i_lp_mmshare_version>
43012

> <i_f3d_flags>
0

> <s_epik_input>
W0NIMl0xW0NIMl1bQ0gyXVtDSDJdW0NIXTFbQ0gyXVtDSDJdQyg9TylbTkhdW0NASF0oW0NIMl1bT0hdKVtDSDJdYzJbY0hdW2NIXVtjSF1bY0hdbjI=

> <s_epik_cmdline>
J2VwaWtfcHl0aG9uJywgJy1waCcsICc3LjAnLCAnLXRuJywgJzgnLCAnLW1hJywgJzIwMCcsICctbWV0YWxfYmluZGluZycsICctaW1hZScsICc8aW5maWxlLm1hZT4nLCAnLW9tYWUnLCAnPG91dGZpbGUubWFlPic=

> <r_epik_Ionization_Penalty>
1.87189

> <r_epik_Ionization_Penalty_Charging>
1.87189

> <r_epik_Ionization_Penalty_Neutral>
6.79411e-08

> <r_epik_State_Penalty>
1.99097

> <r_epik_Charging_Adjusted_Penalty>
3.86287

> <i_epik_Tot_Q>
1

> <i_epik_Tot_abs_Q>
1

> <r_epik_Metal_State_Penalty>
2.01578

> <b_epik_Metal_Only>
0

> <s_lp_Force_Field>
OPLS_2005

> <r_lp_Energy>
30.4182

> <b_lp_Chiralities_Consistent>
1

> <s_lp_Variant>
AV-unprocessed.smi:2725-3

> <Gold.Version>
5.8.1

> <Gold.Id.Protein>
6NUR|6NUR_protein|mol2

> <Gold.PLP.Fitness>
44.4054

> <Gold.PLP.PLP>
-42.7411

> <Gold.PLP.part.hbond>
-2.0000

> <Gold.PLP.part.metal>
0.0000

> <Gold.PLP.part.buried>
-4.0780

> <Gold.PLP.part.nonpolar>
-37.3696

> <Gold.PLP.part.repulsive>
0.1903

> <Gold.PLP.ligand.clash>
0.4300

> <Gold.PLP.ligand.torsion>
2.0294

> <Gold.PLP.Chemscore.Hbond>
2.0000

> <Gold.PLP.Chemscore.CHOScore>
0.0000

> <Gold.PLP.Chemscore.Metal>
0.0000

> <Gold.Chemscore.Hbonds>
donor molecule, donor type, donor heavy atom, donor atom, acceptor molecule, acceptor atom, score
      P1  H  6896  6908       L1    13  0.94
      P1  H  6896  6909       L1     1  1.00

> <Gold.PLP.Chemscore.Internal.Correction>
0.1531

> <Gold.Rescore>
     Score         DG    S(hbond)    S(metal)    S(lipo)     H(rot)  DE(clash)    DE(int)     intcor
     16.90     -18.88       1.79        0.00     119.65       2.58       0.07       1.91       ----

> <Gold.Chemscore.Fitness>
16.8989

> <Gold.Chemscore.DG>
-18.8759

> <Gold.Chemscore.ZeroCoef>
-5.4800

> <Gold.Chemscore.Hbond>
1.7947

> <Gold.Chemscore.Metal>
0.0000

> <Gold.Chemscore.Lipo>
119.6525

> <Gold.Chemscore.Internal_Hbond>
0.0000

> <Gold.Chemscore.DEClash>
0.0654

> <Gold.Chemscore.DEInternal>
1.9116

> <Gold.Chemscore.Rot>
2.5773

> <Gold.Chemscore.Internal.Correction>
   9.000000E+99

> <Gold.Chemscore.Hbonds>
donor molecule, donor type, donor heavy atom, donor atom, acceptor molecule, acceptor atom, score
      P1  H  6896  6908       L1    13  0.20
      P1  H  6896  6909       L1     1  0.94

> <Gold.Chemscore.Hbond.Weighted>
-5.9944

> <Gold.Chemscore.Metal.Weighted>
-0.0000

> <Gold.Chemscore.Lipo.Weighted>
-13.9993

> <Gold.Chemscore.Internal_Hbond.Weighted>
0.0000

> <Gold.Chemscore.DEClash.Weighted>
0.0654

> <Gold.Chemscore.DEInternal.Weighted>
1.9116

> <Gold.Chemscore.Rot.Weighted>
6.5978

> <Gold.Chemscore.Internal.Correction.Weighted>
   9.000000E+99

> <Gold.Protein.RotatedTorsions>
[ 6907 6896 6895 6894 ] final  134.35 input  -60.11 | X-H torsion
[ 7974 7965 7964 7962 ] final  -73.22 input  175.53 | X-H torsion
[ 8008 7997 7996 7995 ] final  147.69 input   59.86 | X-H torsion
[ 10167 10162 10161 10158 ] final  151.57 input  -65.29 | X-H torsion
[ 10718 10713 10712 10709 ] final -152.77 input   66.30 | X-H torsion
[ 10763 10752 10751 10750 ] final   -5.23 input  -60.55 | X-H torsion
[ 11005 11000 10999 10996 ] final   38.20 input  -57.11 | X-H torsion

> <Gold.Protein.ActiveResidues>
 VAL166  LYS551  ARG553  GLY616  TRP617  ASP618  TYR619  PRO620  LYS621  CYS622 
 ASP623  PHE694  ASN695  SER759  ASP760  ASP761  ALA762  ILE779  LEU786  VAL792 
 PHE793  MET794  SER795  GLU796  ALA797  LYS798  CYS799  TRP800  GLU811  SER814 

> <Gold.Protein.RotatedAtoms>
  152.3123  133.5765  159.5688 H   0  0  0  0  0  0  0  0  0  0  0  0  # atno 6907 bound_to 6896
  150.7329  134.0134  159.3686 H   0  0  0  0  0  0  0  0  0  0  0  0  # atno 6908 bound_to 6896
  151.8026  135.0705  160.0453 H   0  0  0  0  0  0  0  0  0  0  0  0  # atno 6909 bound_to 6896
  145.6550  140.9271  143.0964 H   0  0  0  0  0  0  0  0  0  0  0  0  # atno 7974 bound_to 7965
  156.2816  140.2149  156.5579 H   0  0  0  0  0  0  0  0  0  0  0  0  # atno 8008 bound_to 7997
  154.7237  140.0501  157.0686 H   0  0  0  0  0  0  0  0  0  0  0  0  # atno 8009 bound_to 7997
  155.0444  140.3149  155.4716 H   0  0  0  0  0  0  0  0  0  0  0  0  # atno 8010 bound_to 7997
  139.4839  144.5430  151.7532 H   0  0  0  0  0  0  0  0  0  0  0  0  # atno 10167 bound_to 10162
  156.4769  130.8284  151.2512 H   0  0  0  0  0  0  0  0  0  0  0  0  # atno 10718 bound_to 10713
  153.3957  135.7003  153.6462 H   0  0  0  0  0  0  0  0  0  0  0  0  # atno 10763 bound_to 10752
  153.5017  135.3651  155.2543 H   0  0  0  0  0  0  0  0  0  0  0  0  # atno 10764 bound_to 10752
  154.8706  135.4113  154.3282 H   0  0  0  0  0  0  0  0  0  0  0  0  # atno 10765 bound_to 10752
  140.2149  134.3710  155.8031 H   0  0  0  0  0  0  0  0  0  0  0  0  # atno 11005 bound_to 11000
  144.7109  139.8375  143.7415 LP  0  0  0  0  0  0  0  0  0  0  0  0  # atno 17320 bound_to 7965
  146.1172  139.4185  143.0251 LP  0  0  0  0  0  0  0  0  0  0  0  0  # atno 17321 bound_to 7965
  140.4972  144.1222  150.5963 LP  0  0  0  0  0  0  0  0  0  0  0  0  # atno 17342 bound_to 10162
  140.4103  143.2660  151.9840 LP  0  0  0  0  0  0  0  0  0  0  0  0  # atno 17343 bound_to 10162
  157.7487  131.0058  150.3127 LP  0  0  0  0  0  0  0  0  0  0  0  0  # atno 17370 bound_to 10713
  156.3561  130.3839  149.7289 LP  0  0  0  0  0  0  0  0  0  0  0  0  # atno 17371 bound_to 10713
  141.2225  133.7163  156.8480 LP  0  0  0  0  0  0  0  0  0  0  0  0  # atno 17394 bound_to 11000
  140.1911  134.8965  157.3061 LP  0  0  0  0  0  0  0  0  0  0  0  0  # atno 17395 bound_to 11000

$$$$
