AV-unprocessed.smi:1535|AV-procd|sdf|6181|dock7
  -GOLD-   22720 6343D 1   1.00000     0.00000
 Structure written by MMmdl.
 47 48  0  0  0  0  0  0  0  0  2 V2000
  152.5437  140.7004  159.4674 C   0  0  0  0  0  0  0  0  0  0  0  0
  151.6481  140.6931  158.2410 C   0  0  0  0  0  0  0  0  0  0  0  0
  151.8162  139.6767  157.2735 C   0  0  0  0  0  0  0  0  0  0  0  0
  151.0049  139.6346  156.1185 C   0  0  0  0  0  0  0  0  0  0  0  0
  150.9941  138.7447  155.0580 N   0  0  0  0  0  0  0  0  0  0  0  0
  150.0168  139.2384  154.3033 C   0  0  0  0  0  0  0  0  0  0  0  0
  149.3947  140.3476  154.7480 N   0  0  0  0  0  0  0  0  0  0  0  0
  148.3105  141.0672  154.1040 C   0  0  0  0  0  0  0  0  0  0  0  0
  147.0301  140.2178  153.9903 C   0  0  1  0  0  0  0  0  0  0  0  0
  145.9244  141.0654  153.7423 O   0  0  0  0  0  0  0  0  0  0  0  0
  147.1227  139.1791  152.8550 C   0  0  0  0  0  0  0  0  0  0  0  0
  145.8776  138.3793  152.7341 N   0  3  1  0  0  0  0  0  0  0  0  0
  145.9994  137.3025  151.7247 C   0  0  0  0  0  0  0  0  0  0  0  0
  145.3694  137.8798  154.0386 C   0  0  0  0  0  0  0  0  0  0  0  0
  143.8545  137.6087  154.0054 C   0  0  2  0  0  0  0  0  0  0  0  0
  143.2542  137.5021  155.4155 C   0  0  0  0  0  0  0  0  0  0  0  0
  143.5651  136.3925  153.2293 C   0  0  0  0  0  0  0  0  0  0  0  0
  143.3364  135.4369  152.6193 N   0  0  0  0  0  0  0  0  0  0  0  0
  150.0139  140.6465  155.9564 C   0  0  0  0  0  0  0  0  0  0  0  0
  149.8352  141.6616  156.9127 C   0  0  0  0  0  0  0  0  0  0  0  0
  150.6527  141.6873  158.0619 C   0  0  0  0  0  0  0  0  0  0  0  0
  150.4497  142.7859  159.0905 C   0  0  0  0  0  0  0  0  0  0  0  0
  153.2938  139.9106  159.4174 H   0  0  0  0  0  0  0  0  0  0  0  0
  151.9534  140.5453  160.3708 H   0  0  0  0  0  0  0  0  0  0  0  0
  153.0676  141.6524  159.5546 H   0  0  0  0  0  0  0  0  0  0  0  0
  152.5727  138.9180  157.4109 H   0  0  0  0  0  0  0  0  0  0  0  0
  149.7398  138.7683  153.3707 H   0  0  0  0  0  0  0  0  0  0  0  0
  148.1156  141.9843  154.6621 H   0  0  0  0  0  0  0  0  0  0  0  0
  148.6505  141.3711  153.1132 H   0  0  0  0  0  0  0  0  0  0  0  0
  146.8579  139.7181  154.9435 H   0  0  0  0  0  0  0  0  0  0  0  0
  145.3632  140.6543  153.1019 H   0  0  0  0  0  0  0  0  0  0  0  0
  147.3265  139.7033  151.9196 H   0  0  0  0  0  0  0  0  0  0  0  0
  147.9664  138.5050  153.0131 H   0  0  0  0  0  0  0  0  0  0  0  0
  146.7727  136.5870  152.0075 H   0  0  0  0  0  0  0  0  0  0  0  0
  146.2583  137.7168  150.7498 H   0  0  0  0  0  0  0  0  0  0  0  0
  145.0601  136.7621  151.6092 H   0  0  0  0  0  0  0  0  0  0  0  0
  145.9134  136.9749  154.3149 H   0  0  0  0  0  0  0  0  0  0  0  0
  145.5725  138.5972  154.8341 H   0  0  0  0  0  0  0  0  0  0  0  0
  143.3515  138.4154  153.4725 H   0  0  0  0  0  0  0  0  0  0  0  0
  142.1847  137.2965  155.3684 H   0  0  0  0  0  0  0  0  0  0  0  0
  143.3853  138.4270  155.9778 H   0  0  0  0  0  0  0  0  0  0  0  0
  143.7212  136.6968  155.9835 H   0  0  0  0  0  0  0  0  0  0  0  0
  149.0748  142.4137  156.7634 H   0  0  0  0  0  0  0  0  0  0  0  0
  149.5872  143.4060  158.8447 H   0  0  0  0  0  0  0  0  0  0  0  0
  151.3269  143.4318  159.1354 H   0  0  0  0  0  0  0  0  0  0  0  0
  150.2814  142.3598  160.0798 H   0  0  0  0  0  0  0  0  0  0  0  0
  145.1822  139.0216  152.3805 H   0  0  0  0  0  0  0  0  0  0  0  0
  1  2  1  0  0  0  0
  1 23  1  0  0  0  0
  1 24  1  0  0  0  0
  1 25  1  0  0  0  0
  2 21  1  0  0  0  0
  2  3  2  0  0  0  0
  3  4  1  0  0  0  0
  3 26  1  0  0  0  0
  4 19  2  0  0  0  0
  4  5  1  0  0  0  0
  5  6  2  0  0  0  0
  6  7  1  0  0  0  0
  6 27  1  0  0  0  0
  7  8  1  0  0  0  0
  7 19  1  0  0  0  0
  8  9  1  0  0  0  0
  8 28  1  0  0  0  0
  8 29  1  0  0  0  0
  9 10  1  0  0  0  0
  9 11  1  0  0  0  0
  9 30  1  0  0  0  0
 10 31  1  0  0  0  0
 11 12  1  0  0  0  0
 11 32  1  0  0  0  0
 11 33  1  0  0  0  0
 12 13  1  0  0  0  0
 12 14  1  0  0  0  0
 12 47  1  0  0  0  0
 13 34  1  0  0  0  0
 13 35  1  0  0  0  0
 13 36  1  0  0  0  0
 14 15  1  0  0  0  0
 14 37  1  0  0  0  0
 14 38  1  0  0  0  0
 15 16  1  0  0  0  0
 15 17  1  0  0  0  0
 15 39  1  0  0  0  0
 16 40  1  0  0  0  0
 16 41  1  0  0  0  0
 16 42  1  0  0  0  0
 17 18  3  0  0  0  0
 19 20  1  0  0  0  0
 20 21  2  0  0  0  0
 20 43  1  0  0  0  0
 21 22  1  0  0  0  0
 22 44  1  0  0  0  0
 22 45  1  0  0  0  0
 22 46  1  0  0  0  0
M  CHG  1  12   1
M  END
> <s_m_source_file>
AV-unprocessed.smi

> <i_m_source_file_index>
1535

> <i_lp_mmshare_version>
43012

> <i_f3d_flags>
0

> <s_epik_input>
W0NIM11jKFtjSF0xKWMoW0NIM10pW2NIXWMoYzEyKW4oW2NIXW4yKVtDSDJdW0NASF0oW09IXSlbQ0gyXU4oW0NIM10pW0NIMl1bQ0BIXShbQ0gzXSlDI04=

> <s_epik_cmdline>
J2VwaWtfcHl0aG9uJywgJy1waCcsICc3LjAnLCAnLXRuJywgJzgnLCAnLW1hJywgJzIwMCcsICctbWV0YWxfYmluZGluZycsICctaW1hZScsICc8aW5maWxlLm1hZT4nLCAnLW9tYWUnLCAnPG91dGZpbGUubWFlPic=

> <r_epik_Ionization_Penalty>
2.21058

> <r_epik_Ionization_Penalty_Charging>
2.12381

> <r_epik_Ionization_Penalty_Neutral>
0.0867699

> <r_epik_State_Penalty>
2.36208

> <r_epik_Charging_Adjusted_Penalty>
4.48589

> <i_epik_Tot_Q>
1

> <i_epik_Tot_abs_Q>
1

> <r_epik_Metal_State_Penalty>
2.2818

> <b_epik_Metal_Only>
0

> <s_lp_Force_Field>
OPLS_2005

> <r_lp_Energy>
17.3963

> <b_lp_Chiralities_Consistent>
1

> <s_lp_Variant>
AV-unprocessed.smi:1535-12

> <Gold.Version>
5.8.1

> <Gold.Id.Protein>
6NUR|6NUR_protein|mol2

> <Gold.PLP.Fitness>
45.1768

> <Gold.PLP.PLP>
-33.6778

> <Gold.PLP.part.hbond>
-2.0000

> <Gold.PLP.part.metal>
0.0000

> <Gold.PLP.part.buried>
-1.1453

> <Gold.PLP.part.nonpolar>
-30.7489

> <Gold.PLP.part.repulsive>
0.2378

> <Gold.PLP.ligand.clash>
0.0000

> <Gold.PLP.ligand.torsion>
0.5206

> <Gold.PLP.Chemscore.Hbond>
3.0000

> <Gold.PLP.Chemscore.CHOScore>
1.1197

> <Gold.PLP.Chemscore.Metal>
0.0000

> <Gold.Chemscore.Hbonds>
donor molecule, donor type, donor heavy atom, donor atom, acceptor molecule, acceptor atom, score
      L1  H    10    31       P1 10175  0.91
      L1  H    12    47       P1 10175  1.76
      L1  C     6    27       P1  7957  0.84

> <Gold.PLP.Chemscore.Internal.Correction>
0.1811

> <Gold.Rescore>
     Score         DG    S(hbond)    S(metal)    S(lipo)     H(rot)  DE(clash)    DE(int)     intcor
     13.90     -15.34       1.91        0.00      86.73       2.60       0.49       0.95       ----

> <Gold.Chemscore.Fitness>
13.9043

> <Gold.Chemscore.DG>
-15.3444

> <Gold.Chemscore.ZeroCoef>
-5.4800

> <Gold.Chemscore.Hbond>
1.9104

> <Gold.Chemscore.Metal>
0.0000

> <Gold.Chemscore.Lipo>
86.7304

> <Gold.Chemscore.Internal_Hbond>
0.0000

> <Gold.Chemscore.DEClash>
0.4935

> <Gold.Chemscore.DEInternal>
0.9466

> <Gold.Chemscore.Rot>
2.6031

> <Gold.Chemscore.Internal.Correction>
   9.000000E+99

> <Gold.Chemscore.Hbonds>
donor molecule, donor type, donor heavy atom, donor atom, acceptor molecule, acceptor atom, score
      L1  H    10    31       P1 10175  0.70
      L1  H    12    47       P1 10175  0.85

> <Gold.Chemscore.Hbond.Weighted>
-6.3809

> <Gold.Chemscore.Metal.Weighted>
-0.0000

> <Gold.Chemscore.Lipo.Weighted>
-10.1475

> <Gold.Chemscore.Internal_Hbond.Weighted>
0.0000

> <Gold.Chemscore.DEClash.Weighted>
0.4935

> <Gold.Chemscore.DEInternal.Weighted>
0.9466

> <Gold.Chemscore.Rot.Weighted>
6.6640

> <Gold.Chemscore.Internal.Correction.Weighted>
   9.000000E+99

> <Gold.Protein.RotatedTorsions>
[ 6907 6896 6895 6894 ] final -169.68 input  -60.11 | X-H torsion
[ 7974 7965 7964 7962 ] final   25.44 input  175.53 | X-H torsion
[ 8008 7997 7996 7995 ] final -115.37 input   59.86 | X-H torsion
[ 10167 10162 10161 10158 ] final -104.43 input  -65.29 | X-H torsion
[ 10718 10713 10712 10709 ] final  -89.08 input   66.30 | X-H torsion
[ 10763 10752 10751 10750 ] final  147.68 input  -60.55 | X-H torsion
[ 11005 11000 10999 10996 ] final -132.99 input  -57.11 | X-H torsion

> <Gold.Protein.ActiveResidues>
 VAL166  LYS551  ARG553  GLY616  TRP617  ASP618  TYR619  PRO620  LYS621  CYS622 
 ASP623  PHE694  ASN695  SER759  ASP760  ASP761  ALA762  ILE779  LEU786  VAL792 
 PHE793  MET794  SER795  GLU796  ALA797  LYS798  CYS799  TRP800  GLU811  SER814 

> <Gold.Protein.RotatedAtoms>
  151.4955  133.3515  159.2860 H   0  0  0  0  0  0  0  0  0  0  0  0  # atno 6907 bound_to 6896
  150.8807  134.8199  159.7233 H   0  0  0  0  0  0  0  0  0  0  0  0  # atno 6908 bound_to 6896
  152.4760  134.4852  159.9730 H   0  0  0  0  0  0  0  0  0  0  0  0  # atno 6909 bound_to 6896
  146.1888  139.7465  142.8847 H   0  0  0  0  0  0  0  0  0  0  0  0  # atno 7974 bound_to 7965
  155.0509  140.0393  157.2543 H   0  0  0  0  0  0  0  0  0  0  0  0  # atno 8008 bound_to 7997
  154.7138  140.2698  155.6580 H   0  0  0  0  0  0  0  0  0  0  0  0  # atno 8009 bound_to 7997
  156.2797  140.2716  156.1788 H   0  0  0  0  0  0  0  0  0  0  0  0  # atno 8010 bound_to 7997
  140.2094  143.3758  152.1063 H   0  0  0  0  0  0  0  0  0  0  0  0  # atno 10167 bound_to 10162
  155.9984  130.4859  150.5117 H   0  0  0  0  0  0  0  0  0  0  0  0  # atno 10718 bound_to 10713
  154.0423  135.2888  155.3353 H   0  0  0  0  0  0  0  0  0  0  0  0  # atno 10763 bound_to 10752
  154.6921  135.5222  153.8410 H   0  0  0  0  0  0  0  0  0  0  0  0  # atno 10764 bound_to 10752
  153.0595  135.6608  154.0626 H   0  0  0  0  0  0  0  0  0  0  0  0  # atno 10765 bound_to 10752
  140.9121  134.1555  157.4381 H   0  0  0  0  0  0  0  0  0  0  0  0  # atno 11005 bound_to 11000
  145.3856  141.0365  143.3152 LP  0  0  0  0  0  0  0  0  0  0  0  0  # atno 17320 bound_to 7965
  144.8447  139.5415  143.6884 LP  0  0  0  0  0  0  0  0  0  0  0  0  # atno 17321 bound_to 7965
  139.5186  144.7008  151.5499 LP  0  0  0  0  0  0  0  0  0  0  0  0  # atno 17342 bound_to 10162
  140.6334  143.9031  150.6626 LP  0  0  0  0  0  0  0  0  0  0  0  0  # atno 17343 bound_to 10162
  157.3089  131.0660  151.2015 LP  0  0  0  0  0  0  0  0  0  0  0  0  # atno 17370 bound_to 10713
  157.2968  130.6823  149.6143 LP  0  0  0  0  0  0  0  0  0  0  0  0  # atno 17371 bound_to 10713
  139.8759  134.9939  156.5669 LP  0  0  0  0  0  0  0  0  0  0  0  0  # atno 17394 bound_to 11000
  140.8097  133.8439  155.8799 LP  0  0  0  0  0  0  0  0  0  0  0  0  # atno 17395 bound_to 11000

$$$$
