AV-unprocessed.smi:233|AV-procd|sdf|1783|dock1
  -GOLD-   2262020333D 1   1.00000     0.00000
 Structure written by MMmdl.
 59 62  0  0  0  0  0  0  0  0  1 V2000
  153.2925  142.3210  161.6651 C   0  0  0  0  0  0  0  0  0  0  0  0
  153.0966  141.7843  160.2512 C   0  0  0  0  0  0  0  0  0  0  0  0
  153.9290  141.0236  159.7584 O   0  0  0  0  0  0  0  0  0  0  0  0
  151.9880  142.1890  159.6129 N   0  0  0  0  0  0  0  0  0  0  0  0
  151.6038  141.8056  158.2576 C   0  0  2  0  0  0  0  0  0  0  0  0
  150.3692  142.6188  157.8253 C   0  0  0  0  0  0  0  0  0  0  0  0
  149.8778  142.2035  156.4296 C   0  0  0  0  0  0  0  0  0  0  0  0
  149.5830  140.6905  156.3722 C   0  0  1  0  0  0  0  0  0  0  0  0
  149.0509  140.2775  155.0683 N   0  0  0  0  0  0  0  0  0  0  0  0
  148.4680  141.2758  154.1723 C   0  0  0  0  0  0  0  0  0  0  0  0
  148.5074  139.0332  155.0277 C   0  0  0  0  0  0  0  0  0  0  0  0
  148.8790  138.1058  155.9510 N   0  0  0  0  0  0  0  0  0  0  0  0
  148.3607  136.8748  155.9188 C   0  0  0  0  0  0  0  0  0  0  0  0
  147.4711  136.3665  155.0645 N   0  0  0  0  0  0  0  0  0  0  0  0
  147.0909  137.2916  154.1375 C   0  0  0  0  0  0  0  0  0  0  0  0
  147.5504  138.6363  154.0507 C   0  0  0  0  0  0  0  0  0  0  0  0
  146.9173  139.2839  152.9960 N   0  0  0  0  0  0  0  0  0  0  0  0
  146.1325  138.3735  152.4873 C   0  0  0  0  0  0  0  0  0  0  0  0
  146.1949  137.1393  153.0939 N   0  0  0  0  0  0  0  0  0  0  0  0
  145.4183  135.9793  152.7684 C   0  0  0  0  0  0  0  0  0  0  0  0
  144.1373  136.0959  151.9393 C   0  0  0  0  0  0  0  0  0  0  0  0
  143.5343  134.9035  152.7160 C   0  0  0  0  0  0  0  0  0  0  0  0
  142.0558  135.0494  153.1122 C   0  0  0  0  0  0  0  0  0  0  0  0
  141.7270  134.1899  154.1846 O   0  0  0  0  0  0  0  0  0  0  0  0
  143.7508  133.5209  152.0684 C   0  0  0  0  0  0  0  0  0  0  0  0
  142.6997  133.1960  151.1812 O   0  0  0  0  0  0  0  0  0  0  0  0
  144.5498  135.2808  153.8175 C   0  0  0  0  0  0  0  0  0  0  0  0
  150.8286  139.8801  156.7843 C   0  0  0  0  0  0  0  0  0  0  0  0
  151.3171  140.2915  158.1826 C   0  0  0  0  0  0  0  0  0  0  0  0
  153.2301  143.4096  161.6737 H   0  0  0  0  0  0  0  0  0  0  0  0
  154.2684  142.0326  162.0573 H   0  0  0  0  0  0  0  0  0  0  0  0
  152.5257  141.9246  162.3313 H   0  0  0  0  0  0  0  0  0  0  0  0
  151.3624  142.8125  160.1022 H   0  0  0  0  0  0  0  0  0  0  0  0
  152.4209  142.0437  157.5736 H   0  0  0  0  0  0  0  0  0  0  0  0
  149.5623  142.4777  158.5461 H   0  0  0  0  0  0  0  0  0  0  0  0
  150.6034  143.6839  157.8286 H   0  0  0  0  0  0  0  0  0  0  0  0
  148.9818  142.7714  156.1766 H   0  0  0  0  0  0  0  0  0  0  0  0
  150.6334  142.4693  155.6895 H   0  0  0  0  0  0  0  0  0  0  0  0
  148.8265  140.4935  157.1313 H   0  0  0  0  0  0  0  0  0  0  0  0
  148.2874  140.8503  153.1843 H   0  0  0  0  0  0  0  0  0  0  0  0
  149.1357  142.1253  154.0383 H   0  0  0  0  0  0  0  0  0  0  0  0
  147.5198  141.6452  154.5632 H   0  0  0  0  0  0  0  0  0  0  0  0
  148.7095  136.2003  156.6867 H   0  0  0  0  0  0  0  0  0  0  0  0
  145.4860  138.5802  151.6469 H   0  0  0  0  0  0  0  0  0  0  0  0
  146.1115  135.2730  152.3087 H   0  0  0  0  0  0  0  0  0  0  0  0
  143.6108  137.0350  152.1200 H   0  0  0  0  0  0  0  0  0  0  0  0
  144.2785  135.9303  150.8708 H   0  0  0  0  0  0  0  0  0  0  0  0
  141.8380  136.0706  153.4264 H   0  0  0  0  0  0  0  0  0  0  0  0
  141.3910  134.8411  152.2738 H   0  0  0  0  0  0  0  0  0  0  0  0
  142.3374  133.4684  154.1883 H   0  0  0  0  0  0  0  0  0  0  0  0
  144.6822  133.4922  151.5027 H   0  0  0  0  0  0  0  0  0  0  0  0
  143.8313  132.7357  152.8205 H   0  0  0  0  0  0  0  0  0  0  0  0
  142.4366  133.9818  150.7271 H   0  0  0  0  0  0  0  0  0  0  0  0
  145.0283  134.4333  154.3091 H   0  0  0  0  0  0  0  0  0  0  0  0
  144.1383  135.9765  154.5513 H   0  0  0  0  0  0  0  0  0  0  0  0
  150.6000  138.8140  156.7752 H   0  0  0  0  0  0  0  0  0  0  0  0
  151.6395  140.0320  156.0718 H   0  0  0  0  0  0  0  0  0  0  0  0
  152.2141  139.7251  158.4357 H   0  0  0  0  0  0  0  0  0  0  0  0
  150.5627  140.0209  158.9226 H   0  0  0  0  0  0  0  0  0  0  0  0
  1  2  1  0  0  0  0
  1 30  1  0  0  0  0
  1 31  1  0  0  0  0
  1 32  1  0  0  0  0
  2  3  2  0  0  0  0
  2  4  1  0  0  0  0
  4  5  1  0  0  0  0
  4 33  1  0  0  0  0
  5 29  1  0  0  0  0
  5  6  1  0  0  0  0
  5 34  1  0  0  0  0
  6  7  1  0  0  0  0
  6 35  1  0  0  0  0
  6 36  1  0  0  0  0
  7  8  1  0  0  0  0
  7 37  1  0  0  0  0
  7 38  1  0  0  0  0
  8  9  1  0  0  0  0
  8 28  1  0  0  0  0
  8 39  1  0  0  0  0
  9 10  1  0  0  0  0
  9 11  1  0  0  0  0
 10 40  1  0  0  0  0
 10 41  1  0  0  0  0
 10 42  1  0  0  0  0
 11 16  1  0  0  0  0
 11 12  2  0  0  0  0
 12 13  1  0  0  0  0
 13 14  2  0  0  0  0
 13 43  1  0  0  0  0
 14 15  1  0  0  0  0
 15 19  1  0  0  0  0
 15 16  2  0  0  0  0
 16 17  1  0  0  0  0
 17 18  2  0  0  0  0
 18 19  1  0  0  0  0
 18 44  1  0  0  0  0
 19 20  1  0  0  0  0
 20 27  1  0  0  0  0
 20 21  1  0  0  0  0
 20 45  1  0  0  0  0
 21 22  1  0  0  0  0
 21 46  1  0  0  0  0
 21 47  1  0  0  0  0
 22 23  1  0  0  0  0
 22 25  1  0  0  0  0
 22 27  1  0  0  0  0
 23 24  1  0  0  0  0
 23 48  1  0  0  0  0
 23 49  1  0  0  0  0
 24 50  1  0  0  0  0
 25 26  1  0  0  0  0
 25 51  1  0  0  0  0
 25 52  1  0  0  0  0
 26 53  1  0  0  0  0
 27 54  1  0  0  0  0
 27 55  1  0  0  0  0
 28 29  1  0  0  0  0
 28 56  1  0  0  0  0
 28 57  1  0  0  0  0
 29 58  1  0  0  0  0
 29 59  1  0  0  0  0
M  END
> <s_m_source_file>
AV-unprocessed.smi

> <i_m_source_file_index>
233

> <i_lp_mmshare_version>
43012

> <i_f3d_flags>
0

> <s_epik_input>
W0NIM11DKD1PKVtOSF1bQ0BASF0xW0NIMl1bQ0gyXVtDQEhdKFtDSDJdW0NIMl0xKU4oW0NIM10pYyhuW2NIXW4yKWMoYzIzKW5bY0hdbjNbQ0hdKFtDSDJdNClbQ0gyXUM0KFtDSDJdW09IXSlbQ0gyXVtPSF0=

> <s_epik_cmdline>
J2VwaWtfcHl0aG9uJywgJy1waCcsICc3LjAnLCAnLXRuJywgJzgnLCAnLW1hJywgJzIwMCcsICctbWV0YWxfYmluZGluZycsICctaW1hZScsICc8aW5maWxlLm1hZT4nLCAnLW9tYWUnLCAnPG91dGZpbGUubWFlPic=

> <r_lp_tautomer_probability>
1

> <r_epik_Ionization_Penalty>
0.0029036

> <r_epik_Ionization_Penalty_Charging>
0

> <r_epik_Ionization_Penalty_Neutral>
0.0029036

> <r_epik_State_Penalty>
0.00183591

> <r_epik_Charging_Adjusted_Penalty>
0.00183591

> <i_epik_Tot_Q>
0

> <i_epik_Tot_abs_Q>
0

> <r_epik_Metal_State_Penalty>
-0

> <b_epik_Metal_Only>
0

> <s_lp_Force_Field>
OPLS_2005

> <r_lp_Energy>
37.3152

> <b_lp_Chiralities_Consistent>
1

> <s_lp_Variant>
AV-unprocessed.smi:233-1

> <Gold.Version>
5.8.1

> <Gold.Id.Protein>
6NUR|6NUR_protein|mol2

> <Gold.PLP.Fitness>
49.7704

> <Gold.PLP.PLP>
-39.3405

> <Gold.PLP.part.hbond>
-3.0000

> <Gold.PLP.part.metal>
0.0000

> <Gold.PLP.part.buried>
-3.9511

> <Gold.PLP.part.nonpolar>
-33.3827

> <Gold.PLP.part.repulsive>
0.4747

> <Gold.PLP.ligand.clash>
0.0000

> <Gold.PLP.ligand.torsion>
1.2932

> <Gold.PLP.Chemscore.Hbond>
2.6160

> <Gold.PLP.Chemscore.CHOScore>
1.1665

> <Gold.PLP.Chemscore.Metal>
0.0000

> <Gold.Chemscore.Hbonds>
donor molecule, donor type, donor heavy atom, donor atom, acceptor molecule, acceptor atom, score
      L1  H    24    50       P1 10957  0.90
      L1  H    26    53       P1 10186  0.69
      P1  H 11000 11005       L1    24  1.00
      L1  C    18    44       P1 10171  1.00
      L1  C    18    44       P1 10175  0.29

> <Gold.PLP.Chemscore.Internal.Correction>
1.6687

> <Gold.Rescore>
     Score         DG    S(hbond)    S(metal)    S(lipo)     H(rot)  DE(clash)    DE(int)     intcor
      8.76     -13.42       2.18        0.00      83.81       3.57       0.55       4.11       ----

> <Gold.Chemscore.Fitness>
8.7576

> <Gold.Chemscore.DG>
-13.4153

> <Gold.Chemscore.ZeroCoef>
-5.4800

> <Gold.Chemscore.Hbond>
2.1777

> <Gold.Chemscore.Metal>
0.0000

> <Gold.Chemscore.Lipo>
83.8095

> <Gold.Chemscore.Internal_Hbond>
0.0000

> <Gold.Chemscore.DEClash>
0.5505

> <Gold.Chemscore.DEInternal>
4.1071

> <Gold.Chemscore.Rot>
3.5719

> <Gold.Chemscore.Internal.Correction>
   9.000000E+99

> <Gold.Chemscore.Hbonds>
donor molecule, donor type, donor heavy atom, donor atom, acceptor molecule, acceptor atom, score
      L1  H    24    50       P1 10957  0.88
      L1  H    26    53       P1 10186  0.46
      P1  H 11000 11005       L1    24  0.55

> <Gold.Chemscore.Hbond.Weighted>
-7.2735

> <Gold.Chemscore.Metal.Weighted>
-0.0000

> <Gold.Chemscore.Lipo.Weighted>
-9.8057

> <Gold.Chemscore.Internal_Hbond.Weighted>
0.0000

> <Gold.Chemscore.DEClash.Weighted>
0.5505

> <Gold.Chemscore.DEInternal.Weighted>
4.1071

> <Gold.Chemscore.Rot.Weighted>
9.1440

> <Gold.Chemscore.Internal.Correction.Weighted>
   9.000000E+99

> <Gold.Protein.RotatedTorsions>
[ 6907 6896 6895 6894 ] final   33.48 input  -60.11 | X-H torsion
[ 7974 7965 7964 7962 ] final   -2.89 input  175.53 | X-H torsion
[ 8008 7997 7996 7995 ] final   95.29 input   59.86 | X-H torsion
[ 10167 10162 10161 10158 ] final   50.69 input  -65.29 | X-H torsion
[ 10718 10713 10712 10709 ] final -155.23 input   66.30 | X-H torsion
[ 10763 10752 10751 10750 ] final -119.55 input  -60.55 | X-H torsion
[ 11005 11000 10999 10996 ] final    1.62 input  -57.11 | X-H torsion

> <Gold.Protein.ActiveResidues>
 VAL166  LYS551  ARG553  GLY616  TRP617  ASP618  TYR619  PRO620  LYS621  CYS622 
 ASP623  PHE694  ASN695  SER759  ASP760  ASP761  ALA762  ILE779  LEU786  VAL792 
 PHE793  MET794  SER795  GLU796  ALA797  LYS798  CYS799  TRP800  GLU811  SER814 

> <Gold.Protein.RotatedAtoms>
  152.0891  134.9419  160.0571 H   0  0  0  0  0  0  0  0  0  0  0  0  # atno 6907 bound_to 6896
  152.0677  133.4087  159.4454 H   0  0  0  0  0  0  0  0  0  0  0  0  # atno 6908 bound_to 6896
  150.6836  134.3047  159.4765 H   0  0  0  0  0  0  0  0  0  0  0  0  # atno 6909 bound_to 6896
  146.2398  140.1639  142.8332 H   0  0  0  0  0  0  0  0  0  0  0  0  # atno 7974 bound_to 7965
  156.0673  140.3288  155.7533 H   0  0  0  0  0  0  0  0  0  0  0  0  # atno 8008 bound_to 7997
  155.5361  140.0597  157.2897 H   0  0  0  0  0  0  0  0  0  0  0  0  # atno 8009 bound_to 7997
  154.4512  140.1919  156.0532 H   0  0  0  0  0  0  0  0  0  0  0  0  # atno 8010 bound_to 7997
  140.2697  144.3279  150.6293 H   0  0  0  0  0  0  0  0  0  0  0  0  # atno 10167 bound_to 10162
  156.5100  130.8430  151.2642 H   0  0  0  0  0  0  0  0  0  0  0  0  # atno 10718 bound_to 10713
  154.8620  135.4234  154.2317 H   0  0  0  0  0  0  0  0  0  0  0  0  # atno 10763 bound_to 10752
  153.3301  135.6987  153.6961 H   0  0  0  0  0  0  0  0  0  0  0  0  # atno 10764 bound_to 10752
  153.5981  135.3542  155.2909 H   0  0  0  0  0  0  0  0  0  0  0  0  # atno 10765 bound_to 10752
  140.6135  133.9727  155.8189 H   0  0  0  0  0  0  0  0  0  0  0  0  # atno 11005 bound_to 11000
  145.0066  140.8678  143.5249 LP  0  0  0  0  0  0  0  0  0  0  0  0  # atno 17320 bound_to 7965
  145.1666  139.2428  143.5363 LP  0  0  0  0  0  0  0  0  0  0  0  0  # atno 17321 bound_to 7965
  140.5899  143.2168  151.7272 LP  0  0  0  0  0  0  0  0  0  0  0  0  # atno 17342 bound_to 10162
  139.4992  144.3954  152.0236 LP  0  0  0  0  0  0  0  0  0  0  0  0  # atno 17343 bound_to 10162
  157.7452  130.9953  150.2738 LP  0  0  0  0  0  0  0  0  0  0  0  0  # atno 17370 bound_to 10713
  156.3250  130.3791  149.7541 LP  0  0  0  0  0  0  0  0  0  0  0  0  # atno 17371 bound_to 10713
  141.0792  134.0088  157.3412 LP  0  0  0  0  0  0  0  0  0  0  0  0  # atno 17394 bound_to 11000
  139.9182  135.0198  156.7965 LP  0  0  0  0  0  0  0  0  0  0  0  0  # atno 17395 bound_to 11000

$$$$
