AV-unprocessed.smi:277|AV-procd|sdf|2086|dock4
  -GOLD-   2262021363D 1   1.00000     0.00000
 Structure written by MMmdl.
 54 58  0  0  0  0  0  0  0  0  1 V2000
  154.5998  141.3867  162.0696 O   0  0  0  0  0  0  0  0  0  0  0  0
  153.8093  141.3622  161.1277 C   0  0  0  0  0  0  0  0  0  0  0  0
  153.6636  140.1676  160.2035 C   0  0  0  0  0  0  0  0  0  0  0  0
  152.6240  140.6291  159.2907 N   0  0  0  0  0  0  0  0  0  0  0  0
  151.9917  139.8005  158.4190 C   0  0  0  0  0  0  0  0  0  0  0  0
  152.0343  138.4631  158.6588 N   0  0  0  0  0  0  0  0  0  0  0  0
  151.4250  137.6042  157.8377 C   0  0  0  0  0  0  0  0  0  0  0  0
  150.7252  137.8625  156.7328 N   0  0  0  0  0  0  0  0  0  0  0  0
  150.6797  139.2011  156.4782 C   0  0  0  0  0  0  0  0  0  0  0  0
  151.2848  140.2309  157.2561 C   0  0  0  0  0  0  0  0  0  0  0  0
  151.0331  141.4648  156.6649 N   0  0  0  0  0  0  0  0  0  0  0  0
  150.3204  141.1816  155.6098 C   0  0  0  0  0  0  0  0  0  0  0  0
  150.0418  139.8459  155.4321 N   0  0  0  0  0  0  0  0  0  0  0  0
  149.2736  139.2478  154.3487 C   0  0  0  0  0  0  0  0  0  0  0  0
  147.8293  139.8074  154.1543 C   0  0  0  0  0  0  0  0  0  0  0  0
  147.1981  139.0691  152.9392 C   0  0  0  0  0  0  0  0  0  0  0  0
  147.0415  137.6828  153.1689 O   0  0  0  0  0  0  0  0  0  0  0  0
  146.9668  139.6317  155.4322 C   0  0  0  0  0  0  0  0  0  0  0  0
  145.6090  140.3503  155.3344 C   0  0  0  0  0  0  0  0  0  0  0  0
  145.8130  141.7349  155.0817 O   0  0  0  0  0  0  0  0  0  0  0  0
  146.4805  141.9844  153.8511 C   0  0  0  0  0  0  0  0  0  0  0  0
  147.8757  141.3304  153.8637 C   0  0  0  0  0  0  0  0  0  0  0  0
  152.1288  141.9530  159.6432 C   0  0  0  0  0  0  0  0  0  0  0  0
  152.9618  142.3349  160.7716 N   0  0  0  0  0  0  0  0  0  0  0  0
  152.7554  143.6133  161.4474 C   0  0  0  0  0  0  0  0  0  0  0  0
  151.7359  144.5402  160.8102 C   0  0  0  0  0  0  0  0  0  0  0  0
  151.8473  144.9532  159.3598 C   0  0  0  0  0  0  0  0  0  0  0  0
  152.1228  145.9562  160.4518 C   0  0  0  0  0  0  0  0  0  0  0  0
  154.5960  139.9642  159.6755 H   0  0  0  0  0  0  0  0  0  0  0  0
  153.3554  139.2857  160.7671 H   0  0  0  0  0  0  0  0  0  0  0  0
  151.5079  136.5612  158.1056 H   0  0  0  0  0  0  0  0  0  0  0  0
  149.9681  141.9456  154.9322 H   0  0  0  0  0  0  0  0  0  0  0  0
  149.8457  139.3721  153.4283 H   0  0  0  0  0  0  0  0  0  0  0  0
  149.2424  138.1733  154.5324 H   0  0  0  0  0  0  0  0  0  0  0  0
  146.2181  139.4653  152.6809 H   0  0  0  0  0  0  0  0  0  0  0  0
  147.8205  139.1988  152.0531 H   0  0  0  0  0  0  0  0  0  0  0  0
  147.8129  137.2363  152.8549 H   0  0  0  0  0  0  0  0  0  0  0  0
  146.8169  138.5758  155.6577 H   0  0  0  0  0  0  0  0  0  0  0  0
  147.4850  140.0505  156.2940 H   0  0  0  0  0  0  0  0  0  0  0  0
  144.9737  139.9121  154.5643 H   0  0  0  0  0  0  0  0  0  0  0  0
  145.0698  140.2477  156.2762 H   0  0  0  0  0  0  0  0  0  0  0  0
  145.8744  141.6364  153.0147 H   0  0  0  0  0  0  0  0  0  0  0  0
  146.5818  143.0628  153.7274 H   0  0  0  0  0  0  0  0  0  0  0  0
  148.4554  141.8421  154.6304 H   0  0  0  0  0  0  0  0  0  0  0  0
  148.3858  141.5222  152.9189 H   0  0  0  0  0  0  0  0  0  0  0  0
  152.2566  142.6536  158.8171 H   0  0  0  0  0  0  0  0  0  0  0  0
  151.0794  141.9217  159.9394 H   0  0  0  0  0  0  0  0  0  0  0  0
  152.4342  143.4205  162.4717 H   0  0  0  0  0  0  0  0  0  0  0  0
  153.7142  144.1279  161.5235 H   0  0  0  0  0  0  0  0  0  0  0  0
  150.7285  144.4217  161.2055 H   0  0  0  0  0  0  0  0  0  0  0  0
  152.6972  144.5807  158.7915 H   0  0  0  0  0  0  0  0  0  0  0  0
  150.9221  145.0593  158.7972 H   0  0  0  0  0  0  0  0  0  0  0  0
  151.3826  146.7363  160.6172 H   0  0  0  0  0  0  0  0  0  0  0  0
  153.1578  146.2546  160.6085 H   0  0  0  0  0  0  0  0  0  0  0  0
  1  2  2  0  0  0  0
  2 24  1  0  0  0  0
  2  3  1  0  0  0  0
  3  4  1  0  0  0  0
  3 29  1  0  0  0  0
  3 30  1  0  0  0  0
  4  5  1  0  0  0  0
  4 23  1  0  0  0  0
  5 10  1  0  0  0  0
  5  6  2  0  0  0  0
  6  7  1  0  0  0  0
  7  8  2  0  0  0  0
  7 31  1  0  0  0  0
  8  9  1  0  0  0  0
  9 13  1  0  0  0  0
  9 10  2  0  0  0  0
 10 11  1  0  0  0  0
 11 12  2  0  0  0  0
 12 13  1  0  0  0  0
 12 32  1  0  0  0  0
 13 14  1  0  0  0  0
 14 15  1  0  0  0  0
 14 33  1  0  0  0  0
 14 34  1  0  0  0  0
 15 22  1  0  0  0  0
 15 16  1  0  0  0  0
 15 18  1  0  0  0  0
 16 17  1  0  0  0  0
 16 35  1  0  0  0  0
 16 36  1  0  0  0  0
 17 37  1  0  0  0  0
 18 19  1  0  0  0  0
 18 38  1  0  0  0  0
 18 39  1  0  0  0  0
 19 20  1  0  0  0  0
 19 40  1  0  0  0  0
 19 41  1  0  0  0  0
 20 21  1  0  0  0  0
 21 22  1  0  0  0  0
 21 42  1  0  0  0  0
 21 43  1  0  0  0  0
 22 44  1  0  0  0  0
 22 45  1  0  0  0  0
 23 24  1  0  0  0  0
 23 46  1  0  0  0  0
 23 47  1  0  0  0  0
 24 25  1  0  0  0  0
 25 26  1  0  0  0  0
 25 48  1  0  0  0  0
 25 49  1  0  0  0  0
 26 28  1  0  0  0  0
 26 27  1  0  0  0  0
 26 50  1  0  0  0  0
 27 28  1  0  0  0  0
 27 51  1  0  0  0  0
 27 52  1  0  0  0  0
 28 53  1  0  0  0  0
 28 54  1  0  0  0  0
M  END
> <s_m_source_file>
AV-unprocessed.smi

> <i_m_source_file_index>
277

> <i_lp_mmshare_version>
43012

> <i_f3d_flags>
0

> <s_epik_input>
W0NIMl0xW0NIMl1bQ0hdMVtDSDJdTjJbQ0gyXU4oW0NIMl1DMj1PKWMobltjSF1uMyljKGMzNCluW2NIXW40W0NIMl1DNShbQ0gyXVtPSF0pW0NIMl1bQ0gyXU9bQ0gyXVtDSDJdNQ==

> <s_epik_cmdline>
J2VwaWtfcHl0aG9uJywgJy1waCcsICc3LjAnLCAnLXRuJywgJzgnLCAnLW1hJywgJzIwMCcsICctbWV0YWxfYmluZGluZycsICctaW1hZScsICc8aW5maWxlLm1hZT4nLCAnLW9tYWUnLCAnPG91dGZpbGUubWFlPic=

> <r_lp_tautomer_probability>
1

> <r_epik_Ionization_Penalty>
0.00033977

> <r_epik_Ionization_Penalty_Charging>
0

> <r_epik_Ionization_Penalty_Neutral>
0.00033977

> <r_epik_State_Penalty>
-0

> <r_epik_Charging_Adjusted_Penalty>
0

> <i_epik_Tot_Q>
0

> <i_epik_Tot_abs_Q>
0

> <r_epik_Metal_State_Penalty>
-0

> <b_epik_Metal_Only>
0

> <s_epik_Chemistry_Notes>
This compound contains an acetal/aminal-like group ( X-CH(R)-Y where X, Y are N, S, or O) that may be acid/base labile, releasing an aldehyde.

> <s_lp_Force_Field>
OPLS_2005

> <r_lp_Energy>
42.4244

> <b_lp_Chiralities_Consistent>
1

> <s_lp_Variant>
AV-unprocessed.smi:277-1

> <Gold.Version>
5.8.1

> <Gold.Id.Protein>
6NUR|6NUR_protein|mol2

> <Gold.PLP.Fitness>
55.0989

> <Gold.PLP.PLP>
-52.9343

> <Gold.PLP.part.hbond>
-2.0000

> <Gold.PLP.part.metal>
0.0000

> <Gold.PLP.part.buried>
-7.3504

> <Gold.PLP.part.nonpolar>
-43.0616

> <Gold.PLP.part.repulsive>
0.1966

> <Gold.PLP.ligand.clash>
0.0000

> <Gold.PLP.ligand.torsion>
0.7641

> <Gold.PLP.Chemscore.Hbond>
1.0000

> <Gold.PLP.Chemscore.CHOScore>
0.0000

> <Gold.PLP.Chemscore.Metal>
0.0000

> <Gold.Chemscore.Hbonds>
donor molecule, donor type, donor heavy atom, donor atom, acceptor molecule, acceptor atom, score
      L1  H    17    37       P1  7948  1.00

> <Gold.PLP.Chemscore.Internal.Correction>
0.6928

> <Gold.Rescore>
     Score         DG    S(hbond)    S(metal)    S(lipo)     H(rot)  DE(clash)    DE(int)     intcor
     12.00     -13.12       0.99        0.00      98.49       2.80       0.32       0.80       ----

> <Gold.Chemscore.Fitness>
12.0020

> <Gold.Chemscore.DG>
-13.1201

> <Gold.Chemscore.ZeroCoef>
-5.4800

> <Gold.Chemscore.Hbond>
0.9850

> <Gold.Chemscore.Metal>
0.0000

> <Gold.Chemscore.Lipo>
98.4871

> <Gold.Chemscore.Internal_Hbond>
0.0000

> <Gold.Chemscore.DEClash>
0.3212

> <Gold.Chemscore.DEInternal>
0.7970

> <Gold.Chemscore.Rot>
2.8019

> <Gold.Chemscore.Internal.Correction>
   9.000000E+99

> <Gold.Chemscore.Hbonds>
donor molecule, donor type, donor heavy atom, donor atom, acceptor molecule, acceptor atom, score
      L1  H    17    37       P1  7948  1.00

> <Gold.Chemscore.Hbond.Weighted>
-3.2901

> <Gold.Chemscore.Metal.Weighted>
-0.0000

> <Gold.Chemscore.Lipo.Weighted>
-11.5230

> <Gold.Chemscore.Internal_Hbond.Weighted>
0.0000

> <Gold.Chemscore.DEClash.Weighted>
0.3212

> <Gold.Chemscore.DEInternal.Weighted>
0.7970

> <Gold.Chemscore.Rot.Weighted>
7.1729

> <Gold.Chemscore.Internal.Correction.Weighted>
   9.000000E+99

> <Gold.Protein.RotatedTorsions>
[ 6907 6896 6895 6894 ] final  115.38 input  -60.11 | X-H torsion
[ 7974 7965 7964 7962 ] final  -45.76 input  175.53 | X-H torsion
[ 8008 7997 7996 7995 ] final  -96.12 input   59.86 | X-H torsion
[ 10167 10162 10161 10158 ] final  -54.19 input  -65.29 | X-H torsion
[ 10718 10713 10712 10709 ] final  168.10 input   66.30 | X-H torsion
[ 10763 10752 10751 10750 ] final  -36.03 input  -60.55 | X-H torsion
[ 11005 11000 10999 10996 ] final -147.28 input  -57.11 | X-H torsion

> <Gold.Protein.ActiveResidues>
 VAL166  LYS551  ARG553  GLY616  TRP617  ASP618  TYR619  PRO620  LYS621  CYS622 
 ASP623  PHE694  ASN695  SER759  ASP760  ASP761  ALA762  ILE779  LEU786  VAL792 
 PHE793  MET794  SER795  GLU796  ALA797  LYS798  CYS799  TRP800  GLU811  SER814 

> <Gold.Protein.RotatedAtoms>
  152.4745  133.8106  159.7001 H   0  0  0  0  0  0  0  0  0  0  0  0  # atno 6907 bound_to 6896
  150.8753  133.7437  159.2955 H   0  0  0  0  0  0  0  0  0  0  0  0  # atno 6908 bound_to 6896
  151.4959  135.1063  159.9868 H   0  0  0  0  0  0  0  0  0  0  0  0  # atno 6909 bound_to 6896
  145.9788  140.7305  142.9374 H   0  0  0  0  0  0  0  0  0  0  0  0  # atno 7974 bound_to 7965
  154.7703  140.0474  157.1046 H   0  0  0  0  0  0  0  0  0  0  0  0  # atno 8008 bound_to 7997
  154.9828  140.3103  155.4919 H   0  0  0  0  0  0  0  0  0  0  0  0  # atno 8009 bound_to 7997
  156.2920  140.2233  156.4928 H   0  0  0  0  0  0  0  0  0  0  0  0  # atno 8010 bound_to 7997
  140.6444  143.2526  151.4900 H   0  0  0  0  0  0  0  0  0  0  0  0  # atno 10167 bound_to 10162
  157.0420  131.0289  151.2710 H   0  0  0  0  0  0  0  0  0  0  0  0  # atno 10718 bound_to 10713
  153.8731  135.6829  153.4773 H   0  0  0  0  0  0  0  0  0  0  0  0  # atno 10763 bound_to 10752
  153.1276  135.4712  154.9295 H   0  0  0  0  0  0  0  0  0  0  0  0  # atno 10764 bound_to 10752
  154.7705  135.3237  154.8151 H   0  0  0  0  0  0  0  0  0  0  0  0  # atno 10765 bound_to 10752
  140.7733  134.3164  157.5068 H   0  0  0  0  0  0  0  0  0  0  0  0  # atno 11005 bound_to 11000
  144.6856  140.2874  143.7283 LP  0  0  0  0  0  0  0  0  0  0  0  0  # atno 17320 bound_to 7965
  145.7799  139.1887  143.2163 LP  0  0  0  0  0  0  0  0  0  0  0  0  # atno 17321 bound_to 7965
  139.5654  144.2055  152.1757 LP  0  0  0  0  0  0  0  0  0  0  0  0  # atno 17342 bound_to 10162
  140.1335  144.5267  150.6788 LP  0  0  0  0  0  0  0  0  0  0  0  0  # atno 17343 bound_to 10162
  157.5097  130.7931  149.7692 LP  0  0  0  0  0  0  0  0  0  0  0  0  # atno 17370 bound_to 10713
  156.0035  130.3867  150.2517 LP  0  0  0  0  0  0  0  0  0  0  0  0  # atno 17371 bound_to 10713
  139.8753  134.9274  156.3424 LP  0  0  0  0  0  0  0  0  0  0  0  0  # atno 17394 bound_to 11000
  140.9553  133.7424  156.0327 LP  0  0  0  0  0  0  0  0  0  0  0  0  # atno 17395 bound_to 11000

$$$$
