AV-unprocessed.smi:76|AV-procd|sdf|768|dock2
  -GOLD-   2262017113D 1   1.00000     0.00000
 Structure written by MMmdl.
 55 58  0  0  0  0  0  0  0  0  1 V2000
  148.0999  141.0201  157.8242 C   0  0  0  0  0  0  0  0  0  0  0  0
  149.3390  141.8978  157.5505 C   0  0  1  0  0  0  0  0  0  0  0  0
  149.6076  142.8158  158.7616 C   0  0  0  0  0  0  0  0  0  0  0  0
  150.8540  143.6982  158.5525 C   0  0  1  0  0  0  0  0  0  0  0  0
  151.1267  144.6210  159.7573 C   0  0  0  0  0  0  0  0  0  0  0  0
  149.9968  145.1757  160.1972 F   0  0  0  0  0  0  0  0  0  0  0  0
  151.6787  143.9222  160.7492 F   0  0  0  0  0  0  0  0  0  0  0  0
  151.9746  145.5884  159.4080 F   0  0  0  0  0  0  0  0  0  0  0  0
  152.0568  142.7933  158.2274 C   0  0  0  0  0  0  0  0  0  0  0  0
  151.7544  141.8915  157.0225 C   0  0  0  0  0  0  0  0  0  0  0  0
  150.5399  141.1087  157.2409 N   0  0  0  0  0  0  0  0  0  0  0  0
  150.3930  140.1678  156.2816 C   0  0  0  0  0  0  0  0  0  0  0  0
  149.9718  140.5872  155.0637 N   0  0  0  0  0  0  0  0  0  0  0  0
  149.8209  139.7058  154.0706 C   0  0  0  0  0  0  0  0  0  0  0  0
  150.0272  138.3870  154.0867 N   0  0  0  0  0  0  0  0  0  0  0  0
  150.4368  137.9607  155.3160 C   0  0  0  0  0  0  0  0  0  0  0  0
  150.6482  138.7788  156.4609 C   0  0  0  0  0  0  0  0  0  0  0  0
  151.0749  137.9998  157.5289 N   0  0  0  0  0  0  0  0  0  0  0  0
  151.1175  136.7902  157.0414 C   0  0  0  0  0  0  0  0  0  0  0  0
  150.7325  136.6709  155.7242 N   0  0  0  0  0  0  0  0  0  0  0  0
  150.6913  135.4469  154.9355 C   0  0  0  0  0  0  0  0  0  0  0  0
  149.5755  134.4323  155.3433 C   0  0  0  0  0  0  0  0  0  0  0  0
  148.1803  135.1116  155.3374 C   0  0  0  0  0  0  0  0  0  0  0  0
  147.7190  135.3803  154.0285 O   0  0  0  0  0  0  0  0  0  0  0  0
  149.5651  133.2295  154.3666 C   0  0  0  0  0  0  0  0  0  0  0  0
  150.7810  132.3007  154.5458 C   0  0  0  0  0  0  0  0  0  0  0  0
  150.8608  131.8502  155.8923 O   0  0  0  0  0  0  0  0  0  0  0  0
  151.0257  132.9122  156.8233 C   0  0  0  0  0  0  0  0  0  0  0  0
  149.8074  133.8499  156.7605 C   0  0  0  0  0  0  0  0  0  0  0  0
  147.2416  141.6331  158.0998 H   0  0  0  0  0  0  0  0  0  0  0  0
  148.2833  140.3204  158.6404 H   0  0  0  0  0  0  0  0  0  0  0  0
  147.8064  140.4418  156.9478 H   0  0  0  0  0  0  0  0  0  0  0  0
  149.1217  142.5355  156.6931 H   0  0  0  0  0  0  0  0  0  0  0  0
  148.7359  143.4456  158.9422 H   0  0  0  0  0  0  0  0  0  0  0  0
  149.7381  142.2082  159.6584 H   0  0  0  0  0  0  0  0  0  0  0  0
  150.6705  144.3347  157.6854 H   0  0  0  0  0  0  0  0  0  0  0  0
  152.9397  143.3972  158.0172 H   0  0  0  0  0  0  0  0  0  0  0  0
  152.3019  142.1751  159.0921 H   0  0  0  0  0  0  0  0  0  0  0  0
  151.6386  142.5034  156.1267 H   0  0  0  0  0  0  0  0  0  0  0  0
  152.5998  141.2247  156.8447 H   0  0  0  0  0  0  0  0  0  0  0  0
  149.4877  140.1159  153.1285 H   0  0  0  0  0  0  0  0  0  0  0  0
  151.4275  135.9442  157.6374 H   0  0  0  0  0  0  0  0  0  0  0  0
  150.5778  135.7262  153.8875 H   0  0  0  0  0  0  0  0  0  0  0  0
  151.6781  134.9907  155.0002 H   0  0  0  0  0  0  0  0  0  0  0  0
  147.4417  134.4718  155.8220 H   0  0  0  0  0  0  0  0  0  0  0  0
  148.1932  136.0434  155.9029 H   0  0  0  0  0  0  0  0  0  0  0  0
  148.4642  135.5952  153.4874 H   0  0  0  0  0  0  0  0  0  0  0  0
  148.6621  132.6386  154.5272 H   0  0  0  0  0  0  0  0  0  0  0  0
  149.5177  133.5747  153.3333 H   0  0  0  0  0  0  0  0  0  0  0  0
  150.6787  131.4310  153.8964 H   0  0  0  0  0  0  0  0  0  0  0  0
  151.7100  132.7934  154.2582 H   0  0  0  0  0  0  0  0  0  0  0  0
  151.1132  132.4868  157.8230 H   0  0  0  0  0  0  0  0  0  0  0  0
  151.9566  133.4453  156.6290 H   0  0  0  0  0  0  0  0  0  0  0  0
  149.8997  134.6408  157.5038 H   0  0  0  0  0  0  0  0  0  0  0  0
  148.9317  133.2730  157.0617 H   0  0  0  0  0  0  0  0  0  0  0  0
  1  2  1  0  0  0  0
  1 30  1  0  0  0  0
  1 31  1  0  0  0  0
  1 32  1  0  0  0  0
  2 11  1  0  0  0  0
  2  3  1  0  0  0  0
  2 33  1  0  0  0  0
  3  4  1  0  0  0  0
  3 34  1  0  0  0  0
  3 35  1  0  0  0  0
  4  5  1  0  0  0  0
  4  9  1  0  0  0  0
  4 36  1  0  0  0  0
  5  6  1  0  0  0  0
  5  7  1  0  0  0  0
  5  8  1  0  0  0  0
  9 10  1  0  0  0  0
  9 37  1  0  0  0  0
  9 38  1  0  0  0  0
 10 11  1  0  0  0  0
 10 39  1  0  0  0  0
 10 40  1  0  0  0  0
 11 12  1  0  0  0  0
 12 17  1  0  0  0  0
 12 13  2  0  0  0  0
 13 14  1  0  0  0  0
 14 15  2  0  0  0  0
 14 41  1  0  0  0  0
 15 16  1  0  0  0  0
 16 20  1  0  0  0  0
 16 17  2  0  0  0  0
 17 18  1  0  0  0  0
 18 19  2  0  0  0  0
 19 20  1  0  0  0  0
 19 42  1  0  0  0  0
 20 21  1  0  0  0  0
 21 22  1  0  0  0  0
 21 43  1  0  0  0  0
 21 44  1  0  0  0  0
 22 29  1  0  0  0  0
 22 23  1  0  0  0  0
 22 25  1  0  0  0  0
 23 24  1  0  0  0  0
 23 45  1  0  0  0  0
 23 46  1  0  0  0  0
 24 47  1  0  0  0  0
 25 26  1  0  0  0  0
 25 48  1  0  0  0  0
 25 49  1  0  0  0  0
 26 27  1  0  0  0  0
 26 50  1  0  0  0  0
 26 51  1  0  0  0  0
 27 28  1  0  0  0  0
 28 29  1  0  0  0  0
 28 52  1  0  0  0  0
 28 53  1  0  0  0  0
 29 54  1  0  0  0  0
 29 55  1  0  0  0  0
M  END
> <s_m_source_file>
AV-unprocessed.smi

> <i_m_source_file_index>
76

> <i_lp_mmshare_version>
43012

> <i_f3d_flags>
0

> <s_epik_input>
W0NIM11bQ0BASF0xW0NIMl1bQ0BASF0oQyhGKShGKUYpW0NIMl1bQ0gyXU4xYyhuW2NIXW4yKWMoYzIzKW5bY0hdbjNbQ0gyXUM0KFtDSDJdW09IXSlbQ0gyXVtDSDJdT1tDSDJdW0NIMl00

> <s_epik_cmdline>
J2VwaWtfcHl0aG9uJywgJy1waCcsICc3LjAnLCAnLXRuJywgJzgnLCAnLW1hJywgJzIwMCcsICctbWV0YWxfYmluZGluZycsICctaW1hZScsICc8aW5maWxlLm1hZT4nLCAnLW9tYWUnLCAnPG91dGZpbGUubWFlPic=

> <r_lp_tautomer_probability>
1

> <r_epik_Ionization_Penalty>
0.00244097

> <r_epik_Ionization_Penalty_Charging>
0

> <r_epik_Ionization_Penalty_Neutral>
0.00244097

> <r_epik_State_Penalty>
0.00151846

> <r_epik_Charging_Adjusted_Penalty>
0.00151846

> <i_epik_Tot_Q>
0

> <i_epik_Tot_abs_Q>
0

> <r_epik_Metal_State_Penalty>
-0

> <b_epik_Metal_Only>
0

> <s_lp_Force_Field>
OPLS_2005

> <r_lp_Energy>
36.6064

> <b_lp_Chiralities_Consistent>
1

> <s_lp_Variant>
AV-unprocessed.smi:76-2

> <Gold.Version>
5.8.1

> <Gold.Id.Protein>
6NUR|6NUR_protein|mol2

> <Gold.PLP.Fitness>
40.4208

> <Gold.PLP.PLP>
-36.3657

> <Gold.PLP.part.hbond>
-1.6057

> <Gold.PLP.part.metal>
0.0000

> <Gold.PLP.part.buried>
-5.3392

> <Gold.PLP.part.nonpolar>
-29.1115

> <Gold.PLP.part.repulsive>
0.3709

> <Gold.PLP.ligand.clash>
0.0000

> <Gold.PLP.ligand.torsion>
0.7516

> <Gold.PLP.Chemscore.Hbond>
0.9920

> <Gold.PLP.Chemscore.CHOScore>
0.7839

> <Gold.PLP.Chemscore.Metal>
0.0000

> <Gold.Chemscore.Hbonds>
donor molecule, donor type, donor heavy atom, donor atom, acceptor molecule, acceptor atom, score
      L1  H    24    47       P1  7948  0.90
      L1  C    14    41       P1  7957  0.86

> <Gold.PLP.Chemscore.Internal.Correction>
0.2305

> <Gold.Rescore>
     Score         DG    S(hbond)    S(metal)    S(lipo)     H(rot)  DE(clash)    DE(int)     intcor
      9.78     -11.96       0.99        0.00      81.04       2.47       1.46       0.72       ----

> <Gold.Chemscore.Fitness>
9.7761

> <Gold.Chemscore.DG>
-11.9580

> <Gold.Chemscore.ZeroCoef>
-5.4800

> <Gold.Chemscore.Hbond>
0.9910

> <Gold.Chemscore.Metal>
0.0000

> <Gold.Chemscore.Lipo>
81.0448

> <Gold.Chemscore.Internal_Hbond>
0.0000

> <Gold.Chemscore.DEClash>
1.4622

> <Gold.Chemscore.DEInternal>
0.7197

> <Gold.Chemscore.Rot>
2.4665

> <Gold.Chemscore.Internal.Correction>
   9.000000E+99

> <Gold.Chemscore.Hbonds>
donor molecule, donor type, donor heavy atom, donor atom, acceptor molecule, acceptor atom, score
      L1  H    24    47       P1  7948  0.88

> <Gold.Chemscore.Hbond.Weighted>
-3.3099

> <Gold.Chemscore.Metal.Weighted>
-0.0000

> <Gold.Chemscore.Lipo.Weighted>
-9.4822

> <Gold.Chemscore.Internal_Hbond.Weighted>
0.0000

> <Gold.Chemscore.DEClash.Weighted>
1.4622

> <Gold.Chemscore.DEInternal.Weighted>
0.7197

> <Gold.Chemscore.Rot.Weighted>
6.3142

> <Gold.Chemscore.Internal.Correction.Weighted>
   9.000000E+99

> <Gold.Protein.RotatedTorsions>
[ 6907 6896 6895 6894 ] final   95.86 input  -60.11 | X-H torsion
[ 7974 7965 7964 7962 ] final  -15.00 input  175.53 | X-H torsion
[ 8008 7997 7996 7995 ] final -114.15 input   59.86 | X-H torsion
[ 10167 10162 10161 10158 ] final   87.83 input  -65.29 | X-H torsion
[ 10718 10713 10712 10709 ] final  144.80 input   66.30 | X-H torsion
[ 10763 10752 10751 10750 ] final -115.69 input  -60.55 | X-H torsion
[ 11005 11000 10999 10996 ] final  142.66 input  -57.11 | X-H torsion

> <Gold.Protein.ActiveResidues>
 VAL166  LYS551  ARG553  GLY616  TRP617  ASP618  TYR619  PRO620  LYS621  CYS622 
 ASP623  PHE694  ASN695  SER759  ASP760  ASP761  ALA762  ILE779  LEU786  VAL792 
 PHE793  MET794  SER795  GLU796  ALA797  LYS798  CYS799  TRP800  GLU811  SER814 

> <Gold.Protein.RotatedAtoms>
  152.5440  134.0976  159.8303 H   0  0  0  0  0  0  0  0  0  0  0  0  # atno 6907 bound_to 6896
  151.1057  133.5202  159.2615 H   0  0  0  0  0  0  0  0  0  0  0  0  # atno 6908 bound_to 6896
  151.1940  135.0424  159.8899 H   0  0  0  0  0  0  0  0  0  0  0  0  # atno 6909 bound_to 6896
  146.2050  140.3430  142.8410 H   0  0  0  0  0  0  0  0  0  0  0  0  # atno 7974 bound_to 7965
  155.0319  140.0393  157.2477 H   0  0  0  0  0  0  0  0  0  0  0  0  # atno 8008 bound_to 7997
  154.7289  140.2726  155.6450 H   0  0  0  0  0  0  0  0  0  0  0  0  # atno 8009 bound_to 7997
  156.2836  140.2688  156.1984 H   0  0  0  0  0  0  0  0  0  0  0  0  # atno 8010 bound_to 7997
  139.8734  144.6480  150.8924 H   0  0  0  0  0  0  0  0  0  0  0  0  # atno 10167 bound_to 10162
  157.3529  131.0953  151.0984 H   0  0  0  0  0  0  0  0  0  0  0  0  # atno 10718 bound_to 10713
  154.8491  135.4372  154.1703 H   0  0  0  0  0  0  0  0  0  0  0  0  # atno 10763 bound_to 10752
  153.2818  135.6954  153.7384 H   0  0  0  0  0  0  0  0  0  0  0  0  # atno 10764 bound_to 10752
  153.6585  135.3439  155.3095 H   0  0  0  0  0  0  0  0  0  0  0  0  # atno 10765 bound_to 10752
  140.0494  134.9263  157.0989 H   0  0  0  0  0  0  0  0  0  0  0  0  # atno 11005 bound_to 11000
  144.8772  140.7352  143.6009 LP  0  0  0  0  0  0  0  0  0  0  0  0  # atno 17320 bound_to 7965
  145.3350  139.1748  143.4516 LP  0  0  0  0  0  0  0  0  0  0  0  0  # atno 17321 bound_to 7965
  140.7757  143.3645  151.1765 LP  0  0  0  0  0  0  0  0  0  0  0  0  # atno 17342 bound_to 10162
  139.7263  143.9143  152.3004 LP  0  0  0  0  0  0  0  0  0  0  0  0  # atno 17343 bound_to 10162
  157.2153  130.6456  149.5790 LP  0  0  0  0  0  0  0  0  0  0  0  0  # atno 17370 bound_to 10713
  155.9724  130.4646  150.6225 LP  0  0  0  0  0  0  0  0  0  0  0  0  # atno 17371 bound_to 10713
  140.3941  134.2152  155.7165 LP  0  0  0  0  0  0  0  0  0  0  0  0  # atno 17394 bound_to 11000
  141.1923  133.8176  157.0845 LP  0  0  0  0  0  0  0  0  0  0  0  0  # atno 17395 bound_to 11000

$$$$
