AV-unprocessed.smi:867|AV-procd|sdf|4000|dock1
  -GOLD-   22720 1483D 1   1.00000     0.00000
 Structure written by MMmdl.
 54 57  0  0  0  0  0  0  0  0  3 V2000
  149.7721  140.8005  153.5983 O   0  0  0  0  0  0  0  0  0  0  0  0
  148.7783  141.0742  154.2722 C   0  0  0  0  0  0  0  0  0  0  0  0
  148.8732  141.5320  155.5322 N   0  0  0  0  0  0  0  0  0  0  0  0
  150.1222  141.7737  156.2448 C   0  0  0  0  0  0  0  0  0  0  0  0
  149.9100  141.7926  157.7673 C   0  0  0  0  0  0  0  0  0  0  0  0
  151.1296  142.3068  158.5066 C   0  0  0  0  0  0  0  0  0  0  0  0
  151.8238  141.4725  159.4107 C   0  0  0  0  0  0  0  0  0  0  0  0
  152.9529  141.9767  160.0893 C   0  0  0  0  0  0  0  0  0  0  0  0
  153.3619  143.3045  159.8491 C   0  0  0  0  0  0  0  0  0  0  0  0
  152.6721  144.0733  158.9777 N   0  3  0  0  0  0  0  0  0  0  0  0
  151.5863  143.6279  158.3079 C   0  0  0  0  0  0  0  0  0  0  0  0
  147.5094  140.8778  153.8356 N   0  0  0  0  0  0  0  0  0  0  0  0
  147.1154  140.4276  152.4958 C   0  0  0  0  0  0  0  0  0  0  0  0
  146.6846  138.9523  152.5768 C   0  0  0  0  0  0  0  0  0  0  0  0
  145.5824  138.7410  153.5634 N   0  3  0  0  0  0  0  0  0  0  0  0
  145.1649  137.3061  153.6344 C   0  0  2  0  0  0  0  0  0  0  0  0
  145.0751  136.6506  152.2297 C   0  0  0  0  0  0  0  0  0  0  0  0
  143.6597  136.0520  152.1957 C   0  0  1  0  0  0  0  0  0  0  0  0
  143.5773  134.8631  153.1674 C   0  0  0  0  0  0  0  0  0  0  0  0
  143.5986  135.5553  154.5412 C   0  0  0  0  0  0  0  0  0  0  0  0
  143.7293  137.0477  154.1763 C   0  0  2  0  0  0  0  0  0  0  0  0
  142.8630  137.1258  152.9242 C   0  0  0  0  0  0  0  0  0  0  0  0
  145.9024  139.3507  154.8883 C   0  0  0  0  0  0  0  0  0  0  0  0
  146.3724  140.8110  154.7541 C   0  0  0  0  0  0  0  0  0  0  0  0
  148.0174  141.7085  156.0383 H   0  0  0  0  0  0  0  0  0  0  0  0
  150.8238  140.9834  155.9762 H   0  0  0  0  0  0  0  0  0  0  0  0
  150.5678  142.7111  155.9071 H   0  0  0  0  0  0  0  0  0  0  0  0
  149.0550  142.4199  158.0239 H   0  0  0  0  0  0  0  0  0  0  0  0
  149.6727  140.7898  158.1245 H   0  0  0  0  0  0  0  0  0  0  0  0
  151.4949  140.4579  159.5848 H   0  0  0  0  0  0  0  0  0  0  0  0
  153.4963  141.3538  160.7849 H   0  0  0  0  0  0  0  0  0  0  0  0
  154.2121  143.7712  160.3245 H   0  0  0  0  0  0  0  0  0  0  0  0
  151.1190  144.3379  157.6408 H   0  0  0  0  0  0  0  0  0  0  0  0
  146.2854  141.0405  152.1407 H   0  0  0  0  0  0  0  0  0  0  0  0
  147.8989  140.5372  151.7459 H   0  0  0  0  0  0  0  0  0  0  0  0
  146.3858  138.6246  151.5821 H   0  0  0  0  0  0  0  0  0  0  0  0
  147.5416  138.3389  152.8604 H   0  0  0  0  0  0  0  0  0  0  0  0
  145.8898  136.7788  154.2573 H   0  0  0  0  0  0  0  0  0  0  0  0
  145.1596  137.3850  151.4281 H   0  0  0  0  0  0  0  0  0  0  0  0
  145.8493  135.8986  152.0727 H   0  0  0  0  0  0  0  0  0  0  0  0
  143.3076  135.8199  151.1901 H   0  0  0  0  0  0  0  0  0  0  0  0
  142.6471  134.3101  153.0307 H   0  0  0  0  0  0  0  0  0  0  0  0
  144.4054  134.1651  153.0378 H   0  0  0  0  0  0  0  0  0  0  0  0
  142.6650  135.3696  155.0741 H   0  0  0  0  0  0  0  0  0  0  0  0
  144.4153  135.2048  155.1733 H   0  0  0  0  0  0  0  0  0  0  0  0
  143.3997  137.6785  154.9983 H   0  0  0  0  0  0  0  0  0  0  0  0
  142.8950  138.1003  152.4341 H   0  0  0  0  0  0  0  0  0  0  0  0
  141.8222  136.8466  153.0985 H   0  0  0  0  0  0  0  0  0  0  0  0
  145.0286  139.3557  155.5358 H   0  0  0  0  0  0  0  0  0  0  0  0
  146.6707  138.7563  155.3852 H   0  0  0  0  0  0  0  0  0  0  0  0
  146.6037  141.2211  155.7386 H   0  0  0  0  0  0  0  0  0  0  0  0
  145.5619  141.4291  154.3645 H   0  0  0  0  0  0  0  0  0  0  0  0
  144.7859  139.2524  153.2111 H   0  0  0  0  0  0  0  0  0  0  0  0
  152.9845  145.0319  158.8194 H   0  0  0  0  0  0  0  0  0  0  0  0
  1  2  2  0  0  0  0
  2  3  1  0  0  0  0
  2 12  1  0  0  0  0
  3  4  1  0  0  0  0
  3 25  1  0  0  0  0
  4  5  1  0  0  0  0
  4 26  1  0  0  0  0
  4 27  1  0  0  0  0
  5  6  1  0  0  0  0
  5 28  1  0  0  0  0
  5 29  1  0  0  0  0
  6 11  1  0  0  0  0
  6  7  2  0  0  0  0
  7  8  1  0  0  0  0
  7 30  1  0  0  0  0
  8  9  2  0  0  0  0
  8 31  1  0  0  0  0
  9 10  1  0  0  0  0
  9 32  1  0  0  0  0
 10 11  2  0  0  0  0
 10 54  1  0  0  0  0
 11 33  1  0  0  0  0
 12 24  1  0  0  0  0
 12 13  1  0  0  0  0
 13 14  1  0  0  0  0
 13 34  1  0  0  0  0
 13 35  1  0  0  0  0
 14 15  1  0  0  0  0
 14 36  1  0  0  0  0
 14 37  1  0  0  0  0
 15 16  1  0  0  0  0
 15 23  1  0  0  0  0
 15 53  1  0  0  0  0
 16 21  1  0  0  0  0
 16 17  1  0  0  0  0
 16 38  1  0  0  0  0
 17 18  1  0  0  0  0
 17 39  1  0  0  0  0
 17 40  1  0  0  0  0
 18 22  1  0  0  0  0
 18 19  1  0  0  0  0
 18 41  1  0  0  0  0
 19 20  1  0  0  0  0
 19 42  1  0  0  0  0
 19 43  1  0  0  0  0
 20 21  1  0  0  0  0
 20 44  1  0  0  0  0
 20 45  1  0  0  0  0
 21 22  1  0  0  0  0
 21 46  1  0  0  0  0
 22 47  1  0  0  0  0
 22 48  1  0  0  0  0
 23 24  1  0  0  0  0
 23 49  1  0  0  0  0
 23 50  1  0  0  0  0
 24 51  1  0  0  0  0
 24 52  1  0  0  0  0
M  CHG  1  10   1
M  CHG  1  15   1
M  END
> <s_m_source_file>
AV-unprocessed.smi

> <i_m_source_file_index>
867

> <i_lp_mmshare_version>
43012

> <i_f3d_flags>
0

> <s_epik_input>
W0NIMl0xW0NIMl1bQ0BASF0oW0NIMl0yKVtDQEBIXShbQ0gyXVtDQEhdMTIpTihbQ0gyXVtDSDJdMylbQ0gyXVtDSDJdTjNDKD1PKVtOSF1bQ0gyXVtDSDJdYzRbY0hdW2NIXVtjSF1uW2NIXTQ=

> <s_epik_cmdline>
J2VwaWtfcHl0aG9uJywgJy1waCcsICc3LjAnLCAnLXRuJywgJzgnLCAnLW1hJywgJzIwMCcsICctbWV0YWxfYmluZGluZycsICctaW1hZScsICc8aW5maWxlLm1hZT4nLCAnLW9tYWUnLCAnPG91dGZpbGUubWFlPic=

> <r_epik_Ionization_Penalty>
2.25108

> <r_epik_Ionization_Penalty_Charging>
2.25105

> <r_epik_Ionization_Penalty_Neutral>
2.64641e-05

> <r_epik_State_Penalty>
2.39519

> <r_epik_Charging_Adjusted_Penalty>
4.64625

> <i_epik_Tot_Q>
2

> <i_epik_Tot_abs_Q>
2

> <r_epik_Metal_State_Penalty>
2.40865

> <b_epik_Metal_Only>
0

> <s_lp_Force_Field>
OPLS_2005

> <r_lp_Energy>
104.696

> <b_lp_Chiralities_Consistent>
1

> <s_lp_Variant>
AV-unprocessed.smi:867-7

> <Gold.Version>
5.8.1

> <Gold.Id.Protein>
6NUR|6NUR_protein|mol2

> <Gold.PLP.Fitness>
47.4992

> <Gold.PLP.PLP>
-39.4530

> <Gold.PLP.part.hbond>
-3.1824

> <Gold.PLP.part.metal>
0.0000

> <Gold.PLP.part.buried>
-4.9837

> <Gold.PLP.part.nonpolar>
-35.6271

> <Gold.PLP.part.repulsive>
4.0083

> <Gold.PLP.ligand.clash>
1.2108

> <Gold.PLP.ligand.torsion>
0.5214

> <Gold.PLP.Chemscore.Hbond>
3.3840

> <Gold.PLP.Chemscore.CHOScore>
0.0000

> <Gold.PLP.Chemscore.Metal>
0.0000

> <Gold.Chemscore.Hbonds>
donor molecule, donor type, donor heavy atom, donor atom, acceptor molecule, acceptor atom, score
      L1  H    15    53       P1 10175  2.00
      P1  H  7989  7998       L1     1  0.38
      P1  H  8011  8017       L1     1  0.96

> <Gold.PLP.Chemscore.Internal.Correction>
0.1478

> <Gold.Rescore>
     Score         DG    S(hbond)    S(metal)    S(lipo)     H(rot)  DE(clash)    DE(int)     intcor
     19.01     -21.21       2.11        0.00     106.27       1.46       1.75       0.46       ----

> <Gold.Chemscore.Fitness>
19.0074

> <Gold.Chemscore.DG>
-21.2147

> <Gold.Chemscore.ZeroCoef>
-5.4800

> <Gold.Chemscore.Hbond>
2.1052

> <Gold.Chemscore.Metal>
0.0000

> <Gold.Chemscore.Lipo>
106.2727

> <Gold.Chemscore.Internal_Hbond>
0.0000

> <Gold.Chemscore.DEClash>
1.7503

> <Gold.Chemscore.DEInternal>
0.4570

> <Gold.Chemscore.Rot>
1.4572

> <Gold.Chemscore.Internal.Correction>
   9.000000E+99

> <Gold.Chemscore.Hbonds>
donor molecule, donor type, donor heavy atom, donor atom, acceptor molecule, acceptor atom, score
      L1  H    15    53       P1 10175  1.00
      P1  H  7989  7998       L1     1  0.38
      P1  H  8011  8017       L1     1  0.27

> <Gold.Chemscore.Hbond.Weighted>
-7.0313

> <Gold.Chemscore.Metal.Weighted>
-0.0000

> <Gold.Chemscore.Lipo.Weighted>
-12.4339

> <Gold.Chemscore.Internal_Hbond.Weighted>
0.0000

> <Gold.Chemscore.DEClash.Weighted>
1.7503

> <Gold.Chemscore.DEInternal.Weighted>
0.4570

> <Gold.Chemscore.Rot.Weighted>
3.7305

> <Gold.Chemscore.Internal.Correction.Weighted>
   9.000000E+99

> <Gold.Protein.RotatedTorsions>
[ 6907 6896 6895 6894 ] final   23.08 input  -60.11 | X-H torsion
[ 7974 7965 7964 7962 ] final    1.70 input  175.53 | X-H torsion
[ 8008 7997 7996 7995 ] final   65.94 input   59.86 | X-H torsion
[ 10167 10162 10161 10158 ] final -139.35 input  -65.29 | X-H torsion
[ 10718 10713 10712 10709 ] final   89.12 input   66.30 | X-H torsion
[ 10763 10752 10751 10750 ] final  -19.63 input  -60.55 | X-H torsion
[ 11005 11000 10999 10996 ] final   67.28 input  -57.11 | X-H torsion

> <Gold.Protein.ActiveResidues>
 VAL166  LYS551  ARG553  GLY616  TRP617  ASP618  TYR619  PRO620  LYS621  CYS622 
 ASP623  PHE694  ASN695  SER759  ASP760  ASP761  ALA762  ILE779  LEU786  VAL792 
 PHE793  MET794  SER795  GLU796  ALA797  LYS798  CYS799  TRP800  GLU811  SER814 

> <Gold.Protein.RotatedAtoms>
  151.9369  135.0231  160.0532 H   0  0  0  0  0  0  0  0  0  0  0  0  # atno 6907 bound_to 6896
  152.2070  133.4878  159.5098 H   0  0  0  0  0  0  0  0  0  0  0  0  # atno 6908 bound_to 6896
  150.6967  134.1433  159.4156 H   0  0  0  0  0  0  0  0  0  0  0  0  # atno 6909 bound_to 6896
  146.2441  140.0947  142.8350 H   0  0  0  0  0  0  0  0  0  0  0  0  # atno 7974 bound_to 7965
  155.6696  140.3497  155.4813 H   0  0  0  0  0  0  0  0  0  0  0  0  # atno 8008 bound_to 7997
  155.9699  140.1154  157.0844 H   0  0  0  0  0  0  0  0  0  0  0  0  # atno 8009 bound_to 7997
  154.4164  140.1159  156.5279 H   0  0  0  0  0  0  0  0  0  0  0  0  # atno 8010 bound_to 7997
  139.8388  143.7349  152.2664 H   0  0  0  0  0  0  0  0  0  0  0  0  # atno 10167 bound_to 10162
  157.6953  131.0321  150.3378 H   0  0  0  0  0  0  0  0  0  0  0  0  # atno 10718 bound_to 10713
  153.6078  135.6997  153.5359 H   0  0  0  0  0  0  0  0  0  0  0  0  # atno 10763 bound_to 10752
  153.3042  135.4120  155.1279 H   0  0  0  0  0  0  0  0  0  0  0  0  # atno 10764 bound_to 10752
  154.8570  135.3656  154.5615 H   0  0  0  0  0  0  0  0  0  0  0  0  # atno 10765 bound_to 10752
  139.9780  134.6790  156.0316 H   0  0  0  0  0  0  0  0  0  0  0  0  # atno 11005 bound_to 11000
  145.0620  140.9094  143.4933 LP  0  0  0  0  0  0  0  0  0  0  0  0  # atno 17320 bound_to 7965
  145.1064  139.2787  143.5660 LP  0  0  0  0  0  0  0  0  0  0  0  0  # atno 17321 bound_to 7965
  139.7580  144.7515  151.0407 LP  0  0  0  0  0  0  0  0  0  0  0  0  # atno 17342 bound_to 10162
  140.7800  143.4784  151.0051 LP  0  0  0  0  0  0  0  0  0  0  0  0  # atno 17343 bound_to 10162
  156.3843  130.3886  149.7078 LP  0  0  0  0  0  0  0  0  0  0  0  0  # atno 17370 bound_to 10713
  156.4449  130.7879  151.2900 LP  0  0  0  0  0  0  0  0  0  0  0  0  # atno 17371 bound_to 10713
  141.1455  133.6557  156.3855 LP  0  0  0  0  0  0  0  0  0  0  0  0  # atno 17394 bound_to 11000
  140.5155  134.6355  157.5299 LP  0  0  0  0  0  0  0  0  0  0  0  0  # atno 17395 bound_to 11000

$$$$
