AV-unprocessed.smi:3210|AV-procd|sdf|12273|dock1
  -GOLD-   2272018103D 1   1.00000     0.00000
 Structure written by MMmdl.
 34 35  0  0  0  0  0  0  0  0  1 V2000
  146.2536  138.6208  153.9247 O   0  0  0  0  0  0  0  0  0  0  0  0
  146.8482  139.0178  152.9221 C   0  0  0  0  0  0  0  0  0  0  0  0
  146.4548  138.4913  151.5426 C   0  0  0  0  0  0  0  0  0  0  0  0
  145.3812  137.4986  151.6353 N   0  0  0  0  0  0  0  0  0  0  0  0
  145.8079  136.2241  151.0757 C   0  0  0  0  0  0  0  0  0  0  0  0
  144.5922  135.4161  150.5917 C   0  0  0  0  0  0  0  0  0  0  0  0
  144.8720  133.9929  150.5153 N   0  0  0  0  0  0  0  0  0  0  0  0
  144.0183  132.9718  150.1542 C   0  0  0  0  0  0  0  0  0  0  0  0
  144.7212  131.8044  150.2407 C   0  0  0  0  0  0  0  0  0  0  0  0
  146.0139  132.2194  150.6675 C   0  0  0  0  0  0  0  0  0  0  0  0
  146.1009  133.5295  150.8306 N   0  0  0  0  0  0  0  0  0  0  0  0
  147.8495  139.9098  152.9618 N   0  0  0  0  0  0  0  0  0  0  0  0
  148.3683  140.5318  154.1731 C   0  0  0  0  0  0  0  0  0  0  0  0
  149.3405  139.6793  154.9669 C   0  0  0  0  0  0  0  0  0  0  0  0
  150.7133  140.1945  155.3300 C   0  0  0  0  0  0  0  0  0  0  0  0
  150.5660  139.0979  154.3024 C   0  0  0  0  0  0  0  0  0  0  0  0
  146.1267  139.3348  150.9335 H   0  0  0  0  0  0  0  0  0  0  0  0
  147.3223  138.0513  151.0472 H   0  0  0  0  0  0  0  0  0  0  0  0
  144.5515  137.8111  151.1498 H   0  0  0  0  0  0  0  0  0  0  0  0
  146.5001  136.3858  150.2477 H   0  0  0  0  0  0  0  0  0  0  0  0
  146.3439  135.6589  151.8394 H   0  0  0  0  0  0  0  0  0  0  0  0
  143.7604  135.5564  151.2830 H   0  0  0  0  0  0  0  0  0  0  0  0
  144.2499  135.7726  149.6185 H   0  0  0  0  0  0  0  0  0  0  0  0
  142.9925  133.1590  149.8721 H   0  0  0  0  0  0  0  0  0  0  0  0
  144.3663  130.8062  150.0320 H   0  0  0  0  0  0  0  0  0  0  0  0
  146.8850  131.6116  150.8628 H   0  0  0  0  0  0  0  0  0  0  0  0
  148.2831  140.1754  152.0894 H   0  0  0  0  0  0  0  0  0  0  0  0
  148.8580  141.4725  153.9172 H   0  0  0  0  0  0  0  0  0  0  0  0
  147.5210  140.7930  154.8077 H   0  0  0  0  0  0  0  0  0  0  0  0
  148.8613  139.0335  155.7005 H   0  0  0  0  0  0  0  0  0  0  0  0
  150.9951  141.1831  154.9732 H   0  0  0  0  0  0  0  0  0  0  0  0
  151.1095  139.9203  156.3057 H   0  0  0  0  0  0  0  0  0  0  0  0
  150.8654  138.0929  154.5927 H   0  0  0  0  0  0  0  0  0  0  0  0
  150.7514  139.3578  153.2620 H   0  0  0  0  0  0  0  0  0  0  0  0
  1  2  2  0  0  0  0
  2  3  1  0  0  0  0
  2 12  1  0  0  0  0
  3  4  1  0  0  0  0
  3 17  1  0  0  0  0
  3 18  1  0  0  0  0
  4  5  1  0  0  0  0
  4 19  1  0  0  0  0
  5  6  1  0  0  0  0
  5 20  1  0  0  0  0
  5 21  1  0  0  0  0
  6  7  1  0  0  0  0
  6 22  1  0  0  0  0
  6 23  1  0  0  0  0
  7 11  1  0  0  0  0
  7  8  1  0  0  0  0
  8  9  2  0  0  0  0
  8 24  1  0  0  0  0
  9 10  1  0  0  0  0
  9 25  1  0  0  0  0
 10 11  2  0  0  0  0
 10 26  1  0  0  0  0
 12 13  1  0  0  0  0
 12 27  1  0  0  0  0
 13 14  1  0  0  0  0
 13 28  1  0  0  0  0
 13 29  1  0  0  0  0
 14 16  1  0  0  0  0
 14 15  1  0  0  0  0
 14 30  1  0  0  0  0
 15 16  1  0  0  0  0
 15 31  1  0  0  0  0
 15 32  1  0  0  0  0
 16 33  1  0  0  0  0
 16 34  1  0  0  0  0
M  END
> <s_m_source_file>
AV-unprocessed.smi

> <i_m_source_file_index>
3210

> <i_lp_mmshare_version>
43012

> <i_f3d_flags>
0

> <s_epik_input>
W0NIMl0xW0NIMl1bQ0hdMVtDSDJdW05IXUMoPU8pW0NIMl1bTkhdW0NIMl1bQ0gyXW4yW2NIXVtjSF1bY0hdbjI=

> <s_epik_cmdline>
J2VwaWtfcHl0aG9uJywgJy1waCcsICc3LjAnLCAnLXRuJywgJzgnLCAnLW1hJywgJzIwMCcsICctbWV0YWxfYmluZGluZycsICctaW1hZScsICc8aW5maWxlLm1hZT4nLCAnLW9tYWUnLCAnPG91dGZpbGUubWFlPic=

> <r_lp_tautomer_probability>
1

> <r_epik_Ionization_Penalty>
0.724936

> <r_epik_Ionization_Penalty_Charging>
0

> <r_epik_Ionization_Penalty_Neutral>
0.724936

> <r_epik_State_Penalty>
0.747957

> <r_epik_Charging_Adjusted_Penalty>
0.747957

> <i_epik_Tot_Q>
0

> <i_epik_Tot_abs_Q>
0

> <r_epik_Metal_State_Penalty>
0.746186

> <b_epik_Metal_Only>
0

> <s_lp_Force_Field>
OPLS_2005

> <r_lp_Energy>
13.4578

> <b_lp_Chiralities_Consistent>
1

> <s_lp_Variant>
AV-unprocessed.smi:3210-2

> <Gold.Version>
5.8.1

> <Gold.Id.Protein>
6NUR|6NUR_protein|mol2

> <Gold.PLP.Fitness>
46.0207

> <Gold.PLP.PLP>
-35.6182

> <Gold.PLP.part.hbond>
-1.7541

> <Gold.PLP.part.metal>
0.0000

> <Gold.PLP.part.buried>
-3.2574

> <Gold.PLP.part.nonpolar>
-32.2172

> <Gold.PLP.part.repulsive>
0.4392

> <Gold.PLP.ligand.clash>
0.0000

> <Gold.PLP.ligand.torsion>
1.1549

> <Gold.PLP.Chemscore.Hbond>
1.9913

> <Gold.PLP.Chemscore.CHOScore>
2.0000

> <Gold.PLP.Chemscore.Metal>
0.0000

> <Gold.Chemscore.Hbonds>
donor molecule, donor type, donor heavy atom, donor atom, acceptor molecule, acceptor atom, score
      L1  H     4    19       P1 10171  0.98
      L1  H    12    27       P1  7957  0.93
      L1  C     8    24       P1 10186  1.00
      L1  C    10    26       P1 10747  1.00

> <Gold.PLP.Chemscore.Internal.Correction>
0.7386

> <Gold.Rescore>
     Score         DG    S(hbond)    S(metal)    S(lipo)     H(rot)  DE(clash)    DE(int)     intcor
     14.50     -15.69       1.94        0.00      81.52       2.27       0.03       1.15       ----

> <Gold.Chemscore.Fitness>
14.5007

> <Gold.Chemscore.DG>
-15.6865

> <Gold.Chemscore.ZeroCoef>
-5.4800

> <Gold.Chemscore.Hbond>
1.9427

> <Gold.Chemscore.Metal>
0.0000

> <Gold.Chemscore.Lipo>
81.5184

> <Gold.Chemscore.Internal_Hbond>
0.0000

> <Gold.Chemscore.DEClash>
0.0329

> <Gold.Chemscore.DEInternal>
1.1529

> <Gold.Chemscore.Rot>
2.2734

> <Gold.Chemscore.Internal.Correction>
   9.000000E+99

> <Gold.Chemscore.Hbonds>
donor molecule, donor type, donor heavy atom, donor atom, acceptor molecule, acceptor atom, score
      L1  H     4    19       P1 10171  0.93
      L1  H    12    27       P1  7957  0.90

> <Gold.Chemscore.Hbond.Weighted>
-6.4888

> <Gold.Chemscore.Metal.Weighted>
-0.0000

> <Gold.Chemscore.Lipo.Weighted>
-9.5377

> <Gold.Chemscore.Internal_Hbond.Weighted>
0.0000

> <Gold.Chemscore.DEClash.Weighted>
0.0329

> <Gold.Chemscore.DEInternal.Weighted>
1.1529

> <Gold.Chemscore.Rot.Weighted>
5.8199

> <Gold.Chemscore.Internal.Correction.Weighted>
   9.000000E+99

> <Gold.Protein.RotatedTorsions>
[ 6907 6896 6895 6894 ] final -113.22 input  -60.11 | X-H torsion
[ 7974 7965 7964 7962 ] final  -96.63 input  175.53 | X-H torsion
[ 8008 7997 7996 7995 ] final  -59.53 input   59.86 | X-H torsion
[ 10167 10162 10161 10158 ] final   44.83 input  -65.29 | X-H torsion
[ 10718 10713 10712 10709 ] final  -47.25 input   66.30 | X-H torsion
[ 10763 10752 10751 10750 ] final  172.82 input  -60.55 | X-H torsion
[ 11005 11000 10999 10996 ] final  -61.62 input  -57.11 | X-H torsion

> <Gold.Protein.ActiveResidues>
 VAL166  LYS551  ARG553  GLY616  TRP617  ASP618  TYR619  PRO620  LYS621  CYS622 
 ASP623  PHE694  ASN695  SER759  ASP760  ASP761  ALA762  ILE779  LEU786  VAL792 
 PHE793  MET794  SER795  GLU796  ALA797  LYS798  CYS799  TRP800  GLU811  SER814 

> <Gold.Protein.RotatedAtoms>
  150.7813  133.8976  159.3331 H   0  0  0  0  0  0  0  0  0  0  0  0  # atno 6907 bound_to 6896
  151.6838  135.0955  160.0230 H   0  0  0  0  0  0  0  0  0  0  0  0  # atno 6908 bound_to 6896
  152.3865  133.6580  159.6239 H   0  0  0  0  0  0  0  0  0  0  0  0  # atno 6909 bound_to 6896
  145.3443  140.9465  143.2590 H   0  0  0  0  0  0  0  0  0  0  0  0  # atno 7974 bound_to 7965
  154.4356  140.1060  156.6130 H   0  0  0  0  0  0  0  0  0  0  0  0  # atno 8008 bound_to 7997
  155.5789  140.3490  155.4516 H   0  0  0  0  0  0  0  0  0  0  0  0  # atno 8009 bound_to 7997
  156.0333  140.1265  157.0224 H   0  0  0  0  0  0  0  0  0  0  0  0  # atno 8010 bound_to 7997
  140.3303  144.2596  150.6169 H   0  0  0  0  0  0  0  0  0  0  0  0  # atno 10167 bound_to 10162
  156.2103  130.4160  149.9124 H   0  0  0  0  0  0  0  0  0  0  0  0  # atno 10718 bound_to 10713
  154.4315  135.2760  155.1909 H   0  0  0  0  0  0  0  0  0  0  0  0  # atno 10763 bound_to 10752
  154.3813  135.6087  153.5796 H   0  0  0  0  0  0  0  0  0  0  0  0  # atno 10764 bound_to 10752
  152.9836  135.5881  154.4627 H   0  0  0  0  0  0  0  0  0  0  0  0  # atno 10765 bound_to 10752
  141.1331  133.6632  156.5404 H   0  0  0  0  0  0  0  0  0  0  0  0  # atno 11005 bound_to 11000
  144.8766  139.4962  143.6742 LP  0  0  0  0  0  0  0  0  0  0  0  0  # atno 17320 bound_to 7965
  146.2994  139.7380  142.9102 LP  0  0  0  0  0  0  0  0  0  0  0  0  # atno 17321 bound_to 7965
  140.5403  143.2225  151.8096 LP  0  0  0  0  0  0  0  0  0  0  0  0  # atno 17342 bound_to 10162
  139.4857  144.4609  151.9542 LP  0  0  0  0  0  0  0  0  0  0  0  0  # atno 17343 bound_to 10162
  156.6804  130.8856  151.3575 LP  0  0  0  0  0  0  0  0  0  0  0  0  # atno 17370 bound_to 10713
  157.7035  130.9359  150.0857 LP  0  0  0  0  0  0  0  0  0  0  0  0  # atno 17371 bound_to 10713
  140.4144  134.7243  157.4854 LP  0  0  0  0  0  0  0  0  0  0  0  0  # atno 17394 bound_to 11000
  140.0404  134.6276  155.8988 LP  0  0  0  0  0  0  0  0  0  0  0  0  # atno 17395 bound_to 11000

$$$$
