AV-unprocessed.smi:578|AV-procd|sdf|2986|dock1
  -GOLD-   2262023493D 1   1.00000     0.00000
 Structure written by MMmdl.
 32 33  0  0  0  0  0  0  0  0  2 V2000
  151.1956  145.2111  159.1125 C   0  0  0  0  0  0  0  0  0  0  0  0
  150.6306  143.8788  159.6360 C   0  0  1  0  0  0  0  0  0  0  0  0
  150.2534  142.8884  158.5157 C   0  0  0  0  0  0  0  0  0  0  0  0
  151.4473  142.2980  157.9256 N   0  0  0  0  0  0  0  0  0  0  0  0
  151.1692  141.4783  156.8231 C   0  0  0  0  0  0  0  0  0  0  0  0
  150.0512  141.7615  156.0154 C   0  0  0  0  0  0  0  0  0  0  0  0
  149.7911  140.9262  154.9127 C   0  0  0  0  0  0  0  0  0  0  0  0
  150.5580  139.8646  154.5898 N   0  0  0  0  0  0  0  0  0  0  0  0
  151.6351  139.5822  155.3624 C   0  0  0  0  0  0  0  0  0  0  0  0
  152.4739  138.3911  154.9827 C   0  0  0  0  0  0  0  0  0  0  0  0
  153.6980  138.4067  155.2444 O   0  0  0  0  0  0  0  0  0  0  0  0
  151.9253  137.4185  154.4166 O   0  5  0  0  0  0  0  0  0  0  0  0
  151.9750  140.3668  156.4904 C   0  0  0  0  0  0  0  0  0  0  0  0
  152.3008  141.6655  158.9210 C   0  0  0  0  0  0  0  0  0  0  0  0
  152.6929  142.6884  160.0021 C   0  0  2  0  0  0  0  0  0  0  0  0
  153.5070  142.0462  161.1297 C   0  0  0  0  0  0  0  0  0  0  0  0
  151.5116  143.2526  160.5733 O   0  0  0  0  0  0  0  0  0  0  0  0
  150.4570  145.7280  158.4998 H   0  0  0  0  0  0  0  0  0  0  0  0
  152.0844  145.0711  158.4979 H   0  0  0  0  0  0  0  0  0  0  0  0
  151.4592  145.8729  159.9379 H   0  0  0  0  0  0  0  0  0  0  0  0
  149.7207  144.1176  160.1873 H   0  0  0  0  0  0  0  0  0  0  0  0
  149.6289  142.0951  158.9292 H   0  0  0  0  0  0  0  0  0  0  0  0
  149.6631  143.3900  157.7476 H   0  0  0  0  0  0  0  0  0  0  0  0
  149.4066  142.6006  156.2324 H   0  0  0  0  0  0  0  0  0  0  0  0
  148.9431  141.1165  154.2718 H   0  0  0  0  0  0  0  0  0  0  0  0
  152.8377  140.1214  157.0927 H   0  0  0  0  0  0  0  0  0  0  0  0
  151.7764  140.8247  159.3773 H   0  0  0  0  0  0  0  0  0  0  0  0
  153.1940  141.2662  158.4387 H   0  0  0  0  0  0  0  0  0  0  0  0
  153.2980  143.4781  159.5562 H   0  0  0  0  0  0  0  0  0  0  0  0
  154.4269  141.6043  160.7460 H   0  0  0  0  0  0  0  0  0  0  0  0
  152.9391  141.2599  161.6278 H   0  0  0  0  0  0  0  0  0  0  0  0
  153.7822  142.7864  161.8813 H   0  0  0  0  0  0  0  0  0  0  0  0
  1  2  1  0  0  0  0
  1 18  1  0  0  0  0
  1 19  1  0  0  0  0
  1 20  1  0  0  0  0
  2 17  1  0  0  0  0
  2  3  1  0  0  0  0
  2 21  1  0  0  0  0
  3  4  1  0  0  0  0
  3 22  1  0  0  0  0
  3 23  1  0  0  0  0
  4  5  1  0  0  0  0
  4 14  1  0  0  0  0
  5 13  1  0  0  0  0
  5  6  2  0  0  0  0
  6  7  1  0  0  0  0
  6 24  1  0  0  0  0
  7  8  2  0  0  0  0
  7 25  1  0  0  0  0
  8  9  1  0  0  0  0
  9 10  1  0  0  0  0
  9 13  2  0  0  0  0
 10 11  2  0  0  0  0
 10 12  1  0  0  0  0
 13 26  1  0  0  0  0
 14 15  1  0  0  0  0
 14 27  1  0  0  0  0
 14 28  1  0  0  0  0
 15 16  1  0  0  0  0
 15 17  1  0  0  0  0
 15 29  1  0  0  0  0
 16 30  1  0  0  0  0
 16 31  1  0  0  0  0
 16 32  1  0  0  0  0
M  CHG  1  12  -1
M  END
> <s_m_source_file>
AV-unprocessed.smi

> <i_m_source_file_index>
578

> <i_lp_mmshare_version>
43012

> <i_f3d_flags>
0

> <s_epik_input>
W0NIM11bQ0BASF0xW0NIMl1OKFtDSDJdW0NASF0oTzEpW0NIM10pYzJbY0hdW2NIXW5jKFtjSF0yKUMoPU8pW09IXQ==

> <s_epik_cmdline>
J2VwaWtfcHl0aG9uJywgJy1waCcsICc3LjAnLCAnLXRuJywgJzgnLCAnLW1hJywgJzIwMCcsICctbWV0YWxfYmluZGluZycsICctaW1hZScsICc8aW5maWxlLm1hZT4nLCAnLW9tYWUnLCAnPG91dGZpbGUubWFlPic=

> <r_epik_Ionization_Penalty>
2.00764

> <r_epik_Ionization_Penalty_Charging>
0.000210348

> <r_epik_Ionization_Penalty_Neutral>
2.00743

> <r_epik_State_Penalty>
2.13668

> <r_epik_Charging_Adjusted_Penalty>
2.13689

> <i_epik_Tot_Q>
-1

> <i_epik_Tot_abs_Q>
1

> <r_epik_Metal_State_Penalty>
0.0208571

> <b_epik_Metal_Only>
0

> <s_lp_Force_Field>
OPLS_2005

> <r_lp_Energy>
23.987

> <b_lp_Chiralities_Consistent>
1

> <s_lp_Variant>
AV-unprocessed.smi:578-6

> <Gold.Version>
5.8.1

> <Gold.Id.Protein>
6NUR|6NUR_protein|mol2

> <Gold.PLP.Fitness>
47.7633

> <Gold.PLP.PLP>
-38.6126

> <Gold.PLP.part.hbond>
-3.7840

> <Gold.PLP.part.metal>
0.0000

> <Gold.PLP.part.buried>
-4.7094

> <Gold.PLP.part.nonpolar>
-30.1459

> <Gold.PLP.part.repulsive>
0.3591

> <Gold.PLP.ligand.clash>
0.0000

> <Gold.PLP.ligand.torsion>
1.0465

> <Gold.PLP.Chemscore.Hbond>
3.7170

> <Gold.PLP.Chemscore.CHOScore>
0.0000

> <Gold.PLP.Chemscore.Metal>
0.0000

> <Gold.Chemscore.Hbonds>
donor molecule, donor type, donor heavy atom, donor atom, acceptor molecule, acceptor atom, score
      P1  H  7989  7998       L1     8  0.32
      P1  H  7997  8008       L1    11  1.50
      P1  H 10752 10765       L1    12  1.89

> <Gold.PLP.Chemscore.Internal.Correction>
0.0928

> <Gold.Rescore>
     Score         DG    S(hbond)    S(metal)    S(lipo)     H(rot)  DE(clash)    DE(int)     intcor
     17.82     -18.88       1.59        0.00      91.19       1.00       0.02       1.05       ----

> <Gold.Chemscore.Fitness>
17.8224

> <Gold.Chemscore.DG>
-18.8841

> <Gold.Chemscore.ZeroCoef>
-5.4800

> <Gold.Chemscore.Hbond>
1.5853

> <Gold.Chemscore.Metal>
0.0000

> <Gold.Chemscore.Lipo>
91.1896

> <Gold.Chemscore.Internal_Hbond>
0.0000

> <Gold.Chemscore.DEClash>
0.0163

> <Gold.Chemscore.DEInternal>
1.0454

> <Gold.Chemscore.Rot>
1.0000

> <Gold.Chemscore.Internal.Correction>
   9.000000E+99

> <Gold.Chemscore.Hbonds>
donor molecule, donor type, donor heavy atom, donor atom, acceptor molecule, acceptor atom, score
      P1  H  7997  8008       L1    11  0.64
      P1  H 10752 10765       L1    12  0.81

> <Gold.Chemscore.Hbond.Weighted>
-5.2950

> <Gold.Chemscore.Metal.Weighted>
-0.0000

> <Gold.Chemscore.Lipo.Weighted>
-10.6692

> <Gold.Chemscore.Internal_Hbond.Weighted>
0.0000

> <Gold.Chemscore.DEClash.Weighted>
0.0163

> <Gold.Chemscore.DEInternal.Weighted>
1.0454

> <Gold.Chemscore.Rot.Weighted>
2.5600

> <Gold.Chemscore.Internal.Correction.Weighted>
   9.000000E+99

> <Gold.Protein.RotatedTorsions>
[ 6907 6896 6895 6894 ] final  171.08 input  -60.11 | X-H torsion
[ 7974 7965 7964 7962 ] final   44.27 input  175.53 | X-H torsion
[ 8008 7997 7996 7995 ] final  -23.08 input   59.86 | X-H torsion
[ 10167 10162 10161 10158 ] final  -17.03 input  -65.29 | X-H torsion
[ 10718 10713 10712 10709 ] final   51.46 input   66.30 | X-H torsion
[ 10763 10752 10751 10750 ] final  163.33 input  -60.55 | X-H torsion
[ 11005 11000 10999 10996 ] final -126.57 input  -57.11 | X-H torsion

> <Gold.Protein.ActiveResidues>
 VAL166  LYS551  ARG553  GLY616  TRP617  ASP618  TYR619  PRO620  LYS621  CYS622 
 ASP623  PHE694  ASN695  SER759  ASP760  ASP761  ALA762  ILE779  LEU786  VAL792 
 PHE793  MET794  SER795  GLU796  ALA797  LYS798  CYS799  TRP800  GLU811  SER814 

> <Gold.Protein.RotatedAtoms>
  151.8058  133.3375  159.3540 H   0  0  0  0  0  0  0  0  0  0  0  0  # atno 6907 bound_to 6896
  150.7343  134.5710  159.5900 H   0  0  0  0  0  0  0  0  0  0  0  0  # atno 6908 bound_to 6896
  152.3110  134.7498  160.0387 H   0  0  0  0  0  0  0  0  0  0  0  0  # atno 6909 bound_to 6896
  146.0583  139.5093  142.9674 H   0  0  0  0  0  0  0  0  0  0  0  0  # atno 7974 bound_to 7965
  154.4606  140.1990  156.0255 H   0  0  0  0  0  0  0  0  0  0  0  0  # atno 8008 bound_to 7997
  156.0833  140.3268  155.7693 H   0  0  0  0  0  0  0  0  0  0  0  0  # atno 8009 bound_to 7997
  155.5077  140.0559  157.2919 H   0  0  0  0  0  0  0  0  0  0  0  0  # atno 8010 bound_to 7997
  140.7242  143.5057  150.9813 H   0  0  0  0  0  0  0  0  0  0  0  0  # atno 10167 bound_to 10162
  157.4983  130.8421  149.8285 H   0  0  0  0  0  0  0  0  0  0  0  0  # atno 10718 bound_to 10713
  154.2920  135.2761  155.2650 H   0  0  0  0  0  0  0  0  0  0  0  0  # atno 10763 bound_to 10752
  154.5125  135.5778  153.6619 H   0  0  0  0  0  0  0  0  0  0  0  0  # atno 10764 bound_to 10752
  152.9913  135.6184  154.3085 H   0  0  0  0  0  0  0  0  0  0  0  0  # atno 10765 bound_to 10752
  140.9670  134.0858  157.3909 H   0  0  0  0  0  0  0  0  0  0  0  0  # atno 11005 bound_to 11000
  145.6605  141.0242  143.1712 LP  0  0  0  0  0  0  0  0  0  0  0  0  # atno 17320 bound_to 7965
  144.7160  139.8195  143.7398 LP  0  0  0  0  0  0  0  0  0  0  0  0  # atno 17321 bound_to 7965
  139.8768  143.7122  152.3161 LP  0  0  0  0  0  0  0  0  0  0  0  0  # atno 17342 bound_to 10162
  139.7390  144.7564  151.0681 LP  0  0  0  0  0  0  0  0  0  0  0  0  # atno 17343 bound_to 10162
  156.0214  130.3794  150.1952 LP  0  0  0  0  0  0  0  0  0  0  0  0  # atno 17370 bound_to 10713
  157.0141  130.9960  151.3358 LP  0  0  0  0  0  0  0  0  0  0  0  0  # atno 17371 bound_to 10713
  139.8898  135.0108  156.6701 LP  0  0  0  0  0  0  0  0  0  0  0  0  # atno 17394 bound_to 11000
  140.7384  133.8998  155.8260 LP  0  0  0  0  0  0  0  0  0  0  0  0  # atno 17395 bound_to 11000

$$$$
