AV-unprocessed.smi:1145|AV-procd|sdf|4882|dock4
  -GOLD-   22720 3453D 1   1.00000     0.00000
 Structure written by MMmdl.
 36 37  0  0  0  0  0  0  0  0  1 V2000
  151.8879  138.6590  158.4609 C   0  0  0  0  0  0  0  0  0  0  0  0
  151.7261  140.1401  158.0897 C   0  0  2  0  0  0  0  0  0  0  0  0
  151.8493  141.0569  159.3218 C   0  0  0  0  0  0  0  0  0  0  0  0
  151.9019  142.4623  158.9568 N   0  0  0  0  0  0  0  0  0  0  0  0
  152.8328  143.4084  159.3307 C   0  0  0  0  0  0  0  0  0  0  0  0
  152.4776  144.5852  158.7362 C   0  0  0  0  0  0  0  0  0  0  0  0
  151.3012  144.2540  158.0073 C   0  0  0  0  0  0  0  0  0  0  0  0
  150.9591  142.9828  158.1411 N   0  0  0  0  0  0  0  0  0  0  0  0
  150.4321  140.3452  157.4424 N   0  0  0  0  0  0  0  0  0  0  0  0
  150.2386  140.5613  156.1325 C   0  0  0  0  0  0  0  0  0  0  0  0
  151.1499  140.5636  155.3041 O   0  0  0  0  0  0  0  0  0  0  0  0
  148.7918  140.8219  155.6934 C   0  0  2  0  0  0  0  0  0  0  0  0
  148.7370  141.3992  154.2694 C   0  0  0  0  0  0  0  0  0  0  0  0
  147.2835  141.6074  153.8155 C   0  0  0  0  0  0  0  0  0  0  0  0
  146.4075  142.2968  154.8721 C   0  0  0  0  0  0  0  0  0  0  0  0
  145.3440  142.8111  154.5335 O   0  0  0  0  0  0  0  0  0  0  0  0
  146.8082  142.2907  156.1559 N   0  0  0  0  0  0  0  0  0  0  0  0
  148.0855  141.7906  156.6653 C   0  0  0  0  0  0  0  0  0  0  0  0
  152.8580  138.4748  158.9232 H   0  0  0  0  0  0  0  0  0  0  0  0
  151.8203  138.0231  157.5774 H   0  0  0  0  0  0  0  0  0  0  0  0
  151.1175  138.3379  159.1626 H   0  0  0  0  0  0  0  0  0  0  0  0
  152.5320  140.4003  157.4008 H   0  0  0  0  0  0  0  0  0  0  0  0
  151.0183  140.8939  160.0102 H   0  0  0  0  0  0  0  0  0  0  0  0
  152.7603  140.8220  159.8733 H   0  0  0  0  0  0  0  0  0  0  0  0
  153.6624  143.1665  159.9786 H   0  0  0  0  0  0  0  0  0  0  0  0
  152.9820  145.5375  158.8095 H   0  0  0  0  0  0  0  0  0  0  0  0
  150.6899  144.8956  157.3899 H   0  0  0  0  0  0  0  0  0  0  0  0
  149.6230  140.3635  158.0464 H   0  0  0  0  0  0  0  0  0  0  0  0
  148.2500  139.8738  155.6958 H   0  0  0  0  0  0  0  0  0  0  0  0
  149.2685  142.3517  154.2264 H   0  0  0  0  0  0  0  0  0  0  0  0
  149.2440  140.7324  153.5706 H   0  0  0  0  0  0  0  0  0  0  0  0
  147.2604  142.1845  152.8905 H   0  0  0  0  0  0  0  0  0  0  0  0
  146.8304  140.6411  153.5917 H   0  0  0  0  0  0  0  0  0  0  0  0
  146.1961  142.7247  156.8317 H   0  0  0  0  0  0  0  0  0  0  0  0
  147.9104  141.2985  157.6228 H   0  0  0  0  0  0  0  0  0  0  0  0
  148.7146  142.6580  156.8711 H   0  0  0  0  0  0  0  0  0  0  0  0
  1  2  1  0  0  0  0
  1 19  1  0  0  0  0
  1 20  1  0  0  0  0
  1 21  1  0  0  0  0
  2  3  1  0  0  0  0
  2  9  1  0  0  0  0
  2 22  1  0  0  0  0
  3  4  1  0  0  0  0
  3 23  1  0  0  0  0
  3 24  1  0  0  0  0
  4  8  1  0  0  0  0
  4  5  1  0  0  0  0
  5  6  2  0  0  0  0
  5 25  1  0  0  0  0
  6  7  1  0  0  0  0
  6 26  1  0  0  0  0
  7  8  2  0  0  0  0
  7 27  1  0  0  0  0
  9 10  1  0  0  0  0
  9 28  1  0  0  0  0
 10 11  2  0  0  0  0
 10 12  1  0  0  0  0
 12 18  1  0  0  0  0
 12 13  1  0  0  0  0
 12 29  1  0  0  0  0
 13 14  1  0  0  0  0
 13 30  1  0  0  0  0
 13 31  1  0  0  0  0
 14 15  1  0  0  0  0
 14 32  1  0  0  0  0
 14 33  1  0  0  0  0
 15 16  2  0  0  0  0
 15 17  1  0  0  0  0
 17 18  1  0  0  0  0
 17 34  1  0  0  0  0
 18 35  1  0  0  0  0
 18 36  1  0  0  0  0
M  END
> <s_m_source_file>
AV-unprocessed.smi

> <i_m_source_file_index>
1145

> <i_lp_mmshare_version>
43012

> <i_f3d_flags>
0

> <s_epik_input>
bjFbY0hdW2NIXVtjSF1uMVtDSDJdW0NAQEhdKFtDSDNdKVtOSF1DKD1PKVtDQEBIXTJbQ0gyXVtDSDJdQyg9TylbTkhdW0NIMl0y

> <s_epik_cmdline>
J2VwaWtfcHl0aG9uJywgJy1waCcsICc3LjAnLCAnLXRuJywgJzgnLCAnLW1hJywgJzIwMCcsICctbWV0YWxfYmluZGluZycsICctaW1hZScsICc8aW5maWxlLm1hZT4nLCAnLW9tYWUnLCAnPG91dGZpbGUubWFlPic=

> <r_lp_tautomer_probability>
1

> <r_epik_Ionization_Penalty>
0.000314064

> <r_epik_Ionization_Penalty_Charging>
0

> <r_epik_Ionization_Penalty_Neutral>
0.000314064

> <r_epik_State_Penalty>
-0

> <r_epik_Charging_Adjusted_Penalty>
0

> <i_epik_Tot_Q>
0

> <i_epik_Tot_abs_Q>
0

> <r_epik_Metal_State_Penalty>
-0

> <b_epik_Metal_Only>
0

> <s_lp_Force_Field>
OPLS_2005

> <r_lp_Energy>
12.6815

> <b_lp_Chiralities_Consistent>
1

> <s_lp_Variant>
AV-unprocessed.smi:1145-1

> <Gold.Version>
5.8.1

> <Gold.Id.Protein>
6NUR|6NUR_protein|mol2

> <Gold.PLP.Fitness>
40.5949

> <Gold.PLP.PLP>
-35.8285

> <Gold.PLP.part.hbond>
-2.0000

> <Gold.PLP.part.metal>
0.0000

> <Gold.PLP.part.buried>
-3.3053

> <Gold.PLP.part.nonpolar>
-30.4767

> <Gold.PLP.part.repulsive>
0.4174

> <Gold.PLP.ligand.clash>
0.0000

> <Gold.PLP.ligand.torsion>
0.6172

> <Gold.PLP.Chemscore.Hbond>
0.9920

> <Gold.PLP.Chemscore.CHOScore>
1.0000

> <Gold.PLP.Chemscore.Metal>
0.0000

> <Gold.Chemscore.Hbonds>
donor molecule, donor type, donor heavy atom, donor atom, acceptor molecule, acceptor atom, score
      P1  H  7989  7998       L1    11  0.91
      L1  C     7    27       P1  8028  1.00

> <Gold.PLP.Chemscore.Internal.Correction>
0.0247

> <Gold.Rescore>
     Score         DG    S(hbond)    S(metal)    S(lipo)     H(rot)  DE(clash)    DE(int)     intcor
     13.15     -13.83       0.94        0.00      83.73       1.80       0.07       0.60       ----

> <Gold.Chemscore.Fitness>
13.1491

> <Gold.Chemscore.DG>
-13.8269

> <Gold.Chemscore.ZeroCoef>
-5.4800

> <Gold.Chemscore.Hbond>
0.9443

> <Gold.Chemscore.Metal>
0.0000

> <Gold.Chemscore.Lipo>
83.7300

> <Gold.Chemscore.Internal_Hbond>
0.0000

> <Gold.Chemscore.DEClash>
0.0739

> <Gold.Chemscore.DEInternal>
0.6039

> <Gold.Chemscore.Rot>
1.7982

> <Gold.Chemscore.Internal.Correction>
   9.000000E+99

> <Gold.Chemscore.Hbonds>
donor molecule, donor type, donor heavy atom, donor atom, acceptor molecule, acceptor atom, score
      P1  H  7989  7998       L1    11  0.88

> <Gold.Chemscore.Hbond.Weighted>
-3.1540

> <Gold.Chemscore.Metal.Weighted>
-0.0000

> <Gold.Chemscore.Lipo.Weighted>
-9.7964

> <Gold.Chemscore.Internal_Hbond.Weighted>
0.0000

> <Gold.Chemscore.DEClash.Weighted>
0.0739

> <Gold.Chemscore.DEInternal.Weighted>
0.6039

> <Gold.Chemscore.Rot.Weighted>
4.6035

> <Gold.Chemscore.Internal.Correction.Weighted>
   9.000000E+99

> <Gold.Protein.RotatedTorsions>
[ 6907 6896 6895 6894 ] final  -24.82 input  -60.11 | X-H torsion
[ 7974 7965 7964 7962 ] final   55.77 input  175.53 | X-H torsion
[ 8008 7997 7996 7995 ] final -148.05 input   59.86 | X-H torsion
[ 10167 10162 10161 10158 ] final  -44.67 input  -65.29 | X-H torsion
[ 10718 10713 10712 10709 ] final  144.63 input   66.30 | X-H torsion
[ 10763 10752 10751 10750 ] final -118.77 input  -60.55 | X-H torsion
[ 11005 11000 10999 10996 ] final  -13.55 input  -57.11 | X-H torsion

> <Gold.Protein.ActiveResidues>
 VAL166  LYS551  ARG553  GLY616  TRP617  ASP618  TYR619  PRO620  LYS621  CYS622 
 ASP623  PHE694  ASN695  SER759  ASP760  ASP761  ALA762  ILE779  LEU786  VAL792 
 PHE793  MET794  SER795  GLU796  ALA797  LYS798  CYS799  TRP800  GLU811  SER814 

> <Gold.Protein.RotatedAtoms>
  151.1841  135.0374  159.8804 H   0  0  0  0  0  0  0  0  0  0  0  0  # atno 6907 bound_to 6896
  152.5443  134.1030  159.8336 H   0  0  0  0  0  0  0  0  0  0  0  0  # atno 6908 bound_to 6896
  151.1150  133.5098  159.2636 H   0  0  0  0  0  0  0  0  0  0  0  0  # atno 6909 bound_to 6896
  145.9469  139.3937  143.0330 H   0  0  0  0  0  0  0  0  0  0  0  0  # atno 7974 bound_to 7965
  155.5854  140.0647  157.2772 H   0  0  0  0  0  0  0  0  0  0  0  0  # atno 8008 bound_to 7997
  154.4320  140.1844  156.1066 H   0  0  0  0  0  0  0  0  0  0  0  0  # atno 8009 bound_to 7997
  156.0273  140.3310  155.7106 H   0  0  0  0  0  0  0  0  0  0  0  0  # atno 8010 bound_to 7997
  140.6888  143.2918  151.3528 H   0  0  0  0  0  0  0  0  0  0  0  0  # atno 10167 bound_to 10162
  157.3548  131.0956  151.0968 H   0  0  0  0  0  0  0  0  0  0  0  0  # atno 10718 bound_to 10713
  154.8597  135.4262  154.2191 H   0  0  0  0  0  0  0  0  0  0  0  0  # atno 10763 bound_to 10752
  153.3200  135.6981  153.7045 H   0  0  0  0  0  0  0  0  0  0  0  0  # atno 10764 bound_to 10752
  153.6103  135.3520  155.2950 H   0  0  0  0  0  0  0  0  0  0  0  0  # atno 10765 bound_to 10752
  140.7772  133.8391  155.9260 H   0  0  0  0  0  0  0  0  0  0  0  0  # atno 11005 bound_to 11000
  145.8224  140.9672  143.0891 LP  0  0  0  0  0  0  0  0  0  0  0  0  # atno 17320 bound_to 7965
  144.6788  140.0059  143.7484 LP  0  0  0  0  0  0  0  0  0  0  0  0  # atno 17321 bound_to 7965
  139.6270  144.0794  152.2443 LP  0  0  0  0  0  0  0  0  0  0  0  0  # atno 17342 bound_to 10162
  140.0257  144.6119  150.7530 LP  0  0  0  0  0  0  0  0  0  0  0  0  # atno 17343 bound_to 10162
  157.2130  130.6446  149.5781 LP  0  0  0  0  0  0  0  0  0  0  0  0  # atno 17370 bound_to 10713
  155.9727  130.4654  150.6252 LP  0  0  0  0  0  0  0  0  0  0  0  0  # atno 17371 bound_to 10713
  140.9517  134.1770  157.4723 LP  0  0  0  0  0  0  0  0  0  0  0  0  # atno 17394 bound_to 11000
  139.8747  134.9911  156.5536 LP  0  0  0  0  0  0  0  0  0  0  0  0  # atno 17395 bound_to 11000

$$$$
