AV-unprocessed.smi:2817|AV-procd|sdf|10846|dock8
  -GOLD-   2272015293D 1   1.00000     0.00000
 Structure written by MMmdl.
 42 44  0  0  0  0  0  0  0  0  1 V2000
  152.5593  136.6458  156.5258 O   0  0  0  0  0  0  0  0  0  0  0  0
  151.4559  136.6019  155.9817 C   0  0  0  0  0  0  0  0  0  0  0  0
  150.6600  135.3760  155.9145 C   0  0  0  0  0  0  0  0  0  0  0  0
  149.4479  135.3648  155.3112 C   0  0  0  0  0  0  0  0  0  0  0  0
  148.6245  134.0822  155.2287 C   0  0  0  0  0  0  0  0  0  0  0  0
  149.3966  132.7731  155.4663 C   0  0  0  0  0  0  0  0  0  0  0  0
  149.4012  132.5214  153.9543 C   0  0  0  0  0  0  0  0  0  0  0  0
  148.3272  133.6042  153.7989 C   0  0  0  0  0  0  0  0  0  0  0  0
  148.9369  136.5305  154.7247 N   0  0  0  0  0  0  0  0  0  0  0  0
  149.6227  137.6278  154.7672 C   0  0  0  0  0  0  0  0  0  0  0  0
  150.8815  137.6915  155.3954 N   0  0  0  0  0  0  0  0  0  0  0  0
  151.5624  138.9957  155.3684 C   0  0  0  0  0  0  0  0  0  0  0  0
  150.5705  140.1685  155.5450 C   0  0  2  0  0  0  0  0  0  0  0  0
  150.1132  140.5825  154.2735 O   0  0  0  0  0  0  0  0  0  0  0  0
  151.2244  141.3892  156.2102 C   0  0  0  0  0  0  0  0  0  0  0  0
  151.7427  140.9934  157.4732 O   0  0  0  0  0  0  0  0  0  0  0  0
  151.9396  141.9621  158.4333 C   0  0  0  0  0  0  0  0  0  0  0  0
  152.4837  141.5399  159.6641 C   0  0  0  0  0  0  0  0  0  0  0  0
  152.7181  142.4611  160.7028 C   0  0  0  0  0  0  0  0  0  0  0  0
  152.4084  143.8213  160.5196 C   0  0  0  0  0  0  0  0  0  0  0  0
  151.8648  144.2565  159.2967 C   0  0  0  0  0  0  0  0  0  0  0  0
  151.6305  143.3349  158.2575 C   0  0  0  0  0  0  0  0  0  0  0  0
  151.0524  134.4714  156.3561 H   0  0  0  0  0  0  0  0  0  0  0  0
  147.7221  134.1405  155.8390 H   0  0  0  0  0  0  0  0  0  0  0  0
  150.3868  132.8863  155.9095 H   0  0  0  0  0  0  0  0  0  0  0  0
  148.8047  132.0341  156.0082 H   0  0  0  0  0  0  0  0  0  0  0  0
  150.3466  132.7927  153.4829 H   0  0  0  0  0  0  0  0  0  0  0  0
  149.0783  131.5215  153.6624 H   0  0  0  0  0  0  0  0  0  0  0  0
  147.3243  133.1872  153.6981 H   0  0  0  0  0  0  0  0  0  0  0  0
  148.5352  134.3340  153.0154 H   0  0  0  0  0  0  0  0  0  0  0  0
  149.2747  138.5608  154.3196 H   0  0  0  0  0  0  0  0  0  0  0  0
  152.3025  139.0184  156.1708 H   0  0  0  0  0  0  0  0  0  0  0  0
  152.1576  139.1241  154.4624 H   0  0  0  0  0  0  0  0  0  0  0  0
  149.7079  139.8660  156.1402 H   0  0  0  0  0  0  0  0  0  0  0  0
  149.2607  140.2041  154.1219 H   0  0  0  0  0  0  0  0  0  0  0  0
  152.0153  141.7883  155.5725 H   0  0  0  0  0  0  0  0  0  0  0  0
  150.4779  142.1721  156.3569 H   0  0  0  0  0  0  0  0  0  0  0  0
  152.7244  140.4973  159.8135 H   0  0  0  0  0  0  0  0  0  0  0  0
  153.1351  142.1233  161.6400 H   0  0  0  0  0  0  0  0  0  0  0  0
  152.5872  144.5290  161.3159 H   0  0  0  0  0  0  0  0  0  0  0  0
  151.6259  145.3002  159.1550 H   0  0  0  0  0  0  0  0  0  0  0  0
  151.2114  143.7066  157.3348 H   0  0  0  0  0  0  0  0  0  0  0  0
  1  2  2  0  0  0  0
  2 11  1  0  0  0  0
  2  3  1  0  0  0  0
  3  4  2  0  0  0  0
  3 23  1  0  0  0  0
  4  5  1  0  0  0  0
  4  9  1  0  0  0  0
  5  8  1  0  0  0  0
  5  6  1  0  0  0  0
  5 24  1  0  0  0  0
  6  7  1  0  0  0  0
  6 25  1  0  0  0  0
  6 26  1  0  0  0  0
  7  8  1  0  0  0  0
  7 27  1  0  0  0  0
  7 28  1  0  0  0  0
  8 29  1  0  0  0  0
  8 30  1  0  0  0  0
  9 10  2  0  0  0  0
 10 11  1  0  0  0  0
 10 31  1  0  0  0  0
 11 12  1  0  0  0  0
 12 13  1  0  0  0  0
 12 32  1  0  0  0  0
 12 33  1  0  0  0  0
 13 14  1  0  0  0  0
 13 15  1  0  0  0  0
 13 34  1  0  0  0  0
 14 35  1  0  0  0  0
 15 16  1  0  0  0  0
 15 36  1  0  0  0  0
 15 37  1  0  0  0  0
 16 17  1  0  0  0  0
 17 22  1  0  0  0  0
 17 18  2  0  0  0  0
 18 19  1  0  0  0  0
 18 38  1  0  0  0  0
 19 20  2  0  0  0  0
 19 39  1  0  0  0  0
 20 21  1  0  0  0  0
 20 40  1  0  0  0  0
 21 22  2  0  0  0  0
 21 41  1  0  0  0  0
 22 42  1  0  0  0  0
M  END
> <s_m_source_file>
AV-unprocessed.smi

> <i_m_source_file_index>
2817

> <i_lp_mmshare_version>
43012

> <i_f3d_flags>
0

> <s_epik_input>
W0NIMl0xW0NIMl1bQ0gyXVtDSF0xYyhbY0hdYzI9TyluW2NIXW4yW0NIMl1bQ0BIXShbT0hdKVtDSDJdT2MzW2NIXVtjSF1bY0hdW2NIXVtjSF0z

> <s_epik_cmdline>
J2VwaWtfcHl0aG9uJywgJy1waCcsICc3LjAnLCAnLXRuJywgJzgnLCAnLW1hJywgJzIwMCcsICctbWV0YWxfYmluZGluZycsICctaW1hZScsICc8aW5maWxlLm1hZT4nLCAnLW9tYWUnLCAnPG91dGZpbGUubWFlPic=

> <r_lp_tautomer_probability>
1

> <r_epik_Ionization_Penalty>
2.12778e-05

> <r_epik_Ionization_Penalty_Charging>
7.42033e-08

> <r_epik_Ionization_Penalty_Neutral>
2.12036e-05

> <r_epik_State_Penalty>
-0

> <r_epik_Charging_Adjusted_Penalty>
7.42033e-08

> <i_epik_Tot_Q>
0

> <i_epik_Tot_abs_Q>
0

> <r_epik_Metal_State_Penalty>
-0

> <b_epik_Metal_Only>
0

> <s_lp_Force_Field>
OPLS_2005

> <r_lp_Energy>
32.2435

> <b_lp_Chiralities_Consistent>
1

> <s_lp_Variant>
AV-unprocessed.smi:2817-1

> <Gold.Version>
5.8.1

> <Gold.Id.Protein>
6NUR|6NUR_protein|mol2

> <Gold.PLP.Fitness>
45.8318

> <Gold.PLP.PLP>
-42.6130

> <Gold.PLP.part.hbond>
-2.4403

> <Gold.PLP.part.metal>
0.0000

> <Gold.PLP.part.buried>
-5.2684

> <Gold.PLP.part.nonpolar>
-36.4582

> <Gold.PLP.part.repulsive>
1.3677

> <Gold.PLP.ligand.clash>
0.0000

> <Gold.PLP.ligand.torsion>
1.0624

> <Gold.PLP.Chemscore.Hbond>
1.6368

> <Gold.PLP.Chemscore.CHOScore>
0.0000

> <Gold.PLP.Chemscore.Metal>
0.0000

> <Gold.Chemscore.Hbonds>
donor molecule, donor type, donor heavy atom, donor atom, acceptor molecule, acceptor atom, score
      P1  H  7989  7998       L1    14  0.80
      P1  H 10752 10763       L1     1  0.86

> <Gold.PLP.Chemscore.Internal.Correction>
0.4332

> <Gold.Rescore>
     Score         DG    S(hbond)    S(metal)    S(lipo)     H(rot)  DE(clash)    DE(int)     intcor
     16.06     -17.34       1.73        0.00     104.88       2.42       0.11       1.17       ----

> <Gold.Chemscore.Fitness>
16.0588

> <Gold.Chemscore.DG>
-17.3387

> <Gold.Chemscore.ZeroCoef>
-5.4800

> <Gold.Chemscore.Hbond>
1.7348

> <Gold.Chemscore.Metal>
0.0000

> <Gold.Chemscore.Lipo>
104.8802

> <Gold.Chemscore.Internal_Hbond>
0.0000

> <Gold.Chemscore.DEClash>
0.1140

> <Gold.Chemscore.DEInternal>
1.1658

> <Gold.Chemscore.Rot>
2.4245

> <Gold.Chemscore.Internal.Correction>
   9.000000E+99

> <Gold.Chemscore.Hbonds>
donor molecule, donor type, donor heavy atom, donor atom, acceptor molecule, acceptor atom, score
      P1  H  7989  7998       L1    14  0.24
      P1  H 10752 10763       L1     1  0.21

> <Gold.Chemscore.Hbond.Weighted>
-5.7943

> <Gold.Chemscore.Metal.Weighted>
-0.0000

> <Gold.Chemscore.Lipo.Weighted>
-12.2710

> <Gold.Chemscore.Internal_Hbond.Weighted>
0.0000

> <Gold.Chemscore.DEClash.Weighted>
0.1140

> <Gold.Chemscore.DEInternal.Weighted>
1.1658

> <Gold.Chemscore.Rot.Weighted>
6.2066

> <Gold.Chemscore.Internal.Correction.Weighted>
   9.000000E+99

> <Gold.Protein.RotatedTorsions>
[ 6907 6896 6895 6894 ] final   25.75 input  -60.11 | X-H torsion
[ 7974 7965 7964 7962 ] final -135.66 input  175.53 | X-H torsion
[ 8008 7997 7996 7995 ] final -147.20 input   59.86 | X-H torsion
[ 10167 10162 10161 10158 ] final -123.29 input  -65.29 | X-H torsion
[ 10718 10713 10712 10709 ] final   96.65 input   66.30 | X-H torsion
[ 10763 10752 10751 10750 ] final  122.31 input  -60.55 | X-H torsion
[ 11005 11000 10999 10996 ] final  143.41 input  -57.11 | X-H torsion

> <Gold.Protein.ActiveResidues>
 VAL166  LYS551  ARG553  GLY616  TRP617  ASP618  TYR619  PRO620  LYS621  CYS622 
 ASP623  PHE694  ASN695  SER759  ASP760  ASP761  ALA762  ILE779  LEU786  VAL792 
 PHE793  MET794  SER795  GLU796  ALA797  LYS798  CYS799  TRP800  GLU811  SER814 

> <Gold.Protein.RotatedAtoms>
  151.9773  135.0047  160.0555 H   0  0  0  0  0  0  0  0  0  0  0  0  # atno 6907 bound_to 6896
  152.1729  133.4651  159.4926 H   0  0  0  0  0  0  0  0  0  0  0  0  # atno 6908 bound_to 6896
  150.6904  134.1848  159.4305 H   0  0  0  0  0  0  0  0  0  0  0  0  # atno 6909 bound_to 6896
  144.8994  140.6751  143.5094 H   0  0  0  0  0  0  0  0  0  0  0  0  # atno 7974 bound_to 7965
  155.5718  140.0635  157.2805 H   0  0  0  0  0  0  0  0  0  0  0  0  # atno 8008 bound_to 7997
  154.4359  140.1867  156.0932 H   0  0  0  0  0  0  0  0  0  0  0  0  # atno 8009 bound_to 7997
  156.0371  140.3300  155.7206 H   0  0  0  0  0  0  0  0  0  0  0  0  # atno 8010 bound_to 7997
  140.0051  143.5500  152.2287 H   0  0  0  0  0  0  0  0  0  0  0  0  # atno 10167 bound_to 10162
  157.6924  131.0585  150.4524 H   0  0  0  0  0  0  0  0  0  0  0  0  # atno 10718 bound_to 10713
  153.6278  135.3401  155.3032 H   0  0  0  0  0  0  0  0  0  0  0  0  # atno 10763 bound_to 10752
  154.8586  135.4288  154.2138 H   0  0  0  0  0  0  0  0  0  0  0  0  # atno 10764 bound_to 10752
  153.3026  135.7025  153.7262 H   0  0  0  0  0  0  0  0  0  0  0  0  # atno 10765 bound_to 10752
  140.0552  134.9234  157.1087 H   0  0  0  0  0  0  0  0  0  0  0  0  # atno 11005 bound_to 11000
  145.3642  139.1674  143.4367 LP  0  0  0  0  0  0  0  0  0  0  0  0  # atno 17320 bound_to 7965
  146.3100  140.3707  142.8674 LP  0  0  0  0  0  0  0  0  0  0  0  0  # atno 17321 bound_to 7965
  139.6244  144.7635  151.2669 LP  0  0  0  0  0  0  0  0  0  0  0  0  # atno 17342 bound_to 10162
  140.7404  143.6590  150.8181 LP  0  0  0  0  0  0  0  0  0  0  0  0  # atno 17343 bound_to 10162
  156.4874  130.4087  149.6426 LP  0  0  0  0  0  0  0  0  0  0  0  0  # atno 17370 bound_to 10713
  156.3449  130.7401  151.2352 LP  0  0  0  0  0  0  0  0  0  0  0  0  # atno 17371 bound_to 10713
  140.3855  134.2241  155.7168 LP  0  0  0  0  0  0  0  0  0  0  0  0  # atno 17394 bound_to 11000
  141.1949  133.8119  157.0739 LP  0  0  0  0  0  0  0  0  0  0  0  0  # atno 17395 bound_to 11000

$$$$
