AV-unprocessed.smi:1235|AV-procd|sdf|5175|dock8
  -GOLD-   22720 4253D 1   1.00000     0.00000
 Structure written by MMmdl.
 50 51  0  0  0  0  0  0  0  0  2 V2000
  146.2764  142.7921  153.9424 C   0  0  0  0  0  0  0  0  0  0  0  0
  146.6290  142.1461  155.1533 O   0  0  0  0  0  0  0  0  0  0  0  0
  147.8590  141.4481  155.0577 C   0  0  0  0  0  0  0  0  0  0  0  0
  147.6633  140.2160  154.1616 C   0  0  0  0  0  0  0  0  0  0  0  0
  148.6159  139.1517  154.4933 N   0  0  0  0  0  0  0  0  0  0  0  0
  148.0304  137.9126  154.6928 N   0  0  0  0  0  0  0  0  0  0  0  0
  148.7621  136.8885  154.9931 C   0  0  0  0  0  0  0  0  0  0  0  0
  148.1708  135.5390  155.2118 C   0  0  0  0  0  0  0  0  0  0  0  0
  147.5200  135.2681  156.2225 O   0  0  0  0  0  0  0  0  0  0  0  0
  148.3989  134.6434  154.2340 N   0  0  0  0  0  0  0  0  0  0  0  0
  147.9157  133.2677  154.2286 C   0  0  0  0  0  0  0  0  0  0  0  0
  148.4918  132.4735  153.0380 C   0  0  0  0  0  0  0  0  0  0  0  0
  147.4578  132.1195  152.0235 N   0  3  2  0  0  0  0  0  0  0  0  0
  146.8194  133.3427  151.4546 C   0  0  0  0  0  0  0  0  0  0  0  0
  145.8477  133.0116  150.3141 C   0  0  0  0  0  0  0  0  0  0  0  0
  144.7642  132.0504  150.8005 C   0  0  0  0  0  0  0  0  0  0  0  0
  145.4251  130.7981  151.3808 C   0  0  0  0  0  0  0  0  0  0  0  0
  146.4326  131.1340  152.5038 C   0  0  1  0  0  0  0  0  0  0  0  0
  147.0469  129.8125  153.0135 C   0  0  0  0  0  0  0  0  0  0  0  0
  150.2032  137.0173  155.1284 C   0  0  0  0  0  0  0  0  0  0  0  0
  150.7591  138.2338  154.9369 C   0  0  0  0  0  0  0  0  0  0  0  0
  149.9545  139.4090  154.5989 C   0  0  0  0  0  0  0  0  0  0  0  0
  150.4365  140.5283  154.4279 O   0  0  0  0  0  0  0  0  0  0  0  0
  145.3321  143.3213  154.0712 H   0  0  0  0  0  0  0  0  0  0  0  0
  146.1507  142.0715  153.1329 H   0  0  0  0  0  0  0  0  0  0  0  0
  147.0330  143.5210  153.6485 H   0  0  0  0  0  0  0  0  0  0  0  0
  148.6268  142.1027  154.6420 H   0  0  0  0  0  0  0  0  0  0  0  0
  148.1896  141.1411  156.0515 H   0  0  0  0  0  0  0  0  0  0  0  0
  146.6420  139.8468  154.2723 H   0  0  0  0  0  0  0  0  0  0  0  0
  147.7564  140.4985  153.1114 H   0  0  0  0  0  0  0  0  0  0  0  0
  148.9391  134.9442  153.4349 H   0  0  0  0  0  0  0  0  0  0  0  0
  148.1602  132.8101  155.1867 H   0  0  0  0  0  0  0  0  0  0  0  0
  146.8276  133.2923  154.1653 H   0  0  0  0  0  0  0  0  0  0  0  0
  149.2683  133.0998  152.6070 H   0  0  0  0  0  0  0  0  0  0  0  0
  148.9921  131.5649  153.3763 H   0  0  0  0  0  0  0  0  0  0  0  0
  146.2923  133.8784  152.2459 H   0  0  0  0  0  0  0  0  0  0  0  0
  147.5704  134.0272  151.0650 H   0  0  0  0  0  0  0  0  0  0  0  0
  145.3903  133.9264  149.9361 H   0  0  0  0  0  0  0  0  0  0  0  0
  146.3926  132.5681  149.4795 H   0  0  0  0  0  0  0  0  0  0  0  0
  144.1478  132.5340  151.5596 H   0  0  0  0  0  0  0  0  0  0  0  0
  144.0996  131.7819  149.9787 H   0  0  0  0  0  0  0  0  0  0  0  0
  144.6505  130.1305  151.7602 H   0  0  0  0  0  0  0  0  0  0  0  0
  145.9319  130.2549  150.5814 H   0  0  0  0  0  0  0  0  0  0  0  0
  145.8849  131.5943  153.3279 H   0  0  0  0  0  0  0  0  0  0  0  0
  146.2731  129.0608  153.1735 H   0  0  0  0  0  0  0  0  0  0  0  0
  147.5513  129.9255  153.9723 H   0  0  0  0  0  0  0  0  0  0  0  0
  147.7582  129.4007  152.2969 H   0  0  0  0  0  0  0  0  0  0  0  0
  150.8217  136.1672  155.3775 H   0  0  0  0  0  0  0  0  0  0  0  0
  151.8290  138.3446  155.0357 H   0  0  0  0  0  0  0  0  0  0  0  0
  147.9454  131.6641  151.2653 H   0  0  0  0  0  0  0  0  0  0  0  0
  1  2  1  0  0  0  0
  1 24  1  0  0  0  0
  1 25  1  0  0  0  0
  1 26  1  0  0  0  0
  2  3  1  0  0  0  0
  3  4  1  0  0  0  0
  3 27  1  0  0  0  0
  3 28  1  0  0  0  0
  4  5  1  0  0  0  0
  4 29  1  0  0  0  0
  4 30  1  0  0  0  0
  5 22  1  0  0  0  0
  5  6  1  0  0  0  0
  6  7  2  0  0  0  0
  7  8  1  0  0  0  0
  7 20  1  0  0  0  0
  8  9  2  0  0  0  0
  8 10  1  0  0  0  0
 10 11  1  0  0  0  0
 10 31  1  0  0  0  0
 11 12  1  0  0  0  0
 11 32  1  0  0  0  0
 11 33  1  0  0  0  0
 12 13  1  0  0  0  0
 12 34  1  0  0  0  0
 12 35  1  0  0  0  0
 13 18  1  0  0  0  0
 13 14  1  0  0  0  0
 13 50  1  0  0  0  0
 14 15  1  0  0  0  0
 14 36  1  0  0  0  0
 14 37  1  0  0  0  0
 15 16  1  0  0  0  0
 15 38  1  0  0  0  0
 15 39  1  0  0  0  0
 16 17  1  0  0  0  0
 16 40  1  0  0  0  0
 16 41  1  0  0  0  0
 17 18  1  0  0  0  0
 17 42  1  0  0  0  0
 17 43  1  0  0  0  0
 18 19  1  0  0  0  0
 18 44  1  0  0  0  0
 19 45  1  0  0  0  0
 19 46  1  0  0  0  0
 19 47  1  0  0  0  0
 20 21  2  0  0  0  0
 20 48  1  0  0  0  0
 21 22  1  0  0  0  0
 21 49  1  0  0  0  0
 22 23  2  0  0  0  0
M  CHG  1  13   1
M  END
> <s_m_source_file>
AV-unprocessed.smi

> <i_m_source_file_index>
1235

> <i_lp_mmshare_version>
43012

> <i_f3d_flags>
0

> <s_epik_input>
W0NIM11PW0NIMl1bQ0gyXW4xbmMoW2NIXVtjSF1jMT1PKUMoPU8pW05IXVtDSDJdW0NIMl1OMltDSDJdW0NIMl1bQ0gyXVtDSDJdW0NASF0yW0NIM10=

> <s_epik_cmdline>
J2VwaWtfcHl0aG9uJywgJy1waCcsICc3LjAnLCAnLXRuJywgJzgnLCAnLW1hJywgJzIwMCcsICctbWV0YWxfYmluZGluZycsICctaW1hZScsICc8aW5maWxlLm1hZT4nLCAnLW9tYWUnLCAnPG91dGZpbGUubWFlPic=

> <r_lp_tautomer_probability>
1

> <r_epik_Ionization_Penalty>
0.00271975

> <r_epik_Ionization_Penalty_Charging>
0.00271407

> <r_epik_Ionization_Penalty_Neutral>
5.6803e-06

> <r_epik_State_Penalty>
0.00189271

> <r_epik_Charging_Adjusted_Penalty>
0.00460678

> <i_epik_Tot_Q>
1

> <i_epik_Tot_abs_Q>
1

> <r_epik_Metal_State_Penalty>
-0

> <b_epik_Metal_Only>
0

> <s_lp_Force_Field>
OPLS_2005

> <r_lp_Energy>
40.0899

> <b_lp_Chiralities_Consistent>
1

> <s_lp_Variant>
AV-unprocessed.smi:1235-1

> <Gold.Version>
5.8.1

> <Gold.Id.Protein>
6NUR|6NUR_protein|mol2

> <Gold.PLP.Fitness>
42.4168

> <Gold.PLP.PLP>
-37.8111

> <Gold.PLP.part.hbond>
-2.7244

> <Gold.PLP.part.metal>
0.0000

> <Gold.PLP.part.buried>
-5.6483

> <Gold.PLP.part.nonpolar>
-30.3283

> <Gold.PLP.part.repulsive>
0.4143

> <Gold.PLP.ligand.clash>
0.0000

> <Gold.PLP.ligand.torsion>
2.0291

> <Gold.PLP.Chemscore.Hbond>
2.8400

> <Gold.PLP.Chemscore.CHOScore>
0.0000

> <Gold.PLP.Chemscore.Metal>
0.0000

> <Gold.Chemscore.Hbonds>
donor molecule, donor type, donor heavy atom, donor atom, acceptor molecule, acceptor atom, score
      L1  H    10    31       P1  7948  0.90
      L1  H    13    50       P1 10747  1.00
      P1  H  7989  7998       L1    23  0.96

> <Gold.PLP.Chemscore.Internal.Correction>
0.1440

> <Gold.Rescore>
     Score         DG    S(hbond)    S(metal)    S(lipo)     H(rot)  DE(clash)    DE(int)     intcor
     16.51     -18.56       2.39        0.00      87.29       2.00       0.09       1.96       ----

> <Gold.Chemscore.Fitness>
16.5092

> <Gold.Chemscore.DG>
-18.5625

> <Gold.Chemscore.ZeroCoef>
-5.4800

> <Gold.Chemscore.Hbond>
2.3935

> <Gold.Chemscore.Metal>
0.0000

> <Gold.Chemscore.Lipo>
87.2936

> <Gold.Chemscore.Internal_Hbond>
0.0000

> <Gold.Chemscore.DEClash>
0.0901

> <Gold.Chemscore.DEInternal>
1.9632

> <Gold.Chemscore.Rot>
2.0020

> <Gold.Chemscore.Internal.Correction>
   9.000000E+99

> <Gold.Chemscore.Hbonds>
donor molecule, donor type, donor heavy atom, donor atom, acceptor molecule, acceptor atom, score
      L1  H    10    31       P1  7948  0.30
      L1  H    13    50       P1 10747  1.00
      P1  H  7989  7998       L1    23  0.87

> <Gold.Chemscore.Hbond.Weighted>
-7.9944

> <Gold.Chemscore.Metal.Weighted>
-0.0000

> <Gold.Chemscore.Lipo.Weighted>
-10.2133

> <Gold.Chemscore.Internal_Hbond.Weighted>
0.0000

> <Gold.Chemscore.DEClash.Weighted>
0.0901

> <Gold.Chemscore.DEInternal.Weighted>
1.9632

> <Gold.Chemscore.Rot.Weighted>
5.1252

> <Gold.Chemscore.Internal.Correction.Weighted>
   9.000000E+99

> <Gold.Protein.RotatedTorsions>
[ 6907 6896 6895 6894 ] final   90.19 input  -60.11 | X-H torsion
[ 7974 7965 7964 7962 ] final -103.24 input  175.53 | X-H torsion
[ 8008 7997 7996 7995 ] final  -96.80 input   59.86 | X-H torsion
[ 10167 10162 10161 10158 ] final  -92.16 input  -65.29 | X-H torsion
[ 10718 10713 10712 10709 ] final -101.23 input   66.30 | X-H torsion
[ 10763 10752 10751 10750 ] final  161.28 input  -60.55 | X-H torsion
[ 11005 11000 10999 10996 ] final  -10.52 input  -57.11 | X-H torsion

> <Gold.Protein.ActiveResidues>
 VAL166  LYS551  ARG553  GLY616  TRP617  ASP618  TYR619  PRO620  LYS621  CYS622 
 ASP623  PHE694  ASN695  SER759  ASP760  ASP761  ALA762  ILE779  LEU786  VAL792 
 PHE793  MET794  SER795  GLU796  ALA797  LYS798  CYS799  TRP800  GLU811  SER814 

> <Gold.Protein.RotatedAtoms>
  152.5442  134.1850  159.8650 H   0  0  0  0  0  0  0  0  0  0  0  0  # atno 6907 bound_to 6896
  151.1850  133.4695  159.2602 H   0  0  0  0  0  0  0  0  0  0  0  0  # atno 6908 bound_to 6896
  151.1140  135.0054  159.8563 H   0  0  0  0  0  0  0  0  0  0  0  0  # atno 6909 bound_to 6896
  145.2584  140.9261  143.3055 H   0  0  0  0  0  0  0  0  0  0  0  0  # atno 7974 bound_to 7965
  154.7792  140.0468  157.1114 H   0  0  0  0  0  0  0  0  0  0  0  0  # atno 8008 bound_to 7997
  154.9725  140.3091  155.4962 H   0  0  0  0  0  0  0  0  0  0  0  0  # atno 8009 bound_to 7997
  156.2934  140.2250  156.4818 H   0  0  0  0  0  0  0  0  0  0  0  0  # atno 8010 bound_to 7997
  140.3376  143.2960  151.9872 H   0  0  0  0  0  0  0  0  0  0  0  0  # atno 10167 bound_to 10162
  156.0188  130.5364  150.6932 H   0  0  0  0  0  0  0  0  0  0  0  0  # atno 10718 bound_to 10713
  154.2605  135.2768  155.2780 H   0  0  0  0  0  0  0  0  0  0  0  0  # atno 10763 bound_to 10752
  154.5387  135.5709  153.6824 H   0  0  0  0  0  0  0  0  0  0  0  0  # atno 10764 bound_to 10752
  152.9963  135.6246  154.2756 H   0  0  0  0  0  0  0  0  0  0  0  0  # atno 10765 bound_to 10752
  140.7456  133.8634  155.9003 H   0  0  0  0  0  0  0  0  0  0  0  0  # atno 11005 bound_to 11000
  144.9440  139.4157  143.6435 LP  0  0  0  0  0  0  0  0  0  0  0  0  # atno 17320 bound_to 7965
  146.3282  139.8414  142.8890 LP  0  0  0  0  0  0  0  0  0  0  0  0  # atno 17321 bound_to 7965
  139.4846  144.6184  151.7303 LP  0  0  0  0  0  0  0  0  0  0  0  0  # atno 17342 bound_to 10162
  140.5339  144.0686  150.6063 LP  0  0  0  0  0  0  0  0  0  0  0  0  # atno 17343 bound_to 10162
  157.4609  131.0883  151.0747 LP  0  0  0  0  0  0  0  0  0  0  0  0  # atno 17370 bound_to 10713
  157.1235  130.6072  149.5511 LP  0  0  0  0  0  0  0  0  0  0  0  0  # atno 17371 bound_to 10713
  140.9798  134.1421  157.4505 LP  0  0  0  0  0  0  0  0  0  0  0  0  # atno 17394 bound_to 11000
  139.8797  135.0006  156.6022 LP  0  0  0  0  0  0  0  0  0  0  0  0  # atno 17395 bound_to 11000

$$$$
