AV-unprocessed.smi:1283|AV-procd|sdf|5362|dock4
  -GOLD-   22720 4503D 1   1.00000     0.00000
 Structure written by MMmdl.
 30 31  0  0  0  0  0  0  0  0  1 V2000
  151.9455  137.8955  153.8158 C   0  0  0  0  0  0  0  0  0  0  0  0
  151.8039  138.6608  155.0554 N   0  0  0  0  0  0  0  0  0  0  0  0
  151.2032  139.8887  154.8715 N   0  0  0  0  0  0  0  0  0  0  0  0
  151.0212  140.6655  155.8829 C   0  0  0  0  0  0  0  0  0  0  0  0
  151.4236  140.3068  157.2334 C   0  0  0  0  0  0  0  0  0  0  0  0
  151.2278  141.1490  158.3194 N   0  0  0  0  0  0  0  0  0  0  0  0
  150.6223  142.4715  158.3306 C   0  0  0  0  0  0  0  0  0  0  0  0
  151.5999  143.5549  158.8126 C   0  0  1  0  0  0  0  0  0  0  0  0
  151.0397  144.9781  158.8706 C   0  0  0  0  0  0  0  0  0  0  0  0
  151.9488  145.6121  159.8991 C   0  0  0  0  0  0  0  0  0  0  0  0
  152.1384  144.4683  160.8923 C   0  0  0  0  0  0  0  0  0  0  0  0
  152.0846  143.2697  160.1226 O   0  0  0  0  0  0  0  0  0  0  0  0
  152.0106  139.0901  157.3885 C   0  0  0  0  0  0  0  0  0  0  0  0
  152.5243  138.5632  158.9569 Cl  0  0  0  0  0  0  0  0  0  0  0  0
  152.2341  138.1760  156.2583 C   0  0  0  0  0  0  0  0  0  0  0  0
  152.7620  137.0698  156.3791 O   0  0  0  0  0  0  0  0  0  0  0  0
  152.4211  136.9225  153.9442 H   0  0  0  0  0  0  0  0  0  0  0  0
  152.5441  138.4561  153.0966 H   0  0  0  0  0  0  0  0  0  0  0  0
  150.9654  137.7213  153.3702 H   0  0  0  0  0  0  0  0  0  0  0  0
  150.5507  141.6416  155.7667 H   0  0  0  0  0  0  0  0  0  0  0  0
  151.5372  140.8154  159.2215 H   0  0  0  0  0  0  0  0  0  0  0  0
  150.2747  142.7101  157.3252 H   0  0  0  0  0  0  0  0  0  0  0  0
  149.7452  142.4549  158.9784 H   0  0  0  0  0  0  0  0  0  0  0  0
  152.4695  143.5583  158.1539 H   0  0  0  0  0  0  0  0  0  0  0  0
  151.0646  145.4847  157.9055 H   0  0  0  0  0  0  0  0  0  0  0  0
  150.0116  144.9885  159.2345 H   0  0  0  0  0  0  0  0  0  0  0  0
  152.9040  145.8771  159.4435 H   0  0  0  0  0  0  0  0  0  0  0  0
  151.5256  146.5077  160.3546 H   0  0  0  0  0  0  0  0  0  0  0  0
  153.0748  144.5472  161.4449 H   0  0  0  0  0  0  0  0  0  0  0  0
  151.3198  144.4528  161.6128 H   0  0  0  0  0  0  0  0  0  0  0  0
  1  2  1  0  0  0  0
  1 17  1  0  0  0  0
  1 18  1  0  0  0  0
  1 19  1  0  0  0  0
  2 15  1  0  0  0  0
  2  3  1  0  0  0  0
  3  4  2  0  0  0  0
  4  5  1  0  0  0  0
  4 20  1  0  0  0  0
  5  6  1  0  0  0  0
  5 13  2  0  0  0  0
  6  7  1  0  0  0  0
  6 21  1  0  0  0  0
  7  8  1  0  0  0  0
  7 22  1  0  0  0  0
  7 23  1  0  0  0  0
  8 12  1  0  0  0  0
  8  9  1  0  0  0  0
  8 24  1  0  0  0  0
  9 10  1  0  0  0  0
  9 25  1  0  0  0  0
  9 26  1  0  0  0  0
 10 11  1  0  0  0  0
 10 27  1  0  0  0  0
 10 28  1  0  0  0  0
 11 12  1  0  0  0  0
 11 29  1  0  0  0  0
 11 30  1  0  0  0  0
 13 14  1  0  0  0  0
 13 15  1  0  0  0  0
 15 16  2  0  0  0  0
M  END
> <s_m_source_file>
AV-unprocessed.smi

> <i_m_source_file_index>
1283

> <i_lp_mmshare_version>
43012

> <i_f3d_flags>
0

> <s_epik_input>
W0NIM11uMW5bY0hdYyhjKENsKWMxPU8pW05IXVtDSDJdW0NAQEhdMltDSDJdW0NIMl1bQ0gyXU8y

> <s_epik_cmdline>
J2VwaWtfcHl0aG9uJywgJy1waCcsICc3LjAnLCAnLXRuJywgJzgnLCAnLW1hJywgJzIwMCcsICctbWV0YWxfYmluZGluZycsICctaW1hZScsICc8aW5maWxlLm1hZT4nLCAnLW9tYWUnLCAnPG91dGZpbGUubWFlPic=

> <r_lp_tautomer_probability>
1

> <r_epik_Ionization_Penalty>
2.40876e-05

> <r_epik_Ionization_Penalty_Charging>
4.17655e-09

> <r_epik_Ionization_Penalty_Neutral>
2.40834e-05

> <r_epik_State_Penalty>
-0

> <r_epik_Charging_Adjusted_Penalty>
4.17655e-09

> <i_epik_Tot_Q>
0

> <i_epik_Tot_abs_Q>
0

> <r_epik_Metal_State_Penalty>
-0

> <b_epik_Metal_Only>
0

> <s_lp_Force_Field>
OPLS_2005

> <r_lp_Energy>
41.0811

> <b_lp_Chiralities_Consistent>
1

> <s_lp_Variant>
AV-unprocessed.smi:1283-2

> <Gold.Version>
5.8.1

> <Gold.Id.Protein>
6NUR|6NUR_protein|mol2

> <Gold.PLP.Fitness>
36.7106

> <Gold.PLP.PLP>
-31.6543

> <Gold.PLP.part.hbond>
-2.0000

> <Gold.PLP.part.metal>
0.0000

> <Gold.PLP.part.buried>
-5.8935

> <Gold.PLP.part.nonpolar>
-24.7408

> <Gold.PLP.part.repulsive>
0.2094

> <Gold.PLP.ligand.clash>
0.0000

> <Gold.PLP.ligand.torsion>
0.0017

> <Gold.PLP.Chemscore.Hbond>
1.6864

> <Gold.PLP.Chemscore.CHOScore>
0.0000

> <Gold.PLP.Chemscore.Metal>
0.0000

> <Gold.Chemscore.Hbonds>
donor molecule, donor type, donor heavy atom, donor atom, acceptor molecule, acceptor atom, score
      P1  H  7989  7998       L1     3  1.00
      P1  H 10752 10765       L1    16  0.70

> <Gold.PLP.Chemscore.Internal.Correction>
0.0004

> <Gold.Rescore>
     Score         DG    S(hbond)    S(metal)    S(lipo)     H(rot)  DE(clash)    DE(int)     intcor
     16.14     -17.50       1.56        0.00      84.81       1.22       1.33       0.02       ----

> <Gold.Chemscore.Fitness>
16.1448

> <Gold.Chemscore.DG>
-17.4950

> <Gold.Chemscore.ZeroCoef>
-5.4800

> <Gold.Chemscore.Hbond>
1.5623

> <Gold.Chemscore.Metal>
0.0000

> <Gold.Chemscore.Lipo>
84.8063

> <Gold.Chemscore.Internal_Hbond>
0.0000

> <Gold.Chemscore.DEClash>
1.3314

> <Gold.Chemscore.DEInternal>
0.0188

> <Gold.Chemscore.Rot>
1.2208

> <Gold.Chemscore.Internal.Correction>
   9.000000E+99

> <Gold.Chemscore.Hbonds>
donor molecule, donor type, donor heavy atom, donor atom, acceptor molecule, acceptor atom, score
      P1  H  7989  7998       L1     3  0.64
      P1  H 10752 10765       L1    16  0.68

> <Gold.Chemscore.Hbond.Weighted>
-5.2180

> <Gold.Chemscore.Metal.Weighted>
-0.0000

> <Gold.Chemscore.Lipo.Weighted>
-9.9223

> <Gold.Chemscore.Internal_Hbond.Weighted>
0.0000

> <Gold.Chemscore.DEClash.Weighted>
1.3314

> <Gold.Chemscore.DEInternal.Weighted>
0.0188

> <Gold.Chemscore.Rot.Weighted>
3.1253

> <Gold.Chemscore.Internal.Correction.Weighted>
   9.000000E+99

> <Gold.Protein.RotatedTorsions>
[ 6907 6896 6895 6894 ] final -149.89 input  -60.11 | X-H torsion
[ 7974 7965 7964 7962 ] final  -28.44 input  175.53 | X-H torsion
[ 8008 7997 7996 7995 ] final -140.34 input   59.86 | X-H torsion
[ 10167 10162 10161 10158 ] final  -80.24 input  -65.29 | X-H torsion
[ 10718 10713 10712 10709 ] final   70.07 input   66.30 | X-H torsion
[ 10763 10752 10751 10750 ] final -149.42 input  -60.55 | X-H torsion
[ 11005 11000 10999 10996 ] final  -95.59 input  -57.11 | X-H torsion

> <Gold.Protein.ActiveResidues>
 VAL166  LYS551  ARG553  GLY616  TRP617  ASP618  TYR619  PRO620  LYS621  CYS622 
 ASP623  PHE694  ASN695  SER759  ASP760  ASP761  ALA762  ILE779  LEU786  VAL792 
 PHE793  MET794  SER795  GLU796  ALA797  LYS798  CYS799  TRP800  GLU811  SER814 

> <Gold.Protein.RotatedAtoms>
  151.1907  133.4669  159.2594 H   0  0  0  0  0  0  0  0  0  0  0  0  # atno 6907 bound_to 6896
  151.1167  135.0056  159.8529 H   0  0  0  0  0  0  0  0  0  0  0  0  # atno 6908 bound_to 6896
  152.5453  134.1822  159.8693 H   0  0  0  0  0  0  0  0  0  0  0  0  # atno 6909 bound_to 6896
  146.1287  140.5283  142.8703 H   0  0  0  0  0  0  0  0  0  0  0  0  # atno 7974 bound_to 7965
  155.4598  140.0545  157.2992 H   0  0  0  0  0  0  0  0  0  0  0  0  # atno 8008 bound_to 7997
  154.4742  140.2053  155.9874 H   0  0  0  0  0  0  0  0  0  0  0  0  # atno 8009 bound_to 7997
  156.1105  140.3205  155.8071 H   0  0  0  0  0  0  0  0  0  0  0  0  # atno 8010 bound_to 7997
  140.4521  143.2480  151.8474 H   0  0  0  0  0  0  0  0  0  0  0  0  # atno 10167 bound_to 10162
  157.6380  130.9458  150.0600 H   0  0  0  0  0  0  0  0  0  0  0  0  # atno 10718 bound_to 10713
  154.8178  135.3309  154.7126 H   0  0  0  0  0  0  0  0  0  0  0  0  # atno 10763 bound_to 10752
  153.7763  135.6922  153.4901 H   0  0  0  0  0  0  0  0  0  0  0  0  # atno 10764 bound_to 10752
  153.2010  135.4516  155.0214 H   0  0  0  0  0  0  0  0  0  0  0  0  # atno 10765 bound_to 10752
  141.1437  133.8037  157.0456 H   0  0  0  0  0  0  0  0  0  0  0  0  # atno 11005 bound_to 11000
  144.7669  140.5550  143.6697 LP  0  0  0  0  0  0  0  0  0  0  0  0  # atno 17320 bound_to 7965
  145.5308  139.1475  143.3501 LP  0  0  0  0  0  0  0  0  0  0  0  0  # atno 17321 bound_to 7965
  139.4797  144.5108  151.8935 LP  0  0  0  0  0  0  0  0  0  0  0  0  # atno 17342 bound_to 10162
  140.4195  144.2262  150.5887 LP  0  0  0  0  0  0  0  0  0  0  0  0  # atno 17343 bound_to 10162
  156.1635  130.3644  149.9265 LP  0  0  0  0  0  0  0  0  0  0  0  0  # atno 17370 bound_to 10713
  156.7257  130.9024  151.3622 LP  0  0  0  0  0  0  0  0  0  0  0  0  # atno 17371 bound_to 10713
  140.0665  134.9726  157.1394 LP  0  0  0  0  0  0  0  0  0  0  0  0  # atno 17394 bound_to 11000
  140.3773  134.2325  155.7173 LP  0  0  0  0  0  0  0  0  0  0  0  0  # atno 17395 bound_to 11000

$$$$
