AV-unprocessed.smi:1800|AV-procd|sdf|7265|dock9
  -GOLD-   22720 8523D 1   1.00000     0.00000
 Structure written by MMmdl.
 35 36  0  0  0  0  0  0  0  0  2 V2000
  150.8750  142.3074  156.3113 C   0  0  0  0  0  0  0  0  0  0  0  0
  150.4122  141.5380  157.5563 C   0  0  2  0  0  0  0  0  0  0  0  0
  151.3516  141.7806  158.7655 C   0  0  0  0  0  0  0  0  0  0  0  0
  151.5704  143.1888  159.0859 N   0  0  0  0  0  0  0  0  0  0  0  0
  152.1428  144.1752  158.3045 C   0  0  0  0  0  0  0  0  0  0  0  0
  152.1399  145.3298  159.0334 C   0  0  0  0  0  0  0  0  0  0  0  0
  151.5493  144.9466  160.2695 C   0  0  0  0  0  0  0  0  0  0  0  0
  151.2249  143.6649  160.3052 N   0  0  0  0  0  0  0  0  0  0  0  0
  150.3589  140.1174  157.2394 N   0  5  0  0  0  0  0  0  0  0  0  0
  151.4527  139.4766  156.2277 S   0  0  0  0  0  0  0  0  0  0  0  0
  151.0720  139.6236  154.8129 O   0  0  0  0  0  0  0  0  0  0  0  0
  152.8281  139.8583  156.5870 O   0  0  0  0  0  0  0  0  0  0  0  0
  151.2772  137.6746  156.6460 C   0  0  0  0  0  0  0  0  0  0  0  0
  150.4224  137.4680  157.9004 C   0  0  0  0  0  0  0  0  0  0  0  0
  151.3861  137.6677  159.0722 C   0  0  0  0  0  0  0  0  0  0  0  0
  152.7676  137.2419  158.5541 C   0  0  0  0  0  0  0  0  0  0  0  0
  152.6247  137.0528  157.0362 C   0  0  0  0  0  0  0  0  0  0  0  0
  150.9113  143.3794  156.5062 H   0  0  0  0  0  0  0  0  0  0  0  0
  150.1930  142.1496  155.4748 H   0  0  0  0  0  0  0  0  0  0  0  0
  151.8708  141.9943  155.9947 H   0  0  0  0  0  0  0  0  0  0  0  0
  149.4275  141.9270  157.8196 H   0  0  0  0  0  0  0  0  0  0  0  0
  150.9691  141.2703  159.6515 H   0  0  0  0  0  0  0  0  0  0  0  0
  152.3279  141.3395  158.5614 H   0  0  0  0  0  0  0  0  0  0  0  0
  152.4908  143.9755  157.3018 H   0  0  0  0  0  0  0  0  0  0  0  0
  152.5020  146.3001  158.7283 H   0  0  0  0  0  0  0  0  0  0  0  0
  151.3532  145.5567  161.1387 H   0  0  0  0  0  0  0  0  0  0  0  0
  150.8286  137.1790  155.7848 H   0  0  0  0  0  0  0  0  0  0  0  0
  149.5564  138.1278  157.9528 H   0  0  0  0  0  0  0  0  0  0  0  0
  150.0478  136.4439  157.9135 H   0  0  0  0  0  0  0  0  0  0  0  0
  151.4091  138.7217  159.3520 H   0  0  0  0  0  0  0  0  0  0  0  0
  151.0815  137.1034  159.9538 H   0  0  0  0  0  0  0  0  0  0  0  0
  153.5105  138.0065  158.7839 H   0  0  0  0  0  0  0  0  0  0  0  0
  153.0987  136.3160  159.0248 H   0  0  0  0  0  0  0  0  0  0  0  0
  152.6028  135.9863  156.8100 H   0  0  0  0  0  0  0  0  0  0  0  0
  153.4610  137.4788  156.4811 H   0  0  0  0  0  0  0  0  0  0  0  0
  1  2  1  0  0  0  0
  1 18  1  0  0  0  0
  1 19  1  0  0  0  0
  1 20  1  0  0  0  0
  2  3  1  0  0  0  0
  2  9  1  0  0  0  0
  2 21  1  0  0  0  0
  3  4  1  0  0  0  0
  3 22  1  0  0  0  0
  3 23  1  0  0  0  0
  4  8  1  0  0  0  0
  4  5  1  0  0  0  0
  5  6  2  0  0  0  0
  5 24  1  0  0  0  0
  6  7  1  0  0  0  0
  6 25  1  0  0  0  0
  7  8  2  0  0  0  0
  7 26  1  0  0  0  0
  9 10  1  0  0  0  0
 10 11  2  0  0  0  0
 10 12  2  0  0  0  0
 10 13  1  0  0  0  0
 13 17  1  0  0  0  0
 13 14  1  0  0  0  0
 13 27  1  0  0  0  0
 14 15  1  0  0  0  0
 14 28  1  0  0  0  0
 14 29  1  0  0  0  0
 15 16  1  0  0  0  0
 15 30  1  0  0  0  0
 15 31  1  0  0  0  0
 16 17  1  0  0  0  0
 16 32  1  0  0  0  0
 16 33  1  0  0  0  0
 17 34  1  0  0  0  0
 17 35  1  0  0  0  0
M  CHG  1   9  -1
M  END
> <s_m_source_file>
AV-unprocessed.smi

> <i_m_source_file_index>
1800

> <i_lp_mmshare_version>
43012

> <i_f3d_flags>
0

> <s_epik_input>
bjFbY0hdW2NIXVtjSF1uMVtDSDJdW0NAQEhdKFtDSDNdKVtOSF1TKD1PKSg9TylbQ0hdMltDSDJdW0NIMl1bQ0gyXVtDSDJdMg==

> <s_epik_cmdline>
J2VwaWtfcHl0aG9uJywgJy1waCcsICc3LjAnLCAnLXRuJywgJzgnLCAnLW1hJywgJzIwMCcsICctbWV0YWxfYmluZGluZycsICctaW1hZScsICc8aW5maWxlLm1hZT4nLCAnLW9tYWUnLCAnPG91dGZpbGUubWFlPic=

> <r_lp_tautomer_probability>
1

> <r_epik_Ionization_Penalty>
6.58538

> <r_epik_Ionization_Penalty_Charging>
6.58536

> <r_epik_Ionization_Penalty_Neutral>
2.3841e-05

> <r_epik_State_Penalty>
6.58535

> <r_epik_Charging_Adjusted_Penalty>
13.1707

> <i_epik_Tot_Q>
-1

> <i_epik_Tot_abs_Q>
1

> <r_epik_Metal_State_Penalty>
2.50999

> <b_epik_Metal_Only>
1

> <s_lp_Force_Field>
OPLS_2005

> <r_lp_Energy>
15.5641

> <b_lp_Chiralities_Consistent>
1

> <s_lp_Variant>
AV-unprocessed.smi:1800-3

> <Gold.Version>
5.8.1

> <Gold.Id.Protein>
6NUR|6NUR_protein|mol2

> <Gold.PLP.Fitness>
36.2548

> <Gold.PLP.PLP>
-32.2780

> <Gold.PLP.part.hbond>
-2.1656

> <Gold.PLP.part.metal>
0.0000

> <Gold.PLP.part.buried>
-4.4727

> <Gold.PLP.part.nonpolar>
-24.7710

> <Gold.PLP.part.repulsive>
0.1372

> <Gold.PLP.ligand.clash>
0.6778

> <Gold.PLP.ligand.torsion>
1.2170

> <Gold.PLP.Chemscore.Hbond>
2.0000

> <Gold.PLP.Chemscore.CHOScore>
0.0000

> <Gold.PLP.Chemscore.Metal>
0.0000

> <Gold.Chemscore.Hbonds>
donor molecule, donor type, donor heavy atom, donor atom, acceptor molecule, acceptor atom, score
      P1  H  7989  7998       L1    11  1.00
      P1  H  7997  8009       L1    12  1.00

> <Gold.PLP.Chemscore.Internal.Correction>
1.0886

> <Gold.Rescore>
     Score         DG    S(hbond)    S(metal)    S(lipo)     H(rot)  DE(clash)    DE(int)     intcor
     16.50     -17.64       1.99        0.00      80.22       1.51       0.01       1.13       ----

> <Gold.Chemscore.Fitness>
16.5016

> <Gold.Chemscore.DG>
-17.6415

> <Gold.Chemscore.ZeroCoef>
-5.4800

> <Gold.Chemscore.Hbond>
1.9918

> <Gold.Chemscore.Metal>
0.0000

> <Gold.Chemscore.Lipo>
80.2229

> <Gold.Chemscore.Internal_Hbond>
0.0000

> <Gold.Chemscore.DEClash>
0.0141

> <Gold.Chemscore.DEInternal>
1.1258

> <Gold.Chemscore.Rot>
1.5146

> <Gold.Chemscore.Internal.Correction>
   9.000000E+99

> <Gold.Chemscore.Hbonds>
donor molecule, donor type, donor heavy atom, donor atom, acceptor molecule, acceptor atom, score
      P1  H  7989  7998       L1    11  1.00
      P1  H  7997  8009       L1    12  0.95

> <Gold.Chemscore.Hbond.Weighted>
-6.6527

> <Gold.Chemscore.Metal.Weighted>
-0.0000

> <Gold.Chemscore.Lipo.Weighted>
-9.3861

> <Gold.Chemscore.Internal_Hbond.Weighted>
0.0000

> <Gold.Chemscore.DEClash.Weighted>
0.0141

> <Gold.Chemscore.DEInternal.Weighted>
1.1258

> <Gold.Chemscore.Rot.Weighted>
3.8773

> <Gold.Chemscore.Internal.Correction.Weighted>
   9.000000E+99

> <Gold.Protein.RotatedTorsions>
[ 6907 6896 6895 6894 ] final  -42.57 input  -60.11 | X-H torsion
[ 7974 7965 7964 7962 ] final  -33.43 input  175.53 | X-H torsion
[ 8008 7997 7996 7995 ] final -157.07 input   59.86 | X-H torsion
[ 10167 10162 10161 10158 ] final  -73.81 input  -65.29 | X-H torsion
[ 10718 10713 10712 10709 ] final  -50.21 input   66.30 | X-H torsion
[ 10763 10752 10751 10750 ] final -124.25 input  -60.55 | X-H torsion
[ 11005 11000 10999 10996 ] final -120.52 input  -57.11 | X-H torsion

> <Gold.Protein.ActiveResidues>
 VAL166  LYS551  ARG553  GLY616  TRP617  ASP618  TYR619  PRO620  LYS621  CYS622 
 ASP623  PHE694  ASN695  SER759  ASP760  ASP761  ALA762  ILE779  LEU786  VAL792 
 PHE793  MET794  SER795  GLU796  ALA797  LYS798  CYS799  TRP800  GLU811  SER814 

> <Gold.Protein.RotatedAtoms>
  150.9538  134.8934  159.7687 H   0  0  0  0  0  0  0  0  0  0  0  0  # atno 6907 bound_to 6896
  152.5130  134.3769  159.9348 H   0  0  0  0  0  0  0  0  0  0  0  0  # atno 6908 bound_to 6896
  151.3784  133.3789  159.2742 H   0  0  0  0  0  0  0  0  0  0  0  0  # atno 6909 bound_to 6896
  146.0911  140.5915  142.8864 H   0  0  0  0  0  0  0  0  0  0  0  0  # atno 7974 bound_to 7965
  155.7268  140.0797  157.2306 H   0  0  0  0  0  0  0  0  0  0  0  0  # atno 8008 bound_to 7997
  154.4038  140.1602  156.2518 H   0  0  0  0  0  0  0  0  0  0  0  0  # atno 8009 bound_to 7997
  155.9146  140.3401  155.6128 H   0  0  0  0  0  0  0  0  0  0  0  0  # atno 8010 bound_to 7997
  140.5079  143.2349  151.7642 H   0  0  0  0  0  0  0  0  0  0  0  0  # atno 10167 bound_to 10162
  156.1821  130.4151  149.9491 H   0  0  0  0  0  0  0  0  0  0  0  0  # atno 10718 bound_to 10713
  154.8720  135.4070  154.3075 H   0  0  0  0  0  0  0  0  0  0  0  0  # atno 10763 bound_to 10752
  153.3924  135.7015  153.6490 H   0  0  0  0  0  0  0  0  0  0  0  0  # atno 10764 bound_to 10752
  153.5267  135.3676  155.2628 H   0  0  0  0  0  0  0  0  0  0  0  0  # atno 10765 bound_to 10752
  141.0138  134.0226  157.3378 H   0  0  0  0  0  0  0  0  0  0  0  0  # atno 11005 bound_to 11000
  144.7361  140.4812  143.6903 LP  0  0  0  0  0  0  0  0  0  0  0  0  # atno 17320 bound_to 7965
  145.6037  139.1506  143.3115 LP  0  0  0  0  0  0  0  0  0  0  0  0  # atno 17321 bound_to 7965
  139.4888  144.4431  151.9741 LP  0  0  0  0  0  0  0  0  0  0  0  0  # atno 17342 bound_to 10162
  140.3522  144.3075  150.5947 LP  0  0  0  0  0  0  0  0  0  0  0  0  # atno 17343 bound_to 10162
  156.7258  130.9024  151.3622 LP  0  0  0  0  0  0  0  0  0  0  0  0  # atno 17370 bound_to 10713
  157.6875  130.9200  150.0425 LP  0  0  0  0  0  0  0  0  0  0  0  0  # atno 17371 bound_to 10713
  139.9105  135.0189  156.7670 LP  0  0  0  0  0  0  0  0  0  0  0  0  # atno 17394 bound_to 11000
  140.6690  133.9577  155.7846 LP  0  0  0  0  0  0  0  0  0  0  0  0  # atno 17395 bound_to 11000

$$$$
