AV-unprocessed.smi:2115|AV-procd|sdf|8623|dock3
  -GOLD-   2272011363D 1   1.00000     0.00000
 Structure written by MMmdl.
 37 38  0  0  0  0  0  0  0  0  1 V2000
  151.8460  144.8592  159.2998 C   0  0  0  0  0  0  0  0  0  0  0  0
  151.1974  143.6439  158.9700 O   0  0  0  0  0  0  0  0  0  0  0  0
  151.6727  143.0860  157.7559 C   0  0  0  0  0  0  0  0  0  0  0  0
  150.9204  141.7820  157.4750 C   0  0  0  0  0  0  0  0  0  0  0  0
  151.0448  141.4683  156.0909 O   0  0  0  0  0  0  0  0  0  0  0  0
  150.8194  140.1684  155.6870 C   0  0  0  0  0  0  0  0  0  0  0  0
  151.0768  139.1258  156.5987 C   0  0  0  0  0  0  0  0  0  0  0  0
  150.8462  137.7979  156.1930 C   0  0  0  0  0  0  0  0  0  0  0  0
  150.3566  137.5494  154.8949 C   0  0  0  0  0  0  0  0  0  0  0  0
  150.1480  136.1971  154.5100 N   0  0  0  0  0  0  0  0  0  0  0  0
  150.4060  135.0723  155.2041 C   0  0  0  0  0  0  0  0  0  0  0  0
  150.8831  135.0484  156.3383 O   0  0  0  0  0  0  0  0  0  0  0  0
  150.0658  133.7516  154.4981 C   0  0  2  0  0  0  0  0  0  0  0  0
  148.5940  133.6099  154.0966 C   0  0  0  0  0  0  0  0  0  0  0  0
  148.4232  132.1077  154.0829 C   0  0  0  0  0  0  0  0  0  0  0  0
  149.2817  131.6812  155.2687 C   0  0  0  0  0  0  0  0  0  0  0  0
  150.3258  132.6463  155.3656 O   0  0  0  0  0  0  0  0  0  0  0  0
  150.1416  138.6644  154.0483 C   0  0  0  0  0  0  0  0  0  0  0  0
  150.3638  139.9403  154.4305 N   0  0  0  0  0  0  0  0  0  0  0  0
  151.4490  145.2431  160.2396 H   0  0  0  0  0  0  0  0  0  0  0  0
  151.6812  145.6153  158.5308 H   0  0  0  0  0  0  0  0  0  0  0  0
  152.9199  144.7125  159.4232 H   0  0  0  0  0  0  0  0  0  0  0  0
  151.4932  143.7909  156.9429 H   0  0  0  0  0  0  0  0  0  0  0  0
  152.7478  142.9055  157.8010 H   0  0  0  0  0  0  0  0  0  0  0  0
  151.3123  140.9805  158.1035 H   0  0  0  0  0  0  0  0  0  0  0  0
  149.8659  141.9167  157.7206 H   0  0  0  0  0  0  0  0  0  0  0  0
  151.4446  139.3410  157.5910 H   0  0  0  0  0  0  0  0  0  0  0  0
  151.0394  136.9827  156.8750 H   0  0  0  0  0  0  0  0  0  0  0  0
  149.8246  136.0602  153.5631 H   0  0  0  0  0  0  0  0  0  0  0  0
  150.6996  133.6435  153.6167 H   0  0  0  0  0  0  0  0  0  0  0  0
  147.9324  134.0535  154.8429 H   0  0  0  0  0  0  0  0  0  0  0  0
  148.3734  134.0640  153.1298 H   0  0  0  0  0  0  0  0  0  0  0  0
  147.3835  131.7921  154.1728 H   0  0  0  0  0  0  0  0  0  0  0  0
  148.8283  131.6948  153.1581 H   0  0  0  0  0  0  0  0  0  0  0  0
  148.6984  131.7115  156.1897 H   0  0  0  0  0  0  0  0  0  0  0  0
  149.6797  130.6728  155.1528 H   0  0  0  0  0  0  0  0  0  0  0  0
  149.8031  138.5546  153.0302 H   0  0  0  0  0  0  0  0  0  0  0  0
  1  2  1  0  0  0  0
  1 20  1  0  0  0  0
  1 21  1  0  0  0  0
  1 22  1  0  0  0  0
  2  3  1  0  0  0  0
  3  4  1  0  0  0  0
  3 23  1  0  0  0  0
  3 24  1  0  0  0  0
  4  5  1  0  0  0  0
  4 25  1  0  0  0  0
  4 26  1  0  0  0  0
  5  6  1  0  0  0  0
  6 19  1  0  0  0  0
  6  7  2  0  0  0  0
  7  8  1  0  0  0  0
  7 27  1  0  0  0  0
  8  9  2  0  0  0  0
  8 28  1  0  0  0  0
  9 10  1  0  0  0  0
  9 18  1  0  0  0  0
 10 11  1  0  0  0  0
 10 29  1  0  0  0  0
 11 12  2  0  0  0  0
 11 13  1  0  0  0  0
 13 17  1  0  0  0  0
 13 14  1  0  0  0  0
 13 30  1  0  0  0  0
 14 15  1  0  0  0  0
 14 31  1  0  0  0  0
 14 32  1  0  0  0  0
 15 16  1  0  0  0  0
 15 33  1  0  0  0  0
 15 34  1  0  0  0  0
 16 17  1  0  0  0  0
 16 35  1  0  0  0  0
 16 36  1  0  0  0  0
 18 19  2  0  0  0  0
 18 37  1  0  0  0  0
M  END
> <s_m_source_file>
AV-unprocessed.smi

> <i_m_source_file_index>
2115

> <i_lp_mmshare_version>
43012

> <i_f3d_flags>
0

> <s_epik_input>
W0NIM11PW0NIMl1bQ0gyXU9jMVtjSF1bY0hdYyhbY0hdbjEpW05IXUMoPU8pW0NAQEhdMltDSDJdW0NIMl1bQ0gyXU8y

> <s_epik_cmdline>
J2VwaWtfcHl0aG9uJywgJy1waCcsICc3LjAnLCAnLXRuJywgJzgnLCAnLW1hJywgJzIwMCcsICctbWV0YWxfYmluZGluZycsICctaW1hZScsICc8aW5maWxlLm1hZT4nLCAnLW9tYWUnLCAnPG91dGZpbGUubWFlPic=

> <r_lp_tautomer_probability>
1

> <r_epik_Ionization_Penalty>
1.60185e-05

> <r_epik_Ionization_Penalty_Charging>
0

> <r_epik_Ionization_Penalty_Neutral>
1.60185e-05

> <r_epik_State_Penalty>
-0

> <r_epik_Charging_Adjusted_Penalty>
0

> <i_epik_Tot_Q>
0

> <i_epik_Tot_abs_Q>
0

> <r_epik_Metal_State_Penalty>
-0

> <b_epik_Metal_Only>
0

> <s_lp_Force_Field>
OPLS_2005

> <r_lp_Energy>
24.9122

> <b_lp_Chiralities_Consistent>
1

> <s_lp_Variant>
AV-unprocessed.smi:2115-1

> <Gold.Version>
5.8.1

> <Gold.Id.Protein>
6NUR|6NUR_protein|mol2

> <Gold.PLP.Fitness>
40.0491

> <Gold.PLP.PLP>
-31.0016

> <Gold.PLP.part.hbond>
-2.5431

> <Gold.PLP.part.metal>
0.0000

> <Gold.PLP.part.buried>
-5.9040

> <Gold.PLP.part.nonpolar>
-24.0723

> <Gold.PLP.part.repulsive>
0.3002

> <Gold.PLP.ligand.clash>
0.0000

> <Gold.PLP.ligand.torsion>
0.5675

> <Gold.PLP.Chemscore.Hbond>
1.8000

> <Gold.PLP.Chemscore.CHOScore>
1.5553

> <Gold.PLP.Chemscore.Metal>
0.0000

> <Gold.Chemscore.Hbonds>
donor molecule, donor type, donor heavy atom, donor atom, acceptor molecule, acceptor atom, score
      L1  H    10    29       P1  7948  0.80
      P1  H  7989  7998       L1    19  0.95
      L1  C    18    37       P1  7948  0.56
      L1  C    18    37       P1  7957  1.00

> <Gold.PLP.Chemscore.Internal.Correction>
0.1166

> <Gold.Rescore>
     Score         DG    S(hbond)    S(metal)    S(lipo)     H(rot)  DE(clash)    DE(int)     intcor
     12.09     -14.14       1.76        0.00      64.06       1.84       0.03       2.02       ----

> <Gold.Chemscore.Fitness>
12.0940

> <Gold.Chemscore.DG>
-14.1430

> <Gold.Chemscore.ZeroCoef>
-5.4800

> <Gold.Chemscore.Hbond>
1.7599

> <Gold.Chemscore.Metal>
0.0000

> <Gold.Chemscore.Lipo>
64.0575

> <Gold.Chemscore.Internal_Hbond>
0.0000

> <Gold.Chemscore.DEClash>
0.0255

> <Gold.Chemscore.DEInternal>
2.0234

> <Gold.Chemscore.Rot>
1.8398

> <Gold.Chemscore.Internal.Correction>
   9.000000E+99

> <Gold.Chemscore.Hbonds>
donor molecule, donor type, donor heavy atom, donor atom, acceptor molecule, acceptor atom, score
      L1  H    10    29       P1  7948  0.12
      P1  H  7989  7998       L1    19  0.20

> <Gold.Chemscore.Hbond.Weighted>
-5.8781

> <Gold.Chemscore.Metal.Weighted>
-0.0000

> <Gold.Chemscore.Lipo.Weighted>
-7.4947

> <Gold.Chemscore.Internal_Hbond.Weighted>
0.0000

> <Gold.Chemscore.DEClash.Weighted>
0.0255

> <Gold.Chemscore.DEInternal.Weighted>
2.0234

> <Gold.Chemscore.Rot.Weighted>
4.7099

> <Gold.Chemscore.Internal.Correction.Weighted>
   9.000000E+99

> <Gold.Protein.RotatedTorsions>
[ 6907 6896 6895 6894 ] final  -53.47 input  -60.11 | X-H torsion
[ 7974 7965 7964 7962 ] final   40.67 input  175.53 | X-H torsion
[ 8008 7997 7996 7995 ] final   89.53 input   59.86 | X-H torsion
[ 10167 10162 10161 10158 ] final  -45.52 input  -65.29 | X-H torsion
[ 10718 10713 10712 10709 ] final  132.51 input   66.30 | X-H torsion
[ 10763 10752 10751 10750 ] final  157.51 input  -60.55 | X-H torsion
[ 11005 11000 10999 10996 ] final   17.25 input  -57.11 | X-H torsion

> <Gold.Protein.ActiveResidues>
 VAL166  LYS551  ARG553  GLY616  TRP617  ASP618  TYR619  PRO620  LYS621  CYS622 
 ASP623  PHE694  ASN695  SER759  ASP760  ASP761  ALA762  ILE779  LEU786  VAL792 
 PHE793  MET794  SER795  GLU796  ALA797  LYS798  CYS799  TRP800  GLU811  SER814 

> <Gold.Protein.RotatedAtoms>
  150.8424  134.7720  159.6942 H   0  0  0  0  0  0  0  0  0  0  0  0  # atno 6907 bound_to 6896
  152.4508  134.5394  159.9844 H   0  0  0  0  0  0  0  0  0  0  0  0  # atno 6908 bound_to 6896
  151.5531  133.3376  159.2992 H   0  0  0  0  0  0  0  0  0  0  0  0  # atno 6909 bound_to 6896
  146.0886  139.5505  142.9490 H   0  0  0  0  0  0  0  0  0  0  0  0  # atno 7974 bound_to 7965
  156.0010  140.3359  155.6846 H   0  0  0  0  0  0  0  0  0  0  0  0  # atno 8008 bound_to 7997
  155.6290  140.0683  157.2673 H   0  0  0  0  0  0  0  0  0  0  0  0  # atno 8009 bound_to 7997
  154.4249  140.1763  156.1439 H   0  0  0  0  0  0  0  0  0  0  0  0  # atno 8010 bound_to 7997
  140.6855  143.2876  151.3650 H   0  0  0  0  0  0  0  0  0  0  0  0  # atno 10167 bound_to 10162
  157.4864  131.1088  150.9614 H   0  0  0  0  0  0  0  0  0  0  0  0  # atno 10718 bound_to 10713
  154.2014  135.2790  155.2989 H   0  0  0  0  0  0  0  0  0  0  0  0  # atno 10763 bound_to 10752
  154.5851  135.5577  153.7226 H   0  0  0  0  0  0  0  0  0  0  0  0  # atno 10764 bound_to 10752
  153.0087  135.6354  154.2153 H   0  0  0  0  0  0  0  0  0  0  0  0  # atno 10765 bound_to 10752
  140.4380  134.1351  155.7687 H   0  0  0  0  0  0  0  0  0  0  0  0  # atno 11005 bound_to 11000
  145.6083  141.0344  143.1981 LP  0  0  0  0  0  0  0  0  0  0  0  0  # atno 17320 bound_to 7965
  144.7343  139.7631  143.7335 LP  0  0  0  0  0  0  0  0  0  0  0  0  # atno 17321 bound_to 7965
  139.6210  144.0908  152.2391 LP  0  0  0  0  0  0  0  0  0  0  0  0  # atno 17342 bound_to 10162
  140.0352  144.6050  150.7455 LP  0  0  0  0  0  0  0  0  0  0  0  0  # atno 17343 bound_to 10162
  157.0330  130.5719  149.5345 LP  0  0  0  0  0  0  0  0  0  0  0  0  # atno 17370 bound_to 10713
  156.0149  130.5243  150.8104 LP  0  0  0  0  0  0  0  0  0  0  0  0  # atno 17371 bound_to 10713
  141.1717  133.8594  157.1548 LP  0  0  0  0  0  0  0  0  0  0  0  0  # atno 17394 bound_to 11000
  140.0089  134.9996  157.0352 LP  0  0  0  0  0  0  0  0  0  0  0  0  # atno 17395 bound_to 11000

$$$$
