AV-unprocessed.smi:54|AV-procd|sdf|558|dock4
  -GOLD-   2262016463D 1   1.00000     0.00000
 Structure written by MMmdl.
 43 45  0  0  0  0  0  0  0  0  2 V2000
  146.2956  137.0126  162.2889 C   0  0  0  0  0  0  0  0  0  0  0  0
  146.6079  135.8826  161.2941 C   0  0  0  0  0  0  0  0  0  0  0  0
  147.1002  134.6204  162.0217 C   0  0  0  0  0  0  0  0  0  0  0  0
  147.6343  136.3468  160.2506 C   0  0  0  0  0  0  0  0  0  0  0  0
  148.0850  137.4920  160.3232 O   0  0  0  0  0  0  0  0  0  0  0  0
  147.9547  135.4293  159.3106 N   0  0  0  0  0  0  0  0  0  0  0  0
  148.8299  135.5345  158.2218 C   0  0  0  0  0  0  0  0  0  0  0  0
  148.6441  136.6278  157.5220 N   0  0  0  0  0  0  0  0  0  0  0  0
  149.5049  136.7224  156.4448 C   0  0  0  0  0  0  0  0  0  0  0  0
  150.4734  135.8350  156.0651 C   0  0  0  0  0  0  0  0  0  0  0  0
  151.1482  136.2740  154.9325 N   0  0  0  0  0  0  0  0  0  0  0  0
  150.5400  137.4314  154.6764 C   0  0  0  0  0  0  0  0  0  0  0  0
  149.5414  137.7622  155.5225 N   0  0  0  0  0  0  0  0  0  0  0  0
  148.6768  138.9872  155.5181 C   0  0  1  0  0  0  0  0  0  0  0  0
  148.9205  139.7073  156.6902 O   0  0  0  0  0  0  0  0  0  0  0  0
  149.8889  140.7184  156.4324 C   0  0  2  0  0  0  0  0  0  0  0  0
  149.8931  141.7851  157.5411 C   0  0  0  0  0  0  0  0  0  0  0  0
  151.0378  142.6017  157.4181 O   0  0  0  0  0  0  0  0  0  0  0  0
  149.4678  141.2052  155.0407 C   0  0  2  0  0  0  0  0  0  0  0  0
  148.3884  142.1206  155.1399 O   0  0  0  0  0  0  0  0  0  0  0  0
  149.0728  139.9029  154.3435 C   0  0  2  0  0  0  0  0  0  0  0  0
  148.0353  140.0791  153.3970 O   0  0  0  0  0  0  0  0  0  0  0  0
  150.6273  134.6176  156.8955 C   0  0  0  0  0  0  0  0  0  0  0  0
  151.4854  133.7905  156.5930 O   0  0  0  0  0  0  0  0  0  0  0  0
  149.7721  134.5202  157.9571 N   0  5  0  0  0  0  0  0  0  0  0  0
  147.6550  138.6068  155.4854 H   0  0  0  0  0  0  0  0  0  0  0  0
  150.8769  140.2609  156.3506 H   0  0  0  0  0  0  0  0  0  0  0  0
  150.2875  141.7033  154.5221 H   0  0  0  0  0  0  0  0  0  0  0  0
  149.9454  139.4884  153.8354 H   0  0  0  0  0  0  0  0  0  0  0  0
  145.9520  137.9104  161.7735 H   0  0  0  0  0  0  0  0  0  0  0  0
  147.1725  137.2823  162.8790 H   0  0  0  0  0  0  0  0  0  0  0  0
  145.5100  136.7138  162.9832 H   0  0  0  0  0  0  0  0  0  0  0  0
  145.6811  135.6280  160.7770 H   0  0  0  0  0  0  0  0  0  0  0  0
  147.3323  133.8213  161.3166 H   0  0  0  0  0  0  0  0  0  0  0  0
  146.3383  134.2428  162.7041 H   0  0  0  0  0  0  0  0  0  0  0  0
  147.9984  134.8187  162.6081 H   0  0  0  0  0  0  0  0  0  0  0  0
  147.4561  134.5559  159.3912 H   0  0  0  0  0  0  0  0  0  0  0  0
  150.8331  138.0540  153.8442 H   0  0  0  0  0  0  0  0  0  0  0  0
  149.0188  142.4295  157.4452 H   0  0  0  0  0  0  0  0  0  0  0  0
  149.8583  141.3325  158.5326 H   0  0  0  0  0  0  0  0  0  0  0  0
  150.8016  143.3721  156.9242 H   0  0  0  0  0  0  0  0  0  0  0  0
  148.7313  142.9945  155.0294 H   0  0  0  0  0  0  0  0  0  0  0  0
  148.4052  139.9878  152.5318 H   0  0  0  0  0  0  0  0  0  0  0  0
  1  2  1  0  0  0  0
  1 30  1  0  0  0  0
  1 31  1  0  0  0  0
  1 32  1  0  0  0  0
  2  3  1  0  0  0  0
  2  4  1  0  0  0  0
  2 33  1  0  0  0  0
  3 34  1  0  0  0  0
  3 35  1  0  0  0  0
  3 36  1  0  0  0  0
  4  5  2  0  0  0  0
  4  6  1  0  0  0  0
  6 37  1  0  0  0  0
  6  7  1  0  0  0  0
  7 25  1  0  0  0  0
  7  8  2  0  0  0  0
  8  9  1  0  0  0  0
  9 13  1  0  0  0  0
  9 10  2  0  0  0  0
 10 11  1  0  0  0  0
 10 23  1  0  0  0  0
 11 12  2  0  0  0  0
 12 13  1  0  0  0  0
 12 38  1  0  0  0  0
 13 14  1  0  0  0  0
 14 26  1  0  0  0  0
 14 21  1  0  0  0  0
 14 15  1  0  0  0  0
 15 16  1  0  0  0  0
 16 27  1  0  0  0  0
 16 17  1  0  0  0  0
 16 19  1  0  0  0  0
 17 18  1  0  0  0  0
 17 39  1  0  0  0  0
 17 40  1  0  0  0  0
 18 41  1  0  0  0  0
 19 28  1  0  0  0  0
 19 20  1  0  0  0  0
 19 21  1  0  0  0  0
 20 42  1  0  0  0  0
 21 29  1  0  0  0  0
 21 22  1  0  0  0  0
 22 43  1  0  0  0  0
 23 24  2  0  0  0  0
 23 25  1  0  0  0  0
M  CHG  1  25  -1
M  END
> <s_m_source_file>
AV-unprocessed.smi

> <i_m_source_file_index>
54

> <i_lp_mmshare_version>
43012

> <i_f3d_flags>
0

> <s_epik_input>
W0NIM11bQ0hdKFtDSDNdKUMoPU8pW05IXWMobjEpW25IXWMoPU8pYyhjMTIpbltjSF1uMltDQEBIXTNPW0NASF0oW0NIMl1bT0hdKVtDQEBIXShbT0hdKVtDQEhdM1tPSF0=

> <s_epik_cmdline>
J2VwaWtfcHl0aG9uJywgJy1waCcsICc3LjAnLCAnLXRuJywgJzgnLCAnLW1hJywgJzIwMCcsICctbWV0YWxfYmluZGluZycsICctaW1hZScsICc8aW5maWxlLm1hZT4nLCAnLW9tYWUnLCAnPG91dGZpbGUubWFlPic=

> <r_lp_tautomer_probability>
0.85571

> <r_epik_Ionization_Penalty>
1.75936

> <r_epik_Ionization_Penalty_Charging>
4.55893e-11

> <r_epik_Ionization_Penalty_Neutral>
1.75936

> <r_epik_State_Penalty>
1.72072

> <r_epik_Charging_Adjusted_Penalty>
1.72072

> <i_epik_Tot_Q>
-1

> <i_epik_Tot_abs_Q>
1

> <r_epik_Metal_State_Penalty>
0.400338

> <b_epik_Metal_Only>
1

> <s_epik_Chemistry_Notes>
This compound contains an acetal/aminal-like group ( X-CH(R)-Y where X, Y are N, S, or O) that may be acid/base labile, releasing an aldehyde.

> <s_lp_Force_Field>
OPLS_2005

> <r_lp_Energy>
63.0293

> <b_lp_Chiralities_Consistent>
1

> <s_lp_Variant>
AV-unprocessed.smi:54-30

> <Gold.Version>
5.8.1

> <Gold.Id.Protein>
6NUR|6NUR_protein|mol2

> <Gold.PLP.Fitness>
49.1631

> <Gold.PLP.PLP>
-31.5560

> <Gold.PLP.part.hbond>
-6.0000

> <Gold.PLP.part.metal>
0.0000

> <Gold.PLP.part.buried>
-5.3630

> <Gold.PLP.part.nonpolar>
-22.3635

> <Gold.PLP.part.repulsive>
0.2315

> <Gold.PLP.ligand.clash>
0.0000

> <Gold.PLP.ligand.torsion>
0.5372

> <Gold.PLP.Chemscore.Hbond>
6.2080

> <Gold.PLP.Chemscore.CHOScore>
0.0000

> <Gold.PLP.Chemscore.Metal>
0.0000

> <Gold.Chemscore.Hbonds>
donor molecule, donor type, donor heavy atom, donor atom, acceptor molecule, acceptor atom, score
      L1  H    20    42       P1  8028  0.99
      L1  H    22    43       P1  7957  1.00
      P1  H  6896  6907       L1    25  2.00
      P1  H  6931  6943       L1     5  0.56
      P1  H  6934  6947       L1     5  0.64
      P1  H 10752 10764       L1    11  1.00

> <Gold.PLP.Chemscore.Internal.Correction>
0.0575

> <Gold.Rescore>
     Score         DG    S(hbond)    S(metal)    S(lipo)     H(rot)  DE(clash)    DE(int)     intcor
     14.68     -16.42       4.69        0.00      47.53       4.02       0.16       1.57       ----

> <Gold.Chemscore.Fitness>
14.6814

> <Gold.Chemscore.DG>
-16.4172

> <Gold.Chemscore.ZeroCoef>
-5.4800

> <Gold.Chemscore.Hbond>
4.6901

> <Gold.Chemscore.Metal>
0.0000

> <Gold.Chemscore.Lipo>
47.5336

> <Gold.Chemscore.Internal_Hbond>
0.0000

> <Gold.Chemscore.DEClash>
0.1628

> <Gold.Chemscore.DEInternal>
1.5730

> <Gold.Chemscore.Rot>
4.0192

> <Gold.Chemscore.Internal.Correction>
   9.000000E+99

> <Gold.Chemscore.Hbonds>
donor molecule, donor type, donor heavy atom, donor atom, acceptor molecule, acceptor atom, score
      L1  H    20    42       P1  8028  0.93
      L1  H    22    43       P1  7957  1.00
      P1  H  6896  6907       L1    25  0.43
      P1  H  6931  6943       L1     5  0.54
      P1  H  6934  6947       L1     5  0.64
      P1  H 10752 10764       L1    11  0.76

> <Gold.Chemscore.Hbond.Weighted>
-15.6650

> <Gold.Chemscore.Metal.Weighted>
-0.0000

> <Gold.Chemscore.Lipo.Weighted>
-5.5614

> <Gold.Chemscore.Internal_Hbond.Weighted>
0.0000

> <Gold.Chemscore.DEClash.Weighted>
0.1628

> <Gold.Chemscore.DEInternal.Weighted>
1.5730

> <Gold.Chemscore.Rot.Weighted>
10.2893

> <Gold.Chemscore.Internal.Correction.Weighted>
   9.000000E+99

> <Gold.Protein.RotatedTorsions>
[ 6907 6896 6895 6894 ] final  -88.49 input  -60.11 | X-H torsion
[ 7974 7965 7964 7962 ] final  142.68 input  175.53 | X-H torsion
[ 8008 7997 7996 7995 ] final  -21.68 input   59.86 | X-H torsion
[ 10167 10162 10161 10158 ] final   53.28 input  -65.29 | X-H torsion
[ 10718 10713 10712 10709 ] final -123.96 input   66.30 | X-H torsion
[ 10763 10752 10751 10750 ] final  -43.07 input  -60.55 | X-H torsion
[ 11005 11000 10999 10996 ] final  168.84 input  -57.11 | X-H torsion

> <Gold.Protein.ActiveResidues>
 VAL166  LYS551  ARG553  GLY616  TRP617  ASP618  TYR619  PRO620  LYS621  CYS622 
 ASP623  PHE694  ASN695  SER759  ASP760  ASP761  ALA762  ILE779  LEU786  VAL792 
 PHE793  MET794  SER795  GLU796  ALA797  LYS798  CYS799  TRP800  GLU811  SER814 

> <Gold.Protein.RotatedAtoms>
  150.6869  134.2734  159.4597 H   0  0  0  0  0  0  0  0  0  0  0  0  # atno 6907 bound_to 6896
  152.0654  134.9565  160.0584 H   0  0  0  0  0  0  0  0  0  0  0  0  # atno 6908 bound_to 6896
  152.0975  133.4198  159.4609 H   0  0  0  0  0  0  0  0  0  0  0  0  # atno 6909 bound_to 6896
  144.8986  139.5455  143.5764 H   0  0  0  0  0  0  0  0  0  0  0  0  # atno 7974 bound_to 7965
  154.4691  140.2028  156.0042 H   0  0  0  0  0  0  0  0  0  0  0  0  # atno 8008 bound_to 7997
  156.0979  140.3248  155.7873 H   0  0  0  0  0  0  0  0  0  0  0  0  # atno 8009 bound_to 7997
  155.4848  140.0541  157.2953 H   0  0  0  0  0  0  0  0  0  0  0  0  # atno 8010 bound_to 7997
  140.2424  144.3569  150.6375 H   0  0  0  0  0  0  0  0  0  0  0  0  # atno 10167 bound_to 10162
  156.1547  130.6559  150.9964 H   0  0  0  0  0  0  0  0  0  0  0  0  # atno 10718 bound_to 10713
  153.9895  135.6707  153.4753 H   0  0  0  0  0  0  0  0  0  0  0  0  # atno 10763 bound_to 10752
  153.0711  135.4973  154.8304 H   0  0  0  0  0  0  0  0  0  0  0  0  # atno 10764 bound_to 10752
  154.7117  135.3099  154.9148 H   0  0  0  0  0  0  0  0  0  0  0  0  # atno 10765 bound_to 10752
  140.2915  134.7669  157.3842 H   0  0  0  0  0  0  0  0  0  0  0  0  # atno 11005 bound_to 11000
  146.3096  139.7698  142.9030 LP  0  0  0  0  0  0  0  0  0  0  0  0  # atno 17320 bound_to 7965
  145.3655  141.0333  143.3260 LP  0  0  0  0  0  0  0  0  0  0  0  0  # atno 17321 bound_to 7965
  140.6103  143.2169  151.6899 LP  0  0  0  0  0  0  0  0  0  0  0  0  # atno 17342 bound_to 10162
  139.5073  144.3652  152.0524 LP  0  0  0  0  0  0  0  0  0  0  0  0  # atno 17343 bound_to 10162
  157.6685  131.0866  150.7669 LP  0  0  0  0  0  0  0  0  0  0  0  0  # atno 17370 bound_to 10713
  156.7735  130.4836  149.5414 LP  0  0  0  0  0  0  0  0  0  0  0  0  # atno 17371 bound_to 10713
  140.1191  134.5244  155.8199 LP  0  0  0  0  0  0  0  0  0  0  0  0  # atno 17394 bound_to 11000
  141.2145  133.6750  156.6832 LP  0  0  0  0  0  0  0  0  0  0  0  0  # atno 17395 bound_to 11000

$$$$
