AV-unprocessed.smi:2663|AV-procd|sdf|10325|dock3
  -GOLD-   2272014343D 1   1.00000     0.00000
 Structure written by MMmdl.
 38 39  0  0  0  0  0  0  0  0  2 V2000
  149.5908  138.5917  156.1818 C   0  0  0  0  0  0  0  0  0  0  0  0
  150.7407  138.3521  157.1941 C   0  0  2  0  0  0  0  0  0  0  0  0
  151.9959  137.8644  156.4127 C   0  0  0  0  0  0  0  0  0  0  0  0
  151.7457  136.6874  155.6695 O   0  0  0  0  0  0  0  0  0  0  0  0
  150.3469  137.3210  158.1682 N   0  0  0  0  0  0  0  0  0  0  0  0
  149.2670  137.2550  158.9651 C   0  0  0  0  0  0  0  0  0  0  0  0
  148.4156  138.1458  158.9458 O   0  0  0  0  0  0  0  0  0  0  0  0
  149.2423  136.1478  159.7414 N   0  5  0  0  0  0  0  0  0  0  0  0
  148.3230  136.0277  160.7138 C   0  0  0  0  0  0  0  0  0  0  0  0
  147.7482  137.0944  161.2927 N   0  0  0  0  0  0  0  0  0  0  0  0
  146.8304  136.7533  162.2771 N   0  0  0  0  0  0  0  0  0  0  0  0
  146.7428  135.4314  162.4223 C   0  0  0  0  0  0  0  0  0  0  0  0
  147.7750  134.4834  161.3725 S   0  0  0  0  0  0  0  0  0  0  0  0
  151.0337  139.6680  157.9998 C   0  0  0  0  0  0  0  0  0  0  0  0
  151.2149  140.9210  157.1007 C   0  0  0  0  0  0  0  0  0  0  0  0
  151.4440  142.2000  157.9221 C   0  0  0  0  0  0  0  0  0  0  0  0
  152.6498  142.0540  158.8585 C   0  0  0  0  0  0  0  0  0  0  0  0
  152.4810  140.8330  159.7708 C   0  0  0  0  0  0  0  0  0  0  0  0
  152.2556  139.5520  158.9521 C   0  0  0  0  0  0  0  0  0  0  0  0
  149.7695  139.4865  155.5849 H   0  0  0  0  0  0  0  0  0  0  0  0
  148.6261  138.7088  156.6752 H   0  0  0  0  0  0  0  0  0  0  0  0
  149.4842  137.7635  155.4815 H   0  0  0  0  0  0  0  0  0  0  0  0
  152.3603  138.6338  155.7321 H   0  0  0  0  0  0  0  0  0  0  0  0
  152.8228  137.6519  157.0902 H   0  0  0  0  0  0  0  0  0  0  0  0
  150.8489  136.4281  155.8148 H   0  0  0  0  0  0  0  0  0  0  0  0
  150.9913  136.5484  158.2519 H   0  0  0  0  0  0  0  0  0  0  0  0
  146.0690  135.0124  163.1546 H   0  0  0  0  0  0  0  0  0  0  0  0
  150.1681  139.8598  158.6358 H   0  0  0  0  0  0  0  0  0  0  0  0
  152.0539  140.7777  156.4189 H   0  0  0  0  0  0  0  0  0  0  0  0
  150.3362  141.0806  156.4773 H   0  0  0  0  0  0  0  0  0  0  0  0
  151.5950  143.0481  157.2538 H   0  0  0  0  0  0  0  0  0  0  0  0
  150.5510  142.4235  158.5071 H   0  0  0  0  0  0  0  0  0  0  0  0
  153.5624  141.9505  158.2698 H   0  0  0  0  0  0  0  0  0  0  0  0
  152.7676  142.9561  159.4595 H   0  0  0  0  0  0  0  0  0  0  0  0
  153.3620  140.7185  160.4030 H   0  0  0  0  0  0  0  0  0  0  0  0
  151.6363  140.9904  160.4427 H   0  0  0  0  0  0  0  0  0  0  0  0
  152.1253  138.7272  159.6512 H   0  0  0  0  0  0  0  0  0  0  0  0
  153.1598  139.3329  158.3831 H   0  0  0  0  0  0  0  0  0  0  0  0
  1  2  1  0  0  0  0
  1 20  1  0  0  0  0
  1 21  1  0  0  0  0
  1 22  1  0  0  0  0
  2  3  1  0  0  0  0
  2  5  1  0  0  0  0
  2 14  1  0  0  0  0
  3  4  1  0  0  0  0
  3 23  1  0  0  0  0
  3 24  1  0  0  0  0
  4 25  1  0  0  0  0
  5  6  1  0  0  0  0
  5 26  1  0  0  0  0
  6  7  2  0  0  0  0
  6  8  1  0  0  0  0
  8  9  1  0  0  0  0
  9 13  1  0  0  0  0
  9 10  2  0  0  0  0
 10 11  1  0  0  0  0
 11 12  2  0  0  0  0
 12 13  1  0  0  0  0
 12 27  1  0  0  0  0
 14 19  1  0  0  0  0
 14 15  1  0  0  0  0
 14 28  1  0  0  0  0
 15 16  1  0  0  0  0
 15 29  1  0  0  0  0
 15 30  1  0  0  0  0
 16 17  1  0  0  0  0
 16 31  1  0  0  0  0
 16 32  1  0  0  0  0
 17 18  1  0  0  0  0
 17 33  1  0  0  0  0
 17 34  1  0  0  0  0
 18 19  1  0  0  0  0
 18 35  1  0  0  0  0
 18 36  1  0  0  0  0
 19 37  1  0  0  0  0
 19 38  1  0  0  0  0
M  CHG  1   8  -1
M  END
> <s_m_source_file>
AV-unprocessed.smi

> <i_m_source_file_index>
2663

> <i_lp_mmshare_version>
43012

> <i_f3d_flags>
0

> <s_epik_input>
W0NIMl0xW0NIMl1bQ0gyXVtDSDJdW0NIMl1bQ0hdMVtDQF0oW0NIM10pKFtDSDJdW09IXSlbTkhdQyg9TylbTkhdYzJubltjSF1zMg==

> <s_epik_cmdline>
J2VwaWtfcHl0aG9uJywgJy1waCcsICc3LjAnLCAnLXRuJywgJzgnLCAnLW1hJywgJzIwMCcsICctbWV0YWxfYmluZGluZycsICctaW1hZScsICc8aW5maWxlLm1hZT4nLCAnLW9tYWUnLCAnPG91dGZpbGUubWFlPic=

> <r_lp_tautomer_probability>
1

> <r_epik_Ionization_Penalty>
4.39194

> <r_epik_Ionization_Penalty_Charging>
4.34423

> <r_epik_Ionization_Penalty_Neutral>
0.047714

> <r_epik_State_Penalty>
4.34384

> <r_epik_Charging_Adjusted_Penalty>
8.68806

> <i_epik_Tot_Q>
-1

> <i_epik_Tot_abs_Q>
1

> <r_epik_Metal_State_Penalty>
0.746645

> <b_epik_Metal_Only>
1

> <s_lp_Force_Field>
OPLS_2005

> <r_lp_Energy>
18.1486

> <b_lp_Chiralities_Consistent>
1

> <s_lp_Variant>
AV-unprocessed.smi:2663-4

> <Gold.Version>
5.8.1

> <Gold.Id.Protein>
6NUR|6NUR_protein|mol2

> <Gold.PLP.Fitness>
42.5860

> <Gold.PLP.PLP>
-28.6071

> <Gold.PLP.part.hbond>
-5.0000

> <Gold.PLP.part.metal>
0.0000

> <Gold.PLP.part.buried>
-5.7388

> <Gold.PLP.part.nonpolar>
-19.2202

> <Gold.PLP.part.repulsive>
0.1012

> <Gold.PLP.ligand.clash>
0.0000

> <Gold.PLP.ligand.torsion>
0.3040

> <Gold.PLP.Chemscore.Hbond>
4.8389

> <Gold.PLP.Chemscore.CHOScore>
0.0000

> <Gold.PLP.Chemscore.Metal>
0.0000

> <Gold.Chemscore.Hbonds>
donor molecule, donor type, donor heavy atom, donor atom, acceptor molecule, acceptor atom, score
      P1  H  6896  6908       L1     8  1.95
      P1  H  6931  6943       L1    10  1.00
      P1  H  6934  6947       L1    10  0.81
      P1  H 10752 10764       L1     4  1.00

> <Gold.PLP.Chemscore.Internal.Correction>
0.0702

> <Gold.Rescore>
     Score         DG    S(hbond)    S(metal)    S(lipo)     H(rot)  DE(clash)    DE(int)     intcor
     15.73     -17.50       2.91        0.00      67.24       2.18       0.00       1.77       ----

> <Gold.Chemscore.Fitness>
15.7271

> <Gold.Chemscore.DG>
-17.4983

> <Gold.Chemscore.ZeroCoef>
-5.4800

> <Gold.Chemscore.Hbond>
2.9124

> <Gold.Chemscore.Metal>
0.0000

> <Gold.Chemscore.Lipo>
67.2440

> <Gold.Chemscore.Internal_Hbond>
0.0000

> <Gold.Chemscore.DEClash>
0.0000

> <Gold.Chemscore.DEInternal>
1.7713

> <Gold.Chemscore.Rot>
2.1783

> <Gold.Chemscore.Internal.Correction>
   9.000000E+99

> <Gold.Chemscore.Hbonds>
donor molecule, donor type, donor heavy atom, donor atom, acceptor molecule, acceptor atom, score
      P1  H  6896  6908       L1     8  0.86
      P1  H  6931  6943       L1    10  0.58
      P1  H  6934  6947       L1    10  0.19
      P1  H 10752 10764       L1     4  0.93

> <Gold.Chemscore.Hbond.Weighted>
-9.7273

> <Gold.Chemscore.Metal.Weighted>
-0.0000

> <Gold.Chemscore.Lipo.Weighted>
-7.8676

> <Gold.Chemscore.Internal_Hbond.Weighted>
0.0000

> <Gold.Chemscore.DEClash.Weighted>
0.0000

> <Gold.Chemscore.DEInternal.Weighted>
1.7713

> <Gold.Chemscore.Rot.Weighted>
5.5765

> <Gold.Chemscore.Internal.Correction.Weighted>
   9.000000E+99

> <Gold.Protein.RotatedTorsions>
[ 6907 6896 6895 6894 ] final -174.80 input  -60.11 | X-H torsion
[ 7974 7965 7964 7962 ] final  101.85 input  175.53 | X-H torsion
[ 8008 7997 7996 7995 ] final -138.28 input   59.86 | X-H torsion
[ 10167 10162 10161 10158 ] final -149.45 input  -65.29 | X-H torsion
[ 10718 10713 10712 10709 ] final  -45.29 input   66.30 | X-H torsion
[ 10763 10752 10751 10750 ] final  -28.36 input  -60.55 | X-H torsion
[ 11005 11000 10999 10996 ] final  150.28 input  -57.11 | X-H torsion

> <Gold.Protein.ActiveResidues>
 VAL166  LYS551  ARG553  GLY616  TRP617  ASP618  TYR619  PRO620  LYS621  CYS622 
 ASP623  PHE694  ASN695  SER759  ASP760  ASP761  ALA762  ILE779  LEU786  VAL792 
 PHE793  MET794  SER795  GLU796  ALA797  LYS798  CYS799  TRP800  GLU811  SER814 

> <Gold.Protein.RotatedAtoms>
  151.5783  133.3381  159.3003 H   0  0  0  0  0  0  0  0  0  0  0  0  # atno 6907 bound_to 6896
  150.8328  134.7591  159.6879 H   0  0  0  0  0  0  0  0  0  0  0  0  # atno 6908 bound_to 6896
  152.4409  134.5599  159.9943 H   0  0  0  0  0  0  0  0  0  0  0  0  # atno 6909 bound_to 6896
  145.3669  139.2406  143.3476 H   0  0  0  0  0  0  0  0  0  0  0  0  # atno 7974 bound_to 7965
  155.4257  140.0521  157.3022 H   0  0  0  0  0  0  0  0  0  0  0  0  # atno 8008 bound_to 7997
  154.4882  140.2109  155.9565 H   0  0  0  0  0  0  0  0  0  0  0  0  # atno 8009 bound_to 7997
  156.1305  140.3172  155.8347 H   0  0  0  0  0  0  0  0  0  0  0  0  # atno 8010 bound_to 7997
  139.7441  143.8617  152.2570 H   0  0  0  0  0  0  0  0  0  0  0  0  # atno 10167 bound_to 10162
  156.2299  130.4172  149.8888 H   0  0  0  0  0  0  0  0  0  0  0  0  # atno 10718 bound_to 10713
  153.7470  135.6928  153.4954 H   0  0  0  0  0  0  0  0  0  0  0  0  # atno 10763 bound_to 10752
  153.2029  135.4430  155.0287 H   0  0  0  0  0  0  0  0  0  0  0  0  # atno 10764 bound_to 10752
  154.8201  135.3417  154.6993 H   0  0  0  0  0  0  0  0  0  0  0  0  # atno 10765 bound_to 10752
  140.1118  134.8919  157.1947 H   0  0  0  0  0  0  0  0  0  0  0  0  # atno 11005 bound_to 11000
  146.2903  140.4313  142.8742 LP  0  0  0  0  0  0  0  0  0  0  0  0  # atno 17320 bound_to 7965
  144.8605  140.7133  143.6110 LP  0  0  0  0  0  0  0  0  0  0  0  0  # atno 17321 bound_to 7965
  139.8576  144.7133  150.9138 LP  0  0  0  0  0  0  0  0  0  0  0  0  # atno 17342 bound_to 10162
  140.7790  143.3845  151.1418 LP  0  0  0  0  0  0  0  0  0  0  0  0  # atno 17343 bound_to 10162
  156.6506  130.8742  151.3530 LP  0  0  0  0  0  0  0  0  0  0  0  0  # atno 17370 bound_to 10713
  157.7128  130.9461  150.1148 LP  0  0  0  0  0  0  0  0  0  0  0  0  # atno 17371 bound_to 10713
  140.3081  134.3055  155.7273 LP  0  0  0  0  0  0  0  0  0  0  0  0  # atno 17394 bound_to 11000
  141.2132  133.7633  156.9738 LP  0  0  0  0  0  0  0  0  0  0  0  0  # atno 17395 bound_to 11000

$$$$
