AV-unprocessed.smi:2702|AV-procd|sdf|10433|dock8
  -GOLD-   2272014473D 1   1.00000     0.00000
 Structure written by MMmdl.
 47 48  0  0  0  0  0  0  0  0  1 V2000
  151.2237  143.1106  157.4309 C   0  0  0  0  0  0  0  0  0  0  0  0
  151.2032  141.7338  157.0985 O   0  0  0  0  0  0  0  0  0  0  0  0
  150.5309  141.4795  155.8764 C   0  0  0  0  0  0  0  0  0  0  0  0
  150.2582  139.9971  155.7182 C   0  0  0  0  0  0  0  0  0  0  0  0
  149.7062  139.2580  156.7087 C   0  0  0  0  0  0  0  0  0  0  0  0
  149.4564  137.8288  156.5225 C   0  0  0  0  0  0  0  0  0  0  0  0
  148.9565  137.1229  157.3991 O   0  0  0  0  0  0  0  0  0  0  0  0
  149.8216  137.3353  155.3022 N   0  0  0  0  0  0  0  0  0  0  0  0
  149.6360  135.9113  154.9687 C   0  0  0  0  0  0  0  0  0  0  0  0
  148.1687  135.4682  155.0484 C   0  0  0  0  0  0  0  0  0  0  0  0
  147.5934  135.4050  156.1355 O   0  0  0  0  0  0  0  0  0  0  0  0
  147.5795  135.1733  153.8794 N   0  0  0  0  0  0  0  0  0  0  0  0
  146.2071  134.6953  153.6975 C   0  0  1  0  0  0  0  0  0  0  0  0
  145.3170  135.8451  153.1907 C   0  0  0  0  0  0  0  0  0  0  0  0
  145.6559  136.2386  151.7456 C   0  0  0  0  0  0  0  0  0  0  0  0
  145.5749  135.0236  150.8118 C   0  0  0  0  0  0  0  0  0  0  0  0
  146.4816  133.8672  151.2814 C   0  0  2  0  0  0  0  0  0  0  0  0
  146.3718  132.6885  150.2979 C   0  0  0  0  0  0  0  0  0  0  0  0
  146.1469  133.4689  152.7463 C   0  0  1  0  0  0  0  0  0  0  0  0
  147.0100  132.3012  153.2667 C   0  0  0  0  0  0  0  0  0  0  0  0
  150.3817  138.1530  154.3006 C   0  0  0  0  0  0  0  0  0  0  0  0
  150.5927  139.4166  154.4906 N   0  0  0  0  0  0  0  0  0  0  0  0
  151.7521  143.2518  158.3737 H   0  0  0  0  0  0  0  0  0  0  0  0
  150.2128  143.5029  157.5491 H   0  0  0  0  0  0  0  0  0  0  0  0
  151.7390  143.6935  156.6662 H   0  0  0  0  0  0  0  0  0  0  0  0
  149.5940  142.0383  155.8417 H   0  0  0  0  0  0  0  0  0  0  0  0
  151.1395  141.8153  155.0353 H   0  0  0  0  0  0  0  0  0  0  0  0
  149.4489  139.7193  157.6512 H   0  0  0  0  0  0  0  0  0  0  0  0
  150.0062  135.6785  153.9688 H   0  0  0  0  0  0  0  0  0  0  0  0
  150.2399  135.2993  155.6415 H   0  0  0  0  0  0  0  0  0  0  0  0
  148.1361  135.2617  153.0416 H   0  0  0  0  0  0  0  0  0  0  0  0
  145.8053  134.3902  154.6651 H   0  0  0  0  0  0  0  0  0  0  0  0
  144.2718  135.5370  153.2401 H   0  0  0  0  0  0  0  0  0  0  0  0
  145.4085  136.7119  153.8464 H   0  0  0  0  0  0  0  0  0  0  0  0
  144.9711  137.0150  151.4036 H   0  0  0  0  0  0  0  0  0  0  0  0
  146.6562  136.6705  151.7007 H   0  0  0  0  0  0  0  0  0  0  0  0
  144.5409  134.6800  150.7562 H   0  0  0  0  0  0  0  0  0  0  0  0
  145.8507  135.3277  149.8013 H   0  0  0  0  0  0  0  0  0  0  0  0
  147.5137  134.2191  151.2489 H   0  0  0  0  0  0  0  0  0  0  0  0
  145.3810  132.2347  150.3307 H   0  0  0  0  0  0  0  0  0  0  0  0
  147.1053  131.9121  150.5142 H   0  0  0  0  0  0  0  0  0  0  0  0
  146.5522  133.0162  149.2738 H   0  0  0  0  0  0  0  0  0  0  0  0
  145.1138  133.1176  152.7574 H   0  0  0  0  0  0  0  0  0  0  0  0
  148.0750  132.5066  153.1560 H   0  0  0  0  0  0  0  0  0  0  0  0
  146.7945  131.3745  152.7359 H   0  0  0  0  0  0  0  0  0  0  0  0
  146.8167  132.1123  154.3229 H   0  0  0  0  0  0  0  0  0  0  0  0
  150.6181  137.6504  153.3614 H   0  0  0  0  0  0  0  0  0  0  0  0
  1  2  1  0  0  0  0
  1 23  1  0  0  0  0
  1 24  1  0  0  0  0
  1 25  1  0  0  0  0
  2  3  1  0  0  0  0
  3  4  1  0  0  0  0
  3 26  1  0  0  0  0
  3 27  1  0  0  0  0
  4 22  1  0  0  0  0
  4  5  2  0  0  0  0
  5  6  1  0  0  0  0
  5 28  1  0  0  0  0
  6  7  2  0  0  0  0
  6  8  1  0  0  0  0
  8  9  1  0  0  0  0
  8 21  1  0  0  0  0
  9 10  1  0  0  0  0
  9 29  1  0  0  0  0
  9 30  1  0  0  0  0
 10 11  2  0  0  0  0
 10 12  1  0  0  0  0
 12 13  1  0  0  0  0
 12 31  1  0  0  0  0
 13 19  1  0  0  0  0
 13 14  1  0  0  0  0
 13 32  1  0  0  0  0
 14 15  1  0  0  0  0
 14 33  1  0  0  0  0
 14 34  1  0  0  0  0
 15 16  1  0  0  0  0
 15 35  1  0  0  0  0
 15 36  1  0  0  0  0
 16 17  1  0  0  0  0
 16 37  1  0  0  0  0
 16 38  1  0  0  0  0
 17 18  1  0  0  0  0
 17 19  1  0  0  0  0
 17 39  1  0  0  0  0
 18 40  1  0  0  0  0
 18 41  1  0  0  0  0
 18 42  1  0  0  0  0
 19 20  1  0  0  0  0
 19 43  1  0  0  0  0
 20 44  1  0  0  0  0
 20 45  1  0  0  0  0
 20 46  1  0  0  0  0
 21 22  2  0  0  0  0
 21 47  1  0  0  0  0
M  END
> <s_m_source_file>
AV-unprocessed.smi

> <i_m_source_file_index>
2702

> <i_lp_mmshare_version>
43012

> <i_f3d_flags>
0

> <s_epik_input>
W0NIM11PW0NIMl1jMVtjSF1jKD1PKW4oW2NIXW4xKVtDSDJdQyg9TylbTkhdW0NAQEhdMltDSDJdW0NIMl1bQ0gyXVtDQEBIXShbQ0gzXSlbQ0BIXTJbQ0gzXQ==

> <s_epik_cmdline>
J2VwaWtfcHl0aG9uJywgJy1waCcsICc3LjAnLCAnLXRuJywgJzgnLCAnLW1hJywgJzIwMCcsICctbWV0YWxfYmluZGluZycsICctaW1hZScsICc8aW5maWxlLm1hZT4nLCAnLW9tYWUnLCAnPG91dGZpbGUubWFlPic=

> <r_lp_tautomer_probability>
1

> <r_epik_Ionization_Penalty>
1.22164e-06

> <r_epik_Ionization_Penalty_Charging>
3.17988e-07

> <r_epik_Ionization_Penalty_Neutral>
9.03656e-07

> <r_epik_State_Penalty>
-0

> <r_epik_Charging_Adjusted_Penalty>
3.17988e-07

> <i_epik_Tot_Q>
0

> <i_epik_Tot_abs_Q>
0

> <r_epik_Metal_State_Penalty>
-0

> <b_epik_Metal_Only>
0

> <s_lp_Force_Field>
OPLS_2005

> <r_lp_Energy>
16.6041

> <b_lp_Chiralities_Consistent>
1

> <s_lp_Variant>
AV-unprocessed.smi:2702-4

> <Gold.Version>
5.8.1

> <Gold.Id.Protein>
6NUR|6NUR_protein|mol2

> <Gold.PLP.Fitness>
37.5098

> <Gold.PLP.PLP>
-29.0273

> <Gold.PLP.part.hbond>
-2.0000

> <Gold.PLP.part.metal>
0.0000

> <Gold.PLP.part.buried>
-3.1261

> <Gold.PLP.part.nonpolar>
-24.3815

> <Gold.PLP.part.repulsive>
0.1997

> <Gold.PLP.ligand.clash>
0.0000

> <Gold.PLP.ligand.torsion>
0.4209

> <Gold.PLP.Chemscore.Hbond>
2.0000

> <Gold.PLP.Chemscore.CHOScore>
1.1022

> <Gold.PLP.Chemscore.Metal>
0.0000

> <Gold.Chemscore.Hbonds>
donor molecule, donor type, donor heavy atom, donor atom, acceptor molecule, acceptor atom, score
      L1  H    12    31       P1  7948  1.00
      P1  H  7989  7998       L1    22  0.98
      L1  C    21    47       P1  7948  0.47
      L1  C    21    47       P1  7949  0.61

> <Gold.PLP.Chemscore.Internal.Correction>
0.0177

> <Gold.Rescore>
     Score         DG    S(hbond)    S(metal)    S(lipo)     H(rot)  DE(clash)    DE(int)     intcor
     13.10     -14.99       1.86        0.00      70.35       1.93       0.00       1.90       ----

> <Gold.Chemscore.Fitness>
13.0959

> <Gold.Chemscore.DG>
-14.9938

> <Gold.Chemscore.ZeroCoef>
-5.4800

> <Gold.Chemscore.Hbond>
1.8621

> <Gold.Chemscore.Metal>
0.0000

> <Gold.Chemscore.Lipo>
70.3514

> <Gold.Chemscore.Internal_Hbond>
0.0000

> <Gold.Chemscore.DEClash>
0.0009

> <Gold.Chemscore.DEInternal>
1.8970

> <Gold.Chemscore.Rot>
1.9284

> <Gold.Chemscore.Internal.Correction>
   9.000000E+99

> <Gold.Chemscore.Hbonds>
donor molecule, donor type, donor heavy atom, donor atom, acceptor molecule, acceptor atom, score
      L1  H    12    31       P1  7948  0.96
      P1  H  7989  7998       L1    22  0.46

> <Gold.Chemscore.Hbond.Weighted>
-6.2195

> <Gold.Chemscore.Metal.Weighted>
-0.0000

> <Gold.Chemscore.Lipo.Weighted>
-8.2311

> <Gold.Chemscore.Internal_Hbond.Weighted>
0.0000

> <Gold.Chemscore.DEClash.Weighted>
0.0009

> <Gold.Chemscore.DEInternal.Weighted>
1.8970

> <Gold.Chemscore.Rot.Weighted>
4.9368

> <Gold.Chemscore.Internal.Correction.Weighted>
   9.000000E+99

> <Gold.Protein.RotatedTorsions>
[ 6907 6896 6895 6894 ] final   82.96 input  -60.11 | X-H torsion
[ 7974 7965 7964 7962 ] final  -48.96 input  175.53 | X-H torsion
[ 8008 7997 7996 7995 ] final  173.67 input   59.86 | X-H torsion
[ 10167 10162 10161 10158 ] final  133.40 input  -65.29 | X-H torsion
[ 10718 10713 10712 10709 ] final -169.42 input   66.30 | X-H torsion
[ 10763 10752 10751 10750 ] final  102.38 input  -60.55 | X-H torsion
[ 11005 11000 10999 10996 ] final -148.37 input  -57.11 | X-H torsion

> <Gold.Protein.ActiveResidues>
 VAL166  LYS551  ARG553  GLY616  TRP617  ASP618  TYR619  PRO620  LYS621  CYS622 
 ASP623  PHE694  ASN695  SER759  ASP760  ASP761  ALA762  ILE779  LEU786  VAL792 
 PHE793  MET794  SER795  GLU796  ALA797  LYS798  CYS799  TRP800  GLU811  SER814 

> <Gold.Protein.RotatedAtoms>
  152.5314  134.2969  159.9063 H   0  0  0  0  0  0  0  0  0  0  0  0  # atno 6907 bound_to 6896
  151.2920  133.4154  159.2641 H   0  0  0  0  0  0  0  0  0  0  0  0  # atno 6908 bound_to 6896
  151.0192  134.9472  159.8107 H   0  0  0  0  0  0  0  0  0  0  0  0  # atno 6909 bound_to 6896
  145.9456  140.7621  142.9530 H   0  0  0  0  0  0  0  0  0  0  0  0  # atno 7974 bound_to 7965
  156.1052  140.1454  156.9414 H   0  0  0  0  0  0  0  0  0  0  0  0  # atno 8008 bound_to 7997
  154.4729  140.0904  156.7234 H   0  0  0  0  0  0  0  0  0  0  0  0  # atno 8009 bound_to 7997
  155.4692  140.3441  155.4325 H   0  0  0  0  0  0  0  0  0  0  0  0  # atno 8010 bound_to 7997
  139.5299  144.6617  151.4990 H   0  0  0  0  0  0  0  0  0  0  0  0  # atno 10167 bound_to 10162
  156.7113  130.9234  151.3089 H   0  0  0  0  0  0  0  0  0  0  0  0  # atno 10718 bound_to 10713
  153.3389  135.4012  155.1556 H   0  0  0  0  0  0  0  0  0  0  0  0  # atno 10763 bound_to 10752
  154.8639  135.3628  154.5372 H   0  0  0  0  0  0  0  0  0  0  0  0  # atno 10764 bound_to 10752
  153.5815  135.7076  153.5520 H   0  0  0  0  0  0  0  0  0  0  0  0  # atno 10765 bound_to 10752
  140.7619  134.3288  157.5099 H   0  0  0  0  0  0  0  0  0  0  0  0  # atno 11005 bound_to 11000
  144.6786  140.2352  143.7350 LP  0  0  0  0  0  0  0  0  0  0  0  0  # atno 17320 bound_to 7965
  145.8240  139.2056  143.1921 LP  0  0  0  0  0  0  0  0  0  0  0  0  # atno 17321 bound_to 7965
  140.6469  143.8776  150.6746 LP  0  0  0  0  0  0  0  0  0  0  0  0  # atno 17342 bound_to 10162
  140.2128  143.3870  152.1705 LP  0  0  0  0  0  0  0  0  0  0  0  0  # atno 17343 bound_to 10162
  157.6935  130.9258  150.0579 LP  0  0  0  0  0  0  0  0  0  0  0  0  # atno 17370 bound_to 10713
  156.1659  130.3645  149.9233 LP  0  0  0  0  0  0  0  0  0  0  0  0  # atno 17371 bound_to 10713
  139.8769  134.9207  156.3258 LP  0  0  0  0  0  0  0  0  0  0  0  0  # atno 17394 bound_to 11000
  140.9655  133.7361  156.0460 LP  0  0  0  0  0  0  0  0  0  0  0  0  # atno 17395 bound_to 11000

$$$$
