AV-unprocessed.smi:2918|AV-procd|sdf|11191|dock1
  -GOLD-   2272016 83D 1   1.00000     0.00000
 Structure written by MMmdl.
 41 42  0  0  0  0  0  0  0  0  1 V2000
  152.0843  143.9815  157.5719 C   0  0  0  0  0  0  0  0  0  0  0  0
  151.7544  144.0757  159.0697 C   0  0  0  0  0  0  0  0  0  0  0  0
  152.1814  145.4268  159.6672 C   0  0  0  0  0  0  0  0  0  0  0  0
  152.3411  142.9577  159.8029 N   0  0  0  0  0  0  0  0  0  0  0  0
  153.1907  143.1917  160.8307 N   0  0  0  0  0  0  0  0  0  0  0  0
  153.5537  141.9923  161.2643 C   0  0  0  0  0  0  0  0  0  0  0  0
  152.9591  140.9308  160.5260 C   0  0  0  0  0  0  0  0  0  0  0  0
  152.1987  141.5982  159.6045 C   0  0  0  0  0  0  0  0  0  0  0  0
  151.4140  141.0839  158.6198 N   0  0  0  0  0  0  0  0  0  0  0  0
  151.5509  139.9267  157.9491 C   0  0  0  0  0  0  0  0  0  0  0  0
  152.4455  139.1014  158.1320 O   0  0  0  0  0  0  0  0  0  0  0  0
  150.5680  139.7817  157.0442 N   0  0  0  0  0  0  0  0  0  0  0  0
  150.3324  138.6634  156.1179 C   0  0  0  0  0  0  0  0  0  0  0  0
  151.6318  138.3301  155.3539 C   0  0  0  0  0  0  0  0  0  0  0  0
  149.7915  137.4125  156.8527 C   0  0  0  0  0  0  0  0  0  0  0  0
  148.3877  137.6492  157.4379 C   0  0  0  0  0  0  0  0  0  0  0  0
  147.4912  138.0373  156.4034 O   0  0  0  0  0  0  0  0  0  0  0  0
  147.8667  139.2556  155.7717 C   0  0  0  0  0  0  0  0  0  0  0  0
  149.2496  139.1052  155.1096 C   0  0  0  0  0  0  0  0  0  0  0  0
  151.5931  144.7783  157.0128 H   0  0  0  0  0  0  0  0  0  0  0  0
  151.7479  143.0315  157.1557 H   0  0  0  0  0  0  0  0  0  0  0  0
  153.1569  144.0634  157.3923 H   0  0  0  0  0  0  0  0  0  0  0  0
  150.6710  144.0087  159.1708 H   0  0  0  0  0  0  0  0  0  0  0  0
  151.6755  146.2521  159.1656 H   0  0  0  0  0  0  0  0  0  0  0  0
  153.2553  145.5906  159.5686 H   0  0  0  0  0  0  0  0  0  0  0  0
  151.9306  145.4829  160.7270 H   0  0  0  0  0  0  0  0  0  0  0  0
  154.2389  141.9280  162.0967 H   0  0  0  0  0  0  0  0  0  0  0  0
  153.0875  139.8679  160.6636 H   0  0  0  0  0  0  0  0  0  0  0  0
  150.6172  141.6498  158.3681 H   0  0  0  0  0  0  0  0  0  0  0  0
  149.8943  140.5314  156.9899 H   0  0  0  0  0  0  0  0  0  0  0  0
  151.4591  137.5642  154.5973 H   0  0  0  0  0  0  0  0  0  0  0  0
  152.4107  137.9513  156.0158 H   0  0  0  0  0  0  0  0  0  0  0  0
  152.0290  139.2087  154.8444 H   0  0  0  0  0  0  0  0  0  0  0  0
  149.7336  136.5800  156.1500 H   0  0  0  0  0  0  0  0  0  0  0  0
  150.4722  137.0851  157.6380 H   0  0  0  0  0  0  0  0  0  0  0  0
  148.0159  136.7320  157.8947 H   0  0  0  0  0  0  0  0  0  0  0  0
  148.4083  138.4062  158.2232 H   0  0  0  0  0  0  0  0  0  0  0  0
  147.1185  139.5020  155.0180 H   0  0  0  0  0  0  0  0  0  0  0  0
  147.8615  140.0704  156.4973 H   0  0  0  0  0  0  0  0  0  0  0  0
  149.5344  140.0415  154.6273 H   0  0  0  0  0  0  0  0  0  0  0  0
  149.1698  138.3662  154.3109 H   0  0  0  0  0  0  0  0  0  0  0  0
  1  2  1  0  0  0  0
  1 20  1  0  0  0  0
  1 21  1  0  0  0  0
  1 22  1  0  0  0  0
  2  3  1  0  0  0  0
  2  4  1  0  0  0  0
  2 23  1  0  0  0  0
  3 24  1  0  0  0  0
  3 25  1  0  0  0  0
  3 26  1  0  0  0  0
  4  8  1  0  0  0  0
  4  5  1  0  0  0  0
  5  6  2  0  0  0  0
  6  7  1  0  0  0  0
  6 27  1  0  0  0  0
  7  8  2  0  0  0  0
  7 28  1  0  0  0  0
  8  9  1  0  0  0  0
  9 10  1  0  0  0  0
  9 29  1  0  0  0  0
 10 11  2  0  0  0  0
 10 12  1  0  0  0  0
 12 13  1  0  0  0  0
 12 30  1  0  0  0  0
 13 19  1  0  0  0  0
 13 14  1  0  0  0  0
 13 15  1  0  0  0  0
 14 31  1  0  0  0  0
 14 32  1  0  0  0  0
 14 33  1  0  0  0  0
 15 16  1  0  0  0  0
 15 34  1  0  0  0  0
 15 35  1  0  0  0  0
 16 17  1  0  0  0  0
 16 36  1  0  0  0  0
 16 37  1  0  0  0  0
 17 18  1  0  0  0  0
 18 19  1  0  0  0  0
 18 38  1  0  0  0  0
 18 39  1  0  0  0  0
 19 40  1  0  0  0  0
 19 41  1  0  0  0  0
M  END
> <s_m_source_file>
AV-unprocessed.smi

> <i_m_source_file_index>
2918

> <i_lp_mmshare_version>
43012

> <i_f3d_flags>
0

> <s_epik_input>
W0NIM11bQ0hdKFtDSDNdKW4xbltjSF1bY0hdYzFbTkhdQyg9TylbTkhdQzIoW0NIM10pW0NIMl1bQ0gyXU9bQ0gyXVtDSDJdMg==

> <s_epik_cmdline>
J2VwaWtfcHl0aG9uJywgJy1waCcsICc3LjAnLCAnLXRuJywgJzgnLCAnLW1hJywgJzIwMCcsICctbWV0YWxfYmluZGluZycsICctaW1hZScsICc8aW5maWxlLm1hZT4nLCAnLW9tYWUnLCAnPG91dGZpbGUubWFlPic=

> <r_lp_tautomer_probability>
1

> <r_epik_Ionization_Penalty>
4.13243e-05

> <r_epik_Ionization_Penalty_Charging>
0

> <r_epik_Ionization_Penalty_Neutral>
4.13243e-05

> <r_epik_State_Penalty>
-0

> <r_epik_Charging_Adjusted_Penalty>
0

> <i_epik_Tot_Q>
0

> <i_epik_Tot_abs_Q>
0

> <r_epik_Metal_State_Penalty>
-0

> <b_epik_Metal_Only>
0

> <s_lp_Force_Field>
OPLS_2005

> <r_lp_Energy>
17.4718

> <b_lp_Chiralities_Consistent>
1

> <s_lp_Variant>
AV-unprocessed.smi:2918-1

> <Gold.Version>
5.8.1

> <Gold.Id.Protein>
6NUR|6NUR_protein|mol2

> <Gold.PLP.Fitness>
42.0073

> <Gold.PLP.PLP>
-39.7169

> <Gold.PLP.part.hbond>
-1.0000

> <Gold.PLP.part.metal>
0.0000

> <Gold.PLP.part.buried>
-3.6952

> <Gold.PLP.part.nonpolar>
-35.2625

> <Gold.PLP.part.repulsive>
0.3017

> <Gold.PLP.ligand.clash>
0.0000

> <Gold.PLP.ligand.torsion>
0.3756

> <Gold.PLP.Chemscore.Hbond>
1.0000

> <Gold.PLP.Chemscore.CHOScore>
0.0000

> <Gold.PLP.Chemscore.Metal>
0.0000

> <Gold.PLP.Chemscore.Internal.Correction>
0.0415

> <Gold.Rescore>
     Score         DG    S(hbond)    S(metal)    S(lipo)     H(rot)  DE(clash)    DE(int)     intcor
     14.23     -16.32       1.00        0.00      90.29       1.19       0.03       2.05       ----

> <Gold.Chemscore.Fitness>
14.2310

> <Gold.Chemscore.DG>
-16.3157

> <Gold.Chemscore.ZeroCoef>
-5.4800

> <Gold.Chemscore.Hbond>
0.9951

> <Gold.Chemscore.Metal>
0.0000

> <Gold.Chemscore.Lipo>
90.2941

> <Gold.Chemscore.Internal_Hbond>
0.0000

> <Gold.Chemscore.DEClash>
0.0326

> <Gold.Chemscore.DEInternal>
2.0522

> <Gold.Chemscore.Rot>
1.1924

> <Gold.Chemscore.Internal.Correction>
   9.000000E+99

> <Gold.Chemscore.Hbond.Weighted>
-3.3238

> <Gold.Chemscore.Metal.Weighted>
-0.0000

> <Gold.Chemscore.Lipo.Weighted>
-10.5644

> <Gold.Chemscore.Internal_Hbond.Weighted>
0.0000

> <Gold.Chemscore.DEClash.Weighted>
0.0326

> <Gold.Chemscore.DEInternal.Weighted>
2.0522

> <Gold.Chemscore.Rot.Weighted>
3.0524

> <Gold.Chemscore.Internal.Correction.Weighted>
   9.000000E+99

> <Gold.Protein.RotatedTorsions>
[ 6907 6896 6895 6894 ] final  142.50 input  -60.11 | X-H torsion
[ 7974 7965 7964 7962 ] final -123.25 input  175.53 | X-H torsion
[ 8008 7997 7996 7995 ] final   43.82 input   59.86 | X-H torsion
[ 10167 10162 10161 10158 ] final -128.65 input  -65.29 | X-H torsion
[ 10718 10713 10712 10709 ] final -149.00 input   66.30 | X-H torsion
[ 10763 10752 10751 10750 ] final -107.49 input  -60.55 | X-H torsion
[ 11005 11000 10999 10996 ] final  152.42 input  -57.11 | X-H torsion

> <Gold.Protein.ActiveResidues>
 VAL166  LYS551  ARG553  GLY616  TRP617  ASP618  TYR619  PRO620  LYS621  CYS622 
 ASP623  PHE694  ASN695  SER759  ASP760  ASP761  ALA762  ILE779  LEU786  VAL792 
 PHE793  MET794  SER795  GLU796  ALA797  LYS798  CYS799  TRP800  GLU811  SER814 

> <Gold.Protein.RotatedAtoms>
  152.2179  133.4961  159.5145 H   0  0  0  0  0  0  0  0  0  0  0  0  # atno 6907 bound_to 6896
  150.7005  134.1381  159.4104 H   0  0  0  0  0  0  0  0  0  0  0  0  # atno 6908 bound_to 6896
  151.9302  135.0260  160.0579 H   0  0  0  0  0  0  0  0  0  0  0  0  # atno 6909 bound_to 6896
  145.0207  140.7985  143.4383 H   0  0  0  0  0  0  0  0  0  0  0  0  # atno 7974 bound_to 7965
  155.3091  140.3390  155.4244 H   0  0  0  0  0  0  0  0  0  0  0  0  # atno 8008 bound_to 7997
  156.1964  140.1716  156.8027 H   0  0  0  0  0  0  0  0  0  0  0  0  # atno 8009 bound_to 7997
  154.5504  140.0706  156.8642 H   0  0  0  0  0  0  0  0  0  0  0  0  # atno 8010 bound_to 7997
  139.9481  143.6087  152.2484 H   0  0  0  0  0  0  0  0  0  0  0  0  # atno 10167 bound_to 10162
  156.4274  130.8059  151.2284 H   0  0  0  0  0  0  0  0  0  0  0  0  # atno 10718 bound_to 10713
  154.8078  135.4673  154.0438 H   0  0  0  0  0  0  0  0  0  0  0  0  # atno 10763 bound_to 10752
  153.1893  135.6852  153.8381 H   0  0  0  0  0  0  0  0  0  0  0  0  # atno 10764 bound_to 10752
  153.7904  135.3244  155.3355 H   0  0  0  0  0  0  0  0  0  0  0  0  # atno 10765 bound_to 10752
  140.1306  134.8804  157.2199 H   0  0  0  0  0  0  0  0  0  0  0  0  # atno 11005 bound_to 11000
  145.1899  139.2306  143.5248 LP  0  0  0  0  0  0  0  0  0  0  0  0  # atno 17320 bound_to 7965
  146.3485  140.1693  142.8590 LP  0  0  0  0  0  0  0  0  0  0  0  0  # atno 17321 bound_to 7965
  139.6651  144.7662  151.1889 LP  0  0  0  0  0  0  0  0  0  0  0  0  # atno 17342 bound_to 10162
  140.7591  143.5951  150.8757 LP  0  0  0  0  0  0  0  0  0  0  0  0  # atno 17343 bound_to 10162
  157.7508  131.0209  150.3727 LP  0  0  0  0  0  0  0  0  0  0  0  0  # atno 17370 bound_to 10713
  156.4057  130.3924  149.6927 LP  0  0  0  0  0  0  0  0  0  0  0  0  # atno 17371 bound_to 10713
  140.2847  134.3310  155.7332 LP  0  0  0  0  0  0  0  0  0  0  0  0  # atno 17394 bound_to 11000
  141.2169  133.7499  156.9415 LP  0  0  0  0  0  0  0  0  0  0  0  0  # atno 17395 bound_to 11000

$$$$
