AV-unprocessed.smi:2019|AV-procd|sdf|8171|dock2
  -GOLD-   2272010423D 1   1.00000     0.00000
 Structure written by MMmdl.
 36 37  0  0  0  0  0  0  0  0  1 V2000
  151.2469  140.9110  157.6694 O   0  0  0  0  0  0  0  0  0  0  0  0
  151.0858  142.0458  157.2185 C   0  0  0  0  0  0  0  0  0  0  0  0
  151.9344  143.2207  157.7239 C   0  0  0  0  0  0  0  0  0  0  0  0
  152.2029  143.1615  159.1704 N   0  0  0  0  0  0  0  0  0  0  0  0
  151.7121  144.2212  159.9590 C   0  0  0  0  0  0  0  0  0  0  0  0
  151.9024  144.2652  161.2872 C   0  0  0  0  0  0  0  0  0  0  0  0
  152.6333  143.1860  161.9082 C   0  0  0  0  0  0  0  0  0  0  0  0
  153.1098  142.1691  161.1627 C   0  0  0  0  0  0  0  0  0  0  0  0
  152.9056  142.1178  159.7103 C   0  0  0  0  0  0  0  0  0  0  0  0
  153.3378  141.1929  159.0220 O   0  0  0  0  0  0  0  0  0  0  0  0
  150.1909  142.3361  156.2607 N   0  0  0  0  0  0  0  0  0  0  0  0
  149.2622  141.3836  155.6477 C   0  0  2  0  0  0  0  0  0  0  0  0
  148.4493  140.7257  156.7866 C   0  0  0  0  0  0  0  0  0  0  0  0
  147.1080  140.1282  156.3272 C   0  0  0  0  0  0  0  0  0  0  0  0
  147.2247  138.9443  155.3549 C   0  0  0  0  0  0  0  0  0  0  0  0
  147.8946  139.3058  154.0183 C   0  0  0  0  0  0  0  0  0  0  0  0
  149.3433  139.4028  154.1396 N   0  0  0  0  0  0  0  0  0  0  0  0
  150.0337  140.2878  154.8748 C   0  0  0  0  0  0  0  0  0  0  0  0
  151.2616  140.2220  154.9339 O   0  0  0  0  0  0  0  0  0  0  0  0
  152.8679  143.2304  157.1597 H   0  0  0  0  0  0  0  0  0  0  0  0
  151.4406  144.1622  157.4752 H   0  0  0  0  0  0  0  0  0  0  0  0
  151.1827  144.9917  159.4177 H   0  0  0  0  0  0  0  0  0  0  0  0
  151.5221  145.0877  161.8749 H   0  0  0  0  0  0  0  0  0  0  0  0
  152.8001  143.1953  162.9754 H   0  0  0  0  0  0  0  0  0  0  0  0
  153.6555  141.3709  161.6443 H   0  0  0  0  0  0  0  0  0  0  0  0
  150.1237  143.2954  155.9531 H   0  0  0  0  0  0  0  0  0  0  0  0
  148.5946  141.9207  154.9713 H   0  0  0  0  0  0  0  0  0  0  0  0
  149.0422  139.9693  157.3045 H   0  0  0  0  0  0  0  0  0  0  0  0
  148.2189  141.4801  157.5405 H   0  0  0  0  0  0  0  0  0  0  0  0
  146.5556  139.7990  157.2079 H   0  0  0  0  0  0  0  0  0  0  0  0
  146.4997  140.9115  155.8726 H   0  0  0  0  0  0  0  0  0  0  0  0
  147.7529  138.1161  155.8297 H   0  0  0  0  0  0  0  0  0  0  0  0
  146.2192  138.5767  155.1479 H   0  0  0  0  0  0  0  0  0  0  0  0
  147.6860  138.5219  153.2898 H   0  0  0  0  0  0  0  0  0  0  0  0
  147.4815  140.2269  153.6047 H   0  0  0  0  0  0  0  0  0  0  0  0
  149.8791  138.7088  153.6384 H   0  0  0  0  0  0  0  0  0  0  0  0
  1  2  2  0  0  0  0
  2  3  1  0  0  0  0
  2 11  1  0  0  0  0
  3  4  1  0  0  0  0
  3 20  1  0  0  0  0
  3 21  1  0  0  0  0
  4  9  1  0  0  0  0
  4  5  1  0  0  0  0
  5  6  2  0  0  0  0
  5 22  1  0  0  0  0
  6  7  1  0  0  0  0
  6 23  1  0  0  0  0
  7  8  2  0  0  0  0
  7 24  1  0  0  0  0
  8  9  1  0  0  0  0
  8 25  1  0  0  0  0
  9 10  2  0  0  0  0
 11 12  1  0  0  0  0
 11 26  1  0  0  0  0
 12 18  1  0  0  0  0
 12 13  1  0  0  0  0
 12 27  1  0  0  0  0
 13 14  1  0  0  0  0
 13 28  1  0  0  0  0
 13 29  1  0  0  0  0
 14 15  1  0  0  0  0
 14 30  1  0  0  0  0
 14 31  1  0  0  0  0
 15 16  1  0  0  0  0
 15 32  1  0  0  0  0
 15 33  1  0  0  0  0
 16 17  1  0  0  0  0
 16 34  1  0  0  0  0
 16 35  1  0  0  0  0
 17 18  1  0  0  0  0
 17 36  1  0  0  0  0
 18 19  2  0  0  0  0
M  END
> <s_m_source_file>
AV-unprocessed.smi

> <i_m_source_file_index>
2019

> <i_lp_mmshare_version>
43012

> <i_f3d_flags>
0

> <s_epik_input>
Tz1jMVtjSF1bY0hdW2NIXVtjSF1uMVtDSDJdQyg9TylbTkhdW0NAQEhdMltDSDJdW0NIMl1bQ0gyXVtDSDJdW05IXUMyPU8=

> <s_epik_cmdline>
J2VwaWtfcHl0aG9uJywgJy1waCcsICc3LjAnLCAnLXRuJywgJzgnLCAnLW1hJywgJzIwMCcsICctbWV0YWxfYmluZGluZycsICctaW1hZScsICc8aW5maWxlLm1hZT4nLCAnLW9tYWUnLCAnPG91dGZpbGUubWFlPic=

> <r_lp_tautomer_probability>
1

> <r_epik_Ionization_Penalty>
3.70786e-07

> <r_epik_Ionization_Penalty_Charging>
3.17464e-07

> <r_epik_Ionization_Penalty_Neutral>
5.33217e-08

> <r_epik_State_Penalty>
-0

> <r_epik_Charging_Adjusted_Penalty>
3.17464e-07

> <i_epik_Tot_Q>
0

> <i_epik_Tot_abs_Q>
0

> <r_epik_Metal_State_Penalty>
-0

> <b_epik_Metal_Only>
0

> <s_lp_Force_Field>
OPLS_2005

> <r_lp_Energy>
20.44

> <b_lp_Chiralities_Consistent>
1

> <s_lp_Variant>
AV-unprocessed.smi:2019-1

> <Gold.Version>
5.8.1

> <Gold.Id.Protein>
6NUR|6NUR_protein|mol2

> <Gold.PLP.Fitness>
42.7451

> <Gold.PLP.PLP>
-37.8353

> <Gold.PLP.part.hbond>
-2.9849

> <Gold.PLP.part.metal>
0.0000

> <Gold.PLP.part.buried>
-4.5012

> <Gold.PLP.part.nonpolar>
-30.6187

> <Gold.PLP.part.repulsive>
0.2430

> <Gold.PLP.ligand.clash>
0.0000

> <Gold.PLP.ligand.torsion>
0.3416

> <Gold.PLP.Chemscore.Hbond>
1.8640

> <Gold.PLP.Chemscore.CHOScore>
0.0000

> <Gold.PLP.Chemscore.Metal>
0.0000

> <Gold.Chemscore.Hbonds>
donor molecule, donor type, donor heavy atom, donor atom, acceptor molecule, acceptor atom, score
      L1  H    11    26       P1  8028  0.88
      P1  H  7989  7998       L1    19  1.00

> <Gold.PLP.Chemscore.Internal.Correction>
0.0010

> <Gold.Rescore>
     Score         DG    S(hbond)    S(metal)    S(lipo)     H(rot)  DE(clash)    DE(int)     intcor
      8.83     -15.96       1.97        0.00      68.18       1.59       0.35       6.78       ----

> <Gold.Chemscore.Fitness>
8.8280

> <Gold.Chemscore.DG>
-15.9621

> <Gold.Chemscore.ZeroCoef>
-5.4800

> <Gold.Chemscore.Hbond>
1.9718

> <Gold.Chemscore.Metal>
0.0000

> <Gold.Chemscore.Lipo>
68.1776

> <Gold.Chemscore.Internal_Hbond>
0.0000

> <Gold.Chemscore.DEClash>
0.3509

> <Gold.Chemscore.DEInternal>
6.7832

> <Gold.Chemscore.Rot>
1.5939

> <Gold.Chemscore.Internal.Correction>
   9.000000E+99

> <Gold.Chemscore.Hbonds>
donor molecule, donor type, donor heavy atom, donor atom, acceptor molecule, acceptor atom, score
      L1  H    11    26       P1  8028  0.86
      P1  H  7989  7998       L1    19  0.25

> <Gold.Chemscore.Hbond.Weighted>
-6.5857

> <Gold.Chemscore.Metal.Weighted>
-0.0000

> <Gold.Chemscore.Lipo.Weighted>
-7.9768

> <Gold.Chemscore.Internal_Hbond.Weighted>
0.0000

> <Gold.Chemscore.DEClash.Weighted>
0.3509

> <Gold.Chemscore.DEInternal.Weighted>
6.7832

> <Gold.Chemscore.Rot.Weighted>
4.0804

> <Gold.Chemscore.Internal.Correction.Weighted>
   9.000000E+99

> <Gold.Protein.RotatedTorsions>
[ 6907 6896 6895 6894 ] final -117.10 input  -60.11 | X-H torsion
[ 7974 7965 7964 7962 ] final -158.67 input  175.53 | X-H torsion
[ 8008 7997 7996 7995 ] final   10.83 input   59.86 | X-H torsion
[ 10167 10162 10161 10158 ] final   99.17 input  -65.29 | X-H torsion
[ 10718 10713 10712 10709 ] final   46.30 input   66.30 | X-H torsion
[ 10763 10752 10751 10750 ] final -152.48 input  -60.55 | X-H torsion
[ 11005 11000 10999 10996 ] final -130.94 input  -57.11 | X-H torsion

> <Gold.Protein.ActiveResidues>
 VAL166  LYS551  ARG553  GLY616  TRP617  ASP618  TYR619  PRO620  LYS621  CYS622 
 ASP623  PHE694  ASN695  SER759  ASP760  ASP761  ALA762  ILE779  LEU786  VAL792 
 PHE793  MET794  SER795  GLU796  ALA797  LYS798  CYS799  TRP800  GLU811  SER814 

> <Gold.Protein.RotatedAtoms>
  150.8109  133.8424  159.3182 H   0  0  0  0  0  0  0  0  0  0  0  0  # atno 6907 bound_to 6896
  151.6210  135.1030  160.0111 H   0  0  0  0  0  0  0  0  0  0  0  0  # atno 6908 bound_to 6896
  152.4201  133.7062  159.6509 H   0  0  0  0  0  0  0  0  0  0  0  0  # atno 6909 bound_to 6896
  144.7496  140.3794  143.6058 H   0  0  0  0  0  0  0  0  0  0  0  0  # atno 7974 bound_to 7965
  154.7987  140.2848  155.5937 H   0  0  0  0  0  0  0  0  0  0  0  0  # atno 8008 bound_to 7997
  156.2974  140.2590  156.2780 H   0  0  0  0  0  0  0  0  0  0  0  0  # atno 8009 bound_to 7997
  154.9584  140.0378  157.2167 H   0  0  0  0  0  0  0  0  0  0  0  0  # atno 8010 bound_to 7997
  139.7642  144.6944  151.0248 H   0  0  0  0  0  0  0  0  0  0  0  0  # atno 10167 bound_to 10162
  157.4466  130.8113  149.7747 H   0  0  0  0  0  0  0  0  0  0  0  0  # atno 10718 bound_to 10713
  154.7991  135.3235  154.7594 H   0  0  0  0  0  0  0  0  0  0  0  0  # atno 10763 bound_to 10752
  153.8266  135.6883  153.4824 H   0  0  0  0  0  0  0  0  0  0  0  0  # atno 10764 bound_to 10752
  153.1698  135.4628  154.9829 H   0  0  0  0  0  0  0  0  0  0  0  0  # atno 10765 bound_to 10752
  140.9302  134.1329  157.4241 H   0  0  0  0  0  0  0  0  0  0  0  0  # atno 11005 bound_to 11000
  145.6993  139.1657  143.2602 LP  0  0  0  0  0  0  0  0  0  0  0  0  # atno 17320 bound_to 7965
  146.1427  140.7035  142.9359 LP  0  0  0  0  0  0  0  0  0  0  0  0  # atno 17321 bound_to 7965
  140.7809  143.4662  151.0209 LP  0  0  0  0  0  0  0  0  0  0  0  0  # atno 17342 bound_to 10162
  139.8347  143.7643  152.3180 LP  0  0  0  0  0  0  0  0  0  0  0  0  # atno 17343 bound_to 10162
  155.9970  130.3902  150.2757 LP  0  0  0  0  0  0  0  0  0  0  0  0  # atno 17370 bound_to 10713
  157.0926  131.0174  151.3116 LP  0  0  0  0  0  0  0  0  0  0  0  0  # atno 17371 bound_to 10713
  139.8794  135.0002  156.5998 LP  0  0  0  0  0  0  0  0  0  0  0  0  # atno 17394 bound_to 11000
  140.7873  133.8611  155.8616 LP  0  0  0  0  0  0  0  0  0  0  0  0  # atno 17395 bound_to 11000

$$$$
