AV-unprocessed.smi:1654|AV-procd|sdf|6643|dock5
  -GOLD-   22720 7343D 1   1.00000     0.00000
 Structure written by MMmdl.
 39 40  0  0  0  0  0  0  0  0  2 V2000
  151.2324  139.8157  155.0074 O   0  0  0  0  0  0  0  0  0  0  0  0
  151.8146  138.9202  156.0204 S   0  0  0  0  0  0  0  0  0  0  0  0
  152.5504  137.7350  155.5492 O   0  0  0  0  0  0  0  0  0  0  0  0
  152.5937  139.6973  157.2118 N   0  5  0  0  0  0  0  0  0  0  0  0
  152.0632  140.9614  157.6897 C   0  0  0  0  0  0  0  0  0  0  0  0
  152.9305  141.4858  158.8521 C   0  0  0  0  0  0  0  0  0  0  0  0
  152.5123  142.8599  159.3600 C   0  0  0  0  0  0  0  0  0  0  0  0
  152.4039  143.9592  158.4802 C   0  0  0  0  0  0  0  0  0  0  0  0
  152.0274  145.2129  158.9996 C   0  0  0  0  0  0  0  0  0  0  0  0
  151.7781  145.3180  160.3822 C   0  0  0  0  0  0  0  0  0  0  0  0
  151.8840  144.2778  161.2366 N   0  0  0  0  0  0  0  0  0  0  0  0
  152.2446  143.0785  160.7302 C   0  0  0  0  0  0  0  0  0  0  0  0
  150.4709  138.3390  156.9654 N   0  0  0  0  0  0  0  0  0  0  0  0
  149.2921  139.2085  157.1419 C   0  0  0  0  0  0  0  0  0  0  0  0
  148.0074  138.4527  156.7701 C   0  0  0  0  0  0  0  0  0  0  0  0
  147.3627  137.6585  157.9205 C   0  0  0  0  0  0  0  0  0  0  0  0
  148.3313  136.9895  158.9129 C   0  0  0  0  0  0  0  0  0  0  0  0
  149.5963  136.3864  158.2817 C   0  0  0  0  0  0  0  0  0  0  0  0
  150.7319  137.4085  158.0816 C   0  0  0  0  0  0  0  0  0  0  0  0
  152.0412  141.7110  156.8979 H   0  0  0  0  0  0  0  0  0  0  0  0
  151.0336  140.8576  158.0338 H   0  0  0  0  0  0  0  0  0  0  0  0
  152.8949  140.7835  159.6865 H   0  0  0  0  0  0  0  0  0  0  0  0
  153.9753  141.5348  158.5419 H   0  0  0  0  0  0  0  0  0  0  0  0
  152.6040  143.8435  157.4251 H   0  0  0  0  0  0  0  0  0  0  0  0
  151.9322  146.0729  158.3536 H   0  0  0  0  0  0  0  0  0  0  0  0
  151.4877  146.2643  160.8142 H   0  0  0  0  0  0  0  0  0  0  0  0
  152.3217  142.2684  161.4406 H   0  0  0  0  0  0  0  0  0  0  0  0
  149.2549  139.6033  158.1579 H   0  0  0  0  0  0  0  0  0  0  0  0
  149.3780  140.0788  156.4936 H   0  0  0  0  0  0  0  0  0  0  0  0
  147.2702  139.1643  156.3973 H   0  0  0  0  0  0  0  0  0  0  0  0
  148.2119  137.7863  155.9304 H   0  0  0  0  0  0  0  0  0  0  0  0
  146.7039  138.3192  158.4853 H   0  0  0  0  0  0  0  0  0  0  0  0
  146.7117  136.8993  157.4855 H   0  0  0  0  0  0  0  0  0  0  0  0
  148.6200  137.7042  159.6845 H   0  0  0  0  0  0  0  0  0  0  0  0
  147.7859  136.2044  159.4378 H   0  0  0  0  0  0  0  0  0  0  0  0
  149.9688  135.6152  158.9566 H   0  0  0  0  0  0  0  0  0  0  0  0
  149.3623  135.8737  157.3477 H   0  0  0  0  0  0  0  0  0  0  0  0
  151.6544  136.8603  157.8944 H   0  0  0  0  0  0  0  0  0  0  0  0
  150.9109  137.9793  158.9933 H   0  0  0  0  0  0  0  0  0  0  0  0
  1  2  2  0  0  0  0
  2  3  2  0  0  0  0
  2  4  1  0  0  0  0
  2 13  1  0  0  0  0
  4  5  1  0  0  0  0
  5  6  1  0  0  0  0
  5 20  1  0  0  0  0
  5 21  1  0  0  0  0
  6  7  1  0  0  0  0
  6 22  1  0  0  0  0
  6 23  1  0  0  0  0
  7 12  1  0  0  0  0
  7  8  2  0  0  0  0
  8  9  1  0  0  0  0
  8 24  1  0  0  0  0
  9 10  2  0  0  0  0
  9 25  1  0  0  0  0
 10 11  1  0  0  0  0
 10 26  1  0  0  0  0
 11 12  2  0  0  0  0
 12 27  1  0  0  0  0
 13 19  1  0  0  0  0
 13 14  1  0  0  0  0
 14 15  1  0  0  0  0
 14 28  1  0  0  0  0
 14 29  1  0  0  0  0
 15 16  1  0  0  0  0
 15 30  1  0  0  0  0
 15 31  1  0  0  0  0
 16 17  1  0  0  0  0
 16 32  1  0  0  0  0
 16 33  1  0  0  0  0
 17 18  1  0  0  0  0
 17 34  1  0  0  0  0
 17 35  1  0  0  0  0
 18 19  1  0  0  0  0
 18 36  1  0  0  0  0
 18 37  1  0  0  0  0
 19 38  1  0  0  0  0
 19 39  1  0  0  0  0
M  CHG  1   4  -1
M  END
> <s_m_source_file>
AV-unprocessed.smi

> <i_m_source_file_index>
1654

> <i_lp_mmshare_version>
43012

> <i_f3d_flags>
0

> <s_epik_input>
W0NIMl0xW0NIMl1bQ0gyXVtDSDJdW0NIMl1bQ0gyXU4xUyg9TykoPU8pW05IXVtDSDJdW0NIMl1jMltjSF1bY0hdW2NIXW5bY0hdMg==

> <s_epik_cmdline>
J2VwaWtfcHl0aG9uJywgJy1waCcsICc3LjAnLCAnLXRuJywgJzgnLCAnLW1hJywgJzIwMCcsICctbWV0YWxfYmluZGluZycsICctaW1hZScsICc8aW5maWxlLm1hZT4nLCAnLW9tYWUnLCAnPG91dGZpbGUubWFlPic=

> <r_lp_tautomer_probability>
1

> <r_epik_Ionization_Penalty>
3.13138

> <r_epik_Ionization_Penalty_Charging>
3.10426

> <r_epik_Ionization_Penalty_Neutral>
0.027117

> <r_epik_State_Penalty>
3.10111

> <r_epik_Charging_Adjusted_Penalty>
6.20538

> <i_epik_Tot_Q>
-1

> <i_epik_Tot_abs_Q>
1

> <r_epik_Metal_State_Penalty>
0.464106

> <b_epik_Metal_Only>
1

> <s_lp_Force_Field>
OPLS_2005

> <r_lp_Energy>
12.7892

> <b_lp_Chiralities_Consistent>
1

> <s_lp_Variant>
AV-unprocessed.smi:1654-2

> <Gold.Version>
5.8.1

> <Gold.Id.Protein>
6NUR|6NUR_protein|mol2

> <Gold.PLP.Fitness>
45.3302

> <Gold.PLP.PLP>
-35.9600

> <Gold.PLP.part.hbond>
-2.8353

> <Gold.PLP.part.metal>
0.0000

> <Gold.PLP.part.buried>
-6.5025

> <Gold.PLP.part.nonpolar>
-26.4629

> <Gold.PLP.part.repulsive>
0.2162

> <Gold.PLP.ligand.clash>
0.0000

> <Gold.PLP.ligand.torsion>
1.5972

> <Gold.PLP.Chemscore.Hbond>
3.1581

> <Gold.PLP.Chemscore.CHOScore>
0.0000

> <Gold.PLP.Chemscore.Metal>
0.0000

> <Gold.Chemscore.Hbonds>
donor molecule, donor type, donor heavy atom, donor atom, acceptor molecule, acceptor atom, score
      P1  H  7989  7998       L1     1  1.00
      P1  H  7997  8008       L1     4  2.00
      P1  H 10752 10763       L1     3  0.13

> <Gold.PLP.Chemscore.Internal.Correction>
3.0905

> <Gold.Rescore>
     Score         DG    S(hbond)    S(metal)    S(lipo)     H(rot)  DE(clash)    DE(int)     intcor
     16.59     -18.16       1.65        0.00      89.23       1.27       0.00       1.58       ----

> <Gold.Chemscore.Fitness>
16.5872

> <Gold.Chemscore.DG>
-18.1646

> <Gold.Chemscore.ZeroCoef>
-5.4800

> <Gold.Chemscore.Hbond>
1.6485

> <Gold.Chemscore.Metal>
0.0000

> <Gold.Chemscore.Lipo>
89.2266

> <Gold.Chemscore.Internal_Hbond>
0.0000

> <Gold.Chemscore.DEClash>
0.0015

> <Gold.Chemscore.DEInternal>
1.5760

> <Gold.Chemscore.Rot>
1.2738

> <Gold.Chemscore.Internal.Correction>
   9.000000E+99

> <Gold.Chemscore.Hbonds>
donor molecule, donor type, donor heavy atom, donor atom, acceptor molecule, acceptor atom, score
      P1  H  7989  7998       L1     1  1.00
      P1  H  7997  8008       L1     4  0.42
      P1  H 10752 10763       L1     3  0.13

> <Gold.Chemscore.Hbond.Weighted>
-5.5062

> <Gold.Chemscore.Metal.Weighted>
-0.0000

> <Gold.Chemscore.Lipo.Weighted>
-10.4395

> <Gold.Chemscore.Internal_Hbond.Weighted>
0.0000

> <Gold.Chemscore.DEClash.Weighted>
0.0015

> <Gold.Chemscore.DEInternal.Weighted>
1.5760

> <Gold.Chemscore.Rot.Weighted>
3.2610

> <Gold.Chemscore.Internal.Correction.Weighted>
   9.000000E+99

> <Gold.Protein.RotatedTorsions>
[ 6907 6896 6895 6894 ] final   35.44 input  -60.11 | X-H torsion
[ 7974 7965 7964 7962 ] final    9.36 input  175.53 | X-H torsion
[ 8008 7997 7996 7995 ] final  -69.96 input   59.86 | X-H torsion
[ 10167 10162 10161 10158 ] final -114.09 input  -65.29 | X-H torsion
[ 10718 10713 10712 10709 ] final -143.38 input   66.30 | X-H torsion
[ 10763 10752 10751 10750 ] final   74.27 input  -60.55 | X-H torsion
[ 11005 11000 10999 10996 ] final  -64.07 input  -57.11 | X-H torsion

> <Gold.Protein.ActiveResidues>
 VAL166  LYS551  ARG553  GLY616  TRP617  ASP618  TYR619  PRO620  LYS621  CYS622 
 ASP623  PHE694  ASN695  SER759  ASP760  ASP761  ALA762  ILE779  LEU786  VAL792 
 PHE793  MET794  SER795  GLU796  ALA797  LYS798  CYS799  TRP800  GLU811  SER814 

> <Gold.Protein.RotatedAtoms>
  152.1162  134.9239  160.0564 H   0  0  0  0  0  0  0  0  0  0  0  0  # atno 6907 bound_to 6896
  152.0397  133.3967  159.4340 H   0  0  0  0  0  0  0  0  0  0  0  0  # atno 6908 bound_to 6896
  150.6846  134.3349  159.4887 H   0  0  0  0  0  0  0  0  0  0  0  0  # atno 6909 bound_to 6896
  146.2404  139.9795  142.8438 H   0  0  0  0  0  0  0  0  0  0  0  0  # atno 7974 bound_to 7965
  154.4977  140.0843  156.7731 H   0  0  0  0  0  0  0  0  0  0  0  0  # atno 8008 bound_to 7997
  155.4078  140.3440  155.4243 H   0  0  0  0  0  0  0  0  0  0  0  0  # atno 8009 bound_to 7997
  156.1415  140.1531  156.8901 H   0  0  0  0  0  0  0  0  0  0  0  0  # atno 8010 bound_to 7997
  140.1048  143.4581  152.1790 H   0  0  0  0  0  0  0  0  0  0  0  0  # atno 10167 bound_to 10162
  156.3572  130.7719  151.1881 H   0  0  0  0  0  0  0  0  0  0  0  0  # atno 10718 bound_to 10713
  153.0576  135.5032  154.8017 H   0  0  0  0  0  0  0  0  0  0  0  0  # atno 10763 bound_to 10752
  154.6831  135.2971  154.9587 H   0  0  0  0  0  0  0  0  0  0  0  0  # atno 10764 bound_to 10752
  154.0367  135.6722  153.4838 H   0  0  0  0  0  0  0  0  0  0  0  0  # atno 10765 bound_to 10752
  141.1413  133.6660  156.5777 H   0  0  0  0  0  0  0  0  0  0  0  0  # atno 11005 bound_to 11000
  145.1605  140.9670  143.4380 LP  0  0  0  0  0  0  0  0  0  0  0  0  # atno 17320 bound_to 7965
  145.0120  139.3501  143.6115 LP  0  0  0  0  0  0  0  0  0  0  0  0  # atno 17321 bound_to 7965
  139.5651  144.7430  151.4044 LP  0  0  0  0  0  0  0  0  0  0  0  0  # atno 17342 bound_to 10162
  140.6958  143.7752  150.7325 LP  0  0  0  0  0  0  0  0  0  0  0  0  # atno 17343 bound_to 10162
  157.7469  131.0410  150.4627 LP  0  0  0  0  0  0  0  0  0  0  0  0  # atno 17370 bound_to 10713
  156.4831  130.4078  149.6450 LP  0  0  0  0  0  0  0  0  0  0  0  0  # atno 17371 bound_to 10713
  140.3863  134.7479  157.4693 LP  0  0  0  0  0  0  0  0  0  0  0  0  # atno 17394 bound_to 11000
  140.0600  134.6009  155.8760 LP  0  0  0  0  0  0  0  0  0  0  0  0  # atno 17395 bound_to 11000

$$$$
