AV-unprocessed.smi:1870|AV-procd|sdf|7598|dock4
  -GOLD-   22720 9313D 1   1.00000     0.00000
 Structure written by MMmdl.
 47 49  0  0  0  0  0  0  0  0  1 V2000
  144.4620  138.9627  156.5406 C   0  0  0  0  0  0  0  0  0  0  0  0
  145.0172  140.1610  155.8191 C   0  0  0  0  0  0  0  0  0  0  0  0
  146.0755  139.9677  155.1026 N   0  0  0  0  0  0  0  0  0  0  0  0
  146.6706  141.0001  154.4053 N   0  0  0  0  0  0  0  0  0  0  0  0
  147.8652  140.5995  153.6507 C   0  0  0  0  0  0  0  0  0  0  0  0
  149.0868  140.3835  154.5725 C   0  0  1  0  0  0  0  0  0  0  0  0
  150.0859  139.7233  153.8212 O   0  0  0  0  0  0  0  0  0  0  0  0
  149.7372  141.6776  155.1048 C   0  0  0  0  0  0  0  0  0  0  0  0
  150.6436  141.4830  156.2382 N   0  0  0  0  0  0  0  0  0  0  0  0
  150.2352  140.3683  157.0920 C   0  0  0  0  0  0  0  0  0  0  0  0
  151.3349  140.0004  158.0999 C   0  0  0  0  0  0  0  0  0  0  0  0
  151.8979  141.2258  158.8022 C   0  0  0  0  0  0  0  0  0  0  0  0
  152.7014  141.0767  159.9509 C   0  0  0  0  0  0  0  0  0  0  0  0
  153.2441  142.2113  160.5845 C   0  0  0  0  0  0  0  0  0  0  0  0
  152.9847  143.4969  160.0714 C   0  0  0  0  0  0  0  0  0  0  0  0
  152.1819  143.6502  158.9243 C   0  0  0  0  0  0  0  0  0  0  0  0
  151.6405  142.5174  158.2824 C   0  0  0  0  0  0  0  0  0  0  0  0
  150.7467  142.6910  157.0600 C   0  0  0  0  0  0  0  0  0  0  0  0
  146.2264  142.2899  154.3975 C   0  0  0  0  0  0  0  0  0  0  0  0
  146.7947  143.1835  153.7681 O   0  0  0  0  0  0  0  0  0  0  0  0
  145.0236  142.5007  155.2063 C   0  0  0  0  0  0  0  0  0  0  0  0
  144.5229  143.8373  155.2250 C   0  0  0  0  0  0  0  0  0  0  0  0
  144.1107  144.9192  155.2208 N   0  0  0  0  0  0  0  0  0  0  0  0
  144.4276  141.4939  155.8929 C   0  0  0  0  0  0  0  0  0  0  0  0
  143.1797  141.6620  156.7490 C   0  0  0  0  0  0  0  0  0  0  0  0
  144.3755  139.1591  157.6095 H   0  0  0  0  0  0  0  0  0  0  0  0
  145.0980  138.0843  156.4195 H   0  0  0  0  0  0  0  0  0  0  0  0
  143.4720  138.7085  156.1614 H   0  0  0  0  0  0  0  0  0  0  0  0
  147.6725  139.7052  153.0547 H   0  0  0  0  0  0  0  0  0  0  0  0
  148.0722  141.3860  152.9267 H   0  0  0  0  0  0  0  0  0  0  0  0
  148.8201  139.7517  155.4207 H   0  0  0  0  0  0  0  0  0  0  0  0
  149.7760  139.6251  152.9338 H   0  0  0  0  0  0  0  0  0  0  0  0
  150.2972  142.1095  154.2735 H   0  0  0  0  0  0  0  0  0  0  0  0
  148.9748  142.4198  155.3480 H   0  0  0  0  0  0  0  0  0  0  0  0
  149.3249  140.6391  157.6297 H   0  0  0  0  0  0  0  0  0  0  0  0
  149.9808  139.4879  156.5052 H   0  0  0  0  0  0  0  0  0  0  0  0
  150.9470  139.2977  158.8381 H   0  0  0  0  0  0  0  0  0  0  0  0
  152.1542  139.4993  157.5832 H   0  0  0  0  0  0  0  0  0  0  0  0
  152.9067  140.0925  160.3457 H   0  0  0  0  0  0  0  0  0  0  0  0
  153.8605  142.0952  161.4637 H   0  0  0  0  0  0  0  0  0  0  0  0
  153.4004  144.3662  160.5592 H   0  0  0  0  0  0  0  0  0  0  0  0
  151.9813  144.6394  158.5396 H   0  0  0  0  0  0  0  0  0  0  0  0
  151.1392  143.5109  156.4571 H   0  0  0  0  0  0  0  0  0  0  0  0
  149.7572  142.9968  157.4037 H   0  0  0  0  0  0  0  0  0  0  0  0
  142.7491  142.6589  156.6588 H   0  0  0  0  0  0  0  0  0  0  0  0
  143.4155  141.4976  157.8008 H   0  0  0  0  0  0  0  0  0  0  0  0
  142.4090  140.9492  156.4534 H   0  0  0  0  0  0  0  0  0  0  0  0
  1  2  1  0  0  0  0
  1 26  1  0  0  0  0
  1 27  1  0  0  0  0
  1 28  1  0  0  0  0
  2 24  1  0  0  0  0
  2  3  2  0  0  0  0
  3  4  1  0  0  0  0
  4  5  1  0  0  0  0
  4 19  1  0  0  0  0
  5  6  1  0  0  0  0
  5 29  1  0  0  0  0
  5 30  1  0  0  0  0
  6  7  1  0  0  0  0
  6  8  1  0  0  0  0
  6 31  1  0  0  0  0
  7 32  1  0  0  0  0
  8  9  1  0  0  0  0
  8 33  1  0  0  0  0
  8 34  1  0  0  0  0
  9 18  1  0  0  0  0
  9 10  1  0  0  0  0
 10 11  1  0  0  0  0
 10 35  1  0  0  0  0
 10 36  1  0  0  0  0
 11 12  1  0  0  0  0
 11 37  1  0  0  0  0
 11 38  1  0  0  0  0
 12 17  2  0  0  0  0
 12 13  1  0  0  0  0
 13 14  2  0  0  0  0
 13 39  1  0  0  0  0
 14 15  1  0  0  0  0
 14 40  1  0  0  0  0
 15 16  2  0  0  0  0
 15 41  1  0  0  0  0
 16 17  1  0  0  0  0
 16 42  1  0  0  0  0
 17 18  1  0  0  0  0
 18 43  1  0  0  0  0
 18 44  1  0  0  0  0
 19 20  2  0  0  0  0
 19 21  1  0  0  0  0
 21 22  1  0  0  0  0
 21 24  2  0  0  0  0
 22 23  3  0  0  0  0
 24 25  1  0  0  0  0
 25 45  1  0  0  0  0
 25 46  1  0  0  0  0
 25 47  1  0  0  0  0
M  END
> <s_m_source_file>
AV-unprocessed.smi

> <i_m_source_file_index>
1870

> <i_lp_mmshare_version>
43012

> <i_f3d_flags>
0

> <s_epik_input>
TiNDYyhjMVtDSDNdKWMoPU8pbihuYzFbQ0gzXSlbQ0gyXVtDQEhdKFtPSF0pW0NIMl1OKFtDSDJdW0NIMl0yKVtDSDJdYyhjMjMpW2NIXVtjSF1bY0hdW2NIXTM=

> <s_epik_cmdline>
J2VwaWtfcHl0aG9uJywgJy1waCcsICc3LjAnLCAnLXRuJywgJzgnLCAnLW1hJywgJzIwMCcsICctbWV0YWxfYmluZGluZycsICctaW1hZScsICc8aW5maWxlLm1hZT4nLCAnLW9tYWUnLCAnPG91dGZpbGUubWFlPic=

> <r_epik_Ionization_Penalty>
2.30251

> <r_epik_Ionization_Penalty_Charging>
1.06171e-10

> <r_epik_Ionization_Penalty_Neutral>
2.30251

> <r_epik_State_Penalty>
2.45335

> <r_epik_Charging_Adjusted_Penalty>
2.45335

> <i_epik_Tot_Q>
0

> <i_epik_Tot_abs_Q>
0

> <r_epik_Metal_State_Penalty>
2.45335

> <b_epik_Metal_Only>
0

> <s_lp_Force_Field>
OPLS_2005

> <r_lp_Energy>
48.2343

> <b_lp_Chiralities_Consistent>
1

> <s_lp_Variant>
AV-unprocessed.smi:1870-6

> <Gold.Version>
5.8.1

> <Gold.Id.Protein>
6NUR|6NUR_protein|mol2

> <Gold.PLP.Fitness>
46.9785

> <Gold.PLP.PLP>
-42.4646

> <Gold.PLP.part.hbond>
-3.0000

> <Gold.PLP.part.metal>
0.0000

> <Gold.PLP.part.buried>
-2.3437

> <Gold.PLP.part.nonpolar>
-36.9548

> <Gold.PLP.part.repulsive>
0.5435

> <Gold.PLP.ligand.clash>
0.0000

> <Gold.PLP.ligand.torsion>
0.7248

> <Gold.PLP.Chemscore.Hbond>
1.9830

> <Gold.PLP.Chemscore.CHOScore>
0.0000

> <Gold.PLP.Chemscore.Metal>
0.0000

> <Gold.Chemscore.Hbonds>
donor molecule, donor type, donor heavy atom, donor atom, acceptor molecule, acceptor atom, score
      L1  H     7    32       P1  7957  1.00
      P1  H  7989  7998       L1     7  0.82
      P1  H  8022  8030       L1    20  0.05

> <Gold.PLP.Chemscore.Internal.Correction>
0.0144

> <Gold.Rescore>
     Score         DG    S(hbond)    S(metal)    S(lipo)     H(rot)  DE(clash)    DE(int)     intcor
     15.82     -17.10       1.22        0.00     110.51       2.10       0.56       0.72       ----

> <Gold.Chemscore.Fitness>
15.8235

> <Gold.Chemscore.DG>
-17.0999

> <Gold.Chemscore.ZeroCoef>
-5.4800

> <Gold.Chemscore.Hbond>
1.2152

> <Gold.Chemscore.Metal>
0.0000

> <Gold.Chemscore.Lipo>
110.5086

> <Gold.Chemscore.Internal_Hbond>
0.0000

> <Gold.Chemscore.DEClash>
0.5555

> <Gold.Chemscore.DEInternal>
0.7209

> <Gold.Chemscore.Rot>
2.0971

> <Gold.Chemscore.Internal.Correction>
   9.000000E+99

> <Gold.Chemscore.Hbonds>
donor molecule, donor type, donor heavy atom, donor atom, acceptor molecule, acceptor atom, score
      L1  H     7    32       P1  7957  0.98
      P1  H  7989  7998       L1     7  0.13
      P1  H  8022  8030       L1    20  0.06

> <Gold.Chemscore.Hbond.Weighted>
-4.0589

> <Gold.Chemscore.Metal.Weighted>
-0.0000

> <Gold.Chemscore.Lipo.Weighted>
-12.9295

> <Gold.Chemscore.Internal_Hbond.Weighted>
0.0000

> <Gold.Chemscore.DEClash.Weighted>
0.5555

> <Gold.Chemscore.DEInternal.Weighted>
0.7209

> <Gold.Chemscore.Rot.Weighted>
5.3685

> <Gold.Chemscore.Internal.Correction.Weighted>
   9.000000E+99

> <Gold.Protein.RotatedTorsions>
[ 6907 6896 6895 6894 ] final   92.52 input  -60.11 | X-H torsion
[ 7974 7965 7964 7962 ] final  -90.61 input  175.53 | X-H torsion
[ 8008 7997 7996 7995 ] final   -3.07 input   59.86 | X-H torsion
[ 10167 10162 10161 10158 ] final  -49.34 input  -65.29 | X-H torsion
[ 10718 10713 10712 10709 ] final  121.63 input   66.30 | X-H torsion
[ 10763 10752 10751 10750 ] final  -20.70 input  -60.55 | X-H torsion
[ 11005 11000 10999 10996 ] final  152.15 input  -57.11 | X-H torsion

> <Gold.Protein.ActiveResidues>
 VAL166  LYS551  ARG553  GLY616  TRP617  ASP618  TYR619  PRO620  LYS621  CYS622 
 ASP623  PHE694  ASN695  SER759  ASP760  ASP761  ALA762  ILE779  LEU786  VAL792 
 PHE793  MET794  SER795  GLU796  ALA797  LYS798  CYS799  TRP800  GLU811  SER814 

> <Gold.Protein.RotatedAtoms>
  152.5452  134.1490  159.8510 H   0  0  0  0  0  0  0  0  0  0  0  0  # atno 6907 bound_to 6896
  151.1519  133.4895  159.2602 H   0  0  0  0  0  0  0  0  0  0  0  0  # atno 6908 bound_to 6896
  151.1464  135.0216  159.8703 H   0  0  0  0  0  0  0  0  0  0  0  0  # atno 6909 bound_to 6896
  145.4241  140.9552  143.2164 H   0  0  0  0  0  0  0  0  0  0  0  0  # atno 7974 bound_to 7965
  154.6289  140.2518  155.7458 H   0  0  0  0  0  0  0  0  0  0  0  0  # atno 8008 bound_to 7997
  156.2468  140.2911  156.0552 H   0  0  0  0  0  0  0  0  0  0  0  0  # atno 8009 bound_to 7997
  155.1776  140.0388  157.2866 H   0  0  0  0  0  0  0  0  0  0  0  0  # atno 8010 bound_to 7997
  140.6689  143.2702  151.4201 H   0  0  0  0  0  0  0  0  0  0  0  0  # atno 10167 bound_to 10162
  157.5803  131.1075  150.8199 H   0  0  0  0  0  0  0  0  0  0  0  0  # atno 10718 bound_to 10713
  153.6246  135.6991  153.5298 H   0  0  0  0  0  0  0  0  0  0  0  0  # atno 10763 bound_to 10752
  153.2910  135.4157  155.1166 H   0  0  0  0  0  0  0  0  0  0  0  0  # atno 10764 bound_to 10752
  154.8536  135.3625  154.5787 H   0  0  0  0  0  0  0  0  0  0  0  0  # atno 10765 bound_to 10752
  140.1282  134.8819  157.2167 H   0  0  0  0  0  0  0  0  0  0  0  0  # atno 11005 bound_to 11000
  144.8226  139.5766  143.6980 LP  0  0  0  0  0  0  0  0  0  0  0  0  # atno 17320 bound_to 7965
  146.2641  139.6479  142.9341 LP  0  0  0  0  0  0  0  0  0  0  0  0  # atno 17321 bound_to 7965
  139.5949  144.1418  152.2132 LP  0  0  0  0  0  0  0  0  0  0  0  0  # atno 17342 bound_to 10162
  140.0785  144.5721  150.7140 LP  0  0  0  0  0  0  0  0  0  0  0  0  # atno 17343 bound_to 10162
  156.8647  130.5125  149.5301 LP  0  0  0  0  0  0  0  0  0  0  0  0  # atno 17370 bound_to 10713
  156.0849  130.5850  150.9630 LP  0  0  0  0  0  0  0  0  0  0  0  0  # atno 17371 bound_to 10713
  140.2876  134.3278  155.7324 LP  0  0  0  0  0  0  0  0  0  0  0  0  # atno 17394 bound_to 11000
  141.2165  133.7515  156.9456 LP  0  0  0  0  0  0  0  0  0  0  0  0  # atno 17395 bound_to 11000

$$$$
