AV-unprocessed.smi:2753|AV-procd|sdf|10610|dock5
  -GOLD-   2272015 63D 1   1.00000     0.00000
 Structure written by MMmdl.
 28 29  0  0  0  0  0  0  0  0  2 V2000
  151.3266  131.0572  155.3114 F   0  0  0  0  0  0  0  0  0  0  0  0
  150.3202  130.6089  154.5622 C   0  0  0  0  0  0  0  0  0  0  0  0
  150.7962  129.6302  153.7917 F   0  0  0  0  0  0  0  0  0  0  0  0
  149.4144  130.0737  155.3795 F   0  0  0  0  0  0  0  0  0  0  0  0
  149.7202  131.7187  153.7491 C   0  0  0  0  0  0  0  0  0  0  0  0
  150.0665  133.0514  153.7364 C   0  0  0  0  0  0  0  0  0  0  0  0
  149.2152  133.6477  152.8233 N   0  0  0  0  0  0  0  0  0  0  0  0
  148.4109  132.6982  152.3299 C   0  0  0  0  0  0  0  0  0  0  0  0
  147.3575  132.9869  151.3052 C   0  0  1  0  0  0  0  0  0  0  0  0
  146.3321  131.8422  151.1933 C   0  0  0  0  0  0  0  0  0  0  0  0
  145.2584  132.1798  150.1474 C   0  0  0  0  0  0  0  0  0  0  0  0
  144.6001  133.5355  150.4528 C   0  0  0  0  0  0  0  0  0  0  0  0
  145.6200  134.6030  150.5436 N   0  3  0  0  0  0  0  0  0  0  0  0
  146.6509  134.3325  151.5700 C   0  0  0  0  0  0  0  0  0  0  0  0
  148.6674  131.5030  152.8545 N   0  0  0  0  0  0  0  0  0  0  0  0
  149.2052  134.6266  152.5737 H   0  0  0  0  0  0  0  0  0  0  0  0
  150.8200  133.6010  154.2808 H   0  0  0  0  0  0  0  0  0  0  0  0
  147.8620  133.0672  150.3404 H   0  0  0  0  0  0  0  0  0  0  0  0
  146.8323  130.9107  150.9259 H   0  0  0  0  0  0  0  0  0  0  0  0
  145.8551  131.6734  152.1600 H   0  0  0  0  0  0  0  0  0  0  0  0
  145.7097  132.2058  149.1546 H   0  0  0  0  0  0  0  0  0  0  0  0
  144.5018  131.3947  150.1227 H   0  0  0  0  0  0  0  0  0  0  0  0
  143.8836  133.7931  149.6725 H   0  0  0  0  0  0  0  0  0  0  0  0
  144.0459  133.4869  151.3913 H   0  0  0  0  0  0  0  0  0  0  0  0
  146.0749  134.6897  149.6461 H   0  0  0  0  0  0  0  0  0  0  0  0
  146.1791  134.3319  152.5537 H   0  0  0  0  0  0  0  0  0  0  0  0
  147.3742  135.1486  151.5645 H   0  0  0  0  0  0  0  0  0  0  0  0
  145.1620  135.4765  150.7619 H   0  0  0  0  0  0  0  0  0  0  0  0
  1  2  1  0  0  0  0
  2  3  1  0  0  0  0
  2  4  1  0  0  0  0
  2  5  1  0  0  0  0
  5 15  1  0  0  0  0
  5  6  2  0  0  0  0
  6  7  1  0  0  0  0
  6 17  1  0  0  0  0
  7 16  1  0  0  0  0
  7  8  1  0  0  0  0
  8  9  1  0  0  0  0
  8 15  2  0  0  0  0
  9 14  1  0  0  0  0
  9 10  1  0  0  0  0
  9 18  1  0  0  0  0
 10 11  1  0  0  0  0
 10 19  1  0  0  0  0
 10 20  1  0  0  0  0
 11 12  1  0  0  0  0
 11 21  1  0  0  0  0
 11 22  1  0  0  0  0
 12 13  1  0  0  0  0
 12 23  1  0  0  0  0
 12 24  1  0  0  0  0
 13 14  1  0  0  0  0
 13 25  1  0  0  0  0
 13 28  1  0  0  0  0
 14 26  1  0  0  0  0
 14 27  1  0  0  0  0
M  CHG  1  13   1
M  END
> <s_m_source_file>
AV-unprocessed.smi

> <i_m_source_file_index>
2753

> <i_lp_mmshare_version>
43012

> <i_f3d_flags>
0

> <s_epik_input>
RkMoRikoRiljMVtjSF1bbkhdYyhuMSlbQ0BASF0yW0NIMl1bQ0gyXVtDSDJdW05IXVtDSDJdMg==

> <s_epik_cmdline>
J2VwaWtfcHl0aG9uJywgJy1waCcsICc3LjAnLCAnLXRuJywgJzgnLCAnLW1hJywgJzIwMCcsICctbWV0YWxfYmluZGluZycsICctaW1hZScsICc8aW5maWxlLm1hZT4nLCAnLW9tYWUnLCAnPG91dGZpbGUubWFlPic=

> <r_lp_tautomer_probability>
0.5

> <r_epik_Ionization_Penalty>
0.00052307

> <r_epik_Ionization_Penalty_Charging>
0.000431517

> <r_epik_Ionization_Penalty_Neutral>
9.15529e-05

> <r_epik_State_Penalty>
0.103148

> <r_epik_Charging_Adjusted_Penalty>
0.103579

> <i_epik_Tot_Q>
1

> <i_epik_Tot_abs_Q>
1

> <r_epik_Metal_State_Penalty>
0.166025

> <b_epik_Metal_Only>
0

> <s_lp_Force_Field>
OPLS_2005

> <r_lp_Energy>
16.8068

> <b_lp_Chiralities_Consistent>
1

> <s_lp_Variant>
AV-unprocessed.smi:2753-2

> <Gold.Version>
5.8.1

> <Gold.Id.Protein>
6NUR|6NUR_protein|mol2

> <Gold.PLP.Fitness>
34.0139

> <Gold.PLP.PLP>
-29.0094

> <Gold.PLP.part.hbond>
-2.0000

> <Gold.PLP.part.metal>
0.0000

> <Gold.PLP.part.buried>
-3.1574

> <Gold.PLP.part.nonpolar>
-24.9831

> <Gold.PLP.part.repulsive>
0.1572

> <Gold.PLP.ligand.clash>
0.0000

> <Gold.PLP.ligand.torsion>
0.5115

> <Gold.PLP.Chemscore.Hbond>
2.0000

> <Gold.PLP.Chemscore.CHOScore>
0.0000

> <Gold.PLP.Chemscore.Metal>
0.0000

> <Gold.Chemscore.Hbonds>
donor molecule, donor type, donor heavy atom, donor atom, acceptor molecule, acceptor atom, score
      L1  H    13    25       P1  7921  1.00

> <Gold.PLP.Chemscore.Internal.Correction>
0.0275

> <Gold.Rescore>
     Score         DG    S(hbond)    S(metal)    S(lipo)     H(rot)  DE(clash)    DE(int)     intcor
     14.53     -15.04       1.63        0.00      57.09       1.00       0.04       0.47       ----

> <Gold.Chemscore.Fitness>
14.5279

> <Gold.Chemscore.DG>
-15.0411

> <Gold.Chemscore.ZeroCoef>
-5.4800

> <Gold.Chemscore.Hbond>
1.6291

> <Gold.Chemscore.Metal>
0.0000

> <Gold.Chemscore.Lipo>
57.0916

> <Gold.Chemscore.Internal_Hbond>
0.0000

> <Gold.Chemscore.DEClash>
0.0431

> <Gold.Chemscore.DEInternal>
0.4700

> <Gold.Chemscore.Rot>
1.0000

> <Gold.Chemscore.Internal.Correction>
   9.000000E+99

> <Gold.Chemscore.Hbonds>
donor molecule, donor type, donor heavy atom, donor atom, acceptor molecule, acceptor atom, score
      L1  H    13    25       P1  7921  0.52

> <Gold.Chemscore.Hbond.Weighted>
-5.4414

> <Gold.Chemscore.Metal.Weighted>
-0.0000

> <Gold.Chemscore.Lipo.Weighted>
-6.6797

> <Gold.Chemscore.Internal_Hbond.Weighted>
0.0000

> <Gold.Chemscore.DEClash.Weighted>
0.0431

> <Gold.Chemscore.DEInternal.Weighted>
0.4700

> <Gold.Chemscore.Rot.Weighted>
2.5600

> <Gold.Chemscore.Internal.Correction.Weighted>
   9.000000E+99

> <Gold.Protein.RotatedTorsions>
[ 6907 6896 6895 6894 ] final   70.78 input  -60.11 | X-H torsion
[ 7974 7965 7964 7962 ] final   44.30 input  175.53 | X-H torsion
[ 8008 7997 7996 7995 ] final  176.90 input   59.86 | X-H torsion
[ 10167 10162 10161 10158 ] final -125.41 input  -65.29 | X-H torsion
[ 10718 10713 10712 10709 ] final  126.98 input   66.30 | X-H torsion
[ 10763 10752 10751 10750 ] final  122.46 input  -60.55 | X-H torsion
[ 11005 11000 10999 10996 ] final -122.22 input  -57.11 | X-H torsion

> <Gold.Protein.ActiveResidues>
 VAL166  LYS551  ARG553  GLY616  TRP617  ASP618  TYR619  PRO620  LYS621  CYS622 
 ASP623  PHE694  ASN695  SER759  ASP760  ASP761  ALA762  ILE779  LEU786  VAL792 
 PHE793  MET794  SER795  GLU796  ALA797  LYS798  CYS799  TRP800  GLU811  SER814 

> <Gold.Protein.RotatedAtoms>
  152.4770  134.4817  159.9667 H   0  0  0  0  0  0  0  0  0  0  0  0  # atno 6907 bound_to 6896
  151.4831  133.3536  159.2849 H   0  0  0  0  0  0  0  0  0  0  0  0  # atno 6908 bound_to 6896
  150.8816  134.8234  159.7290 H   0  0  0  0  0  0  0  0  0  0  0  0  # atno 6909 bound_to 6896
  146.0581  139.5090  142.9676 H   0  0  0  0  0  0  0  0  0  0  0  0  # atno 7974 bound_to 7965
  156.0715  140.1372  156.9823 H   0  0  0  0  0  0  0  0  0  0  0  0  # atno 8008 bound_to 7997
  154.4534  140.0971  156.6737 H   0  0  0  0  0  0  0  0  0  0  0  0  # atno 8009 bound_to 7997
  155.5221  140.3456  155.4411 H   0  0  0  0  0  0  0  0  0  0  0  0  # atno 8010 bound_to 7997
  139.9824  143.5728  152.2373 H   0  0  0  0  0  0  0  0  0  0  0  0  # atno 10167 bound_to 10162
  157.5372  131.1097  150.8916 H   0  0  0  0  0  0  0  0  0  0  0  0  # atno 10718 bound_to 10713
  153.6300  135.3398  155.3039 H   0  0  0  0  0  0  0  0  0  0  0  0  # atno 10763 bound_to 10752
  154.8582  135.4293  154.2115 H   0  0  0  0  0  0  0  0  0  0  0  0  # atno 10764 bound_to 10752
  153.3009  135.7024  153.7277 H   0  0  0  0  0  0  0  0  0  0  0  0  # atno 10765 bound_to 10752
  141.0012  134.0400  157.3535 H   0  0  0  0  0  0  0  0  0  0  0  0  # atno 11005 bound_to 11000
  145.6609  141.0241  143.1709 LP  0  0  0  0  0  0  0  0  0  0  0  0  # atno 17320 bound_to 7965
  144.7159  139.8199  143.7399 LP  0  0  0  0  0  0  0  0  0  0  0  0  # atno 17321 bound_to 7965
  139.6400  144.7654  151.2359 LP  0  0  0  0  0  0  0  0  0  0  0  0  # atno 17342 bound_to 10162
  140.7484  143.6334  150.8402 LP  0  0  0  0  0  0  0  0  0  0  0  0  # atno 17343 bound_to 10162
  156.9479  130.5409  149.5281 LP  0  0  0  0  0  0  0  0  0  0  0  0  # atno 17370 bound_to 10713
  156.0468  130.5543  150.8899 LP  0  0  0  0  0  0  0  0  0  0  0  0  # atno 17371 bound_to 10713
  139.9039  135.0174  156.7399 LP  0  0  0  0  0  0  0  0  0  0  0  0  # atno 17394 bound_to 11000
  140.6886  133.9410  155.7953 LP  0  0  0  0  0  0  0  0  0  0  0  0  # atno 17395 bound_to 11000

$$$$
