AV-unprocessed.smi:1295|AV-procd|sdf|5410|dock7
  -GOLD-   22720 4573D 1   1.00000     0.00000
 Structure written by MMmdl.
 42 43  0  0  0  0  0  0  0  0  2 V2000
  148.3838  141.3213  153.7648 C   0  0  0  0  0  0  0  0  0  0  0  0
  149.1779  140.7378  154.9137 C   0  0  0  0  0  0  0  0  0  0  0  0
  150.3522  140.2824  154.6938 N   0  0  0  0  0  0  0  0  0  0  0  0
  151.0954  139.7439  155.7577 C   0  0  0  0  0  0  0  0  0  0  0  0
  152.4833  139.2358  155.4063 C   0  0  0  0  0  0  0  0  0  0  0  0
  150.5846  139.6941  157.0216 C   0  0  0  0  0  0  0  0  0  0  0  0
  151.3588  139.1289  158.2121 C   0  0  0  0  0  0  0  0  0  0  0  0
  152.6092  139.9100  158.6215 C   0  0  0  0  0  0  0  0  0  0  0  0
  153.7194  139.3820  158.5633 O   0  0  0  0  0  0  0  0  0  0  0  0
  152.4079  141.1728  159.0288 N   0  0  0  0  0  0  0  0  0  0  0  0
  153.4411  142.1344  159.4169 C   0  0  1  0  0  0  0  0  0  0  0  0
  153.0528  143.5397  158.9149 C   0  0  0  0  0  0  0  0  0  0  0  0
  151.8476  144.1169  159.6783 C   0  0  0  0  0  0  0  0  0  0  0  0
  152.1011  144.1240  161.1933 C   0  0  0  0  0  0  0  0  0  0  0  0
  152.4708  142.7227  161.7059 C   0  0  0  0  0  0  0  0  0  0  0  0
  153.6829  142.1415  160.9484 C   0  0  1  0  0  0  0  0  0  0  0  0
  154.0902  140.7658  161.5031 C   0  0  0  0  0  0  0  0  0  0  0  0
  149.2241  140.2218  157.2310 C   0  0  0  0  0  0  0  0  0  0  0  0
  148.7091  140.1877  158.3479 O   0  0  0  0  0  0  0  0  0  0  0  0
  148.5725  140.7379  156.1500 N   0  5  0  0  0  0  0  0  0  0  0  0
  148.8657  141.1129  152.8085 H   0  0  0  0  0  0  0  0  0  0  0  0
  148.2989  142.4022  153.8780 H   0  0  0  0  0  0  0  0  0  0  0  0
  147.3803  140.8953  153.7402 H   0  0  0  0  0  0  0  0  0  0  0  0
  153.2455  139.8095  155.9336 H   0  0  0  0  0  0  0  0  0  0  0  0
  152.6769  139.3253  154.3367 H   0  0  0  0  0  0  0  0  0  0  0  0
  152.5889  138.1851  155.6759 H   0  0  0  0  0  0  0  0  0  0  0  0
  150.6769  139.0792  159.0618 H   0  0  0  0  0  0  0  0  0  0  0  0
  151.6497  138.0935  158.0339 H   0  0  0  0  0  0  0  0  0  0  0  0
  151.4556  141.5074  159.0491 H   0  0  0  0  0  0  0  0  0  0  0  0
  154.3793  141.8674  158.9276 H   0  0  0  0  0  0  0  0  0  0  0  0
  153.9045  144.2102  159.0362 H   0  0  0  0  0  0  0  0  0  0  0  0
  152.8401  143.5127  157.8454 H   0  0  0  0  0  0  0  0  0  0  0  0
  151.6403  145.1297  159.3322 H   0  0  0  0  0  0  0  0  0  0  0  0
  150.9545  143.5303  159.4592 H   0  0  0  0  0  0  0  0  0  0  0  0
  152.9063  144.8220  161.4254 H   0  0  0  0  0  0  0  0  0  0  0  0
  151.2167  144.4891  161.7162 H   0  0  0  0  0  0  0  0  0  0  0  0
  152.6898  142.7744  162.7729 H   0  0  0  0  0  0  0  0  0  0  0  0
  151.6127  142.0572  161.6021 H   0  0  0  0  0  0  0  0  0  0  0  0
  154.5254  142.8101  161.1318 H   0  0  0  0  0  0  0  0  0  0  0  0
  153.2808  140.0403  161.4194 H   0  0  0  0  0  0  0  0  0  0  0  0
  154.3605  140.8338  162.5571 H   0  0  0  0  0  0  0  0  0  0  0  0
  154.9520  140.3672  160.9672 H   0  0  0  0  0  0  0  0  0  0  0  0
  1  2  1  0  0  0  0
  1 21  1  0  0  0  0
  1 22  1  0  0  0  0
  1 23  1  0  0  0  0
  2 20  1  0  0  0  0
  2  3  2  0  0  0  0
  3  4  1  0  0  0  0
  4  5  1  0  0  0  0
  4  6  2  0  0  0  0
  5 24  1  0  0  0  0
  5 25  1  0  0  0  0
  5 26  1  0  0  0  0
  6  7  1  0  0  0  0
  6 18  1  0  0  0  0
  7  8  1  0  0  0  0
  7 27  1  0  0  0  0
  7 28  1  0  0  0  0
  8  9  2  0  0  0  0
  8 10  1  0  0  0  0
 10 11  1  0  0  0  0
 10 29  1  0  0  0  0
 11 16  1  0  0  0  0
 11 12  1  0  0  0  0
 11 30  1  0  0  0  0
 12 13  1  0  0  0  0
 12 31  1  0  0  0  0
 12 32  1  0  0  0  0
 13 14  1  0  0  0  0
 13 33  1  0  0  0  0
 13 34  1  0  0  0  0
 14 15  1  0  0  0  0
 14 35  1  0  0  0  0
 14 36  1  0  0  0  0
 15 16  1  0  0  0  0
 15 37  1  0  0  0  0
 15 38  1  0  0  0  0
 16 17  1  0  0  0  0
 16 39  1  0  0  0  0
 17 40  1  0  0  0  0
 17 41  1  0  0  0  0
 17 42  1  0  0  0  0
 18 19  2  0  0  0  0
 18 20  1  0  0  0  0
M  CHG  1  20  -1
M  END
> <s_m_source_file>
AV-unprocessed.smi

> <i_m_source_file_index>
1295

> <i_lp_mmshare_version>
43012

> <i_f3d_flags>
0

> <s_epik_input>
W0NIM11jMW5jKFtDSDNdKWMoYyg9TylbbkhdMSlbQ0gyXUMoPU8pW05IXVtDQEBIXTJbQ0gyXVtDSDJdW0NIMl1bQ0gyXVtDQEhdMltDSDNd

> <s_epik_cmdline>
J2VwaWtfcHl0aG9uJywgJy1waCcsICc3LjAnLCAnLXRuJywgJzgnLCAnLW1hJywgJzIwMCcsICctbWV0YWxfYmluZGluZycsICctaW1hZScsICc8aW5maWxlLm1hZT4nLCAnLW9tYWUnLCAnPG91dGZpbGUubWFlPic=

> <r_lp_tautomer_probability>
0.839158

> <r_epik_Ionization_Penalty>
6.67742

> <r_epik_Ionization_Penalty_Charging>
7.78154e-08

> <r_epik_Ionization_Penalty_Neutral>
6.67742

> <r_epik_State_Penalty>
4.51991

> <r_epik_Charging_Adjusted_Penalty>
4.51991

> <i_epik_Tot_Q>
-1

> <i_epik_Tot_abs_Q>
1

> <r_epik_Metal_State_Penalty>
0.853272

> <b_epik_Metal_Only>
1

> <s_lp_Force_Field>
OPLS_2005

> <r_lp_Energy>
15.7399

> <b_lp_Chiralities_Consistent>
1

> <s_lp_Variant>
AV-unprocessed.smi:1295-10

> <Gold.Version>
5.8.1

> <Gold.Id.Protein>
6NUR|6NUR_protein|mol2

> <Gold.PLP.Fitness>
49.3601

> <Gold.PLP.PLP>
-44.0952

> <Gold.PLP.part.hbond>
-3.0000

> <Gold.PLP.part.metal>
0.0000

> <Gold.PLP.part.buried>
-3.1843

> <Gold.PLP.part.nonpolar>
-37.6452

> <Gold.PLP.part.repulsive>
0.2553

> <Gold.PLP.ligand.clash>
0.0000

> <Gold.PLP.ligand.torsion>
0.3712

> <Gold.PLP.Chemscore.Hbond>
2.0000

> <Gold.PLP.Chemscore.CHOScore>
0.0000

> <Gold.PLP.Chemscore.Metal>
0.0000

> <Gold.Chemscore.Hbonds>
donor molecule, donor type, donor heavy atom, donor atom, acceptor molecule, acceptor atom, score
      P1  H  7989  7998       L1     3  1.00
      P1  H  7997  8009       L1     9  1.00

> <Gold.PLP.Chemscore.Internal.Correction>
0.0074

> <Gold.Rescore>
     Score         DG    S(hbond)    S(metal)    S(lipo)     H(rot)  DE(clash)    DE(int)     intcor
     18.52     -18.88       1.22        0.00     111.35       1.45       0.07       0.29       ----

> <Gold.Chemscore.Fitness>
18.5212

> <Gold.Chemscore.DG>
-18.8819

> <Gold.Chemscore.ZeroCoef>
-5.4800

> <Gold.Chemscore.Hbond>
1.2195

> <Gold.Chemscore.Metal>
0.0000

> <Gold.Chemscore.Lipo>
111.3502

> <Gold.Chemscore.Internal_Hbond>
0.0000

> <Gold.Chemscore.DEClash>
0.0717

> <Gold.Chemscore.DEInternal>
0.2889

> <Gold.Chemscore.Rot>
1.4450

> <Gold.Chemscore.Internal.Correction>
   9.000000E+99

> <Gold.Chemscore.Hbonds>
donor molecule, donor type, donor heavy atom, donor atom, acceptor molecule, acceptor atom, score
      P1  H  7989  7998       L1     3  0.49
      P1  H  7997  8009       L1     9  0.53

> <Gold.Chemscore.Hbond.Weighted>
-4.0732

> <Gold.Chemscore.Metal.Weighted>
-0.0000

> <Gold.Chemscore.Lipo.Weighted>
-13.0280

> <Gold.Chemscore.Internal_Hbond.Weighted>
0.0000

> <Gold.Chemscore.DEClash.Weighted>
0.0717

> <Gold.Chemscore.DEInternal.Weighted>
0.2889

> <Gold.Chemscore.Rot.Weighted>
3.6992

> <Gold.Chemscore.Internal.Correction.Weighted>
   9.000000E+99

> <Gold.Protein.RotatedTorsions>
[ 6907 6896 6895 6894 ] final  -67.58 input  -60.11 | X-H torsion
[ 7974 7965 7964 7962 ] final  122.78 input  175.53 | X-H torsion
[ 8008 7997 7996 7995 ] final  160.33 input   59.86 | X-H torsion
[ 10167 10162 10161 10158 ] final  128.75 input  -65.29 | X-H torsion
[ 10718 10713 10712 10709 ] final -140.36 input   66.30 | X-H torsion
[ 10763 10752 10751 10750 ] final  172.29 input  -60.55 | X-H torsion
[ 11005 11000 10999 10996 ] final -134.63 input  -57.11 | X-H torsion

> <Gold.Protein.ActiveResidues>
 VAL166  LYS551  ARG553  GLY616  TRP617  ASP618  TYR619  PRO620  LYS621  CYS622 
 ASP623  PHE694  ASN695  SER759  ASP760  ASP761  ALA762  ILE779  LEU786  VAL792 
 PHE793  MET794  SER795  GLU796  ALA797  LYS798  CYS799  TRP800  GLU811  SER814 

> <Gold.Protein.RotatedAtoms>
  150.7401  134.5860  159.5962 H   0  0  0  0  0  0  0  0  0  0  0  0  # atno 6907 bound_to 6896
  152.3261  134.7316  160.0310 H   0  0  0  0  0  0  0  0  0  0  0  0  # atno 6908 bound_to 6896
  151.7816  133.3314  159.3509 H   0  0  0  0  0  0  0  0  0  0  0  0  # atno 6909 bound_to 6896
  145.1035  139.3502  143.4799 H   0  0  0  0  0  0  0  0  0  0  0  0  # atno 7974 bound_to 7965
  156.2180  140.1807  156.7544 H   0  0  0  0  0  0  0  0  0  0  0  0  # atno 8008 bound_to 7997
  154.5821  140.0664  156.9147 H   0  0  0  0  0  0  0  0  0  0  0  0  # atno 8009 bound_to 7997
  155.2485  140.3327  155.4287 H   0  0  0  0  0  0  0  0  0  0  0  0  # atno 8010 bound_to 7997
  139.5512  144.6814  151.4319 H   0  0  0  0  0  0  0  0  0  0  0  0  # atno 10167 bound_to 10162
  156.3214  130.7536  151.1635 H   0  0  0  0  0  0  0  0  0  0  0  0  # atno 10718 bound_to 10713
  154.4240  135.2758  155.1957 H   0  0  0  0  0  0  0  0  0  0  0  0  # atno 10763 bound_to 10752
  154.3890  135.6070  153.5836 H   0  0  0  0  0  0  0  0  0  0  0  0  # atno 10764 bound_to 10752
  152.9834  135.5899  154.4541 H   0  0  0  0  0  0  0  0  0  0  0  0  # atno 10765 bound_to 10752
  140.8973  134.1736  157.4486 H   0  0  0  0  0  0  0  0  0  0  0  0  # atno 11005 bound_to 11000
  146.3529  140.0923  142.8612 LP  0  0  0  0  0  0  0  0  0  0  0  0  # atno 17320 bound_to 7965
  145.0928  140.9295  143.4759 LP  0  0  0  0  0  0  0  0  0  0  0  0  # atno 17321 bound_to 7965
  140.6774  143.8158  150.7077 LP  0  0  0  0  0  0  0  0  0  0  0  0  # atno 17342 bound_to 10162
  140.1601  143.4283  152.2073 LP  0  0  0  0  0  0  0  0  0  0  0  0  # atno 17343 bound_to 10162
  157.7412  131.0506  150.5110 LP  0  0  0  0  0  0  0  0  0  0  0  0  # atno 17370 bound_to 10713
  156.5263  130.4174  149.6224 LP  0  0  0  0  0  0  0  0  0  0  0  0  # atno 17371 bound_to 10713
  139.8737  134.9883  156.5408 LP  0  0  0  0  0  0  0  0  0  0  0  0  # atno 17394 bound_to 11000
  140.8274  133.8306  155.8952 LP  0  0  0  0  0  0  0  0  0  0  0  0  # atno 17395 bound_to 11000

$$$$
