AV-unprocessed.smi:72|AV-procd|sdf|698|dock2
  -GOLD-   2262017 13D 1   1.00000     0.00000
 Structure written by MMmdl.
 30 31  0  0  0  0  0  0  0  0  2 V2000
  146.4625  138.3630  151.1515 N   0  0  0  0  0  0  0  0  0  0  0  0
  146.9098  138.9447  152.3192 C   0  0  0  0  0  0  0  0  0  0  0  0
  147.8947  138.2827  153.0304 N   0  3  0  0  0  0  0  0  0  0  0  0
  148.4318  138.7097  154.1809 C   0  0  0  0  0  0  0  0  0  0  0  0
  148.0122  139.8439  154.7014 N   0  0  0  0  0  0  0  0  0  0  0  0
  148.5996  140.3546  155.9911 C   0  0  1  0  0  0  0  0  0  0  0  0
  149.2779  139.2940  156.5927 O   0  0  0  0  0  0  0  0  0  0  0  0
  150.5512  139.7362  157.0499 C   0  0  1  0  0  0  0  0  0  0  0  0
  151.5198  138.5526  157.2229 C   0  0  0  0  0  0  0  0  0  0  0  0
  152.8037  139.0203  157.5761 O   0  0  0  0  0  0  0  0  0  0  0  0
  150.9503  140.8248  156.0439 C   0  0  1  0  0  0  0  0  0  0  0  0
  151.5182  140.2539  154.8763 O   0  0  0  0  0  0  0  0  0  0  0  0
  149.6113  141.4982  155.7668 C   0  0  1  0  0  0  0  0  0  0  0  0
  149.5657  142.1317  154.4994 O   0  0  0  0  0  0  0  0  0  0  0  0
  147.0111  140.6008  154.0396 C   0  0  0  0  0  0  0  0  0  0  0  0
  146.6253  141.6722  154.5048 O   0  0  0  0  0  0  0  0  0  0  0  0
  146.5064  140.0687  152.8439 N   0  0  0  0  0  0  0  0  0  0  0  0
  147.7641  140.6414  156.6310 H   0  0  0  0  0  0  0  0  0  0  0  0
  150.3894  140.2063  158.0220 H   0  0  0  0  0  0  0  0  0  0  0  0
  151.6723  141.5239  156.4675 H   0  0  0  0  0  0  0  0  0  0  0  0
  149.4208  142.2472  156.5366 H   0  0  0  0  0  0  0  0  0  0  0  0
  145.7472  138.7746  150.5684 H   0  0  0  0  0  0  0  0  0  0  0  0
  146.8110  137.4888  150.7851 H   0  0  0  0  0  0  0  0  0  0  0  0
  149.1987  138.1195  154.6657 H   0  0  0  0  0  0  0  0  0  0  0  0
  151.1634  137.8960  158.0169 H   0  0  0  0  0  0  0  0  0  0  0  0
  151.5840  137.9482  156.3180 H   0  0  0  0  0  0  0  0  0  0  0  0
  152.8118  139.2108  158.5020 H   0  0  0  0  0  0  0  0  0  0  0  0
  151.1629  139.3840  154.7692 H   0  0  0  0  0  0  0  0  0  0  0  0
  149.2676  143.0204  154.6205 H   0  0  0  0  0  0  0  0  0  0  0  0
  148.2329  137.4104  152.6498 H   0  0  0  0  0  0  0  0  0  0  0  0
  1  2  1  0  0  0  0
  1 22  1  0  0  0  0
  1 23  1  0  0  0  0
  2 17  2  0  0  0  0
  2  3  1  0  0  0  0
  3  4  2  0  0  0  0
  3 30  1  0  0  0  0
  4  5  1  0  0  0  0
  4 24  1  0  0  0  0
  5  6  1  0  0  0  0
  5 15  1  0  0  0  0
  6 18  1  0  0  0  0
  6 13  1  0  0  0  0
  6  7  1  0  0  0  0
  7  8  1  0  0  0  0
  8 19  1  0  0  0  0
  8  9  1  0  0  0  0
  8 11  1  0  0  0  0
  9 10  1  0  0  0  0
  9 25  1  0  0  0  0
  9 26  1  0  0  0  0
 10 27  1  0  0  0  0
 11 20  1  0  0  0  0
 11 12  1  0  0  0  0
 11 13  1  0  0  0  0
 12 28  1  0  0  0  0
 13 21  1  0  0  0  0
 13 14  1  0  0  0  0
 14 29  1  0  0  0  0
 15 16  2  0  0  0  0
 15 17  1  0  0  0  0
M  CHG  1   3   1
M  END
> <s_m_source_file>
AV-unprocessed.smi

> <i_m_source_file_index>
72

> <i_lp_mmshare_version>
43012

> <i_f3d_flags>
0

> <s_epik_input>
W05IMl1jMW5bY0hdbihjKD1PKW4xKVtDQEBIXTJPW0NASF0oW0NIMl1bT0hdKVtDQEBIXShbT0hdKVtDQEhdMltPSF0=

> <s_epik_cmdline>
J2VwaWtfcHl0aG9uJywgJy1waCcsICc3LjAnLCAnLXRuJywgJzgnLCAnLW1hJywgJzIwMCcsICctbWV0YWxfYmluZGluZycsICctaW1hZScsICc8aW5maWxlLm1hZT4nLCAnLW9tYWUnLCAnPG91dGZpbGUubWFlPic=

> <r_lp_tautomer_probability>
4.77166e-05

> <r_epik_Ionization_Penalty>
0.104979

> <r_epik_Ionization_Penalty_Charging>
0.0999619

> <r_epik_Ionization_Penalty_Neutral>
0.00501745

> <r_epik_State_Penalty>
2.51541

> <r_epik_Charging_Adjusted_Penalty>
2.61537

> <i_epik_Tot_Q>
1

> <i_epik_Tot_abs_Q>
1

> <r_epik_Metal_State_Penalty>
3.53763

> <b_epik_Metal_Only>
0

> <s_epik_Chemistry_Notes>
This compound contains an acetal/aminal-like group ( X-CH(R)-Y where X, Y are N, S, or O) that may be acid/base labile, releasing an aldehyde.

> <s_lp_Force_Field>
OPLS_2005

> <r_lp_Energy>
38.8596

> <b_lp_Chiralities_Consistent>
1

> <s_lp_Variant>
AV-unprocessed.smi:72-36

> <Gold.Version>
5.8.1

> <Gold.Id.Protein>
6NUR|6NUR_protein|mol2

> <Gold.PLP.Fitness>
36.3300

> <Gold.PLP.PLP>
-18.9706

> <Gold.PLP.part.hbond>
-7.5297

> <Gold.PLP.part.metal>
0.0000

> <Gold.PLP.part.buried>
-2.1245

> <Gold.PLP.part.nonpolar>
-12.2296

> <Gold.PLP.part.repulsive>
1.9140

> <Gold.PLP.ligand.clash>
0.0000

> <Gold.PLP.ligand.torsion>
0.4210

> <Gold.PLP.Chemscore.Hbond>
6.0586

> <Gold.PLP.Chemscore.CHOScore>
0.0000

> <Gold.PLP.Chemscore.Metal>
0.0000

> <Gold.Chemscore.Hbonds>
donor molecule, donor type, donor heavy atom, donor atom, acceptor molecule, acceptor atom, score
      L1  H     1    22       P1 10171  0.96
      L1  H     3    30       P1  7948  2.00
      L1  H    14    29       P1  8028  1.00
      P1  H  7989  7998       L1    12  0.94
      P1  H  7997  8009       L1    10  0.81
      P1  H  8011  8017       L1    14  0.09

> <Gold.PLP.Chemscore.Internal.Correction>
0.0254

> <Gold.Rescore>
     Score         DG    S(hbond)    S(metal)    S(lipo)     H(rot)  DE(clash)    DE(int)     intcor
     10.14     -12.01       4.32        0.00      21.78       4.08       1.22       0.65       ----

> <Gold.Chemscore.Fitness>
10.1409

> <Gold.Chemscore.DG>
-12.0083

> <Gold.Chemscore.ZeroCoef>
-5.4800

> <Gold.Chemscore.Hbond>
4.3176

> <Gold.Chemscore.Metal>
0.0000

> <Gold.Chemscore.Lipo>
21.7762

> <Gold.Chemscore.Internal_Hbond>
0.0000

> <Gold.Chemscore.DEClash>
1.2209

> <Gold.Chemscore.DEInternal>
0.6465

> <Gold.Chemscore.Rot>
4.0783

> <Gold.Chemscore.Internal.Correction>
   9.000000E+99

> <Gold.Chemscore.Hbonds>
donor molecule, donor type, donor heavy atom, donor atom, acceptor molecule, acceptor atom, score
      L1  H     1    22       P1 10171  0.88
      L1  H     3    30       P1  7948  0.97
      L1  H    14    29       P1  8028  0.94
      P1  H  7989  7998       L1    12  0.56
      P1  H  7997  8009       L1    10  0.24
      P1  H  8011  8017       L1    14  0.01

> <Gold.Chemscore.Hbond.Weighted>
-14.4209

> <Gold.Chemscore.Metal.Weighted>
-0.0000

> <Gold.Chemscore.Lipo.Weighted>
-2.5478

> <Gold.Chemscore.Internal_Hbond.Weighted>
0.0000

> <Gold.Chemscore.DEClash.Weighted>
1.2209

> <Gold.Chemscore.DEInternal.Weighted>
0.6465

> <Gold.Chemscore.Rot.Weighted>
10.4404

> <Gold.Chemscore.Internal.Correction.Weighted>
   9.000000E+99

> <Gold.Protein.RotatedTorsions>
[ 6907 6896 6895 6894 ] final -155.43 input  -60.11 | X-H torsion
[ 7974 7965 7964 7962 ] final -160.98 input  175.53 | X-H torsion
[ 8008 7997 7996 7995 ] final  158.43 input   59.86 | X-H torsion
[ 10167 10162 10161 10158 ] final  -25.82 input  -65.29 | X-H torsion
[ 10718 10713 10712 10709 ] final  156.12 input   66.30 | X-H torsion
[ 10763 10752 10751 10750 ] final  122.13 input  -60.55 | X-H torsion
[ 11005 11000 10999 10996 ] final -139.17 input  -57.11 | X-H torsion

> <Gold.Protein.ActiveResidues>
 VAL166  LYS551  ARG553  GLY616  TRP617  ASP618  TYR619  PRO620  LYS621  CYS622 
 ASP623  PHE694  ASN695  SER759  ASP760  ASP761  ALA762  ILE779  LEU786  VAL792 
 PHE793  MET794  SER795  GLU796  ALA797  LYS798  CYS799  TRP800  GLU811  SER814 

> <Gold.Protein.RotatedAtoms>
  151.2724  133.4248  159.2621 H   0  0  0  0  0  0  0  0  0  0  0  0  # atno 6907 bound_to 6896
  151.0433  134.9622  159.8183 H   0  0  0  0  0  0  0  0  0  0  0  0  # atno 6908 bound_to 6896
  152.5369  134.2682  159.9014 H   0  0  0  0  0  0  0  0  0  0  0  0  # atno 6909 bound_to 6896
  144.7407  140.3463  143.6124 H   0  0  0  0  0  0  0  0  0  0  0  0  # atno 7974 bound_to 7965
  156.2303  140.1858  156.7259 H   0  0  0  0  0  0  0  0  0  0  0  0  # atno 8008 bound_to 7997
  154.6011  140.0636  156.9397 H   0  0  0  0  0  0  0  0  0  0  0  0  # atno 8009 bound_to 7997
  155.2172  140.3304  155.4323 H   0  0  0  0  0  0  0  0  0  0  0  0  # atno 8010 bound_to 7997
  140.7285  143.4232  151.0918 H   0  0  0  0  0  0  0  0  0  0  0  0  # atno 10167 bound_to 10162
  157.2092  131.0693  151.1980 H   0  0  0  0  0  0  0  0  0  0  0  0  # atno 10718 bound_to 10713
  153.6250  135.3406  155.3023 H   0  0  0  0  0  0  0  0  0  0  0  0  # atno 10763 bound_to 10752
  154.8592  135.4282  154.2167 H   0  0  0  0  0  0  0  0  0  0  0  0  # atno 10764 bound_to 10752
  153.3049  135.7027  153.7242 H   0  0  0  0  0  0  0  0  0  0  0  0  # atno 10765 bound_to 10752
  140.8545  134.2244  157.4742 H   0  0  0  0  0  0  0  0  0  0  0  0  # atno 11005 bound_to 11000
  145.7322  139.1739  143.2424 LP  0  0  0  0  0  0  0  0  0  0  0  0  # atno 17320 bound_to 7965
  146.1198  140.7324  142.9463 LP  0  0  0  0  0  0  0  0  0  0  0  0  # atno 17321 bound_to 7965
  139.7880  143.8259  152.3148 LP  0  0  0  0  0  0  0  0  0  0  0  0  # atno 17342 bound_to 10162
  139.8233  144.7286  150.9544 LP  0  0  0  0  0  0  0  0  0  0  0  0  # atno 17343 bound_to 10162
  157.3690  130.7171  149.6552 LP  0  0  0  0  0  0  0  0  0  0  0  0  # atno 17370 bound_to 10713
  155.9692  130.4204  150.4421 LP  0  0  0  0  0  0  0  0  0  0  0  0  # atno 17371 bound_to 10713
  139.8705  134.9700  156.4685 LP  0  0  0  0  0  0  0  0  0  0  0  0  # atno 17394 bound_to 11000
  140.8752  133.7958  155.9407 LP  0  0  0  0  0  0  0  0  0  0  0  0  # atno 17395 bound_to 11000

$$$$
