AV-unprocessed.smi:2470|AV-procd|sdf|9736|dock9
  -GOLD-   2272013373D 1   1.00000     0.00000
 Structure written by MMmdl.
 33 34  0  0  0  0  0  0  0  0  1 V2000
  154.1524  136.7088  156.6866 C   0  0  0  0  0  0  0  0  0  0  0  0
  153.3026  136.5811  155.5522 O   0  0  0  0  0  0  0  0  0  0  0  0
  152.4776  137.6398  155.2341 C   0  0  0  0  0  0  0  0  0  0  0  0
  152.4742  138.7840  156.0576 C   0  0  0  0  0  0  0  0  0  0  0  0
  151.6165  139.8467  155.6953 C   0  0  0  0  0  0  0  0  0  0  0  0
  151.6489  140.9825  156.5470 N   0  0  0  0  0  0  0  0  0  0  0  0
  152.0622  141.0492  157.8248 C   0  0  0  0  0  0  0  0  0  0  0  0
  152.5214  140.1093  158.4741 O   0  0  0  0  0  0  0  0  0  0  0  0
  151.9153  142.2887  158.3165 N   0  0  0  0  0  0  0  0  0  0  0  0
  152.2574  142.7109  159.6715 C   0  0  1  0  0  0  0  0  0  0  0  0
  153.6696  142.2193  160.0263 C   0  0  0  0  0  0  0  0  0  0  0  0
  152.1446  144.2123  159.8554 C   0  0  0  0  0  0  0  0  0  0  0  0
  150.8310  144.8550  160.2311 C   0  0  0  0  0  0  0  0  0  0  0  0
  151.4115  145.0684  158.8510 C   0  0  0  0  0  0  0  0  0  0  0  0
  150.8355  139.7398  154.5918 N   0  0  0  0  0  0  0  0  0  0  0  0
  150.9112  138.6144  153.8790 C   0  0  0  0  0  0  0  0  0  0  0  0
  151.6869  137.5609  154.1366 N   0  0  0  0  0  0  0  0  0  0  0  0
  154.7428  135.7996  156.7990 H   0  0  0  0  0  0  0  0  0  0  0  0
  153.5756  136.8445  157.6026 H   0  0  0  0  0  0  0  0  0  0  0  0
  154.8473  137.5423  156.5742 H   0  0  0  0  0  0  0  0  0  0  0  0
  153.1083  138.8392  156.9305 H   0  0  0  0  0  0  0  0  0  0  0  0
  151.3094  141.8411  156.1396 H   0  0  0  0  0  0  0  0  0  0  0  0
  151.5300  142.9963  157.7086 H   0  0  0  0  0  0  0  0  0  0  0  0
  151.5560  142.2481  160.3688 H   0  0  0  0  0  0  0  0  0  0  0  0
  153.9393  142.5028  161.0442 H   0  0  0  0  0  0  0  0  0  0  0  0
  154.4176  142.6419  159.3548 H   0  0  0  0  0  0  0  0  0  0  0  0
  153.7391  141.1330  159.9618 H   0  0  0  0  0  0  0  0  0  0  0  0
  153.0286  144.6620  160.3043 H   0  0  0  0  0  0  0  0  0  0  0  0
  149.9563  144.2128  160.3137 H   0  0  0  0  0  0  0  0  0  0  0  0
  150.8627  145.6921  160.9257 H   0  0  0  0  0  0  0  0  0  0  0  0
  151.8295  146.0475  158.6259 H   0  0  0  0  0  0  0  0  0  0  0  0
  150.9220  144.5678  158.0177 H   0  0  0  0  0  0  0  0  0  0  0  0
  150.2808  138.5502  153.0045 H   0  0  0  0  0  0  0  0  0  0  0  0
  1  2  1  0  0  0  0
  1 18  1  0  0  0  0
  1 19  1  0  0  0  0
  1 20  1  0  0  0  0
  2  3  1  0  0  0  0
  3 17  1  0  0  0  0
  3  4  2  0  0  0  0
  4  5  1  0  0  0  0
  4 21  1  0  0  0  0
  5  6  1  0  0  0  0
  5 15  2  0  0  0  0
  6  7  1  0  0  0  0
  6 22  1  0  0  0  0
  7  8  2  0  0  0  0
  7  9  1  0  0  0  0
  9 10  1  0  0  0  0
  9 23  1  0  0  0  0
 10 11  1  0  0  0  0
 10 12  1  0  0  0  0
 10 24  1  0  0  0  0
 11 25  1  0  0  0  0
 11 26  1  0  0  0  0
 11 27  1  0  0  0  0
 12 14  1  0  0  0  0
 12 13  1  0  0  0  0
 12 28  1  0  0  0  0
 13 14  1  0  0  0  0
 13 29  1  0  0  0  0
 13 30  1  0  0  0  0
 14 31  1  0  0  0  0
 14 32  1  0  0  0  0
 15 16  1  0  0  0  0
 16 17  2  0  0  0  0
 16 33  1  0  0  0  0
M  END
> <s_m_source_file>
AV-unprocessed.smi

> <i_m_source_file_index>
2470

> <i_lp_mmshare_version>
43012

> <i_f3d_flags>
0

> <s_epik_input>
W0NIM11PYzFbY0hdYyhuW2NIXW4xKVtOSF1DKD1PKVtOSF1bQ0BIXShbQ0gzXSlbQ0hdMltDSDJdW0NIMl0y

> <s_epik_cmdline>
J2VwaWtfcHl0aG9uJywgJy1waCcsICc3LjAnLCAnLXRuJywgJzgnLCAnLW1hJywgJzIwMCcsICctbWV0YWxfYmluZGluZycsICctaW1hZScsICc8aW5maWxlLm1hZT4nLCAnLW9tYWUnLCAnPG91dGZpbGUubWFlPic=

> <r_lp_tautomer_probability>
1

> <r_epik_Ionization_Penalty>
2.81207e-05

> <r_epik_Ionization_Penalty_Charging>
0

> <r_epik_Ionization_Penalty_Neutral>
2.81207e-05

> <r_epik_State_Penalty>
-0

> <r_epik_Charging_Adjusted_Penalty>
0

> <i_epik_Tot_Q>
0

> <i_epik_Tot_abs_Q>
0

> <r_epik_Metal_State_Penalty>
-0

> <b_epik_Metal_Only>
0

> <s_lp_Force_Field>
OPLS_2005

> <r_lp_Energy>
11.1381

> <b_lp_Chiralities_Consistent>
1

> <s_lp_Variant>
AV-unprocessed.smi:2470-2

> <Gold.Version>
5.8.1

> <Gold.Id.Protein>
6NUR|6NUR_protein|mol2

> <Gold.PLP.Fitness>
42.8069

> <Gold.PLP.PLP>
-33.9036

> <Gold.PLP.part.hbond>
-2.0000

> <Gold.PLP.part.metal>
0.0000

> <Gold.PLP.part.buried>
-5.9267

> <Gold.PLP.part.nonpolar>
-27.5396

> <Gold.PLP.part.repulsive>
0.4843

> <Gold.PLP.ligand.clash>
0.2918

> <Gold.PLP.ligand.torsion>
1.1463

> <Gold.PLP.Chemscore.Hbond>
2.0000

> <Gold.PLP.Chemscore.CHOScore>
1.4726

> <Gold.PLP.Chemscore.Metal>
0.0000

> <Gold.Chemscore.Hbonds>
donor molecule, donor type, donor heavy atom, donor atom, acceptor molecule, acceptor atom, score
      P1  H  7989  7998       L1    15  1.00
      P1  H 10752 10765       L1     2  0.08
      L1  C    16    33       P1  7948  0.19
      L1  C    16    33       P1  7957  1.00

> <Gold.PLP.Chemscore.Internal.Correction>
1.0700

> <Gold.Rescore>
     Score         DG    S(hbond)    S(metal)    S(lipo)     H(rot)  DE(clash)    DE(int)     intcor
      9.06     -11.91       0.76        0.00      68.57       1.61       0.15       2.70       ----

> <Gold.Chemscore.Fitness>
9.0636

> <Gold.Chemscore.DG>
-11.9121

> <Gold.Chemscore.ZeroCoef>
-5.4800

> <Gold.Chemscore.Hbond>
0.7584

> <Gold.Chemscore.Metal>
0.0000

> <Gold.Chemscore.Lipo>
68.5723

> <Gold.Chemscore.Internal_Hbond>
0.0000

> <Gold.Chemscore.DEClash>
0.1463

> <Gold.Chemscore.DEInternal>
2.7022

> <Gold.Chemscore.Rot>
1.6109

> <Gold.Chemscore.Internal.Correction>
   9.000000E+99

> <Gold.Chemscore.Hbonds>
donor molecule, donor type, donor heavy atom, donor atom, acceptor molecule, acceptor atom, score
      P1  H  7989  7998       L1    15  0.08
      P1  H 10752 10765       L1     2  0.07

> <Gold.Chemscore.Hbond.Weighted>
-2.5331

> <Gold.Chemscore.Metal.Weighted>
-0.0000

> <Gold.Chemscore.Lipo.Weighted>
-8.0230

> <Gold.Chemscore.Internal_Hbond.Weighted>
0.0000

> <Gold.Chemscore.DEClash.Weighted>
0.1463

> <Gold.Chemscore.DEInternal.Weighted>
2.7022

> <Gold.Chemscore.Rot.Weighted>
4.1240

> <Gold.Chemscore.Internal.Correction.Weighted>
   9.000000E+99

> <Gold.Protein.RotatedTorsions>
[ 6907 6896 6895 6894 ] final -107.38 input  -60.11 | X-H torsion
[ 7974 7965 7964 7962 ] final  164.01 input  175.53 | X-H torsion
[ 8008 7997 7996 7995 ] final -161.21 input   59.86 | X-H torsion
[ 10167 10162 10161 10158 ] final   77.76 input  -65.29 | X-H torsion
[ 10718 10713 10712 10709 ] final -140.01 input   66.30 | X-H torsion
[ 10763 10752 10751 10750 ] final -168.35 input  -60.55 | X-H torsion
[ 11005 11000 10999 10996 ] final   19.22 input  -57.11 | X-H torsion

> <Gold.Protein.ActiveResidues>
 VAL166  LYS551  ARG553  GLY616  TRP617  ASP618  TYR619  PRO620  LYS621  CYS622 
 ASP623  PHE694  ASN695  SER759  ASP760  ASP761  ALA762  ILE779  LEU786  VAL792 
 PHE793  MET794  SER795  GLU796  ALA797  LYS798  CYS799  TRP800  GLU811  SER814 

> <Gold.Protein.RotatedAtoms>
  150.7441  133.9836  159.3583 H   0  0  0  0  0  0  0  0  0  0  0  0  # atno 6907 bound_to 6896
  151.7778  135.0767  160.0379 H   0  0  0  0  0  0  0  0  0  0  0  0  # atno 6908 bound_to 6896
  152.3294  133.5905  159.5835 H   0  0  0  0  0  0  0  0  0  0  0  0  # atno 6909 bound_to 6896
  144.7564  139.8265  143.6348 H   0  0  0  0  0  0  0  0  0  0  0  0  # atno 7974 bound_to 7965
  155.7889  140.0875  157.2020 H   0  0  0  0  0  0  0  0  0  0  0  0  # atno 8008 bound_to 7997
  154.3986  140.1494  156.3197 H   0  0  0  0  0  0  0  0  0  0  0  0  # atno 8009 bound_to 7997
  155.8579  140.3431  155.5739 H   0  0  0  0  0  0  0  0  0  0  0  0  # atno 8010 bound_to 7997
  139.9781  144.5846  150.7925 H   0  0  0  0  0  0  0  0  0  0  0  0  # atno 10167 bound_to 10162
  156.3174  130.7515  151.1605 H   0  0  0  0  0  0  0  0  0  0  0  0  # atno 10718 bound_to 10713
  154.6638  135.2929  154.9832 H   0  0  0  0  0  0  0  0  0  0  0  0  # atno 10763 bound_to 10752
  154.0883  135.6594  153.4852 H   0  0  0  0  0  0  0  0  0  0  0  0  # atno 10764 bound_to 10752
  153.0445  135.5214  154.7601 H   0  0  0  0  0  0  0  0  0  0  0  0  # atno 10765 bound_to 10752
  140.4161  134.1568  155.7670 H   0  0  0  0  0  0  0  0  0  0  0  0  # atno 11005 bound_to 11000
  146.1578  139.4682  143.0007 LP  0  0  0  0  0  0  0  0  0  0  0  0  # atno 17320 bound_to 7965
  145.6766  141.0202  143.1629 LP  0  0  0  0  0  0  0  0  0  0  0  0  # atno 17321 bound_to 7965
  140.7498  143.2945  151.3240 LP  0  0  0  0  0  0  0  0  0  0  0  0  # atno 17342 bound_to 10162
  139.6430  144.0504  152.2569 LP  0  0  0  0  0  0  0  0  0  0  0  0  # atno 17343 bound_to 10162
  157.7404  131.0517  150.5166 LP  0  0  0  0  0  0  0  0  0  0  0  0  # atno 17370 bound_to 10713
  156.5313  130.4185  149.6200 LP  0  0  0  0  0  0  0  0  0  0  0  0  # atno 17371 bound_to 10713
  141.1802  133.8429  157.1283 LP  0  0  0  0  0  0  0  0  0  0  0  0  # atno 17394 bound_to 11000
  140.0233  134.9935  157.0636 LP  0  0  0  0  0  0  0  0  0  0  0  0  # atno 17395 bound_to 11000

$$$$
