AV-unprocessed.smi:1965|AV-procd|sdf|7936|dock10
  -GOLD-   2272010103D 1   1.00000     0.00000
 Structure written by MMmdl.
 37 39  0  0  0  0  0  0  0  0  2 V2000
  149.7604  141.2857  158.7452 O   0  0  0  0  0  0  0  0  0  0  0  0
  150.4394  141.9526  157.9668 C   0  0  0  0  0  0  0  0  0  0  0  0
  151.4517  142.7273  158.4100 N   0  0  0  0  0  0  0  0  0  0  0  0
  151.9506  142.9571  159.7249 C   0  0  0  0  0  0  0  0  0  0  0  0
  152.6552  142.0751  160.4460 N   0  0  0  0  0  0  0  0  0  0  0  0
  153.0307  142.5904  161.6894 C   0  0  0  0  0  0  0  0  0  0  0  0
  152.6092  143.8796  161.8984 C   0  0  0  0  0  0  0  0  0  0  0  0
  151.7207  144.5012  160.5335 S   0  0  0  0  0  0  0  0  0  0  0  0
  150.2267  141.9609  156.6401 N   0  0  0  0  0  0  0  0  0  0  0  0
  149.1614  141.2468  155.9403 C   0  0  2  0  0  0  0  0  0  0  0  0
  149.2007  141.4593  154.4143 C   0  0  0  0  0  0  0  0  0  0  0  0
  147.7359  141.6559  154.0107 C   0  0  0  0  0  0  0  0  0  0  0  0
  147.1602  142.3274  155.1814 N   0  3  1  0  0  0  0  0  0  0  0  0
  145.6921  142.4648  155.2659 C   0  0  0  0  0  0  0  0  0  0  0  0
  145.3543  143.3559  156.4806 C   0  0  0  0  0  0  0  0  0  0  0  0
  146.0246  142.8542  157.7798 C   0  0  0  0  0  0  0  0  0  0  0  0
  147.5364  142.6076  157.5867 C   0  0  0  0  0  0  0  0  0  0  0  0
  147.7422  141.6846  156.3719 C   0  0  2  0  0  0  0  0  0  0  0  0
  151.9941  143.1651  157.6792 H   0  0  0  0  0  0  0  0  0  0  0  0
  153.6001  141.9697  162.3654 H   0  0  0  0  0  0  0  0  0  0  0  0
  152.7696  144.4998  162.7680 H   0  0  0  0  0  0  0  0  0  0  0  0
  150.8377  142.5348  156.0762 H   0  0  0  0  0  0  0  0  0  0  0  0
  149.2623  140.1765  156.1309 H   0  0  0  0  0  0  0  0  0  0  0  0
  149.7641  142.3617  154.1710 H   0  0  0  0  0  0  0  0  0  0  0  0
  149.6693  140.6284  153.8863 H   0  0  0  0  0  0  0  0  0  0  0  0
  147.6238  142.2494  153.1028 H   0  0  0  0  0  0  0  0  0  0  0  0
  147.2463  140.6927  153.8597 H   0  0  0  0  0  0  0  0  0  0  0  0
  145.3111  142.9174  154.3499 H   0  0  0  0  0  0  0  0  0  0  0  0
  145.2270  141.4826  155.3612 H   0  0  0  0  0  0  0  0  0  0  0  0
  145.6906  144.3741  156.2797 H   0  0  0  0  0  0  0  0  0  0  0  0
  144.2734  143.4121  156.6145 H   0  0  0  0  0  0  0  0  0  0  0  0
  145.8618  143.5704  158.5856 H   0  0  0  0  0  0  0  0  0  0  0  0
  145.5466  141.9255  158.0936 H   0  0  0  0  0  0  0  0  0  0  0  0
  148.0536  143.5564  157.4363 H   0  0  0  0  0  0  0  0  0  0  0  0
  147.9548  142.1560  158.4866 H   0  0  0  0  0  0  0  0  0  0  0  0
  147.1818  140.7646  156.5533 H   0  0  0  0  0  0  0  0  0  0  0  0
  147.5343  143.2654  155.1616 H   0  0  0  0  0  0  0  0  0  0  0  0
  1  2  2  0  0  0  0
  2  3  1  0  0  0  0
  2  9  1  0  0  0  0
  3  4  1  0  0  0  0
  3 19  1  0  0  0  0
  4  8  1  0  0  0  0
  4  5  2  0  0  0  0
  5  6  1  0  0  0  0
  6  7  2  0  0  0  0
  6 20  1  0  0  0  0
  7  8  1  0  0  0  0
  7 21  1  0  0  0  0
  9 10  1  0  0  0  0
  9 22  1  0  0  0  0
 10 18  1  0  0  0  0
 10 11  1  0  0  0  0
 10 23  1  0  0  0  0
 11 12  1  0  0  0  0
 11 24  1  0  0  0  0
 11 25  1  0  0  0  0
 12 13  1  0  0  0  0
 12 26  1  0  0  0  0
 12 27  1  0  0  0  0
 13 18  1  0  0  0  0
 13 14  1  0  0  0  0
 13 37  1  0  0  0  0
 14 15  1  0  0  0  0
 14 28  1  0  0  0  0
 14 29  1  0  0  0  0
 15 16  1  0  0  0  0
 15 30  1  0  0  0  0
 15 31  1  0  0  0  0
 16 17  1  0  0  0  0
 16 32  1  0  0  0  0
 16 33  1  0  0  0  0
 17 18  1  0  0  0  0
 17 34  1  0  0  0  0
 17 35  1  0  0  0  0
 18 36  1  0  0  0  0
M  CHG  1  13   1
M  END
> <s_m_source_file>
AV-unprocessed.smi

> <i_m_source_file_index>
1965

> <i_lp_mmshare_version>
43012

> <i_f3d_flags>
0

> <s_epik_input>
czFbY0hdW2NIXW5jMVtOSF1DKD1PKVtOSF1bQ0BIXShbQ0gyXVtDSDJdMilbQ0BASF0oTjIzKVtDSDJdW0NIMl1bQ0gyXVtDSDJdMw==

> <s_epik_cmdline>
J2VwaWtfcHl0aG9uJywgJy1waCcsICc3LjAnLCAnLXRuJywgJzgnLCAnLW1hJywgJzIwMCcsICctbWV0YWxfYmluZGluZycsICctaW1hZScsICc8aW5maWxlLm1hZT4nLCAnLW9tYWUnLCAnPG91dGZpbGUubWFlPic=

> <r_lp_tautomer_probability>
1

> <r_epik_Ionization_Penalty>
0.00125962

> <r_epik_Ionization_Penalty_Charging>
0.00107044

> <r_epik_Ionization_Penalty_Neutral>
0.000189176

> <r_epik_State_Penalty>
-0

> <r_epik_Charging_Adjusted_Penalty>
0.00107044

> <i_epik_Tot_Q>
1

> <i_epik_Tot_abs_Q>
1

> <r_epik_Metal_State_Penalty>
0.0179285

> <b_epik_Metal_Only>
0

> <s_lp_Force_Field>
OPLS_2005

> <r_lp_Energy>
42.3256

> <b_lp_Chiralities_Consistent>
1

> <s_lp_Variant>
AV-unprocessed.smi:1965-5

> <Gold.Version>
5.8.1

> <Gold.Id.Protein>
6NUR|6NUR_protein|mol2

> <Gold.PLP.Fitness>
37.7433

> <Gold.PLP.PLP>
-33.0913

> <Gold.PLP.part.hbond>
-2.3320

> <Gold.PLP.part.metal>
0.0000

> <Gold.PLP.part.buried>
-3.3186

> <Gold.PLP.part.nonpolar>
-26.6980

> <Gold.PLP.part.repulsive>
0.1974

> <Gold.PLP.ligand.clash>
0.0000

> <Gold.PLP.ligand.torsion>
0.6744

> <Gold.PLP.Chemscore.Hbond>
2.0000

> <Gold.PLP.Chemscore.CHOScore>
0.0000

> <Gold.PLP.Chemscore.Metal>
0.0000

> <Gold.Chemscore.Hbonds>
donor molecule, donor type, donor heavy atom, donor atom, acceptor molecule, acceptor atom, score
      L1  H    13    37       P1  8028  2.00

> <Gold.PLP.Chemscore.Internal.Correction>
0.0009

> <Gold.Rescore>
     Score         DG    S(hbond)    S(metal)    S(lipo)     H(rot)  DE(clash)    DE(int)     intcor
     11.92     -12.85       0.46        0.00      71.89       1.00       0.25       0.68       ----

> <Gold.Chemscore.Fitness>
11.9181

> <Gold.Chemscore.DG>
-12.8536

> <Gold.Chemscore.ZeroCoef>
-5.4800

> <Gold.Chemscore.Hbond>
0.4559

> <Gold.Chemscore.Metal>
0.0000

> <Gold.Chemscore.Lipo>
71.8888

> <Gold.Chemscore.Internal_Hbond>
0.0000

> <Gold.Chemscore.DEClash>
0.2514

> <Gold.Chemscore.DEInternal>
0.6841

> <Gold.Chemscore.Rot>
1.0000

> <Gold.Chemscore.Internal.Correction>
   9.000000E+99

> <Gold.Chemscore.Hbonds>
donor molecule, donor type, donor heavy atom, donor atom, acceptor molecule, acceptor atom, score
      L1  H    13    37       P1  8028  0.24

> <Gold.Chemscore.Hbond.Weighted>
-1.5226

> <Gold.Chemscore.Metal.Weighted>
-0.0000

> <Gold.Chemscore.Lipo.Weighted>
-8.4110

> <Gold.Chemscore.Internal_Hbond.Weighted>
0.0000

> <Gold.Chemscore.DEClash.Weighted>
0.2514

> <Gold.Chemscore.DEInternal.Weighted>
0.6841

> <Gold.Chemscore.Rot.Weighted>
2.5600

> <Gold.Chemscore.Internal.Correction.Weighted>
   9.000000E+99

> <Gold.Protein.RotatedTorsions>
[ 6907 6896 6895 6894 ] final  -73.43 input  -60.11 | X-H torsion
[ 7974 7965 7964 7962 ] final   29.68 input  175.53 | X-H torsion
[ 8008 7997 7996 7995 ] final  -63.95 input   59.86 | X-H torsion
[ 10167 10162 10161 10158 ] final -115.69 input  -65.29 | X-H torsion
[ 10718 10713 10712 10709 ] final   63.04 input   66.30 | X-H torsion
[ 10763 10752 10751 10750 ] final  175.18 input  -60.55 | X-H torsion
[ 11005 11000 10999 10996 ] final -112.66 input  -57.11 | X-H torsion

> <Gold.Protein.ActiveResidues>
 VAL166  LYS551  ARG553  GLY616  TRP617  ASP618  TYR619  PRO620  LYS621  CYS622 
 ASP623  PHE694  ASN695  SER759  ASP760  ASP761  ALA762  ILE779  LEU786  VAL792 
 PHE793  MET794  SER795  GLU796  ALA797  LYS798  CYS799  TRP800  GLU811  SER814 

> <Gold.Protein.RotatedAtoms>
  150.7130  134.5017  159.5564 H   0  0  0  0  0  0  0  0  0  0  0  0  # atno 6907 bound_to 6896
  152.2613  134.8028  160.0439 H   0  0  0  0  0  0  0  0  0  0  0  0  # atno 6908 bound_to 6896
  151.8741  133.3446  159.3781 H   0  0  0  0  0  0  0  0  0  0  0  0  # atno 6909 bound_to 6896
  146.1657  139.6889  142.9003 H   0  0  0  0  0  0  0  0  0  0  0  0  # atno 7974 bound_to 7965
  154.4583  140.0964  156.6821 H   0  0  0  0  0  0  0  0  0  0  0  0  # atno 8008 bound_to 7997
  155.5070  140.3475  155.4363 H   0  0  0  0  0  0  0  0  0  0  0  0  # atno 8009 bound_to 7997
  156.0821  140.1376  156.9687 H   0  0  0  0  0  0  0  0  0  0  0  0  # atno 8010 bound_to 7997
  140.0873  143.4732  152.1890 H   0  0  0  0  0  0  0  0  0  0  0  0  # atno 10167 bound_to 10162
  157.5944  130.9084  149.9665 H   0  0  0  0  0  0  0  0  0  0  0  0  # atno 10718 bound_to 10713
  154.4640  135.2768  155.1691 H   0  0  0  0  0  0  0  0  0  0  0  0  # atno 10763 bound_to 10752
  154.3467  135.6158  153.5626 H   0  0  0  0  0  0  0  0  0  0  0  0  # atno 10764 bound_to 10752
  152.9857  135.5801  154.5008 H   0  0  0  0  0  0  0  0  0  0  0  0  # atno 10765 bound_to 10752
  141.0661  133.9456  157.2575 H   0  0  0  0  0  0  0  0  0  0  0  0  # atno 11005 bound_to 11000
  145.4474  141.0426  143.2824 LP  0  0  0  0  0  0  0  0  0  0  0  0  # atno 17320 bound_to 7965
  144.8089  139.5999  143.7038 LP  0  0  0  0  0  0  0  0  0  0  0  0  # atno 17321 bound_to 7965
  139.5745  144.7480  151.3802 LP  0  0  0  0  0  0  0  0  0  0  0  0  # atno 17342 bound_to 10162
  140.7047  143.7544  150.7461 LP  0  0  0  0  0  0  0  0  0  0  0  0  # atno 17343 bound_to 10162
  156.1004  130.3656  150.0229 LP  0  0  0  0  0  0  0  0  0  0  0  0  # atno 17370 bound_to 10713
  156.8346  130.9404  151.3635 LP  0  0  0  0  0  0  0  0  0  0  0  0  # atno 17371 bound_to 10713
  139.9478  135.0181  156.8904 LP  0  0  0  0  0  0  0  0  0  0  0  0  # atno 17394 bound_to 11000
  140.5770  134.0389  155.7450 LP  0  0  0  0  0  0  0  0  0  0  0  0  # atno 17395 bound_to 11000

$$$$
