AV-unprocessed.smi:558|AV-procd|sdf|2923|dock2
  -GOLD-   2262023413D 1   1.00000     0.00000
 Structure written by MMmdl.
 36 37  0  0  0  0  0  0  0  0  1 V2000
  154.1185  140.1191  160.7452 C   0  0  0  0  0  0  0  0  0  0  0  0
  153.3033  141.3422  160.4454 C   0  0  0  0  0  0  0  0  0  0  0  0
  153.3194  142.5990  161.1120 C   0  0  0  0  0  0  0  0  0  0  0  0
  152.3937  143.3488  160.4426 C   0  0  0  0  0  0  0  0  0  0  0  0
  151.9574  144.7593  160.6703 C   0  0  0  0  0  0  0  0  0  0  0  0
  151.8779  142.5471  159.4381 N   0  0  0  0  0  0  0  0  0  0  0  0
  150.8674  142.8555  158.4380 C   0  0  0  0  0  0  0  0  0  0  0  0
  150.4436  141.6022  157.6698 C   0  0  0  0  0  0  0  0  0  0  0  0
  149.9083  140.6674  158.2649 O   0  0  0  0  0  0  0  0  0  0  0  0
  150.6863  141.5988  156.3499 N   0  0  0  0  0  0  0  0  0  0  0  0
  150.3697  140.5106  155.4307 C   0  0  0  0  0  0  0  0  0  0  0  0
  151.5115  139.4807  155.3515 C   0  0  1  0  0  0  0  0  0  0  0  0
  151.9853  138.9869  156.7029 C   0  0  0  0  0  0  0  0  0  0  0  0
  152.7361  137.7127  156.3282 C   0  0  0  0  0  0  0  0  0  0  0  0
  152.0832  137.2022  155.1691 O   0  0  0  0  0  0  0  0  0  0  0  0
  151.1506  138.1580  154.6727 C   0  0  0  0  0  0  0  0  0  0  0  0
  152.4384  141.3177  159.4453 N   0  0  0  0  0  0  0  0  0  0  0  0
  154.7399  140.2664  161.6287 H   0  0  0  0  0  0  0  0  0  0  0  0
  154.7784  139.8742  159.9127 H   0  0  0  0  0  0  0  0  0  0  0  0
  153.4789  139.2559  160.9301 H   0  0  0  0  0  0  0  0  0  0  0  0
  153.9210  142.9042  161.9554 H   0  0  0  0  0  0  0  0  0  0  0  0
  152.3578  145.1421  161.6091 H   0  0  0  0  0  0  0  0  0  0  0  0
  150.8710  144.8337  160.7185 H   0  0  0  0  0  0  0  0  0  0  0  0
  152.3095  145.4083  159.8686 H   0  0  0  0  0  0  0  0  0  0  0  0
  149.9962  143.2931  158.9286 H   0  0  0  0  0  0  0  0  0  0  0  0
  151.2554  143.6130  157.7563 H   0  0  0  0  0  0  0  0  0  0  0  0
  151.1293  142.4134  155.9507 H   0  0  0  0  0  0  0  0  0  0  0  0
  149.4659  140.0234  155.7972 H   0  0  0  0  0  0  0  0  0  0  0  0
  150.1262  140.8948  154.4387 H   0  0  0  0  0  0  0  0  0  0  0  0
  152.3624  139.9218  154.8293 H   0  0  0  0  0  0  0  0  0  0  0  0
  152.6112  139.7085  157.2286 H   0  0  0  0  0  0  0  0  0  0  0  0
  151.1337  138.7446  157.3404 H   0  0  0  0  0  0  0  0  0  0  0  0
  153.7701  137.9436  156.0693 H   0  0  0  0  0  0  0  0  0  0  0  0
  152.7449  136.9814  157.1367 H   0  0  0  0  0  0  0  0  0  0  0  0
  150.1474  137.8380  154.9581 H   0  0  0  0  0  0  0  0  0  0  0  0
  151.1877  138.2211  153.5848 H   0  0  0  0  0  0  0  0  0  0  0  0
  1  2  1  0  0  0  0
  1 18  1  0  0  0  0
  1 19  1  0  0  0  0
  1 20  1  0  0  0  0
  2 17  2  0  0  0  0
  2  3  1  0  0  0  0
  3  4  2  0  0  0  0
  3 21  1  0  0  0  0
  4  5  1  0  0  0  0
  4  6  1  0  0  0  0
  5 22  1  0  0  0  0
  5 23  1  0  0  0  0
  5 24  1  0  0  0  0
  6  7  1  0  0  0  0
  6 17  1  0  0  0  0
  7  8  1  0  0  0  0
  7 25  1  0  0  0  0
  7 26  1  0  0  0  0
  8  9  2  0  0  0  0
  8 10  1  0  0  0  0
 10 11  1  0  0  0  0
 10 27  1  0  0  0  0
 11 12  1  0  0  0  0
 11 28  1  0  0  0  0
 11 29  1  0  0  0  0
 12 16  1  0  0  0  0
 12 13  1  0  0  0  0
 12 30  1  0  0  0  0
 13 14  1  0  0  0  0
 13 31  1  0  0  0  0
 13 32  1  0  0  0  0
 14 15  1  0  0  0  0
 14 33  1  0  0  0  0
 14 34  1  0  0  0  0
 15 16  1  0  0  0  0
 16 35  1  0  0  0  0
 16 36  1  0  0  0  0
M  END
> <s_m_source_file>
AV-unprocessed.smi

> <i_m_source_file_index>
558

> <i_lp_mmshare_version>
43012

> <i_f3d_flags>
0

> <s_epik_input>
W0NIM11jMVtjSF1jKFtDSDNdKW4objEpW0NIMl1DKD1PKVtOSF1bQ0gyXVtDQEBIXTJbQ0gyXVtDSDJdT1tDSDJdMg==

> <s_epik_cmdline>
J2VwaWtfcHl0aG9uJywgJy1waCcsICc3LjAnLCAnLXRuJywgJzgnLCAnLW1hJywgJzIwMCcsICctbWV0YWxfYmluZGluZycsICctaW1hZScsICc8aW5maWxlLm1hZT4nLCAnLW9tYWUnLCAnPG91dGZpbGUubWFlPic=

> <r_lp_tautomer_probability>
1

> <r_epik_Ionization_Penalty>
0.000376629

> <r_epik_Ionization_Penalty_Charging>
0

> <r_epik_Ionization_Penalty_Neutral>
0.000376629

> <r_epik_State_Penalty>
-0

> <r_epik_Charging_Adjusted_Penalty>
0

> <i_epik_Tot_Q>
0

> <i_epik_Tot_abs_Q>
0

> <r_epik_Metal_State_Penalty>
-0

> <b_epik_Metal_Only>
0

> <s_lp_Force_Field>
OPLS_2005

> <r_lp_Energy>
17.6381

> <b_lp_Chiralities_Consistent>
1

> <s_lp_Variant>
AV-unprocessed.smi:558-2

> <Gold.Version>
5.8.1

> <Gold.Id.Protein>
6NUR|6NUR_protein|mol2

> <Gold.PLP.Fitness>
38.8161

> <Gold.PLP.PLP>
-37.1047

> <Gold.PLP.part.hbond>
-1.0000

> <Gold.PLP.part.metal>
0.0000

> <Gold.PLP.part.buried>
-4.5532

> <Gold.PLP.part.nonpolar>
-31.9903

> <Gold.PLP.part.repulsive>
0.1728

> <Gold.PLP.ligand.clash>
0.0000

> <Gold.PLP.ligand.torsion>
0.3363

> <Gold.PLP.Chemscore.Hbond>
0.7840

> <Gold.PLP.Chemscore.CHOScore>
0.0000

> <Gold.PLP.Chemscore.Metal>
0.0000

> <Gold.Chemscore.Hbonds>
donor molecule, donor type, donor heavy atom, donor atom, acceptor molecule, acceptor atom, score
      P1  H 10752 10764       L1    15  0.88

> <Gold.PLP.Chemscore.Internal.Correction>
0.0319

> <Gold.Rescore>
     Score         DG    S(hbond)    S(metal)    S(lipo)     H(rot)  DE(clash)    DE(int)     intcor
     13.73     -15.34       0.82        0.00      94.60       1.54       0.01       1.59       ----

> <Gold.Chemscore.Fitness>
13.7303

> <Gold.Chemscore.DG>
-15.3360

> <Gold.Chemscore.ZeroCoef>
-5.4800

> <Gold.Chemscore.Hbond>
0.8164

> <Gold.Chemscore.Metal>
0.0000

> <Gold.Chemscore.Lipo>
94.6025

> <Gold.Chemscore.Internal_Hbond>
0.0000

> <Gold.Chemscore.DEClash>
0.0110

> <Gold.Chemscore.DEInternal>
1.5946

> <Gold.Chemscore.Rot>
1.5387

> <Gold.Chemscore.Internal.Correction>
   9.000000E+99

> <Gold.Chemscore.Hbonds>
donor molecule, donor type, donor heavy atom, donor atom, acceptor molecule, acceptor atom, score
      P1  H 10752 10764       L1    15  0.56

> <Gold.Chemscore.Hbond.Weighted>
-2.7267

> <Gold.Chemscore.Metal.Weighted>
-0.0000

> <Gold.Chemscore.Lipo.Weighted>
-11.0685

> <Gold.Chemscore.Internal_Hbond.Weighted>
0.0000

> <Gold.Chemscore.DEClash.Weighted>
0.0110

> <Gold.Chemscore.DEInternal.Weighted>
1.5946

> <Gold.Chemscore.Rot.Weighted>
3.9392

> <Gold.Chemscore.Internal.Correction.Weighted>
   9.000000E+99

> <Gold.Protein.RotatedTorsions>
[ 6907 6896 6895 6894 ] final  -45.75 input  -60.11 | X-H torsion
[ 7974 7965 7964 7962 ] final  153.34 input  175.53 | X-H torsion
[ 8008 7997 7996 7995 ] final   92.72 input   59.86 | X-H torsion
[ 10167 10162 10161 10158 ] final  -59.94 input  -65.29 | X-H torsion
[ 10718 10713 10712 10709 ] final   58.63 input   66.30 | X-H torsion
[ 10763 10752 10751 10750 ] final  -55.48 input  -60.55 | X-H torsion
[ 11005 11000 10999 10996 ] final -166.52 input  -57.11 | X-H torsion

> <Gold.Protein.ActiveResidues>
 VAL166  LYS551  ARG553  GLY616  TRP617  ASP618  TYR619  PRO620  LYS621  CYS622 
 ASP623  PHE694  ASN695  SER759  ASP760  ASP761  ALA762  ILE779  LEU786  VAL792 
 PHE793  MET794  SER795  GLU796  ALA797  LYS798  CYS799  TRP800  GLU811  SER814 

> <Gold.Protein.RotatedAtoms>
  150.9186  134.8604  159.7473 H   0  0  0  0  0  0  0  0  0  0  0  0  # atno 6907 bound_to 6896
  152.4981  134.4251  159.9503 H   0  0  0  0  0  0  0  0  0  0  0  0  # atno 6908 bound_to 6896
  151.4287  133.3637  159.2801 H   0  0  0  0  0  0  0  0  0  0  0  0  # atno 6909 bound_to 6896
  144.8161  139.6788  143.6121 H   0  0  0  0  0  0  0  0  0  0  0  0  # atno 7974 bound_to 7965
  156.0385  140.3322  155.7218 H   0  0  0  0  0  0  0  0  0  0  0  0  # atno 8008 bound_to 7997
  155.5779  140.0634  157.2808 H   0  0  0  0  0  0  0  0  0  0  0  0  # atno 8009 bound_to 7997
  154.4383  140.1849  156.0934 H   0  0  0  0  0  0  0  0  0  0  0  0  # atno 8010 bound_to 7997
  140.6103  143.2385  151.5725 H   0  0  0  0  0  0  0  0  0  0  0  0  # atno 10167 bound_to 10162
  157.5611  130.8836  149.9113 H   0  0  0  0  0  0  0  0  0  0  0  0  # atno 10718 bound_to 10713
  154.1914  135.6426  153.5061 H   0  0  0  0  0  0  0  0  0  0  0  0  # atno 10763 bound_to 10752
  153.0034  135.5429  154.6411 H   0  0  0  0  0  0  0  0  0  0  0  0  # atno 10764 bound_to 10752
  154.5800  135.2924  155.0715 H   0  0  0  0  0  0  0  0  0  0  0  0  # atno 10765 bound_to 10752
  140.5635  134.5309  157.5148 H   0  0  0  0  0  0  0  0  0  0  0  0  # atno 11005 bound_to 11000
  146.2464  139.6107  142.9457 LP  0  0  0  0  0  0  0  0  0  0  0  0  # atno 17320 bound_to 7965
  145.5211  141.0432  143.2434 LP  0  0  0  0  0  0  0  0  0  0  0  0  # atno 17321 bound_to 7965
  139.5356  144.2790  152.1244 LP  0  0  0  0  0  0  0  0  0  0  0  0  # atno 17342 bound_to 10162
  140.1988  144.4678  150.6441 LP  0  0  0  0  0  0  0  0  0  0  0  0  # atno 17343 bound_to 10162
  156.0664  130.3691  150.0870 LP  0  0  0  0  0  0  0  0  0  0  0  0  # atno 17370 bound_to 10713
  156.9034  130.9627  151.3573 LP  0  0  0  0  0  0  0  0  0  0  0  0  # atno 17371 bound_to 10713
  139.9396  134.7811  156.0712 LP  0  0  0  0  0  0  0  0  0  0  0  0  # atno 17394 bound_to 11000
  141.1100  133.6646  156.2955 LP  0  0  0  0  0  0  0  0  0  0  0  0  # atno 17395 bound_to 11000

$$$$
