AV-unprocessed.smi:2404|AV-procd|sdf|9511|dock6
  -GOLD-   2272013143D 1   1.00000     0.00000
 Structure written by MMmdl.
 42 42  0  0  0  0  0  0  0  0  2 V2000
  150.0350  140.4940  155.1175 C   0  0  0  0  0  0  0  0  0  0  0  0
  151.3999  140.2745  155.7967 C   0  0  0  0  0  0  0  0  0  0  0  0
  151.9569  138.8190  155.7753 C   0  0  0  0  0  0  0  0  0  0  0  0
  153.1280  138.6421  156.7982 C   0  0  0  0  0  0  0  0  0  0  0  0
  152.8224  139.0248  158.2566 C   0  0  0  0  0  0  0  0  0  0  0  0
  150.7824  137.8460  156.1064 C   0  0  0  0  0  0  0  0  0  0  0  0
  151.1687  136.4375  156.0445 N   0  0  0  0  0  0  0  0  0  0  0  0
  150.4908  135.4064  156.5712 C   0  0  0  0  0  0  0  0  0  0  0  0
  149.3601  135.5012  157.0478 O   0  0  0  0  0  0  0  0  0  0  0  0
  151.2203  134.0616  156.5946 C   0  0  0  0  0  0  0  0  0  0  0  0
  150.4563  133.0450  155.8854 N   0  0  0  0  0  0  0  0  0  0  0  0
  149.2497  133.3688  155.3713 N   0  0  0  0  0  0  0  0  0  0  0  0
  148.8399  132.2749  154.7514 C   0  0  0  0  0  0  0  0  0  0  0  0
  147.5260  132.2861  154.0283 C   0  0  0  0  0  0  0  0  0  0  0  0
  149.7709  131.2057  154.8726 C   0  0  0  0  0  0  0  0  0  0  0  0
  150.7980  131.7339  155.6024 C   0  0  0  0  0  0  0  0  0  0  0  0
  152.0834  131.1152  156.0444 C   0  0  0  0  0  0  0  0  0  0  0  0
  152.4666  138.4938  154.3392 C   0  0  0  0  0  0  0  0  0  0  0  0
  153.3282  139.2383  153.8186 O   0  0  0  0  0  0  0  0  0  0  0  0
  151.9916  137.4786  153.7823 O   0  5  0  0  0  0  0  0  0  0  0  0
  149.7281  141.5357  155.2106 H   0  0  0  0  0  0  0  0  0  0  0  0
  149.2516  139.8848  155.5687 H   0  0  0  0  0  0  0  0  0  0  0  0
  150.0717  140.2629  154.0534 H   0  0  0  0  0  0  0  0  0  0  0  0
  152.1243  140.9488  155.3399 H   0  0  0  0  0  0  0  0  0  0  0  0
  151.3209  140.6197  156.8287 H   0  0  0  0  0  0  0  0  0  0  0  0
  153.4704  137.6069  156.7935 H   0  0  0  0  0  0  0  0  0  0  0  0
  153.9928  139.2242  156.4775 H   0  0  0  0  0  0  0  0  0  0  0  0
  153.6963  138.8466  158.8833 H   0  0  0  0  0  0  0  0  0  0  0  0
  152.0058  138.4360  158.6719 H   0  0  0  0  0  0  0  0  0  0  0  0
  152.5661  140.0790  158.3548 H   0  0  0  0  0  0  0  0  0  0  0  0
  150.3372  138.0906  157.0710 H   0  0  0  0  0  0  0  0  0  0  0  0
  149.9752  137.9808  155.3850 H   0  0  0  0  0  0  0  0  0  0  0  0
  152.0901  136.2466  155.6757 H   0  0  0  0  0  0  0  0  0  0  0  0
  152.2028  134.1547  156.1305 H   0  0  0  0  0  0  0  0  0  0  0  0
  151.3804  133.7485  157.6274 H   0  0  0  0  0  0  0  0  0  0  0  0
  147.3091  131.3117  153.5904 H   0  0  0  0  0  0  0  0  0  0  0  0
  147.5320  133.0183  153.2203 H   0  0  0  0  0  0  0  0  0  0  0  0
  146.7072  132.5373  154.7029 H   0  0  0  0  0  0  0  0  0  0  0  0
  149.7016  130.2060  154.4706 H   0  0  0  0  0  0  0  0  0  0  0  0
  152.1138  130.0563  155.7871 H   0  0  0  0  0  0  0  0  0  0  0  0
  152.2076  131.2014  157.1239 H   0  0  0  0  0  0  0  0  0  0  0  0
  152.9334  131.6005  155.5643 H   0  0  0  0  0  0  0  0  0  0  0  0
  1  2  1  0  0  0  0
  1 21  1  0  0  0  0
  1 22  1  0  0  0  0
  1 23  1  0  0  0  0
  2  3  1  0  0  0  0
  2 24  1  0  0  0  0
  2 25  1  0  0  0  0
  3  4  1  0  0  0  0
  3  6  1  0  0  0  0
  3 18  1  0  0  0  0
  4  5  1  0  0  0  0
  4 26  1  0  0  0  0
  4 27  1  0  0  0  0
  5 28  1  0  0  0  0
  5 29  1  0  0  0  0
  5 30  1  0  0  0  0
  6  7  1  0  0  0  0
  6 31  1  0  0  0  0
  6 32  1  0  0  0  0
  7  8  1  0  0  0  0
  7 33  1  0  0  0  0
  8  9  2  0  0  0  0
  8 10  1  0  0  0  0
 10 11  1  0  0  0  0
 10 34  1  0  0  0  0
 10 35  1  0  0  0  0
 11 16  1  0  0  0  0
 11 12  1  0  0  0  0
 12 13  2  0  0  0  0
 13 14  1  0  0  0  0
 13 15  1  0  0  0  0
 14 36  1  0  0  0  0
 14 37  1  0  0  0  0
 14 38  1  0  0  0  0
 15 16  2  0  0  0  0
 15 39  1  0  0  0  0
 16 17  1  0  0  0  0
 17 40  1  0  0  0  0
 17 41  1  0  0  0  0
 17 42  1  0  0  0  0
 18 19  2  0  0  0  0
 18 20  1  0  0  0  0
M  CHG  1  20  -1
M  END
> <s_m_source_file>
AV-unprocessed.smi

> <i_m_source_file_index>
2404

> <i_lp_mmshare_version>
43012

> <i_f3d_flags>
0

> <s_epik_input>
W0NIM11bQ0gyXUMoW0NIMl1bQ0gzXSkoQyg9TylbT0hdKVtDSDJdW05IXUMoPU8pW0NIMl1uMW5jKFtDSDNdKVtjSF1jMVtDSDNd

> <s_epik_cmdline>
J2VwaWtfcHl0aG9uJywgJy1waCcsICc3LjAnLCAnLXRuJywgJzgnLCAnLW1hJywgJzIwMCcsICctbWV0YWxfYmluZGluZycsICctaW1hZScsICc8aW5maWxlLm1hZT4nLCAnLW9tYWUnLCAnPG91dGZpbGUubWFlPic=

> <r_lp_tautomer_probability>
1

> <r_epik_Ionization_Penalty>
0.00271888

> <r_epik_Ionization_Penalty_Charging>
0.00235221

> <r_epik_Ionization_Penalty_Neutral>
0.000366676

> <r_epik_State_Penalty>
-0

> <r_epik_Charging_Adjusted_Penalty>
0.00235221

> <i_epik_Tot_Q>
-1

> <i_epik_Tot_abs_Q>
1

> <r_epik_Metal_State_Penalty>
-0

> <b_epik_Metal_Only>
0

> <s_lp_Force_Field>
OPLS_2005

> <r_lp_Energy>
2.14996

> <b_lp_Chiralities_Consistent>
1

> <s_lp_Variant>
AV-unprocessed.smi:2404-1

> <Gold.Version>
5.8.1

> <Gold.Id.Protein>
6NUR|6NUR_protein|mol2

> <Gold.PLP.Fitness>
42.4700

> <Gold.PLP.PLP>
-31.8290

> <Gold.PLP.part.hbond>
-2.0000

> <Gold.PLP.part.metal>
0.0000

> <Gold.PLP.part.buried>
-5.0474

> <Gold.PLP.part.nonpolar>
-26.4141

> <Gold.PLP.part.repulsive>
0.4125

> <Gold.PLP.ligand.clash>
0.0000

> <Gold.PLP.ligand.torsion>
0.4351

> <Gold.PLP.Chemscore.Hbond>
3.7920

> <Gold.PLP.Chemscore.CHOScore>
0.0000

> <Gold.PLP.Chemscore.Metal>
0.0000

> <Gold.Chemscore.Hbonds>
donor molecule, donor type, donor heavy atom, donor atom, acceptor molecule, acceptor atom, score
      P1  H  7989  7998       L1    19  0.02
      P1  H 10752 10763       L1    20  1.72

> <Gold.PLP.Chemscore.Internal.Correction>
0.1351

> <Gold.Rescore>
     Score         DG    S(hbond)    S(metal)    S(lipo)     H(rot)  DE(clash)    DE(int)     intcor
      9.19     -12.74       1.83        0.00      62.61       2.42       0.03       3.53       ----

> <Gold.Chemscore.Fitness>
9.1905

> <Gold.Chemscore.DG>
-12.7432

> <Gold.Chemscore.ZeroCoef>
-5.4800

> <Gold.Chemscore.Hbond>
1.8330

> <Gold.Chemscore.Metal>
0.0000

> <Gold.Chemscore.Lipo>
62.6126

> <Gold.Chemscore.Internal_Hbond>
0.0000

> <Gold.Chemscore.DEClash>
0.0270

> <Gold.Chemscore.DEInternal>
3.5257

> <Gold.Chemscore.Rot>
2.4159

> <Gold.Chemscore.Internal.Correction>
   9.000000E+99

> <Gold.Chemscore.Hbonds>
donor molecule, donor type, donor heavy atom, donor atom, acceptor molecule, acceptor atom, score
      P1  H 10752 10763       L1    20  0.74

> <Gold.Chemscore.Hbond.Weighted>
-6.1224

> <Gold.Chemscore.Metal.Weighted>
-0.0000

> <Gold.Chemscore.Lipo.Weighted>
-7.3257

> <Gold.Chemscore.Internal_Hbond.Weighted>
0.0000

> <Gold.Chemscore.DEClash.Weighted>
0.0270

> <Gold.Chemscore.DEInternal.Weighted>
3.5257

> <Gold.Chemscore.Rot.Weighted>
6.1848

> <Gold.Chemscore.Internal.Correction.Weighted>
   9.000000E+99

> <Gold.Protein.RotatedTorsions>
[ 6907 6896 6895 6894 ] final   67.97 input  -60.11 | X-H torsion
[ 7974 7965 7964 7962 ] final  -11.78 input  175.53 | X-H torsion
[ 8008 7997 7996 7995 ] final -132.25 input   59.86 | X-H torsion
[ 10167 10162 10161 10158 ] final  156.43 input  -65.29 | X-H torsion
[ 10718 10713 10712 10709 ] final    6.37 input   66.30 | X-H torsion
[ 10763 10752 10751 10750 ] final   33.51 input  -60.55 | X-H torsion
[ 11005 11000 10999 10996 ] final   72.16 input  -57.11 | X-H torsion

> <Gold.Protein.ActiveResidues>
 VAL166  LYS551  ARG553  GLY616  TRP617  ASP618  TYR619  PRO620  LYS621  CYS622 
 ASP623  PHE694  ASN695  SER759  ASP760  ASP761  ALA762  ILE779  LEU786  VAL792 
 PHE793  MET794  SER795  GLU796  ALA797  LYS798  CYS799  TRP800  GLU811  SER814 

> <Gold.Protein.RotatedAtoms>
  152.4589  134.5230  159.9788 H   0  0  0  0  0  0  0  0  0  0  0  0  # atno 6907 bound_to 6896
  151.5284  133.3448  159.2921 H   0  0  0  0  0  0  0  0  0  0  0  0  # atno 6908 bound_to 6896
  150.8543  134.7907  159.7096 H   0  0  0  0  0  0  0  0  0  0  0  0  # atno 6909 bound_to 6896
  146.2175  140.2961  142.8372 H   0  0  0  0  0  0  0  0  0  0  0  0  # atno 7974 bound_to 7965
  155.3257  140.0464  157.3041 H   0  0  0  0  0  0  0  0  0  0  0  0  # atno 8008 bound_to 7997
  154.5355  140.2271  155.8695 H   0  0  0  0  0  0  0  0  0  0  0  0  # atno 8009 bound_to 7997
  156.1831  140.3069  155.9192 H   0  0  0  0  0  0  0  0  0  0  0  0  # atno 8010 bound_to 7997
  139.4821  144.5009  151.8170 H   0  0  0  0  0  0  0  0  0  0  0  0  # atno 10167 bound_to 10162
  156.9211  130.5791  149.5648 H   0  0  0  0  0  0  0  0  0  0  0  0  # atno 10718 bound_to 10713
  153.0208  135.6385  154.1523 H   0  0  0  0  0  0  0  0  0  0  0  0  # atno 10763 bound_to 10752
  154.1257  135.2843  155.3199 H   0  0  0  0  0  0  0  0  0  0  0  0  # atno 10764 bound_to 10752
  154.6231  135.5518  153.7659 H   0  0  0  0  0  0  0  0  0  0  0  0  # atno 10765 bound_to 10752
  139.9505  134.7235  156.0873 H   0  0  0  0  0  0  0  0  0  0  0  0  # atno 11005 bound_to 11000
  144.9091  140.7736  143.5819 LP  0  0  0  0  0  0  0  0  0  0  0  0  # atno 17320 bound_to 7965
  145.2891  139.1890  143.4750 LP  0  0  0  0  0  0  0  0  0  0  0  0  # atno 17321 bound_to 7965
  140.4502  144.1866  150.5897 LP  0  0  0  0  0  0  0  0  0  0  0  0  # atno 17342 bound_to 10162
  140.4593  143.2455  151.9242 LP  0  0  0  0  0  0  0  0  0  0  0  0  # atno 17343 bound_to 10162
  156.0490  130.5563  150.8947 LP  0  0  0  0  0  0  0  0  0  0  0  0  # atno 17370 bound_to 10713
  157.5907  131.0944  150.9123 LP  0  0  0  0  0  0  0  0  0  0  0  0  # atno 17371 bound_to 10713
  141.1167  133.6625  156.3112 LP  0  0  0  0  0  0  0  0  0  0  0  0  # atno 17394 bound_to 11000
  140.5729  134.5822  157.5462 LP  0  0  0  0  0  0  0  0  0  0  0  0  # atno 17395 bound_to 11000

$$$$
