AV-unprocessed.smi:3351|AV-procd|sdf|12948|dock10
  -GOLD-   2272019383D 1   1.00000     0.00000
 Structure written by MMmdl.
 35 36  0  0  0  0  0  0  0  0  2 V2000
  153.2938  139.7337  159.8555 C   0  0  0  0  0  0  0  0  0  0  0  0
  152.6473  141.1248  159.7535 C   0  0  1  0  0  0  0  0  0  0  0  0
  153.5591  142.2569  160.2749 C   0  0  0  0  0  0  0  0  0  0  0  0
  152.8982  143.5656  160.2738 N   0  0  0  0  0  0  0  0  0  0  0  0
  152.6300  144.3562  159.1859 C   0  0  0  0  0  0  0  0  0  0  0  0
  152.0067  145.4801  159.6637 C   0  0  0  0  0  0  0  0  0  0  0  0
  151.9255  145.3304  161.0223 N   0  3  0  0  0  0  0  0  0  0  0  0
  152.4717  144.1673  161.3920 C   0  0  0  0  0  0  0  0  0  0  0  0
  152.2707  141.3772  158.3657 N   0  0  0  0  0  0  0  0  0  0  0  0
  151.0190  141.3371  157.8828 C   0  0  0  0  0  0  0  0  0  0  0  0
  150.0326  141.1108  158.5850 O   0  0  0  0  0  0  0  0  0  0  0  0
  150.8634  141.6238  156.3839 C   0  0  0  0  0  0  0  0  0  0  0  0
  150.4918  140.4357  155.6129 N   0  0  0  0  0  0  0  0  0  0  0  0
  149.1120  140.2729  155.1720 C   0  0  0  0  0  0  0  0  0  0  0  0
  149.0799  139.1577  154.1248 C   0  0  0  0  0  0  0  0  0  0  0  0
  150.5357  138.1236  154.3794 S   0  0  0  0  0  0  0  0  0  0  0  0
  151.3673  139.3932  155.3384 C   0  0  0  0  0  0  0  0  0  0  0  0
  152.5452  139.2946  155.6775 O   0  0  0  0  0  0  0  0  0  0  0  0
  153.5029  139.4643  160.8910 H   0  0  0  0  0  0  0  0  0  0  0  0
  154.2328  139.6914  159.3028 H   0  0  0  0  0  0  0  0  0  0  0  0
  152.6347  138.9648  159.4505 H   0  0  0  0  0  0  0  0  0  0  0  0
  151.7380  141.1043  160.3572 H   0  0  0  0  0  0  0  0  0  0  0  0
  153.8968  142.0412  161.2900 H   0  0  0  0  0  0  0  0  0  0  0  0
  154.4541  142.3483  159.6582 H   0  0  0  0  0  0  0  0  0  0  0  0
  152.8938  144.0660  158.1789 H   0  0  0  0  0  0  0  0  0  0  0  0
  151.6261  146.3524  159.1525 H   0  0  0  0  0  0  0  0  0  0  0  0
  152.5483  143.7881  162.3955 H   0  0  0  0  0  0  0  0  0  0  0  0
  153.0200  141.5757  157.7185 H   0  0  0  0  0  0  0  0  0  0  0  0
  150.1082  142.4004  156.2585 H   0  0  0  0  0  0  0  0  0  0  0  0
  151.7935  142.0331  155.9854 H   0  0  0  0  0  0  0  0  0  0  0  0
  148.5057  139.9971  156.0357 H   0  0  0  0  0  0  0  0  0  0  0  0
  148.7076  141.2015  154.7677 H   0  0  0  0  0  0  0  0  0  0  0  0
  148.1644  138.5685  154.1775 H   0  0  0  0  0  0  0  0  0  0  0  0
  149.1432  139.5848  153.1237 H   0  0  0  0  0  0  0  0  0  0  0  0
  151.5138  146.0022  161.6578 H   0  0  0  0  0  0  0  0  0  0  0  0
  1  2  1  0  0  0  0
  1 19  1  0  0  0  0
  1 20  1  0  0  0  0
  1 21  1  0  0  0  0
  2  3  1  0  0  0  0
  2  9  1  0  0  0  0
  2 22  1  0  0  0  0
  3  4  1  0  0  0  0
  3 23  1  0  0  0  0
  3 24  1  0  0  0  0
  4  8  1  0  0  0  0
  4  5  1  0  0  0  0
  5  6  2  0  0  0  0
  5 25  1  0  0  0  0
  6  7  1  0  0  0  0
  6 26  1  0  0  0  0
  7  8  2  0  0  0  0
  7 35  1  0  0  0  0
  8 27  1  0  0  0  0
  9 10  1  0  0  0  0
  9 28  1  0  0  0  0
 10 11  2  0  0  0  0
 10 12  1  0  0  0  0
 12 13  1  0  0  0  0
 12 29  1  0  0  0  0
 12 30  1  0  0  0  0
 13 17  1  0  0  0  0
 13 14  1  0  0  0  0
 14 15  1  0  0  0  0
 14 31  1  0  0  0  0
 14 32  1  0  0  0  0
 15 16  1  0  0  0  0
 15 33  1  0  0  0  0
 15 34  1  0  0  0  0
 16 17  1  0  0  0  0
 17 18  2  0  0  0  0
M  CHG  1   7   1
M  END
> <s_m_source_file>
AV-unprocessed.smi

> <i_m_source_file_index>
3351

> <i_lp_mmshare_version>
43012

> <i_f3d_flags>
0

> <s_epik_input>
W2NIXTFuW2NIXVtjSF1uMVtDSDJdW0NAQEhdKFtDSDNdKVtOSF1DKD1PKVtDSDJdTjJbQ0gyXVtDSDJdU0MyPU8=

> <s_epik_cmdline>
J2VwaWtfcHl0aG9uJywgJy1waCcsICc3LjAnLCAnLXRuJywgJzgnLCAnLW1hJywgJzIwMCcsICctbWV0YWxfYmluZGluZycsICctaW1hZScsICc8aW5maWxlLm1hZT4nLCAnLW9tYWUnLCAnPG91dGZpbGUubWFlPic=

> <r_lp_tautomer_probability>
1

> <r_epik_Ionization_Penalty>
0.257312

> <r_epik_Ionization_Penalty_Charging>
0

> <r_epik_Ionization_Penalty_Neutral>
0.257312

> <r_epik_State_Penalty>
0.248897

> <r_epik_Charging_Adjusted_Penalty>
0.248897

> <i_epik_Tot_Q>
1

> <i_epik_Tot_abs_Q>
1

> <r_epik_Metal_State_Penalty>
0.538022

> <b_epik_Metal_Only>
0

> <s_lp_Force_Field>
OPLS_2005

> <r_lp_Energy>
6.1395

> <b_lp_Chiralities_Consistent>
1

> <s_lp_Variant>
AV-unprocessed.smi:3351-2

> <Gold.Version>
5.8.1

> <Gold.Id.Protein>
6NUR|6NUR_protein|mol2

> <Gold.PLP.Fitness>
47.9323

> <Gold.PLP.PLP>
-46.1430

> <Gold.PLP.part.hbond>
-2.0000

> <Gold.PLP.part.metal>
0.0000

> <Gold.PLP.part.buried>
-3.7137

> <Gold.PLP.part.nonpolar>
-39.9715

> <Gold.PLP.part.repulsive>
0.2188

> <Gold.PLP.ligand.clash>
0.0000

> <Gold.PLP.ligand.torsion>
0.6212

> <Gold.PLP.Chemscore.Hbond>
1.0000

> <Gold.PLP.Chemscore.CHOScore>
0.0000

> <Gold.PLP.Chemscore.Metal>
0.0000

> <Gold.Chemscore.Hbonds>
donor molecule, donor type, donor heavy atom, donor atom, acceptor molecule, acceptor atom, score
      P1  H  7997  8008       L1    18  0.93

> <Gold.PLP.Chemscore.Internal.Correction>
0.0316

> <Gold.Rescore>
     Score         DG    S(hbond)    S(metal)    S(lipo)     H(rot)  DE(clash)    DE(int)     intcor
     11.52     -12.33       1.00        0.00      82.83       2.41       0.08       0.73       ----

> <Gold.Chemscore.Fitness>
11.5175

> <Gold.Chemscore.DG>
-12.3310

> <Gold.Chemscore.ZeroCoef>
-5.4800

> <Gold.Chemscore.Hbond>
0.9998

> <Gold.Chemscore.Metal>
0.0000

> <Gold.Chemscore.Lipo>
82.8340

> <Gold.Chemscore.Internal_Hbond>
0.0000

> <Gold.Chemscore.DEClash>
0.0844

> <Gold.Chemscore.DEInternal>
0.7291

> <Gold.Chemscore.Rot>
2.4141

> <Gold.Chemscore.Internal.Correction>
   9.000000E+99

> <Gold.Chemscore.Hbonds>
donor molecule, donor type, donor heavy atom, donor atom, acceptor molecule, acceptor atom, score
      P1  H  7997  8008       L1    18  0.89

> <Gold.Chemscore.Hbond.Weighted>
-3.3395

> <Gold.Chemscore.Metal.Weighted>
-0.0000

> <Gold.Chemscore.Lipo.Weighted>
-9.6916

> <Gold.Chemscore.Internal_Hbond.Weighted>
0.0000

> <Gold.Chemscore.DEClash.Weighted>
0.0844

> <Gold.Chemscore.DEInternal.Weighted>
0.7291

> <Gold.Chemscore.Rot.Weighted>
6.1800

> <Gold.Chemscore.Internal.Correction.Weighted>
   9.000000E+99

> <Gold.Protein.RotatedTorsions>
[ 6907 6896 6895 6894 ] final  -84.15 input  -60.11 | X-H torsion
[ 7974 7965 7964 7962 ] final -177.07 input  175.53 | X-H torsion
[ 8008 7997 7996 7995 ] final  -37.62 input   59.86 | X-H torsion
[ 10167 10162 10161 10158 ] final  -68.29 input  -65.29 | X-H torsion
[ 10718 10713 10712 10709 ] final  167.96 input   66.30 | X-H torsion
[ 10763 10752 10751 10750 ] final  108.83 input  -60.55 | X-H torsion
[ 11005 11000 10999 10996 ] final   93.43 input  -57.11 | X-H torsion

> <Gold.Protein.ActiveResidues>
 VAL166  LYS551  ARG553  GLY616  TRP617  ASP618  TYR619  PRO620  LYS621  CYS622 
 ASP623  PHE694  ASN695  SER759  ASP760  ASP761  ALA762  ILE779  LEU786  VAL792 
 PHE793  MET794  SER795  GLU796  ALA797  LYS798  CYS799  TRP800  GLU811  SER814 

> <Gold.Protein.RotatedAtoms>
  150.6879  134.3402  159.4864 H   0  0  0  0  0  0  0  0  0  0  0  0  # atno 6907 bound_to 6896
  152.1256  134.9170  160.0570 H   0  0  0  0  0  0  0  0  0  0  0  0  # atno 6908 bound_to 6896
  152.0359  133.3922  159.4354 H   0  0  0  0  0  0  0  0  0  0  0  0  # atno 6909 bound_to 6896
  144.7127  140.1075  143.6413 H   0  0  0  0  0  0  0  0  0  0  0  0  # atno 7974 bound_to 7965
  154.4050  140.1599  156.2566 H   0  0  0  0  0  0  0  0  0  0  0  0  # atno 8008 bound_to 7997
  155.9073  140.3429  155.6049 H   0  0  0  0  0  0  0  0  0  0  0  0  # atno 8009 bound_to 7997
  155.7377  140.0788  157.2250 H   0  0  0  0  0  0  0  0  0  0  0  0  # atno 8010 bound_to 7997
  140.5518  143.2312  151.6896 H   0  0  0  0  0  0  0  0  0  0  0  0  # atno 10167 bound_to 10162
  157.0440  131.0295  151.2703 H   0  0  0  0  0  0  0  0  0  0  0  0  # atno 10718 bound_to 10713
  153.4261  135.3799  155.2141 H   0  0  0  0  0  0  0  0  0  0  0  0  # atno 10763 bound_to 10752
  154.8747  135.3829  154.4325 H   0  0  0  0  0  0  0  0  0  0  0  0  # atno 10764 bound_to 10752
  153.4851  135.7088  153.5979 H   0  0  0  0  0  0  0  0  0  0  0  0  # atno 10765 bound_to 10752
  139.8810  134.8789  156.3717 H   0  0  0  0  0  0  0  0  0  0  0  0  # atno 11005 bound_to 11000
  145.9484  139.2717  143.1227 LP  0  0  0  0  0  0  0  0  0  0  0  0  # atno 17320 bound_to 7965
  145.9349  140.9022  143.0337 LP  0  0  0  0  0  0  0  0  0  0  0  0  # atno 17321 bound_to 7965
  139.5031  144.3805  152.0381 LP  0  0  0  0  0  0  0  0  0  0  0  0  # atno 17342 bound_to 10162
  140.2923  144.3740  150.6085 LP  0  0  0  0  0  0  0  0  0  0  0  0  # atno 17343 bound_to 10162
  157.5082  130.7922  149.7677 LP  0  0  0  0  0  0  0  0  0  0  0  0  # atno 17370 bound_to 10713
  156.0029  130.3871  150.2539 LP  0  0  0  0  0  0  0  0  0  0  0  0  # atno 17371 bound_to 10713
  140.9460  133.7483  156.0208 LP  0  0  0  0  0  0  0  0  0  0  0  0  # atno 17394 bound_to 11000
  140.8163  134.3341  157.5396 LP  0  0  0  0  0  0  0  0  0  0  0  0  # atno 17395 bound_to 11000

$$$$
