AV-unprocessed.smi:1297|AV-procd|sdf|5416|dock4
  -GOLD-   22720 4573D 1   1.00000     0.00000
 Structure written by MMmdl.
 26 27  0  0  0  0  0  0  0  0  1 V2000
  152.5913  138.3700  154.6713 C   0  0  0  0  0  0  0  0  0  0  0  0
  151.5329  139.7756  155.1195 S   0  0  0  0  0  0  0  0  0  0  0  0
  152.1426  140.1211  156.7452 C   0  0  0  0  0  0  0  0  0  0  0  0
  153.1118  139.4282  157.3518 N   0  0  0  0  0  0  0  0  0  0  0  0
  153.2676  140.0073  158.5898 N   0  0  0  0  0  0  0  0  0  0  0  0
  152.3938  141.0151  158.6209 C   0  0  0  0  0  0  0  0  0  0  0  0
  152.2000  141.9020  159.8106 C   0  0  0  0  0  0  0  0  0  0  0  0
  152.3511  143.4026  159.6948 C   0  0  0  0  0  0  0  0  0  0  0  0
  153.3675  142.6061  160.4688 C   0  0  0  0  0  0  0  0  0  0  0  0
  151.6509  141.1283  157.4997 N   0  0  0  0  0  0  0  0  0  0  0  0
  150.5896  142.0817  157.1934 C   0  0  0  0  0  0  0  0  0  0  0  0
  149.2848  141.3824  156.8025 C   0  0  0  0  0  0  0  0  0  0  0  0
  148.2898  142.1455  156.3433 N   0  0  0  0  0  0  0  0  0  0  0  0
  149.1803  140.1623  156.9027 O   0  0  0  0  0  0  0  0  0  0  0  0
  152.3454  138.0256  153.6670 H   0  0  0  0  0  0  0  0  0  0  0  0
  152.4423  137.5396  155.3621 H   0  0  0  0  0  0  0  0  0  0  0  0
  153.6430  138.6577  154.6856 H   0  0  0  0  0  0  0  0  0  0  0  0
  151.4133  141.5150  160.4553 H   0  0  0  0  0  0  0  0  0  0  0  0
  152.6651  143.8095  158.7356 H   0  0  0  0  0  0  0  0  0  0  0  0
  151.6560  144.0206  160.2591 H   0  0  0  0  0  0  0  0  0  0  0  0
  153.3537  142.6931  161.5532 H   0  0  0  0  0  0  0  0  0  0  0  0
  154.3536  142.4896  160.0231 H   0  0  0  0  0  0  0  0  0  0  0  0
  150.4199  142.7296  158.0536 H   0  0  0  0  0  0  0  0  0  0  0  0
  150.9183  142.7314  156.3815 H   0  0  0  0  0  0  0  0  0  0  0  0
  147.4128  141.7232  156.0737 H   0  0  0  0  0  0  0  0  0  0  0  0
  148.4184  143.1441  156.2663 H   0  0  0  0  0  0  0  0  0  0  0  0
  1  2  1  0  0  0  0
  1 15  1  0  0  0  0
  1 16  1  0  0  0  0
  1 17  1  0  0  0  0
  2  3  1  0  0  0  0
  3 10  1  0  0  0  0
  3  4  2  0  0  0  0
  4  5  1  0  0  0  0
  5  6  2  0  0  0  0
  6  7  1  0  0  0  0
  6 10  1  0  0  0  0
  7  9  1  0  0  0  0
  7  8  1  0  0  0  0
  7 18  1  0  0  0  0
  8  9  1  0  0  0  0
  8 19  1  0  0  0  0
  8 20  1  0  0  0  0
  9 21  1  0  0  0  0
  9 22  1  0  0  0  0
 10 11  1  0  0  0  0
 11 12  1  0  0  0  0
 11 23  1  0  0  0  0
 11 24  1  0  0  0  0
 12 13  1  0  0  0  0
 12 14  2  0  0  0  0
 13 25  1  0  0  0  0
 13 26  1  0  0  0  0
M  END
> <s_m_source_file>
AV-unprocessed.smi

> <i_m_source_file_index>
1297

> <i_lp_mmshare_version>
43012

> <i_f3d_flags>
0

> <s_epik_input>
W0NIM11TYzFubmMoW0NIXTJbQ0gyXVtDSDJdMiluMVtDSDJdQyg9TylbTkgyXQ==

> <s_epik_cmdline>
J2VwaWtfcHl0aG9uJywgJy1waCcsICc3LjAnLCAnLXRuJywgJzgnLCAnLW1hJywgJzIwMCcsICctbWV0YWxfYmluZGluZycsICctaW1hZScsICc8aW5maWxlLm1hZT4nLCAnLW9tYWUnLCAnPG91dGZpbGUubWFlPic=

> <r_lp_tautomer_probability>
1

> <r_epik_Ionization_Penalty>
2.14715e-06

> <r_epik_Ionization_Penalty_Charging>
0

> <r_epik_Ionization_Penalty_Neutral>
2.14715e-06

> <r_epik_State_Penalty>
-0

> <r_epik_Charging_Adjusted_Penalty>
0

> <i_epik_Tot_Q>
0

> <i_epik_Tot_abs_Q>
0

> <r_epik_Metal_State_Penalty>
-0

> <b_epik_Metal_Only>
0

> <s_lp_Force_Field>
OPLS_2005

> <r_lp_Energy>
5.16146

> <b_lp_Chiralities_Consistent>
1

> <s_lp_Variant>
AV-unprocessed.smi:1297-1

> <Gold.Version>
5.8.1

> <Gold.Id.Protein>
6NUR|6NUR_protein|mol2

> <Gold.PLP.Fitness>
34.3231

> <Gold.PLP.PLP>
-28.5171

> <Gold.PLP.part.hbond>
-3.0000

> <Gold.PLP.part.metal>
0.0000

> <Gold.PLP.part.buried>
-0.9170

> <Gold.PLP.part.nonpolar>
-24.2884

> <Gold.PLP.part.repulsive>
0.0168

> <Gold.PLP.ligand.clash>
0.0000

> <Gold.PLP.ligand.torsion>
0.1648

> <Gold.PLP.Chemscore.Hbond>
2.0000

> <Gold.PLP.Chemscore.CHOScore>
0.0000

> <Gold.PLP.Chemscore.Metal>
0.0000

> <Gold.Chemscore.Hbonds>
donor molecule, donor type, donor heavy atom, donor atom, acceptor molecule, acceptor atom, score
      L1  H    13    26       P1  8028  1.00
      P1  H  7997  8008       L1     4  0.90

> <Gold.PLP.Chemscore.Internal.Correction>
0.1356

> <Gold.Rescore>
     Score         DG    S(hbond)    S(metal)    S(lipo)     H(rot)  DE(clash)    DE(int)     intcor
      9.64      -9.86       1.00        0.00      56.96       2.19       0.01       0.21       ----

> <Gold.Chemscore.Fitness>
9.6447

> <Gold.Chemscore.DG>
-9.8650

> <Gold.Chemscore.ZeroCoef>
-5.4800

> <Gold.Chemscore.Hbond>
0.9960

> <Gold.Chemscore.Metal>
0.0000

> <Gold.Chemscore.Lipo>
56.9568

> <Gold.Chemscore.Internal_Hbond>
0.0000

> <Gold.Chemscore.DEClash>
0.0121

> <Gold.Chemscore.DEInternal>
0.2081

> <Gold.Chemscore.Rot>
2.1897

> <Gold.Chemscore.Internal.Correction>
   9.000000E+99

> <Gold.Chemscore.Hbonds>
donor molecule, donor type, donor heavy atom, donor atom, acceptor molecule, acceptor atom, score
      L1  H    13    26       P1  8028  0.82
      P1  H  7997  8008       L1     4  0.04

> <Gold.Chemscore.Hbond.Weighted>
-3.3267

> <Gold.Chemscore.Metal.Weighted>
-0.0000

> <Gold.Chemscore.Lipo.Weighted>
-6.6639

> <Gold.Chemscore.Internal_Hbond.Weighted>
0.0000

> <Gold.Chemscore.DEClash.Weighted>
0.0121

> <Gold.Chemscore.DEInternal.Weighted>
0.2081

> <Gold.Chemscore.Rot.Weighted>
5.6057

> <Gold.Chemscore.Internal.Correction.Weighted>
   9.000000E+99

> <Gold.Protein.RotatedTorsions>
[ 6907 6896 6895 6894 ] final -160.69 input  -60.11 | X-H torsion
[ 7974 7965 7964 7962 ] final  -77.49 input  175.53 | X-H torsion
[ 8008 7997 7996 7995 ] final  -55.07 input   59.86 | X-H torsion
[ 10167 10162 10161 10158 ] final   34.82 input  -65.29 | X-H torsion
[ 10718 10713 10712 10709 ] final  -42.42 input   66.30 | X-H torsion
[ 10763 10752 10751 10750 ] final  -72.81 input  -60.55 | X-H torsion
[ 11005 11000 10999 10996 ] final   26.99 input  -57.11 | X-H torsion

> <Gold.Protein.ActiveResidues>
 VAL166  LYS551  ARG553  GLY616  TRP617  ASP618  TYR619  PRO620  LYS621  CYS622 
 ASP623  PHE694  ASN695  SER759  ASP760  ASP761  ALA762  ILE779  LEU786  VAL792 
 PHE793  MET794  SER795  GLU796  ALA797  LYS798  CYS799  TRP800  GLU811  SER814 

> <Gold.Protein.RotatedAtoms>
  151.3530  133.3918  159.2681 H   0  0  0  0  0  0  0  0  0  0  0  0  # atno 6907 bound_to 6896
  150.9786  134.9147  159.7841 H   0  0  0  0  0  0  0  0  0  0  0  0  # atno 6908 bound_to 6896
  152.5209  134.3493  159.9297 H   0  0  0  0  0  0  0  0  0  0  0  0  # atno 6909 bound_to 6896
  145.5990  140.9413  143.1251 H   0  0  0  0  0  0  0  0  0  0  0  0  # atno 7974 bound_to 7965
  154.4183  140.1161  156.5418 H   0  0  0  0  0  0  0  0  0  0  0  0  # atno 8008 bound_to 7997
  155.6500  140.3496  155.4725 H   0  0  0  0  0  0  0  0  0  0  0  0  # atno 8009 bound_to 7997
  155.9800  140.1158  157.0725 H   0  0  0  0  0  0  0  0  0  0  0  0  # atno 8010 bound_to 7997
  140.4279  144.1367  150.6155 H   0  0  0  0  0  0  0  0  0  0  0  0  # atno 10167 bound_to 10162
  156.2598  130.4196  149.8555 H   0  0  0  0  0  0  0  0  0  0  0  0  # atno 10718 bound_to 10713
  154.4508  135.5918  153.6190 H   0  0  0  0  0  0  0  0  0  0  0  0  # atno 10763 bound_to 10752
  152.9813  135.6020  154.3607 H   0  0  0  0  0  0  0  0  0  0  0  0  # atno 10764 bound_to 10752
  154.3468  135.2841  155.2372 H   0  0  0  0  0  0  0  0  0  0  0  0  # atno 10765 bound_to 10752
  140.3311  134.2436  155.7702 H   0  0  0  0  0  0  0  0  0  0  0  0  # atno 11005 bound_to 11000
  144.7318  139.7703  143.7344 LP  0  0  0  0  0  0  0  0  0  0  0  0  # atno 17320 bound_to 7965
  146.1590  139.4698  143.0000 LP  0  0  0  0  0  0  0  0  0  0  0  0  # atno 17321 bound_to 7965
  140.4460  143.2506  151.9410 LP  0  0  0  0  0  0  0  0  0  0  0  0  # atno 17342 bound_to 10162
  139.4784  144.5608  151.8242 LP  0  0  0  0  0  0  0  0  0  0  0  0  # atno 17343 bound_to 10162
  156.6075  130.8572  151.3446 LP  0  0  0  0  0  0  0  0  0  0  0  0  # atno 17370 bound_to 10713
  157.7246  130.9605  150.1580 LP  0  0  0  0  0  0  0  0  0  0  0  0  # atno 17371 bound_to 10713
  141.2063  133.7837  157.0185 LP  0  0  0  0  0  0  0  0  0  0  0  0  # atno 17394 bound_to 11000
  140.0860  134.9621  157.1700 LP  0  0  0  0  0  0  0  0  0  0  0  0  # atno 17395 bound_to 11000

$$$$
