AV-unprocessed.smi:3101|AV-procd|sdf|11809|dock7
  -GOLD-   2272017183D 1   1.00000     0.00000
 Structure written by MMmdl.
 28 29  0  0  0  0  0  0  0  0  1 V2000
  153.2827  141.6611  160.6067 C   0  0  0  0  0  0  0  0  0  0  0  0
  152.3502  142.6061  159.8287 C   0  0  1  0  0  0  0  0  0  0  0  0
  153.0627  143.6096  158.9362 C   0  0  0  0  0  0  0  0  0  0  0  0
  152.0112  143.9495  157.8747 C   0  0  0  0  0  0  0  0  0  0  0  0
  150.9282  143.0366  158.0613 O   0  0  0  0  0  0  0  0  0  0  0  0
  151.3302  141.9462  158.8840 C   0  0  1  0  0  0  0  0  0  0  0  0
  151.8584  140.8066  157.9882 C   0  0  0  0  0  0  0  0  0  0  0  0
  152.9874  140.3455  158.1614 O   0  0  0  0  0  0  0  0  0  0  0  0
  151.0117  140.3917  157.0278 N   0  0  0  0  0  0  0  0  0  0  0  0
  151.2044  139.3577  156.0742 C   0  0  0  0  0  0  0  0  0  0  0  0
  152.1747  138.3843  156.4108 C   0  0  0  0  0  0  0  0  0  0  0  0
  152.4739  137.3423  155.6035 N   0  0  0  0  0  0  0  0  0  0  0  0
  151.7957  137.2673  154.4386 C   0  0  0  0  0  0  0  0  0  0  0  0
  150.8264  138.2276  154.0860 C   0  0  0  0  0  0  0  0  0  0  0  0
  150.5322  139.2664  154.8979 N   0  0  0  0  0  0  0  0  0  0  0  0
  153.9453  141.1018  159.9464 H   0  0  0  0  0  0  0  0  0  0  0  0
  152.7084  140.9423  161.1914 H   0  0  0  0  0  0  0  0  0  0  0  0
  153.9110  142.2227  161.2981 H   0  0  0  0  0  0  0  0  0  0  0  0
  151.7762  143.1733  160.5631 H   0  0  0  0  0  0  0  0  0  0  0  0
  153.3979  144.4884  159.4881 H   0  0  0  0  0  0  0  0  0  0  0  0
  153.9384  143.1615  158.4652 H   0  0  0  0  0  0  0  0  0  0  0  0
  151.6447  144.9704  157.9853 H   0  0  0  0  0  0  0  0  0  0  0  0
  152.4219  143.8468  156.8698 H   0  0  0  0  0  0  0  0  0  0  0  0
  150.4694  141.5882  159.4510 H   0  0  0  0  0  0  0  0  0  0  0  0
  150.1243  140.8707  156.9775 H   0  0  0  0  0  0  0  0  0  0  0  0
  152.7204  138.4401  157.3415 H   0  0  0  0  0  0  0  0  0  0  0  0
  152.0269  136.4392  153.7851 H   0  0  0  0  0  0  0  0  0  0  0  0
  150.2870  138.1629  153.1527 H   0  0  0  0  0  0  0  0  0  0  0  0
  1  2  1  0  0  0  0
  1 16  1  0  0  0  0
  1 17  1  0  0  0  0
  1 18  1  0  0  0  0
  2  6  1  0  0  0  0
  2  3  1  0  0  0  0
  2 19  1  0  0  0  0
  3  4  1  0  0  0  0
  3 20  1  0  0  0  0
  3 21  1  0  0  0  0
  4  5  1  0  0  0  0
  4 22  1  0  0  0  0
  4 23  1  0  0  0  0
  5  6  1  0  0  0  0
  6  7  1  0  0  0  0
  6 24  1  0  0  0  0
  7  8  2  0  0  0  0
  7  9  1  0  0  0  0
  9 10  1  0  0  0  0
  9 25  1  0  0  0  0
 10 15  1  0  0  0  0
 10 11  2  0  0  0  0
 11 12  1  0  0  0  0
 11 26  1  0  0  0  0
 12 13  2  0  0  0  0
 13 14  1  0  0  0  0
 13 27  1  0  0  0  0
 14 15  2  0  0  0  0
 14 28  1  0  0  0  0
M  END
> <s_m_source_file>
AV-unprocessed.smi

> <i_m_source_file_index>
3101

> <i_lp_mmshare_version>
43012

> <i_f3d_flags>
0

> <s_epik_input>
W0NIM11bQ0BASF0xW0NIMl1bQ0gyXU9bQ0BIXTFDKD1PKVtOSF1jMltjSF1uW2NIXVtjSF1uMg==

> <s_epik_cmdline>
J2VwaWtfcHl0aG9uJywgJy1waCcsICc3LjAnLCAnLXRuJywgJzgnLCAnLW1hJywgJzIwMCcsICctbWV0YWxfYmluZGluZycsICctaW1hZScsICc8aW5maWxlLm1hZT4nLCAnLW9tYWUnLCAnPG91dGZpbGUubWFlPic=

> <r_lp_tautomer_probability>
1

> <r_epik_Ionization_Penalty>
2.83174e-06

> <r_epik_Ionization_Penalty_Charging>
0

> <r_epik_Ionization_Penalty_Neutral>
2.83174e-06

> <r_epik_State_Penalty>
-0

> <r_epik_Charging_Adjusted_Penalty>
0

> <i_epik_Tot_Q>
0

> <i_epik_Tot_abs_Q>
0

> <r_epik_Metal_State_Penalty>
-0

> <b_epik_Metal_Only>
0

> <s_lp_Force_Field>
OPLS_2005

> <r_lp_Energy>
27.517

> <b_lp_Chiralities_Consistent>
1

> <s_lp_Variant>
AV-unprocessed.smi:3101-2

> <Gold.Version>
5.8.1

> <Gold.Id.Protein>
6NUR|6NUR_protein|mol2

> <Gold.PLP.Fitness>
40.7804

> <Gold.PLP.PLP>
-29.4343

> <Gold.PLP.part.hbond>
-2.2223

> <Gold.PLP.part.metal>
0.0000

> <Gold.PLP.part.buried>
-1.5580

> <Gold.PLP.part.nonpolar>
-26.4500

> <Gold.PLP.part.repulsive>
0.3152

> <Gold.PLP.ligand.clash>
0.0000

> <Gold.PLP.ligand.torsion>
0.2152

> <Gold.PLP.Chemscore.Hbond>
1.3126

> <Gold.PLP.Chemscore.CHOScore>
2.6046

> <Gold.PLP.Chemscore.Metal>
0.0000

> <Gold.Chemscore.Hbonds>
donor molecule, donor type, donor heavy atom, donor atom, acceptor molecule, acceptor atom, score
      P1  H  7989  7998       L1    15  0.06
      P1  H  7997  8010       L1     8  0.88
      L1  C    13    27       P1  7949  0.98
      L1  C    14    28       P1  7948  0.71
      L1  C    14    28       P1  7949  0.04
      L1  C    14    28       P1  7957  0.33

> <Gold.PLP.Chemscore.Internal.Correction>
0.0249

> <Gold.Rescore>
     Score         DG    S(hbond)    S(metal)    S(lipo)     H(rot)  DE(clash)    DE(int)     intcor
     12.08     -15.27       0.92        0.00      79.22       1.00       0.14       3.05       ----

> <Gold.Chemscore.Fitness>
12.0775

> <Gold.Chemscore.DG>
-15.2658

> <Gold.Chemscore.ZeroCoef>
-5.4800

> <Gold.Chemscore.Hbond>
0.9213

> <Gold.Chemscore.Metal>
0.0000

> <Gold.Chemscore.Lipo>
79.2206

> <Gold.Chemscore.Internal_Hbond>
0.0000

> <Gold.Chemscore.DEClash>
0.1386

> <Gold.Chemscore.DEInternal>
3.0497

> <Gold.Chemscore.Rot>
1.0000

> <Gold.Chemscore.Internal.Correction>
   9.000000E+99

> <Gold.Chemscore.Hbonds>
donor molecule, donor type, donor heavy atom, donor atom, acceptor molecule, acceptor atom, score
      P1  H  7997  8010       L1     8  0.84

> <Gold.Chemscore.Hbond.Weighted>
-3.0770

> <Gold.Chemscore.Metal.Weighted>
-0.0000

> <Gold.Chemscore.Lipo.Weighted>
-9.2688

> <Gold.Chemscore.Internal_Hbond.Weighted>
0.0000

> <Gold.Chemscore.DEClash.Weighted>
0.1386

> <Gold.Chemscore.DEInternal.Weighted>
3.0497

> <Gold.Chemscore.Rot.Weighted>
2.5600

> <Gold.Chemscore.Internal.Correction.Weighted>
   9.000000E+99

> <Gold.Protein.RotatedTorsions>
[ 6907 6896 6895 6894 ] final -103.84 input  -60.11 | X-H torsion
[ 7974 7965 7964 7962 ] final -151.13 input  175.53 | X-H torsion
[ 8008 7997 7996 7995 ] final   45.43 input   59.86 | X-H torsion
[ 10167 10162 10161 10158 ] final   70.73 input  -65.29 | X-H torsion
[ 10718 10713 10712 10709 ] final  167.16 input   66.30 | X-H torsion
[ 10763 10752 10751 10750 ] final   76.78 input  -60.55 | X-H torsion
[ 11005 11000 10999 10996 ] final  127.98 input  -57.11 | X-H torsion

> <Gold.Protein.ActiveResidues>
 VAL166  LYS551  ARG553  GLY616  TRP617  ASP618  TYR619  PRO620  LYS621  CYS622 
 ASP623  PHE694  ASN695  SER759  ASP760  ASP761  ALA762  ILE779  LEU786  VAL792 
 PHE793  MET794  SER795  GLU796  ALA797  LYS798  CYS799  TRP800  GLU811  SER814 

> <Gold.Protein.RotatedAtoms>
  150.7259  134.0367  159.3751 H   0  0  0  0  0  0  0  0  0  0  0  0  # atno 6907 bound_to 6896
  151.8339  135.0610  160.0449 H   0  0  0  0  0  0  0  0  0  0  0  0  # atno 6908 bound_to 6896
  152.2913  133.5528  159.5595 H   0  0  0  0  0  0  0  0  0  0  0  0  # atno 6909 bound_to 6896
  144.7868  140.4839  143.5801 H   0  0  0  0  0  0  0  0  0  0  0  0  # atno 7974 bound_to 7965
  155.3357  140.3405  155.4239 H   0  0  0  0  0  0  0  0  0  0  0  0  # atno 8008 bound_to 7997
  156.1839  140.1673  156.8259 H   0  0  0  0  0  0  0  0  0  0  0  0  # atno 8009 bound_to 7997
  154.5364  140.0734  156.8417 H   0  0  0  0  0  0  0  0  0  0  0  0  # atno 8010 bound_to 7997
  140.0537  144.5290  150.7344 H   0  0  0  0  0  0  0  0  0  0  0  0  # atno 10167 bound_to 10162
  157.0555  131.0325  151.2665 H   0  0  0  0  0  0  0  0  0  0  0  0  # atno 10718 bound_to 10713
  153.0750  135.4938  154.8386 H   0  0  0  0  0  0  0  0  0  0  0  0  # atno 10763 bound_to 10752
  154.7075  135.3013  154.9250 H   0  0  0  0  0  0  0  0  0  0  0  0  # atno 10764 bound_to 10752
  153.9954  135.6773  153.4809 H   0  0  0  0  0  0  0  0  0  0  0  0  # atno 10765 bound_to 10752
  139.9536  134.9617  156.8935 H   0  0  0  0  0  0  0  0  0  0  0  0  # atno 11005 bound_to 11000
  145.5901  139.1495  143.3187 LP  0  0  0  0  0  0  0  0  0  0  0  0  # atno 17320 bound_to 7965
  146.2103  140.6028  142.9063 LP  0  0  0  0  0  0  0  0  0  0  0  0  # atno 17321 bound_to 7965
  140.7204  143.2584  151.4296 LP  0  0  0  0  0  0  0  0  0  0  0  0  # atno 17342 bound_to 10162
  139.5937  144.1444  152.2118 LP  0  0  0  0  0  0  0  0  0  0  0  0  # atno 17343 bound_to 10162
  157.4996  130.7872  149.7591 LP  0  0  0  0  0  0  0  0  0  0  0  0  # atno 17370 bound_to 10713
  155.9994  130.3889  150.2665 LP  0  0  0  0  0  0  0  0  0  0  0  0  # atno 17371 bound_to 10713
  140.5661  134.0488  155.7415 LP  0  0  0  0  0  0  0  0  0  0  0  0  # atno 17394 bound_to 11000
  141.1204  133.9471  157.2741 LP  0  0  0  0  0  0  0  0  0  0  0  0  # atno 17395 bound_to 11000

$$$$
