AV-unprocessed.smi:744|AV-procd|sdf|3571|dock1
  -GOLD-   22720 0563D 1   1.00000     0.00000
 Structure written by MMmdl.
 34 35  0  0  0  0  0  0  0  0  1 V2000
  144.5897  136.8403  152.0971 O   0  0  0  0  0  0  0  0  0  0  0  0
  145.7931  136.6024  151.9893 C   0  0  0  0  0  0  0  0  0  0  0  0
  146.7509  137.4922  152.2865 N   0  0  0  0  0  0  0  0  0  0  0  0
  146.5140  138.8573  152.7443 C   0  0  0  0  0  0  0  0  0  0  0  0
  147.8219  139.6128  153.0651 C   0  0  1  0  0  0  0  0  0  0  0  0
  147.5729  141.0631  153.5076 C   0  0  0  0  0  0  0  0  0  0  0  0
  148.7244  141.4409  154.4524 C   0  0  0  0  0  0  0  0  0  0  0  0
  149.5661  140.1739  154.6369 C   0  0  0  0  0  0  0  0  0  0  0  0
  148.6522  139.0228  154.2146 C   0  0  2  0  0  0  0  0  0  0  0  0
  149.4123  137.8967  153.8249 O   0  0  0  0  0  0  0  0  0  0  0  0
  146.3228  135.4434  151.5604 N   0  0  0  0  0  0  0  0  0  0  0  0
  145.6430  134.2716  151.1334 C   0  0  0  0  0  0  0  0  0  0  0  0
  146.4807  133.2046  150.7367 C   0  0  0  0  0  0  0  0  0  0  0  0
  145.9042  131.9990  150.2922 C   0  0  0  0  0  0  0  0  0  0  0  0
  144.5026  131.8910  150.2560 C   0  0  0  0  0  0  0  0  0  0  0  0
  143.7413  132.9996  150.6697 C   0  0  0  0  0  0  0  0  0  0  0  0
  144.2918  134.1559  151.0958 N   0  0  0  0  0  0  0  0  0  0  0  0
  147.7138  137.2144  152.1657 H   0  0  0  0  0  0  0  0  0  0  0  0
  145.9408  139.4008  151.9913 H   0  0  0  0  0  0  0  0  0  0  0  0
  145.8833  138.8088  153.6324 H   0  0  0  0  0  0  0  0  0  0  0  0
  148.4467  139.6492  152.1706 H   0  0  0  0  0  0  0  0  0  0  0  0
  147.5090  141.7362  152.6520 H   0  0  0  0  0  0  0  0  0  0  0  0
  146.6283  141.1396  154.0479 H   0  0  0  0  0  0  0  0  0  0  0  0
  149.3272  142.2547  154.0477 H   0  0  0  0  0  0  0  0  0  0  0  0
  148.3248  141.7768  155.4101 H   0  0  0  0  0  0  0  0  0  0  0  0
  150.4322  140.2249  153.9750 H   0  0  0  0  0  0  0  0  0  0  0  0
  149.9378  140.0609  155.6556 H   0  0  0  0  0  0  0  0  0  0  0  0
  147.9999  138.7492  155.0451 H   0  0  0  0  0  0  0  0  0  0  0  0
  149.0094  137.5130  153.0609 H   0  0  0  0  0  0  0  0  0  0  0  0
  147.3304  135.3973  151.5252 H   0  0  0  0  0  0  0  0  0  0  0  0
  147.5559  133.3047  150.7701 H   0  0  0  0  0  0  0  0  0  0  0  0
  146.5272  131.1724  149.9841 H   0  0  0  0  0  0  0  0  0  0  0  0
  144.0235  130.9831  149.9206 H   0  0  0  0  0  0  0  0  0  0  0  0
  142.6623  132.9578  150.6579 H   0  0  0  0  0  0  0  0  0  0  0  0
  1  2  2  0  0  0  0
  2  3  1  0  0  0  0
  2 11  1  0  0  0  0
  3  4  1  0  0  0  0
  3 18  1  0  0  0  0
  4  5  1  0  0  0  0
  4 19  1  0  0  0  0
  4 20  1  0  0  0  0
  5  9  1  0  0  0  0
  5  6  1  0  0  0  0
  5 21  1  0  0  0  0
  6  7  1  0  0  0  0
  6 22  1  0  0  0  0
  6 23  1  0  0  0  0
  7  8  1  0  0  0  0
  7 24  1  0  0  0  0
  7 25  1  0  0  0  0
  8  9  1  0  0  0  0
  8 26  1  0  0  0  0
  8 27  1  0  0  0  0
  9 10  1  0  0  0  0
  9 28  1  0  0  0  0
 10 29  1  0  0  0  0
 11 12  1  0  0  0  0
 11 30  1  0  0  0  0
 12 17  1  0  0  0  0
 12 13  2  0  0  0  0
 13 14  1  0  0  0  0
 13 31  1  0  0  0  0
 14 15  2  0  0  0  0
 14 32  1  0  0  0  0
 15 16  1  0  0  0  0
 15 33  1  0  0  0  0
 16 17  2  0  0  0  0
 16 34  1  0  0  0  0
M  END
> <s_m_source_file>
AV-unprocessed.smi

> <i_m_source_file_index>
744

> <i_lp_mmshare_version>
43012

> <i_f3d_flags>
0

> <s_epik_input>
bjFbY0hdW2NIXVtjSF1bY0hdYzFbTkhdQyg9TylbTkhdW0NIMl1bQ0BASF0yW0NIMl1bQ0gyXVtDSDJdW0NASF0yW09IXQ==

> <s_epik_cmdline>
J2VwaWtfcHl0aG9uJywgJy1waCcsICc3LjAnLCAnLXRuJywgJzgnLCAnLW1hJywgJzIwMCcsICctbWV0YWxfYmluZGluZycsICctaW1hZScsICc8aW5maWxlLm1hZT4nLCAnLW9tYWUnLCAnPG91dGZpbGUubWFlPic=

> <r_lp_tautomer_probability>
1

> <r_epik_Ionization_Penalty>
5.04769e-05

> <r_epik_Ionization_Penalty_Charging>
0

> <r_epik_Ionization_Penalty_Neutral>
5.04769e-05

> <r_epik_State_Penalty>
-0

> <r_epik_Charging_Adjusted_Penalty>
0

> <i_epik_Tot_Q>
0

> <i_epik_Tot_abs_Q>
0

> <r_epik_Metal_State_Penalty>
-0

> <b_epik_Metal_Only>
0

> <s_lp_Force_Field>
OPLS_2005

> <r_lp_Energy>
24.4032

> <b_lp_Chiralities_Consistent>
1

> <s_lp_Variant>
AV-unprocessed.smi:744-4

> <Gold.Version>
5.8.1

> <Gold.Id.Protein>
6NUR|6NUR_protein|mol2

> <Gold.PLP.Fitness>
44.2924

> <Gold.PLP.PLP>
-32.4330

> <Gold.PLP.part.hbond>
-3.0000

> <Gold.PLP.part.metal>
0.0000

> <Gold.PLP.part.buried>
-1.2323

> <Gold.PLP.part.nonpolar>
-29.7776

> <Gold.PLP.part.repulsive>
1.2616

> <Gold.PLP.ligand.clash>
0.0000

> <Gold.PLP.ligand.torsion>
0.0067

> <Gold.PLP.Chemscore.Hbond>
2.9680

> <Gold.PLP.Chemscore.CHOScore>
0.9890

> <Gold.PLP.Chemscore.Metal>
0.0000

> <Gold.Chemscore.Hbonds>
donor molecule, donor type, donor heavy atom, donor atom, acceptor molecule, acceptor atom, score
      L1  H     3    18       P1  7948  1.00
      L1  H    10    29       P1  7948  0.98
      L1  H    11    30       P1  7948  0.99
      L1  C    16    34       P1 10186  1.00

> <Gold.PLP.Chemscore.Internal.Correction>
0.0018

> <Gold.Rescore>
     Score         DG    S(hbond)    S(metal)    S(lipo)     H(rot)  DE(clash)    DE(int)     intcor
     17.54     -19.19       2.82        0.00      76.10       1.81       0.34       1.30       ----

> <Gold.Chemscore.Fitness>
17.5447

> <Gold.Chemscore.DG>
-19.1927

> <Gold.Chemscore.ZeroCoef>
-5.4800

> <Gold.Chemscore.Hbond>
2.8234

> <Gold.Chemscore.Metal>
0.0000

> <Gold.Chemscore.Lipo>
76.1007

> <Gold.Chemscore.Internal_Hbond>
0.0000

> <Gold.Chemscore.DEClash>
0.3448

> <Gold.Chemscore.DEInternal>
1.3032

> <Gold.Chemscore.Rot>
1.8052

> <Gold.Chemscore.Internal.Correction>
   9.000000E+99

> <Gold.Chemscore.Hbonds>
donor molecule, donor type, donor heavy atom, donor atom, acceptor molecule, acceptor atom, score
      L1  H     3    18       P1  7948  0.97
      L1  H    10    29       P1  7948  0.93
      L1  H    11    30       P1  7948  0.88

> <Gold.Chemscore.Hbond.Weighted>
-9.4301

> <Gold.Chemscore.Metal.Weighted>
-0.0000

> <Gold.Chemscore.Lipo.Weighted>
-8.9038

> <Gold.Chemscore.Internal_Hbond.Weighted>
0.0000

> <Gold.Chemscore.DEClash.Weighted>
0.3448

> <Gold.Chemscore.DEInternal.Weighted>
1.3032

> <Gold.Chemscore.Rot.Weighted>
4.6212

> <Gold.Chemscore.Internal.Correction.Weighted>
   9.000000E+99

> <Gold.Protein.RotatedTorsions>
[ 6907 6896 6895 6894 ] final  154.92 input  -60.11 | X-H torsion
[ 7974 7965 7964 7962 ] final  -42.72 input  175.53 | X-H torsion
[ 8008 7997 7996 7995 ] final   40.70 input   59.86 | X-H torsion
[ 10167 10162 10161 10158 ] final  -67.57 input  -65.29 | X-H torsion
[ 10718 10713 10712 10709 ] final  -30.99 input   66.30 | X-H torsion
[ 10763 10752 10751 10750 ] final -152.64 input  -60.55 | X-H torsion
[ 11005 11000 10999 10996 ] final  161.12 input  -57.11 | X-H torsion

> <Gold.Protein.ActiveResidues>
 VAL166  LYS551  ARG553  GLY616  TRP617  ASP618  TYR619  PRO620  LYS621  CYS622 
 ASP623  PHE694  ASN695  SER759  ASP760  ASP761  ALA762  ILE779  LEU786  VAL792 
 PHE793  MET794  SER795  GLU796  ALA797  LYS798  CYS799  TRP800  GLU811  SER814 

> <Gold.Protein.RotatedAtoms>
  152.0516  133.4021  159.4379 H   0  0  0  0  0  0  0  0  0  0  0  0  # atno 6907 bound_to 6896
  150.6870  134.3301  159.4832 H   0  0  0  0  0  0  0  0  0  0  0  0  # atno 6908 bound_to 6896
  152.1112  134.9273  160.0617 H   0  0  0  0  0  0  0  0  0  0  0  0  # atno 6909 bound_to 6896
  146.0088  140.6988  142.9234 H   0  0  0  0  0  0  0  0  0  0  0  0  # atno 7974 bound_to 7965
  155.2575  140.3357  155.4276 H   0  0  0  0  0  0  0  0  0  0  0  0  # atno 8008 bound_to 7997
  156.2189  140.1800  156.7567 H   0  0  0  0  0  0  0  0  0  0  0  0  # atno 8009 bound_to 7997
  154.5795  140.0656  156.9068 H   0  0  0  0  0  0  0  0  0  0  0  0  # atno 8010 bound_to 7997
  140.5572  143.2312  151.6797 H   0  0  0  0  0  0  0  0  0  0  0  0  # atno 10167 bound_to 10162
  156.3929  130.4376  149.7381 H   0  0  0  0  0  0  0  0  0  0  0  0  # atno 10718 bound_to 10713
  154.7981  135.3231  154.7618 H   0  0  0  0  0  0  0  0  0  0  0  0  # atno 10763 bound_to 10752
  153.8292  135.6881  153.4821 H   0  0  0  0  0  0  0  0  0  0  0  0  # atno 10764 bound_to 10752
  153.1682  135.4633  154.9809 H   0  0  0  0  0  0  0  0  0  0  0  0  # atno 10765 bound_to 10752
  140.2127  134.8255  157.3137 H   0  0  0  0  0  0  0  0  0  0  0  0  # atno 11005 bound_to 11000
  144.6945  140.3363  143.7207 LP  0  0  0  0  0  0  0  0  0  0  0  0  # atno 17320 bound_to 7965
  145.7374  139.1754  143.2396 LP  0  0  0  0  0  0  0  0  0  0  0  0  # atno 17321 bound_to 7965
  139.5053  144.3721  152.0460 LP  0  0  0  0  0  0  0  0  0  0  0  0  # atno 17342 bound_to 10162
  140.2844  144.3824  150.6108 LP  0  0  0  0  0  0  0  0  0  0  0  0  # atno 17343 bound_to 10162
  156.4427  130.7869  151.2890 LP  0  0  0  0  0  0  0  0  0  0  0  0  # atno 17370 bound_to 10713
  157.7500  131.0120  150.3366 LP  0  0  0  0  0  0  0  0  0  0  0  0  # atno 17371 bound_to 10713
  140.1934  134.4344  155.7703 LP  0  0  0  0  0  0  0  0  0  0  0  0  # atno 17394 bound_to 11000
  141.2226  133.7038  156.8065 LP  0  0  0  0  0  0  0  0  0  0  0  0  # atno 17395 bound_to 11000

$$$$
