AV-unprocessed.smi:1507|AV-procd|sdf|6085|dock6
  -GOLD-   22720 6203D 1   1.00000     0.00000
 Structure written by MMmdl.
 33 34  0  0  0  0  0  0  0  0  4 V2000
  150.6079  135.6118  154.2095 N   0  5  0  0  0  0  0  0  0  0  0  0
  150.9917  136.8129  155.2253 S   0  0  0  0  0  0  0  0  0  0  0  0
  149.8632  137.0726  156.1314 O   0  0  0  0  0  0  0  0  0  0  0  0
  152.2850  136.5608  155.8853 O   0  0  0  0  0  0  0  0  0  0  0  0
  151.0689  137.9814  154.0864 N   0  5  0  0  0  0  0  0  0  0  0  0
  150.1865  139.1470  154.0843 C   0  0  0  0  0  0  0  0  0  0  0  0
  150.5245  140.1417  155.1866 C   0  0  0  0  0  0  0  0  0  0  0  0
  151.4581  139.8162  156.1962 C   0  0  0  0  0  0  0  0  0  0  0  0
  151.7221  140.7450  157.2242 C   0  0  0  0  0  0  0  0  0  0  0  0
  151.0535  141.9932  157.2388 C   0  0  0  0  0  0  0  0  0  0  0  0
  151.2700  142.9563  158.2487 N   0  0  0  0  0  0  0  0  0  0  0  0
  151.5611  144.3273  157.8331 C   0  0  0  0  0  0  0  0  0  0  0  0
  151.4733  145.2834  159.0340 C   0  0  0  0  0  0  0  0  0  0  0  0
  152.3320  144.8258  160.0726 O   0  0  0  0  0  0  0  0  0  0  0  0
  151.9506  143.5384  160.5445 C   0  0  0  0  0  0  0  0  0  0  0  0
  152.0506  142.5137  159.4014 C   0  0  0  0  0  0  0  0  0  0  0  0
  150.1669  142.2571  156.2471 N   0  3  0  0  0  0  0  0  0  0  0  0
  149.8835  141.3984  155.2434 C   0  0  0  0  0  0  0  0  0  0  0  0
  149.8583  135.9416  153.5901 H   0  0  0  0  0  0  0  0  0  0  0  0
  150.2489  139.6828  153.1365 H   0  0  0  0  0  0  0  0  0  0  0  0
  149.1379  138.8625  154.1786 H   0  0  0  0  0  0  0  0  0  0  0  0
  151.9619  138.8593  156.2068 H   0  0  0  0  0  0  0  0  0  0  0  0
  152.4181  140.4722  158.0024 H   0  0  0  0  0  0  0  0  0  0  0  0
  152.5595  144.3668  157.3954 H   0  0  0  0  0  0  0  0  0  0  0  0
  150.8546  144.6503  157.0675 H   0  0  0  0  0  0  0  0  0  0  0  0
  151.7771  146.2872  158.7374 H   0  0  0  0  0  0  0  0  0  0  0  0
  150.4477  145.3565  159.3996 H   0  0  0  0  0  0  0  0  0  0  0  0
  152.6100  143.2515  161.3635 H   0  0  0  0  0  0  0  0  0  0  0  0
  150.9377  143.5721  160.9490 H   0  0  0  0  0  0  0  0  0  0  0  0
  151.7157  141.5458  159.7704 H   0  0  0  0  0  0  0  0  0  0  0  0
  153.0912  142.3957  159.0964 H   0  0  0  0  0  0  0  0  0  0  0  0
  149.1406  141.7413  154.5359 H   0  0  0  0  0  0  0  0  0  0  0  0
  149.6764  143.1509  156.2618 H   0  0  0  0  0  0  0  0  0  0  0  0
  1  2  1  0  0  0  0
  1 19  1  0  0  0  0
  2  3  2  0  0  0  0
  2  4  2  0  0  0  0
  2  5  1  0  0  0  0
  5  6  1  0  0  0  0
  6  7  1  0  0  0  0
  6 20  1  0  0  0  0
  6 21  1  0  0  0  0
  7 18  1  0  0  0  0
  7  8  2  0  0  0  0
  8  9  1  0  0  0  0
  8 22  1  0  0  0  0
  9 10  2  0  0  0  0
  9 23  1  0  0  0  0
 10 11  1  0  0  0  0
 10 17  1  0  0  0  0
 11 16  1  0  0  0  0
 11 12  1  0  0  0  0
 12 13  1  0  0  0  0
 12 24  1  0  0  0  0
 12 25  1  0  0  0  0
 13 14  1  0  0  0  0
 13 26  1  0  0  0  0
 13 27  1  0  0  0  0
 14 15  1  0  0  0  0
 15 16  1  0  0  0  0
 15 28  1  0  0  0  0
 15 29  1  0  0  0  0
 16 30  1  0  0  0  0
 16 31  1  0  0  0  0
 17 18  2  0  0  0  0
 17 33  1  0  0  0  0
 18 32  1  0  0  0  0
M  CHG  1   1  -1
M  CHG  1   5  -1
M  CHG  1  17   1
M  END
> <s_m_source_file>
AV-unprocessed.smi

> <i_m_source_file_index>
1507

> <i_lp_mmshare_version>
43012

> <i_f3d_flags>
0

> <s_epik_input>
W05IMl1TKD1PKSg9TylbTkhdW0NIMl1jMVtjSF1bY0hdYyhuW2NIXTEpTjJbQ0gyXVtDSDJdT1tDSDJdW0NIMl0y

> <s_epik_cmdline>
J2VwaWtfcHl0aG9uJywgJy1waCcsICc3LjAnLCAnLXRuJywgJzgnLCAnLW1hJywgJzIwMCcsICctbWV0YWxfYmluZGluZycsICctaW1hZScsICc8aW5maWxlLm1hZT4nLCAnLW9tYWUnLCAnPG91dGZpbGUubWFlPic=

> <r_epik_Ionization_Penalty>
8.77184

> <r_epik_Ionization_Penalty_Charging>
8.77184

> <r_epik_Ionization_Penalty_Neutral>
3.18726e-12

> <r_epik_State_Penalty>
5.60098

> <r_epik_Charging_Adjusted_Penalty>
14.3728

> <i_epik_Tot_Q>
-1

> <i_epik_Tot_abs_Q>
3

> <r_epik_Metal_State_Penalty>
2.46454

> <b_epik_Metal_Only>
1

> <s_lp_Force_Field>
OPLS_2005

> <r_lp_Energy>
15.9769

> <b_lp_Chiralities_Consistent>
1

> <s_lp_Variant>
AV-unprocessed.smi:1507-6

> <Gold.Version>
5.8.1

> <Gold.Id.Protein>
6NUR|6NUR_protein|mol2

> <Gold.PLP.Fitness>
46.7436

> <Gold.PLP.PLP>
-35.0999

> <Gold.PLP.part.hbond>
-4.0000

> <Gold.PLP.part.metal>
0.0000

> <Gold.PLP.part.buried>
-2.3923

> <Gold.PLP.part.nonpolar>
-29.1857

> <Gold.PLP.part.repulsive>
0.4983

> <Gold.PLP.ligand.clash>
0.0000

> <Gold.PLP.ligand.torsion>
0.8604

> <Gold.PLP.Chemscore.Hbond>
3.9920

> <Gold.PLP.Chemscore.CHOScore>
0.0000

> <Gold.PLP.Chemscore.Metal>
0.0000

> <Gold.Chemscore.Hbonds>
donor molecule, donor type, donor heavy atom, donor atom, acceptor molecule, acceptor atom, score
      L1  H     1    19       P1  7948  0.70
      L1  H    17    33       P1  8028  2.00
      P1  H 10752 10764       L1     4  0.94

> <Gold.PLP.Chemscore.Internal.Correction>
1.3885

> <Gold.Rescore>
     Score         DG    S(hbond)    S(metal)    S(lipo)     H(rot)  DE(clash)    DE(int)     intcor
     16.51     -18.33       2.46        0.00      81.04       1.89       0.98       0.84       ----

> <Gold.Chemscore.Fitness>
16.5089

> <Gold.Chemscore.DG>
-18.3268

> <Gold.Chemscore.ZeroCoef>
-5.4800

> <Gold.Chemscore.Hbond>
2.4578

> <Gold.Chemscore.Metal>
0.0000

> <Gold.Chemscore.Lipo>
81.0422

> <Gold.Chemscore.Internal_Hbond>
0.0000

> <Gold.Chemscore.DEClash>
0.9763

> <Gold.Chemscore.DEInternal>
0.8416

> <Gold.Chemscore.Rot>
1.8922

> <Gold.Chemscore.Internal.Correction>
   9.000000E+99

> <Gold.Chemscore.Hbonds>
donor molecule, donor type, donor heavy atom, donor atom, acceptor molecule, acceptor atom, score
      L1  H     1    19       P1  7948  0.07
      L1  H    17    33       P1  8028  1.00
      P1  H 10752 10764       L1     4  0.23

> <Gold.Chemscore.Hbond.Weighted>
-8.2090

> <Gold.Chemscore.Metal.Weighted>
-0.0000

> <Gold.Chemscore.Lipo.Weighted>
-9.4819

> <Gold.Chemscore.Internal_Hbond.Weighted>
0.0000

> <Gold.Chemscore.DEClash.Weighted>
0.9763

> <Gold.Chemscore.DEInternal.Weighted>
0.8416

> <Gold.Chemscore.Rot.Weighted>
4.8441

> <Gold.Chemscore.Internal.Correction.Weighted>
   9.000000E+99

> <Gold.Protein.RotatedTorsions>
[ 6907 6896 6895 6894 ] final  137.72 input  -60.11 | X-H torsion
[ 7974 7965 7964 7962 ] final -114.12 input  175.53 | X-H torsion
[ 8008 7997 7996 7995 ] final -166.23 input   59.86 | X-H torsion
[ 10167 10162 10161 10158 ] final -155.95 input  -65.29 | X-H torsion
[ 10718 10713 10712 10709 ] final  150.67 input   66.30 | X-H torsion
[ 10763 10752 10751 10750 ] final  -49.75 input  -60.55 | X-H torsion
[ 11005 11000 10999 10996 ] final  151.40 input  -57.11 | X-H torsion

> <Gold.Protein.ActiveResidues>
 VAL166  LYS551  ARG553  GLY616  TRP617  ASP618  TYR619  PRO620  LYS621  CYS622 
 ASP623  PHE694  ASN695  SER759  ASP760  ASP761  ALA762  ILE779  LEU786  VAL792 
 PHE793  MET794  SER795  GLU796  ALA797  LYS798  CYS799  TRP800  GLU811  SER814 

> <Gold.Protein.RotatedAtoms>
  152.2748  133.5415  159.5461 H   0  0  0  0  0  0  0  0  0  0  0  0  # atno 6907 bound_to 6896
  150.7173  134.0647  159.3852 H   0  0  0  0  0  0  0  0  0  0  0  0  # atno 6908 bound_to 6896
  151.8560  135.0541  160.0515 H   0  0  0  0  0  0  0  0  0  0  0  0  # atno 6909 bound_to 6896
  145.1239  140.8685  143.3797 H   0  0  0  0  0  0  0  0  0  0  0  0  # atno 7974 bound_to 7965
  155.8609  140.0978  157.1614 H   0  0  0  0  0  0  0  0  0  0  0  0  # atno 8008 bound_to 7997
  154.3990  140.1365  156.4022 H   0  0  0  0  0  0  0  0  0  0  0  0  # atno 8009 bound_to 7997
  155.7857  140.3457  155.5324 H   0  0  0  0  0  0  0  0  0  0  0  0  # atno 8010 bound_to 7997
  139.6890  143.9453  152.2375 H   0  0  0  0  0  0  0  0  0  0  0  0  # atno 10167 bound_to 10162
  157.2804  131.0834  151.1535 H   0  0  0  0  0  0  0  0  0  0  0  0  # atno 10718 bound_to 10713
  154.0991  135.6566  153.4865 H   0  0  0  0  0  0  0  0  0  0  0  0  # atno 10763 bound_to 10752
  153.0295  135.5221  154.7304 H   0  0  0  0  0  0  0  0  0  0  0  0  # atno 10764 bound_to 10752
  154.6451  135.2993  155.0025 H   0  0  0  0  0  0  0  0  0  0  0  0  # atno 10765 bound_to 10752
  140.1215  134.8860  157.2079 H   0  0  0  0  0  0  0  0  0  0  0  0  # atno 11005 bound_to 11000
  145.0709  139.3032  143.5832 LP  0  0  0  0  0  0  0  0  0  0  0  0  # atno 17320 bound_to 7965
  146.3519  140.0184  142.8661 LP  0  0  0  0  0  0  0  0  0  0  0  0  # atno 17321 bound_to 7965
  139.9263  144.6769  150.8409 LP  0  0  0  0  0  0  0  0  0  0  0  0  # atno 17342 bound_to 10162
  140.7677  143.3339  151.2350 LP  0  0  0  0  0  0  0  0  0  0  0  0  # atno 17343 bound_to 10162
  157.2972  130.6825  149.6144 LP  0  0  0  0  0  0  0  0  0  0  0  0  # atno 17370 bound_to 10713
  155.9664  130.4403  150.5294 LP  0  0  0  0  0  0  0  0  0  0  0  0  # atno 17371 bound_to 10713
  140.2959  134.3187  155.7302 LP  0  0  0  0  0  0  0  0  0  0  0  0  # atno 17394 bound_to 11000
  141.2152  133.7562  156.9570 LP  0  0  0  0  0  0  0  0  0  0  0  0  # atno 17395 bound_to 11000

$$$$
