AV-unprocessed.smi:3292|AV-procd|sdf|12625|dock9
  -GOLD-   2272018563D 1   1.00000     0.00000
 Structure written by MMmdl.
 38 39  0  0  0  0  0  0  0  0  1 V2000
  153.4812  136.9886  158.7361 C   0  0  0  0  0  0  0  0  0  0  0  0
  152.5029  137.7413  157.8243 C   0  0  2  0  0  0  0  0  0  0  0  0
  153.0699  137.8934  156.3968 C   0  0  0  0  0  0  0  0  0  0  0  0
  152.1009  138.4352  155.4615 N   0  0  0  0  0  0  0  0  0  0  0  0
  151.5337  137.7871  154.3721 C   0  0  0  0  0  0  0  0  0  0  0  0
  150.6720  138.6857  153.7848 C   0  0  0  0  0  0  0  0  0  0  0  0
  150.7003  139.8891  154.4857 N   0  0  0  0  0  0  0  0  0  0  0  0
  151.5696  139.6655  155.4626 C   0  0  0  0  0  0  0  0  0  0  0  0
  152.2147  139.0487  158.4137 N   0  0  0  0  0  0  0  0  0  0  0  0
  153.1173  139.8682  158.9726 C   0  0  0  0  0  0  0  0  0  0  0  0
  154.3209  139.6213  159.0498 O   0  0  0  0  0  0  0  0  0  0  0  0
  152.5465  140.9815  159.4533 N   0  0  0  0  0  0  0  0  0  0  0  0
  153.2473  142.0498  160.1591 C   0  0  0  0  0  0  0  0  0  0  0  0
  152.9363  143.4319  159.5550 C   0  0  2  0  0  0  0  0  0  0  0  0
  151.9772  144.2610  160.3839 C   0  0  0  0  0  0  0  0  0  0  0  0
  151.5142  145.3073  159.3751 C   0  0  0  0  0  0  0  0  0  0  0  0
  151.5312  144.6573  158.1077 O   0  0  0  0  0  0  0  0  0  0  0  0
  152.2116  143.4096  158.2069 C   0  0  0  0  0  0  0  0  0  0  0  0
  153.6956  135.9941  158.3441 H   0  0  0  0  0  0  0  0  0  0  0  0
  153.0684  136.8640  159.7379 H   0  0  0  0  0  0  0  0  0  0  0  0
  154.4287  137.5204  158.8293 H   0  0  0  0  0  0  0  0  0  0  0  0
  151.5884  137.1470  157.7763 H   0  0  0  0  0  0  0  0  0  0  0  0
  153.9541  138.5326  156.4010 H   0  0  0  0  0  0  0  0  0  0  0  0
  153.3895  136.9227  156.0158 H   0  0  0  0  0  0  0  0  0  0  0  0
  151.7775  136.7663  154.1170 H   0  0  0  0  0  0  0  0  0  0  0  0
  150.0404  138.5606  152.9177 H   0  0  0  0  0  0  0  0  0  0  0  0
  151.8197  140.4129  156.2015 H   0  0  0  0  0  0  0  0  0  0  0  0
  151.2498  139.3453  158.4044 H   0  0  0  0  0  0  0  0  0  0  0  0
  151.5495  141.0912  159.3400 H   0  0  0  0  0  0  0  0  0  0  0  0
  153.0123  142.0340  161.2249 H   0  0  0  0  0  0  0  0  0  0  0  0
  154.3167  141.8523  160.0821 H   0  0  0  0  0  0  0  0  0  0  0  0
  153.8655  143.9933  159.4414 H   0  0  0  0  0  0  0  0  0  0  0  0
  151.1299  143.6544  160.7077 H   0  0  0  0  0  0  0  0  0  0  0  0
  152.4411  144.7000  161.2677 H   0  0  0  0  0  0  0  0  0  0  0  0
  150.5256  145.7029  159.6083 H   0  0  0  0  0  0  0  0  0  0  0  0
  152.2152  146.1426  159.3455 H   0  0  0  0  0  0  0  0  0  0  0  0
  152.8959  143.2660  157.3709 H   0  0  0  0  0  0  0  0  0  0  0  0
  151.4691  142.6110  158.1772 H   0  0  0  0  0  0  0  0  0  0  0  0
  1  2  1  0  0  0  0
  1 19  1  0  0  0  0
  1 20  1  0  0  0  0
  1 21  1  0  0  0  0
  2  3  1  0  0  0  0
  2  9  1  0  0  0  0
  2 22  1  0  0  0  0
  3  4  1  0  0  0  0
  3 23  1  0  0  0  0
  3 24  1  0  0  0  0
  4  8  1  0  0  0  0
  4  5  1  0  0  0  0
  5  6  2  0  0  0  0
  5 25  1  0  0  0  0
  6  7  1  0  0  0  0
  6 26  1  0  0  0  0
  7  8  2  0  0  0  0
  8 27  1  0  0  0  0
  9 10  1  0  0  0  0
  9 28  1  0  0  0  0
 10 11  2  0  0  0  0
 10 12  1  0  0  0  0
 12 13  1  0  0  0  0
 12 29  1  0  0  0  0
 13 14  1  0  0  0  0
 13 30  1  0  0  0  0
 13 31  1  0  0  0  0
 14 18  1  0  0  0  0
 14 15  1  0  0  0  0
 14 32  1  0  0  0  0
 15 16  1  0  0  0  0
 15 33  1  0  0  0  0
 15 34  1  0  0  0  0
 16 17  1  0  0  0  0
 16 35  1  0  0  0  0
 16 36  1  0  0  0  0
 17 18  1  0  0  0  0
 18 37  1  0  0  0  0
 18 38  1  0  0  0  0
M  END
> <s_m_source_file>
AV-unprocessed.smi

> <i_m_source_file_index>
3292

> <i_lp_mmshare_version>
43012

> <i_f3d_flags>
0

> <s_epik_input>
W2NIXTFuW2NIXVtjSF1uMVtDSDJdW0NAQEhdKFtDSDNdKVtOSF1DKD1PKVtOSF1bQ0gyXVtDQEBIXTJbQ0gyXVtDSDJdT1tDSDJdMg==

> <s_epik_cmdline>
J2VwaWtfcHl0aG9uJywgJy1waCcsICc3LjAnLCAnLXRuJywgJzgnLCAnLW1hJywgJzIwMCcsICctbWV0YWxfYmluZGluZycsICctaW1hZScsICc8aW5maWxlLm1hZT4nLCAnLW9tYWUnLCAnPG91dGZpbGUubWFlPic=

> <r_lp_tautomer_probability>
1

> <r_epik_Ionization_Penalty>
0.621291

> <r_epik_Ionization_Penalty_Charging>
0.621234

> <r_epik_Ionization_Penalty_Neutral>
5.72199e-05

> <r_epik_State_Penalty>
0.637278

> <r_epik_Charging_Adjusted_Penalty>
1.25851

> <i_epik_Tot_Q>
0

> <i_epik_Tot_abs_Q>
0

> <r_epik_Metal_State_Penalty>
0.306757

> <b_epik_Metal_Only>
0

> <s_lp_Force_Field>
OPLS_2005

> <r_lp_Energy>
18.0177

> <b_lp_Chiralities_Consistent>
1

> <s_lp_Variant>
AV-unprocessed.smi:3292-5

> <Gold.Version>
5.8.1

> <Gold.Id.Protein>
6NUR|6NUR_protein|mol2

> <Gold.PLP.Fitness>
46.3045

> <Gold.PLP.PLP>
-36.9407

> <Gold.PLP.part.hbond>
-2.0000

> <Gold.PLP.part.metal>
0.0000

> <Gold.PLP.part.buried>
-5.6993

> <Gold.PLP.part.nonpolar>
-29.8781

> <Gold.PLP.part.repulsive>
0.4429

> <Gold.PLP.ligand.clash>
0.0065

> <Gold.PLP.ligand.torsion>
1.0177

> <Gold.PLP.Chemscore.Hbond>
1.9500

> <Gold.PLP.Chemscore.CHOScore>
1.8357

> <Gold.PLP.Chemscore.Metal>
0.0000

> <Gold.Chemscore.Hbonds>
donor molecule, donor type, donor heavy atom, donor atom, acceptor molecule, acceptor atom, score
      P1  H  7989  7998       L1     7  1.00
      P1  H  7997  8009       L1    11  1.00
      L1  C     5    25       P1  7949  0.23
      L1  C     6    26       P1  7948  0.50
      L1  C     6    26       P1  7957  1.00

> <Gold.PLP.Chemscore.Internal.Correction>
0.0487

> <Gold.Rescore>
     Score         DG    S(hbond)    S(metal)    S(lipo)     H(rot)  DE(clash)    DE(int)     intcor
     15.29     -17.03       1.89        0.00      91.88       2.16       0.01       1.74       ----

> <Gold.Chemscore.Fitness>
15.2852

> <Gold.Chemscore.DG>
-17.0323

> <Gold.Chemscore.ZeroCoef>
-5.4800

> <Gold.Chemscore.Hbond>
1.8940

> <Gold.Chemscore.Metal>
0.0000

> <Gold.Chemscore.Lipo>
91.8818

> <Gold.Chemscore.Internal_Hbond>
0.0000

> <Gold.Chemscore.DEClash>
0.0050

> <Gold.Chemscore.DEInternal>
1.7421

> <Gold.Chemscore.Rot>
2.1577

> <Gold.Chemscore.Internal.Correction>
   9.000000E+99

> <Gold.Chemscore.Hbonds>
donor molecule, donor type, donor heavy atom, donor atom, acceptor molecule, acceptor atom, score
      P1  H  7989  7998       L1     7  0.09
      P1  H  7997  8009       L1    11  0.45

> <Gold.Chemscore.Hbond.Weighted>
-6.3258

> <Gold.Chemscore.Metal.Weighted>
-0.0000

> <Gold.Chemscore.Lipo.Weighted>
-10.7502

> <Gold.Chemscore.Internal_Hbond.Weighted>
0.0000

> <Gold.Chemscore.DEClash.Weighted>
0.0050

> <Gold.Chemscore.DEInternal.Weighted>
1.7421

> <Gold.Chemscore.Rot.Weighted>
5.5237

> <Gold.Chemscore.Internal.Correction.Weighted>
   9.000000E+99

> <Gold.Protein.RotatedTorsions>
[ 6907 6896 6895 6894 ] final -158.69 input  -60.11 | X-H torsion
[ 7974 7965 7964 7962 ] final -104.13 input  175.53 | X-H torsion
[ 8008 7997 7996 7995 ] final  128.01 input   59.86 | X-H torsion
[ 10167 10162 10161 10158 ] final  -59.14 input  -65.29 | X-H torsion
[ 10718 10713 10712 10709 ] final   -1.08 input   66.30 | X-H torsion
[ 10763 10752 10751 10750 ] final  -22.63 input  -60.55 | X-H torsion
[ 11005 11000 10999 10996 ] final    0.19 input  -57.11 | X-H torsion

> <Gold.Protein.ActiveResidues>
 VAL166  LYS551  ARG553  GLY616  TRP617  ASP618  TYR619  PRO620  LYS621  CYS622 
 ASP623  PHE694  ASN695  SER759  ASP760  ASP761  ALA762  ILE779  LEU786  VAL792 
 PHE793  MET794  SER795  GLU796  ALA797  LYS798  CYS799  TRP800  GLU811  SER814 

> <Gold.Protein.RotatedAtoms>
  151.3221  133.4035  159.2655 H   0  0  0  0  0  0  0  0  0  0  0  0  # atno 6907 bound_to 6896
  151.0025  134.9334  159.7972 H   0  0  0  0  0  0  0  0  0  0  0  0  # atno 6908 bound_to 6896
  152.5279  134.3186  159.9192 H   0  0  0  0  0  0  0  0  0  0  0  0  # atno 6909 bound_to 6896
  145.2470  140.9225  143.3117 H   0  0  0  0  0  0  0  0  0  0  0  0  # atno 7974 bound_to 7965
  156.2905  140.2655  156.2366 H   0  0  0  0  0  0  0  0  0  0  0  0  # atno 8008 bound_to 7997
  155.0019  140.0387  157.2382 H   0  0  0  0  0  0  0  0  0  0  0  0  # atno 8009 bound_to 7997
  154.7594  140.2758  155.6232 H   0  0  0  0  0  0  0  0  0  0  0  0  # atno 8010 bound_to 7997
  140.6154  143.2400  151.5610 H   0  0  0  0  0  0  0  0  0  0  0  0  # atno 10167 bound_to 10162
  156.8109  130.5424  149.5709 H   0  0  0  0  0  0  0  0  0  0  0  0  # atno 10718 bound_to 10713
  153.6549  135.6979  153.5196 H   0  0  0  0  0  0  0  0  0  0  0  0  # atno 10763 bound_to 10752
  153.2677  135.4224  155.0956 H   0  0  0  0  0  0  0  0  0  0  0  0  # atno 10764 bound_to 10752
  154.8467  135.3570  154.6094 H   0  0  0  0  0  0  0  0  0  0  0  0  # atno 10765 bound_to 10752
  140.6293  133.9589  155.8266 H   0  0  0  0  0  0  0  0  0  0  0  0  # atno 11005 bound_to 11000
  144.9537  139.4055  143.6390 LP  0  0  0  0  0  0  0  0  0  0  0  0  # atno 17320 bound_to 7965
  146.3313  139.8557  142.8865 LP  0  0  0  0  0  0  0  0  0  0  0  0  # atno 17321 bound_to 7965
  139.5394  144.2689  152.1320 LP  0  0  0  0  0  0  0  0  0  0  0  0  # atno 17342 bound_to 10162
  140.1897  144.4763  150.6485 LP  0  0  0  0  0  0  0  0  0  0  0  0  # atno 17343 bound_to 10162
  156.1045  130.5994  150.9948 LP  0  0  0  0  0  0  0  0  0  0  0  0  # atno 17370 bound_to 10713
  157.6506  131.0897  150.8059 LP  0  0  0  0  0  0  0  0  0  0  0  0  # atno 17371 bound_to 10713
  141.0686  134.0239  157.3558 LP  0  0  0  0  0  0  0  0  0  0  0  0  # atno 17394 bound_to 11000
  139.9122  135.0192  156.7738 LP  0  0  0  0  0  0  0  0  0  0  0  0  # atno 17395 bound_to 11000

$$$$
