AV-unprocessed.smi:1193|AV-procd|sdf|4989|dock6
  -GOLD-   22720 3593D 1   1.00000     0.00000
 Structure written by MMmdl.
 38 39  0  0  0  0  0  0  0  0  1 V2000
  151.8328  138.4418  154.4645 C   0  0  0  0  0  0  0  0  0  0  0  0
  150.4558  138.3238  154.1236 O   0  0  0  0  0  0  0  0  0  0  0  0
  149.6486  139.4396  154.2395 C   0  0  0  0  0  0  0  0  0  0  0  0
  150.1917  140.5792  154.7365 N   0  0  0  0  0  0  0  0  0  0  0  0
  149.4050  141.6687  154.8528 C   0  0  0  0  0  0  0  0  0  0  0  0
  148.0460  141.6795  154.4895 C   0  0  0  0  0  0  0  0  0  0  0  0
  147.4801  140.4986  153.9742 C   0  0  0  0  0  0  0  0  0  0  0  0
  148.2968  139.3503  153.8324 C   0  0  0  0  0  0  0  0  0  0  0  0
  147.8263  138.1016  153.3401 N   0  0  0  0  0  0  0  0  0  0  0  0
  146.5937  137.5736  153.4257 C   0  0  0  0  0  0  0  0  0  0  0  0
  145.6255  138.1033  153.9707 O   0  0  0  0  0  0  0  0  0  0  0  0
  146.5377  136.3792  152.8188 N   0  0  0  0  0  0  0  0  0  0  0  0
  145.3503  135.5307  152.7369 C   0  0  0  0  0  0  0  0  0  0  0  0
  145.6623  134.0295  152.8758 C   0  0  0  0  0  0  0  0  0  0  0  0
  146.2927  133.6197  153.8526 O   0  0  0  0  0  0  0  0  0  0  0  0
  145.2404  133.2003  151.8988 N   0  0  0  0  0  0  0  0  0  0  0  0
  144.5085  133.5981  150.6966 C   0  0  0  0  0  0  0  0  0  0  0  0
  144.4966  132.3642  149.7936 C   0  0  0  0  0  0  0  0  0  0  0  0
  144.6344  131.1952  150.7590 C   0  0  0  0  0  0  0  0  0  0  0  0
  145.4720  131.7572  151.9082 C   0  0  0  0  0  0  0  0  0  0  0  0
  152.3246  137.4810  154.3126 H   0  0  0  0  0  0  0  0  0  0  0  0
  151.9625  138.7177  155.5120 H   0  0  0  0  0  0  0  0  0  0  0  0
  152.3389  139.1752  153.8349 H   0  0  0  0  0  0  0  0  0  0  0  0
  149.8716  142.5565  155.2528 H   0  0  0  0  0  0  0  0  0  0  0  0
  147.4495  142.5719  154.6084 H   0  0  0  0  0  0  0  0  0  0  0  0
  146.4332  140.4955  153.7137 H   0  0  0  0  0  0  0  0  0  0  0  0
  148.4951  137.5766  152.7957 H   0  0  0  0  0  0  0  0  0  0  0  0
  147.3815  136.0197  152.3978 H   0  0  0  0  0  0  0  0  0  0  0  0
  144.6272  135.8361  153.4950 H   0  0  0  0  0  0  0  0  0  0  0  0
  144.8831  135.7015  151.7669 H   0  0  0  0  0  0  0  0  0  0  0  0
  143.4904  133.8746  150.9752 H   0  0  0  0  0  0  0  0  0  0  0  0
  144.9676  134.4485  150.1909 H   0  0  0  0  0  0  0  0  0  0  0  0
  143.6003  132.3006  149.1761 H   0  0  0  0  0  0  0  0  0  0  0  0
  145.3599  132.3902  149.1272 H   0  0  0  0  0  0  0  0  0  0  0  0
  143.6483  130.9112  151.1291 H   0  0  0  0  0  0  0  0  0  0  0  0
  145.0848  130.3154  150.2985 H   0  0  0  0  0  0  0  0  0  0  0  0
  146.5327  131.5678  151.7378 H   0  0  0  0  0  0  0  0  0  0  0  0
  145.1947  131.3026  152.8606 H   0  0  0  0  0  0  0  0  0  0  0  0
  1  2  1  0  0  0  0
  1 21  1  0  0  0  0
  1 22  1  0  0  0  0
  1 23  1  0  0  0  0
  2  3  1  0  0  0  0
  3  8  1  0  0  0  0
  3  4  2  0  0  0  0
  4  5  1  0  0  0  0
  5  6  2  0  0  0  0
  5 24  1  0  0  0  0
  6  7  1  0  0  0  0
  6 25  1  0  0  0  0
  7  8  2  0  0  0  0
  7 26  1  0  0  0  0
  8  9  1  0  0  0  0
  9 10  1  0  0  0  0
  9 27  1  0  0  0  0
 10 11  2  0  0  0  0
 10 12  1  0  0  0  0
 12 13  1  0  0  0  0
 12 28  1  0  0  0  0
 13 14  1  0  0  0  0
 13 29  1  0  0  0  0
 13 30  1  0  0  0  0
 14 15  2  0  0  0  0
 14 16  1  0  0  0  0
 16 20  1  0  0  0  0
 16 17  1  0  0  0  0
 17 18  1  0  0  0  0
 17 31  1  0  0  0  0
 17 32  1  0  0  0  0
 18 19  1  0  0  0  0
 18 33  1  0  0  0  0
 18 34  1  0  0  0  0
 19 20  1  0  0  0  0
 19 35  1  0  0  0  0
 19 36  1  0  0  0  0
 20 37  1  0  0  0  0
 20 38  1  0  0  0  0
M  END
> <s_m_source_file>
AV-unprocessed.smi

> <i_m_source_file_index>
1193

> <i_lp_mmshare_version>
43012

> <i_f3d_flags>
0

> <s_epik_input>
W0NIM11PYzFuW2NIXVtjSF1bY0hdYzFbTkhdQyg9TylbTkhdW0NIMl1DKD1PKU4yW0NIMl1bQ0gyXVtDSDJdW0NIMl0y

> <s_epik_cmdline>
J2VwaWtfcHl0aG9uJywgJy1waCcsICc3LjAnLCAnLXRuJywgJzgnLCAnLW1hJywgJzIwMCcsICctbWV0YWxfYmluZGluZycsICctaW1hZScsICc8aW5maWxlLm1hZT4nLCAnLW9tYWUnLCAnPG91dGZpbGUubWFlPic=

> <r_lp_tautomer_probability>
1

> <r_epik_Ionization_Penalty>
0.000141665

> <r_epik_Ionization_Penalty_Charging>
0

> <r_epik_Ionization_Penalty_Neutral>
0.000141665

> <r_epik_State_Penalty>
-0

> <r_epik_Charging_Adjusted_Penalty>
0

> <i_epik_Tot_Q>
0

> <i_epik_Tot_abs_Q>
0

> <r_epik_Metal_State_Penalty>
-0

> <b_epik_Metal_Only>
0

> <s_lp_Force_Field>
OPLS_2005

> <r_lp_Energy>
26.7485

> <b_lp_Chiralities_Consistent>
1

> <s_lp_Variant>
AV-unprocessed.smi:1193-1

> <Gold.Version>
5.8.1

> <Gold.Id.Protein>
6NUR|6NUR_protein|mol2

> <Gold.PLP.Fitness>
43.8928

> <Gold.PLP.PLP>
-33.0473

> <Gold.PLP.part.hbond>
-3.0000

> <Gold.PLP.part.metal>
0.0000

> <Gold.PLP.part.buried>
-2.9188

> <Gold.PLP.part.nonpolar>
-27.5391

> <Gold.PLP.part.repulsive>
0.6170

> <Gold.PLP.ligand.clash>
0.0000

> <Gold.PLP.ligand.torsion>
0.3886

> <Gold.PLP.Chemscore.Hbond>
2.9280

> <Gold.PLP.Chemscore.CHOScore>
0.9428

> <Gold.PLP.Chemscore.Metal>
0.0000

> <Gold.Chemscore.Hbonds>
donor molecule, donor type, donor heavy atom, donor atom, acceptor molecule, acceptor atom, score
      L1  H     9    27       P1  7948  1.00
      L1  H    12    28       P1  7948  1.00
      P1  H  7989  7998       L1     4  0.91
      L1  C     5    24       P1  8028  0.97

> <Gold.PLP.Chemscore.Internal.Correction>
0.0104

> <Gold.Rescore>
     Score         DG    S(hbond)    S(metal)    S(lipo)     H(rot)  DE(clash)    DE(int)     intcor
     15.97     -17.64       2.30        0.00      72.90       1.58       0.17       1.50       ----

> <Gold.Chemscore.Fitness>
15.9674

> <Gold.Chemscore.DG>
-17.6386

> <Gold.Chemscore.ZeroCoef>
-5.4800

> <Gold.Chemscore.Hbond>
2.2979

> <Gold.Chemscore.Metal>
0.0000

> <Gold.Chemscore.Lipo>
72.9015

> <Gold.Chemscore.Internal_Hbond>
0.0000

> <Gold.Chemscore.DEClash>
0.1727

> <Gold.Chemscore.DEInternal>
1.4985

> <Gold.Chemscore.Rot>
1.5804

> <Gold.Chemscore.Internal.Correction>
   9.000000E+99

> <Gold.Chemscore.Hbonds>
donor molecule, donor type, donor heavy atom, donor atom, acceptor molecule, acceptor atom, score
      L1  H     9    27       P1  7948  0.98
      L1  H    12    28       P1  7948  0.96
      P1  H  7989  7998       L1     4  0.21

> <Gold.Chemscore.Hbond.Weighted>
-7.6751

> <Gold.Chemscore.Metal.Weighted>
-0.0000

> <Gold.Chemscore.Lipo.Weighted>
-8.5295

> <Gold.Chemscore.Internal_Hbond.Weighted>
0.0000

> <Gold.Chemscore.DEClash.Weighted>
0.1727

> <Gold.Chemscore.DEInternal.Weighted>
1.4985

> <Gold.Chemscore.Rot.Weighted>
4.0459

> <Gold.Chemscore.Internal.Correction.Weighted>
   9.000000E+99

> <Gold.Protein.RotatedTorsions>
[ 6907 6896 6895 6894 ] final -126.22 input  -60.11 | X-H torsion
[ 7974 7965 7964 7962 ] final  114.04 input  175.53 | X-H torsion
[ 8008 7997 7996 7995 ] final -166.59 input   59.86 | X-H torsion
[ 10167 10162 10161 10158 ] final  -60.74 input  -65.29 | X-H torsion
[ 10718 10713 10712 10709 ] final -112.69 input   66.30 | X-H torsion
[ 10763 10752 10751 10750 ] final  179.37 input  -60.55 | X-H torsion
[ 11005 11000 10999 10996 ] final -143.77 input  -57.11 | X-H torsion

> <Gold.Protein.ActiveResidues>
 VAL166  LYS551  ARG553  GLY616  TRP617  ASP618  TYR619  PRO620  LYS621  CYS622 
 ASP623  PHE694  ASN695  SER759  ASP760  ASP761  ALA762  ILE779  LEU786  VAL792 
 PHE793  MET794  SER795  GLU796  ALA797  LYS798  CYS799  TRP800  GLU811  SER814 

> <Gold.Protein.RotatedAtoms>
  150.8947  133.7197  159.2894 H   0  0  0  0  0  0  0  0  0  0  0  0  # atno 6907 bound_to 6896
  151.4736  135.1046  159.9768 H   0  0  0  0  0  0  0  0  0  0  0  0  # atno 6908 bound_to 6896
  152.4841  133.8281  159.7144 H   0  0  0  0  0  0  0  0  0  0  0  0  # atno 6909 bound_to 6896
  145.2094  139.2913  143.4276 H   0  0  0  0  0  0  0  0  0  0  0  0  # atno 7974 bound_to 7965
  155.8659  140.0985  157.1583 H   0  0  0  0  0  0  0  0  0  0  0  0  # atno 8008 bound_to 7997
  154.3993  140.1356  156.4081 H   0  0  0  0  0  0  0  0  0  0  0  0  # atno 8009 bound_to 7997
  155.7805  140.3458  155.5297 H   0  0  0  0  0  0  0  0  0  0  0  0  # atno 8010 bound_to 7997
  140.6051  143.2371  151.5839 H   0  0  0  0  0  0  0  0  0  0  0  0  # atno 10167 bound_to 10162
  156.0721  130.5933  150.8542 H   0  0  0  0  0  0  0  0  0  0  0  0  # atno 10718 bound_to 10713
  154.5198  135.2793  155.1272 H   0  0  0  0  0  0  0  0  0  0  0  0  # atno 10763 bound_to 10752
  154.2834  135.6281  153.5360 H   0  0  0  0  0  0  0  0  0  0  0  0  # atno 10764 bound_to 10752
  152.9934  135.5656  154.5684 H   0  0  0  0  0  0  0  0  0  0  0  0  # atno 10765 bound_to 10752
  140.8092  134.2765  157.4948 H   0  0  0  0  0  0  0  0  0  0  0  0  # atno 11005 bound_to 11000
  146.3401  140.2364  142.8594 LP  0  0  0  0  0  0  0  0  0  0  0  0  # atno 17320 bound_to 7965
  144.9871  140.8512  143.5362 LP  0  0  0  0  0  0  0  0  0  0  0  0  # atno 17321 bound_to 7965
  139.5319  144.2891  152.1167 LP  0  0  0  0  0  0  0  0  0  0  0  0  # atno 17342 bound_to 10162
  140.2079  144.4592  150.6400 LP  0  0  0  0  0  0  0  0  0  0  0  0  # atno 17343 bound_to 10162
  157.5797  131.0946  150.9290 LP  0  0  0  0  0  0  0  0  0  0  0  0  # atno 17370 bound_to 10713
  156.9488  130.5412  149.5282 LP  0  0  0  0  0  0  0  0  0  0  0  0  # atno 17371 bound_to 10713
  139.8715  134.9473  156.3964 LP  0  0  0  0  0  0  0  0  0  0  0  0  # atno 17394 bound_to 11000
  140.9215  133.7641  155.9913 LP  0  0  0  0  0  0  0  0  0  0  0  0  # atno 17395 bound_to 11000

$$$$
