AV-unprocessed.smi:2276|AV-procd|sdf|9174|dock2
  -GOLD-   2272012393D 1   1.00000     0.00000
 Structure written by MMmdl.
 53 54  0  0  0  0  0  0  0  0  2 V2000
  153.7069  141.8393  161.8468 C   0  0  0  0  0  0  0  0  0  0  0  0
  153.0457  142.0497  160.5009 C   0  0  0  0  0  0  0  0  0  0  0  0
  152.7333  143.3439  160.0429 C   0  0  0  0  0  0  0  0  0  0  0  0
  152.1173  143.4724  158.7828 C   0  0  0  0  0  0  0  0  0  0  0  0
  151.7532  144.8342  158.2295 C   0  0  0  0  0  0  0  0  0  0  0  0
  151.8125  142.4150  158.0003 N   0  0  0  0  0  0  0  0  0  0  0  0
  152.1082  141.1635  158.4314 C   0  0  0  0  0  0  0  0  0  0  0  0
  151.8322  139.9876  157.6843 N   0  0  0  0  0  0  0  0  0  0  0  0
  151.5867  139.8799  156.3666 C   0  0  0  0  0  0  0  0  0  0  0  0
  151.5363  140.8174  155.5696 O   0  0  0  0  0  0  0  0  0  0  0  0
  151.3951  138.6030  156.0088 N   0  0  0  0  0  0  0  0  0  0  0  0
  151.1237  138.1680  154.6442 C   0  0  0  0  0  0  0  0  0  0  0  0
  149.6368  138.3432  154.2690 C   0  0  2  0  0  0  0  0  0  0  0  0
  149.1538  139.7825  154.5258 C   0  0  0  0  0  0  0  0  0  0  0  0
  148.7420  137.3434  155.0352 C   0  0  0  0  0  0  0  0  0  0  0  0
  149.0169  135.9241  154.6923 N   0  3  0  0  0  0  0  0  0  0  0  0
  147.8173  135.0514  154.7582 C   0  0  0  0  0  0  0  0  0  0  0  0
  148.1661  133.6121  154.3237 C   0  0  0  0  0  0  0  0  0  0  0  0
  149.2480  133.0382  155.1253 N   0  0  0  0  0  0  0  0  0  0  0  0
  148.8423  132.7149  156.4889 C   0  0  0  0  0  0  0  0  0  0  0  0
  150.4258  133.9048  155.0643 C   0  0  0  0  0  0  0  0  0  0  0  0
  150.1107  135.3478  155.5113 C   0  0  0  0  0  0  0  0  0  0  0  0
  152.7289  140.9469  159.6821 C   0  0  0  0  0  0  0  0  0  0  0  0
  153.9904  142.7889  162.3022 H   0  0  0  0  0  0  0  0  0  0  0  0
  154.6061  141.2327  161.7366 H   0  0  0  0  0  0  0  0  0  0  0  0
  153.0255  141.3250  162.5248 H   0  0  0  0  0  0  0  0  0  0  0  0
  152.9592  144.2146  160.6411 H   0  0  0  0  0  0  0  0  0  0  0  0
  152.1724  145.6338  158.8409 H   0  0  0  0  0  0  0  0  0  0  0  0
  150.6699  144.9543  158.2056 H   0  0  0  0  0  0  0  0  0  0  0  0
  152.1350  144.9485  157.2144 H   0  0  0  0  0  0  0  0  0  0  0  0
  151.8283  139.1290  158.2147 H   0  0  0  0  0  0  0  0  0  0  0  0
  151.4524  137.8885  156.7199 H   0  0  0  0  0  0  0  0  0  0  0  0
  151.7570  138.7472  153.9707 H   0  0  0  0  0  0  0  0  0  0  0  0
  151.4157  137.1222  154.5323 H   0  0  0  0  0  0  0  0  0  0  0  0
  149.5323  138.1646  153.1993 H   0  0  0  0  0  0  0  0  0  0  0  0
  149.2642  140.0563  155.5756 H   0  0  0  0  0  0  0  0  0  0  0  0
  148.1018  139.8962  154.2630 H   0  0  0  0  0  0  0  0  0  0  0  0
  149.7116  140.5079  153.9331 H   0  0  0  0  0  0  0  0  0  0  0  0
  148.9013  137.4950  156.1040 H   0  0  0  0  0  0  0  0  0  0  0  0
  147.6864  137.5535  154.8552 H   0  0  0  0  0  0  0  0  0  0  0  0
  147.3974  135.0656  155.7648 H   0  0  0  0  0  0  0  0  0  0  0  0
  147.0412  135.4321  154.0958 H   0  0  0  0  0  0  0  0  0  0  0  0
  147.2853  132.9720  154.3857 H   0  0  0  0  0  0  0  0  0  0  0  0
  148.4730  133.6124  153.2767 H   0  0  0  0  0  0  0  0  0  0  0  0
  149.6622  132.2336  157.0228 H   0  0  0  0  0  0  0  0  0  0  0  0
  148.0035  132.0180  156.4769 H   0  0  0  0  0  0  0  0  0  0  0  0
  148.5408  133.5941  157.0570 H   0  0  0  0  0  0  0  0  0  0  0  0
  151.2242  133.4824  155.6758 H   0  0  0  0  0  0  0  0  0  0  0  0
  150.7959  133.9145  154.0381 H   0  0  0  0  0  0  0  0  0  0  0  0
  151.0080  135.9564  155.3939 H   0  0  0  0  0  0  0  0  0  0  0  0
  149.8466  135.3847  156.5691 H   0  0  0  0  0  0  0  0  0  0  0  0
  152.9598  139.9450  160.0146 H   0  0  0  0  0  0  0  0  0  0  0  0
  149.3437  135.9114  153.7367 H   0  0  0  0  0  0  0  0  0  0  0  0
  1  2  1  0  0  0  0
  1 24  1  0  0  0  0
  1 25  1  0  0  0  0
  1 26  1  0  0  0  0
  2 23  1  0  0  0  0
  2  3  2  0  0  0  0
  3  4  1  0  0  0  0
  3 27  1  0  0  0  0
  4  5  1  0  0  0  0
  4  6  2  0  0  0  0
  5 28  1  0  0  0  0
  5 29  1  0  0  0  0
  5 30  1  0  0  0  0
  6  7  1  0  0  0  0
  7  8  1  0  0  0  0
  7 23  2  0  0  0  0
  8  9  1  0  0  0  0
  8 31  1  0  0  0  0
  9 10  2  0  0  0  0
  9 11  1  0  0  0  0
 11 12  1  0  0  0  0
 11 32  1  0  0  0  0
 12 13  1  0  0  0  0
 12 33  1  0  0  0  0
 12 34  1  0  0  0  0
 13 14  1  0  0  0  0
 13 15  1  0  0  0  0
 13 35  1  0  0  0  0
 14 36  1  0  0  0  0
 14 37  1  0  0  0  0
 14 38  1  0  0  0  0
 15 16  1  0  0  0  0
 15 39  1  0  0  0  0
 15 40  1  0  0  0  0
 16 22  1  0  0  0  0
 16 17  1  0  0  0  0
 16 53  1  0  0  0  0
 17 18  1  0  0  0  0
 17 41  1  0  0  0  0
 17 42  1  0  0  0  0
 18 19  1  0  0  0  0
 18 43  1  0  0  0  0
 18 44  1  0  0  0  0
 19 20  1  0  0  0  0
 19 21  1  0  0  0  0
 20 45  1  0  0  0  0
 20 46  1  0  0  0  0
 20 47  1  0  0  0  0
 21 22  1  0  0  0  0
 21 48  1  0  0  0  0
 21 49  1  0  0  0  0
 22 50  1  0  0  0  0
 22 51  1  0  0  0  0
 23 52  1  0  0  0  0
M  CHG  1  16   1
M  END
> <s_m_source_file>
AV-unprocessed.smi

> <i_m_source_file_index>
2276

> <i_lp_mmshare_version>
43012

> <i_f3d_flags>
0

> <s_epik_input>
W0NIM11jMVtjSF1jKFtDSDNdKW5jKFtjSF0xKVtOSF1DKD1PKVtOSF1bQ0gyXVtDQEhdKFtDSDNdKVtDSDJdTjJbQ0gyXVtDSDJdTihbQ0gzXSlbQ0gyXVtDSDJdMg==

> <s_epik_cmdline>
J2VwaWtfcHl0aG9uJywgJy1waCcsICc3LjAnLCAnLXRuJywgJzgnLCAnLW1hJywgJzIwMCcsICctbWV0YWxfYmluZGluZycsICctaW1hZScsICc8aW5maWxlLm1hZT4nLCAnLW9tYWUnLCAnPG91dGZpbGUubWFlPic=

> <r_epik_Ionization_Penalty>
0.0485334

> <r_epik_Ionization_Penalty_Charging>
0.0462531

> <r_epik_Ionization_Penalty_Neutral>
0.00228028

> <r_epik_State_Penalty>
0.692588

> <r_epik_Charging_Adjusted_Penalty>
0.738841

> <i_epik_Tot_Q>
1

> <i_epik_Tot_abs_Q>
1

> <r_epik_Metal_State_Penalty>
0.692605

> <b_epik_Metal_Only>
0

> <s_lp_Force_Field>
OPLS_2005

> <r_lp_Energy>
23.0257

> <b_lp_Chiralities_Consistent>
1

> <s_lp_Variant>
AV-unprocessed.smi:2276-3

> <Gold.Version>
5.8.1

> <Gold.Id.Protein>
6NUR|6NUR_protein|mol2

> <Gold.PLP.Fitness>
48.9585

> <Gold.PLP.PLP>
-42.3697

> <Gold.PLP.part.hbond>
-2.0000

> <Gold.PLP.part.metal>
0.0000

> <Gold.PLP.part.buried>
-3.0512

> <Gold.PLP.part.nonpolar>
-36.1889

> <Gold.PLP.part.repulsive>
0.2207

> <Gold.PLP.ligand.clash>
0.0000

> <Gold.PLP.ligand.torsion>
0.6488

> <Gold.PLP.Chemscore.Hbond>
2.5863

> <Gold.PLP.Chemscore.CHOScore>
0.0000

> <Gold.PLP.Chemscore.Metal>
0.0000

> <Gold.Chemscore.Hbonds>
donor molecule, donor type, donor heavy atom, donor atom, acceptor molecule, acceptor atom, score
      L1  H    16    53       P1  7948  1.98
      P1  H  7989  7998       L1    10  0.61

> <Gold.PLP.Chemscore.Internal.Correction>
0.1275

> <Gold.Rescore>
     Score         DG    S(hbond)    S(metal)    S(lipo)     H(rot)  DE(clash)    DE(int)     intcor
     15.35     -19.58       1.63        0.00     109.74       1.63       0.03       4.21       ----

> <Gold.Chemscore.Fitness>
15.3478

> <Gold.Chemscore.DG>
-19.5840

> <Gold.Chemscore.ZeroCoef>
-5.4800

> <Gold.Chemscore.Hbond>
1.6263

> <Gold.Chemscore.Metal>
0.0000

> <Gold.Chemscore.Lipo>
109.7450

> <Gold.Chemscore.Internal_Hbond>
0.0000

> <Gold.Chemscore.DEClash>
0.0311

> <Gold.Chemscore.DEInternal>
4.2051

> <Gold.Chemscore.Rot>
1.6282

> <Gold.Chemscore.Internal.Correction>
   9.000000E+99

> <Gold.Chemscore.Hbonds>
donor molecule, donor type, donor heavy atom, donor atom, acceptor molecule, acceptor atom, score
      L1  H    16    53       P1  7948  0.61
      P1  H  7989  7998       L1    10  0.58

> <Gold.Chemscore.Hbond.Weighted>
-5.4320

> <Gold.Chemscore.Metal.Weighted>
-0.0000

> <Gold.Chemscore.Lipo.Weighted>
-12.8402

> <Gold.Chemscore.Internal_Hbond.Weighted>
0.0000

> <Gold.Chemscore.DEClash.Weighted>
0.0311

> <Gold.Chemscore.DEInternal.Weighted>
4.2051

> <Gold.Chemscore.Rot.Weighted>
4.1682

> <Gold.Chemscore.Internal.Correction.Weighted>
   9.000000E+99

> <Gold.Protein.RotatedTorsions>
[ 6907 6896 6895 6894 ] final  -17.67 input  -60.11 | X-H torsion
[ 7974 7965 7964 7962 ] final   24.78 input  175.53 | X-H torsion
[ 8008 7997 7996 7995 ] final   66.40 input   59.86 | X-H torsion
[ 10167 10162 10161 10158 ] final   -1.96 input  -65.29 | X-H torsion
[ 10718 10713 10712 10709 ] final  -88.66 input   66.30 | X-H torsion
[ 10763 10752 10751 10750 ] final  -81.00 input  -60.55 | X-H torsion
[ 11005 11000 10999 10996 ] final  153.39 input  -57.11 | X-H torsion

> <Gold.Protein.ActiveResidues>
 VAL166  LYS551  ARG553  GLY616  TRP617  ASP618  TYR619  PRO620  LYS621  CYS622 
 ASP623  PHE694  ASN695  SER759  ASP760  ASP761  ALA762  ILE779  LEU786  VAL792 
 PHE793  MET794  SER795  GLU796  ALA797  LYS798  CYS799  TRP800  GLU811  SER814 

> <Gold.Protein.RotatedAtoms>
  151.2899  135.0738  159.9199 H   0  0  0  0  0  0  0  0  0  0  0  0  # atno 6907 bound_to 6896
  152.5318  133.9943  159.7875 H   0  0  0  0  0  0  0  0  0  0  0  0  # atno 6908 bound_to 6896
  151.0211  133.5825  159.2702 H   0  0  0  0  0  0  0  0  0  0  0  0  # atno 6909 bound_to 6896
  146.1921  139.7557  142.8824 H   0  0  0  0  0  0  0  0  0  0  0  0  # atno 7974 bound_to 7965
  155.6767  140.3497  155.4839 H   0  0  0  0  0  0  0  0  0  0  0  0  # atno 8008 bound_to 7997
  155.9641  140.1143  157.0892 H   0  0  0  0  0  0  0  0  0  0  0  0  # atno 8009 bound_to 7997
  154.4150  140.1170  156.5205 H   0  0  0  0  0  0  0  0  0  0  0  0  # atno 8010 bound_to 7997
  140.6831  143.6714  150.8182 H   0  0  0  0  0  0  0  0  0  0  0  0  # atno 10167 bound_to 10162
  155.9983  130.4844  150.5053 H   0  0  0  0  0  0  0  0  0  0  0  0  # atno 10718 bound_to 10713
  154.5582  135.5641  153.6983 H   0  0  0  0  0  0  0  0  0  0  0  0  # atno 10763 bound_to 10752
  153.0010  135.6267  154.2281 H   0  0  0  0  0  0  0  0  0  0  0  0  # atno 10764 bound_to 10752
  154.2218  135.2869  155.2902 H   0  0  0  0  0  0  0  0  0  0  0  0  # atno 10765 bound_to 10752
  140.1394  134.8749  157.2310 H   0  0  0  0  0  0  0  0  0  0  0  0  # atno 11005 bound_to 11000
  145.3760  141.0350  143.3204 LP  0  0  0  0  0  0  0  0  0  0  0  0  # atno 17320 bound_to 7965
  144.8507  139.5326  143.6858 LP  0  0  0  0  0  0  0  0  0  0  0  0  # atno 17321 bound_to 7965
  140.0417  143.5339  152.2715 LP  0  0  0  0  0  0  0  0  0  0  0  0  # atno 17342 bound_to 10162
  139.6169  144.7621  151.2826 LP  0  0  0  0  0  0  0  0  0  0  0  0  # atno 17343 bound_to 10162
  157.3033  131.0649  151.2053 LP  0  0  0  0  0  0  0  0  0  0  0  0  # atno 17370 bound_to 10713
  157.3025  130.6850  149.6171 LP  0  0  0  0  0  0  0  0  0  0  0  0  # atno 17371 bound_to 10713
  140.2742  134.3425  155.7364 LP  0  0  0  0  0  0  0  0  0  0  0  0  # atno 17394 bound_to 11000
  141.2183  133.7440  156.9267 LP  0  0  0  0  0  0  0  0  0  0  0  0  # atno 17395 bound_to 11000

$$$$
