AV-unprocessed.smi:835|AV-procd|sdf|3888|dock6
  -GOLD-   22720 1343D 1   1.00000     0.00000
 Structure written by MMmdl.
 41 43  0  0  0  0  0  0  0  0  2 V2000
  151.5716  141.7087  157.4783 C   0  0  0  0  0  0  0  0  0  0  0  0
  151.2333  140.6811  156.4388 C   0  0  0  0  0  0  0  0  0  0  0  0
  149.9657  140.4227  155.8405 C   0  0  0  0  0  0  0  0  0  0  0  0
  150.2430  139.3966  154.9790 C   0  0  0  0  0  0  0  0  0  0  0  0
  149.4044  138.7369  154.1361 N   0  0  0  0  0  0  0  0  0  0  0  0
  148.0921  138.9412  153.9273 C   0  0  0  0  0  0  0  0  0  0  0  0
  147.4011  139.7905  154.4900 O   0  0  0  0  0  0  0  0  0  0  0  0
  147.6072  138.0903  153.0119 N   0  0  0  0  0  0  0  0  0  0  0  0
  146.2183  138.0588  152.5656 C   0  0  2  0  0  0  0  0  0  0  0  0
  145.1924  137.9452  153.6965 C   0  0  0  0  0  0  0  0  0  0  0  0
  144.0076  137.1908  153.0690 C   0  0  0  0  0  0  0  0  0  0  0  0
  144.4500  136.7344  151.7307 N   0  3  2  0  0  0  0  0  0  0  0  0
  143.9219  135.4130  151.3313 C   0  0  0  0  0  0  0  0  0  0  0  0
  144.7039  134.2536  151.9009 C   0  0  0  0  0  0  0  0  0  0  0  0
  144.8606  134.6313  150.4437 C   0  0  0  0  0  0  0  0  0  0  0  0
  145.9203  136.8250  151.7198 C   0  0  0  0  0  0  0  0  0  0  0  0
  151.5812  139.0852  155.0741 N   0  0  0  0  0  0  0  0  0  0  0  0
  152.3444  138.0750  154.3677 C   0  0  0  0  0  0  0  0  0  0  0  0
  152.1894  139.8814  155.9797 N   0  0  0  0  0  0  0  0  0  0  0  0
  150.7343  142.3856  157.6499 H   0  0  0  0  0  0  0  0  0  0  0  0
  152.4271  142.3119  157.1731 H   0  0  0  0  0  0  0  0  0  0  0  0
  151.8173  141.2368  158.4298 H   0  0  0  0  0  0  0  0  0  0  0  0
  149.0256  140.9190  156.0278 H   0  0  0  0  0  0  0  0  0  0  0  0
  149.8323  137.9981  153.5977 H   0  0  0  0  0  0  0  0  0  0  0  0
  148.2406  137.4228  152.5964 H   0  0  0  0  0  0  0  0  0  0  0  0
  146.0031  138.9490  151.9705 H   0  0  0  0  0  0  0  0  0  0  0  0
  145.5991  137.3608  154.5233 H   0  0  0  0  0  0  0  0  0  0  0  0
  144.9046  138.9202  154.0913 H   0  0  0  0  0  0  0  0  0  0  0  0
  143.7228  136.3482  153.7009 H   0  0  0  0  0  0  0  0  0  0  0  0
  143.1336  137.8336  152.9601 H   0  0  0  0  0  0  0  0  0  0  0  0
  142.8440  135.3403  151.1953 H   0  0  0  0  0  0  0  0  0  0  0  0
  145.5358  134.4708  152.5687 H   0  0  0  0  0  0  0  0  0  0  0  0
  144.1568  133.3394  152.1223 H   0  0  0  0  0  0  0  0  0  0  0  0
  144.4166  133.9653  149.7063 H   0  0  0  0  0  0  0  0  0  0  0  0
  145.7958  135.1000  150.1429 H   0  0  0  0  0  0  0  0  0  0  0  0
  146.3097  136.9073  150.7046 H   0  0  0  0  0  0  0  0  0  0  0  0
  146.3483  135.9319  152.1795 H   0  0  0  0  0  0  0  0  0  0  0  0
  152.0104  137.0839  154.6745 H   0  0  0  0  0  0  0  0  0  0  0  0
  153.4084  138.1745  154.5863 H   0  0  0  0  0  0  0  0  0  0  0  0
  152.1944  138.1857  153.2936 H   0  0  0  0  0  0  0  0  0  0  0  0
  144.1141  137.4176  151.0668 H   0  0  0  0  0  0  0  0  0  0  0  0
  1  2  1  0  0  0  0
  1 20  1  0  0  0  0
  1 21  1  0  0  0  0
  1 22  1  0  0  0  0
  2 19  2  0  0  0  0
  2  3  1  0  0  0  0
  3  4  2  0  0  0  0
  3 23  1  0  0  0  0
  4  5  1  0  0  0  0
  4 17  1  0  0  0  0
  5  6  1  0  0  0  0
  5 24  1  0  0  0  0
  6  7  2  0  0  0  0
  6  8  1  0  0  0  0
  8  9  1  0  0  0  0
  8 25  1  0  0  0  0
  9 16  1  0  0  0  0
  9 10  1  0  0  0  0
  9 26  1  0  0  0  0
 10 11  1  0  0  0  0
 10 27  1  0  0  0  0
 10 28  1  0  0  0  0
 11 12  1  0  0  0  0
 11 29  1  0  0  0  0
 11 30  1  0  0  0  0
 12 13  1  0  0  0  0
 12 16  1  0  0  0  0
 12 41  1  0  0  0  0
 13 15  1  0  0  0  0
 13 14  1  0  0  0  0
 13 31  1  0  0  0  0
 14 15  1  0  0  0  0
 14 32  1  0  0  0  0
 14 33  1  0  0  0  0
 15 34  1  0  0  0  0
 15 35  1  0  0  0  0
 16 36  1  0  0  0  0
 16 37  1  0  0  0  0
 17 18  1  0  0  0  0
 17 19  1  0  0  0  0
 18 38  1  0  0  0  0
 18 39  1  0  0  0  0
 18 40  1  0  0  0  0
M  CHG  1  12   1
M  END
> <s_m_source_file>
AV-unprocessed.smi

> <i_m_source_file_index>
835

> <i_lp_mmshare_version>
43012

> <i_f3d_flags>
0

> <s_epik_input>
W0NIM11jMVtjSF1jKG4objEpW0NIM10pW05IXUMoPU8pW05IXVtDQEBIXTJbQ0gyXVtDSDJdTihbQ0gyXTIpW0NIXTNbQ0gyXVtDSDJdMw==

> <s_epik_cmdline>
J2VwaWtfcHl0aG9uJywgJy1waCcsICc3LjAnLCAnLXRuJywgJzgnLCAnLW1hJywgJzIwMCcsICctbWV0YWxfYmluZGluZycsICctaW1hZScsICc8aW5maWxlLm1hZT4nLCAnLW9tYWUnLCAnPG91dGZpbGUubWFlPic=

> <r_lp_tautomer_probability>
1

> <r_epik_Ionization_Penalty>
0.000700689

> <r_epik_Ionization_Penalty_Charging>
0.000627528

> <r_epik_Ionization_Penalty_Neutral>
7.31611e-05

> <r_epik_State_Penalty>
0.00039643

> <r_epik_Charging_Adjusted_Penalty>
0.00102396

> <i_epik_Tot_Q>
1

> <i_epik_Tot_abs_Q>
1

> <r_epik_Metal_State_Penalty>
-0

> <b_epik_Metal_Only>
0

> <s_lp_Force_Field>
OPLS_2005

> <r_lp_Energy>
38.0167

> <b_lp_Chiralities_Consistent>
1

> <s_lp_Variant>
AV-unprocessed.smi:835-3

> <Gold.Version>
5.8.1

> <Gold.Id.Protein>
6NUR|6NUR_protein|mol2

> <Gold.PLP.Fitness>
38.9964

> <Gold.PLP.PLP>
-30.9557

> <Gold.PLP.part.hbond>
-3.4286

> <Gold.PLP.part.metal>
0.0000

> <Gold.PLP.part.buried>
-1.5664

> <Gold.PLP.part.nonpolar>
-26.3253

> <Gold.PLP.part.repulsive>
0.2437

> <Gold.PLP.ligand.clash>
0.0000

> <Gold.PLP.ligand.torsion>
0.7086

> <Gold.PLP.Chemscore.Hbond>
2.7313

> <Gold.PLP.Chemscore.CHOScore>
0.0000

> <Gold.PLP.Chemscore.Metal>
0.0000

> <Gold.Chemscore.Hbonds>
donor molecule, donor type, donor heavy atom, donor atom, acceptor molecule, acceptor atom, score
      L1  H     8    25       P1  7948  1.00
      L1  H    12    41       P1 10171  1.00
      P1  H  7997  8009       L1    19  0.62

> <Gold.PLP.Chemscore.Internal.Correction>
1.2641

> <Gold.Rescore>
     Score         DG    S(hbond)    S(metal)    S(lipo)     H(rot)  DE(clash)    DE(int)     intcor
     16.12     -19.66       2.98        0.00      62.67       1.22       0.62       2.91       ----

> <Gold.Chemscore.Fitness>
16.1173

> <Gold.Chemscore.DG>
-19.6551

> <Gold.Chemscore.ZeroCoef>
-5.4800

> <Gold.Chemscore.Hbond>
2.9834

> <Gold.Chemscore.Metal>
0.0000

> <Gold.Chemscore.Lipo>
62.6741

> <Gold.Chemscore.Internal_Hbond>
0.0000

> <Gold.Chemscore.DEClash>
0.6233

> <Gold.Chemscore.DEInternal>
2.9145

> <Gold.Chemscore.Rot>
1.2196

> <Gold.Chemscore.Internal.Correction>
   9.000000E+99

> <Gold.Chemscore.Hbonds>
donor molecule, donor type, donor heavy atom, donor atom, acceptor molecule, acceptor atom, score
      L1  H     8    25       P1  7948  0.96
      L1  H    12    41       P1 10171  1.00
      P1  H  7997  8009       L1    19  0.62

> <Gold.Chemscore.Hbond.Weighted>
-9.9645

> <Gold.Chemscore.Metal.Weighted>
-0.0000

> <Gold.Chemscore.Lipo.Weighted>
-7.3329

> <Gold.Chemscore.Internal_Hbond.Weighted>
0.0000

> <Gold.Chemscore.DEClash.Weighted>
0.6233

> <Gold.Chemscore.DEInternal.Weighted>
2.9145

> <Gold.Chemscore.Rot.Weighted>
3.1223

> <Gold.Chemscore.Internal.Correction.Weighted>
   9.000000E+99

> <Gold.Protein.RotatedTorsions>
[ 6907 6896 6895 6894 ] final -152.44 input  -60.11 | X-H torsion
[ 7974 7965 7964 7962 ] final  178.47 input  175.53 | X-H torsion
[ 8008 7997 7996 7995 ] final -153.21 input   59.86 | X-H torsion
[ 10167 10162 10161 10158 ] final   87.06 input  -65.29 | X-H torsion
[ 10718 10713 10712 10709 ] final  -96.94 input   66.30 | X-H torsion
[ 10763 10752 10751 10750 ] final  -98.16 input  -60.55 | X-H torsion
[ 11005 11000 10999 10996 ] final -118.33 input  -57.11 | X-H torsion

> <Gold.Protein.ActiveResidues>
 VAL166  LYS551  ARG553  GLY616  TRP617  ASP618  TYR619  PRO620  LYS621  CYS622 
 ASP623  PHE694  ASN695  SER759  ASP760  ASP761  ALA762  ILE779  LEU786  VAL792 
 PHE793  MET794  SER795  GLU796  ALA797  LYS798  CYS799  TRP800  GLU811  SER814 

> <Gold.Protein.RotatedAtoms>
  151.2277  133.4467  159.2602 H   0  0  0  0  0  0  0  0  0  0  0  0  # atno 6907 bound_to 6896
  151.0824  134.9866  159.8372 H   0  0  0  0  0  0  0  0  0  0  0  0  # atno 6908 bound_to 6896
  152.5425  134.2216  159.8843 H   0  0  0  0  0  0  0  0  0  0  0  0  # atno 6909 bound_to 6896
  144.7156  140.0403  143.6437 H   0  0  0  0  0  0  0  0  0  0  0  0  # atno 7974 bound_to 7965
  155.6673  140.0729  157.2532 H   0  0  0  0  0  0  0  0  0  0  0  0  # atno 8008 bound_to 7997
  154.4130  140.1705  156.1892 H   0  0  0  0  0  0  0  0  0  0  0  0  # atno 8009 bound_to 7997
  155.9646  140.3367  155.6524 H   0  0  0  0  0  0  0  0  0  0  0  0  # atno 8010 bound_to 7997
  139.8812  144.6439  150.8841 H   0  0  0  0  0  0  0  0  0  0  0  0  # atno 10167 bound_to 10162
  156.0073  130.5173  150.6301 H   0  0  0  0  0  0  0  0  0  0  0  0  # atno 10718 bound_to 10713
  154.7390  135.5020  153.9091 H   0  0  0  0  0  0  0  0  0  0  0  0  # atno 10763 bound_to 10752
  153.1024  135.6688  153.9656 H   0  0  0  0  0  0  0  0  0  0  0  0  # atno 10764 bound_to 10752
  153.9438  135.3065  155.3421 H   0  0  0  0  0  0  0  0  0  0  0  0  # atno 10765 bound_to 10752
  141.0293  134.0006  157.3167 H   0  0  0  0  0  0  0  0  0  0  0  0  # atno 11005 bound_to 11000
  146.0029  139.3106  143.0916 LP  0  0  0  0  0  0  0  0  0  0  0  0  # atno 17320 bound_to 7965
  145.8772  140.9385  143.0620 LP  0  0  0  0  0  0  0  0  0  0  0  0  # atno 17321 bound_to 7965
  140.7744  143.3584  151.1876 LP  0  0  0  0  0  0  0  0  0  0  0  0  # atno 17342 bound_to 10162
  139.7194  143.9248  152.2979 LP  0  0  0  0  0  0  0  0  0  0  0  0  # atno 17343 bound_to 10162
  157.4100  131.0822  151.1229 LP  0  0  0  0  0  0  0  0  0  0  0  0  # atno 17370 bound_to 10713
  157.1864  130.6332  149.5689 LP  0  0  0  0  0  0  0  0  0  0  0  0  # atno 17371 bound_to 10713
  139.9197  135.0199  156.8017 LP  0  0  0  0  0  0  0  0  0  0  0  0  # atno 17394 bound_to 11000
  140.6435  133.9796  155.7719 LP  0  0  0  0  0  0  0  0  0  0  0  0  # atno 17395 bound_to 11000

$$$$
