AV-unprocessed.smi:107|AV-procd|sdf|1022|dock9
  -GOLD-   2262018 23D 1   1.00000     0.00000
 Structure written by MMmdl.
 30 31  0  0  0  0  0  0  0  0  2 V2000
  152.9617  142.6633  160.9353 C   0  0  0  0  0  0  0  0  0  0  0  0
  152.7985  141.6353  159.8295 C   0  0  0  0  0  0  0  0  0  0  0  0
  151.7063  141.5987  159.0339 C   0  0  0  0  0  0  0  0  0  0  0  0
  151.5624  140.6578  158.0296 N   0  0  0  0  0  0  0  0  0  0  0  0
  150.3191  140.6287  157.1738 C   0  0  1  0  0  0  0  0  0  0  0  0
  150.6260  141.0637  155.7466 C   0  0  0  0  0  0  0  0  0  0  0  0
  149.5881  140.2864  154.9456 C   0  0  1  0  0  0  0  0  0  0  0  0
  150.1884  139.7209  153.7947 O   0  0  0  0  0  0  0  0  0  0  0  0
  149.0034  139.2526  155.9400 C   0  0  1  0  0  0  0  0  0  0  0  0
  148.9230  137.7972  155.4419 C   0  0  0  0  0  0  0  0  0  0  0  0
  148.2199  137.7397  154.2188 O   0  0  0  0  0  0  0  0  0  0  0  0
  149.8607  139.3220  157.0731 O   0  0  0  0  0  0  0  0  0  0  0  0
  152.5668  139.6744  157.8377 C   0  0  0  0  0  0  0  0  0  0  0  0
  152.3877  138.8243  156.9652 O   0  0  0  0  0  0  0  0  0  0  0  0
  153.6766  139.7090  158.6293 N   0  5  0  0  0  0  0  0  0  0  0  0
  153.8536  140.6375  159.6132 C   0  0  0  0  0  0  0  0  0  0  0  0
  154.8622  140.6586  160.3186 O   0  0  0  0  0  0  0  0  0  0  0  0
  152.1037  143.3343  160.9831 H   0  0  0  0  0  0  0  0  0  0  0  0
  153.8536  143.2669  160.7657 H   0  0  0  0  0  0  0  0  0  0  0  0
  153.0580  142.1691  161.9024 H   0  0  0  0  0  0  0  0  0  0  0  0
  150.9219  142.3232  159.1952 H   0  0  0  0  0  0  0  0  0  0  0  0
  149.5589  141.2351  157.6700 H   0  0  0  0  0  0  0  0  0  0  0  0
  150.5480  142.1463  155.6426 H   0  0  0  0  0  0  0  0  0  0  0  0
  151.6401  140.7528  155.4885 H   0  0  0  0  0  0  0  0  0  0  0  0
  148.7937  140.9563  154.6147 H   0  0  0  0  0  0  0  0  0  0  0  0
  149.6518  139.9252  153.0444 H   0  0  0  0  0  0  0  0  0  0  0  0
  148.0128  139.5993  156.2412 H   0  0  0  0  0  0  0  0  0  0  0  0
  149.9206  137.4021  155.2488 H   0  0  0  0  0  0  0  0  0  0  0  0
  148.4510  137.1512  156.1831 H   0  0  0  0  0  0  0  0  0  0  0  0
  148.6325  137.0943  153.6653 H   0  0  0  0  0  0  0  0  0  0  0  0
  1  2  1  0  0  0  0
  1 18  1  0  0  0  0
  1 19  1  0  0  0  0
  1 20  1  0  0  0  0
  2 16  1  0  0  0  0
  2  3  2  0  0  0  0
  3  4  1  0  0  0  0
  3 21  1  0  0  0  0
  4  5  1  0  0  0  0
  4 13  1  0  0  0  0
  5 12  1  0  0  0  0
  5  6  1  0  0  0  0
  5 22  1  0  0  0  0
  6  7  1  0  0  0  0
  6 23  1  0  0  0  0
  6 24  1  0  0  0  0
  7  8  1  0  0  0  0
  7  9  1  0  0  0  0
  7 25  1  0  0  0  0
  8 26  1  0  0  0  0
  9 10  1  0  0  0  0
  9 12  1  0  0  0  0
  9 27  1  0  0  0  0
 10 11  1  0  0  0  0
 10 28  1  0  0  0  0
 10 29  1  0  0  0  0
 11 30  1  0  0  0  0
 13 14  2  0  0  0  0
 13 15  1  0  0  0  0
 15 16  1  0  0  0  0
 16 17  2  0  0  0  0
M  CHG  1  15  -1
M  END
> <s_m_source_file>
AV-unprocessed.smi

> <i_m_source_file_index>
107

> <i_lp_mmshare_version>
43012

> <i_f3d_flags>
0

> <s_epik_input>
Tz1jMVtuSF1jKD1PKW4oW2NIXWMxW0NIM10pW0NAQEhdMltDSDJdW0NAQEhdKFtPSF0pW0NASF0oTzIpW0NIMl1bT0hd

> <s_epik_cmdline>
J2VwaWtfcHl0aG9uJywgJy1waCcsICc3LjAnLCAnLXRuJywgJzgnLCAnLW1hJywgJzIwMCcsICctbWV0YWxfYmluZGluZycsICctaW1hZScsICc8aW5maWxlLm1hZT4nLCAnLW9tYWUnLCAnPG91dGZpbGUubWFlPic=

> <r_lp_tautomer_probability>
0.999537

> <r_epik_Ionization_Penalty>
3.66603

> <r_epik_Ionization_Penalty_Charging>
1.09773e-07

> <r_epik_Ionization_Penalty_Neutral>
3.66603

> <r_epik_State_Penalty>
3.66562

> <r_epik_Charging_Adjusted_Penalty>
3.66562

> <i_epik_Tot_Q>
-1

> <i_epik_Tot_abs_Q>
1

> <r_epik_Metal_State_Penalty>
0.234536

> <b_epik_Metal_Only>
1

> <s_epik_Chemistry_Notes>
This compound contains an acetal/aminal-like group ( X-CH(R)-Y where X, Y are N, S, or O) that may be acid/base labile, releasing an aldehyde.

> <s_lp_Force_Field>
OPLS_2005

> <r_lp_Energy>
40.7451

> <b_lp_Chiralities_Consistent>
1

> <s_lp_Variant>
AV-unprocessed.smi:107-10

> <Gold.Version>
5.8.1

> <Gold.Id.Protein>
6NUR|6NUR_protein|mol2

> <Gold.PLP.Fitness>
40.6855

> <Gold.PLP.PLP>
-26.8603

> <Gold.PLP.part.hbond>
-4.0000

> <Gold.PLP.part.metal>
0.0000

> <Gold.PLP.part.buried>
-2.9061

> <Gold.PLP.part.nonpolar>
-19.4136

> <Gold.PLP.part.repulsive>
0.0000

> <Gold.PLP.ligand.clash>
0.0000

> <Gold.PLP.ligand.torsion>
0.3115

> <Gold.PLP.Chemscore.Hbond>
4.8080

> <Gold.PLP.Chemscore.CHOScore>
0.0000

> <Gold.PLP.Chemscore.Metal>
0.0000

> <Gold.Chemscore.Hbonds>
donor molecule, donor type, donor heavy atom, donor atom, acceptor molecule, acceptor atom, score
      L1  H     8    26       P1  7957  0.90
      L1  H    11    30       P1  7948  1.00
      P1  H  7989  7998       L1     8  0.88
      P1  H  7997  8009       L1    15  1.90

> <Gold.PLP.Chemscore.Internal.Correction>
0.0242

> <Gold.Rescore>
     Score         DG    S(hbond)    S(metal)    S(lipo)     H(rot)  DE(clash)    DE(int)     intcor
     11.04     -13.10       2.72        0.00      46.37       2.69       0.08       1.98       ----

> <Gold.Chemscore.Fitness>
11.0405

> <Gold.Chemscore.DG>
-13.1006

> <Gold.Chemscore.ZeroCoef>
-5.4800

> <Gold.Chemscore.Hbond>
2.7170

> <Gold.Chemscore.Metal>
0.0000

> <Gold.Chemscore.Lipo>
46.3678

> <Gold.Chemscore.Internal_Hbond>
0.0000

> <Gold.Chemscore.DEClash>
0.0808

> <Gold.Chemscore.DEInternal>
1.9793

> <Gold.Chemscore.Rot>
2.6871

> <Gold.Chemscore.Internal.Correction>
   9.000000E+99

> <Gold.Chemscore.Hbonds>
donor molecule, donor type, donor heavy atom, donor atom, acceptor molecule, acceptor atom, score
      L1  H     8    26       P1  7957  0.86
      L1  H    11    30       P1  7948  0.91
      P1  H  7989  7998       L1     8  0.08
      P1  H  7997  8009       L1    15  0.13

> <Gold.Chemscore.Hbond.Weighted>
-9.0746

> <Gold.Chemscore.Metal.Weighted>
-0.0000

> <Gold.Chemscore.Lipo.Weighted>
-5.4250

> <Gold.Chemscore.Internal_Hbond.Weighted>
0.0000

> <Gold.Chemscore.DEClash.Weighted>
0.0808

> <Gold.Chemscore.DEInternal.Weighted>
1.9793

> <Gold.Chemscore.Rot.Weighted>
6.8791

> <Gold.Chemscore.Internal.Correction.Weighted>
   9.000000E+99

> <Gold.Protein.RotatedTorsions>
[ 6907 6896 6895 6894 ] final  159.12 input  -60.11 | X-H torsion
[ 7974 7965 7964 7962 ] final  -85.70 input  175.53 | X-H torsion
[ 8008 7997 7996 7995 ] final  126.66 input   59.86 | X-H torsion
[ 10167 10162 10161 10158 ] final -113.44 input  -65.29 | X-H torsion
[ 10718 10713 10712 10709 ] final   14.10 input   66.30 | X-H torsion
[ 10763 10752 10751 10750 ] final  -78.39 input  -60.55 | X-H torsion
[ 11005 11000 10999 10996 ] final -152.66 input  -57.11 | X-H torsion

> <Gold.Protein.ActiveResidues>
 VAL166  LYS551  ARG553  GLY616  TRP617  ASP618  TYR619  PRO620  LYS621  CYS622 
 ASP623  PHE694  ASN695  SER759  ASP760  ASP761  ALA762  ILE779  LEU786  VAL792 
 PHE793  MET794  SER795  GLU796  ALA797  LYS798  CYS799  TRP800  GLU811  SER814 

> <Gold.Protein.RotatedAtoms>
  151.9903  133.3788  159.4141 H   0  0  0  0  0  0  0  0  0  0  0  0  # atno 6907 bound_to 6896
  150.6923  134.3944  159.5100 H   0  0  0  0  0  0  0  0  0  0  0  0  # atno 6908 bound_to 6896
  152.1676  134.8860  160.0587 H   0  0  0  0  0  0  0  0  0  0  0  0  # atno 6909 bound_to 6896
  145.4897  140.9553  143.1819 H   0  0  0  0  0  0  0  0  0  0  0  0  # atno 7974 bound_to 7965
  156.2870  140.2687  156.2146 H   0  0  0  0  0  0  0  0  0  0  0  0  # atno 8008 bound_to 7997
  155.0229  140.0386  157.2462 H   0  0  0  0  0  0  0  0  0  0  0  0  # atno 8009 bound_to 7997
  154.7420  140.2727  155.6370 H   0  0  0  0  0  0  0  0  0  0  0  0  # atno 8010 bound_to 7997
  140.1118  143.4520  152.1747 H   0  0  0  0  0  0  0  0  0  0  0  0  # atno 10167 bound_to 10162
  157.0342  130.6205  149.5740 H   0  0  0  0  0  0  0  0  0  0  0  0  # atno 10718 bound_to 10713
  154.5253  135.5731  153.6714 H   0  0  0  0  0  0  0  0  0  0  0  0  # atno 10763 bound_to 10752
  152.9926  135.6191  154.2701 H   0  0  0  0  0  0  0  0  0  0  0  0  # atno 10764 bound_to 10752
  154.2624  135.2856  155.2752 H   0  0  0  0  0  0  0  0  0  0  0  0  # atno 10765 bound_to 10752
  140.7165  134.3774  157.5190 H   0  0  0  0  0  0  0  0  0  0  0  0  # atno 11005 bound_to 11000
  144.7841  139.6464  143.7142 LP  0  0  0  0  0  0  0  0  0  0  0  0  # atno 17320 bound_to 7965
  146.2291  139.5780  142.9567 LP  0  0  0  0  0  0  0  0  0  0  0  0  # atno 17321 bound_to 7965
  139.5615  144.7408  151.4142 LP  0  0  0  0  0  0  0  0  0  0  0  0  # atno 17342 bound_to 10162
  140.6921  143.7836  150.7271 LP  0  0  0  0  0  0  0  0  0  0  0  0  # atno 17343 bound_to 10162
  156.0059  130.5146  150.7828 LP  0  0  0  0  0  0  0  0  0  0  0  0  # atno 17370 bound_to 10713
  157.5154  131.0928  151.0146 LP  0  0  0  0  0  0  0  0  0  0  0  0  # atno 17371 bound_to 10713
  139.8858  134.8926  156.2619 LP  0  0  0  0  0  0  0  0  0  0  0  0  # atno 17394 bound_to 11000
  141.0040  133.7134  156.1005 LP  0  0  0  0  0  0  0  0  0  0  0  0  # atno 17395 bound_to 11000

$$$$
