AV-unprocessed.smi:2655|AV-procd|sdf|10301|dock1
  -GOLD-   2272014313D 1   1.00000     0.00000
 Structure written by MMmdl.
 32 33  0  0  0  0  0  0  0  0  3 V2000
  146.9097  133.5716  151.2146 C   0  0  0  0  0  0  0  0  0  0  0  0
  146.4222  133.2260  152.5920 C   0  0  0  0  0  0  0  0  0  0  0  0
  145.1135  133.1493  152.8117 N   0  0  0  0  0  0  0  0  0  0  0  0
  145.0149  132.8280  154.1154 N   0  0  0  0  0  0  0  0  0  0  0  0
  146.2463  132.7068  154.7055 C   0  0  0  0  0  0  0  0  0  0  0  0
  146.3675  132.3888  156.0072 O   0  5  0  0  0  0  0  0  0  0  0  0
  147.2001  132.9576  153.7614 C   0  0  0  0  0  0  0  0  0  0  0  0
  148.6992  132.9535  153.9007 C   0  0  0  0  0  0  0  0  0  0  0  0
  149.1645  133.9016  155.0180 C   0  0  0  0  0  0  0  0  0  0  0  0
  150.0946  134.9092  154.5188 N   0  0  0  0  0  0  0  0  0  0  0  0
  150.7493  135.8142  155.2605 C   0  0  0  0  0  0  0  0  0  0  0  0
  150.5932  135.8370  156.4835 O   0  0  0  0  0  0  0  0  0  0  0  0
  151.5425  136.6399  154.5381 N   0  5  0  0  0  0  0  0  0  0  0  0
  151.7229  137.9116  154.9263 C   0  0  0  0  0  0  0  0  0  0  0  0
  150.8634  138.6526  155.7827 C   0  0  0  0  0  0  0  0  0  0  0  0
  151.4712  139.8737  155.8549 C   0  0  0  0  0  0  0  0  0  0  0  0
  151.1300  141.1322  156.5771 C   0  0  0  0  0  0  0  0  0  0  0  0
  152.6013  139.8839  155.0977 O   0  0  0  0  0  0  0  0  0  0  0  0
  152.7517  138.6261  154.5014 N   0  0  0  0  0  0  0  0  0  0  0  0
  147.9244  133.2087  151.0515 H   0  0  0  0  0  0  0  0  0  0  0  0
  146.9145  134.6508  151.0632 H   0  0  0  0  0  0  0  0  0  0  0  0
  146.2760  133.1288  150.4461 H   0  0  0  0  0  0  0  0  0  0  0  0
  144.1244  132.6985  154.5734 H   0  0  0  0  0  0  0  0  0  0  0  0
  149.1697  133.2421  152.9602 H   0  0  0  0  0  0  0  0  0  0  0  0
  149.0579  131.9453  154.1102 H   0  0  0  0  0  0  0  0  0  0  0  0
  148.3088  134.3793  155.4981 H   0  0  0  0  0  0  0  0  0  0  0  0
  149.6782  133.3345  155.7946 H   0  0  0  0  0  0  0  0  0  0  0  0
  150.2530  134.9265  153.5222 H   0  0  0  0  0  0  0  0  0  0  0  0
  149.9525  138.3362  156.2684 H   0  0  0  0  0  0  0  0  0  0  0  0
  150.1928  141.5468  156.2060 H   0  0  0  0  0  0  0  0  0  0  0  0
  151.9076  141.8848  156.4459 H   0  0  0  0  0  0  0  0  0  0  0  0
  151.0182  140.9451  157.6450 H   0  0  0  0  0  0  0  0  0  0  0  0
  1 20  1  0  0  0  0
  1 21  1  0  0  0  0
  1 22  1  0  0  0  0
  1  2  1  0  0  0  0
  2  7  1  0  0  0  0
  2  3  2  0  0  0  0
  3  4  1  0  0  0  0
  4 23  1  0  0  0  0
  4  5  1  0  0  0  0
  5  7  2  0  0  0  0
  5  6  1  0  0  0  0
  7  8  1  0  0  0  0
  8  9  1  0  0  0  0
  8 24  1  0  0  0  0
  8 25  1  0  0  0  0
  9 10  1  0  0  0  0
  9 26  1  0  0  0  0
  9 27  1  0  0  0  0
 10 11  1  0  0  0  0
 10 28  1  0  0  0  0
 11 12  2  0  0  0  0
 11 13  1  0  0  0  0
 13 14  1  0  0  0  0
 14 19  2  0  0  0  0
 14 15  1  0  0  0  0
 15 16  2  0  0  0  0
 15 29  1  0  0  0  0
 16 17  1  0  0  0  0
 16 18  1  0  0  0  0
 17 30  1  0  0  0  0
 17 31  1  0  0  0  0
 17 32  1  0  0  0  0
 18 19  1  0  0  0  0
M  CHG  1   6  -1
M  CHG  1  13  -1
M  END
> <s_m_source_file>
AV-unprocessed.smi

> <i_m_source_file_index>
2655

> <i_lp_mmshare_version>
43012

> <i_f3d_flags>
0

> <s_epik_input>
W0NIM11DMT1OW05IXUMoPU8pW0NASF0xW0NIMl1bQ0gyXVtOSF1DKD1PKVtOSF1jMltjSF1jKFtDSDNdKW9uMg==

> <s_epik_cmdline>
J2VwaWtfcHl0aG9uJywgJy1waCcsICc3LjAnLCAnLXRuJywgJzgnLCAnLW1hJywgJzIwMCcsICctbWV0YWxfYmluZGluZycsICctaW1hZScsICc8aW5maWxlLm1hZT4nLCAnLW9tYWUnLCAnPG91dGZpbGUubWFlPic=

> <r_lp_tautomer_probability>
0.99495

> <r_epik_Ionization_Penalty>
8.09923

> <r_epik_Ionization_Penalty_Charging>
6.55729

> <r_epik_Ionization_Penalty_Neutral>
1.54195

> <r_epik_State_Penalty>
6.87174

> <r_epik_Charging_Adjusted_Penalty>
13.429

> <i_epik_Tot_Q>
-2

> <i_epik_Tot_abs_Q>
2

> <r_epik_Metal_State_Penalty>
4.19188

> <b_epik_Metal_Only>
1

> <s_lp_Force_Field>
OPLS_2005

> <r_lp_Energy>
-4.19881

> <b_lp_Chiralities_Consistent>
1

> <s_lp_Variant>
AV-unprocessed.smi:2655-4

> <Gold.Version>
5.8.1

> <Gold.Id.Protein>
6NUR|6NUR_protein|mol2

> <Gold.PLP.Fitness>
36.8587

> <Gold.PLP.PLP>
-25.5836

> <Gold.PLP.part.hbond>
-5.0110

> <Gold.PLP.part.metal>
0.0000

> <Gold.PLP.part.buried>
-2.9230

> <Gold.PLP.part.nonpolar>
-17.9462

> <Gold.PLP.part.repulsive>
0.8994

> <Gold.PLP.ligand.clash>
0.0000

> <Gold.PLP.ligand.torsion>
0.7251

> <Gold.PLP.Chemscore.Hbond>
4.2256

> <Gold.PLP.Chemscore.CHOScore>
0.0000

> <Gold.PLP.Chemscore.Metal>
0.0000

> <Gold.Chemscore.Hbonds>
donor molecule, donor type, donor heavy atom, donor atom, acceptor molecule, acceptor atom, score
      L1  H     4    23       P1 10957  0.98
      P1  H  7989  7998       L1    18  0.30
      P1  H  7997  8010       L1    18  0.91
      P1  H 10752 10764       L1    13  2.00

> <Gold.PLP.Chemscore.Internal.Correction>
0.0486

> <Gold.Rescore>
     Score         DG    S(hbond)    S(metal)    S(lipo)     H(rot)  DE(clash)    DE(int)     intcor
     12.36     -14.35       2.55        0.00      42.96       1.82       0.02       1.96       ----

> <Gold.Chemscore.Fitness>
12.3583

> <Gold.Chemscore.DG>
-14.3467

> <Gold.Chemscore.ZeroCoef>
-5.4800

> <Gold.Chemscore.Hbond>
2.5461

> <Gold.Chemscore.Metal>
0.0000

> <Gold.Chemscore.Lipo>
42.9563

> <Gold.Chemscore.Internal_Hbond>
0.0000

> <Gold.Chemscore.DEClash>
0.0247

> <Gold.Chemscore.DEInternal>
1.9637

> <Gold.Chemscore.Rot>
1.8215

> <Gold.Chemscore.Internal.Correction>
   9.000000E+99

> <Gold.Chemscore.Hbonds>
donor molecule, donor type, donor heavy atom, donor atom, acceptor molecule, acceptor atom, score
      L1  H     4    23       P1 10957  0.92
      P1  H  7989  7998       L1    18  0.01
      P1  H  7997  8010       L1    18  0.26
      P1  H 10752 10764       L1    13  0.43

> <Gold.Chemscore.Hbond.Weighted>
-8.5039

> <Gold.Chemscore.Metal.Weighted>
-0.0000

> <Gold.Chemscore.Lipo.Weighted>
-5.0259

> <Gold.Chemscore.Internal_Hbond.Weighted>
0.0000

> <Gold.Chemscore.DEClash.Weighted>
0.0247

> <Gold.Chemscore.DEInternal.Weighted>
1.9637

> <Gold.Chemscore.Rot.Weighted>
4.6631

> <Gold.Chemscore.Internal.Correction.Weighted>
   9.000000E+99

> <Gold.Protein.RotatedTorsions>
[ 6907 6896 6895 6894 ] final   97.03 input  -60.11 | X-H torsion
[ 7974 7965 7964 7962 ] final   27.41 input  175.53 | X-H torsion
[ 8008 7997 7996 7995 ] final  113.33 input   59.86 | X-H torsion
[ 10167 10162 10161 10158 ] final   63.86 input  -65.29 | X-H torsion
[ 10718 10713 10712 10709 ] final   70.89 input   66.30 | X-H torsion
[ 10763 10752 10751 10750 ] final  -84.25 input  -60.55 | X-H torsion
[ 11005 11000 10999 10996 ] final  -20.93 input  -57.11 | X-H torsion

> <Gold.Protein.ActiveResidues>
 VAL166  LYS551  ARG553  GLY616  TRP617  ASP618  TYR619  PRO620  LYS621  CYS622 
 ASP623  PHE694  ASN695  SER759  ASP760  ASP761  ALA762  ILE779  LEU786  VAL792 
 PHE793  MET794  SER795  GLU796  ALA797  LYS798  CYS799  TRP800  GLU811  SER814 

> <Gold.Protein.RotatedAtoms>
  152.5428  134.0796  159.8229 H   0  0  0  0  0  0  0  0  0  0  0  0  # atno 6907 bound_to 6896
  151.0899  133.5316  159.2623 H   0  0  0  0  0  0  0  0  0  0  0  0  # atno 6908 bound_to 6896
  151.2111  135.0490  159.8966 H   0  0  0  0  0  0  0  0  0  0  0  0  # atno 6909 bound_to 6896
  146.1786  139.7195  142.8917 H   0  0  0  0  0  0  0  0  0  0  0  0  # atno 7974 bound_to 7965
  156.2251  140.2981  156.0047 H   0  0  0  0  0  0  0  0  0  0  0  0  # atno 8008 bound_to 7997
  155.2378  140.0421  157.2988 H   0  0  0  0  0  0  0  0  0  0  0  0  # atno 8009 bound_to 7997
  154.5903  140.2399  155.7938 H   0  0  0  0  0  0  0  0  0  0  0  0  # atno 8010 bound_to 7997
  140.1285  144.4665  150.6879 H   0  0  0  0  0  0  0  0  0  0  0  0  # atno 10167 bound_to 10162
  157.6423  130.9500  150.0713 H   0  0  0  0  0  0  0  0  0  0  0  0  # atno 10718 bound_to 10713
  154.5973  135.5527  153.7338 H   0  0  0  0  0  0  0  0  0  0  0  0  # atno 10763 bound_to 10752
  153.0140  135.6358  154.1765 H   0  0  0  0  0  0  0  0  0  0  0  0  # atno 10764 bound_to 10752
  154.1705  135.2892  155.3062 H   0  0  0  0  0  0  0  0  0  0  0  0  # atno 10765 bound_to 10752
  140.8512  133.7855  155.9968 H   0  0  0  0  0  0  0  0  0  0  0  0  # atno 11005 bound_to 11000
  145.4142  141.0400  143.3000 LP  0  0  0  0  0  0  0  0  0  0  0  0  # atno 17320 bound_to 7965
  144.8276  139.5682  143.6958 LP  0  0  0  0  0  0  0  0  0  0  0  0  # atno 17321 bound_to 7965
  140.6831  143.2336  151.5332 LP  0  0  0  0  0  0  0  0  0  0  0  0  # atno 17342 bound_to 10162
  139.5532  144.2343  152.1566 LP  0  0  0  0  0  0  0  0  0  0  0  0  # atno 17343 bound_to 10162
  156.1716  130.3646  149.9157 LP  0  0  0  0  0  0  0  0  0  0  0  0  # atno 17370 bound_to 10713
  156.7131  130.8978  151.3611 LP  0  0  0  0  0  0  0  0  0  0  0  0  # atno 17371 bound_to 10713
  140.8788  134.2637  157.5155 LP  0  0  0  0  0  0  0  0  0  0  0  0  # atno 17394 bound_to 11000
  139.8704  134.9604  156.4364 LP  0  0  0  0  0  0  0  0  0  0  0  0  # atno 17395 bound_to 11000

$$$$
