AV-unprocessed.smi:21|AV-procd|sdf|121|dock5
  -GOLD-   2262015293D 1   1.00000     0.00000
 Structure written by MMmdl.
 62 65  0  0  0  0  0  0  0  0  2 V2000
  145.7783  133.4625  151.4545 C   0  0  0  0  0  0  0  0  0  0  0  0
  144.5818  134.2176  151.3546 O   0  0  0  0  0  0  0  0  0  0  0  0
  144.7291  135.5686  151.7652 C   0  0  1  0  0  0  0  0  0  0  0  0
  145.1873  135.6369  153.2153 C   0  0  0  0  0  0  0  0  0  0  0  0
  145.8214  137.0272  153.3106 C   0  0  1  0  0  0  0  0  0  0  0  0
  146.8479  137.1553  154.4559 C   0  0  0  0  0  0  0  0  0  0  0  0
  147.4205  138.4939  154.5820 N   0  0  0  0  0  0  0  0  0  0  0  0
  146.4596  139.5854  154.6529 C   0  0  0  0  0  0  0  0  0  0  0  0
  148.3804  138.6087  155.5257 C   0  0  0  0  0  0  0  0  0  0  0  0
  148.6294  137.5199  156.2934 N   0  0  0  0  0  0  0  0  0  0  0  0
  149.5610  137.5775  157.2502 C   0  0  0  0  0  0  0  0  0  0  0  0
  150.3404  138.6049  157.5962 N   0  0  0  0  0  0  0  0  0  0  0  0
  150.0912  139.7003  156.8225 C   0  0  0  0  0  0  0  0  0  0  0  0
  149.1349  139.7897  155.7730 C   0  0  0  0  0  0  0  0  0  0  0  0
  149.1614  141.0609  155.2119 N   0  0  0  0  0  0  0  0  0  0  0  0
  150.0903  141.6848  155.8842 C   0  0  0  0  0  0  0  0  0  0  0  0
  150.7026  140.9409  156.8673 N   0  0  0  0  0  0  0  0  0  0  0  0
  151.7615  141.3884  157.7559 C   0  0  0  0  0  0  0  0  0  0  0  0
  151.2973  142.4660  158.7686 C   0  0  2  0  0  0  0  0  0  0  0  0
  150.8831  143.7715  158.0407 C   0  0  0  0  0  0  0  0  0  0  0  0
  150.0143  144.5614  158.8245 O   0  0  0  0  0  0  0  0  0  0  0  0
  152.3957  142.7147  159.8397 C   0  0  2  0  0  0  0  0  0  0  0  0
  152.9579  141.4578  160.4850 C   0  0  0  0  0  0  0  0  0  0  0  0
  153.6202  141.9989  161.7472 C   0  0  0  0  0  0  0  0  0  0  0  0
  152.8585  143.1386  162.1250 O   0  0  0  0  0  0  0  0  0  0  0  0
  151.9378  143.4718  161.0918 C   0  0  0  0  0  0  0  0  0  0  0  0
  146.4536  137.2535  151.9899 N   0  3  2  0  0  0  0  0  0  0  0  0
  146.4380  138.6653  151.5478 C   0  0  0  0  0  0  0  0  0  0  0  0
  145.8440  136.3137  151.0190 C   0  0  0  0  0  0  0  0  0  0  0  0
  143.7855  136.1097  151.6700 H   0  0  0  0  0  0  0  0  0  0  0  0
  145.0194  137.7589  153.4279 H   0  0  0  0  0  0  0  0  0  0  0  0
  145.5974  132.4459  151.1052 H   0  0  0  0  0  0  0  0  0  0  0  0
  146.1299  133.4026  152.4849 H   0  0  0  0  0  0  0  0  0  0  0  0
  146.5689  133.8926  150.8384 H   0  0  0  0  0  0  0  0  0  0  0  0
  144.3704  135.4921  153.9230 H   0  0  0  0  0  0  0  0  0  0  0  0
  145.9361  134.8658  153.4045 H   0  0  0  0  0  0  0  0  0  0  0  0
  146.3714  136.8917  155.4009 H   0  0  0  0  0  0  0  0  0  0  0  0
  147.6538  136.4345  154.3153 H   0  0  0  0  0  0  0  0  0  0  0  0
  146.9635  140.5472  154.7596 H   0  0  0  0  0  0  0  0  0  0  0  0
  145.7811  139.4564  155.4970 H   0  0  0  0  0  0  0  0  0  0  0  0
  145.8630  139.6207  153.7411 H   0  0  0  0  0  0  0  0  0  0  0  0
  149.7043  136.6703  157.8188 H   0  0  0  0  0  0  0  0  0  0  0  0
  150.3598  142.7109  155.6788 H   0  0  0  0  0  0  0  0  0  0  0  0
  152.1345  140.5043  158.2721 H   0  0  0  0  0  0  0  0  0  0  0  0
  152.5900  141.7664  157.1557 H   0  0  0  0  0  0  0  0  0  0  0  0
  150.4144  142.0697  159.2731 H   0  0  0  0  0  0  0  0  0  0  0  0
  151.7611  144.3557  157.7637 H   0  0  0  0  0  0  0  0  0  0  0  0
  150.3435  143.5630  157.1184 H   0  0  0  0  0  0  0  0  0  0  0  0
  149.3740  144.9594  158.2545 H   0  0  0  0  0  0  0  0  0  0  0  0
  153.2224  143.2651  159.3868 H   0  0  0  0  0  0  0  0  0  0  0  0
  152.1512  140.7730  160.7509 H   0  0  0  0  0  0  0  0  0  0  0  0
  153.6655  140.9232  159.8507 H   0  0  0  0  0  0  0  0  0  0  0  0
  153.6567  141.2599  162.5477 H   0  0  0  0  0  0  0  0  0  0  0  0
  154.6406  142.3194  161.5342 H   0  0  0  0  0  0  0  0  0  0  0  0
  151.9040  144.5507  160.9399 H   0  0  0  0  0  0  0  0  0  0  0  0
  150.9456  143.1415  161.4020 H   0  0  0  0  0  0  0  0  0  0  0  0
  145.4172  139.0205  151.4011 H   0  0  0  0  0  0  0  0  0  0  0  0
  146.9772  138.7750  150.6065 H   0  0  0  0  0  0  0  0  0  0  0  0
  146.9204  139.3057  152.2870 H   0  0  0  0  0  0  0  0  0  0  0  0
  146.6214  135.6168  150.7037 H   0  0  0  0  0  0  0  0  0  0  0  0
  145.4663  136.8099  150.1238 H   0  0  0  0  0  0  0  0  0  0  0  0
  147.4211  136.9771  152.0785 H   0  0  0  0  0  0  0  0  0  0  0  0
  1  2  1  0  0  0  0
  1 32  1  0  0  0  0
  1 33  1  0  0  0  0
  1 34  1  0  0  0  0
  2  3  1  0  0  0  0
  3 30  1  0  0  0  0
  3 29  1  0  0  0  0
  3  4  1  0  0  0  0
  4  5  1  0  0  0  0
  4 35  1  0  0  0  0
  4 36  1  0  0  0  0
  5 31  1  0  0  0  0
  5  6  1  0  0  0  0
  5 27  1  0  0  0  0
  6  7  1  0  0  0  0
  6 37  1  0  0  0  0
  6 38  1  0  0  0  0
  7  8  1  0  0  0  0
  7  9  1  0  0  0  0
  8 39  1  0  0  0  0
  8 40  1  0  0  0  0
  8 41  1  0  0  0  0
  9 14  1  0  0  0  0
  9 10  2  0  0  0  0
 10 11  1  0  0  0  0
 11 12  2  0  0  0  0
 11 42  1  0  0  0  0
 12 13  1  0  0  0  0
 13 17  1  0  0  0  0
 13 14  2  0  0  0  0
 14 15  1  0  0  0  0
 15 16  2  0  0  0  0
 16 17  1  0  0  0  0
 16 43  1  0  0  0  0
 17 18  1  0  0  0  0
 18 19  1  0  0  0  0
 18 44  1  0  0  0  0
 18 45  1  0  0  0  0
 19 20  1  0  0  0  0
 19 22  1  0  0  0  0
 19 46  1  0  0  0  0
 20 21  1  0  0  0  0
 20 47  1  0  0  0  0
 20 48  1  0  0  0  0
 21 49  1  0  0  0  0
 22 26  1  0  0  0  0
 22 23  1  0  0  0  0
 22 50  1  0  0  0  0
 23 24  1  0  0  0  0
 23 51  1  0  0  0  0
 23 52  1  0  0  0  0
 24 25  1  0  0  0  0
 24 53  1  0  0  0  0
 24 54  1  0  0  0  0
 25 26  1  0  0  0  0
 26 55  1  0  0  0  0
 26 56  1  0  0  0  0
 27 28  1  0  0  0  0
 27 29  1  0  0  0  0
 27 62  1  0  0  0  0
 28 57  1  0  0  0  0
 28 58  1  0  0  0  0
 28 59  1  0  0  0  0
 29 60  1  0  0  0  0
 29 61  1  0  0  0  0
M  CHG  1  27   1
M  END
> <s_m_source_file>
AV-unprocessed.smi

> <i_m_source_file_index>
21

> <i_lp_mmshare_version>
43012

> <i_f3d_flags>
0

> <s_epik_input>
W0NIM11PW0NASF0xW0NIMl1bQ0BIXShOKFtDSDNdKVtDSDJdMSlbQ0gyXU4oW0NIM10pYyhuW2NIXW4yKWMoYzIzKW5bY0hdbjNbQ0gyXVtDQEhdKFtDSDJdW09IXSlbQ0BASF00W0NIMl1bQ0gyXU9bQ0gyXTQ=

> <s_epik_cmdline>
J2VwaWtfcHl0aG9uJywgJy1waCcsICc3LjAnLCAnLXRuJywgJzgnLCAnLW1hJywgJzIwMCcsICctbWV0YWxfYmluZGluZycsICctaW1hZScsICc8aW5maWxlLm1hZT4nLCAnLW9tYWUnLCAnPG91dGZpbGUubWFlPic=

> <r_lp_tautomer_probability>
1

> <r_epik_Ionization_Penalty>
0.0157465

> <r_epik_Ionization_Penalty_Charging>
0.015354

> <r_epik_Ionization_Penalty_Neutral>
0.000392529

> <r_epik_State_Penalty>
0.0120612

> <r_epik_Charging_Adjusted_Penalty>
0.0274152

> <i_epik_Tot_Q>
1

> <i_epik_Tot_abs_Q>
1

> <r_epik_Metal_State_Penalty>
0.0121253

> <b_epik_Metal_Only>
0

> <s_lp_Force_Field>
OPLS_2005

> <r_lp_Energy>
60.2547

> <b_lp_Chiralities_Consistent>
1

> <s_lp_Variant>
AV-unprocessed.smi:21-1

> <Gold.Version>
5.8.1

> <Gold.Id.Protein>
6NUR|6NUR_protein|mol2

> <Gold.PLP.Fitness>
53.8732

> <Gold.PLP.PLP>
-42.6379

> <Gold.PLP.part.hbond>
-2.3135

> <Gold.PLP.part.metal>
0.0000

> <Gold.PLP.part.buried>
-3.8280

> <Gold.PLP.part.nonpolar>
-38.1281

> <Gold.PLP.part.repulsive>
0.6070

> <Gold.PLP.ligand.clash>
0.0000

> <Gold.PLP.ligand.torsion>
0.5517

> <Gold.PLP.Chemscore.Hbond>
3.0000

> <Gold.PLP.Chemscore.CHOScore>
0.8487

> <Gold.PLP.Chemscore.Metal>
0.0000

> <Gold.Chemscore.Hbonds>
donor molecule, donor type, donor heavy atom, donor atom, acceptor molecule, acceptor atom, score
      L1  H    21    49       P1  8029  1.00
      L1  H    27    62       P1  7948  2.00
      L1  C    16    43       P1  8028  0.98

> <Gold.PLP.Chemscore.Internal.Correction>
0.7926

> <Gold.Rescore>
     Score         DG    S(hbond)    S(metal)    S(lipo)     H(rot)  DE(clash)    DE(int)     intcor
     15.59     -16.45       1.76        0.00     116.61       3.35       0.22       0.64       ----

> <Gold.Chemscore.Fitness>
15.5901

> <Gold.Chemscore.DG>
-16.4474

> <Gold.Chemscore.ZeroCoef>
-5.4800

> <Gold.Chemscore.Hbond>
1.7627

> <Gold.Chemscore.Metal>
0.0000

> <Gold.Chemscore.Lipo>
116.6117

> <Gold.Chemscore.Internal_Hbond>
0.0000

> <Gold.Chemscore.DEClash>
0.2179

> <Gold.Chemscore.DEInternal>
0.6395

> <Gold.Chemscore.Rot>
3.3452

> <Gold.Chemscore.Internal.Correction>
   9.000000E+99

> <Gold.Chemscore.Hbonds>
donor molecule, donor type, donor heavy atom, donor atom, acceptor molecule, acceptor atom, score
      L1  H    21    49       P1  8029  0.42
      L1  H    27    62       P1  7948  1.00

> <Gold.Chemscore.Hbond.Weighted>
-5.8875

> <Gold.Chemscore.Metal.Weighted>
-0.0000

> <Gold.Chemscore.Lipo.Weighted>
-13.6436

> <Gold.Chemscore.Internal_Hbond.Weighted>
0.0000

> <Gold.Chemscore.DEClash.Weighted>
0.2179

> <Gold.Chemscore.DEInternal.Weighted>
0.6395

> <Gold.Chemscore.Rot.Weighted>
8.5636

> <Gold.Chemscore.Internal.Correction.Weighted>
   9.000000E+99

> <Gold.Protein.RotatedTorsions>
[ 6907 6896 6895 6894 ] final -167.63 input  -60.11 | X-H torsion
[ 7974 7965 7964 7962 ] final -161.32 input  175.53 | X-H torsion
[ 8008 7997 7996 7995 ] final  100.25 input   59.86 | X-H torsion
[ 10167 10162 10161 10158 ] final   51.04 input  -65.29 | X-H torsion
[ 10718 10713 10712 10709 ] final   53.49 input   66.30 | X-H torsion
[ 10763 10752 10751 10750 ] final  -10.98 input  -60.55 | X-H torsion
[ 11005 11000 10999 10996 ] final -117.94 input  -57.11 | X-H torsion

> <Gold.Protein.ActiveResidues>
 VAL166  LYS551  ARG553  GLY616  TRP617  ASP618  TYR619  PRO620  LYS621  CYS622 
 ASP623  PHE694  ASN695  SER759  ASP760  ASP761  ALA762  ILE779  LEU786  VAL792 
 PHE793  MET794  SER795  GLU796  ALA797  LYS798  CYS799  TRP800  GLU811  SER814 

> <Gold.Protein.RotatedAtoms>
  151.4626  133.3589  159.2811 H   0  0  0  0  0  0  0  0  0  0  0  0  # atno 6907 bound_to 6896
  150.9015  134.8429  159.7374 H   0  0  0  0  0  0  0  0  0  0  0  0  # atno 6908 bound_to 6896
  152.4882  134.4547  159.9638 H   0  0  0  0  0  0  0  0  0  0  0  0  # atno 6909 bound_to 6896
  144.7395  140.3414  143.6134 H   0  0  0  0  0  0  0  0  0  0  0  0  # atno 7974 bound_to 7965
  156.1185  140.3216  155.8174 H   0  0  0  0  0  0  0  0  0  0  0  0  # atno 8008 bound_to 7997
  155.4546  140.0535  157.3014 H   0  0  0  0  0  0  0  0  0  0  0  0  # atno 8009 bound_to 7997
  154.4810  140.2053  155.9777 H   0  0  0  0  0  0  0  0  0  0  0  0  # atno 8010 bound_to 7997
  140.2661  144.3318  150.6303 H   0  0  0  0  0  0  0  0  0  0  0  0  # atno 10167 bound_to 10162
  157.5171  130.8540  149.8510 H   0  0  0  0  0  0  0  0  0  0  0  0  # atno 10718 bound_to 10713
  153.4771  135.7017  153.5960 H   0  0  0  0  0  0  0  0  0  0  0  0  # atno 10763 bound_to 10752
  153.4189  135.3830  155.2098 H   0  0  0  0  0  0  0  0  0  0  0  0  # atno 10764 bound_to 10752
  154.8723  135.3923  154.4216 H   0  0  0  0  0  0  0  0  0  0  0  0  # atno 10765 bound_to 10752
  141.0320  133.9967  157.3128 H   0  0  0  0  0  0  0  0  0  0  0  0  # atno 11005 bound_to 11000
  145.7371  139.1753  143.2397 LP  0  0  0  0  0  0  0  0  0  0  0  0  # atno 17320 bound_to 7965
  146.1163  140.7366  142.9479 LP  0  0  0  0  0  0  0  0  0  0  0  0  # atno 17321 bound_to 7965
  140.5927  143.2167  151.7222 LP  0  0  0  0  0  0  0  0  0  0  0  0  # atno 17342 bound_to 10162
  139.5002  144.3914  152.0275 LP  0  0  0  0  0  0  0  0  0  0  0  0  # atno 17343 bound_to 10162
  156.0328  130.3760  150.1642 LP  0  0  0  0  0  0  0  0  0  0  0  0  # atno 17370 bound_to 10713
  156.9830  130.9870  151.3433 LP  0  0  0  0  0  0  0  0  0  0  0  0  # atno 17371 bound_to 10713
  139.9214  135.0200  156.8079 LP  0  0  0  0  0  0  0  0  0  0  0  0  # atno 17394 bound_to 11000
  140.6390  133.9836  155.7698 LP  0  0  0  0  0  0  0  0  0  0  0  0  # atno 17395 bound_to 11000

$$$$
