AV-unprocessed.smi:229|AV-procd|sdf|1754|dock8
  -GOLD-   2262020283D 1   1.00000     0.00000
 Structure written by MMmdl.
 58 62  0  0  0  0  0  0  0  0  1 V2000
  153.6728  142.2341  162.2951 C   0  0  0  0  0  0  0  0  0  0  0  0
  153.3946  141.2645  161.1395 C   0  0  0  0  0  0  0  0  0  0  0  0
  152.8567  141.9688  159.8852 C   0  0  1  0  0  0  0  0  0  0  0  0
  152.3080  140.9669  158.8562 C   0  0  0  0  0  0  0  0  0  0  0  0
  151.7225  141.6894  157.7365 N   0  0  0  0  0  0  0  0  0  0  0  0
  151.3994  140.9387  156.6627 C   0  0  0  0  0  0  0  0  0  0  0  0
  152.3475  140.0848  156.2054 N   0  0  0  0  0  0  0  0  0  0  0  0
  152.0956  139.3138  155.1430 C   0  0  0  0  0  0  0  0  0  0  0  0
  150.9862  139.2467  154.4039 N   0  0  0  0  0  0  0  0  0  0  0  0
  150.0354  140.1146  154.8554 C   0  0  0  0  0  0  0  0  0  0  0  0
  150.1568  140.9927  155.9692 C   0  0  0  0  0  0  0  0  0  0  0  0
  148.9885  141.7314  156.1182 N   0  0  0  0  0  0  0  0  0  0  0  0
  148.2187  141.3090  155.1527 C   0  0  0  0  0  0  0  0  0  0  0  0
  148.7690  140.3400  154.3456 N   0  0  0  0  0  0  0  0  0  0  0  0
  148.1396  139.7045  153.2013 C   0  0  0  0  0  0  0  0  0  0  0  0
  146.8043  139.0273  153.5673 C   0  0  1  0  0  0  0  0  0  0  0  0
  146.0228  138.7947  152.4098 O   0  0  0  0  0  0  0  0  0  0  0  0
  146.9897  137.7185  154.3630 C   0  0  1  0  0  0  0  0  0  0  0  0
  147.7994  137.8408  155.6655 C   0  0  0  0  0  0  0  0  0  0  0  0
  146.8067  137.4426  156.7409 C   0  0  0  0  0  0  0  0  0  0  0  0
  145.8563  136.5252  155.9835 C   0  0  0  0  0  0  0  0  0  0  0  0
  145.7269  137.1637  154.7235 O   0  0  0  0  0  0  0  0  0  0  0  0
  150.6594  142.5930  158.1493 C   0  0  0  0  0  0  0  0  0  0  0  0
  151.1724  143.5802  159.2202 C   0  0  1  0  0  0  0  0  0  0  0  0
  152.0602  144.6946  158.6752 C   0  0  0  0  0  0  0  0  0  0  0  0
  151.9056  145.7713  159.7382 C   0  0  0  0  0  0  0  0  0  0  0  0
  150.5309  145.7112  160.0859 O   0  0  0  0  0  0  0  0  0  0  0  0
  150.0355  144.3928  159.8601 C   0  0  0  0  0  0  0  0  0  0  0  0
  151.8060  142.8535  160.2816 O   0  0  0  0  0  0  0  0  0  0  0  0
  154.0706  141.7021  163.1596 H   0  0  0  0  0  0  0  0  0  0  0  0
  152.7634  142.7464  162.6106 H   0  0  0  0  0  0  0  0  0  0  0  0
  154.4017  142.9920  162.0071 H   0  0  0  0  0  0  0  0  0  0  0  0
  154.3193  140.7423  160.8911 H   0  0  0  0  0  0  0  0  0  0  0  0
  152.6881  140.5003  161.4653 H   0  0  0  0  0  0  0  0  0  0  0  0
  153.6736  142.5313  159.4344 H   0  0  0  0  0  0  0  0  0  0  0  0
  153.1060  140.3136  158.5004 H   0  0  0  0  0  0  0  0  0  0  0  0
  151.5559  140.3348  159.3283 H   0  0  0  0  0  0  0  0  0  0  0  0
  152.8979  138.6565  154.8419 H   0  0  0  0  0  0  0  0  0  0  0  0
  147.2228  141.6983  154.9979 H   0  0  0  0  0  0  0  0  0  0  0  0
  147.9909  140.4550  152.4241 H   0  0  0  0  0  0  0  0  0  0  0  0
  148.8350  138.9697  152.7940 H   0  0  0  0  0  0  0  0  0  0  0  0
  146.2317  139.7153  154.1906 H   0  0  0  0  0  0  0  0  0  0  0  0
  145.4733  139.5489  152.2621 H   0  0  0  0  0  0  0  0  0  0  0  0
  147.4849  136.9890  153.7199 H   0  0  0  0  0  0  0  0  0  0  0  0
  148.6327  137.1372  155.6488 H   0  0  0  0  0  0  0  0  0  0  0  0
  148.2147  138.8346  155.8348 H   0  0  0  0  0  0  0  0  0  0  0  0
  147.2747  136.9600  157.5992 H   0  0  0  0  0  0  0  0  0  0  0  0
  146.2681  138.3227  157.0946 H   0  0  0  0  0  0  0  0  0  0  0  0
  146.2947  135.5351  155.8484 H   0  0  0  0  0  0  0  0  0  0  0  0
  144.8917  136.4133  156.4789 H   0  0  0  0  0  0  0  0  0  0  0  0
  150.2656  143.1343  157.2878 H   0  0  0  0  0  0  0  0  0  0  0  0
  149.8364  142.0031  158.5560 H   0  0  0  0  0  0  0  0  0  0  0  0
  153.0977  144.4149  158.5014 H   0  0  0  0  0  0  0  0  0  0  0  0
  151.6606  145.0628  157.7292 H   0  0  0  0  0  0  0  0  0  0  0  0
  152.5099  145.5362  160.6156 H   0  0  0  0  0  0  0  0  0  0  0  0
  152.1874  146.7619  159.3819 H   0  0  0  0  0  0  0  0  0  0  0  0
  149.1821  144.4746  159.1858 H   0  0  0  0  0  0  0  0  0  0  0  0
  149.6777  143.9442  160.7877 H   0  0  0  0  0  0  0  0  0  0  0  0
  1  2  1  0  0  0  0
  1 30  1  0  0  0  0
  1 31  1  0  0  0  0
  1 32  1  0  0  0  0
  2  3  1  0  0  0  0
  2 33  1  0  0  0  0
  2 34  1  0  0  0  0
  3 29  1  0  0  0  0
  3  4  1  0  0  0  0
  3 35  1  0  0  0  0
  4  5  1  0  0  0  0
  4 36  1  0  0  0  0
  4 37  1  0  0  0  0
  5  6  1  0  0  0  0
  5 23  1  0  0  0  0
  6 11  1  0  0  0  0
  6  7  2  0  0  0  0
  7  8  1  0  0  0  0
  8  9  2  0  0  0  0
  8 38  1  0  0  0  0
  9 10  1  0  0  0  0
 10 14  1  0  0  0  0
 10 11  2  0  0  0  0
 11 12  1  0  0  0  0
 12 13  2  0  0  0  0
 13 14  1  0  0  0  0
 13 39  1  0  0  0  0
 14 15  1  0  0  0  0
 15 16  1  0  0  0  0
 15 40  1  0  0  0  0
 15 41  1  0  0  0  0
 16 17  1  0  0  0  0
 16 18  1  0  0  0  0
 16 42  1  0  0  0  0
 17 43  1  0  0  0  0
 18 22  1  0  0  0  0
 18 19  1  0  0  0  0
 18 44  1  0  0  0  0
 19 20  1  0  0  0  0
 19 45  1  0  0  0  0
 19 46  1  0  0  0  0
 20 21  1  0  0  0  0
 20 47  1  0  0  0  0
 20 48  1  0  0  0  0
 21 22  1  0  0  0  0
 21 49  1  0  0  0  0
 21 50  1  0  0  0  0
 23 24  1  0  0  0  0
 23 51  1  0  0  0  0
 23 52  1  0  0  0  0
 24 28  1  0  0  0  0
 24 25  1  0  0  0  0
 24 29  1  0  0  0  0
 25 26  1  0  0  0  0
 25 53  1  0  0  0  0
 25 54  1  0  0  0  0
 26 27  1  0  0  0  0
 26 55  1  0  0  0  0
 26 56  1  0  0  0  0
 27 28  1  0  0  0  0
 28 57  1  0  0  0  0
 28 58  1  0  0  0  0
M  END
> <s_m_source_file>
AV-unprocessed.smi

> <i_m_source_file_index>
229

> <i_lp_mmshare_version>
43012

> <i_f3d_flags>
0

> <s_epik_input>
W0NIMl0xT1tDSDJdW0NIMl1bQ0BdMTJbQ0gyXU4oW0NIMl1bQ0BIXShPMilbQ0gyXVtDSDNdKWMobltjSF1uMyljKGMzNCluW2NIXW40W0NIMl1bQ0BIXShbT0hdKVtDQEBIXTVbQ0gyXVtDSDJdW0NIMl1PNQ==

> <s_epik_cmdline>
J2VwaWtfcHl0aG9uJywgJy1waCcsICc3LjAnLCAnLXRuJywgJzgnLCAnLW1hJywgJzIwMCcsICctbWV0YWxfYmluZGluZycsICctaW1hZScsICc8aW5maWxlLm1hZT4nLCAnLW9tYWUnLCAnPG91dGZpbGUubWFlPic=

> <r_lp_tautomer_probability>
1

> <r_epik_Ionization_Penalty>
0.00318402

> <r_epik_Ionization_Penalty_Charging>
0

> <r_epik_Ionization_Penalty_Neutral>
0.00318402

> <r_epik_State_Penalty>
0.00215642

> <r_epik_Charging_Adjusted_Penalty>
0.00215642

> <i_epik_Tot_Q>
0

> <i_epik_Tot_abs_Q>
0

> <r_epik_Metal_State_Penalty>
-0

> <b_epik_Metal_Only>
0

> <s_lp_Force_Field>
OPLS_2005

> <r_lp_Energy>
59.0026

> <b_lp_Chiralities_Consistent>
1

> <s_lp_Variant>
AV-unprocessed.smi:229-8

> <Gold.Version>
5.8.1

> <Gold.Id.Protein>
6NUR|6NUR_protein|mol2

> <Gold.PLP.Fitness>
54.7276

> <Gold.PLP.PLP>
-49.0728

> <Gold.PLP.part.hbond>
-4.2097

> <Gold.PLP.part.metal>
0.0000

> <Gold.PLP.part.buried>
0.1547

> <Gold.PLP.part.nonpolar>
-44.3857

> <Gold.PLP.part.repulsive>
1.2700

> <Gold.PLP.ligand.clash>
0.0000

> <Gold.PLP.ligand.torsion>
0.3467

> <Gold.PLP.Chemscore.Hbond>
2.0525

> <Gold.PLP.Chemscore.CHOScore>
0.0000

> <Gold.PLP.Chemscore.Metal>
0.0000

> <Gold.Chemscore.Hbonds>
donor molecule, donor type, donor heavy atom, donor atom, acceptor molecule, acceptor atom, score
      L1  H    17    43       P1 10175  0.99
      P1  H  7989  7998       L1     9  0.04
      P1  H  7997  8008       L1     7  1.00

> <Gold.PLP.Chemscore.Internal.Correction>
0.1907

> <Gold.Rescore>
     Score         DG    S(hbond)    S(metal)    S(lipo)     H(rot)  DE(clash)    DE(int)     intcor
     10.76     -16.82       1.44        0.00     109.54       2.46       3.20       2.86       ----

> <Gold.Chemscore.Fitness>
10.7640

> <Gold.Chemscore.DG>
-16.8214

> <Gold.Chemscore.ZeroCoef>
-5.4800

> <Gold.Chemscore.Hbond>
1.4434

> <Gold.Chemscore.Metal>
0.0000

> <Gold.Chemscore.Lipo>
109.5383

> <Gold.Chemscore.Internal_Hbond>
0.0000

> <Gold.Chemscore.DEClash>
3.1965

> <Gold.Chemscore.DEInternal>
2.8609

> <Gold.Chemscore.Rot>
2.4591

> <Gold.Chemscore.Internal.Correction>
   9.000000E+99

> <Gold.Chemscore.Hbonds>
donor molecule, donor type, donor heavy atom, donor atom, acceptor molecule, acceptor atom, score
      L1  H    17    43       P1 10175  0.88
      P1  H  7997  8008       L1     7  0.43

> <Gold.Chemscore.Hbond.Weighted>
-4.8208

> <Gold.Chemscore.Metal.Weighted>
-0.0000

> <Gold.Chemscore.Lipo.Weighted>
-12.8160

> <Gold.Chemscore.Internal_Hbond.Weighted>
0.0000

> <Gold.Chemscore.DEClash.Weighted>
3.1965

> <Gold.Chemscore.DEInternal.Weighted>
2.8609

> <Gold.Chemscore.Rot.Weighted>
6.2953

> <Gold.Chemscore.Internal.Correction.Weighted>
   9.000000E+99

> <Gold.Protein.RotatedTorsions>
[ 6907 6896 6895 6894 ] final   -3.58 input  -60.11 | X-H torsion
[ 7974 7965 7964 7962 ] final   33.03 input  175.53 | X-H torsion
[ 8008 7997 7996 7995 ] final  -40.98 input   59.86 | X-H torsion
[ 10167 10162 10161 10158 ] final  178.90 input  -65.29 | X-H torsion
[ 10718 10713 10712 10709 ] final  122.19 input   66.30 | X-H torsion
[ 10763 10752 10751 10750 ] final   47.36 input  -60.55 | X-H torsion
[ 11005 11000 10999 10996 ] final  -97.12 input  -57.11 | X-H torsion

> <Gold.Protein.ActiveResidues>
 VAL166  LYS551  ARG553  GLY616  TRP617  ASP618  TYR619  PRO620  LYS621  CYS622 
 ASP623  PHE694  ASN695  SER759  ASP760  ASP761  ALA762  ILE779  LEU786  VAL792 
 PHE793  MET794  SER795  GLU796  ALA797  LYS798  CYS799  TRP800  GLU811  SER814 

> <Gold.Protein.RotatedAtoms>
  151.5115  135.1065  159.9854 H   0  0  0  0  0  0  0  0  0  0  0  0  # atno 6907 bound_to 6896
  152.4659  133.7918  159.6917 H   0  0  0  0  0  0  0  0  0  0  0  0  # atno 6908 bound_to 6896
  150.8643  133.7534  159.3007 H   0  0  0  0  0  0  0  0  0  0  0  0  # atno 6909 bound_to 6896
  146.1448  139.6449  142.9139 H   0  0  0  0  0  0  0  0  0  0  0  0  # atno 7974 bound_to 7965
  154.4007  140.1511  156.3116 H   0  0  0  0  0  0  0  0  0  0  0  0  # atno 8008 bound_to 7997
  155.8611  140.3453  155.5735 H   0  0  0  0  0  0  0  0  0  0  0  0  # atno 8009 bound_to 7997
  155.7879  140.0852  157.2015 H   0  0  0  0  0  0  0  0  0  0  0  0  # atno 8010 bound_to 7997
  139.5313  144.2625  152.0695 H   0  0  0  0  0  0  0  0  0  0  0  0  # atno 10167 bound_to 10162
  157.5761  131.1079  150.8277 H   0  0  0  0  0  0  0  0  0  0  0  0  # atno 10718 bound_to 10713
  152.9801  135.5978  154.3750 H   0  0  0  0  0  0  0  0  0  0  0  0  # atno 10763 bound_to 10752
  154.3420  135.2767  155.2419 H   0  0  0  0  0  0  0  0  0  0  0  0  # atno 10764 bound_to 10752
  154.4496  135.5993  153.6238 H   0  0  0  0  0  0  0  0  0  0  0  0  # atno 10765 bound_to 10752
  141.1389  133.8147  157.0663 H   0  0  0  0  0  0  0  0  0  0  0  0  # atno 11005 bound_to 11000
  145.4964  141.0438  143.2565 LP  0  0  0  0  0  0  0  0  0  0  0  0  # atno 17320 bound_to 7965
  144.7833  139.6479  143.7145 LP  0  0  0  0  0  0  0  0  0  0  0  0  # atno 17321 bound_to 7965
  140.2089  144.4583  150.6395 LP  0  0  0  0  0  0  0  0  0  0  0  0  # atno 17342 bound_to 10162
  140.6493  143.2221  151.6113 LP  0  0  0  0  0  0  0  0  0  0  0  0  # atno 17343 bound_to 10162
  156.8735  130.5154  149.5295 LP  0  0  0  0  0  0  0  0  0  0  0  0  # atno 17370 bound_to 10713
  156.0805  130.5817  150.9555 LP  0  0  0  0  0  0  0  0  0  0  0  0  # atno 17371 bound_to 10713
  140.0539  134.9791  157.1186 LP  0  0  0  0  0  0  0  0  0  0  0  0  # atno 17394 bound_to 11000
  140.3948  134.2146  155.7165 LP  0  0  0  0  0  0  0  0  0  0  0  0  # atno 17395 bound_to 11000

$$$$
