AV-unprocessed.smi:742|AV-procd|sdf|3558|dock1
  -GOLD-   22720 0553D 1   1.00000     0.00000
 Structure written by MMmdl.
 25 25  0  0  0  0  0  0  0  0  2 V2000
  147.4095  138.8079  151.8449 N   0  3  0  0  0  0  0  0  0  0  0  0
  147.0799  139.1747  153.2319 C   0  0  0  0  0  0  0  0  0  0  0  0
  147.6197  140.5690  153.5821 C   0  0  0  0  0  0  0  0  0  0  0  0
  149.0806  140.5544  153.6604 N   0  0  0  0  0  0  0  0  0  0  0  0
  149.9143  140.1326  155.1139 S   0  0  0  0  0  0  0  0  0  0  0  0
  149.3042  138.9044  155.6470 O   0  0  0  0  0  0  0  0  0  0  0  0
  151.3516  140.1782  154.8071 O   0  0  0  0  0  0  0  0  0  0  0  0
  149.5243  141.5536  156.2292 C   0  0  0  0  0  0  0  0  0  0  0  0
  150.3774  141.5144  157.4663 C   0  0  0  0  0  0  0  0  0  0  0  0
  151.4032  140.5864  157.7992 C   0  0  0  0  0  0  0  0  0  0  0  0
  151.8328  141.0112  159.0233 C   0  0  0  0  0  0  0  0  0  0  0  0
  151.1346  142.1053  159.4182 O   0  0  0  0  0  0  0  0  0  0  0  0
  150.2038  142.4155  158.4204 N   0  0  0  0  0  0  0  0  0  0  0  0
  146.5663  138.8032  151.2889 H   0  0  0  0  0  0  0  0  0  0  0  0
  147.8288  137.8893  151.8278 H   0  0  0  0  0  0  0  0  0  0  0  0
  145.9964  139.1365  153.3450 H   0  0  0  0  0  0  0  0  0  0  0  0
  147.4982  138.4249  153.9041 H   0  0  0  0  0  0  0  0  0  0  0  0
  147.3165  141.2941  152.8264 H   0  0  0  0  0  0  0  0  0  0  0  0
  147.2123  140.9104  154.5342 H   0  0  0  0  0  0  0  0  0  0  0  0
  149.5910  140.3819  152.7943 H   0  0  0  0  0  0  0  0  0  0  0  0
  149.7023  142.4736  155.6715 H   0  0  0  0  0  0  0  0  0  0  0  0
  148.4627  141.5223  156.4737 H   0  0  0  0  0  0  0  0  0  0  0  0
  151.7664  139.7436  157.2299 H   0  0  0  0  0  0  0  0  0  0  0  0
  152.5891  140.6577  159.7085 H   0  0  0  0  0  0  0  0  0  0  0  0
  148.0579  139.4824  151.4639 H   0  0  0  0  0  0  0  0  0  0  0  0
  1  2  1  0  0  0  0
  1 14  1  0  0  0  0
  1 15  1  0  0  0  0
  1 25  1  0  0  0  0
  2  3  1  0  0  0  0
  2 16  1  0  0  0  0
  2 17  1  0  0  0  0
  3  4  1  0  0  0  0
  3 18  1  0  0  0  0
  3 19  1  0  0  0  0
  4  5  1  0  0  0  0
  4 20  1  0  0  0  0
  5  6  2  0  0  0  0
  5  7  2  0  0  0  0
  5  8  1  0  0  0  0
  8  9  1  0  0  0  0
  8 21  1  0  0  0  0
  8 22  1  0  0  0  0
  9 13  2  0  0  0  0
  9 10  1  0  0  0  0
 10 11  2  0  0  0  0
 10 23  1  0  0  0  0
 11 12  1  0  0  0  0
 11 24  1  0  0  0  0
 12 13  1  0  0  0  0
M  CHG  1   1   1
M  END
> <s_m_source_file>
AV-unprocessed.smi

> <i_m_source_file_index>
742

> <i_lp_mmshare_version>
43012

> <i_f3d_flags>
0

> <s_epik_input>
W05IMl1bQ0gyXVtDSDJdW05IXVMoPU8pKD1PKVtDSDJdYzFbY0hdW2NIXW9uMQ==

> <s_epik_cmdline>
J2VwaWtfcHl0aG9uJywgJy1waCcsICc3LjAnLCAnLXRuJywgJzgnLCAnLW1hJywgJzIwMCcsICctbWV0YWxfYmluZGluZycsICctaW1hZScsICc8aW5maWxlLm1hZT4nLCAnLW9tYWUnLCAnPG91dGZpbGUubWFlPic=

> <r_lp_tautomer_probability>
1

> <r_epik_Ionization_Penalty>
0.00734165

> <r_epik_Ionization_Penalty_Charging>
0.00580839

> <r_epik_Ionization_Penalty_Neutral>
0.00153326

> <r_epik_State_Penalty>
-0

> <r_epik_Charging_Adjusted_Penalty>
0.00580839

> <i_epik_Tot_Q>
1

> <i_epik_Tot_abs_Q>
1

> <r_epik_Metal_State_Penalty>
0.322493

> <b_epik_Metal_Only>
0

> <s_lp_Force_Field>
OPLS_2005

> <r_lp_Energy>
-3.29025

> <b_lp_Chiralities_Consistent>
1

> <s_lp_Variant>
AV-unprocessed.smi:742-1

> <Gold.Version>
5.8.1

> <Gold.Id.Protein>
6NUR|6NUR_protein|mol2

> <Gold.PLP.Fitness>
35.5497

> <Gold.PLP.PLP>
-21.2686

> <Gold.PLP.part.hbond>
-4.9896

> <Gold.PLP.part.metal>
0.0000

> <Gold.PLP.part.buried>
-4.5221

> <Gold.PLP.part.nonpolar>
-12.9383

> <Gold.PLP.part.repulsive>
0.4682

> <Gold.PLP.ligand.clash>
0.0000

> <Gold.PLP.ligand.torsion>
0.9108

> <Gold.PLP.Chemscore.Hbond>
5.0000

> <Gold.PLP.Chemscore.CHOScore>
0.0000

> <Gold.PLP.Chemscore.Metal>
0.0000

> <Gold.Chemscore.Hbonds>
donor molecule, donor type, donor heavy atom, donor atom, acceptor molecule, acceptor atom, score
      L1  H     1    15       P1  7948  2.00
      L1  H     1    25       P1  7957  1.00
      L1  H     4    20       P1  7957  1.00
      P1  H  7989  7998       L1     7  0.93

> <Gold.PLP.Chemscore.Internal.Correction>
1.1028

> <Gold.Rescore>
     Score         DG    S(hbond)    S(metal)    S(lipo)     H(rot)  DE(clash)    DE(int)     intcor
     15.84     -16.63       3.88        0.00      34.46       2.28       0.01       0.78       ----

> <Gold.Chemscore.Fitness>
15.8399

> <Gold.Chemscore.DG>
-16.6298

> <Gold.Chemscore.ZeroCoef>
-5.4800

> <Gold.Chemscore.Hbond>
3.8785

> <Gold.Chemscore.Metal>
0.0000

> <Gold.Chemscore.Lipo>
34.4615

> <Gold.Chemscore.Internal_Hbond>
0.0000

> <Gold.Chemscore.DEClash>
0.0052

> <Gold.Chemscore.DEInternal>
0.7847

> <Gold.Chemscore.Rot>
2.2798

> <Gold.Chemscore.Internal.Correction>
   9.000000E+99

> <Gold.Chemscore.Hbonds>
donor molecule, donor type, donor heavy atom, donor atom, acceptor molecule, acceptor atom, score
      L1  H     1    15       P1  7948  0.98
      L1  H     1    25       P1  7957  0.94
      L1  H     4    20       P1  7957  0.95
      P1  H  7989  7998       L1     7  0.75

> <Gold.Chemscore.Hbond.Weighted>
-12.9540

> <Gold.Chemscore.Metal.Weighted>
-0.0000

> <Gold.Chemscore.Lipo.Weighted>
-4.0320

> <Gold.Chemscore.Internal_Hbond.Weighted>
0.0000

> <Gold.Chemscore.DEClash.Weighted>
0.0052

> <Gold.Chemscore.DEInternal.Weighted>
0.7847

> <Gold.Chemscore.Rot.Weighted>
5.8362

> <Gold.Chemscore.Internal.Correction.Weighted>
   9.000000E+99

> <Gold.Protein.RotatedTorsions>
[ 6907 6896 6895 6894 ] final -113.87 input  -60.11 | X-H torsion
[ 7974 7965 7964 7962 ] final  117.50 input  175.53 | X-H torsion
[ 8008 7997 7996 7995 ] final   -0.41 input   59.86 | X-H torsion
[ 10167 10162 10161 10158 ] final  -26.52 input  -65.29 | X-H torsion
[ 10718 10713 10712 10709 ] final  151.99 input   66.30 | X-H torsion
[ 10763 10752 10751 10750 ] final  -42.60 input  -60.55 | X-H torsion
[ 11005 11000 10999 10996 ] final  102.93 input  -57.11 | X-H torsion

> <Gold.Protein.ActiveResidues>
 VAL166  LYS551  ARG553  GLY616  TRP617  ASP618  TYR619  PRO620  LYS621  CYS622 
 ASP623  PHE694  ASN695  SER759  ASP760  ASP761  ALA762  ILE779  LEU786  VAL792 
 PHE793  MET794  SER795  GLU796  ALA797  LYS798  CYS799  TRP800  GLU811  SER814 

> <Gold.Protein.RotatedAtoms>
  150.7860  133.8883  159.3305 H   0  0  0  0  0  0  0  0  0  0  0  0  # atno 6907 bound_to 6896
  151.6733  135.0971  160.0211 H   0  0  0  0  0  0  0  0  0  0  0  0  # atno 6908 bound_to 6896
  152.3924  133.6659  159.6284 H   0  0  0  0  0  0  0  0  0  0  0  0  # atno 6909 bound_to 6896
  145.1667  139.3124  143.4489 H   0  0  0  0  0  0  0  0  0  0  0  0  # atno 7974 bound_to 7965
  154.6584  140.2585  155.7136 H   0  0  0  0  0  0  0  0  0  0  0  0  # atno 8008 bound_to 7997
  156.2607  140.2854  156.0967 H   0  0  0  0  0  0  0  0  0  0  0  0  # atno 8009 bound_to 7997
  155.1346  140.0379  157.2773 H   0  0  0  0  0  0  0  0  0  0  0  0  # atno 8010 bound_to 7997
  140.7282  143.4171  151.1011 H   0  0  0  0  0  0  0  0  0  0  0  0  # atno 10167 bound_to 10162
  157.2635  131.0803  151.1649 H   0  0  0  0  0  0  0  0  0  0  0  0  # atno 10718 bound_to 10713
  153.9817  135.6716  153.4750 H   0  0  0  0  0  0  0  0  0  0  0  0  # atno 10763 bound_to 10752
  153.0745  135.4956  154.8372 H   0  0  0  0  0  0  0  0  0  0  0  0  # atno 10764 bound_to 10752
  154.7161  135.3107  154.9084 H   0  0  0  0  0  0  0  0  0  0  0  0  # atno 10765 bound_to 10752
  139.8780  134.9243  156.5133 H   0  0  0  0  0  0  0  0  0  0  0  0  # atno 11005 bound_to 11000
  146.3475  140.1797  142.8589 LP  0  0  0  0  0  0  0  0  0  0  0  0  # atno 17320 bound_to 7965
  145.0275  140.8844  143.5129 LP  0  0  0  0  0  0  0  0  0  0  0  0  # atno 17321 bound_to 7965
  139.7812  143.8353  152.3138 LP  0  0  0  0  0  0  0  0  0  0  0  0  # atno 17342 bound_to 10162
  139.8304  144.7256  150.9457 LP  0  0  0  0  0  0  0  0  0  0  0  0  # atno 17343 bound_to 10162
  157.3149  130.6908  149.6236 LP  0  0  0  0  0  0  0  0  0  0  0  0  # atno 17370 bound_to 10713
  155.9664  130.4352  150.5083 LP  0  0  0  0  0  0  0  0  0  0  0  0  # atno 17371 bound_to 10713
  140.8504  133.8136  155.9163 LP  0  0  0  0  0  0  0  0  0  0  0  0  # atno 17394 bound_to 11000
  140.9149  134.2214  157.4962 LP  0  0  0  0  0  0  0  0  0  0  0  0  # atno 17395 bound_to 11000

$$$$
