AV-unprocessed.smi:1371|AV-procd|sdf|5581|dock6
  -GOLD-   22720 5183D 1   1.00000     0.00000
 Structure written by MMmdl.
 31 31  0  0  0  0  0  0  0  0  1 V2000
  152.2401  144.7114  158.8743 C   0  0  0  0  0  0  0  0  0  0  0  0
  151.4685  143.9505  159.9587 C   0  0  0  0  0  0  0  0  0  0  0  0
  152.3940  143.5272  161.1112 C   0  0  0  0  0  0  0  0  0  0  0  0
  150.8892  142.8125  159.3340 O   0  0  0  0  0  0  0  0  0  0  0  0
  151.8190  141.9366  158.7123 C   0  0  0  0  0  0  0  0  0  0  0  0
  151.1120  141.1857  157.5802 C   0  0  0  0  0  0  0  0  0  0  0  0
  150.6489  142.3046  156.2228 S   0  0  0  0  0  0  0  0  0  0  0  0
  149.5805  141.2881  155.2161 C   0  0  0  0  0  0  0  0  0  0  0  0
  148.3180  141.6912  155.0405 N   0  0  0  0  0  0  0  0  0  0  0  0
  147.5342  140.9048  154.2729 C   0  0  0  0  0  0  0  0  0  0  0  0
  146.2162  141.3101  154.0772 N   0  0  0  0  0  0  0  0  0  0  0  0
  148.0202  139.7174  153.6866 C   0  0  0  0  0  0  0  0  0  0  0  0
  149.3691  139.3990  153.9493 C   0  0  0  0  0  0  0  0  0  0  0  0
  149.9465  138.2484  153.4182 N   0  0  0  0  0  0  0  0  0  0  0  0
  150.1500  140.1881  154.7176 N   0  0  0  0  0  0  0  0  0  0  0  0
  152.6935  145.6178  159.2761 H   0  0  0  0  0  0  0  0  0  0  0  0
  151.5785  145.0055  158.0590 H   0  0  0  0  0  0  0  0  0  0  0  0
  153.0365  144.0979  158.4519 H   0  0  0  0  0  0  0  0  0  0  0  0
  150.6839  144.6065  160.3393 H   0  0  0  0  0  0  0  0  0  0  0  0
  152.9016  144.3915  161.5400 H   0  0  0  0  0  0  0  0  0  0  0  0
  153.1583  142.8306  160.7657 H   0  0  0  0  0  0  0  0  0  0  0  0
  151.8436  143.0455  161.9187 H   0  0  0  0  0  0  0  0  0  0  0  0
  152.6738  142.4842  158.3160 H   0  0  0  0  0  0  0  0  0  0  0  0
  152.1982  141.2213  159.4430 H   0  0  0  0  0  0  0  0  0  0  0  0
  151.7704  140.4100  157.1883 H   0  0  0  0  0  0  0  0  0  0  0  0
  150.2196  140.6924  157.9665 H   0  0  0  0  0  0  0  0  0  0  0  0
  145.8559  142.1578  154.4909 H   0  0  0  0  0  0  0  0  0  0  0  0
  145.5797  140.7695  153.5098 H   0  0  0  0  0  0  0  0  0  0  0  0
  147.3943  139.0870  153.0717 H   0  0  0  0  0  0  0  0  0  0  0  0
  149.4213  137.6135  152.8345 H   0  0  0  0  0  0  0  0  0  0  0  0
  150.9193  138.0284  153.5777 H   0  0  0  0  0  0  0  0  0  0  0  0
  1  2  1  0  0  0  0
  1 16  1  0  0  0  0
  1 17  1  0  0  0  0
  1 18  1  0  0  0  0
  2  3  1  0  0  0  0
  2  4  1  0  0  0  0
  2 19  1  0  0  0  0
  3 20  1  0  0  0  0
  3 21  1  0  0  0  0
  3 22  1  0  0  0  0
  4  5  1  0  0  0  0
  5  6  1  0  0  0  0
  5 23  1  0  0  0  0
  5 24  1  0  0  0  0
  6  7  1  0  0  0  0
  6 25  1  0  0  0  0
  6 26  1  0  0  0  0
  7  8  1  0  0  0  0
  8 15  1  0  0  0  0
  8  9  2  0  0  0  0
  9 10  1  0  0  0  0
 10 11  1  0  0  0  0
 10 12  2  0  0  0  0
 11 27  1  0  0  0  0
 11 28  1  0  0  0  0
 12 13  1  0  0  0  0
 12 29  1  0  0  0  0
 13 14  1  0  0  0  0
 13 15  2  0  0  0  0
 14 30  1  0  0  0  0
 14 31  1  0  0  0  0
M  END
> <s_m_source_file>
AV-unprocessed.smi

> <i_m_source_file_index>
1371

> <i_lp_mmshare_version>
43012

> <i_f3d_flags>
0

> <s_epik_input>
W0NIM11bQ0hdKFtDSDNdKU9bQ0gyXVtDSDJdU2MxbmMoW05IMl0pW2NIXWMobjEpW05IMl0=

> <s_epik_cmdline>
J2VwaWtfcHl0aG9uJywgJy1waCcsICc3LjAnLCAnLXRuJywgJzgnLCAnLW1hJywgJzIwMCcsICctbWV0YWxfYmluZGluZycsICctaW1hZScsICc8aW5maWxlLm1hZT4nLCAnLW9tYWUnLCAnPG91dGZpbGUubWFlPic=

> <r_lp_tautomer_probability>
1

> <r_epik_Ionization_Penalty>
0.00548925

> <r_epik_Ionization_Penalty_Charging>
0

> <r_epik_Ionization_Penalty_Neutral>
0.00548925

> <r_epik_State_Penalty>
0.0040157

> <r_epik_Charging_Adjusted_Penalty>
0.0040157

> <i_epik_Tot_Q>
0

> <i_epik_Tot_abs_Q>
0

> <r_epik_Metal_State_Penalty>
-0

> <b_epik_Metal_Only>
0

> <s_lp_Force_Field>
OPLS_2005

> <r_lp_Energy>
-2.92027

> <b_lp_Chiralities_Consistent>
1

> <s_lp_Variant>
AV-unprocessed.smi:1371-1

> <Gold.Version>
5.8.1

> <Gold.Id.Protein>
6NUR|6NUR_protein|mol2

> <Gold.PLP.Fitness>
37.7121

> <Gold.PLP.PLP>
-30.2676

> <Gold.PLP.part.hbond>
-4.3522

> <Gold.PLP.part.metal>
0.0000

> <Gold.PLP.part.buried>
-0.6541

> <Gold.PLP.part.nonpolar>
-25.8599

> <Gold.PLP.part.repulsive>
0.4577

> <Gold.PLP.ligand.clash>
0.0000

> <Gold.PLP.ligand.torsion>
0.1990

> <Gold.PLP.Chemscore.Hbond>
2.6012

> <Gold.PLP.Chemscore.CHOScore>
0.0000

> <Gold.PLP.Chemscore.Metal>
0.0000

> <Gold.Chemscore.Hbonds>
donor molecule, donor type, donor heavy atom, donor atom, acceptor molecule, acceptor atom, score
      L1  H    11    28       P1 10175  0.63
      L1  H    14    30       P1  7948  1.00
      P1  H  7989  7998       L1    15  0.99

> <Gold.PLP.Chemscore.Internal.Correction>
0.0388

> <Gold.Rescore>
     Score         DG    S(hbond)    S(metal)    S(lipo)     H(rot)  DE(clash)    DE(int)     intcor
     12.45     -12.87       1.78        0.00      66.55       2.47       0.19       0.23       ----

> <Gold.Chemscore.Fitness>
12.4530

> <Gold.Chemscore.DG>
-12.8713

> <Gold.Chemscore.ZeroCoef>
-5.4800

> <Gold.Chemscore.Hbond>
1.7757

> <Gold.Chemscore.Metal>
0.0000

> <Gold.Chemscore.Lipo>
66.5458

> <Gold.Chemscore.Internal_Hbond>
0.0000

> <Gold.Chemscore.DEClash>
0.1892

> <Gold.Chemscore.DEInternal>
0.2291

> <Gold.Chemscore.Rot>
2.4708

> <Gold.Chemscore.Internal.Correction>
   9.000000E+99

> <Gold.Chemscore.Hbonds>
donor molecule, donor type, donor heavy atom, donor atom, acceptor molecule, acceptor atom, score
      L1  H    11    28       P1 10175  0.53
      L1  H    14    30       P1  7948  0.85
      P1  H  7989  7998       L1    15  0.25

> <Gold.Chemscore.Hbond.Weighted>
-5.9307

> <Gold.Chemscore.Metal.Weighted>
-0.0000

> <Gold.Chemscore.Lipo.Weighted>
-7.7859

> <Gold.Chemscore.Internal_Hbond.Weighted>
0.0000

> <Gold.Chemscore.DEClash.Weighted>
0.1892

> <Gold.Chemscore.DEInternal.Weighted>
0.2291

> <Gold.Chemscore.Rot.Weighted>
6.3253

> <Gold.Chemscore.Internal.Correction.Weighted>
   9.000000E+99

> <Gold.Protein.RotatedTorsions>
[ 6907 6896 6895 6894 ] final  -91.04 input  -60.11 | X-H torsion
[ 7974 7965 7964 7962 ] final -145.85 input  175.53 | X-H torsion
[ 8008 7997 7996 7995 ] final  143.21 input   59.86 | X-H torsion
[ 10167 10162 10161 10158 ] final -150.76 input  -65.29 | X-H torsion
[ 10718 10713 10712 10709 ] final    4.65 input   66.30 | X-H torsion
[ 10763 10752 10751 10750 ] final  -53.55 input  -60.55 | X-H torsion
[ 11005 11000 10999 10996 ] final  -52.98 input  -57.11 | X-H torsion

> <Gold.Protein.ActiveResidues>
 VAL166  LYS551  ARG553  GLY616  TRP617  ASP618  TYR619  PRO620  LYS621  CYS622 
 ASP623  PHE694  ASN695  SER759  ASP760  ASP761  ALA762  ILE779  LEU786  VAL792 
 PHE793  MET794  SER795  GLU796  ALA797  LYS798  CYS799  TRP800  GLU811  SER814 

> <Gold.Protein.RotatedAtoms>
  150.6888  134.2339  159.4445 H   0  0  0  0  0  0  0  0  0  0  0  0  # atno 6907 bound_to 6896
  152.0288  134.9778  160.0581 H   0  0  0  0  0  0  0  0  0  0  0  0  # atno 6908 bound_to 6896
  152.1325  133.4381  159.4765 H   0  0  0  0  0  0  0  0  0  0  0  0  # atno 6909 bound_to 6896
  144.8199  140.5530  143.5585 H   0  0  0  0  0  0  0  0  0  0  0  0  # atno 7974 bound_to 7965
  156.2935  140.2268  156.4853 H   0  0  0  0  0  0  0  0  0  0  0  0  # atno 8008 bound_to 7997
  154.7818  140.0460  157.1154 H   0  0  0  0  0  0  0  0  0  0  0  0  # atno 8009 bound_to 7997
  154.9750  140.3071  155.4974 H   0  0  0  0  0  0  0  0  0  0  0  0  # atno 8010 bound_to 7997
  139.7327  143.8784  152.2539 H   0  0  0  0  0  0  0  0  0  0  0  0  # atno 10167 bound_to 10162
  156.8957  130.5703  149.5649 H   0  0  0  0  0  0  0  0  0  0  0  0  # atno 10718 bound_to 10713
  154.1607  135.6475  153.4985 H   0  0  0  0  0  0  0  0  0  0  0  0  # atno 10763 bound_to 10752
  153.0111  135.5360  154.6714 H   0  0  0  0  0  0  0  0  0  0  0  0  # atno 10764 bound_to 10752
  154.6026  135.2945  155.0490 H   0  0  0  0  0  0  0  0  0  0  0  0  # atno 10765 bound_to 10752
  141.0952  133.6626  156.4104 H   0  0  0  0  0  0  0  0  0  0  0  0  # atno 11005 bound_to 11000
  145.5129  139.1479  143.3595 LP  0  0  0  0  0  0  0  0  0  0  0  0  # atno 17320 bound_to 7965
  146.2504  140.5270  142.8896 LP  0  0  0  0  0  0  0  0  0  0  0  0  # atno 17321 bound_to 7965
  139.8712  144.7067  150.8986 LP  0  0  0  0  0  0  0  0  0  0  0  0  # atno 17342 bound_to 10162
  140.7774  143.3737  151.1602 LP  0  0  0  0  0  0  0  0  0  0  0  0  # atno 17343 bound_to 10162
  156.0607  130.5660  150.9186 LP  0  0  0  0  0  0  0  0  0  0  0  0  # atno 17370 bound_to 10713
  157.6057  131.0939  150.8884 LP  0  0  0  0  0  0  0  0  0  0  0  0  # atno 17371 bound_to 10713
  140.5156  134.6353  157.5300 LP  0  0  0  0  0  0  0  0  0  0  0  0  # atno 17394 bound_to 11000
  139.9787  134.7172  155.9900 LP  0  0  0  0  0  0  0  0  0  0  0  0  # atno 17395 bound_to 11000

$$$$
