AV-unprocessed.smi:158|AV-procd|sdf|1326|dock4
  -GOLD-   2262019 23D 1   1.00000     0.00000
 Structure written by MMmdl.
 31 33  0  0  0  0  0  0  0  0  1 V2000
  150.4497  134.5848  154.0756 N   0  0  0  0  0  0  0  0  0  0  0  0
  149.6922  133.5143  153.7993 C   0  0  0  0  0  0  0  0  0  0  0  0
  150.2450  132.2846  153.9192 N   0  0  0  0  0  0  0  0  0  0  0  0
  149.5228  131.1889  153.6531 C   0  0  0  0  0  0  0  0  0  0  0  0
  150.3305  129.6767  153.8369 Cl  0  0  0  0  0  0  0  0  0  0  0  0
  148.2456  131.1345  153.2590 N   0  0  0  0  0  0  0  0  0  0  0  0
  147.6878  132.3735  153.1354 C   0  0  0  0  0  0  0  0  0  0  0  0
  148.3408  133.6087  153.3866 C   0  0  0  0  0  0  0  0  0  0  0  0
  147.4645  134.6612  153.1595 N   0  0  0  0  0  0  0  0  0  0  0  0
  146.3564  134.0733  152.7936 C   0  0  0  0  0  0  0  0  0  0  0  0
  146.4069  132.6951  152.7450 N   0  0  0  0  0  0  0  0  0  0  0  0
  145.3395  131.7134  152.3747 C   0  0  1  0  0  0  0  0  0  0  0  0
  144.3404  132.4055  151.6843 O   0  0  0  0  0  0  0  0  0  0  0  0
  144.2830  132.0056  150.3138 C   0  0  1  0  0  0  0  0  0  0  0  0
  144.0079  133.2039  149.3878 C   0  0  0  0  0  0  0  0  0  0  0  0
  142.8948  132.9324  148.5639 O   0  0  0  0  0  0  0  0  0  0  0  0
  145.5939  131.2484  150.0509 C   0  0  1  0  0  0  0  0  0  0  0  0
  146.6415  132.0894  149.6021 O   0  0  0  0  0  0  0  0  0  0  0  0
  145.9117  130.6651  151.4150 C   0  0  2  0  0  0  0  0  0  0  0  0
  145.2501  129.5201  151.5888 F   0  0  0  0  0  0  0  0  0  0  0  0
  144.9896  131.3157  153.3281 H   0  0  0  0  0  0  0  0  0  0  0  0
  143.4704  131.2818  150.2267 H   0  0  0  0  0  0  0  0  0  0  0  0
  145.4587  130.4675  149.3018 H   0  0  0  0  0  0  0  0  0  0  0  0
  146.9695  130.4635  151.5903 H   0  0  0  0  0  0  0  0  0  0  0  0
  150.0584  135.5122  153.9922 H   0  0  0  0  0  0  0  0  0  0  0  0
  151.4097  134.4632  154.3636 H   0  0  0  0  0  0  0  0  0  0  0  0
  145.4707  134.6385  152.5462 H   0  0  0  0  0  0  0  0  0  0  0  0
  143.8452  134.1213  149.9530 H   0  0  0  0  0  0  0  0  0  0  0  0
  144.8611  133.3741  148.7305 H   0  0  0  0  0  0  0  0  0  0  0  0
  142.1147  133.2377  149.0011 H   0  0  0  0  0  0  0  0  0  0  0  0
  147.4662  131.6592  149.7689 H   0  0  0  0  0  0  0  0  0  0  0  0
  1  2  1  0  0  0  0
  1 25  1  0  0  0  0
  1 26  1  0  0  0  0
  2  8  1  0  0  0  0
  2  3  2  0  0  0  0
  3  4  1  0  0  0  0
  4  5  1  0  0  0  0
  4  6  2  0  0  0  0
  6  7  1  0  0  0  0
  7 11  1  0  0  0  0
  7  8  2  0  0  0  0
  8  9  1  0  0  0  0
  9 10  2  0  0  0  0
 10 11  1  0  0  0  0
 10 27  1  0  0  0  0
 11 12  1  0  0  0  0
 12 21  1  0  0  0  0
 12 19  1  0  0  0  0
 12 13  1  0  0  0  0
 13 14  1  0  0  0  0
 14 22  1  0  0  0  0
 14 15  1  0  0  0  0
 14 17  1  0  0  0  0
 15 16  1  0  0  0  0
 15 28  1  0  0  0  0
 15 29  1  0  0  0  0
 16 30  1  0  0  0  0
 17 23  1  0  0  0  0
 17 18  1  0  0  0  0
 17 19  1  0  0  0  0
 18 31  1  0  0  0  0
 19 24  1  0  0  0  0
 19 20  1  0  0  0  0
M  END
> <s_m_source_file>
AV-unprocessed.smi

> <i_m_source_file_index>
158

> <i_lp_mmshare_version>
43012

> <i_f3d_flags>
0

> <s_epik_input>
Q2xjKG4xKW5jKFtOSDJdKWMoYzEyKW5bY0hdbjJbQ0BASF0zT1tDQEhdKFtDSDJdW09IXSlbQ0BASF0oW09IXSlbQ0BASF0zRg==

> <s_epik_cmdline>
J2VwaWtfcHl0aG9uJywgJy1waCcsICc3LjAnLCAnLXRuJywgJzgnLCAnLW1hJywgJzIwMCcsICctbWV0YWxfYmluZGluZycsICctaW1hZScsICc8aW5maWxlLm1hZT4nLCAnLW9tYWUnLCAnPG91dGZpbGUubWFlPic=

> <r_lp_tautomer_probability>
1

> <r_epik_Ionization_Penalty>
6.51543e-05

> <r_epik_Ionization_Penalty_Charging>
0

> <r_epik_Ionization_Penalty_Neutral>
6.51543e-05

> <r_epik_State_Penalty>
-0

> <r_epik_Charging_Adjusted_Penalty>
0

> <i_epik_Tot_Q>
0

> <i_epik_Tot_abs_Q>
0

> <r_epik_Metal_State_Penalty>
-0

> <b_epik_Metal_Only>
0

> <s_epik_Chemistry_Notes>
This compound contains an acetal/aminal-like group ( X-CH(R)-Y where X, Y are N, S, or O) that may be acid/base labile, releasing an aldehyde.

> <s_lp_Force_Field>
OPLS_2005

> <r_lp_Energy>
31.9678

> <b_lp_Chiralities_Consistent>
1

> <s_lp_Variant>
AV-unprocessed.smi:158-4

> <Gold.Version>
5.8.1

> <Gold.Id.Protein>
6NUR|6NUR_protein|mol2

> <Gold.PLP.Fitness>
35.4652

> <Gold.PLP.PLP>
-31.6876

> <Gold.PLP.part.hbond>
-3.9170

> <Gold.PLP.part.metal>
0.0000

> <Gold.PLP.part.buried>
-3.6755

> <Gold.PLP.part.nonpolar>
-25.6764

> <Gold.PLP.part.repulsive>
1.7005

> <Gold.PLP.ligand.clash>
0.0000

> <Gold.PLP.ligand.torsion>
1.1180

> <Gold.PLP.Chemscore.Hbond>
2.0000

> <Gold.PLP.Chemscore.CHOScore>
0.0000

> <Gold.PLP.Chemscore.Metal>
0.0000

> <Gold.Chemscore.Hbonds>
donor molecule, donor type, donor heavy atom, donor atom, acceptor molecule, acceptor atom, score
      L1  H    16    30       P1 10186  1.00
      L1  H    18    31       P1 10747  1.00

> <Gold.PLP.Chemscore.Internal.Correction>
0.0136

> <Gold.Rescore>
     Score         DG    S(hbond)    S(metal)    S(lipo)     H(rot)  DE(clash)    DE(int)     intcor
      8.67     -10.26       1.98        0.00      52.60       3.12       0.84       0.74       ----

> <Gold.Chemscore.Fitness>
8.6691

> <Gold.Chemscore.DG>
-10.2559

> <Gold.Chemscore.ZeroCoef>
-5.4800

> <Gold.Chemscore.Hbond>
1.9810

> <Gold.Chemscore.Metal>
0.0000

> <Gold.Chemscore.Lipo>
52.6008

> <Gold.Chemscore.Internal_Hbond>
0.0000

> <Gold.Chemscore.DEClash>
0.8423

> <Gold.Chemscore.DEInternal>
0.7445

> <Gold.Chemscore.Rot>
3.1230

> <Gold.Chemscore.Internal.Correction>
   9.000000E+99

> <Gold.Chemscore.Hbonds>
donor molecule, donor type, donor heavy atom, donor atom, acceptor molecule, acceptor atom, score
      L1  H    16    30       P1 10186  0.98
      L1  H    18    31       P1 10747  1.00

> <Gold.Chemscore.Hbond.Weighted>
-6.6166

> <Gold.Chemscore.Metal.Weighted>
-0.0000

> <Gold.Chemscore.Lipo.Weighted>
-6.1543

> <Gold.Chemscore.Internal_Hbond.Weighted>
0.0000

> <Gold.Chemscore.DEClash.Weighted>
0.8423

> <Gold.Chemscore.DEInternal.Weighted>
0.7445

> <Gold.Chemscore.Rot.Weighted>
7.9950

> <Gold.Chemscore.Internal.Correction.Weighted>
   9.000000E+99

> <Gold.Protein.RotatedTorsions>
[ 6907 6896 6895 6894 ] final -143.86 input  -60.11 | X-H torsion
[ 7974 7965 7964 7962 ] final   26.45 input  175.53 | X-H torsion
[ 8008 7997 7996 7995 ] final  -69.18 input   59.86 | X-H torsion
[ 10167 10162 10161 10158 ] final    9.21 input  -65.29 | X-H torsion
[ 10718 10713 10712 10709 ] final  -77.61 input   66.30 | X-H torsion
[ 10763 10752 10751 10750 ] final -170.72 input  -60.55 | X-H torsion
[ 11005 11000 10999 10996 ] final  173.35 input  -57.11 | X-H torsion

> <Gold.Protein.ActiveResidues>
 VAL166  LYS551  ARG553  GLY616  TRP617  ASP618  TYR619  PRO620  LYS621  CYS622 
 ASP623  PHE694  ASN695  SER759  ASP760  ASP761  ALA762  ILE779  LEU786  VAL792 
 PHE793  MET794  SER795  GLU796  ALA797  LYS798  CYS799  TRP800  GLU811  SER814 

> <Gold.Protein.RotatedAtoms>
  151.1061  133.5207  159.2607 H   0  0  0  0  0  0  0  0  0  0  0  0  # atno 6907 bound_to 6896
  151.2019  135.0445  159.8885 H   0  0  0  0  0  0  0  0  0  0  0  0  # atno 6908 bound_to 6896
  152.5447  134.0888  159.8321 H   0  0  0  0  0  0  0  0  0  0  0  0  # atno 6909 bound_to 6896
  146.1837  139.7326  142.8882 H   0  0  0  0  0  0  0  0  0  0  0  0  # atno 7974 bound_to 7965
  154.4920  140.0858  156.7615 H   0  0  0  0  0  0  0  0  0  0  0  0  # atno 8008 bound_to 7997
  155.4207  140.3445  155.4253 H   0  0  0  0  0  0  0  0  0  0  0  0  # atno 8009 bound_to 7997
  156.1343  140.1510  156.9006 H   0  0  0  0  0  0  0  0  0  0  0  0  # atno 8010 bound_to 7997
  140.6269  143.8082  150.7244 H   0  0  0  0  0  0  0  0  0  0  0  0  # atno 10167 bound_to 10162
  156.0140  130.4496  150.3371 H   0  0  0  0  0  0  0  0  0  0  0  0  # atno 10718 bound_to 10713
  154.6384  135.2895  155.0133 H   0  0  0  0  0  0  0  0  0  0  0  0  # atno 10763 bound_to 10752
  154.1269  135.6539  153.4918 H   0  0  0  0  0  0  0  0  0  0  0  0  # atno 10764 bound_to 10752
  153.0314  135.5301  154.7240 H   0  0  0  0  0  0  0  0  0  0  0  0  # atno 10765 bound_to 10752
  140.3396  134.7288  157.4192 H   0  0  0  0  0  0  0  0  0  0  0  0  # atno 11005 bound_to 11000
  145.4003  141.0384  143.3074 LP  0  0  0  0  0  0  0  0  0  0  0  0  # atno 17320 bound_to 7965
  144.8359  139.5552  143.6922 LP  0  0  0  0  0  0  0  0  0  0  0  0  # atno 17321 bound_to 7965
  140.1684  143.4215  152.2018 LP  0  0  0  0  0  0  0  0  0  0  0  0  # atno 17342 bound_to 10162
  139.5488  144.7320  151.4500 LP  0  0  0  0  0  0  0  0  0  0  0  0  # atno 17343 bound_to 10162
  157.1467  131.0310  151.2903 LP  0  0  0  0  0  0  0  0  0  0  0  0  # atno 17370 bound_to 10713
  157.4426  130.7553  149.7082 LP  0  0  0  0  0  0  0  0  0  0  0  0  # atno 17371 bound_to 10713
  140.0792  134.5754  155.8558 LP  0  0  0  0  0  0  0  0  0  0  0  0  # atno 17394 bound_to 11000
  141.2042  133.6637  156.6108 LP  0  0  0  0  0  0  0  0  0  0  0  0  # atno 17395 bound_to 11000

$$$$
