AV-unprocessed.smi:3148|AV-procd|sdf|11998|dock4
  -GOLD-   2272017403D 1   1.00000     0.00000
 Structure written by MMmdl.
 35 37  0  0  0  0  0  0  0  0  2 V2000
  151.2313  137.5364  154.5214 C   0  0  0  0  0  0  0  0  0  0  0  0
  151.5751  138.6390  155.3538 O   0  0  0  0  0  0  0  0  0  0  0  0
  150.7905  139.7725  155.2947 C   0  0  0  0  0  0  0  0  0  0  0  0
  149.6888  139.8083  154.4245 C   0  0  0  0  0  0  0  0  0  0  0  0
  148.9261  140.9920  154.4054 C   0  0  0  0  0  0  0  0  0  0  0  0
  147.7194  141.1575  153.5066 C   0  0  0  0  0  0  0  0  0  0  0  0
  149.2663  142.0331  155.2056 N   0  3  0  0  0  0  0  0  0  0  0  0
  150.3321  141.9360  156.0140 C   0  0  0  0  0  0  0  0  0  0  0  0
  150.6399  143.0300  156.8024 N   0  0  0  0  0  0  0  0  0  0  0  0
  151.7637  143.0780  157.7291 C   0  0  1  0  0  0  0  0  0  0  0  0
  151.8928  144.4293  158.4442 C   0  0  0  0  0  0  0  0  0  0  0  0
  151.8444  144.0118  159.9191 C   0  0  2  0  0  0  0  0  0  0  0  0
  153.1030  143.2451  160.3475 C   0  0  0  0  0  0  0  0  0  0  0  0
  152.8954  141.8954  159.6613 C   0  0  0  0  0  0  0  0  0  0  0  0
  151.5726  142.1192  158.9157 C   0  0  1  0  0  0  0  0  0  0  0  0
  150.9041  142.9549  159.8467 O   0  0  0  0  0  0  0  0  0  0  0  0
  151.0947  140.8354  156.0753 N   0  0  0  0  0  0  0  0  0  0  0  0
  151.9372  136.7233  154.6899 H   0  0  0  0  0  0  0  0  0  0  0  0
  151.2804  137.8031  153.4646 H   0  0  0  0  0  0  0  0  0  0  0  0
  150.2329  137.1598  154.7492 H   0  0  0  0  0  0  0  0  0  0  0  0
  149.4428  138.9630  153.7982 H   0  0  0  0  0  0  0  0  0  0  0  0
  147.4786  140.2252  152.9950 H   0  0  0  0  0  0  0  0  0  0  0  0
  147.9123  141.9209  152.7524 H   0  0  0  0  0  0  0  0  0  0  0  0
  146.8486  141.4602  154.0889 H   0  0  0  0  0  0  0  0  0  0  0  0
  150.1435  143.8899  156.6189 H   0  0  0  0  0  0  0  0  0  0  0  0
  152.6771  142.8249  157.1888 H   0  0  0  0  0  0  0  0  0  0  0  0
  152.8148  144.9528  158.1892 H   0  0  0  0  0  0  0  0  0  0  0  0
  151.0557  145.0907  158.2142 H   0  0  0  0  0  0  0  0  0  0  0  0
  151.5632  144.8176  160.5977 H   0  0  0  0  0  0  0  0  0  0  0  0
  154.0192  143.7455  160.0323 H   0  0  0  0  0  0  0  0  0  0  0  0
  153.1352  143.1223  161.4307 H   0  0  0  0  0  0  0  0  0  0  0  0
  153.7137  141.6293  158.9914 H   0  0  0  0  0  0  0  0  0  0  0  0
  152.7912  141.1025  160.4030 H   0  0  0  0  0  0  0  0  0  0  0  0
  151.0475  141.1944  158.6736 H   0  0  0  0  0  0  0  0  0  0  0  0
  148.7073  142.8862  155.1804 H   0  0  0  0  0  0  0  0  0  0  0  0
  1  2  1  0  0  0  0
  1 18  1  0  0  0  0
  1 19  1  0  0  0  0
  1 20  1  0  0  0  0
  2  3  1  0  0  0  0
  3 17  1  0  0  0  0
  3  4  2  0  0  0  0
  4  5  1  0  0  0  0
  4 21  1  0  0  0  0
  5  6  1  0  0  0  0
  5  7  2  0  0  0  0
  6 22  1  0  0  0  0
  6 23  1  0  0  0  0
  6 24  1  0  0  0  0
  7  8  1  0  0  0  0
  7 35  1  0  0  0  0
  8  9  1  0  0  0  0
  8 17  2  0  0  0  0
  9 10  1  0  0  0  0
  9 25  1  0  0  0  0
 10 15  1  0  0  0  0
 10 11  1  0  0  0  0
 10 26  1  0  0  0  0
 11 12  1  0  0  0  0
 11 27  1  0  0  0  0
 11 28  1  0  0  0  0
 12 16  1  0  0  0  0
 12 13  1  0  0  0  0
 12 29  1  0  0  0  0
 13 14  1  0  0  0  0
 13 30  1  0  0  0  0
 13 31  1  0  0  0  0
 14 15  1  0  0  0  0
 14 32  1  0  0  0  0
 14 33  1  0  0  0  0
 15 16  1  0  0  0  0
 15 34  1  0  0  0  0
M  CHG  1   7   1
M  END
> <s_m_source_file>
AV-unprocessed.smi

> <i_m_source_file_index>
3148

> <i_lp_mmshare_version>
43012

> <i_f3d_flags>
0

> <s_epik_input>
W0NIM11PYzFbY0hdYyhbQ0gzXSluYyhuMSlbTkhdW0NASF0oW0NIMl1bQ0BASF0yMylbQ0BASF0oTzMpW0NIMl1bQ0gyXTI=

> <s_epik_cmdline>
J2VwaWtfcHl0aG9uJywgJy1waCcsICc3LjAnLCAnLXRuJywgJzgnLCAnLW1hJywgJzIwMCcsICctbWV0YWxfYmluZGluZycsICctaW1hZScsICc8aW5maWxlLm1hZT4nLCAnLW9tYWUnLCAnPG91dGZpbGUubWFlPic=

> <r_lp_tautomer_probability>
0.999985

> <r_epik_Ionization_Penalty>
1.09461

> <r_epik_Ionization_Penalty_Charging>
1.0946

> <r_epik_Ionization_Penalty_Neutral>
6.69406e-06

> <r_epik_State_Penalty>
1.15119

> <r_epik_Charging_Adjusted_Penalty>
2.24579

> <i_epik_Tot_Q>
1

> <i_epik_Tot_abs_Q>
1

> <r_epik_Metal_State_Penalty>
1.2392

> <b_epik_Metal_Only>
0

> <s_lp_Force_Field>
OPLS_2005

> <r_lp_Energy>
35.8621

> <b_lp_Chiralities_Consistent>
1

> <s_lp_Variant>
AV-unprocessed.smi:3148-8

> <Gold.Version>
5.8.1

> <Gold.Id.Protein>
6NUR|6NUR_protein|mol2

> <Gold.PLP.Fitness>
51.3723

> <Gold.PLP.PLP>
-40.8412

> <Gold.PLP.part.hbond>
-3.0000

> <Gold.PLP.part.metal>
0.0000

> <Gold.PLP.part.buried>
-4.7021

> <Gold.PLP.part.nonpolar>
-32.7569

> <Gold.PLP.part.repulsive>
0.2927

> <Gold.PLP.ligand.clash>
0.0818

> <Gold.PLP.ligand.torsion>
0.0310

> <Gold.PLP.Chemscore.Hbond>
3.5520

> <Gold.PLP.Chemscore.CHOScore>
0.0000

> <Gold.PLP.Chemscore.Metal>
0.0000

> <Gold.Chemscore.Hbonds>
donor molecule, donor type, donor heavy atom, donor atom, acceptor molecule, acceptor atom, score
      L1  H     7    35       P1  8028  1.57
      L1  H     9    25       P1  8028  1.92

> <Gold.PLP.Chemscore.Internal.Correction>
0.0189

> <Gold.Rescore>
     Score         DG    S(hbond)    S(metal)    S(lipo)     H(rot)  DE(clash)    DE(int)     intcor
     19.64     -19.82       1.76        0.00      99.45       1.24       0.15       0.03       ----

> <Gold.Chemscore.Fitness>
19.6394

> <Gold.Chemscore.DG>
-19.8186

> <Gold.Chemscore.ZeroCoef>
-5.4800

> <Gold.Chemscore.Hbond>
1.7578

> <Gold.Chemscore.Metal>
0.0000

> <Gold.Chemscore.Lipo>
99.4510

> <Gold.Chemscore.Internal_Hbond>
0.0000

> <Gold.Chemscore.DEClash>
0.1473

> <Gold.Chemscore.DEInternal>
0.0319

> <Gold.Chemscore.Rot>
1.2376

> <Gold.Chemscore.Internal.Correction>
   9.000000E+99

> <Gold.Chemscore.Hbonds>
donor molecule, donor type, donor heavy atom, donor atom, acceptor molecule, acceptor atom, score
      L1  H     7    35       P1  8028  0.79
      L1  H     9    25       P1  8028  0.92

> <Gold.Chemscore.Hbond.Weighted>
-5.8709

> <Gold.Chemscore.Metal.Weighted>
-0.0000

> <Gold.Chemscore.Lipo.Weighted>
-11.6358

> <Gold.Chemscore.Internal_Hbond.Weighted>
0.0000

> <Gold.Chemscore.DEClash.Weighted>
0.1473

> <Gold.Chemscore.DEInternal.Weighted>
0.0319

> <Gold.Chemscore.Rot.Weighted>
3.1681

> <Gold.Chemscore.Internal.Correction.Weighted>
   9.000000E+99

> <Gold.Protein.RotatedTorsions>
[ 6907 6896 6895 6894 ] final   74.82 input  -60.11 | X-H torsion
[ 7974 7965 7964 7962 ] final  -55.85 input  175.53 | X-H torsion
[ 8008 7997 7996 7995 ] final   60.64 input   59.86 | X-H torsion
[ 10167 10162 10161 10158 ] final  -71.68 input  -65.29 | X-H torsion
[ 10718 10713 10712 10709 ] final  162.13 input   66.30 | X-H torsion
[ 10763 10752 10751 10750 ] final  141.04 input  -60.55 | X-H torsion
[ 11005 11000 10999 10996 ] final -125.43 input  -57.11 | X-H torsion

> <Gold.Protein.ActiveResidues>
 VAL166  LYS551  ARG553  GLY616  TRP617  ASP618  TYR619  PRO620  LYS621  CYS622 
 ASP623  PHE694  ASN695  SER759  ASP760  ASP761  ALA762  ILE779  LEU786  VAL792 
 PHE793  MET794  SER795  GLU796  ALA797  LYS798  CYS799  TRP800  GLU811  SER814 

> <Gold.Protein.RotatedAtoms>
  152.4995  134.4213  159.9481 H   0  0  0  0  0  0  0  0  0  0  0  0  # atno 6907 bound_to 6896
  151.4186  133.3699  159.2761 H   0  0  0  0  0  0  0  0  0  0  0  0  # atno 6908 bound_to 6896
  150.9239  134.8678  159.7566 H   0  0  0  0  0  0  0  0  0  0  0  0  # atno 6909 bound_to 6896
  145.8694  140.8227  142.9896 H   0  0  0  0  0  0  0  0  0  0  0  0  # atno 7974 bound_to 7965
  155.5855  140.3492  155.4552 H   0  0  0  0  0  0  0  0  0  0  0  0  # atno 8008 bound_to 7997
  156.0341  140.1281  157.0252 H   0  0  0  0  0  0  0  0  0  0  0  0  # atno 8009 bound_to 7997
  154.4364  140.1037  156.6127 H   0  0  0  0  0  0  0  0  0  0  0  0  # atno 8010 bound_to 7997
  140.5254  143.2327  151.7357 H   0  0  0  0  0  0  0  0  0  0  0  0  # atno 10167 bound_to 10162
  157.1268  131.0506  151.2390 H   0  0  0  0  0  0  0  0  0  0  0  0  # atno 10718 bound_to 10713
  153.9326  135.2988  155.3445 H   0  0  0  0  0  0  0  0  0  0  0  0  # atno 10763 bound_to 10752
  154.7519  135.4976  153.9307 H   0  0  0  0  0  0  0  0  0  0  0  0  # atno 10764 bound_to 10752
  153.1084  135.6752  153.9650 H   0  0  0  0  0  0  0  0  0  0  0  0  # atno 10765 bound_to 10752
  140.9762  134.0737  157.3815 H   0  0  0  0  0  0  0  0  0  0  0  0  # atno 11005 bound_to 11000
  144.6726  140.1216  143.7449 LP  0  0  0  0  0  0  0  0  0  0  0  0  # atno 17320 bound_to 7965
  145.9155  139.2513  143.1412 LP  0  0  0  0  0  0  0  0  0  0  0  0  # atno 17321 bound_to 7965
  139.4936  144.4194  151.9994 LP  0  0  0  0  0  0  0  0  0  0  0  0  # atno 17342 bound_to 10162
  140.3293  144.3335  150.5991 LP  0  0  0  0  0  0  0  0  0  0  0  0  # atno 17343 bound_to 10162
  157.4428  130.7553  149.7084 LP  0  0  0  0  0  0  0  0  0  0  0  0  # atno 17370 bound_to 10713
  155.9816  130.4017  150.3460 LP  0  0  0  0  0  0  0  0  0  0  0  0  # atno 17371 bound_to 10713
  139.8931  135.0129  156.6884 LP  0  0  0  0  0  0  0  0  0  0  0  0  # atno 17394 bound_to 11000
  140.7255  133.9104  155.8175 LP  0  0  0  0  0  0  0  0  0  0  0  0  # atno 17395 bound_to 11000

$$$$
