AV-unprocessed.smi:1291|AV-procd|sdf|5392|dock10
  -GOLD-   22720 4543D 1   1.00000     0.00000
 Structure written by MMmdl.
 43 45  0  0  0  0  0  0  0  0  1 V2000
  154.6058  139.2609  159.0187 O   0  0  0  0  0  0  0  0  0  0  0  0
  153.2972  139.3773  159.5403 C   0  0  0  0  0  0  0  0  0  0  0  0
  152.7499  140.7766  159.5122 C   0  0  0  0  0  0  0  0  0  0  0  0
  153.1960  141.7496  160.3107 N   0  0  0  0  0  0  0  0  0  0  0  0
  152.4285  142.8331  159.9328 C   0  0  0  0  0  0  0  0  0  0  0  0
  152.4221  144.1644  160.4074 C   0  0  0  0  0  0  0  0  0  0  0  0
  151.5346  145.1136  159.8590 C   0  0  0  0  0  0  0  0  0  0  0  0
  150.6436  144.7462  158.8299 C   0  0  0  0  0  0  0  0  0  0  0  0
  150.6352  143.4255  158.3415 C   0  0  0  0  0  0  0  0  0  0  0  0
  151.5222  142.4814  158.8933 C   0  0  0  0  0  0  0  0  0  0  0  0
  151.7636  141.1321  158.6507 N   0  0  0  0  0  0  0  0  0  0  0  0
  151.0878  140.2980  157.6644 C   0  0  0  0  0  0  0  0  0  0  0  0
  149.6220  139.9891  158.0342 C   0  0  1  0  0  0  0  0  0  0  0  0
  148.7596  140.7014  157.1683 O   0  0  0  0  0  0  0  0  0  0  0  0
  149.3081  138.4898  157.9059 C   0  0  0  0  0  0  0  0  0  0  0  0
  148.8161  138.0087  159.1457 O   0  0  0  0  0  0  0  0  0  0  0  0
  149.0142  136.6135  159.3146 C   0  0  0  0  0  0  0  0  0  0  0  0
  148.2452  136.0454  160.4960 C   0  0  0  0  0  0  0  0  0  0  0  0
  148.1045  136.7826  161.6933 C   0  0  0  0  0  0  0  0  0  0  0  0
  147.3969  136.2391  162.7829 C   0  0  0  0  0  0  0  0  0  0  0  0
  146.8303  134.9542  162.6857 C   0  0  0  0  0  0  0  0  0  0  0  0
  146.9744  134.2115  161.4984 C   0  0  0  0  0  0  0  0  0  0  0  0
  147.6817  134.7534  160.4073 C   0  0  0  0  0  0  0  0  0  0  0  0
  147.8178  134.0260  159.2725 F   0  0  0  0  0  0  0  0  0  0  0  0
  154.8912  138.3657  159.1179 H   0  0  0  0  0  0  0  0  0  0  0  0
  152.6373  138.7264  158.9665 H   0  0  0  0  0  0  0  0  0  0  0  0
  153.3057  139.0128  160.5670 H   0  0  0  0  0  0  0  0  0  0  0  0
  153.1011  144.4550  161.1951 H   0  0  0  0  0  0  0  0  0  0  0  0
  151.5373  146.1278  160.2301 H   0  0  0  0  0  0  0  0  0  0  0  0
  149.9661  145.4787  158.4162 H   0  0  0  0  0  0  0  0  0  0  0  0
  149.9529  143.1415  157.5544 H   0  0  0  0  0  0  0  0  0  0  0  0
  151.1332  140.8022  156.6983 H   0  0  0  0  0  0  0  0  0  0  0  0
  151.6504  139.3719  157.5441 H   0  0  0  0  0  0  0  0  0  0  0  0
  149.4337  140.3145  159.0575 H   0  0  0  0  0  0  0  0  0  0  0  0
  148.2522  140.0797  156.6696 H   0  0  0  0  0  0  0  0  0  0  0  0
  148.6005  138.3037  157.0958 H   0  0  0  0  0  0  0  0  0  0  0  0
  150.2217  137.9428  157.6676 H   0  0  0  0  0  0  0  0  0  0  0  0
  148.7011  136.0921  158.4086 H   0  0  0  0  0  0  0  0  0  0  0  0
  150.0746  136.4037  159.4627 H   0  0  0  0  0  0  0  0  0  0  0  0
  148.5357  137.7684  161.7870 H   0  0  0  0  0  0  0  0  0  0  0  0
  147.2896  136.8088  163.6942 H   0  0  0  0  0  0  0  0  0  0  0  0
  146.2875  134.5377  163.5214 H   0  0  0  0  0  0  0  0  0  0  0  0
  146.5426  133.2243  161.4245 H   0  0  0  0  0  0  0  0  0  0  0  0
  1  2  1  0  0  0  0
  1 25  1  0  0  0  0
  2  3  1  0  0  0  0
  2 26  1  0  0  0  0
  2 27  1  0  0  0  0
  3 11  1  0  0  0  0
  3  4  2  0  0  0  0
  4  5  1  0  0  0  0
  5 10  2  0  0  0  0
  5  6  1  0  0  0  0
  6  7  2  0  0  0  0
  6 28  1  0  0  0  0
  7  8  1  0  0  0  0
  7 29  1  0  0  0  0
  8  9  2  0  0  0  0
  8 30  1  0  0  0  0
  9 10  1  0  0  0  0
  9 31  1  0  0  0  0
 10 11  1  0  0  0  0
 11 12  1  0  0  0  0
 12 13  1  0  0  0  0
 12 32  1  0  0  0  0
 12 33  1  0  0  0  0
 13 14  1  0  0  0  0
 13 15  1  0  0  0  0
 13 34  1  0  0  0  0
 14 35  1  0  0  0  0
 15 16  1  0  0  0  0
 15 36  1  0  0  0  0
 15 37  1  0  0  0  0
 16 17  1  0  0  0  0
 17 18  1  0  0  0  0
 17 38  1  0  0  0  0
 17 39  1  0  0  0  0
 18 23  1  0  0  0  0
 18 19  2  0  0  0  0
 19 20  1  0  0  0  0
 19 40  1  0  0  0  0
 20 21  2  0  0  0  0
 20 41  1  0  0  0  0
 21 22  1  0  0  0  0
 21 42  1  0  0  0  0
 22 23  2  0  0  0  0
 22 43  1  0  0  0  0
 23 24  1  0  0  0  0
M  END
> <s_m_source_file>
AV-unprocessed.smi

> <i_m_source_file_index>
1291

> <i_lp_mmshare_version>
43012

> <i_f3d_flags>
0

> <s_epik_input>
W2NIXTFbY0hdW2NIXVtjSF1jKGMxMiluKGMobjIpW0NIMl1bT0hdKVtDSDJdW0NASF0oW09IXSlbQ0gyXU9bQ0gyXWMzW2NIXVtjSF1bY0hdW2NIXWMzRg==

> <s_epik_cmdline>
J2VwaWtfcHl0aG9uJywgJy1waCcsICc3LjAnLCAnLXRuJywgJzgnLCAnLW1hJywgJzIwMCcsICctbWV0YWxfYmluZGluZycsICctaW1hZScsICc8aW5maWxlLm1hZT4nLCAnLW9tYWUnLCAnPG91dGZpbGUubWFlPic=

> <r_epik_Ionization_Penalty>
0.0649918

> <r_epik_Ionization_Penalty_Charging>
0

> <r_epik_Ionization_Penalty_Neutral>
0.0649918

> <r_epik_State_Penalty>
0.0565791

> <r_epik_Charging_Adjusted_Penalty>
0.0565791

> <i_epik_Tot_Q>
0

> <i_epik_Tot_abs_Q>
0

> <r_epik_Metal_State_Penalty>
5.93658e-05

> <b_epik_Metal_Only>
0

> <s_lp_Force_Field>
OPLS_2005

> <r_lp_Energy>
17.1818

> <b_lp_Chiralities_Consistent>
1

> <s_lp_Variant>
AV-unprocessed.smi:1291-2

> <Gold.Version>
5.8.1

> <Gold.Id.Protein>
6NUR|6NUR_protein|mol2

> <Gold.PLP.Fitness>
48.4734

> <Gold.PLP.PLP>
-49.5625

> <Gold.PLP.part.hbond>
-2.8234

> <Gold.PLP.part.metal>
0.0000

> <Gold.PLP.part.buried>
-4.1824

> <Gold.PLP.part.nonpolar>
-42.7704

> <Gold.PLP.part.repulsive>
0.0000

> <Gold.PLP.ligand.clash>
0.0000

> <Gold.PLP.ligand.torsion>
2.1352

> <Gold.PLP.Chemscore.Hbond>
1.0000

> <Gold.PLP.Chemscore.CHOScore>
0.0000

> <Gold.PLP.Chemscore.Metal>
0.0000

> <Gold.Chemscore.Hbonds>
donor molecule, donor type, donor heavy atom, donor atom, acceptor molecule, acceptor atom, score
      P1  H  7997  8008       L1     1  1.00

> <Gold.PLP.Chemscore.Internal.Correction>
0.1813

> <Gold.Rescore>
     Score         DG    S(hbond)    S(metal)    S(lipo)     H(rot)  DE(clash)    DE(int)     intcor
     13.15     -16.50       0.99        0.00     138.91       3.33       1.37       1.98       ----

> <Gold.Chemscore.Fitness>
13.1514

> <Gold.Chemscore.DG>
-16.5025

> <Gold.Chemscore.ZeroCoef>
-5.4800

> <Gold.Chemscore.Hbond>
0.9877

> <Gold.Chemscore.Metal>
0.0000

> <Gold.Chemscore.Lipo>
138.9101

> <Gold.Chemscore.Internal_Hbond>
0.0000

> <Gold.Chemscore.DEClash>
1.3717

> <Gold.Chemscore.DEInternal>
1.9794

> <Gold.Chemscore.Rot>
3.3316

> <Gold.Chemscore.Internal.Correction>
   9.000000E+99

> <Gold.Chemscore.Hbonds>
donor molecule, donor type, donor heavy atom, donor atom, acceptor molecule, acceptor atom, score
      P1  H  7997  8008       L1     1  0.78

> <Gold.Chemscore.Hbond.Weighted>
-3.2988

> <Gold.Chemscore.Metal.Weighted>
-0.0000

> <Gold.Chemscore.Lipo.Weighted>
-16.2525

> <Gold.Chemscore.Internal_Hbond.Weighted>
0.0000

> <Gold.Chemscore.DEClash.Weighted>
1.3717

> <Gold.Chemscore.DEInternal.Weighted>
1.9794

> <Gold.Chemscore.Rot.Weighted>
8.5288

> <Gold.Chemscore.Internal.Correction.Weighted>
   9.000000E+99

> <Gold.Protein.RotatedTorsions>
[ 6907 6896 6895 6894 ] final  141.53 input  -60.11 | X-H torsion
[ 7974 7965 7964 7962 ] final   43.40 input  175.53 | X-H torsion
[ 8008 7997 7996 7995 ] final -129.09 input   59.86 | X-H torsion
[ 10167 10162 10161 10158 ] final -173.50 input  -65.29 | X-H torsion
[ 10718 10713 10712 10709 ] final -102.78 input   66.30 | X-H torsion
[ 10763 10752 10751 10750 ] final -155.24 input  -60.55 | X-H torsion
[ 11005 11000 10999 10996 ] final   42.55 input  -57.11 | X-H torsion

> <Gold.Protein.ActiveResidues>
 VAL166  LYS551  ARG553  GLY616  TRP617  ASP618  TYR619  PRO620  LYS621  CYS622 
 ASP623  PHE694  ASN695  SER759  ASP760  ASP761  ALA762  ILE779  LEU786  VAL792 
 PHE793  MET794  SER795  GLU796  ALA797  LYS798  CYS799  TRP800  GLU811  SER814 

> <Gold.Protein.RotatedAtoms>
  152.2299  133.5049  159.5209 H   0  0  0  0  0  0  0  0  0  0  0  0  # atno 6907 bound_to 6896
  150.7034  134.1231  159.4051 H   0  0  0  0  0  0  0  0  0  0  0  0  # atno 6908 bound_to 6896
  151.9152  135.0322  160.0568 H   0  0  0  0  0  0  0  0  0  0  0  0  # atno 6909 bound_to 6896
  146.0658  139.5191  142.9629 H   0  0  0  0  0  0  0  0  0  0  0  0  # atno 7974 bound_to 7965
  155.2735  140.0441  157.3009 H   0  0  0  0  0  0  0  0  0  0  0  0  # atno 8008 bound_to 7997
  154.5639  140.2354  155.8262 H   0  0  0  0  0  0  0  0  0  0  0  0  # atno 8009 bound_to 7997
  156.2069  140.3010  155.9655 H   0  0  0  0  0  0  0  0  0  0  0  0  # atno 8010 bound_to 7997
  139.5685  144.1698  152.1349 H   0  0  0  0  0  0  0  0  0  0  0  0  # atno 10167 bound_to 10162
  156.0241  130.5436  150.7158 H   0  0  0  0  0  0  0  0  0  0  0  0  # atno 10718 bound_to 10713
  154.7801  135.3172  154.8008 H   0  0  0  0  0  0  0  0  0  0  0  0  # atno 10763 bound_to 10752
  153.8721  135.6843  153.4778 H   0  0  0  0  0  0  0  0  0  0  0  0  # atno 10764 bound_to 10752
  153.1435  135.4729  154.9469 H   0  0  0  0  0  0  0  0  0  0  0  0  # atno 10765 bound_to 10752
  140.1728  134.4200  155.8246 H   0  0  0  0  0  0  0  0  0  0  0  0  # atno 11005 bound_to 11000
  145.6479  141.0270  143.1776 LP  0  0  0  0  0  0  0  0  0  0  0  0  # atno 17320 bound_to 7965
  144.7202  139.8057  143.7384 LP  0  0  0  0  0  0  0  0  0  0  0  0  # atno 17321 bound_to 7965
  140.1226  144.5360  150.6853 LP  0  0  0  0  0  0  0  0  0  0  0  0  # atno 17342 bound_to 10162
  140.6969  143.2409  151.4975 LP  0  0  0  0  0  0  0  0  0  0  0  0  # atno 17343 bound_to 10162
  157.4785  131.0900  151.0563 LP  0  0  0  0  0  0  0  0  0  0  0  0  # atno 17370 bound_to 10713
  157.1003  130.5979  149.5458 LP  0  0  0  0  0  0  0  0  0  0  0  0  # atno 17371 bound_to 10713
  141.2218  133.6964  156.7794 LP  0  0  0  0  0  0  0  0  0  0  0  0  # atno 17394 bound_to 11000
  140.2357  134.8652  157.3522 LP  0  0  0  0  0  0  0  0  0  0  0  0  # atno 17395 bound_to 11000

$$$$
