AV-unprocessed.smi:1492|AV-procd|sdf|6045|dock4
  -GOLD-   22720 6153D 1   1.00000     0.00000
 Structure written by MMmdl.
 51 52  0  0  0  0  0  0  0  0  2 V2000
  149.9677  130.2628  154.7007 C   0  0  0  0  0  0  0  0  0  0  0  0
  148.7336  130.9540  155.3088 C   0  0  0  0  0  0  0  0  0  0  0  0
  148.2740  132.2852  154.6340 C   0  0  2  0  0  0  0  0  0  0  0  0
  149.5210  133.1827  154.4126 C   0  0  0  0  0  0  0  0  0  0  0  0
  147.3404  133.0540  155.6228 C   0  0  0  0  0  0  0  0  0  0  0  0
  147.9859  133.3072  156.9084 N   0  0  0  0  0  0  0  0  0  0  0  0
  147.4240  133.8774  157.9839 C   0  0  0  0  0  0  0  0  0  0  0  0
  146.3150  134.4110  157.9754 O   0  0  0  0  0  0  0  0  0  0  0  0
  148.2320  133.7953  159.2791 C   0  0  0  0  0  0  0  0  0  0  0  0
  147.9091  134.8843  160.3042 C   0  0  0  0  0  0  0  0  0  0  0  0
  147.1696  134.6571  161.4273 C   0  0  0  0  0  0  0  0  0  0  0  0
  146.5750  133.3010  161.7645 C   0  0  0  0  0  0  0  0  0  0  0  0
  146.9190  135.6841  162.3531 N   0  0  0  0  0  0  0  0  0  0  0  0
  147.3898  136.8531  162.1394 C   0  0  0  0  0  0  0  0  0  0  0  0
  147.1194  137.9443  163.1533 C   0  0  0  0  0  0  0  0  0  0  0  0
  148.1434  137.1881  161.0368 N   0  5  0  0  0  0  0  0  0  0  0  0
  148.4429  136.2435  160.1010 C   0  0  0  0  0  0  0  0  0  0  0  0
  149.1441  136.4948  159.1217 O   0  0  0  0  0  0  0  0  0  0  0  0
  147.5819  132.0482  153.3321 N   0  0  0  0  0  0  0  0  0  0  0  0
  146.4577  131.1063  153.3736 C   0  0  0  0  0  0  0  0  0  0  0  0
  145.9100  130.8048  151.9683 C   0  0  0  0  0  0  0  0  0  0  0  0
  145.5206  132.0178  151.3354 O   0  0  0  0  0  0  0  0  0  0  0  0
  146.5991  132.9382  151.2209 C   0  0  0  0  0  0  0  0  0  0  0  0
  147.1562  133.2583  152.6184 C   0  0  0  0  0  0  0  0  0  0  0  0
  150.1875  129.3419  155.2409 H   0  0  0  0  0  0  0  0  0  0  0  0
  150.8585  130.8870  154.7613 H   0  0  0  0  0  0  0  0  0  0  0  0
  149.8115  129.9905  153.6573 H   0  0  0  0  0  0  0  0  0  0  0  0
  147.9198  130.2300  155.2917 H   0  0  0  0  0  0  0  0  0  0  0  0
  148.9503  131.1286  156.3623 H   0  0  0  0  0  0  0  0  0  0  0  0
  149.9004  133.5975  155.3466 H   0  0  0  0  0  0  0  0  0  0  0  0
  149.2946  134.0276  153.7614 H   0  0  0  0  0  0  0  0  0  0  0  0
  150.3464  132.6335  153.9593 H   0  0  0  0  0  0  0  0  0  0  0  0
  147.0465  134.0172  155.2056 H   0  0  0  0  0  0  0  0  0  0  0  0
  146.4030  132.5188  155.7793 H   0  0  0  0  0  0  0  0  0  0  0  0
  148.9043  132.9038  157.0300 H   0  0  0  0  0  0  0  0  0  0  0  0
  148.1008  132.8028  159.7112 H   0  0  0  0  0  0  0  0  0  0  0  0
  149.2919  133.8520  159.0302 H   0  0  0  0  0  0  0  0  0  0  0  0
  147.3522  132.5381  161.8047 H   0  0  0  0  0  0  0  0  0  0  0  0
  145.8401  133.0096  161.0142 H   0  0  0  0  0  0  0  0  0  0  0  0
  146.0759  133.3190  162.7339 H   0  0  0  0  0  0  0  0  0  0  0  0
  147.6629  137.7417  164.0764 H   0  0  0  0  0  0  0  0  0  0  0  0
  146.0546  137.9937  163.3828 H   0  0  0  0  0  0  0  0  0  0  0  0
  147.4322  138.9203  162.7791 H   0  0  0  0  0  0  0  0  0  0  0  0
  146.7570  130.1598  153.8208 H   0  0  0  0  0  0  0  0  0  0  0  0
  145.6500  131.5065  153.9861 H   0  0  0  0  0  0  0  0  0  0  0  0
  146.6603  130.2941  151.3637 H   0  0  0  0  0  0  0  0  0  0  0  0
  145.0463  130.1429  152.0320 H   0  0  0  0  0  0  0  0  0  0  0  0
  147.3769  132.5225  150.5798 H   0  0  0  0  0  0  0  0  0  0  0  0
  146.2410  133.8479  150.7389 H   0  0  0  0  0  0  0  0  0  0  0  0
  146.3870  133.7806  153.1870 H   0  0  0  0  0  0  0  0  0  0  0  0
  147.9852  133.9530  152.4962 H   0  0  0  0  0  0  0  0  0  0  0  0
  1  2  1  0  0  0  0
  1 25  1  0  0  0  0
  1 26  1  0  0  0  0
  1 27  1  0  0  0  0
  2  3  1  0  0  0  0
  2 28  1  0  0  0  0
  2 29  1  0  0  0  0
  3  4  1  0  0  0  0
  3  5  1  0  0  0  0
  3 19  1  0  0  0  0
  4 30  1  0  0  0  0
  4 31  1  0  0  0  0
  4 32  1  0  0  0  0
  5  6  1  0  0  0  0
  5 33  1  0  0  0  0
  5 34  1  0  0  0  0
  6  7  1  0  0  0  0
  6 35  1  0  0  0  0
  7  8  2  0  0  0  0
  7  9  1  0  0  0  0
  9 10  1  0  0  0  0
  9 36  1  0  0  0  0
  9 37  1  0  0  0  0
 10 17  1  0  0  0  0
 10 11  2  0  0  0  0
 11 12  1  0  0  0  0
 11 13  1  0  0  0  0
 12 38  1  0  0  0  0
 12 39  1  0  0  0  0
 12 40  1  0  0  0  0
 13 14  2  0  0  0  0
 14 15  1  0  0  0  0
 14 16  1  0  0  0  0
 15 41  1  0  0  0  0
 15 42  1  0  0  0  0
 15 43  1  0  0  0  0
 16 17  1  0  0  0  0
 17 18  2  0  0  0  0
 19 24  1  0  0  0  0
 19 20  1  0  0  0  0
 20 21  1  0  0  0  0
 20 44  1  0  0  0  0
 20 45  1  0  0  0  0
 21 22  1  0  0  0  0
 21 46  1  0  0  0  0
 21 47  1  0  0  0  0
 22 23  1  0  0  0  0
 23 24  1  0  0  0  0
 23 48  1  0  0  0  0
 23 49  1  0  0  0  0
 24 50  1  0  0  0  0
 24 51  1  0  0  0  0
M  CHG  1  16  -1
M  END
> <s_m_source_file>
AV-unprocessed.smi

> <i_m_source_file_index>
1492

> <i_lp_mmshare_version>
43012

> <i_f3d_flags>
0

> <s_epik_input>
W0NIMl0xW0NIMl1PW0NIMl1bQ0gyXU4xW0NAQF0oW0NIM10pKFtDSDJdW0NIM10pW0NIMl1bTkhdQyg9TylbQ0gyXWMyYyhbQ0gzXSluYyhbQ0gzXSlbbkhdYzI9Tw==

> <s_epik_cmdline>
J2VwaWtfcHl0aG9uJywgJy1waCcsICc3LjAnLCAnLXRuJywgJzgnLCAnLW1hJywgJzIwMCcsICctbWV0YWxfYmluZGluZycsICctaW1hZScsICc8aW5maWxlLm1hZT4nLCAnLW9tYWUnLCAnPG91dGZpbGUubWFlPic=

> <r_lp_tautomer_probability>
0.839158

> <r_epik_Ionization_Penalty>
6.88574

> <r_epik_Ionization_Penalty_Charging>
6.74373e-08

> <r_epik_Ionization_Penalty_Neutral>
6.88574

> <r_epik_State_Penalty>
4.79448

> <r_epik_Charging_Adjusted_Penalty>
4.79448

> <i_epik_Tot_Q>
-1

> <i_epik_Tot_abs_Q>
1

> <r_epik_Metal_State_Penalty>
1.16421

> <b_epik_Metal_Only>
1

> <s_lp_Force_Field>
OPLS_2005

> <r_lp_Energy>
46.4707

> <b_lp_Chiralities_Consistent>
1

> <s_lp_Variant>
AV-unprocessed.smi:1492-10

> <Gold.Version>
5.8.1

> <Gold.Id.Protein>
6NUR|6NUR_protein|mol2

> <Gold.PLP.Fitness>
44.0302

> <Gold.PLP.PLP>
-34.5918

> <Gold.PLP.part.hbond>
-2.0000

> <Gold.PLP.part.metal>
0.0000

> <Gold.PLP.part.buried>
-4.6955

> <Gold.PLP.part.nonpolar>
-28.0788

> <Gold.PLP.part.repulsive>
0.2359

> <Gold.PLP.ligand.clash>
0.0000

> <Gold.PLP.ligand.torsion>
0.7885

> <Gold.PLP.Chemscore.Hbond>
3.6160

> <Gold.PLP.Chemscore.CHOScore>
0.0000

> <Gold.PLP.Chemscore.Metal>
0.0000

> <Gold.Chemscore.Hbonds>
donor molecule, donor type, donor heavy atom, donor atom, acceptor molecule, acceptor atom, score
      P1  H  6931  6943       L1    16  1.17
      P1  H  6934  6947       L1    16  0.66

> <Gold.PLP.Chemscore.Internal.Correction>
0.1674

> <Gold.Rescore>
     Score         DG    S(hbond)    S(metal)    S(lipo)     H(rot)  DE(clash)    DE(int)     intcor
     12.09     -13.34       1.20        0.00      77.85       2.05       0.38       0.88       ----

> <Gold.Chemscore.Fitness>
12.0880

> <Gold.Chemscore.DG>
-13.3440

> <Gold.Chemscore.ZeroCoef>
-5.4800

> <Gold.Chemscore.Hbond>
1.1955

> <Gold.Chemscore.Metal>
0.0000

> <Gold.Chemscore.Lipo>
77.8546

> <Gold.Chemscore.Internal_Hbond>
0.0000

> <Gold.Chemscore.DEClash>
0.3764

> <Gold.Chemscore.DEInternal>
0.8796

> <Gold.Chemscore.Rot>
2.0461

> <Gold.Chemscore.Internal.Correction>
   9.000000E+99

> <Gold.Chemscore.Hbonds>
donor molecule, donor type, donor heavy atom, donor atom, acceptor molecule, acceptor atom, score
      P1  H  6931  6943       L1    16  0.04
      P1  H  6934  6947       L1    16  0.02

> <Gold.Chemscore.Hbond.Weighted>
-3.9931

> <Gold.Chemscore.Metal.Weighted>
-0.0000

> <Gold.Chemscore.Lipo.Weighted>
-9.1090

> <Gold.Chemscore.Internal_Hbond.Weighted>
0.0000

> <Gold.Chemscore.DEClash.Weighted>
0.3764

> <Gold.Chemscore.DEInternal.Weighted>
0.8796

> <Gold.Chemscore.Rot.Weighted>
5.2381

> <Gold.Chemscore.Internal.Correction.Weighted>
   9.000000E+99

> <Gold.Protein.RotatedTorsions>
[ 6907 6896 6895 6894 ] final   24.66 input  -60.11 | X-H torsion
[ 7974 7965 7964 7962 ] final -114.73 input  175.53 | X-H torsion
[ 8008 7997 7996 7995 ] final  -28.53 input   59.86 | X-H torsion
[ 10167 10162 10161 10158 ] final  148.83 input  -65.29 | X-H torsion
[ 10718 10713 10712 10709 ] final  -63.08 input   66.30 | X-H torsion
[ 10763 10752 10751 10750 ] final   96.10 input  -60.55 | X-H torsion
[ 11005 11000 10999 10996 ] final   53.48 input  -57.11 | X-H torsion

> <Gold.Protein.ActiveResidues>
 VAL166  LYS551  ARG553  GLY616  TRP617  ASP618  TYR619  PRO620  LYS621  CYS622 
 ASP623  PHE694  ASN695  SER759  ASP760  ASP761  ALA762  ILE779  LEU786  VAL792 
 PHE793  MET794  SER795  GLU796  ALA797  LYS798  CYS799  TRP800  GLU811  SER814 

> <Gold.Protein.RotatedAtoms>
  151.9608  135.0124  160.0547 H   0  0  0  0  0  0  0  0  0  0  0  0  # atno 6907 bound_to 6896
  152.1870  133.4742  159.4996 H   0  0  0  0  0  0  0  0  0  0  0  0  # atno 6908 bound_to 6896
  150.6928  134.1678  159.4243 H   0  0  0  0  0  0  0  0  0  0  0  0  # atno 6909 bound_to 6896
  145.1167  140.8644  143.3838 H   0  0  0  0  0  0  0  0  0  0  0  0  # atno 7974 bound_to 7965
  154.4328  140.1843  156.1104 H   0  0  0  0  0  0  0  0  0  0  0  0  # atno 8008 bound_to 7997
  156.0222  140.3339  155.7025 H   0  0  0  0  0  0  0  0  0  0  0  0  # atno 8009 bound_to 7997
  155.5960  140.0635  157.2736 H   0  0  0  0  0  0  0  0  0  0  0  0  # atno 8010 bound_to 7997
  139.4869  144.5649  151.7163 H   0  0  0  0  0  0  0  0  0  0  0  0  # atno 10167 bound_to 10162
  156.0814  130.4216  150.1226 H   0  0  0  0  0  0  0  0  0  0  0  0  # atno 10718 bound_to 10713
  153.2610  135.4230  155.0894 H   0  0  0  0  0  0  0  0  0  0  0  0  # atno 10763 bound_to 10752
  154.8420  135.3449  154.6378 H   0  0  0  0  0  0  0  0  0  0  0  0  # atno 10764 bound_to 10752
  153.6798  135.7039  153.5178 H   0  0  0  0  0  0  0  0  0  0  0  0  # atno 10765 bound_to 10752
  140.0764  134.5399  155.8992 H   0  0  0  0  0  0  0  0  0  0  0  0  # atno 11005 bound_to 11000
  145.0786  139.2977  143.5795 LP  0  0  0  0  0  0  0  0  0  0  0  0  # atno 17320 bound_to 7965
  146.3523  140.0284  142.8652 LP  0  0  0  0  0  0  0  0  0  0  0  0  # atno 17321 bound_to 7965
  140.5226  144.0856  150.6027 LP  0  0  0  0  0  0  0  0  0  0  0  0  # atno 17342 bound_to 10162
  140.3819  143.2798  152.0161 LP  0  0  0  0  0  0  0  0  0  0  0  0  # atno 17343 bound_to 10162
  156.9257  130.9697  151.3541 LP  0  0  0  0  0  0  0  0  0  0  0  0  # atno 17370 bound_to 10713
  157.5932  130.8458  149.8689 LP  0  0  0  0  0  0  0  0  0  0  0  0  # atno 17371 bound_to 10713
  141.2031  133.6629  156.6043 LP  0  0  0  0  0  0  0  0  0  0  0  0  # atno 17394 bound_to 11000
  140.3552  134.7735  157.4495 LP  0  0  0  0  0  0  0  0  0  0  0  0  # atno 17395 bound_to 11000

$$$$
