AV-unprocessed.smi:609|AV-procd|sdf|3050|dock1
  -GOLD-   2262023573D 1   1.00000     0.00000
 Structure written by MMmdl.
 44 46  0  0  0  0  0  0  0  0  3 V2000
  152.2297  143.7915  160.1587 C   0  0  0  0  0  0  0  0  0  0  0  0
  151.9994  142.7392  159.0874 C   0  0  0  0  0  0  0  0  0  0  0  0
  151.0814  143.0215  158.0508 C   0  0  0  0  0  0  0  0  0  0  0  0
  150.8874  142.0370  157.0893 C   0  0  0  0  0  0  0  0  0  0  0  0
  150.0606  142.0086  155.9644 N   0  3  0  0  0  0  0  0  0  0  0  0
  150.2077  140.8170  155.3221 C   0  0  0  0  0  0  0  0  0  0  0  0
  151.1159  140.0830  156.0207 N   0  0  0  0  0  0  0  0  0  0  0  0
  151.6290  138.7322  155.7520 C   0  0  0  0  0  0  0  0  0  0  0  0
  150.9649  138.0669  154.5299 C   0  0  1  0  0  0  0  0  0  0  0  0
  151.9133  137.1971  153.9477 O   0  0  0  0  0  0  0  0  0  0  0  0
  149.6906  137.2694  154.8659 C   0  0  0  0  0  0  0  0  0  0  0  0
  150.0071  135.9310  156.0508 S   0  0  0  0  0  0  0  0  0  0  0  0
  149.6142  134.4336  155.1983 C   0  0  0  0  0  0  0  0  0  0  0  0
  149.0242  134.3449  154.0025 N   0  3  0  0  0  0  0  0  0  0  0  0
  148.8739  133.0291  153.6549 C   0  0  0  0  0  0  0  0  0  0  0  0
  149.3970  132.2901  154.6863 C   0  0  0  0  0  0  0  0  0  0  0  0
  149.8457  133.1843  155.6251 N   0  0  0  0  0  0  0  0  0  0  0  0
  150.4835  132.8738  156.9052 C   0  0  0  0  0  0  0  0  0  0  0  0
  151.5724  140.8067  157.1293 C   0  0  0  0  0  0  0  0  0  0  0  0
  152.4849  140.5153  158.1408 C   0  0  0  0  0  0  0  0  0  0  0  0
  152.6923  141.5016  159.1314 C   0  0  0  0  0  0  0  0  0  0  0  0
  153.6760  141.2075  160.2512 C   0  0  0  0  0  0  0  0  0  0  0  0
  151.6350  144.6865  159.9737 H   0  0  0  0  0  0  0  0  0  0  0  0
  153.2780  144.0892  160.1852 H   0  0  0  0  0  0  0  0  0  0  0  0
  151.9539  143.4052  161.1402 H   0  0  0  0  0  0  0  0  0  0  0  0
  150.5512  143.9620  158.0096 H   0  0  0  0  0  0  0  0  0  0  0  0
  149.6964  140.5100  154.4208 H   0  0  0  0  0  0  0  0  0  0  0  0
  152.7019  138.8312  155.5809 H   0  0  0  0  0  0  0  0  0  0  0  0
  151.5215  138.1179  156.6461 H   0  0  0  0  0  0  0  0  0  0  0  0
  150.7240  138.8370  153.7960 H   0  0  0  0  0  0  0  0  0  0  0  0
  151.5904  136.9204  153.1034 H   0  0  0  0  0  0  0  0  0  0  0  0
  148.9253  137.9324  155.2714 H   0  0  0  0  0  0  0  0  0  0  0  0
  149.2774  136.8139  153.9665 H   0  0  0  0  0  0  0  0  0  0  0  0
  148.4179  132.7241  152.7242 H   0  0  0  0  0  0  0  0  0  0  0  0
  149.4800  131.2208  154.8174 H   0  0  0  0  0  0  0  0  0  0  0  0
  150.5560  131.7924  157.0244 H   0  0  0  0  0  0  0  0  0  0  0  0
  149.8847  133.2880  157.7168 H   0  0  0  0  0  0  0  0  0  0  0  0
  151.4837  133.3077  156.9237 H   0  0  0  0  0  0  0  0  0  0  0  0
  153.0142  139.5748  158.1770 H   0  0  0  0  0  0  0  0  0  0  0  0
  154.1370  140.2268  160.1304 H   0  0  0  0  0  0  0  0  0  0  0  0
  153.1714  141.2220  161.2175 H   0  0  0  0  0  0  0  0  0  0  0  0
  154.4744  141.9497  160.2653 H   0  0  0  0  0  0  0  0  0  0  0  0
  148.7298  135.1344  153.4421 H   0  0  0  0  0  0  0  0  0  0  0  0
  149.4416  142.7469  155.6544 H   0  0  0  0  0  0  0  0  0  0  0  0
  1  2  1  0  0  0  0
  1 23  1  0  0  0  0
  1 24  1  0  0  0  0
  1 25  1  0  0  0  0
  2 21  1  0  0  0  0
  2  3  2  0  0  0  0
  3  4  1  0  0  0  0
  3 26  1  0  0  0  0
  4 19  2  0  0  0  0
  4  5  1  0  0  0  0
  5  6  2  0  0  0  0
  5 44  1  0  0  0  0
  6  7  1  0  0  0  0
  6 27  1  0  0  0  0
  7  8  1  0  0  0  0
  7 19  1  0  0  0  0
  8  9  1  0  0  0  0
  8 28  1  0  0  0  0
  8 29  1  0  0  0  0
  9 10  1  0  0  0  0
  9 11  1  0  0  0  0
  9 30  1  0  0  0  0
 10 31  1  0  0  0  0
 11 12  1  0  0  0  0
 11 32  1  0  0  0  0
 11 33  1  0  0  0  0
 12 13  1  0  0  0  0
 13 17  1  0  0  0  0
 13 14  2  0  0  0  0
 14 15  1  0  0  0  0
 14 43  1  0  0  0  0
 15 16  2  0  0  0  0
 15 34  1  0  0  0  0
 16 17  1  0  0  0  0
 16 35  1  0  0  0  0
 17 18  1  0  0  0  0
 18 36  1  0  0  0  0
 18 37  1  0  0  0  0
 18 38  1  0  0  0  0
 19 20  1  0  0  0  0
 20 21  2  0  0  0  0
 20 39  1  0  0  0  0
 21 22  1  0  0  0  0
 22 40  1  0  0  0  0
 22 41  1  0  0  0  0
 22 42  1  0  0  0  0
M  CHG  1   5   1
M  CHG  1  14   1
M  END
> <s_m_source_file>
AV-unprocessed.smi

> <i_m_source_file_index>
609

> <i_lp_mmshare_version>
43012

> <i_f3d_flags>
0

> <s_epik_input>
W0NIM11jKFtjSF0xKWMoW0NIM10pW2NIXWMoYzEyKW4oW2NIXW4yKVtDSDJdW0NASF0oW09IXSlbQ0gyXVNjM25bY0hdW2NIXW4zW0NIM10=

> <s_epik_cmdline>
J2VwaWtfcHl0aG9uJywgJy1waCcsICc3LjAnLCAnLXRuJywgJzgnLCAnLW1hJywgJzIwMCcsICctbWV0YWxfYmluZGluZycsICctaW1hZScsICc8aW5maWxlLm1hZT4nLCAnLW9tYWUnLCAnPG91dGZpbGUubWFlPic=

> <r_lp_tautomer_probability>
1

> <r_epik_Ionization_Penalty>
1.19058

> <r_epik_Ionization_Penalty_Charging>
1.07615

> <r_epik_Ionization_Penalty_Neutral>
0.114429

> <r_epik_State_Penalty>
1.23473

> <r_epik_Charging_Adjusted_Penalty>
2.31088

> <i_epik_Tot_Q>
2

> <i_epik_Tot_abs_Q>
2

> <r_epik_Metal_State_Penalty>
4.63867

> <b_epik_Metal_Only>
0

> <s_lp_Force_Field>
OPLS_2005

> <r_lp_Energy>
20.0831

> <b_lp_Chiralities_Consistent>
1

> <s_lp_Variant>
AV-unprocessed.smi:609-6

> <Gold.Version>
5.8.1

> <Gold.Id.Protein>
6NUR|6NUR_protein|mol2

> <Gold.PLP.Fitness>
63.9980

> <Gold.PLP.PLP>
-48.1835

> <Gold.PLP.part.hbond>
-4.0000

> <Gold.PLP.part.metal>
0.0000

> <Gold.PLP.part.buried>
-3.0970

> <Gold.PLP.part.nonpolar>
-41.1832

> <Gold.PLP.part.repulsive>
0.1295

> <Gold.PLP.ligand.clash>
0.0000

> <Gold.PLP.ligand.torsion>
0.8262

> <Gold.PLP.Chemscore.Hbond>
5.7840

> <Gold.PLP.Chemscore.CHOScore>
0.0000

> <Gold.PLP.Chemscore.Metal>
0.0000

> <Gold.Chemscore.Hbonds>
donor molecule, donor type, donor heavy atom, donor atom, acceptor molecule, acceptor atom, score
      L1  H     5    44       P1  8028  1.92
      L1  H    10    31       P1  7949  1.00
      L1  H    14    43       P1  7948  1.92
      P1  H 10752 10763       L1    10  0.84

> <Gold.PLP.Chemscore.Internal.Correction>
0.1148

> <Gold.Rescore>
     Score         DG    S(hbond)    S(metal)    S(lipo)     H(rot)  DE(clash)    DE(int)     intcor
     21.36     -22.07       3.13        0.00     109.09       2.59       0.02       0.69       ----

> <Gold.Chemscore.Fitness>
21.3572

> <Gold.Chemscore.DG>
-22.0680

> <Gold.Chemscore.ZeroCoef>
-5.4800

> <Gold.Chemscore.Hbond>
3.1273

> <Gold.Chemscore.Metal>
0.0000

> <Gold.Chemscore.Lipo>
109.0939

> <Gold.Chemscore.Internal_Hbond>
0.0000

> <Gold.Chemscore.DEClash>
0.0159

> <Gold.Chemscore.DEInternal>
0.6949

> <Gold.Chemscore.Rot>
2.5863

> <Gold.Chemscore.Internal.Correction>
   9.000000E+99

> <Gold.Chemscore.Hbonds>
donor molecule, donor type, donor heavy atom, donor atom, acceptor molecule, acceptor atom, score
      L1  H     5    44       P1  8028  0.87
      L1  H    10    31       P1  7949  0.95
      L1  H    14    43       P1  7948  0.64
      P1  H 10752 10763       L1    10  0.19

> <Gold.Chemscore.Hbond.Weighted>
-10.4450

> <Gold.Chemscore.Metal.Weighted>
-0.0000

> <Gold.Chemscore.Lipo.Weighted>
-12.7640

> <Gold.Chemscore.Internal_Hbond.Weighted>
0.0000

> <Gold.Chemscore.DEClash.Weighted>
0.0159

> <Gold.Chemscore.DEInternal.Weighted>
0.6949

> <Gold.Chemscore.Rot.Weighted>
6.6210

> <Gold.Chemscore.Internal.Correction.Weighted>
   9.000000E+99

> <Gold.Protein.RotatedTorsions>
[ 6907 6896 6895 6894 ] final    9.45 input  -60.11 | X-H torsion
[ 7974 7965 7964 7962 ] final -134.12 input  175.53 | X-H torsion
[ 8008 7997 7996 7995 ] final  107.90 input   59.86 | X-H torsion
[ 10167 10162 10161 10158 ] final  -39.86 input  -65.29 | X-H torsion
[ 10718 10713 10712 10709 ] final  -58.32 input   66.30 | X-H torsion
[ 10763 10752 10751 10750 ] final   50.17 input  -60.55 | X-H torsion
[ 11005 11000 10999 10996 ] final   67.18 input  -57.11 | X-H torsion

> <Gold.Protein.ActiveResidues>
 VAL166  LYS551  ARG553  GLY616  TRP617  ASP618  TYR619  PRO620  LYS621  CYS622 
 ASP623  PHE694  ASN695  SER759  ASP760  ASP761  ALA762  ILE779  LEU786  VAL792 
 PHE793  MET794  SER795  GLU796  ALA797  LYS798  CYS799  TRP800  GLU811  SER814 

> <Gold.Protein.RotatedAtoms>
  151.7224  135.0891  160.0286 H   0  0  0  0  0  0  0  0  0  0  0  0  # atno 6907 bound_to 6896
  152.3593  133.6273  159.6012 H   0  0  0  0  0  0  0  0  0  0  0  0  # atno 6908 bound_to 6896
  150.7593  133.9365  159.3484 H   0  0  0  0  0  0  0  0  0  0  0  0  # atno 6909 bound_to 6896
  144.9131  140.6921  143.5012 H   0  0  0  0  0  0  0  0  0  0  0  0  # atno 7974 bound_to 7965
  156.1861  140.3086  155.9241 H   0  0  0  0  0  0  0  0  0  0  0  0  # atno 8008 bound_to 7997
  155.3278  140.0459  157.3058 H   0  0  0  0  0  0  0  0  0  0  0  0  # atno 8009 bound_to 7997
  154.5397  140.2257  155.8671 H   0  0  0  0  0  0  0  0  0  0  0  0  # atno 8010 bound_to 7997
  140.7052  143.3188  151.2842 H   0  0  0  0  0  0  0  0  0  0  0  0  # atno 10167 bound_to 10162
  156.1144  130.4172  150.0561 H   0  0  0  0  0  0  0  0  0  0  0  0  # atno 10718 bound_to 10713
  152.9785  135.5888  154.4208 H   0  0  0  0  0  0  0  0  0  0  0  0  # atno 10763 bound_to 10752
  154.3833  135.2767  155.2200 H   0  0  0  0  0  0  0  0  0  0  0  0  # atno 10764 bound_to 10752
  154.4105  135.6082  153.6004 H   0  0  0  0  0  0  0  0  0  0  0  0  # atno 10765 bound_to 10752
  139.9787  134.6780  156.0305 H   0  0  0  0  0  0  0  0  0  0  0  0  # atno 11005 bound_to 11000
  145.3420  139.1729  143.4480 LP  0  0  0  0  0  0  0  0  0  0  0  0  # atno 17320 bound_to 7965
  146.3168  140.3462  142.8652 LP  0  0  0  0  0  0  0  0  0  0  0  0  # atno 17321 bound_to 7965
  139.6636  144.0145  152.2708 LP  0  0  0  0  0  0  0  0  0  0  0  0  # atno 17342 bound_to 10162
  139.9721  144.6487  150.7980 LP  0  0  0  0  0  0  0  0  0  0  0  0  # atno 17343 bound_to 10162
  156.8516  130.9460  151.3625 LP  0  0  0  0  0  0  0  0  0  0  0  0  # atno 17370 bound_to 10713
  157.6327  130.8742  149.9303 LP  0  0  0  0  0  0  0  0  0  0  0  0  # atno 17371 bound_to 10713
  141.1461  133.6556  156.3872 LP  0  0  0  0  0  0  0  0  0  0  0  0  # atno 17394 bound_to 11000
  140.5142  134.6366  157.5295 LP  0  0  0  0  0  0  0  0  0  0  0  0  # atno 17395 bound_to 11000

$$$$
