AV-unprocessed.smi:1976|AV-procd|sdf|7987|dock8
  -GOLD-   2272010173D 1   1.00000     0.00000
 Structure written by MMmdl.
 45 47  0  0  0  0  0  0  0  0  2 V2000
  151.9961  140.3297  155.3241 O   0  0  0  0  0  0  0  0  0  0  0  0
  151.0919  139.9952  156.0907 C   0  0  0  0  0  0  0  0  0  0  0  0
  151.4009  139.5011  157.5110 C   0  0  0  0  0  0  0  0  0  0  0  0
  152.0294  140.5252  158.3623 N   0  0  0  0  0  0  0  0  0  0  0  0
  151.4952  141.8273  158.3011 C   0  0  0  0  0  0  0  0  0  0  0  0
  151.9866  142.8556  159.0186 C   0  0  0  0  0  0  0  0  0  0  0  0
  151.3563  144.2386  158.9691 C   0  0  0  0  0  0  0  0  0  0  0  0
  150.0593  144.1866  159.2733 F   0  0  0  0  0  0  0  0  0  0  0  0
  151.9568  145.0417  159.8461 F   0  0  0  0  0  0  0  0  0  0  0  0
  151.4805  144.7811  157.7572 F   0  0  0  0  0  0  0  0  0  0  0  0
  153.0934  142.5532  159.9047 C   0  0  0  0  0  0  0  0  0  0  0  0
  153.6136  141.3124  159.9785 C   0  0  0  0  0  0  0  0  0  0  0  0
  153.0850  140.2104  159.1714 C   0  0  0  0  0  0  0  0  0  0  0  0
  153.5596  139.0753  159.2195 O   0  0  0  0  0  0  0  0  0  0  0  0
  149.7936  140.0528  155.7601 N   0  0  0  0  0  0  0  0  0  0  0  0
  149.2778  140.4969  154.4680 C   0  0  2  0  0  0  0  0  0  0  0  0
  148.2195  141.5926  154.5600 C   0  0  0  0  0  0  0  0  0  0  0  0
  147.5152  141.5094  153.2031 C   0  0  0  0  0  0  0  0  0  0  0  0
  147.6690  140.1140  152.7244 N   0  3  2  0  0  0  0  0  0  0  0  0
  146.3810  139.4356  152.4193 C   0  0  0  0  0  0  0  0  0  0  0  0
  146.5754  137.9167  152.3034 C   0  0  0  0  0  0  0  0  0  0  0  0
  147.0760  137.3096  153.6278 C   0  0  0  0  0  0  0  0  0  0  0  0
  147.7994  138.3418  154.5145 C   0  0  0  0  0  0  0  0  0  0  0  0
  148.5659  139.3898  153.6706 C   0  0  2  0  0  0  0  0  0  0  0  0
  150.4700  139.1491  157.9575 H   0  0  0  0  0  0  0  0  0  0  0  0
  152.0404  138.6180  157.4549 H   0  0  0  0  0  0  0  0  0  0  0  0
  150.6585  141.9392  157.6269 H   0  0  0  0  0  0  0  0  0  0  0  0
  153.5172  143.3354  160.5170 H   0  0  0  0  0  0  0  0  0  0  0  0
  154.4402  141.1245  160.6477 H   0  0  0  0  0  0  0  0  0  0  0  0
  149.1156  139.7642  156.4508 H   0  0  0  0  0  0  0  0  0  0  0  0
  150.1093  140.8687  153.8653 H   0  0  0  0  0  0  0  0  0  0  0  0
  147.5115  141.3684  155.3592 H   0  0  0  0  0  0  0  0  0  0  0  0
  148.6424  142.5792  154.7529 H   0  0  0  0  0  0  0  0  0  0  0  0
  146.4746  141.8296  153.2708 H   0  0  0  0  0  0  0  0  0  0  0  0
  148.0098  142.1649  152.4856 H   0  0  0  0  0  0  0  0  0  0  0  0
  145.6501  139.6449  153.2024 H   0  0  0  0  0  0  0  0  0  0  0  0
  145.9757  139.8433  151.4925 H   0  0  0  0  0  0  0  0  0  0  0  0
  145.6464  137.4336  151.9992 H   0  0  0  0  0  0  0  0  0  0  0  0
  147.2979  137.7122  151.5118 H   0  0  0  0  0  0  0  0  0  0  0  0
  146.2394  136.8885  154.1867 H   0  0  0  0  0  0  0  0  0  0  0  0
  147.7420  136.4750  153.4057 H   0  0  0  0  0  0  0  0  0  0  0  0
  147.0686  138.8521  155.1437 H   0  0  0  0  0  0  0  0  0  0  0  0
  148.4699  137.8157  155.1946 H   0  0  0  0  0  0  0  0  0  0  0  0
  149.3094  138.8517  153.0806 H   0  0  0  0  0  0  0  0  0  0  0  0
  148.1772  140.1698  151.8531 H   0  0  0  0  0  0  0  0  0  0  0  0
  1  2  2  0  0  0  0
  2  3  1  0  0  0  0
  2 15  1  0  0  0  0
  3  4  1  0  0  0  0
  3 25  1  0  0  0  0
  3 26  1  0  0  0  0
  4 13  1  0  0  0  0
  4  5  1  0  0  0  0
  5  6  2  0  0  0  0
  5 27  1  0  0  0  0
  6  7  1  0  0  0  0
  6 11  1  0  0  0  0
  7  8  1  0  0  0  0
  7  9  1  0  0  0  0
  7 10  1  0  0  0  0
 11 12  2  0  0  0  0
 11 28  1  0  0  0  0
 12 13  1  0  0  0  0
 12 29  1  0  0  0  0
 13 14  2  0  0  0  0
 15 16  1  0  0  0  0
 15 30  1  0  0  0  0
 16 24  1  0  0  0  0
 16 17  1  0  0  0  0
 16 31  1  0  0  0  0
 17 18  1  0  0  0  0
 17 32  1  0  0  0  0
 17 33  1  0  0  0  0
 18 19  1  0  0  0  0
 18 34  1  0  0  0  0
 18 35  1  0  0  0  0
 19 24  1  0  0  0  0
 19 20  1  0  0  0  0
 19 45  1  0  0  0  0
 20 21  1  0  0  0  0
 20 36  1  0  0  0  0
 20 37  1  0  0  0  0
 21 22  1  0  0  0  0
 21 38  1  0  0  0  0
 21 39  1  0  0  0  0
 22 23  1  0  0  0  0
 22 40  1  0  0  0  0
 22 41  1  0  0  0  0
 23 24  1  0  0  0  0
 23 42  1  0  0  0  0
 23 43  1  0  0  0  0
 24 44  1  0  0  0  0
M  CHG  1  19   1
M  END
> <s_m_source_file>
AV-unprocessed.smi

> <i_m_source_file_index>
1976

> <i_lp_mmshare_version>
43012

> <i_f3d_flags>
0

> <s_epik_input>
W0NIMl0xW0NIMl1bQ0gyXVtDSDJdW0NASF0oTjEyKVtDQEBIXShbQ0gyXVtDSDJdMilbTkhdQyg9TylbQ0gyXW4zW2NIXWMoQyhGKShGKUYpW2NIXVtjSF1jMz1P

> <s_epik_cmdline>
J2VwaWtfcHl0aG9uJywgJy1waCcsICc3LjAnLCAnLXRuJywgJzgnLCAnLW1hJywgJzIwMCcsICctbWV0YWxfYmluZGluZycsICctaW1hZScsICc8aW5maWxlLm1hZT4nLCAnLW9tYWUnLCAnPG91dGZpbGUubWFlPic=

> <r_lp_tautomer_probability>
1

> <r_epik_Ionization_Penalty>
0.00171506

> <r_epik_Ionization_Penalty_Charging>
0.00171498

> <r_epik_Ionization_Penalty_Neutral>
7.81737e-08

> <r_epik_State_Penalty>
0.00115937

> <r_epik_Charging_Adjusted_Penalty>
0.00287436

> <i_epik_Tot_Q>
1

> <i_epik_Tot_abs_Q>
1

> <r_epik_Metal_State_Penalty>
-0

> <b_epik_Metal_Only>
0

> <s_lp_Force_Field>
OPLS_2005

> <r_lp_Energy>
52.9045

> <b_lp_Chiralities_Consistent>
1

> <s_lp_Variant>
AV-unprocessed.smi:1976-5

> <Gold.Version>
5.8.1

> <Gold.Id.Protein>
6NUR|6NUR_protein|mol2

> <Gold.PLP.Fitness>
50.0309

> <Gold.PLP.PLP>
-45.8083

> <Gold.PLP.part.hbond>
-2.0000

> <Gold.PLP.part.metal>
0.0000

> <Gold.PLP.part.buried>
-0.9791

> <Gold.PLP.part.nonpolar>
-42.5696

> <Gold.PLP.part.repulsive>
0.1439

> <Gold.PLP.ligand.clash>
0.4942

> <Gold.PLP.ligand.torsion>
0.3222

> <Gold.PLP.Chemscore.Hbond>
1.7716

> <Gold.PLP.Chemscore.CHOScore>
0.0000

> <Gold.PLP.Chemscore.Metal>
0.0000

> <Gold.Chemscore.Hbonds>
donor molecule, donor type, donor heavy atom, donor atom, acceptor molecule, acceptor atom, score
      L1  H    19    45       P1  7957  0.94
      P1  H  7989  7998       L1     1  0.72

> <Gold.PLP.Chemscore.Internal.Correction>
0.0465

> <Gold.Rescore>
     Score         DG    S(hbond)    S(metal)    S(lipo)     H(rot)  DE(clash)    DE(int)     intcor
     16.34     -19.09       1.77        0.00     100.43       1.58       2.36       0.38       ----

> <Gold.Chemscore.Fitness>
16.3430

> <Gold.Chemscore.DG>
-19.0883

> <Gold.Chemscore.ZeroCoef>
-5.4800

> <Gold.Chemscore.Hbond>
1.7697

> <Gold.Chemscore.Metal>
0.0000

> <Gold.Chemscore.Lipo>
100.4273

> <Gold.Chemscore.Internal_Hbond>
0.0000

> <Gold.Chemscore.DEClash>
2.3611

> <Gold.Chemscore.DEInternal>
0.3842

> <Gold.Chemscore.Rot>
1.5830

> <Gold.Chemscore.Internal.Correction>
   9.000000E+99

> <Gold.Chemscore.Hbonds>
donor molecule, donor type, donor heavy atom, donor atom, acceptor molecule, acceptor atom, score
      L1  H    19    45       P1  7957  0.88
      P1  H  7989  7998       L1     1  0.71
      P1  H  7997  8010       L1     1  0.01

> <Gold.Chemscore.Hbond.Weighted>
-5.9107

> <Gold.Chemscore.Metal.Weighted>
-0.0000

> <Gold.Chemscore.Lipo.Weighted>
-11.7500

> <Gold.Chemscore.Internal_Hbond.Weighted>
0.0000

> <Gold.Chemscore.DEClash.Weighted>
2.3611

> <Gold.Chemscore.DEInternal.Weighted>
0.3842

> <Gold.Chemscore.Rot.Weighted>
4.0524

> <Gold.Chemscore.Internal.Correction.Weighted>
   9.000000E+99

> <Gold.Protein.RotatedTorsions>
[ 6907 6896 6895 6894 ] final -167.82 input  -60.11 | X-H torsion
[ 7974 7965 7964 7962 ] final  -79.99 input  175.53 | X-H torsion
[ 8008 7997 7996 7995 ] final   84.10 input   59.86 | X-H torsion
[ 10167 10162 10161 10158 ] final  -68.81 input  -65.29 | X-H torsion
[ 10718 10713 10712 10709 ] final  -18.32 input   66.30 | X-H torsion
[ 10763 10752 10751 10750 ] final -132.06 input  -60.55 | X-H torsion
[ 11005 11000 10999 10996 ] final -148.66 input  -57.11 | X-H torsion

> <Gold.Protein.ActiveResidues>
 VAL166  LYS551  ARG553  GLY616  TRP617  ASP618  TYR619  PRO620  LYS621  CYS622 
 ASP623  PHE694  ASN695  SER759  ASP760  ASP761  ALA762  ILE779  LEU786  VAL792 
 PHE793  MET794  SER795  GLU796  ALA797  LYS798  CYS799  TRP800  GLU811  SER814 

> <Gold.Protein.RotatedAtoms>
  151.4656  133.3581  159.2815 H   0  0  0  0  0  0  0  0  0  0  0  0  # atno 6907 bound_to 6896
  150.8995  134.8408  159.7361 H   0  0  0  0  0  0  0  0  0  0  0  0  # atno 6908 bound_to 6896
  152.4871  134.4575  159.9646 H   0  0  0  0  0  0  0  0  0  0  0  0  # atno 6909 bound_to 6896
  145.5659  140.9474  143.1422 H   0  0  0  0  0  0  0  0  0  0  0  0  # atno 7974 bound_to 7965
  155.9326  140.3414  155.6261 H   0  0  0  0  0  0  0  0  0  0  0  0  # atno 8008 bound_to 7997
  155.7139  140.0775  157.2378 H   0  0  0  0  0  0  0  0  0  0  0  0  # atno 8009 bound_to 7997
  154.4088  140.1618  156.2314 H   0  0  0  0  0  0  0  0  0  0  0  0  # atno 8010 bound_to 7997
  140.5479  143.2312  151.6968 H   0  0  0  0  0  0  0  0  0  0  0  0  # atno 10167 bound_to 10162
  156.5612  130.4726  149.6406 H   0  0  0  0  0  0  0  0  0  0  0  0  # atno 10718 bound_to 10713
  154.8746  135.3810  154.4348 H   0  0  0  0  0  0  0  0  0  0  0  0  # atno 10763 bound_to 10752
  153.5039  135.7030  153.5822 H   0  0  0  0  0  0  0  0  0  0  0  0  # atno 10764 bound_to 10752
  153.4141  135.3917  155.2036 H   0  0  0  0  0  0  0  0  0  0  0  0  # atno 10765 bound_to 10752
  140.7589  134.3321  157.5107 H   0  0  0  0  0  0  0  0  0  0  0  0  # atno 11005 bound_to 11000
  144.7460  139.7318  143.7292 LP  0  0  0  0  0  0  0  0  0  0  0  0  # atno 17320 bound_to 7965
  146.1818  139.5014  142.9861 LP  0  0  0  0  0  0  0  0  0  0  0  0  # atno 17321 bound_to 7965
  139.5015  144.3866  152.0322 LP  0  0  0  0  0  0  0  0  0  0  0  0  # atno 17342 bound_to 10162
  140.2980  144.3679  150.6068 LP  0  0  0  0  0  0  0  0  0  0  0  0  # atno 17343 bound_to 10162
  156.2797  130.7064  151.1885 LP  0  0  0  0  0  0  0  0  0  0  0  0  # atno 17370 bound_to 10713
  157.7368  131.0558  150.5392 LP  0  0  0  0  0  0  0  0  0  0  0  0  # atno 17371 bound_to 10713
  139.8774  134.9189  156.3214 LP  0  0  0  0  0  0  0  0  0  0  0  0  # atno 17394 bound_to 11000
  140.9682  133.7344  156.0496 LP  0  0  0  0  0  0  0  0  0  0  0  0  # atno 17395 bound_to 11000

$$$$
