AV-unprocessed.smi:1607|AV-procd|sdf|6466|dock9
  -GOLD-   22720 7123D 1   1.00000     0.00000
 Structure written by MMmdl.
 39 40  0  0  0  0  0  0  0  0  2 V2000
  145.9836  133.8696  154.7316 C   0  0  0  0  0  0  0  0  0  0  0  0
  146.2720  134.4497  153.3397 C   0  0  1  0  0  0  0  0  0  0  0  0
  145.4761  133.7134  152.2492 C   0  0  0  0  0  0  0  0  0  0  0  0
  145.7635  134.3298  150.8748 C   0  0  0  0  0  0  0  0  0  0  0  0
  145.4846  135.8408  150.8807 C   0  0  0  0  0  0  0  0  0  0  0  0
  146.2683  136.5275  151.9402 N   0  3  1  0  0  0  0  0  0  0  0  0
  146.1180  138.0037  151.8785 C   0  0  0  0  0  0  0  0  0  0  0  0
  146.8671  138.7191  153.0149 C   0  0  0  0  0  0  0  0  0  0  0  0
  148.2951  138.4441  152.9369 N   0  0  0  0  0  0  0  0  0  0  0  0
  149.2027  138.9000  153.8143 C   0  0  0  0  0  0  0  0  0  0  0  0
  148.9132  139.6236  154.7663 O   0  0  0  0  0  0  0  0  0  0  0  0
  150.6593  138.4881  153.5838 C   0  0  0  0  0  0  0  0  0  0  0  0
  151.5617  139.1615  154.5007 N   0  0  0  0  0  0  0  0  0  0  0  0
  152.4699  138.6772  155.3502 C   0  0  0  0  0  0  0  0  0  0  0  0
  153.0806  139.6441  156.0175 N   0  0  0  0  0  0  0  0  0  0  0  0
  152.4903  140.7927  155.5177 N   0  0  0  0  0  0  0  0  0  0  0  0
  151.5899  140.5131  154.6156 N   0  0  0  0  0  0  0  0  0  0  0  0
  145.9783  135.9628  153.2862 C   0  0  0  0  0  0  0  0  0  0  0  0
  144.9327  133.9838  155.0001 H   0  0  0  0  0  0  0  0  0  0  0  0
  146.5788  134.3685  155.4969 H   0  0  0  0  0  0  0  0  0  0  0  0
  146.2229  132.8064  154.7710 H   0  0  0  0  0  0  0  0  0  0  0  0
  147.3346  134.3055  153.1382 H   0  0  0  0  0  0  0  0  0  0  0  0
  145.7342  132.6538  152.2416 H   0  0  0  0  0  0  0  0  0  0  0  0
  144.4077  133.7732  152.4622 H   0  0  0  0  0  0  0  0  0  0  0  0
  146.8040  134.1494  150.6014 H   0  0  0  0  0  0  0  0  0  0  0  0
  145.1545  133.8414  150.1134 H   0  0  0  0  0  0  0  0  0  0  0  0
  145.7420  136.2525  149.9040 H   0  0  0  0  0  0  0  0  0  0  0  0
  144.4205  136.0279  151.0340 H   0  0  0  0  0  0  0  0  0  0  0  0
  146.5231  138.3650  150.9318 H   0  0  0  0  0  0  0  0  0  0  0  0
  145.0594  138.2684  151.8812 H   0  0  0  0  0  0  0  0  0  0  0  0
  146.7257  139.7987  152.9660 H   0  0  0  0  0  0  0  0  0  0  0  0
  146.4793  138.3854  153.9790 H   0  0  0  0  0  0  0  0  0  0  0  0
  148.6139  137.8605  152.1768 H   0  0  0  0  0  0  0  0  0  0  0  0
  150.7597  137.4099  153.7143 H   0  0  0  0  0  0  0  0  0  0  0  0
  150.9595  138.7192  152.5606 H   0  0  0  0  0  0  0  0  0  0  0  0
  152.6780  137.6258  155.4827 H   0  0  0  0  0  0  0  0  0  0  0  0
  144.9348  136.1542  153.5427 H   0  0  0  0  0  0  0  0  0  0  0  0
  146.5829  136.4645  154.0409 H   0  0  0  0  0  0  0  0  0  0  0  0
  147.2389  136.3309  151.7411 H   0  0  0  0  0  0  0  0  0  0  0  0
  1  2  1  0  0  0  0
  1 19  1  0  0  0  0
  1 20  1  0  0  0  0
  1 21  1  0  0  0  0
  2 18  1  0  0  0  0
  2  3  1  0  0  0  0
  2 22  1  0  0  0  0
  3  4  1  0  0  0  0
  3 23  1  0  0  0  0
  3 24  1  0  0  0  0
  4  5  1  0  0  0  0
  4 25  1  0  0  0  0
  4 26  1  0  0  0  0
  5  6  1  0  0  0  0
  5 27  1  0  0  0  0
  5 28  1  0  0  0  0
  6  7  1  0  0  0  0
  6 18  1  0  0  0  0
  6 39  1  0  0  0  0
  7  8  1  0  0  0  0
  7 29  1  0  0  0  0
  7 30  1  0  0  0  0
  8  9  1  0  0  0  0
  8 31  1  0  0  0  0
  8 32  1  0  0  0  0
  9 10  1  0  0  0  0
  9 33  1  0  0  0  0
 10 11  2  0  0  0  0
 10 12  1  0  0  0  0
 12 13  1  0  0  0  0
 12 34  1  0  0  0  0
 12 35  1  0  0  0  0
 13 17  1  0  0  0  0
 13 14  1  0  0  0  0
 14 15  2  0  0  0  0
 14 36  1  0  0  0  0
 15 16  1  0  0  0  0
 16 17  2  0  0  0  0
 18 37  1  0  0  0  0
 18 38  1  0  0  0  0
M  CHG  1   6   1
M  END
> <s_m_source_file>
AV-unprocessed.smi

> <i_m_source_file_index>
1607

> <i_lp_mmshare_version>
43012

> <i_f3d_flags>
0

> <s_epik_input>
W0NIM11bQ0BASF0xW0NIMl1bQ0gyXVtDSDJdTihbQ0gyXTEpW0NIMl1bQ0gyXVtOSF1DKD1PKVtDSDJdbjJbY0hdbm5uMg==

> <s_epik_cmdline>
J2VwaWtfcHl0aG9uJywgJy1waCcsICc3LjAnLCAnLXRuJywgJzgnLCAnLW1hJywgJzIwMCcsICctbWV0YWxfYmluZGluZycsICctaW1hZScsICc8aW5maWxlLm1hZT4nLCAnLW9tYWUnLCAnPG91dGZpbGUubWFlPic=

> <r_lp_tautomer_probability>
1

> <r_epik_Ionization_Penalty>
0.00268321

> <r_epik_Ionization_Penalty_Charging>
0.00267875

> <r_epik_Ionization_Penalty_Neutral>
4.46125e-06

> <r_epik_State_Penalty>
0.00186642

> <r_epik_Charging_Adjusted_Penalty>
0.00454517

> <i_epik_Tot_Q>
1

> <i_epik_Tot_abs_Q>
1

> <r_epik_Metal_State_Penalty>
-0

> <b_epik_Metal_Only>
0

> <s_lp_Force_Field>
OPLS_2005

> <r_lp_Energy>
19.4205

> <b_lp_Chiralities_Consistent>
1

> <s_lp_Variant>
AV-unprocessed.smi:1607-4

> <Gold.Version>
5.8.1

> <Gold.Id.Protein>
6NUR|6NUR_protein|mol2

> <Gold.PLP.Fitness>
42.7780

> <Gold.PLP.PLP>
-28.1748

> <Gold.PLP.part.hbond>
-5.7508

> <Gold.PLP.part.metal>
0.0000

> <Gold.PLP.part.buried>
0.5981

> <Gold.PLP.part.nonpolar>
-22.5763

> <Gold.PLP.part.repulsive>
0.2099

> <Gold.PLP.ligand.clash>
0.0000

> <Gold.PLP.ligand.torsion>
0.0993

> <Gold.PLP.Chemscore.Hbond>
4.9200

> <Gold.PLP.Chemscore.CHOScore>
0.0000

> <Gold.PLP.Chemscore.Metal>
0.0000

> <Gold.Chemscore.Hbonds>
donor molecule, donor type, donor heavy atom, donor atom, acceptor molecule, acceptor atom, score
      L1  H     6    39       P1  7948  2.00
      L1  H     9    33       P1  7948  0.83
      P1  H  7989  7998       L1    17  0.08
      P1  H  7997  8009       L1    15  0.58

> <Gold.PLP.Chemscore.Internal.Correction>
0.0418

> <Gold.Rescore>
     Score         DG    S(hbond)    S(metal)    S(lipo)     H(rot)  DE(clash)    DE(int)     intcor
     11.47     -13.22       2.77        0.00      45.98       2.69       0.02       1.73       ----

> <Gold.Chemscore.Fitness>
11.4656

> <Gold.Chemscore.DG>
-13.2159

> <Gold.Chemscore.ZeroCoef>
-5.4800

> <Gold.Chemscore.Hbond>
2.7696

> <Gold.Chemscore.Metal>
0.0000

> <Gold.Chemscore.Lipo>
45.9821

> <Gold.Chemscore.Internal_Hbond>
0.0000

> <Gold.Chemscore.DEClash>
0.0186

> <Gold.Chemscore.DEInternal>
1.7316

> <Gold.Chemscore.Rot>
2.6932

> <Gold.Chemscore.Internal.Correction>
   9.000000E+99

> <Gold.Chemscore.Hbonds>
donor molecule, donor type, donor heavy atom, donor atom, acceptor molecule, acceptor atom, score
      L1  H     6    39       P1  7948  1.00
      L1  H     9    33       P1  7948  0.81
      P1  H  7989  7998       L1    17  0.05
      P1  H  7997  8009       L1    15  0.38

> <Gold.Chemscore.Hbond.Weighted>
-9.2505

> <Gold.Chemscore.Metal.Weighted>
-0.0000

> <Gold.Chemscore.Lipo.Weighted>
-5.3799

> <Gold.Chemscore.Internal_Hbond.Weighted>
0.0000

> <Gold.Chemscore.DEClash.Weighted>
0.0186

> <Gold.Chemscore.DEInternal.Weighted>
1.7316

> <Gold.Chemscore.Rot.Weighted>
6.8945

> <Gold.Chemscore.Internal.Correction.Weighted>
   9.000000E+99

> <Gold.Protein.RotatedTorsions>
[ 6907 6896 6895 6894 ] final  128.27 input  -60.11 | X-H torsion
[ 7974 7965 7964 7962 ] final   63.44 input  175.53 | X-H torsion
[ 8008 7997 7996 7995 ] final  168.55 input   59.86 | X-H torsion
[ 10167 10162 10161 10158 ] final  124.18 input  -65.29 | X-H torsion
[ 10718 10713 10712 10709 ] final -132.99 input   66.30 | X-H torsion
[ 10763 10752 10751 10750 ] final  -40.75 input  -60.55 | X-H torsion
[ 11005 11000 10999 10996 ] final  -66.78 input  -57.11 | X-H torsion

> <Gold.Protein.ActiveResidues>
 VAL166  LYS551  ARG553  GLY616  TRP617  ASP618  TYR619  PRO620  LYS621  CYS622 
 ASP623  PHE694  ASN695  SER759  ASP760  ASP761  ALA762  ILE779  LEU786  VAL792 
 PHE793  MET794  SER795  GLU796  ALA797  LYS798  CYS799  TRP800  GLU811  SER814 

> <Gold.Protein.RotatedAtoms>
  152.3735  133.6450  159.6104 H   0  0  0  0  0  0  0  0  0  0  0  0  # atno 6907 bound_to 6896
  150.7686  133.9232  159.3413 H   0  0  0  0  0  0  0  0  0  0  0  0  # atno 6908 bound_to 6896
  151.7051  135.0924  160.0309 H   0  0  0  0  0  0  0  0  0  0  0  0  # atno 6909 bound_to 6896
  145.8618  139.3319  143.0814 H   0  0  0  0  0  0  0  0  0  0  0  0  # atno 7974 bound_to 7965
  156.1536  140.1587  156.8729 H   0  0  0  0  0  0  0  0  0  0  0  0  # atno 8008 bound_to 7997
  154.5094  140.0805  156.7996 H   0  0  0  0  0  0  0  0  0  0  0  0  # atno 8009 bound_to 7997
  155.3847  140.3407  155.4250 H   0  0  0  0  0  0  0  0  0  0  0  0  # atno 8010 bound_to 7997
  139.5756  144.6962  151.3661 H   0  0  0  0  0  0  0  0  0  0  0  0  # atno 10167 bound_to 10162
  156.2403  130.7091  151.0950 H   0  0  0  0  0  0  0  0  0  0  0  0  # atno 10718 bound_to 10713
  153.9511  135.6750  153.4744 H   0  0  0  0  0  0  0  0  0  0  0  0  # atno 10763 bound_to 10752
  153.0884  135.4887  154.8639 H   0  0  0  0  0  0  0  0  0  0  0  0  # atno 10764 bound_to 10752
  154.7325  135.3141  154.8826 H   0  0  0  0  0  0  0  0  0  0  0  0  # atno 10765 bound_to 10752
  141.1491  133.6706  156.6192 H   0  0  0  0  0  0  0  0  0  0  0  0  # atno 11005 bound_to 11000
  145.9239  140.9096  143.0391 LP  0  0  0  0  0  0  0  0  0  0  0  0  # atno 17320 bound_to 7965
  144.6726  140.1327  143.7442 LP  0  0  0  0  0  0  0  0  0  0  0  0  # atno 17321 bound_to 7965
  140.7039  143.7563  150.7449 LP  0  0  0  0  0  0  0  0  0  0  0  0  # atno 17342 bound_to 10162
  140.1082  143.4724  152.2386 LP  0  0  0  0  0  0  0  0  0  0  0  0  # atno 17343 bound_to 10162
  157.7172  131.0703  150.6280 LP  0  0  0  0  0  0  0  0  0  0  0  0  # atno 17370 bound_to 10713
  156.6353  130.4443  149.5772 LP  0  0  0  0  0  0  0  0  0  0  0  0  # atno 17371 bound_to 10713
  140.3554  134.7733  157.4496 LP  0  0  0  0  0  0  0  0  0  0  0  0  # atno 17394 bound_to 11000
  140.0827  134.5709  155.8524 LP  0  0  0  0  0  0  0  0  0  0  0  0  # atno 17395 bound_to 11000

$$$$
