AV-unprocessed.smi:2459|AV-procd|sdf|9712|dock3
  -GOLD-   2272013353D 1   1.00000     0.00000
 Structure written by MMmdl.
 47 48  0  0  0  0  0  0  0  0  2 V2000
  138.5838  139.8390  156.5626 C   0  0  0  0  0  0  0  0  0  0  0  0
  139.2463  138.6799  156.0612 O   0  0  0  0  0  0  0  0  0  0  0  0
  139.3955  138.5355  154.6429 C   0  0  0  0  0  0  0  0  0  0  0  0
  137.9522  138.4795  154.1054 C   0  0  0  0  0  0  0  0  0  0  0  0
  140.1001  139.7844  154.0564 C   0  0  0  0  0  0  0  0  0  0  0  0
  140.1163  137.2009  154.3206 C   0  0  0  0  0  0  0  0  0  0  0  0
  139.6296  136.1469  154.7296 O   0  0  0  0  0  0  0  0  0  0  0  0
  141.2563  137.2707  153.6050 N   0  0  0  0  0  0  0  0  0  0  0  0
  142.1265  136.2250  153.1922 C   0  0  0  0  0  0  0  0  0  0  0  0
  141.9796  134.8700  153.5720 C   0  0  0  0  0  0  0  0  0  0  0  0
  142.8723  133.9511  153.1469 N   0  3  0  0  0  0  0  0  0  0  0  0
  143.9373  134.2403  152.3603 C   0  0  0  0  0  0  0  0  0  0  0  0
  144.8152  133.2003  152.0010 N   0  0  0  0  0  0  0  0  0  0  0  0
  145.5976  132.6908  153.1255 C   0  0  0  0  0  0  0  0  0  0  0  0
  146.7534  131.8032  152.6324 C   0  0  0  0  0  0  0  0  0  0  0  0
  146.2351  130.6812  151.7189 C   0  0  0  0  0  0  0  0  0  0  0  0
  145.4014  131.2728  150.5711 C   0  0  0  0  0  0  0  0  0  0  0  0
  144.2755  132.1687  151.1152 C   0  0  0  0  0  0  0  0  0  0  0  0
  144.1364  135.5841  151.9498 C   0  0  0  0  0  0  0  0  0  0  0  0
  145.2937  135.9867  151.0507 C   0  0  0  0  0  0  0  0  0  0  0  0
  143.2243  136.5737  152.3780 C   0  0  0  0  0  0  0  0  0  0  0  0
  138.5584  139.7860  157.6509 H   0  0  0  0  0  0  0  0  0  0  0  0
  137.5516  139.9003  156.2199 H   0  0  0  0  0  0  0  0  0  0  0  0
  139.0975  140.7636  156.2989 H   0  0  0  0  0  0  0  0  0  0  0  0
  137.9338  138.3481  153.0227 H   0  0  0  0  0  0  0  0  0  0  0  0
  137.4137  139.4003  154.3321 H   0  0  0  0  0  0  0  0  0  0  0  0
  137.3841  137.6604  154.5485 H   0  0  0  0  0  0  0  0  0  0  0  0
  140.1030  139.7608  152.9658 H   0  0  0  0  0  0  0  0  0  0  0  0
  141.1362  139.8780  154.3818 H   0  0  0  0  0  0  0  0  0  0  0  0
  139.5851  140.6971  154.3573 H   0  0  0  0  0  0  0  0  0  0  0  0
  141.5096  138.1942  153.2846 H   0  0  0  0  0  0  0  0  0  0  0  0
  141.2008  134.4787  154.2087 H   0  0  0  0  0  0  0  0  0  0  0  0
  145.9950  133.5097  153.7245 H   0  0  0  0  0  0  0  0  0  0  0  0
  144.9407  132.1150  153.7790 H   0  0  0  0  0  0  0  0  0  0  0  0
  147.4751  132.4137  152.0879 H   0  0  0  0  0  0  0  0  0  0  0  0
  147.2867  131.3776  153.4829 H   0  0  0  0  0  0  0  0  0  0  0  0
  147.0693  130.1024  151.3213 H   0  0  0  0  0  0  0  0  0  0  0  0
  145.6227  129.9893  152.2985 H   0  0  0  0  0  0  0  0  0  0  0  0
  146.0473  131.8566  149.9138 H   0  0  0  0  0  0  0  0  0  0  0  0
  144.9812  130.4725  149.9615 H   0  0  0  0  0  0  0  0  0  0  0  0
  143.5540  131.5598  151.6619 H   0  0  0  0  0  0  0  0  0  0  0  0
  143.7421  132.6351  150.2858 H   0  0  0  0  0  0  0  0  0  0  0  0
  145.0589  136.8984  150.5008 H   0  0  0  0  0  0  0  0  0  0  0  0
  145.5177  135.2108  150.3183 H   0  0  0  0  0  0  0  0  0  0  0  0
  146.1890  136.1728  151.6437 H   0  0  0  0  0  0  0  0  0  0  0  0
  143.3650  137.6020  152.0767 H   0  0  0  0  0  0  0  0  0  0  0  0
  142.7414  132.9840  153.4443 H   0  0  0  0  0  0  0  0  0  0  0  0
  1  2  1  0  0  0  0
  1 22  1  0  0  0  0
  1 23  1  0  0  0  0
  1 24  1  0  0  0  0
  2  3  1  0  0  0  0
  3  4  1  0  0  0  0
  3  5  1  0  0  0  0
  3  6  1  0  0  0  0
  4 25  1  0  0  0  0
  4 26  1  0  0  0  0
  4 27  1  0  0  0  0
  5 28  1  0  0  0  0
  5 29  1  0  0  0  0
  5 30  1  0  0  0  0
  6  7  2  0  0  0  0
  6  8  1  0  0  0  0
  8  9  1  0  0  0  0
  8 31  1  0  0  0  0
  9 21  1  0  0  0  0
  9 10  2  0  0  0  0
 10 11  1  0  0  0  0
 10 32  1  0  0  0  0
 11 12  2  0  0  0  0
 11 47  1  0  0  0  0
 12 13  1  0  0  0  0
 12 19  1  0  0  0  0
 13 18  1  0  0  0  0
 13 14  1  0  0  0  0
 14 15  1  0  0  0  0
 14 33  1  0  0  0  0
 14 34  1  0  0  0  0
 15 16  1  0  0  0  0
 15 35  1  0  0  0  0
 15 36  1  0  0  0  0
 16 17  1  0  0  0  0
 16 37  1  0  0  0  0
 16 38  1  0  0  0  0
 17 18  1  0  0  0  0
 17 39  1  0  0  0  0
 17 40  1  0  0  0  0
 18 41  1  0  0  0  0
 18 42  1  0  0  0  0
 19 20  1  0  0  0  0
 19 21  2  0  0  0  0
 20 43  1  0  0  0  0
 20 44  1  0  0  0  0
 20 45  1  0  0  0  0
 21 46  1  0  0  0  0
M  CHG  1  11   1
M  END
> <s_m_source_file>
AV-unprocessed.smi

> <i_m_source_file_index>
2459

> <i_lp_mmshare_version>
43012

> <i_f3d_flags>
0

> <s_epik_input>
W0NIM11PQyhbQ0gzXSkoW0NIM10pQyg9TylbTkhdYzFbY0hdbmMoYyhbQ0gzXSlbY0hdMSlOMltDSDJdW0NIMl1bQ0gyXVtDSDJdW0NIMl0y

> <s_epik_cmdline>
J2VwaWtfcHl0aG9uJywgJy1waCcsICc3LjAnLCAnLXRuJywgJzgnLCAnLW1hJywgJzIwMCcsICctbWV0YWxfYmluZGluZycsICctaW1hZScsICc8aW5maWxlLm1hZT4nLCAnLW9tYWUnLCAnPG91dGZpbGUubWFlPic=

> <r_lp_tautomer_probability>
0.999994

> <r_epik_Ionization_Penalty>
1.22605

> <r_epik_Ionization_Penalty_Charging>
1.22604

> <r_epik_Ionization_Penalty_Neutral>
3.07462e-06

> <r_epik_State_Penalty>
0.10642

> <r_epik_Charging_Adjusted_Penalty>
1.33246

> <i_epik_Tot_Q>
1

> <i_epik_Tot_abs_Q>
1

> <r_epik_Metal_State_Penalty>
0.12082

> <b_epik_Metal_Only>
0

> <s_lp_Force_Field>
OPLS_2005

> <r_lp_Energy>
38.0416

> <b_lp_Chiralities_Consistent>
1

> <s_lp_Variant>
AV-unprocessed.smi:2459-1

> <Gold.Version>
5.8.1

> <Gold.Id.Protein>
6NUR|6NUR_protein|mol2

> <Gold.PLP.Fitness>
41.1714

> <Gold.PLP.PLP>
-32.2339

> <Gold.PLP.part.hbond>
-2.0000

> <Gold.PLP.part.metal>
0.0000

> <Gold.PLP.part.buried>
-5.5060

> <Gold.PLP.part.nonpolar>
-25.2016

> <Gold.PLP.part.repulsive>
0.2023

> <Gold.PLP.ligand.clash>
0.0000

> <Gold.PLP.ligand.torsion>
0.1592

> <Gold.PLP.Chemscore.Hbond>
2.9840

> <Gold.PLP.Chemscore.CHOScore>
0.0000

> <Gold.PLP.Chemscore.Metal>
0.0000

> <Gold.Chemscore.Hbonds>
donor molecule, donor type, donor heavy atom, donor atom, acceptor molecule, acceptor atom, score
      L1  H    11    47       P1 10957  2.00
      P1  H 11000 11005       L1     7  1.00

> <Gold.PLP.Chemscore.Internal.Correction>
0.3039

> <Gold.Rescore>
     Score         DG    S(hbond)    S(metal)    S(lipo)     H(rot)  DE(clash)    DE(int)     intcor
     16.34     -17.74       1.93        0.00      78.98       1.34       0.00       1.40       ----

> <Gold.Chemscore.Fitness>
16.3383

> <Gold.Chemscore.DG>
-17.7355

> <Gold.Chemscore.ZeroCoef>
-5.4800

> <Gold.Chemscore.Hbond>
1.9310

> <Gold.Chemscore.Metal>
0.0000

> <Gold.Chemscore.Lipo>
78.9776

> <Gold.Chemscore.Internal_Hbond>
0.0000

> <Gold.Chemscore.DEClash>
0.0004

> <Gold.Chemscore.DEInternal>
1.3968

> <Gold.Chemscore.Rot>
1.3416

> <Gold.Chemscore.Internal.Correction>
   9.000000E+99

> <Gold.Chemscore.Hbonds>
donor molecule, donor type, donor heavy atom, donor atom, acceptor molecule, acceptor atom, score
      L1  H    11    47       P1 10957  0.81
      P1  H 11000 11005       L1     7  0.96

> <Gold.Chemscore.Hbond.Weighted>
-6.4497

> <Gold.Chemscore.Metal.Weighted>
-0.0000

> <Gold.Chemscore.Lipo.Weighted>
-9.2404

> <Gold.Chemscore.Internal_Hbond.Weighted>
0.0000

> <Gold.Chemscore.DEClash.Weighted>
0.0004

> <Gold.Chemscore.DEInternal.Weighted>
1.3968

> <Gold.Chemscore.Rot.Weighted>
3.4346

> <Gold.Chemscore.Internal.Correction.Weighted>
   9.000000E+99

> <Gold.Protein.RotatedTorsions>
[ 6907 6896 6895 6894 ] final   86.52 input  -60.11 | X-H torsion
[ 7974 7965 7964 7962 ] final  -80.73 input  175.53 | X-H torsion
[ 8008 7997 7996 7995 ] final  -36.60 input   59.86 | X-H torsion
[ 10167 10162 10161 10158 ] final -157.71 input  -65.29 | X-H torsion
[ 10718 10713 10712 10709 ] final   72.91 input   66.30 | X-H torsion
[ 10763 10752 10751 10750 ] final  -84.69 input  -60.55 | X-H torsion
[ 11005 11000 10999 10996 ] final   85.89 input  -57.11 | X-H torsion

> <Gold.Protein.ActiveResidues>
 VAL166  LYS551  ARG553  GLY616  TRP617  ASP618  TYR619  PRO620  LYS621  CYS622 
 ASP623  PHE694  ASN695  SER759  ASP760  ASP761  ALA762  ILE779  LEU786  VAL792 
 PHE793  MET794  SER795  GLU796  ALA797  LYS798  CYS799  TRP800  GLU811  SER814 

> <Gold.Protein.RotatedAtoms>
  152.5396  134.2418  159.8864 H   0  0  0  0  0  0  0  0  0  0  0  0  # atno 6907 bound_to 6896
  151.2385  133.4405  159.2614 H   0  0  0  0  0  0  0  0  0  0  0  0  # atno 6908 bound_to 6896
  151.0648  134.9774  159.8335 H   0  0  0  0  0  0  0  0  0  0  0  0  # atno 6909 bound_to 6896
  145.5560  140.9489  143.1473 H   0  0  0  0  0  0  0  0  0  0  0  0  # atno 7974 bound_to 7965
  154.4070  140.1626  156.2400 H   0  0  0  0  0  0  0  0  0  0  0  0  # atno 8008 bound_to 7997
  155.9209  140.3421  155.6150 H   0  0  0  0  0  0  0  0  0  0  0  0  # atno 8009 bound_to 7997
  155.7223  140.0770  157.2316 H   0  0  0  0  0  0  0  0  0  0  0  0  # atno 8010 bound_to 7997
  139.6749  143.9681  152.2304 H   0  0  0  0  0  0  0  0  0  0  0  0  # atno 10167 bound_to 10162
  157.6523  130.9602  150.0995 H   0  0  0  0  0  0  0  0  0  0  0  0  # atno 10718 bound_to 10713
  154.6025  135.5511  153.7388 H   0  0  0  0  0  0  0  0  0  0  0  0  # atno 10763 bound_to 10752
  153.0160  135.6370  154.1695 H   0  0  0  0  0  0  0  0  0  0  0  0  # atno 10764 bound_to 10752
  154.1634  135.2896  155.3082 H   0  0  0  0  0  0  0  0  0  0  0  0  # atno 10765 bound_to 10752
  139.8959  134.8317  156.2644 H   0  0  0  0  0  0  0  0  0  0  0  0  # atno 11005 bound_to 11000
  144.7506  139.7204  143.7274 LP  0  0  0  0  0  0  0  0  0  0  0  0  # atno 17320 bound_to 7965
  146.1884  139.5111  142.9821 LP  0  0  0  0  0  0  0  0  0  0  0  0  # atno 17321 bound_to 7965
  139.9455  144.6654  150.8223 LP  0  0  0  0  0  0  0  0  0  0  0  0  # atno 17342 bound_to 10162
  140.7631  143.3216  151.2609 LP  0  0  0  0  0  0  0  0  0  0  0  0  # atno 17343 bound_to 10162
  156.1922  130.3655  149.8895 LP  0  0  0  0  0  0  0  0  0  0  0  0  # atno 17370 bound_to 10713
  156.6821  130.8862  151.3577 LP  0  0  0  0  0  0  0  0  0  0  0  0  # atno 17371 bound_to 10713
  141.0141  133.7078  156.1160 LP  0  0  0  0  0  0  0  0  0  0  0  0  # atno 17394 bound_to 11000
  140.7326  134.4238  157.5564 LP  0  0  0  0  0  0  0  0  0  0  0  0  # atno 17395 bound_to 11000

$$$$
