AV-unprocessed.smi:1261|AV-procd|sdf|5301|dock10
  -GOLD-   22720 4423D 1   1.00000     0.00000
 Structure written by MMmdl.
 49 50  0  0  0  0  0  0  0  0  3 V2000
  145.8055  131.6166  149.6135 C   0  0  0  0  0  0  0  0  0  0  0  0
  145.2869  131.8440  151.0443 C   0  0  2  0  0  0  0  0  0  0  0  0
  144.3706  133.0760  151.1628 C   0  0  0  0  0  0  0  0  0  0  0  0
  145.1704  134.3894  151.0964 C   0  0  1  0  0  0  0  0  0  0  0  0
  144.2572  135.6099  151.2819 C   0  0  0  0  0  0  0  0  0  0  0  0
  146.3073  134.3742  152.1362 C   0  0  0  0  0  0  0  0  0  0  0  0
  147.1920  133.1939  151.9578 N   0  3  1  0  0  0  0  0  0  0  0  0
  148.3838  133.2473  152.8422 C   0  0  0  0  0  0  0  0  0  0  0  0
  148.0290  133.6409  154.2861 C   0  0  0  0  0  0  0  0  0  0  0  0
  149.2542  134.1385  155.0700 C   0  0  0  0  0  0  0  0  0  0  0  0
  149.7599  135.3966  154.5356 N   0  0  0  0  0  0  0  0  0  0  0  0
  150.8125  136.0740  155.0185 C   0  0  0  0  0  0  0  0  0  0  0  0
  151.4899  135.6859  155.9707 O   0  0  0  0  0  0  0  0  0  0  0  0
  151.1612  137.3833  154.3031 C   0  0  0  0  0  0  0  0  0  0  0  0
  151.0795  138.5380  155.2059 N   0  0  0  0  0  0  0  0  0  0  0  0
  149.8925  138.5320  156.0576 N   0  5  0  0  0  0  0  0  0  0  0  0
  149.7167  139.5367  156.9563 C   0  0  0  0  0  0  0  0  0  0  0  0
  148.7510  139.5911  157.7142 O   0  0  0  0  0  0  0  0  0  0  0  0
  150.7199  140.5869  157.0133 C   0  0  0  0  0  0  0  0  0  0  0  0
  151.8003  140.5724  156.2080 C   0  0  0  0  0  0  0  0  0  0  0  0
  152.0353  139.5101  155.2373 C   0  0  0  0  0  0  0  0  0  0  0  0
  153.0224  139.4896  154.5021 O   0  0  0  0  0  0  0  0  0  0  0  0
  146.4323  131.9197  152.0732 C   0  0  0  0  0  0  0  0  0  0  0  0
  146.4583  132.4238  149.2815 H   0  0  0  0  0  0  0  0  0  0  0  0
  144.9802  131.5440  148.9046 H   0  0  0  0  0  0  0  0  0  0  0  0
  146.3736  130.6882  149.5486 H   0  0  0  0  0  0  0  0  0  0  0  0
  144.6836  130.9694  151.2920 H   0  0  0  0  0  0  0  0  0  0  0  0
  143.6078  133.0551  150.3836 H   0  0  0  0  0  0  0  0  0  0  0  0
  143.8352  133.0297  152.1123 H   0  0  0  0  0  0  0  0  0  0  0  0
  145.6186  134.4708  150.1053 H   0  0  0  0  0  0  0  0  0  0  0  0
  143.7752  135.6010  152.2601 H   0  0  0  0  0  0  0  0  0  0  0  0
  143.4725  135.6321  150.5251 H   0  0  0  0  0  0  0  0  0  0  0  0
  144.8211  136.5393  151.1974 H   0  0  0  0  0  0  0  0  0  0  0  0
  146.8942  135.2880  152.0341 H   0  0  0  0  0  0  0  0  0  0  0  0
  145.8988  134.3719  153.1484 H   0  0  0  0  0  0  0  0  0  0  0  0
  148.8517  132.2622  152.8715 H   0  0  0  0  0  0  0  0  0  0  0  0
  149.1272  133.9284  152.4250 H   0  0  0  0  0  0  0  0  0  0  0  0
  147.2662  134.4192  154.2875 H   0  0  0  0  0  0  0  0  0  0  0  0
  147.5955  132.7825  154.8012 H   0  0  0  0  0  0  0  0  0  0  0  0
  148.9886  134.3001  156.1150 H   0  0  0  0  0  0  0  0  0  0  0  0
  150.0458  133.3873  155.0637 H   0  0  0  0  0  0  0  0  0  0  0  0
  149.2567  135.8049  153.7604 H   0  0  0  0  0  0  0  0  0  0  0  0
  152.1625  137.3032  153.8764 H   0  0  0  0  0  0  0  0  0  0  0  0
  150.4941  137.5166  153.4490 H   0  0  0  0  0  0  0  0  0  0  0  0
  150.5950  141.3978  157.7159 H   0  0  0  0  0  0  0  0  0  0  0  0
  152.5196  141.3742  156.2843 H   0  0  0  0  0  0  0  0  0  0  0  0
  146.0264  131.8389  153.0829 H   0  0  0  0  0  0  0  0  0  0  0  0
  147.0913  131.0629  151.9372 H   0  0  0  0  0  0  0  0  0  0  0  0
  147.5388  133.2447  151.0105 H   0  0  0  0  0  0  0  0  0  0  0  0
  1  2  1  0  0  0  0
  1 24  1  0  0  0  0
  1 25  1  0  0  0  0
  1 26  1  0  0  0  0
  2 23  1  0  0  0  0
  2  3  1  0  0  0  0
  2 27  1  0  0  0  0
  3  4  1  0  0  0  0
  3 28  1  0  0  0  0
  3 29  1  0  0  0  0
  4  5  1  0  0  0  0
  4  6  1  0  0  0  0
  4 30  1  0  0  0  0
  5 31  1  0  0  0  0
  5 32  1  0  0  0  0
  5 33  1  0  0  0  0
  6  7  1  0  0  0  0
  6 34  1  0  0  0  0
  6 35  1  0  0  0  0
  7  8  1  0  0  0  0
  7 23  1  0  0  0  0
  7 49  1  0  0  0  0
  8  9  1  0  0  0  0
  8 36  1  0  0  0  0
  8 37  1  0  0  0  0
  9 10  1  0  0  0  0
  9 38  1  0  0  0  0
  9 39  1  0  0  0  0
 10 11  1  0  0  0  0
 10 40  1  0  0  0  0
 10 41  1  0  0  0  0
 11 12  1  0  0  0  0
 11 42  1  0  0  0  0
 12 13  2  0  0  0  0
 12 14  1  0  0  0  0
 14 43  1  0  0  0  0
 14 44  1  0  0  0  0
 14 15  1  0  0  0  0
 15 16  1  0  0  0  0
 15 21  1  0  0  0  0
 16 17  1  0  0  0  0
 17 18  2  0  0  0  0
 17 19  1  0  0  0  0
 19 45  1  0  0  0  0
 19 20  2  0  0  0  0
 20 46  1  0  0  0  0
 20 21  1  0  0  0  0
 21 22  2  0  0  0  0
 23 47  1  0  0  0  0
 23 48  1  0  0  0  0
M  CHG  1   7   1
M  CHG  1  16  -1
M  END
> <s_m_source_file>
AV-unprocessed.smi

> <i_m_source_file_index>
1261

> <i_lp_mmshare_version>
43012

> <i_f3d_flags>
0

> <s_epik_input>
W0NIM11bQ0BASF0xW0NIMl1bQ0BASF0oW0NIM10pW0NIMl1OKFtDSDJdMSlbQ0gyXVtDSDJdW0NIMl1bTkhdQyg9TylbQ0gyXW4yW25IXWMoPU8pW2NIXVtjSF1jMj1P

> <s_epik_cmdline>
J2VwaWtfcHl0aG9uJywgJy1waCcsICc3LjAnLCAnLXRuJywgJzgnLCAnLW1hJywgJzIwMCcsICctbWV0YWxfYmluZGluZycsICctaW1hZScsICc8aW5maWxlLm1hZT4nLCAnLW9tYWUnLCAnPG91dGZpbGUubWFlPic=

> <r_lp_tautomer_probability>
1

> <r_epik_Ionization_Penalty>
0.0955723

> <r_epik_Ionization_Penalty_Charging>
0.0955723

> <r_epik_Ionization_Penalty_Neutral>
2.68632e-08

> <r_epik_State_Penalty>
0.0334406

> <r_epik_Charging_Adjusted_Penalty>
0.129013

> <i_epik_Tot_Q>
0

> <i_epik_Tot_abs_Q>
2

> <r_epik_Metal_State_Penalty>
0.0334406

> <b_epik_Metal_Only>
0

> <s_lp_Force_Field>
OPLS_2005

> <r_lp_Energy>
33.9758

> <b_lp_Chiralities_Consistent>
1

> <s_lp_Variant>
AV-unprocessed.smi:1261-1

> <Gold.Version>
5.8.1

> <Gold.Id.Protein>
6NUR|6NUR_protein|mol2

> <Gold.PLP.Fitness>
49.3705

> <Gold.PLP.PLP>
-40.8980

> <Gold.PLP.part.hbond>
-4.2720

> <Gold.PLP.part.metal>
0.0000

> <Gold.PLP.part.buried>
-4.5966

> <Gold.PLP.part.nonpolar>
-32.2183

> <Gold.PLP.part.repulsive>
0.1326

> <Gold.PLP.ligand.clash>
0.0000

> <Gold.PLP.ligand.torsion>
0.4519

> <Gold.PLP.Chemscore.Hbond>
3.0960

> <Gold.PLP.Chemscore.CHOScore>
0.0000

> <Gold.PLP.Chemscore.Metal>
0.0000

> <Gold.Chemscore.Hbonds>
donor molecule, donor type, donor heavy atom, donor atom, acceptor molecule, acceptor atom, score
      L1  H    11    42       P1  7948  1.00
      P1  H  7997  8010       L1    22  0.83
      P1  H 10752 10765       L1    13  0.99

> <Gold.PLP.Chemscore.Internal.Correction>
0.0883

> <Gold.Rescore>
     Score         DG    S(hbond)    S(metal)    S(lipo)     H(rot)  DE(clash)    DE(int)     intcor
     16.49     -16.81       2.42        0.00      82.30       2.49       0.13       0.20       ----

> <Gold.Chemscore.Fitness>
16.4891

> <Gold.Chemscore.DG>
-16.8113

> <Gold.Chemscore.ZeroCoef>
-5.4800

> <Gold.Chemscore.Hbond>
2.4209

> <Gold.Chemscore.Metal>
0.0000

> <Gold.Chemscore.Lipo>
82.3039

> <Gold.Chemscore.Internal_Hbond>
0.0000

> <Gold.Chemscore.DEClash>
0.1268

> <Gold.Chemscore.DEInternal>
0.1954

> <Gold.Chemscore.Rot>
2.4938

> <Gold.Chemscore.Internal.Correction>
   9.000000E+99

> <Gold.Chemscore.Hbonds>
donor molecule, donor type, donor heavy atom, donor atom, acceptor molecule, acceptor atom, score
      L1  H    11    42       P1  7948  0.67
      P1  H  7997  8010       L1    22  0.25
      P1  H 10752 10765       L1    13  0.37

> <Gold.Chemscore.Hbond.Weighted>
-8.0858

> <Gold.Chemscore.Metal.Weighted>
-0.0000

> <Gold.Chemscore.Lipo.Weighted>
-9.6296

> <Gold.Chemscore.Internal_Hbond.Weighted>
0.0000

> <Gold.Chemscore.DEClash.Weighted>
0.1268

> <Gold.Chemscore.DEInternal.Weighted>
0.1954

> <Gold.Chemscore.Rot.Weighted>
6.3840

> <Gold.Chemscore.Internal.Correction.Weighted>
   9.000000E+99

> <Gold.Protein.RotatedTorsions>
[ 6907 6896 6895 6894 ] final   17.76 input  -60.11 | X-H torsion
[ 7974 7965 7964 7962 ] final    1.86 input  175.53 | X-H torsion
[ 8008 7997 7996 7995 ] final  109.86 input   59.86 | X-H torsion
[ 10167 10162 10161 10158 ] final -109.90 input  -65.29 | X-H torsion
[ 10718 10713 10712 10709 ] final -152.55 input   66.30 | X-H torsion
[ 10763 10752 10751 10750 ] final -138.75 input  -60.55 | X-H torsion
[ 11005 11000 10999 10996 ] final   30.72 input  -57.11 | X-H torsion

> <Gold.Protein.ActiveResidues>
 VAL166  LYS551  ARG553  GLY616  TRP617  ASP618  TYR619  PRO620  LYS621  CYS622 
 ASP623  PHE694  ASN695  SER759  ASP760  ASP761  ALA762  ILE779  LEU786  VAL792 
 PHE793  MET794  SER795  GLU796  ALA797  LYS798  CYS799  TRP800  GLU811  SER814 

> <Gold.Protein.RotatedAtoms>
  151.8547  135.0545  160.0462 H   0  0  0  0  0  0  0  0  0  0  0  0  # atno 6907 bound_to 6896
  152.2709  133.5377  159.5447 H   0  0  0  0  0  0  0  0  0  0  0  0  # atno 6908 bound_to 6896
  150.7151  134.0615  159.3875 H   0  0  0  0  0  0  0  0  0  0  0  0  # atno 6909 bound_to 6896
  146.2442  140.0923  142.8351 H   0  0  0  0  0  0  0  0  0  0  0  0  # atno 7974 bound_to 7965
  156.2011  140.3049  155.9528 H   0  0  0  0  0  0  0  0  0  0  0  0  # atno 8008 bound_to 7997
  155.2952  140.0444  157.3043 H   0  0  0  0  0  0  0  0  0  0  0  0  # atno 8009 bound_to 7997
  154.5571  140.2309  155.8401 H   0  0  0  0  0  0  0  0  0  0  0  0  # atno 8010 bound_to 7997
  140.1503  143.4205  152.1499 H   0  0  0  0  0  0  0  0  0  0  0  0  # atno 10167 bound_to 10162
  156.4739  130.8271  151.2500 H   0  0  0  0  0  0  0  0  0  0  0  0  # atno 10718 bound_to 10713
  154.8628  135.3603  154.5435 H   0  0  0  0  0  0  0  0  0  0  0  0  # atno 10763 bound_to 10752
  153.6055  135.7011  153.5372 H   0  0  0  0  0  0  0  0  0  0  0  0  # atno 10764 bound_to 10752
  153.3254  135.4139  155.1412 H   0  0  0  0  0  0  0  0  0  0  0  0  # atno 10765 bound_to 10752
  140.2915  134.2859  155.7775 H   0  0  0  0  0  0  0  0  0  0  0  0  # atno 11005 bound_to 11000
  145.0640  140.9108  143.4922 LP  0  0  0  0  0  0  0  0  0  0  0  0  # atno 17320 bound_to 7965
  145.1044  139.2800  143.5670 LP  0  0  0  0  0  0  0  0  0  0  0  0  # atno 17321 bound_to 7965
  139.5429  144.7273  151.4676 LP  0  0  0  0  0  0  0  0  0  0  0  0  # atno 17342 bound_to 10162
  140.6707  143.8301  150.6995 LP  0  0  0  0  0  0  0  0  0  0  0  0  # atno 17343 bound_to 10162
  157.7489  131.0067  150.3162 LP  0  0  0  0  0  0  0  0  0  0  0  0  # atno 17370 bound_to 10713
  156.3590  130.3843  149.7267 LP  0  0  0  0  0  0  0  0  0  0  0  0  # atno 17371 bound_to 10713
  141.2145  133.7588  156.9631 LP  0  0  0  0  0  0  0  0  0  0  0  0  # atno 17394 bound_to 11000
  140.1191  134.9428  157.2178 LP  0  0  0  0  0  0  0  0  0  0  0  0  # atno 17395 bound_to 11000

$$$$
