AV-unprocessed.smi:705|AV-procd|sdf|3449|dock4
  -GOLD-   22720 0433D 1   1.00000     0.00000
 Structure written by MMmdl.
 29 30  0  0  0  0  0  0  0  0  2 V2000
  145.0872  132.5826  156.2972 N   0  0  0  0  0  0  0  0  0  0  0  0
  146.2228  133.2527  156.0836 C   0  0  0  0  0  0  0  0  0  0  0  0
  146.9932  133.5636  156.9904 O   0  0  0  0  0  0  0  0  0  0  0  0
  146.5035  133.6119  154.6540 C   0  0  0  0  0  0  0  0  0  0  0  0
  145.6244  133.1896  153.6116 C   0  0  0  0  0  0  0  0  0  0  0  0
  146.1866  133.6889  152.4695 C   0  0  0  0  0  0  0  0  0  0  0  0
  145.7563  133.6062  151.0387 C   0  0  1  0  0  0  0  0  0  0  0  0
  145.7689  132.1565  150.5154 C   0  0  0  0  0  0  0  0  0  0  0  0
  145.2998  132.0998  149.0536 C   0  0  0  0  0  0  0  0  0  0  0  0
  143.9218  132.7615  148.8947 C   0  0  0  0  0  0  0  0  0  0  0  0
  143.9486  134.1488  149.4063 N   0  3  0  0  0  0  0  0  0  0  0  0
  144.3628  134.2334  150.8244 C   0  0  0  0  0  0  0  0  0  0  0  0
  147.3211  134.3618  152.8639 N   0  0  0  0  0  0  0  0  0  0  0  0
  147.5266  134.3211  154.1936 N   0  0  0  0  0  0  0  0  0  0  0  0
  147.9595  134.8424  152.2456 H   0  0  0  0  0  0  0  0  0  0  0  0
  144.8331  132.3087  157.2350 H   0  0  0  0  0  0  0  0  0  0  0  0
  144.4883  132.3548  155.5168 H   0  0  0  0  0  0  0  0  0  0  0  0
  144.7179  132.6075  153.6902 H   0  0  0  0  0  0  0  0  0  0  0  0
  146.4679  134.1761  150.4388 H   0  0  0  0  0  0  0  0  0  0  0  0
  146.7713  131.7351  150.5992 H   0  0  0  0  0  0  0  0  0  0  0  0
  145.1173  131.5323  151.1286 H   0  0  0  0  0  0  0  0  0  0  0  0
  146.0258  132.6044  148.4147 H   0  0  0  0  0  0  0  0  0  0  0  0
  145.2580  131.0637  148.7161 H   0  0  0  0  0  0  0  0  0  0  0  0
  143.6254  132.7730  147.8457 H   0  0  0  0  0  0  0  0  0  0  0  0
  143.1634  132.1936  149.4355 H   0  0  0  0  0  0  0  0  0  0  0  0
  144.5980  134.6846  148.8484 H   0  0  0  0  0  0  0  0  0  0  0  0
  143.6172  133.7311  151.4427 H   0  0  0  0  0  0  0  0  0  0  0  0
  144.3693  135.2817  151.1244 H   0  0  0  0  0  0  0  0  0  0  0  0
  143.0272  134.5518  149.3101 H   0  0  0  0  0  0  0  0  0  0  0  0
  1  2  1  0  0  0  0
  1 16  1  0  0  0  0
  1 17  1  0  0  0  0
  2  3  2  0  0  0  0
  2  4  1  0  0  0  0
  4 14  2  0  0  0  0
  4  5  1  0  0  0  0
  5  6  2  0  0  0  0
  5 18  1  0  0  0  0
  6  7  1  0  0  0  0
  6 13  1  0  0  0  0
  7 12  1  0  0  0  0
  7  8  1  0  0  0  0
  7 19  1  0  0  0  0
  8  9  1  0  0  0  0
  8 20  1  0  0  0  0
  8 21  1  0  0  0  0
  9 10  1  0  0  0  0
  9 22  1  0  0  0  0
  9 23  1  0  0  0  0
 10 11  1  0  0  0  0
 10 24  1  0  0  0  0
 10 25  1  0  0  0  0
 11 12  1  0  0  0  0
 11 26  1  0  0  0  0
 11 29  1  0  0  0  0
 12 27  1  0  0  0  0
 12 28  1  0  0  0  0
 13 15  1  0  0  0  0
 13 14  1  0  0  0  0
M  CHG  1  11   1
M  END
> <s_m_source_file>
AV-unprocessed.smi

> <i_m_source_file_index>
705

> <i_lp_mmshare_version>
43012

> <i_f3d_flags>
0

> <s_epik_input>
W05IMl1DKD1PKWMxW2NIXWMoW25IXW4xKVtDQEBIXTJbQ0gyXVtDSDJdW0NIMl1bTkhdW0NIMl0y

> <s_epik_cmdline>
J2VwaWtfcHl0aG9uJywgJy1waCcsICc3LjAnLCAnLXRuJywgJzgnLCAnLW1hJywgJzIwMCcsICctbWV0YWxfYmluZGluZycsICctaW1hZScsICc8aW5maWxlLm1hZT4nLCAnLW9tYWUnLCAnPG91dGZpbGUubWFlPic=

> <r_lp_tautomer_probability>
0.5

> <r_epik_Ionization_Penalty>
0.000245231

> <r_epik_Ionization_Penalty_Charging>
0.000226378

> <r_epik_Ionization_Penalty_Neutral>
1.88531e-05

> <r_epik_State_Penalty>
0.41068

> <r_epik_Charging_Adjusted_Penalty>
0.410906

> <i_epik_Tot_Q>
1

> <i_epik_Tot_abs_Q>
1

> <r_epik_Metal_State_Penalty>
0.446108

> <b_epik_Metal_Only>
0

> <s_lp_Force_Field>
OPLS_2005

> <r_lp_Energy>
15.347

> <b_lp_Chiralities_Consistent>
1

> <s_lp_Variant>
AV-unprocessed.smi:705-4

> <Gold.Version>
5.8.1

> <Gold.Id.Protein>
6NUR|6NUR_protein|mol2

> <Gold.PLP.Fitness>
37.0445

> <Gold.PLP.PLP>
-22.0885

> <Gold.PLP.part.hbond>
-4.0000

> <Gold.PLP.part.metal>
0.0000

> <Gold.PLP.part.buried>
-3.3043

> <Gold.PLP.part.nonpolar>
-15.2444

> <Gold.PLP.part.repulsive>
0.1931

> <Gold.PLP.ligand.clash>
0.0000

> <Gold.PLP.ligand.torsion>
0.0183

> <Gold.PLP.Chemscore.Hbond>
4.9920

> <Gold.PLP.Chemscore.CHOScore>
0.0000

> <Gold.PLP.Chemscore.Metal>
0.0000

> <Gold.Chemscore.Hbonds>
donor molecule, donor type, donor heavy atom, donor atom, acceptor molecule, acceptor atom, score
      L1  H     1    17       P1 10957  0.99
      L1  H    11    26       P1  7921  1.00
      L1  H    11    29       P1 10186  2.00
      L1  H    13    15       P1  7948  1.00

> <Gold.PLP.Chemscore.Internal.Correction>
0.0166

> <Gold.Rescore>
     Score         DG    S(hbond)    S(metal)    S(lipo)     H(rot)  DE(clash)    DE(int)     intcor
     22.36     -22.45       3.82        0.00      57.95       1.00       0.06       0.04       ----

> <Gold.Chemscore.Fitness>
22.3562

> <Gold.Chemscore.DG>
-22.4505

> <Gold.Chemscore.ZeroCoef>
-5.4800

> <Gold.Chemscore.Hbond>
3.8173

> <Gold.Chemscore.Metal>
0.0000

> <Gold.Chemscore.Lipo>
57.9548

> <Gold.Chemscore.Internal_Hbond>
0.0000

> <Gold.Chemscore.DEClash>
0.0561

> <Gold.Chemscore.DEInternal>
0.0382

> <Gold.Chemscore.Rot>
1.0000

> <Gold.Chemscore.Internal.Correction>
   9.000000E+99

> <Gold.Chemscore.Hbonds>
donor molecule, donor type, donor heavy atom, donor atom, acceptor molecule, acceptor atom, score
      L1  H     1    17       P1 10957  0.84
      L1  H    11    26       P1  7921  0.95
      L1  H    11    29       P1 10186  0.88
      L1  H    13    15       P1  7948  0.58

> <Gold.Chemscore.Hbond.Weighted>
-12.7498

> <Gold.Chemscore.Metal.Weighted>
-0.0000

> <Gold.Chemscore.Lipo.Weighted>
-6.7807

> <Gold.Chemscore.Internal_Hbond.Weighted>
0.0000

> <Gold.Chemscore.DEClash.Weighted>
0.0561

> <Gold.Chemscore.DEInternal.Weighted>
0.0382

> <Gold.Chemscore.Rot.Weighted>
2.5600

> <Gold.Chemscore.Internal.Correction.Weighted>
   9.000000E+99

> <Gold.Protein.RotatedTorsions>
[ 6907 6896 6895 6894 ] final   79.15 input  -60.11 | X-H torsion
[ 7974 7965 7964 7962 ] final  -77.15 input  175.53 | X-H torsion
[ 8008 7997 7996 7995 ] final  111.06 input   59.86 | X-H torsion
[ 10167 10162 10161 10158 ] final -103.46 input  -65.29 | X-H torsion
[ 10718 10713 10712 10709 ] final  -56.44 input   66.30 | X-H torsion
[ 10763 10752 10751 10750 ] final  109.03 input  -60.55 | X-H torsion
[ 11005 11000 10999 10996 ] final    9.41 input  -57.11 | X-H torsion

> <Gold.Protein.ActiveResidues>
 VAL166  LYS551  ARG553  GLY616  TRP617  ASP618  TYR619  PRO620  LYS621  CYS622 
 ASP623  PHE694  ASN695  SER759  ASP760  ASP761  ALA762  ILE779  LEU786  VAL792 
 PHE793  MET794  SER795  GLU796  ALA797  LYS798  CYS799  TRP800  GLU811  SER814 

> <Gold.Protein.RotatedAtoms>
  152.5187  134.3555  159.9266 H   0  0  0  0  0  0  0  0  0  0  0  0  # atno 6907 bound_to 6896
  151.3507  133.3920  159.2687 H   0  0  0  0  0  0  0  0  0  0  0  0  # atno 6908 bound_to 6896
  150.9729  134.9118  159.7857 H   0  0  0  0  0  0  0  0  0  0  0  0  # atno 6909 bound_to 6896
  145.6035  140.9403  143.1228 H   0  0  0  0  0  0  0  0  0  0  0  0  # atno 7974 bound_to 7965
  156.2097  140.3026  155.9705 H   0  0  0  0  0  0  0  0  0  0  0  0  # atno 8008 bound_to 7997
  155.2754  140.0435  157.3028 H   0  0  0  0  0  0  0  0  0  0  0  0  # atno 8009 bound_to 7997
  154.5682  140.2340  155.8239 H   0  0  0  0  0  0  0  0  0  0  0  0  # atno 8010 bound_to 7997
  140.2197  143.3685  152.0980 H   0  0  0  0  0  0  0  0  0  0  0  0  # atno 10167 bound_to 10162
  156.1288  130.4161  150.0306 H   0  0  0  0  0  0  0  0  0  0  0  0  # atno 10718 bound_to 10713
  153.4289  135.3793  155.2158 H   0  0  0  0  0  0  0  0  0  0  0  0  # atno 10763 bound_to 10752
  154.8749  135.3835  154.4292 H   0  0  0  0  0  0  0  0  0  0  0  0  # atno 10764 bound_to 10752
  153.4822  135.7088  153.5995 H   0  0  0  0  0  0  0  0  0  0  0  0  # atno 10765 bound_to 10752
  140.5261  134.0512  155.7859 H   0  0  0  0  0  0  0  0  0  0  0  0  # atno 11005 bound_to 11000
  144.7300  139.7755  143.7351 LP  0  0  0  0  0  0  0  0  0  0  0  0  # atno 17320 bound_to 7965
  146.1559  139.4656  143.0019 LP  0  0  0  0  0  0  0  0  0  0  0  0  # atno 17321 bound_to 7965
  139.5149  144.6954  151.5644 LP  0  0  0  0  0  0  0  0  0  0  0  0  # atno 17342 bound_to 10162
  140.6264  143.9161  150.6568 LP  0  0  0  0  0  0  0  0  0  0  0  0  # atno 17343 bound_to 10162
  156.8224  130.9363  151.3640 LP  0  0  0  0  0  0  0  0  0  0  0  0  # atno 17370 bound_to 10713
  157.6468  130.8851  149.9553 LP  0  0  0  0  0  0  0  0  0  0  0  0  # atno 17371 bound_to 10713
  141.1307  133.9306  157.2540 LP  0  0  0  0  0  0  0  0  0  0  0  0  # atno 17394 bound_to 11000
  139.9579  135.0161  156.9181 LP  0  0  0  0  0  0  0  0  0  0  0  0  # atno 17395 bound_to 11000

$$$$
