AV-unprocessed.smi:155|AV-procd|sdf|1273|dock4
  -GOLD-   2262018533D 1   1.00000     0.00000
 Structure written by MMmdl.
 63 66  0  0  0  0  0  0  0  0  2 V2000
  144.4464  133.6553  149.9480 C   0  0  0  0  0  0  0  0  0  0  0  0
  144.3344  133.0010  151.2472 N   0  0  0  0  0  0  0  0  0  0  0  0
  143.5988  133.8863  152.1396 C   0  0  0  0  0  0  0  0  0  0  0  0
  145.6523  132.7194  151.8179 C   0  0  0  0  0  0  0  0  0  0  0  0
  146.4297  134.0145  152.1340 C   0  0  0  0  0  0  0  0  0  0  0  0
  147.5326  133.7773  153.1017 N   0  3  2  0  0  0  0  0  0  0  0  0
  148.6966  133.0573  152.5063 C   0  0  0  0  0  0  0  0  0  0  0  0
  149.7722  132.6299  153.5275 C   0  0  0  0  0  0  0  0  0  0  0  0
  150.2554  133.7664  154.4486 C   0  0  0  0  0  0  0  0  0  0  0  0
  149.1631  134.3920  155.2019 N   0  0  0  0  0  0  0  0  0  0  0  0
  149.1506  135.7466  155.3447 C   0  0  0  0  0  0  0  0  0  0  0  0
  147.9432  136.3684  155.4083 N   0  0  0  0  0  0  0  0  0  0  0  0
  147.8633  137.6927  155.5588 C   0  0  0  0  0  0  0  0  0  0  0  0
  148.8525  138.5787  155.6706 N   0  0  0  0  0  0  0  0  0  0  0  0
  150.0698  137.9688  155.6087 C   0  0  0  0  0  0  0  0  0  0  0  0
  150.3110  136.5736  155.4449 C   0  0  0  0  0  0  0  0  0  0  0  0
  151.6827  136.3416  155.4388 N   0  0  0  0  0  0  0  0  0  0  0  0
  152.2165  137.5241  155.5702 C   0  0  0  0  0  0  0  0  0  0  0  0
  151.3191  138.5598  155.6782 N   0  0  0  0  0  0  0  0  0  0  0  0
  151.6301  139.9717  155.8287 C   0  0  0  0  0  0  0  0  0  0  0  0
  152.1364  140.3564  157.2374 C   0  0  1  0  0  0  0  0  0  0  0  0
  153.3432  139.6813  157.5376 O   0  0  0  0  0  0  0  0  0  0  0  0
  152.2889  141.8743  157.4912 C   0  0  1  0  0  0  0  0  0  0  0  0
  150.9902  142.6922  157.4856 C   0  0  0  0  0  0  0  0  0  0  0  0
  151.2413  143.7927  158.5094 C   0  0  0  0  0  0  0  0  0  0  0  0
  152.6779  143.5576  158.9739 C   0  0  0  0  0  0  0  0  0  0  0  0
  152.8839  142.1743  158.7456 O   0  0  0  0  0  0  0  0  0  0  0  0
  148.0042  133.5829  155.5884 C   0  0  0  0  0  0  0  0  0  0  0  0
  147.0690  133.2210  154.4038 C   0  0  0  0  0  0  0  0  0  0  0  0
  144.9438  133.0167  149.2192 H   0  0  0  0  0  0  0  0  0  0  0  0
  145.0033  134.5906  150.0185 H   0  0  0  0  0  0  0  0  0  0  0  0
  143.4558  133.8817  149.5519 H   0  0  0  0  0  0  0  0  0  0  0  0
  143.4648  133.4220  153.1173 H   0  0  0  0  0  0  0  0  0  0  0  0
  142.6065  134.0969  151.7385 H   0  0  0  0  0  0  0  0  0  0  0  0
  144.1200  134.8347  152.2792 H   0  0  0  0  0  0  0  0  0  0  0  0
  145.5388  132.1178  152.7212 H   0  0  0  0  0  0  0  0  0  0  0  0
  146.2326  132.1082  151.1269 H   0  0  0  0  0  0  0  0  0  0  0  0
  146.8122  134.4423  151.2080 H   0  0  0  0  0  0  0  0  0  0  0  0
  145.7518  134.7653  152.5415 H   0  0  0  0  0  0  0  0  0  0  0  0
  148.3444  132.1694  151.9798 H   0  0  0  0  0  0  0  0  0  0  0  0
  149.1641  133.6984  151.7595 H   0  0  0  0  0  0  0  0  0  0  0  0
  149.4104  131.7922  154.1243 H   0  0  0  0  0  0  0  0  0  0  0  0
  150.6305  132.2338  152.9841 H   0  0  0  0  0  0  0  0  0  0  0  0
  150.9930  133.3848  155.1550 H   0  0  0  0  0  0  0  0  0  0  0  0
  150.7671  134.5040  153.8290 H   0  0  0  0  0  0  0  0  0  0  0  0
  146.8638  138.1003  155.5972 H   0  0  0  0  0  0  0  0  0  0  0  0
  153.2860  137.6746  155.5923 H   0  0  0  0  0  0  0  0  0  0  0  0
  152.3814  140.2400  155.0851 H   0  0  0  0  0  0  0  0  0  0  0  0
  150.7377  140.5465  155.5778 H   0  0  0  0  0  0  0  0  0  0  0  0
  151.4030  139.9823  157.9526 H   0  0  0  0  0  0  0  0  0  0  0  0
  153.6406  139.9630  158.3889 H   0  0  0  0  0  0  0  0  0  0  0  0
  152.9498  142.2823  156.7238 H   0  0  0  0  0  0  0  0  0  0  0  0
  150.7781  143.0912  156.4932 H   0  0  0  0  0  0  0  0  0  0  0  0
  150.1292  142.0974  157.7916 H   0  0  0  0  0  0  0  0  0  0  0  0
  151.1043  144.7923  158.0961 H   0  0  0  0  0  0  0  0  0  0  0  0
  150.5533  143.6800  159.3480 H   0  0  0  0  0  0  0  0  0  0  0  0
  153.3814  144.1320  158.3691 H   0  0  0  0  0  0  0  0  0  0  0  0
  152.8319  143.8195  160.0207 H   0  0  0  0  0  0  0  0  0  0  0  0
  148.3762  132.6638  156.0424 H   0  0  0  0  0  0  0  0  0  0  0  0
  147.4436  134.0732  156.3846 H   0  0  0  0  0  0  0  0  0  0  0  0
  146.0805  133.6127  154.6446 H   0  0  0  0  0  0  0  0  0  0  0  0
  146.9441  132.1405  154.3218 H   0  0  0  0  0  0  0  0  0  0  0  0
  147.8679  134.7010  153.3375 H   0  0  0  0  0  0  0  0  0  0  0  0
  1  2  1  0  0  0  0
  1 30  1  0  0  0  0
  1 31  1  0  0  0  0
  1 32  1  0  0  0  0
  2  3  1  0  0  0  0
  2  4  1  0  0  0  0
  3 33  1  0  0  0  0
  3 34  1  0  0  0  0
  3 35  1  0  0  0  0
  4  5  1  0  0  0  0
  4 36  1  0  0  0  0
  4 37  1  0  0  0  0
  5  6  1  0  0  0  0
  5 38  1  0  0  0  0
  5 39  1  0  0  0  0
  6 29  1  0  0  0  0
  6  7  1  0  0  0  0
  6 63  1  0  0  0  0
  7  8  1  0  0  0  0
  7 40  1  0  0  0  0
  7 41  1  0  0  0  0
  8  9  1  0  0  0  0
  8 42  1  0  0  0  0
  8 43  1  0  0  0  0
  9 10  1  0  0  0  0
  9 44  1  0  0  0  0
  9 45  1  0  0  0  0
 10 11  1  0  0  0  0
 10 28  1  0  0  0  0
 11 16  1  0  0  0  0
 11 12  2  0  0  0  0
 12 13  1  0  0  0  0
 13 14  2  0  0  0  0
 13 46  1  0  0  0  0
 14 15  1  0  0  0  0
 15 19  1  0  0  0  0
 15 16  2  0  0  0  0
 16 17  1  0  0  0  0
 17 18  2  0  0  0  0
 18 19  1  0  0  0  0
 18 47  1  0  0  0  0
 19 20  1  0  0  0  0
 20 21  1  0  0  0  0
 20 48  1  0  0  0  0
 20 49  1  0  0  0  0
 21 22  1  0  0  0  0
 21 23  1  0  0  0  0
 21 50  1  0  0  0  0
 22 51  1  0  0  0  0
 23 27  1  0  0  0  0
 23 24  1  0  0  0  0
 23 52  1  0  0  0  0
 24 25  1  0  0  0  0
 24 53  1  0  0  0  0
 24 54  1  0  0  0  0
 25 26  1  0  0  0  0
 25 55  1  0  0  0  0
 25 56  1  0  0  0  0
 26 27  1  0  0  0  0
 26 57  1  0  0  0  0
 26 58  1  0  0  0  0
 28 29  1  0  0  0  0
 28 59  1  0  0  0  0
 28 60  1  0  0  0  0
 29 61  1  0  0  0  0
 29 62  1  0  0  0  0
M  CHG  1   6   1
M  END
> <s_m_source_file>
AV-unprocessed.smi

> <i_m_source_file_index>
155

> <i_lp_mmshare_version>
43012

> <i_f3d_flags>
0

> <s_epik_input>
W0NIM11OKFtDSDNdKVtDSDJdW0NIMl1OMVtDSDJdW0NIMl1bQ0gyXU4oW0NIMl1bQ0gyXTEpYyhuW2NIXW4yKWMoYzIzKW5bY0hdbjNbQ0gyXVtDQEhdKFtPSF0pW0NAQEhdNFtDSDJdW0NIMl1bQ0gyXU80

> <s_epik_cmdline>
J2VwaWtfcHl0aG9uJywgJy1waCcsICc3LjAnLCAnLXRuJywgJzgnLCAnLW1hJywgJzIwMCcsICctbWV0YWxfYmluZGluZycsICctaW1hZScsICc8aW5maWxlLm1hZT4nLCAnLW9tYWUnLCAnPG91dGZpbGUubWFlPic=

> <r_epik_Ionization_Penalty>
0.0619615

> <r_epik_Ionization_Penalty_Charging>
0.0161638

> <r_epik_Ionization_Penalty_Neutral>
0.0457976

> <r_epik_State_Penalty>
0.403408

> <r_epik_Charging_Adjusted_Penalty>
0.419572

> <i_epik_Tot_Q>
1

> <i_epik_Tot_abs_Q>
1

> <r_epik_Metal_State_Penalty>
0.404222

> <b_epik_Metal_Only>
0

> <s_lp_Force_Field>
OPLS_2005

> <r_lp_Energy>
55.0815

> <b_lp_Chiralities_Consistent>
1

> <s_lp_Variant>
AV-unprocessed.smi:155-7

> <Gold.Version>
5.8.1

> <Gold.Id.Protein>
6NUR|6NUR_protein|mol2

> <Gold.PLP.Fitness>
41.2077

> <Gold.PLP.PLP>
-37.4443

> <Gold.PLP.part.hbond>
-2.3415

> <Gold.PLP.part.metal>
0.0000

> <Gold.PLP.part.buried>
-5.5947

> <Gold.PLP.part.nonpolar>
-29.4572

> <Gold.PLP.part.repulsive>
0.3106

> <Gold.PLP.ligand.clash>
0.0000

> <Gold.PLP.ligand.torsion>
0.7469

> <Gold.PLP.Chemscore.Hbond>
1.6443

> <Gold.PLP.Chemscore.CHOScore>
0.0000

> <Gold.PLP.Chemscore.Metal>
0.0000

> <Gold.Chemscore.Hbonds>
donor molecule, donor type, donor heavy atom, donor atom, acceptor molecule, acceptor atom, score
      L1  H     6    63       P1  7948  0.18
      P1  H  7997  8008       L1    22  0.51
      P1  H 10752 10764       L1    17  0.95

> <Gold.PLP.Chemscore.Internal.Correction>
0.3242

> <Gold.Rescore>
     Score         DG    S(hbond)    S(metal)    S(lipo)     H(rot)  DE(clash)    DE(int)     intcor
     12.73     -14.19       1.05        0.00     102.08       2.63       0.34       1.11       ----

> <Gold.Chemscore.Fitness>
12.7301

> <Gold.Chemscore.DG>
-14.1877

> <Gold.Chemscore.ZeroCoef>
-5.4800

> <Gold.Chemscore.Hbond>
1.0489

> <Gold.Chemscore.Metal>
0.0000

> <Gold.Chemscore.Lipo>
102.0785

> <Gold.Chemscore.Internal_Hbond>
0.0000

> <Gold.Chemscore.DEClash>
0.3445

> <Gold.Chemscore.DEInternal>
1.1132

> <Gold.Chemscore.Rot>
2.6324

> <Gold.Chemscore.Internal.Correction>
   9.000000E+99

> <Gold.Chemscore.Hbonds>
donor molecule, donor type, donor heavy atom, donor atom, acceptor molecule, acceptor atom, score
      L1  H     6    63       P1  7948  0.09
      P1  H  7997  8008       L1    22  0.08
      P1  H 10752 10764       L1    17  0.22

> <Gold.Chemscore.Hbond.Weighted>
-3.5034

> <Gold.Chemscore.Metal.Weighted>
-0.0000

> <Gold.Chemscore.Lipo.Weighted>
-11.9432

> <Gold.Chemscore.Internal_Hbond.Weighted>
0.0000

> <Gold.Chemscore.DEClash.Weighted>
0.3445

> <Gold.Chemscore.DEInternal.Weighted>
1.1132

> <Gold.Chemscore.Rot.Weighted>
6.7389

> <Gold.Chemscore.Internal.Correction.Weighted>
   9.000000E+99

> <Gold.Protein.RotatedTorsions>
[ 6907 6896 6895 6894 ] final  104.94 input  -60.11 | X-H torsion
[ 7974 7965 7964 7962 ] final   69.99 input  175.53 | X-H torsion
[ 8008 7997 7996 7995 ] final  -71.27 input   59.86 | X-H torsion
[ 10167 10162 10161 10158 ] final   19.46 input  -65.29 | X-H torsion
[ 10718 10713 10712 10709 ] final  -92.82 input   66.30 | X-H torsion
[ 10763 10752 10751 10750 ] final  -54.95 input  -60.55 | X-H torsion
[ 11005 11000 10999 10996 ] final   60.19 input  -57.11 | X-H torsion

> <Gold.Protein.ActiveResidues>
 VAL166  LYS551  ARG553  GLY616  TRP617  ASP618  TYR619  PRO620  LYS621  CYS622 
 ASP623  PHE694  ASN695  SER759  ASP760  ASP761  ALA762  ILE779  LEU786  VAL792 
 PHE793  MET794  SER795  GLU796  ALA797  LYS798  CYS799  TRP800  GLU811  SER814 

> <Gold.Protein.RotatedAtoms>
  152.5247  133.9602  159.7712 H   0  0  0  0  0  0  0  0  0  0  0  0  # atno 6907 bound_to 6896
  150.9894  133.6157  159.2717 H   0  0  0  0  0  0  0  0  0  0  0  0  # atno 6908 bound_to 6896
  151.3306  135.0846  159.9390 H   0  0  0  0  0  0  0  0  0  0  0  0  # atno 6909 bound_to 6896
  145.7836  139.2899  143.1251 H   0  0  0  0  0  0  0  0  0  0  0  0  # atno 7974 bound_to 7965
  154.5075  140.0819  156.7924 H   0  0  0  0  0  0  0  0  0  0  0  0  # atno 8008 bound_to 7997
  155.3860  140.3430  155.4231 H   0  0  0  0  0  0  0  0  0  0  0  0  # atno 8009 bound_to 7997
  156.1533  140.1565  156.8721 H   0  0  0  0  0  0  0  0  0  0  0  0  # atno 8010 bound_to 7997
  140.5577  143.9394  150.6621 H   0  0  0  0  0  0  0  0  0  0  0  0  # atno 10167 bound_to 10162
  156.0006  130.5002  150.5683 H   0  0  0  0  0  0  0  0  0  0  0  0  # atno 10718 bound_to 10713
  154.1830  135.6440  153.5039 H   0  0  0  0  0  0  0  0  0  0  0  0  # atno 10763 bound_to 10752
  153.0054  135.5410  154.6495 H   0  0  0  0  0  0  0  0  0  0  0  0  # atno 10764 bound_to 10752
  154.5864  135.2930  155.0653 H   0  0  0  0  0  0  0  0  0  0  0  0  # atno 10765 bound_to 10752
  140.0250  134.6097  155.9586 H   0  0  0  0  0  0  0  0  0  0  0  0  # atno 11005 bound_to 11000
  146.0049  140.8487  143.0000 LP  0  0  0  0  0  0  0  0  0  0  0  0  # atno 17320 bound_to 7965
  144.6792  140.2405  143.7344 LP  0  0  0  0  0  0  0  0  0  0  0  0  # atno 17321 bound_to 7965
  140.2837  143.3372  152.1128 LP  0  0  0  0  0  0  0  0  0  0  0  0  # atno 17342 bound_to 10162
  139.5055  144.6797  151.6040 LP  0  0  0  0  0  0  0  0  0  0  0  0  # atno 17343 bound_to 10162
  157.3582  131.0745  151.1658 LP  0  0  0  0  0  0  0  0  0  0  0  0  # atno 17370 bound_to 10713
  157.2452  130.6588  149.5907 LP  0  0  0  0  0  0  0  0  0  0  0  0  # atno 17371 bound_to 10713
  141.1797  133.6544  156.4969 LP  0  0  0  0  0  0  0  0  0  0  0  0  # atno 17394 bound_to 11000
  140.4323  134.7091  157.4948 LP  0  0  0  0  0  0  0  0  0  0  0  0  # atno 17395 bound_to 11000

$$$$
