AV-unprocessed.smi:2945|AV-procd|sdf|11279|dock8
  -GOLD-   2272016173D 1   1.00000     0.00000
 Structure written by MMmdl.
 36 37  0  0  0  0  0  0  0  0  1 V2000
  146.9842  138.9856  152.4382 C   0  0  0  0  0  0  0  0  0  0  0  0
  147.3597  140.1554  153.2815 C   0  0  0  0  0  0  0  0  0  0  0  0
  148.4111  140.3983  154.1200 C   0  0  0  0  0  0  0  0  0  0  0  0
  148.1437  141.7091  154.5967 C   0  0  0  0  0  0  0  0  0  0  0  0
  149.0220  142.3427  155.5123 N   0  0  0  0  0  0  0  0  0  0  0  0
  149.5945  141.8071  156.6038 C   0  0  0  0  0  0  0  0  0  0  0  0
  149.4441  140.6458  156.9843 O   0  0  0  0  0  0  0  0  0  0  0  0
  150.3619  142.7064  157.2378 N   0  0  0  0  0  0  0  0  0  0  0  0
  151.1504  142.4651  158.4461 C   0  0  1  0  0  0  0  0  0  0  0  0
  151.9913  141.1900  158.2381 C   0  0  0  0  0  0  0  0  0  0  0  0
  152.9030  140.9055  159.4401 C   0  0  0  0  0  0  0  0  0  0  0  0
  153.8066  142.1089  159.7383 C   0  0  0  0  0  0  0  0  0  0  0  0
  152.9733  143.3782  159.9685 C   0  0  0  0  0  0  0  0  0  0  0  0
  152.0482  143.6866  158.7732 C   0  0  2  0  0  0  0  0  0  0  0  0
  151.2361  144.9666  159.0401 C   0  0  0  0  0  0  0  0  0  0  0  0
  147.0306  142.2209  154.0938 N   0  0  0  0  0  0  0  0  0  0  0  0
  146.5226  141.2276  153.2480 O   0  0  0  0  0  0  0  0  0  0  0  0
  147.6509  138.1429  152.6218 H   0  0  0  0  0  0  0  0  0  0  0  0
  147.0421  139.2384  151.3794 H   0  0  0  0  0  0  0  0  0  0  0  0
  145.9654  138.6637  152.6546 H   0  0  0  0  0  0  0  0  0  0  0  0
  149.2362  139.7418  154.3532 H   0  0  0  0  0  0  0  0  0  0  0  0
  149.2386  143.3082  155.3137 H   0  0  0  0  0  0  0  0  0  0  0  0
  150.4150  143.6360  156.8480 H   0  0  0  0  0  0  0  0  0  0  0  0
  150.4898  142.2893  159.2972 H   0  0  0  0  0  0  0  0  0  0  0  0
  151.3363  140.3348  158.0675 H   0  0  0  0  0  0  0  0  0  0  0  0
  152.6033  141.2931  157.3406 H   0  0  0  0  0  0  0  0  0  0  0  0
  152.2948  140.6760  160.3161 H   0  0  0  0  0  0  0  0  0  0  0  0
  153.5121  140.0225  159.2448 H   0  0  0  0  0  0  0  0  0  0  0  0
  154.4219  141.9036  160.6148 H   0  0  0  0  0  0  0  0  0  0  0  0
  154.4947  142.2666  158.9068 H   0  0  0  0  0  0  0  0  0  0  0  0
  152.3764  143.2592  160.8739 H   0  0  0  0  0  0  0  0  0  0  0  0
  153.6411  144.2211  160.1503 H   0  0  0  0  0  0  0  0  0  0  0  0
  152.6846  143.8788  157.9078 H   0  0  0  0  0  0  0  0  0  0  0  0
  150.5475  144.8297  159.8744 H   0  0  0  0  0  0  0  0  0  0  0  0
  150.6498  145.2620  158.1702 H   0  0  0  0  0  0  0  0  0  0  0  0
  151.8916  145.8027  159.2844 H   0  0  0  0  0  0  0  0  0  0  0  0
  1  2  1  0  0  0  0
  1 18  1  0  0  0  0
  1 19  1  0  0  0  0
  1 20  1  0  0  0  0
  2 17  1  0  0  0  0
  2  3  2  0  0  0  0
  3  4  1  0  0  0  0
  3 21  1  0  0  0  0
  4  5  1  0  0  0  0
  4 16  2  0  0  0  0
  5  6  1  0  0  0  0
  5 22  1  0  0  0  0
  6  7  2  0  0  0  0
  6  8  1  0  0  0  0
  8  9  1  0  0  0  0
  8 23  1  0  0  0  0
  9 14  1  0  0  0  0
  9 10  1  0  0  0  0
  9 24  1  0  0  0  0
 10 11  1  0  0  0  0
 10 25  1  0  0  0  0
 10 26  1  0  0  0  0
 11 12  1  0  0  0  0
 11 27  1  0  0  0  0
 11 28  1  0  0  0  0
 12 13  1  0  0  0  0
 12 29  1  0  0  0  0
 12 30  1  0  0  0  0
 13 14  1  0  0  0  0
 13 31  1  0  0  0  0
 13 32  1  0  0  0  0
 14 15  1  0  0  0  0
 14 33  1  0  0  0  0
 15 34  1  0  0  0  0
 15 35  1  0  0  0  0
 15 36  1  0  0  0  0
 16 17  1  0  0  0  0
M  END
> <s_m_source_file>
AV-unprocessed.smi

> <i_m_source_file_index>
2945

> <i_lp_mmshare_version>
43012

> <i_f3d_flags>
0

> <s_epik_input>
W0NIM11jMVtjSF1jKG5vMSlbTkhdQyg9TylbTkhdW0NAQEhdMltDSDJdW0NIMl1bQ0gyXVtDSDJdW0NASF0yW0NIM10=

> <s_epik_cmdline>
J2VwaWtfcHl0aG9uJywgJy1waCcsICc3LjAnLCAnLXRuJywgJzgnLCAnLW1hJywgJzIwMCcsICctbWV0YWxfYmluZGluZycsICctaW1hZScsICc8aW5maWxlLm1hZT4nLCAnLW9tYWUnLCAnPG91dGZpbGUubWFlPic=

> <r_lp_tautomer_probability>
1

> <r_epik_Ionization_Penalty>
2.357e-05

> <r_epik_Ionization_Penalty_Charging>
0

> <r_epik_Ionization_Penalty_Neutral>
2.357e-05

> <r_epik_State_Penalty>
-0

> <r_epik_Charging_Adjusted_Penalty>
0

> <i_epik_Tot_Q>
0

> <i_epik_Tot_abs_Q>
0

> <r_epik_Metal_State_Penalty>
-0

> <b_epik_Metal_Only>
0

> <s_lp_Force_Field>
OPLS_2005

> <r_lp_Energy>
8.52615

> <b_lp_Chiralities_Consistent>
1

> <s_lp_Variant>
AV-unprocessed.smi:2945-4

> <Gold.Version>
5.8.1

> <Gold.Id.Protein>
6NUR|6NUR_protein|mol2

> <Gold.PLP.Fitness>
37.2627

> <Gold.PLP.PLP>
-34.9691

> <Gold.PLP.part.hbond>
-1.6373

> <Gold.PLP.part.metal>
0.0000

> <Gold.PLP.part.buried>
-4.0808

> <Gold.PLP.part.nonpolar>
-30.9675

> <Gold.PLP.part.repulsive>
1.3488

> <Gold.PLP.ligand.clash>
0.0000

> <Gold.PLP.ligand.torsion>
0.4373

> <Gold.PLP.Chemscore.Hbond>
1.0548

> <Gold.PLP.Chemscore.CHOScore>
0.0000

> <Gold.PLP.Chemscore.Metal>
0.0000

> <Gold.Chemscore.Hbonds>
donor molecule, donor type, donor heavy atom, donor atom, acceptor molecule, acceptor atom, score
      L1  H     5    22       P1  8028  0.79
      L1  H     8    23       P1  8028  0.34

> <Gold.PLP.Chemscore.Internal.Correction>
0.0038

> <Gold.Rescore>
     Score         DG    S(hbond)    S(metal)    S(lipo)     H(rot)  DE(clash)    DE(int)     intcor
     17.91     -19.38       1.66        0.00      93.20       1.00       0.95       0.52       ----

> <Gold.Chemscore.Fitness>
17.9131

> <Gold.Chemscore.DG>
-19.3777

> <Gold.Chemscore.ZeroCoef>
-5.4800

> <Gold.Chemscore.Hbond>
1.6625

> <Gold.Chemscore.Metal>
0.0000

> <Gold.Chemscore.Lipo>
93.2049

> <Gold.Chemscore.Internal_Hbond>
0.0000

> <Gold.Chemscore.DEClash>
0.9476

> <Gold.Chemscore.DEInternal>
0.5171

> <Gold.Chemscore.Rot>
1.0000

> <Gold.Chemscore.Internal.Correction>
   9.000000E+99

> <Gold.Chemscore.Hbonds>
donor molecule, donor type, donor heavy atom, donor atom, acceptor molecule, acceptor atom, score
      L1  H     5    22       P1  8028  0.75
      L1  H     8    23       P1  8028  0.33

> <Gold.Chemscore.Hbond.Weighted>
-5.5528

> <Gold.Chemscore.Metal.Weighted>
-0.0000

> <Gold.Chemscore.Lipo.Weighted>
-10.9050

> <Gold.Chemscore.Internal_Hbond.Weighted>
0.0000

> <Gold.Chemscore.DEClash.Weighted>
0.9476

> <Gold.Chemscore.DEInternal.Weighted>
0.5171

> <Gold.Chemscore.Rot.Weighted>
2.5600

> <Gold.Chemscore.Internal.Correction.Weighted>
   9.000000E+99

> <Gold.Protein.RotatedTorsions>
[ 6907 6896 6895 6894 ] final   92.92 input  -60.11 | X-H torsion
[ 7974 7965 7964 7962 ] final   57.33 input  175.53 | X-H torsion
[ 8008 7997 7996 7995 ] final  -90.19 input   59.86 | X-H torsion
[ 10167 10162 10161 10158 ] final -159.12 input  -65.29 | X-H torsion
[ 10718 10713 10712 10709 ] final  128.27 input   66.30 | X-H torsion
[ 10763 10752 10751 10750 ] final  153.99 input  -60.55 | X-H torsion
[ 11005 11000 10999 10996 ] final  103.89 input  -57.11 | X-H torsion

> <Gold.Protein.ActiveResidues>
 VAL166  LYS551  ARG553  GLY616  TRP617  ASP618  TYR619  PRO620  LYS621  CYS622 
 ASP623  PHE694  ASN695  SER759  ASP760  ASP761  ALA762  ILE779  LEU786  VAL792 
 PHE793  MET794  SER795  GLU796  ALA797  LYS798  CYS799  TRP800  GLU811  SER814 

> <Gold.Protein.RotatedAtoms>
  152.5453  134.1427  159.8485 H   0  0  0  0  0  0  0  0  0  0  0  0  # atno 6907 bound_to 6896
  151.1461  133.4931  159.2603 H   0  0  0  0  0  0  0  0  0  0  0  0  # atno 6908 bound_to 6896
  151.1521  135.0243  159.8728 H   0  0  0  0  0  0  0  0  0  0  0  0  # atno 6909 bound_to 6896
  145.9302  139.3801  143.0425 H   0  0  0  0  0  0  0  0  0  0  0  0  # atno 7974 bound_to 7965
  154.6956  140.0533  157.0407 H   0  0  0  0  0  0  0  0  0  0  0  0  # atno 8008 bound_to 7997
  155.0756  140.3204  155.4598 H   0  0  0  0  0  0  0  0  0  0  0  0  # atno 8009 bound_to 7997
  156.2743  140.2074  156.5883 H   0  0  0  0  0  0  0  0  0  0  0  0  # atno 8010 bound_to 7997
  139.6639  143.9863  152.2243 H   0  0  0  0  0  0  0  0  0  0  0  0  # atno 10167 bound_to 10162
  157.5260  131.1098  150.9083 H   0  0  0  0  0  0  0  0  0  0  0  0  # atno 10718 bound_to 10713
  154.1452  135.2818  155.3150 H   0  0  0  0  0  0  0  0  0  0  0  0  # atno 10763 bound_to 10752
  154.6258  135.5452  153.7629 H   0  0  0  0  0  0  0  0  0  0  0  0  # atno 10764 bound_to 10752
  153.0238  135.6450  154.1597 H   0  0  0  0  0  0  0  0  0  0  0  0  # atno 10765 bound_to 10752
  139.8787  134.9280  156.5278 H   0  0  0  0  0  0  0  0  0  0  0  0  # atno 11005 bound_to 11000
  145.8436  140.9567  143.0786 LP  0  0  0  0  0  0  0  0  0  0  0  0  # atno 17320 bound_to 7965
  144.6764  140.0316  143.7482 LP  0  0  0  0  0  0  0  0  0  0  0  0  # atno 17321 bound_to 7965
  139.9610  144.6558  150.8080 LP  0  0  0  0  0  0  0  0  0  0  0  0  # atno 17342 bound_to 10162
  140.7591  143.3122  151.2817 LP  0  0  0  0  0  0  0  0  0  0  0  0  # atno 17343 bound_to 10162
  156.9679  130.5479  149.5289 LP  0  0  0  0  0  0  0  0  0  0  0  0  # atno 17370 bound_to 10713
  156.0387  130.5472  150.8717 LP  0  0  0  0  0  0  0  0  0  0  0  0  # atno 17371 bound_to 10713
  140.8403  133.8210  155.9069 LP  0  0  0  0  0  0  0  0  0  0  0  0  # atno 17394 bound_to 11000
  140.9243  134.2102  157.4906 LP  0  0  0  0  0  0  0  0  0  0  0  0  # atno 17395 bound_to 11000

$$$$
