AV-unprocessed.smi:1570|AV-procd|sdf|6317|dock8
  -GOLD-   22720 6523D 1   1.00000     0.00000
 Structure written by MMmdl.
 51 53  0  0  0  0  0  0  0  0  1 V2000
  153.3949  141.7258  162.2372 C   0  0  0  0  0  0  0  0  0  0  0  0
  153.9662  141.4122  160.8489 C   0  0  0  0  0  0  0  0  0  0  0  0
  153.0928  141.9162  159.7922 N   0  0  0  0  0  0  0  0  0  0  0  0
  152.7831  141.2890  158.6331 C   0  0  0  0  0  0  0  0  0  0  0  0
  153.1778  140.1764  158.2842 O   0  0  0  0  0  0  0  0  0  0  0  0
  151.9676  142.1012  157.9205 N   0  0  0  0  0  0  0  0  0  0  0  0
  151.3978  141.8229  156.6039 C   0  0  0  0  0  0  0  0  0  0  0  0
  149.8991  141.4623  156.6892 C   0  0  1  0  0  0  0  0  0  0  0  0
  149.2331  141.8327  155.4988 O   0  0  0  0  0  0  0  0  0  0  0  0
  149.6370  139.9656  156.9743 C   0  0  0  0  0  0  0  0  0  0  0  0
  150.5985  139.0122  156.4129 N   0  0  0  0  0  0  0  0  0  0  0  0
  150.7463  139.1347  154.9643 C   0  0  0  0  0  0  0  0  0  0  0  0
  151.7463  138.1171  154.3799 C   0  0  1  0  0  0  0  0  0  0  0  0
  153.2131  138.4651  154.6861 C   0  0  0  0  0  0  0  0  0  0  0  0
  151.4150  136.7938  154.8042 O   0  0  0  0  0  0  0  0  0  0  0  0
  151.2602  136.6283  156.2126 C   0  0  2  0  0  0  0  0  0  0  0  0
  150.8365  135.1805  156.4804 C   0  0  0  0  0  0  0  0  0  0  0  0
  150.2252  137.6409  156.7336 C   0  0  0  0  0  0  0  0  0  0  0  0
  151.7521  143.2841  158.6419 C   0  0  0  0  0  0  0  0  0  0  0  0
  150.9915  144.4276  158.3407 C   0  0  0  0  0  0  0  0  0  0  0  0
  150.9850  145.4701  159.2965 C   0  0  0  0  0  0  0  0  0  0  0  0
  151.7200  145.3534  160.5049 C   0  0  0  0  0  0  0  0  0  0  0  0
  152.4753  144.1903  160.7842 C   0  0  0  0  0  0  0  0  0  0  0  0
  152.4626  143.1686  159.8185 C   0  0  0  0  0  0  0  0  0  0  0  0
  154.0494  141.3445  163.0210 H   0  0  0  0  0  0  0  0  0  0  0  0
  152.4140  141.2694  162.3722 H   0  0  0  0  0  0  0  0  0  0  0  0
  153.2886  142.8006  162.3868 H   0  0  0  0  0  0  0  0  0  0  0  0
  154.9604  141.8505  160.7501 H   0  0  0  0  0  0  0  0  0  0  0  0
  154.0981  140.3363  160.7331 H   0  0  0  0  0  0  0  0  0  0  0  0
  151.5661  142.6601  155.9259 H   0  0  0  0  0  0  0  0  0  0  0  0
  151.9476  140.9838  156.1741 H   0  0  0  0  0  0  0  0  0  0  0  0
  149.4330  142.0306  157.4952 H   0  0  0  0  0  0  0  0  0  0  0  0
  148.7855  142.6510  155.6497 H   0  0  0  0  0  0  0  0  0  0  0  0
  149.6605  139.8580  158.0597 H   0  0  0  0  0  0  0  0  0  0  0  0
  148.6207  139.6967  156.6817 H   0  0  0  0  0  0  0  0  0  0  0  0
  149.7749  138.9901  154.4886 H   0  0  0  0  0  0  0  0  0  0  0  0
  151.0747  140.1373  154.6951 H   0  0  0  0  0  0  0  0  0  0  0  0
  151.6381  138.1267  153.2949 H   0  0  0  0  0  0  0  0  0  0  0  0
  153.4785  139.4321  154.2584 H   0  0  0  0  0  0  0  0  0  0  0  0
  153.8858  137.7199  154.2612 H   0  0  0  0  0  0  0  0  0  0  0  0
  153.4072  138.5199  155.7570 H   0  0  0  0  0  0  0  0  0  0  0  0
  152.2180  136.8011  156.7047 H   0  0  0  0  0  0  0  0  0  0  0  0
  150.7109  135.0005  157.5483 H   0  0  0  0  0  0  0  0  0  0  0  0
  151.5869  134.4807  156.1121 H   0  0  0  0  0  0  0  0  0  0  0  0
  149.8923  134.9469  155.9876 H   0  0  0  0  0  0  0  0  0  0  0  0
  150.1300  137.5281  157.8144 H   0  0  0  0  0  0  0  0  0  0  0  0
  149.2450  137.4161  156.3097 H   0  0  0  0  0  0  0  0  0  0  0  0
  150.4328  144.5116  157.4205 H   0  0  0  0  0  0  0  0  0  0  0  0
  150.4140  146.3663  159.1037 H   0  0  0  0  0  0  0  0  0  0  0  0
  151.7025  146.1620  161.2208 H   0  0  0  0  0  0  0  0  0  0  0  0
  153.0369  144.0962  161.7017 H   0  0  0  0  0  0  0  0  0  0  0  0
  1  2  1  0  0  0  0
  1 25  1  0  0  0  0
  1 26  1  0  0  0  0
  1 27  1  0  0  0  0
  2  3  1  0  0  0  0
  2 28  1  0  0  0  0
  2 29  1  0  0  0  0
  3 24  1  0  0  0  0
  3  4  1  0  0  0  0
  4  5  2  0  0  0  0
  4  6  1  0  0  0  0
  6  7  1  0  0  0  0
  6 19  1  0  0  0  0
  7  8  1  0  0  0  0
  7 30  1  0  0  0  0
  7 31  1  0  0  0  0
  8  9  1  0  0  0  0
  8 10  1  0  0  0  0
  8 32  1  0  0  0  0
  9 33  1  0  0  0  0
 10 11  1  0  0  0  0
 10 34  1  0  0  0  0
 10 35  1  0  0  0  0
 11 18  1  0  0  0  0
 11 12  1  0  0  0  0
 12 13  1  0  0  0  0
 12 36  1  0  0  0  0
 12 37  1  0  0  0  0
 13 14  1  0  0  0  0
 13 15  1  0  0  0  0
 13 38  1  0  0  0  0
 14 39  1  0  0  0  0
 14 40  1  0  0  0  0
 14 41  1  0  0  0  0
 15 16  1  0  0  0  0
 16 17  1  0  0  0  0
 16 18  1  0  0  0  0
 16 42  1  0  0  0  0
 17 43  1  0  0  0  0
 17 44  1  0  0  0  0
 17 45  1  0  0  0  0
 18 46  1  0  0  0  0
 18 47  1  0  0  0  0
 19 24  2  0  0  0  0
 19 20  1  0  0  0  0
 20 21  2  0  0  0  0
 20 48  1  0  0  0  0
 21 22  1  0  0  0  0
 21 49  1  0  0  0  0
 22 23  2  0  0  0  0
 22 50  1  0  0  0  0
 23 24  1  0  0  0  0
 23 51  1  0  0  0  0
M  END
> <s_m_source_file>
AV-unprocessed.smi

> <i_m_source_file_index>
1570

> <i_lp_mmshare_version>
43012

> <i_f3d_flags>
0

> <s_epik_input>
W2NIXTFbY0hdW2NIXVtjSF1jKGMxMiluKFtDSDJdW0NIM10pYyg9TyluMltDSDJdW0NASF0oW09IXSlbQ0gyXU4zW0NIMl1bQ0BASF0oW0NIM10pT1tDQEBIXShbQ0gzXSlbQ0gyXTM=

> <s_epik_cmdline>
J2VwaWtfcHl0aG9uJywgJy1waCcsICc3LjAnLCAnLXRuJywgJzgnLCAnLW1hJywgJzIwMCcsICctbWV0YWxfYmluZGluZycsICctaW1hZScsICc8aW5maWxlLm1hZT4nLCAnLW9tYWUnLCAnPG91dGZpbGUubWFlPic=

> <r_epik_Ionization_Penalty>
0.214359

> <r_epik_Ionization_Penalty_Charging>
2.30976e-09

> <r_epik_Ionization_Penalty_Neutral>
0.214359

> <r_epik_State_Penalty>
0.204533

> <r_epik_Charging_Adjusted_Penalty>
0.204533

> <i_epik_Tot_Q>
0

> <i_epik_Tot_abs_Q>
0

> <r_epik_Metal_State_Penalty>
0.204533

> <b_epik_Metal_Only>
0

> <s_lp_Force_Field>
OPLS_2005

> <r_lp_Energy>
65.1855

> <b_lp_Chiralities_Consistent>
1

> <s_lp_Variant>
AV-unprocessed.smi:1570-6

> <Gold.Version>
5.8.1

> <Gold.Id.Protein>
6NUR|6NUR_protein|mol2

> <Gold.PLP.Fitness>
55.7461

> <Gold.PLP.PLP>
-49.0432

> <Gold.PLP.part.hbond>
-3.0000

> <Gold.PLP.part.metal>
0.0000

> <Gold.PLP.part.buried>
-5.7673

> <Gold.PLP.part.nonpolar>
-39.7974

> <Gold.PLP.part.repulsive>
0.1461

> <Gold.PLP.ligand.clash>
0.0000

> <Gold.PLP.ligand.torsion>
1.1205

> <Gold.PLP.Chemscore.Hbond>
2.9680

> <Gold.PLP.Chemscore.CHOScore>
0.0000

> <Gold.PLP.Chemscore.Metal>
0.0000

> <Gold.Chemscore.Hbonds>
donor molecule, donor type, donor heavy atom, donor atom, acceptor molecule, acceptor atom, score
      L1  H     9    33       P1  8028  0.87
      P1  H  7997  8010       L1     5  0.98
      P1  H 10752 10764       L1    15  0.95

> <Gold.PLP.Chemscore.Internal.Correction>
0.0399

> <Gold.Rescore>
     Score         DG    S(hbond)    S(metal)    S(lipo)     H(rot)  DE(clash)    DE(int)     intcor
     21.31     -24.85       2.43        0.00     141.06       2.06       2.56       0.97       ----

> <Gold.Chemscore.Fitness>
21.3110

> <Gold.Chemscore.DG>
-24.8461

> <Gold.Chemscore.ZeroCoef>
-5.4800

> <Gold.Chemscore.Hbond>
2.4338

> <Gold.Chemscore.Metal>
0.0000

> <Gold.Chemscore.Lipo>
141.0596

> <Gold.Chemscore.Internal_Hbond>
0.0000

> <Gold.Chemscore.DEClash>
2.5634

> <Gold.Chemscore.DEInternal>
0.9717

> <Gold.Chemscore.Rot>
2.0574

> <Gold.Chemscore.Internal.Correction>
   9.000000E+99

> <Gold.Chemscore.Hbonds>
donor molecule, donor type, donor heavy atom, donor atom, acceptor molecule, acceptor atom, score
      L1  H     9    33       P1  8028  0.82
      P1  H  7997  8010       L1     5  0.90
      P1  H 10752 10764       L1    15  0.16

> <Gold.Chemscore.Hbond.Weighted>
-8.1290

> <Gold.Chemscore.Metal.Weighted>
-0.0000

> <Gold.Chemscore.Lipo.Weighted>
-16.5040

> <Gold.Chemscore.Internal_Hbond.Weighted>
0.0000

> <Gold.Chemscore.DEClash.Weighted>
2.5634

> <Gold.Chemscore.DEInternal.Weighted>
0.9717

> <Gold.Chemscore.Rot.Weighted>
5.2669

> <Gold.Chemscore.Internal.Correction.Weighted>
   9.000000E+99

> <Gold.Protein.RotatedTorsions>
[ 6907 6896 6895 6894 ] final   94.50 input  -60.11 | X-H torsion
[ 7974 7965 7964 7962 ] final  -79.26 input  175.53 | X-H torsion
[ 8008 7997 7996 7995 ] final   37.48 input   59.86 | X-H torsion
[ 10167 10162 10161 10158 ] final -160.01 input  -65.29 | X-H torsion
[ 10718 10713 10712 10709 ] final  -38.41 input   66.30 | X-H torsion
[ 10763 10752 10751 10750 ] final  -62.65 input  -60.55 | X-H torsion
[ 11005 11000 10999 10996 ] final  110.07 input  -57.11 | X-H torsion

> <Gold.Protein.ActiveResidues>
 VAL166  LYS551  ARG553  GLY616  TRP617  ASP618  TYR619  PRO620  LYS621  CYS622 
 ASP623  PHE694  ASN695  SER759  ASP760  ASP761  ALA762  ILE779  LEU786  VAL792 
 PHE793  MET794  SER795  GLU796  ALA797  LYS798  CYS799  TRP800  GLU811  SER814 

> <Gold.Protein.RotatedAtoms>
  152.5449  134.1184  159.8388 H   0  0  0  0  0  0  0  0  0  0  0  0  # atno 6907 bound_to 6896
  151.1243  133.5074  159.2608 H   0  0  0  0  0  0  0  0  0  0  0  0  # atno 6908 bound_to 6896
  151.1745  135.0342  159.8820 H   0  0  0  0  0  0  0  0  0  0  0  0  # atno 6909 bound_to 6896
  145.5756  140.9458  143.1372 H   0  0  0  0  0  0  0  0  0  0  0  0  # atno 7974 bound_to 7965
  155.2044  140.3318  155.4338 H   0  0  0  0  0  0  0  0  0  0  0  0  # atno 8008 bound_to 7997
  156.2394  140.1888  156.7079 H   0  0  0  0  0  0  0  0  0  0  0  0  # atno 8009 bound_to 7997
  154.6119  140.0607  156.9491 H   0  0  0  0  0  0  0  0  0  0  0  0  # atno 8010 bound_to 7997
  139.6572  143.9978  152.2201 H   0  0  0  0  0  0  0  0  0  0  0  0  # atno 10167 bound_to 10162
  156.3041  130.4244  149.8114 H   0  0  0  0  0  0  0  0  0  0  0  0  # atno 10718 bound_to 10713
  154.3030  135.6231  153.5433 H   0  0  0  0  0  0  0  0  0  0  0  0  # atno 10763 bound_to 10752
  152.9838  135.5683  154.5262 H   0  0  0  0  0  0  0  0  0  0  0  0  # atno 10764 bound_to 10752
  154.4897  135.2867  155.1483 H   0  0  0  0  0  0  0  0  0  0  0  0  # atno 10765 bound_to 10752
  139.8874  134.9474  156.6222 H   0  0  0  0  0  0  0  0  0  0  0  0  # atno 11005 bound_to 11000
  144.7417  139.7429  143.7308 LP  0  0  0  0  0  0  0  0  0  0  0  0  # atno 17320 bound_to 7965
  146.1753  139.4921  142.9901 LP  0  0  0  0  0  0  0  0  0  0  0  0  # atno 17321 bound_to 7965
  139.9707  144.6495  150.7991 LP  0  0  0  0  0  0  0  0  0  0  0  0  # atno 17342 bound_to 10162
  140.7564  143.3065  151.2949 LP  0  0  0  0  0  0  0  0  0  0  0  0  # atno 17343 bound_to 10162
  156.5482  130.8330  151.3291 LP  0  0  0  0  0  0  0  0  0  0  0  0  # atno 17370 bound_to 10713
  157.7375  130.9797  150.2198 LP  0  0  0  0  0  0  0  0  0  0  0  0  # atno 17371 bound_to 10713
  140.7731  133.8722  155.8507 LP  0  0  0  0  0  0  0  0  0  0  0  0  # atno 17394 bound_to 11000
  140.9825  134.1386  157.4481 LP  0  0  0  0  0  0  0  0  0  0  0  0  # atno 17395 bound_to 11000

$$$$
