AV-unprocessed.smi:164|AV-procd|sdf|1382|dock10
  -GOLD-   2262019113D 1   1.00000     0.00000
 Structure written by MMmdl.
 53 55  0  0  0  0  0  0  0  0  1 V2000
  155.6374  134.7954  165.0343 C   0  0  0  0  0  0  0  0  0  0  0  0
  155.5583  134.5624  163.5352 C   0  0  0  0  0  0  0  0  0  0  0  0
  156.3138  133.5170  162.9662 C   0  0  0  0  0  0  0  0  0  0  0  0
  156.2626  133.2721  161.5828 C   0  0  0  0  0  0  0  0  0  0  0  0
  155.4485  134.0663  160.7523 C   0  0  0  0  0  0  0  0  0  0  0  0
  155.4090  133.7887  159.2607 C   0  0  0  0  0  0  0  0  0  0  0  0
  154.6759  135.1085  161.3154 C   0  0  0  0  0  0  0  0  0  0  0  0
  153.8774  135.8740  160.5053 O   0  0  0  0  0  0  0  0  0  0  0  0
  154.5365  137.0139  159.9728 C   0  0  0  0  0  0  0  0  0  0  0  0
  154.1048  138.2568  160.7677 C   0  0  2  0  0  0  0  0  0  0  0  0
  152.6953  138.3317  160.6819 O   0  0  0  0  0  0  0  0  0  0  0  0
  154.6932  139.5544  160.1688 C   0  0  0  0  0  0  0  0  0  0  0  0
  154.0001  140.7546  160.6094 N   0  0  0  0  0  0  0  0  0  0  0  0
  154.2618  141.2198  161.9211 C   0  0  0  0  0  0  0  0  0  0  0  0
  155.0656  140.6578  162.6674 O   0  0  0  0  0  0  0  0  0  0  0  0
  153.4870  142.3912  162.3122 C   0  0  0  0  0  0  0  0  0  0  0  0
  153.6268  142.8968  163.5492 F   0  0  0  0  0  0  0  0  0  0  0  0
  152.6123  142.9665  161.4590 C   0  0  0  0  0  0  0  0  0  0  0  0
  152.3983  142.5115  160.1657 N   0  0  0  0  0  0  0  0  0  0  0  0
  151.3458  143.1134  159.2461 C   0  0  2  0  0  0  0  0  0  0  0  0
  151.8867  143.5923  157.8922 C   0  0  0  0  0  0  0  0  0  0  0  0
  152.1048  145.0876  158.1103 C   0  0  0  0  0  0  0  0  0  0  0  0
  151.6639  145.3408  159.5558 C   0  0  0  0  0  0  0  0  0  0  0  0
  150.8158  144.2429  159.8632 O   0  0  0  0  0  0  0  0  0  0  0  0
  153.0665  141.3461  159.7260 C   0  0  0  0  0  0  0  0  0  0  0  0
  152.8319  140.8660  158.6145 O   0  0  0  0  0  0  0  0  0  0  0  0
  154.7419  135.3725  162.7066 C   0  0  0  0  0  0  0  0  0  0  0  0
  153.9326  136.5161  163.3040 C   0  0  0  0  0  0  0  0  0  0  0  0
  156.1744  133.9884  165.5337 H   0  0  0  0  0  0  0  0  0  0  0  0
  154.6396  134.8489  165.4704 H   0  0  0  0  0  0  0  0  0  0  0  0
  156.1603  135.7282  165.2465 H   0  0  0  0  0  0  0  0  0  0  0  0
  156.9409  132.8967  163.5899 H   0  0  0  0  0  0  0  0  0  0  0  0
  156.8502  132.4694  161.1617 H   0  0  0  0  0  0  0  0  0  0  0  0
  155.3518  134.7168  158.6913 H   0  0  0  0  0  0  0  0  0  0  0  0
  154.5402  133.1785  159.0135 H   0  0  0  0  0  0  0  0  0  0  0  0
  156.3032  133.2548  158.9378 H   0  0  0  0  0  0  0  0  0  0  0  0
  155.6098  136.8571  160.0839 H   0  0  0  0  0  0  0  0  0  0  0  0
  154.3445  137.1398  158.9052 H   0  0  0  0  0  0  0  0  0  0  0  0
  154.4098  138.1457  161.8089 H   0  0  0  0  0  0  0  0  0  0  0  0
  152.4681  138.9601  160.0135 H   0  0  0  0  0  0  0  0  0  0  0  0
  155.7372  139.6866  160.4583 H   0  0  0  0  0  0  0  0  0  0  0  0
  154.7223  139.5393  159.0779 H   0  0  0  0  0  0  0  0  0  0  0  0
  152.0541  143.8104  161.8323 H   0  0  0  0  0  0  0  0  0  0  0  0
  150.5925  142.3342  159.1187 H   0  0  0  0  0  0  0  0  0  0  0  0
  152.7660  143.0366  157.5672 H   0  0  0  0  0  0  0  0  0  0  0  0
  151.1081  143.4422  157.1433 H   0  0  0  0  0  0  0  0  0  0  0  0
  153.1423  145.3830  157.9514 H   0  0  0  0  0  0  0  0  0  0  0  0
  151.4869  145.6590  157.4167 H   0  0  0  0  0  0  0  0  0  0  0  0
  152.5215  145.3442  160.2299 H   0  0  0  0  0  0  0  0  0  0  0  0
  151.1416  146.2903  159.6741 H   0  0  0  0  0  0  0  0  0  0  0  0
  153.6213  137.2366  162.5480 H   0  0  0  0  0  0  0  0  0  0  0  0
  154.5144  137.0665  164.0430 H   0  0  0  0  0  0  0  0  0  0  0  0
  153.0368  136.1282  163.7894 H   0  0  0  0  0  0  0  0  0  0  0  0
  1  2  1  0  0  0  0
  1 29  1  0  0  0  0
  1 30  1  0  0  0  0
  1 31  1  0  0  0  0
  2 27  1  0  0  0  0
  2  3  2  0  0  0  0
  3  4  1  0  0  0  0
  3 32  1  0  0  0  0
  4  5  2  0  0  0  0
  4 33  1  0  0  0  0
  5  6  1  0  0  0  0
  5  7  1  0  0  0  0
  6 34  1  0  0  0  0
  6 35  1  0  0  0  0
  6 36  1  0  0  0  0
  7  8  1  0  0  0  0
  7 27  2  0  0  0  0
  8  9  1  0  0  0  0
  9 10  1  0  0  0  0
  9 37  1  0  0  0  0
  9 38  1  0  0  0  0
 10 11  1  0  0  0  0
 10 12  1  0  0  0  0
 10 39  1  0  0  0  0
 11 40  1  0  0  0  0
 12 13  1  0  0  0  0
 12 41  1  0  0  0  0
 12 42  1  0  0  0  0
 13 25  1  0  0  0  0
 13 14  1  0  0  0  0
 14 15  2  0  0  0  0
 14 16  1  0  0  0  0
 16 17  1  0  0  0  0
 16 18  2  0  0  0  0
 18 19  1  0  0  0  0
 18 43  1  0  0  0  0
 19 20  1  0  0  0  0
 19 25  1  0  0  0  0
 20 24  1  0  0  0  0
 20 21  1  0  0  0  0
 20 44  1  0  0  0  0
 21 22  1  0  0  0  0
 21 45  1  0  0  0  0
 21 46  1  0  0  0  0
 22 23  1  0  0  0  0
 22 47  1  0  0  0  0
 22 48  1  0  0  0  0
 23 24  1  0  0  0  0
 23 49  1  0  0  0  0
 23 50  1  0  0  0  0
 25 26  2  0  0  0  0
 27 28  1  0  0  0  0
 28 51  1  0  0  0  0
 28 52  1  0  0  0  0
 28 53  1  0  0  0  0
M  END
> <s_m_source_file>
AV-unprocessed.smi

> <i_m_source_file_index>
164

> <i_lp_mmshare_version>
43012

> <i_f3d_flags>
0

> <s_epik_input>
W0NIM11jMVtjSF1bY0hdYyhbQ0gzXSljKGMxW0NIM10pT1tDSDJdW0NASF0oW09IXSlbQ0gyXW4yYyg9TyljKEYpW2NIXW4oYzI9TylbQ0BASF0zW0NIMl1bQ0gyXVtDSDJdTzM=

> <s_epik_cmdline>
J2VwaWtfcHl0aG9uJywgJy1waCcsICc3LjAnLCAnLXRuJywgJzgnLCAnLW1hJywgJzIwMCcsICctbWV0YWxfYmluZGluZycsICctaW1hZScsICc8aW5maWxlLm1hZT4nLCAnLW9tYWUnLCAnPG91dGZpbGUubWFlPic=

> <r_lp_tautomer_probability>
1

> <r_epik_Ionization_Penalty>
1.45842e-07

> <r_epik_Ionization_Penalty_Charging>
2.86622e-08

> <r_epik_Ionization_Penalty_Neutral>
1.1718e-07

> <r_epik_State_Penalty>
-0

> <r_epik_Charging_Adjusted_Penalty>
2.86622e-08

> <i_epik_Tot_Q>
0

> <i_epik_Tot_abs_Q>
0

> <r_epik_Metal_State_Penalty>
-0

> <b_epik_Metal_Only>
0

> <s_epik_Chemistry_Notes>
This compound contains an acetal/aminal-like group ( X-CH(R)-Y where X, Y are N, S, or O) that may be acid/base labile, releasing an aldehyde.

> <s_lp_Force_Field>
OPLS_2005

> <r_lp_Energy>
44.8383

> <b_lp_Chiralities_Consistent>
1

> <s_lp_Variant>
AV-unprocessed.smi:164-1

> <Gold.Version>
5.8.1

> <Gold.Id.Protein>
6NUR|6NUR_protein|mol2

> <Gold.PLP.Fitness>
53.0150

> <Gold.PLP.PLP>
-51.8408

> <Gold.PLP.part.hbond>
-2.0000

> <Gold.PLP.part.metal>
0.0000

> <Gold.PLP.part.buried>
-1.6990

> <Gold.PLP.part.nonpolar>
-47.7773

> <Gold.PLP.part.repulsive>
0.1213

> <Gold.PLP.ligand.clash>
0.0000

> <Gold.PLP.ligand.torsion>
1.0935

> <Gold.PLP.Chemscore.Hbond>
1.0000

> <Gold.PLP.Chemscore.CHOScore>
0.0000

> <Gold.PLP.Chemscore.Metal>
0.0000

> <Gold.Chemscore.Hbonds>
donor molecule, donor type, donor heavy atom, donor atom, acceptor molecule, acceptor atom, score
      P1  H  6896  6908       L1     8  1.00

> <Gold.PLP.Chemscore.Internal.Correction>
0.3611

> <Gold.Rescore>
     Score         DG    S(hbond)    S(metal)    S(lipo)     H(rot)  DE(clash)    DE(int)     intcor
     12.51     -15.26       1.51        0.00     100.30       2.73       0.15       2.59       ----

> <Gold.Chemscore.Fitness>
12.5142

> <Gold.Chemscore.DG>
-15.2587

> <Gold.Chemscore.ZeroCoef>
-5.4800

> <Gold.Chemscore.Hbond>
1.5078

> <Gold.Chemscore.Metal>
0.0000

> <Gold.Chemscore.Lipo>
100.3018

> <Gold.Chemscore.Internal_Hbond>
0.0000

> <Gold.Chemscore.DEClash>
0.1549

> <Gold.Chemscore.DEInternal>
2.5896

> <Gold.Chemscore.Rot>
2.7315

> <Gold.Chemscore.Internal.Correction>
   9.000000E+99

> <Gold.Chemscore.Hbonds>
donor molecule, donor type, donor heavy atom, donor atom, acceptor molecule, acceptor atom, score
      P1  H  6896  6908       L1     8  0.45
      P1  H  7997  8008       L1    26  0.01

> <Gold.Chemscore.Hbond.Weighted>
-5.0359

> <Gold.Chemscore.Metal.Weighted>
-0.0000

> <Gold.Chemscore.Lipo.Weighted>
-11.7353

> <Gold.Chemscore.Internal_Hbond.Weighted>
0.0000

> <Gold.Chemscore.DEClash.Weighted>
0.1549

> <Gold.Chemscore.DEInternal.Weighted>
2.5896

> <Gold.Chemscore.Rot.Weighted>
6.9925

> <Gold.Chemscore.Internal.Correction.Weighted>
   9.000000E+99

> <Gold.Protein.RotatedTorsions>
[ 6907 6896 6895 6894 ] final  -62.64 input  -60.11 | X-H torsion
[ 7974 7965 7964 7962 ] final   65.21 input  175.53 | X-H torsion
[ 8008 7997 7996 7995 ] final  -84.87 input   59.86 | X-H torsion
[ 10167 10162 10161 10158 ] final  171.70 input  -65.29 | X-H torsion
[ 10718 10713 10712 10709 ] final   52.15 input   66.30 | X-H torsion
[ 10763 10752 10751 10750 ] final -128.27 input  -60.55 | X-H torsion
[ 11005 11000 10999 10996 ] final  -57.87 input  -57.11 | X-H torsion

> <Gold.Protein.ActiveResidues>
 VAL166  LYS551  ARG553  GLY616  TRP617  ASP618  TYR619  PRO620  LYS621  CYS622 
 ASP623  PHE694  ASN695  SER759  ASP760  ASP761  ALA762  ILE779  LEU786  VAL792 
 PHE793  MET794  SER795  GLU796  ALA797  LYS798  CYS799  TRP800  GLU811  SER814 

> <Gold.Protein.RotatedAtoms>
  150.7702  134.6543  159.6304 H   0  0  0  0  0  0  0  0  0  0  0  0  # atno 6907 bound_to 6896
  152.3751  134.6672  160.0171 H   0  0  0  0  0  0  0  0  0  0  0  0  # atno 6908 bound_to 6896
  151.7020  133.3275  159.3305 H   0  0  0  0  0  0  0  0  0  0  0  0  # atno 6909 bound_to 6896
  145.8411  139.3196  143.0930 H   0  0  0  0  0  0  0  0  0  0  0  0  # atno 7974 bound_to 7965
  154.6346  140.0599  156.9773 H   0  0  0  0  0  0  0  0  0  0  0  0  # atno 8008 bound_to 7997
  155.1612  140.3283  155.4392 H   0  0  0  0  0  0  0  0  0  0  0  0  # atno 8009 bound_to 7997
  156.2500  140.1930  156.6719 H   0  0  0  0  0  0  0  0  0  0  0  0  # atno 8010 bound_to 7997
  139.5054  144.3456  151.9974 H   0  0  0  0  0  0  0  0  0  0  0  0  # atno 10167 bound_to 10162
  157.5048  130.8461  149.8360 H   0  0  0  0  0  0  0  0  0  0  0  0  # atno 10718 bound_to 10713
  154.8756  135.3934  154.3729 H   0  0  0  0  0  0  0  0  0  0  0  0  # atno 10763 bound_to 10752
  153.4487  135.7028  153.6128 H   0  0  0  0  0  0  0  0  0  0  0  0  # atno 10764 bound_to 10752
  153.4677  135.3797  155.2343 H   0  0  0  0  0  0  0  0  0  0  0  0  # atno 10765 bound_to 10752
  141.1183  133.6611  156.4835 H   0  0  0  0  0  0  0  0  0  0  0  0  # atno 11005 bound_to 11000
  145.9463  140.8942  143.0282 LP  0  0  0  0  0  0  0  0  0  0  0  0  # atno 17320 bound_to 7965
  144.6733  140.1619  143.7421 LP  0  0  0  0  0  0  0  0  0  0  0  0  # atno 17321 bound_to 7965
  140.2893  144.3771  150.6093 LP  0  0  0  0  0  0  0  0  0  0  0  0  # atno 17342 bound_to 10162
  140.5958  143.2167  151.7166 LP  0  0  0  0  0  0  0  0  0  0  0  0  # atno 17343 bound_to 10162
  156.0251  130.3782  150.1847 LP  0  0  0  0  0  0  0  0  0  0  0  0  # atno 17370 bound_to 10713
  157.0036  130.9930  151.3384 LP  0  0  0  0  0  0  0  0  0  0  0  0  # atno 17371 bound_to 10713
  140.4582  134.6866  157.5072 LP  0  0  0  0  0  0  0  0  0  0  0  0  # atno 17394 bound_to 11000
  140.0121  134.6674  155.9365 LP  0  0  0  0  0  0  0  0  0  0  0  0  # atno 17395 bound_to 11000

$$$$
