AV-unprocessed.smi:261|AV-procd|sdf|1994|dock4
  -GOLD-   2262021183D 1   1.00000     0.00000
 Structure written by MMmdl.
 51 54  0  0  0  0  0  0  0  0  1 V2000
  147.5922  133.8995  153.2848 C   0  0  0  0  0  0  0  0  0  0  0  0
  148.2566  133.0780  154.2311 O   0  0  0  0  0  0  0  0  0  0  0  0
  149.6755  133.1332  154.1469 C   0  0  2  0  0  0  0  0  0  0  0  0
  150.3497  132.4242  155.3294 C   0  0  0  0  0  0  0  0  0  0  0  0
  150.3696  133.4658  156.4600 C   0  0  2  0  0  0  0  0  0  0  0  0
  149.1187  133.3548  157.3583 C   0  0  0  0  0  0  0  0  0  0  0  0
  148.2376  132.3770  157.1217 N   0  0  0  0  0  0  0  0  0  0  0  0
  148.9468  134.1676  158.2639 O   0  0  0  0  0  0  0  0  0  0  0  0
  150.4807  134.7310  155.7324 N   0  0  0  0  0  0  0  0  0  0  0  0
  150.9244  135.9080  156.2559 C   0  0  0  0  0  0  0  0  0  0  0  0
  151.5517  135.8674  157.4616 N   0  0  0  0  0  0  0  0  0  0  0  0
  152.0174  136.9821  158.0301 C   0  0  0  0  0  0  0  0  0  0  0  0
  151.9657  138.2328  157.5736 N   0  0  0  0  0  0  0  0  0  0  0  0
  151.3376  138.2908  156.3656 C   0  0  0  0  0  0  0  0  0  0  0  0
  150.7912  137.1908  155.6403 C   0  0  0  0  0  0  0  0  0  0  0  0
  150.2369  137.6566  154.4522 N   0  0  0  0  0  0  0  0  0  0  0  0
  150.4446  138.9435  154.4727 C   0  0  0  0  0  0  0  0  0  0  0  0
  151.0939  139.4111  155.5909 N   0  0  0  0  0  0  0  0  0  0  0  0
  151.4479  140.7933  155.8743 C   0  0  0  0  0  0  0  0  0  0  0  0
  150.5701  141.4520  156.9619 C   0  0  2  0  0  0  0  0  0  0  0  0
  149.3752  141.9204  156.3689 O   0  0  0  0  0  0  0  0  0  0  0  0
  151.2493  142.6294  157.6914 C   0  0  1  0  0  0  0  0  0  0  0  0
  150.3168  143.4433  158.5894 C   0  0  0  0  0  0  0  0  0  0  0  0
  151.2528  144.0464  159.6257 C   0  0  0  0  0  0  0  0  0  0  0  0
  152.5475  143.2434  159.4722 C   0  0  0  0  0  0  0  0  0  0  0  0
  152.2087  142.1562  158.6236 O   0  0  0  0  0  0  0  0  0  0  0  0
  150.1077  134.5920  154.3276 C   0  0  0  0  0  0  0  0  0  0  0  0
  150.0126  132.7464  153.1837 H   0  0  0  0  0  0  0  0  0  0  0  0
  151.2547  133.2902  157.0710 H   0  0  0  0  0  0  0  0  0  0  0  0
  146.5143  133.8024  153.4139 H   0  0  0  0  0  0  0  0  0  0  0  0
  147.8304  133.6156  152.2598 H   0  0  0  0  0  0  0  0  0  0  0  0
  147.8519  134.9494  153.4252 H   0  0  0  0  0  0  0  0  0  0  0  0
  149.8712  131.4848  155.6070 H   0  0  0  0  0  0  0  0  0  0  0  0
  151.3775  132.1812  155.0563 H   0  0  0  0  0  0  0  0  0  0  0  0
  147.4110  132.2975  157.6960 H   0  0  0  0  0  0  0  0  0  0  0  0
  148.3985  131.7281  156.3654 H   0  0  0  0  0  0  0  0  0  0  0  0
  152.5013  136.8527  158.9870 H   0  0  0  0  0  0  0  0  0  0  0  0
  150.1205  139.5920  153.6714 H   0  0  0  0  0  0  0  0  0  0  0  0
  152.5007  140.8343  156.1567 H   0  0  0  0  0  0  0  0  0  0  0  0
  151.3624  141.3585  154.9455 H   0  0  0  0  0  0  0  0  0  0  0  0
  150.2960  140.6871  157.6893 H   0  0  0  0  0  0  0  0  0  0  0  0
  149.5622  142.7287  155.9158 H   0  0  0  0  0  0  0  0  0  0  0  0
  151.7455  143.2948  156.9822 H   0  0  0  0  0  0  0  0  0  0  0  0
  149.7540  144.1963  158.0372 H   0  0  0  0  0  0  0  0  0  0  0  0
  149.6009  142.7864  159.0853 H   0  0  0  0  0  0  0  0  0  0  0  0
  151.4322  145.1052  159.4361 H   0  0  0  0  0  0  0  0  0  0  0  0
  150.8348  143.9507  160.6284 H   0  0  0  0  0  0  0  0  0  0  0  0
  153.3186  143.8464  158.9903 H   0  0  0  0  0  0  0  0  0  0  0  0
  152.9383  142.8901  160.4265 H   0  0  0  0  0  0  0  0  0  0  0  0
  150.9820  134.8024  153.7099 H   0  0  0  0  0  0  0  0  0  0  0  0
  149.3170  135.2876  154.0426 H   0  0  0  0  0  0  0  0  0  0  0  0
  1  2  1  0  0  0  0
  1 30  1  0  0  0  0
  1 31  1  0  0  0  0
  1 32  1  0  0  0  0
  2  3  1  0  0  0  0
  3 28  1  0  0  0  0
  3 27  1  0  0  0  0
  3  4  1  0  0  0  0
  4  5  1  0  0  0  0
  4 33  1  0  0  0  0
  4 34  1  0  0  0  0
  5 29  1  0  0  0  0
  5  6  1  0  0  0  0
  5  9  1  0  0  0  0
  6  7  1  0  0  0  0
  6  8  2  0  0  0  0
  7 35  1  0  0  0  0
  7 36  1  0  0  0  0
  9 10  1  0  0  0  0
  9 27  1  0  0  0  0
 10 15  1  0  0  0  0
 10 11  2  0  0  0  0
 11 12  1  0  0  0  0
 12 13  2  0  0  0  0
 12 37  1  0  0  0  0
 13 14  1  0  0  0  0
 14 18  1  0  0  0  0
 14 15  2  0  0  0  0
 15 16  1  0  0  0  0
 16 17  2  0  0  0  0
 17 18  1  0  0  0  0
 17 38  1  0  0  0  0
 18 19  1  0  0  0  0
 19 20  1  0  0  0  0
 19 39  1  0  0  0  0
 19 40  1  0  0  0  0
 20 21  1  0  0  0  0
 20 22  1  0  0  0  0
 20 41  1  0  0  0  0
 21 42  1  0  0  0  0
 22 26  1  0  0  0  0
 22 23  1  0  0  0  0
 22 43  1  0  0  0  0
 23 24  1  0  0  0  0
 23 44  1  0  0  0  0
 23 45  1  0  0  0  0
 24 25  1  0  0  0  0
 24 46  1  0  0  0  0
 24 47  1  0  0  0  0
 25 26  1  0  0  0  0
 25 48  1  0  0  0  0
 25 49  1  0  0  0  0
 27 50  1  0  0  0  0
 27 51  1  0  0  0  0
M  END
> <s_m_source_file>
AV-unprocessed.smi

> <i_m_source_file_index>
261

> <i_lp_mmshare_version>
43012

> <i_f3d_flags>
0

> <s_epik_input>
W0NIM11PW0NASF0xW0NIMl1bQ0BASF0oQyg9TylbTkgyXSlOKFtDSDJdMSljKG5bY0hdbjIpYyhjMjMpbltjSF1uM1tDSDJdW0NASF0oW09IXSlbQ0BASF00W0NIMl1bQ0gyXVtDSDJdTzQ=

> <s_epik_cmdline>
J2VwaWtfcHl0aG9uJywgJy1waCcsICc3LjAnLCAnLXRuJywgJzgnLCAnLW1hJywgJzIwMCcsICctbWV0YWxfYmluZGluZycsICctaW1hZScsICc8aW5maWxlLm1hZT4nLCAnLW9tYWUnLCAnPG91dGZpbGUubWFlPic=

> <r_lp_tautomer_probability>
1

> <r_epik_Ionization_Penalty>
0.000713824

> <r_epik_Ionization_Penalty_Charging>
0

> <r_epik_Ionization_Penalty_Neutral>
0.000713824

> <r_epik_State_Penalty>
0.000402132

> <r_epik_Charging_Adjusted_Penalty>
0.000402132

> <i_epik_Tot_Q>
0

> <i_epik_Tot_abs_Q>
0

> <r_epik_Metal_State_Penalty>
-0

> <b_epik_Metal_Only>
0

> <s_lp_Force_Field>
OPLS_2005

> <r_lp_Energy>
42.3495

> <b_lp_Chiralities_Consistent>
1

> <s_lp_Variant>
AV-unprocessed.smi:261-12

> <Gold.Version>
5.8.1

> <Gold.Id.Protein>
6NUR|6NUR_protein|mol2

> <Gold.PLP.Fitness>
46.8452

> <Gold.PLP.PLP>
-39.5111

> <Gold.PLP.part.hbond>
-2.6967

> <Gold.PLP.part.metal>
0.0000

> <Gold.PLP.part.buried>
-3.8700

> <Gold.PLP.part.nonpolar>
-32.5204

> <Gold.PLP.part.repulsive>
0.3050

> <Gold.PLP.ligand.clash>
0.0000

> <Gold.PLP.ligand.torsion>
0.7563

> <Gold.PLP.Chemscore.Hbond>
1.9440

> <Gold.PLP.Chemscore.CHOScore>
0.9727

> <Gold.PLP.Chemscore.Metal>
0.0000

> <Gold.Chemscore.Hbonds>
donor molecule, donor type, donor heavy atom, donor atom, acceptor molecule, acceptor atom, score
      L1  H    21    42       P1  8028  0.67
      P1  H  6896  6909       L1     8  0.96
      L1  C    17    38       P1  7957  0.84

> <Gold.PLP.Chemscore.Internal.Correction>
0.0963

> <Gold.Rescore>
     Score         DG    S(hbond)    S(metal)    S(lipo)     H(rot)  DE(clash)    DE(int)     intcor
     11.36     -12.90       1.81        0.00      81.46       3.18       0.10       1.44       ----

> <Gold.Chemscore.Fitness>
11.3554

> <Gold.Chemscore.DG>
-12.9015

> <Gold.Chemscore.ZeroCoef>
-5.4800

> <Gold.Chemscore.Hbond>
1.8082

> <Gold.Chemscore.Metal>
0.0000

> <Gold.Chemscore.Lipo>
81.4590

> <Gold.Chemscore.Internal_Hbond>
0.0000

> <Gold.Chemscore.DEClash>
0.1019

> <Gold.Chemscore.DEInternal>
1.4442

> <Gold.Chemscore.Rot>
3.1831

> <Gold.Chemscore.Internal.Correction>
   9.000000E+99

> <Gold.Chemscore.Hbonds>
donor molecule, donor type, donor heavy atom, donor atom, acceptor molecule, acceptor atom, score
      L1  H    21    42       P1  8028  0.65
      P1  H  6896  6909       L1     8  0.27

> <Gold.Chemscore.Hbond.Weighted>
-6.0394

> <Gold.Chemscore.Metal.Weighted>
-0.0000

> <Gold.Chemscore.Lipo.Weighted>
-9.5307

> <Gold.Chemscore.Internal_Hbond.Weighted>
0.0000

> <Gold.Chemscore.DEClash.Weighted>
0.1019

> <Gold.Chemscore.DEInternal.Weighted>
1.4442

> <Gold.Chemscore.Rot.Weighted>
8.1486

> <Gold.Chemscore.Internal.Correction.Weighted>
   9.000000E+99

> <Gold.Protein.RotatedTorsions>
[ 6907 6896 6895 6894 ] final   11.18 input  -60.11 | X-H torsion
[ 7974 7965 7964 7962 ] final  140.23 input  175.53 | X-H torsion
[ 8008 7997 7996 7995 ] final   40.24 input   59.86 | X-H torsion
[ 10167 10162 10161 10158 ] final -126.79 input  -65.29 | X-H torsion
[ 10718 10713 10712 10709 ] final  145.18 input   66.30 | X-H torsion
[ 10763 10752 10751 10750 ] final  -37.89 input  -60.55 | X-H torsion
[ 11005 11000 10999 10996 ] final  -10.32 input  -57.11 | X-H torsion

> <Gold.Protein.ActiveResidues>
 VAL166  LYS551  ARG553  GLY616  TRP617  ASP618  TYR619  PRO620  LYS621  CYS622 
 ASP623  PHE694  ASN695  SER759  ASP760  ASP761  ALA762  ILE779  LEU786  VAL792 
 PHE793  MET794  SER795  GLU796  ALA797  LYS798  CYS799  TRP800  GLU811  SER814 

> <Gold.Protein.RotatedAtoms>
  151.7501  135.0834  160.0329 H   0  0  0  0  0  0  0  0  0  0  0  0  # atno 6907 bound_to 6896
  152.3422  133.6076  159.5893 H   0  0  0  0  0  0  0  0  0  0  0  0  # atno 6908 bound_to 6896
  150.7486  133.9620  159.3560 H   0  0  0  0  0  0  0  0  0  0  0  0  # atno 6909 bound_to 6896
  144.9205  139.5173  143.5665 H   0  0  0  0  0  0  0  0  0  0  0  0  # atno 7974 bound_to 7965
  155.2498  140.3351  155.4283 H   0  0  0  0  0  0  0  0  0  0  0  0  # atno 8008 bound_to 7997
  156.2220  140.1813  156.7497 H   0  0  0  0  0  0  0  0  0  0  0  0  # atno 8009 bound_to 7997
  154.5840  140.0649  156.9130 H   0  0  0  0  0  0  0  0  0  0  0  0  # atno 8010 bound_to 7997
  139.9677  143.5880  152.2423 H   0  0  0  0  0  0  0  0  0  0  0  0  # atno 10167 bound_to 10162
  157.3484  131.0947  151.1022 H   0  0  0  0  0  0  0  0  0  0  0  0  # atno 10718 bound_to 10713
  153.9037  135.6799  153.4754 H   0  0  0  0  0  0  0  0  0  0  0  0  # atno 10763 bound_to 10752
  153.1115  135.4781  154.9041 H   0  0  0  0  0  0  0  0  0  0  0  0  # atno 10764 bound_to 10752
  154.7562  135.3198  154.8420 H   0  0  0  0  0  0  0  0  0  0  0  0  # atno 10765 bound_to 10752
  140.7435  133.8651  155.8986 H   0  0  0  0  0  0  0  0  0  0  0  0  # atno 11005 bound_to 11000
  146.3202  139.8081  142.8951 LP  0  0  0  0  0  0  0  0  0  0  0  0  # atno 17320 bound_to 7965
  145.3303  141.0265  143.3450 LP  0  0  0  0  0  0  0  0  0  0  0  0  # atno 17321 bound_to 7965
  139.6505  144.7660  151.2158 LP  0  0  0  0  0  0  0  0  0  0  0  0  # atno 17342 bound_to 10162
  140.7532  143.6169  150.8551 LP  0  0  0  0  0  0  0  0  0  0  0  0  # atno 17343 bound_to 10162
  157.2207  130.6480  149.5810 LP  0  0  0  0  0  0  0  0  0  0  0  0  # atno 17370 bound_to 10713
  155.9718  130.4630  150.6166 LP  0  0  0  0  0  0  0  0  0  0  0  0  # atno 17371 bound_to 10713
  140.9816  134.1398  157.4489 LP  0  0  0  0  0  0  0  0  0  0  0  0  # atno 17394 bound_to 11000
  139.8801  135.0012  156.6054 LP  0  0  0  0  0  0  0  0  0  0  0  0  # atno 17395 bound_to 11000

$$$$
