AV-unprocessed.smi:2000|AV-procd|sdf|8100|dock7
  -GOLD-   2272010323D 1   1.00000     0.00000
 Structure written by MMmdl.
 43 44  0  0  0  0  0  0  0  0  1 V2000
  148.2068  141.2149  153.7674 C   0  0  0  0  0  0  0  0  0  0  0  0
  148.4576  141.3069  155.2807 C   0  0  2  0  0  0  0  0  0  0  0  0
  149.9492  141.4887  155.5916 C   0  0  0  0  0  0  0  0  0  0  0  0
  150.7804  140.7006  155.1407 O   0  0  0  0  0  0  0  0  0  0  0  0
  150.2757  142.5391  156.3615 N   0  0  0  0  0  0  0  0  0  0  0  0
  151.6333  142.8878  156.7696 C   0  0  0  0  0  0  0  0  0  0  0  0
  151.7133  143.5670  158.1372 C   0  0  0  0  0  0  0  0  0  0  0  0
  151.0443  144.7937  158.3491 C   0  0  0  0  0  0  0  0  0  0  0  0
  151.1399  145.4289  159.5996 C   0  0  0  0  0  0  0  0  0  0  0  0
  151.9176  144.8172  160.5980 C   0  0  0  0  0  0  0  0  0  0  0  0
  152.5746  143.6548  160.4110 N   0  0  0  0  0  0  0  0  0  0  0  0
  152.4827  143.0352  159.2085 C   0  0  0  0  0  0  0  0  0  0  0  0
  153.1672  141.8153  159.0637 N   0  0  0  0  0  0  0  0  0  0  0  0
  152.2822  140.7033  158.7418 C   0  0  0  0  0  0  0  0  0  0  0  0
  153.1130  139.4622  158.3735 C   0  0  0  0  0  0  0  0  0  0  0  0
  154.0115  139.1538  159.4362 O   0  0  0  0  0  0  0  0  0  0  0  0
  154.9192  140.2206  159.6989 C   0  0  0  0  0  0  0  0  0  0  0  0
  154.1326  141.4787  160.1049 C   0  0  0  0  0  0  0  0  0  0  0  0
  147.8037  139.7863  156.1182 S   0  0  0  0  0  0  0  0  0  0  0  0
  149.2790  139.1253  157.0003 C   0  0  0  0  0  0  0  0  0  0  0  0
  146.8214  140.2140  157.1261 O   0  0  0  0  0  0  0  0  0  0  0  0
  147.4048  138.8063  155.0961 O   0  0  0  0  0  0  0  0  0  0  0  0
  148.5898  142.0937  153.2477 H   0  0  0  0  0  0  0  0  0  0  0  0
  147.1396  141.1468  153.5545 H   0  0  0  0  0  0  0  0  0  0  0  0
  148.6843  140.3348  153.3346 H   0  0  0  0  0  0  0  0  0  0  0  0
  147.8983  142.1546  155.6781 H   0  0  0  0  0  0  0  0  0  0  0  0
  149.5341  143.1433  156.6847 H   0  0  0  0  0  0  0  0  0  0  0  0
  152.2616  141.9992  156.7118 H   0  0  0  0  0  0  0  0  0  0  0  0
  152.0345  143.5823  156.0315 H   0  0  0  0  0  0  0  0  0  0  0  0
  150.4632  145.2508  157.5620 H   0  0  0  0  0  0  0  0  0  0  0  0
  150.6332  146.3639  159.7870 H   0  0  0  0  0  0  0  0  0  0  0  0
  152.0179  145.2745  161.5711 H   0  0  0  0  0  0  0  0  0  0  0  0
  151.6480  140.4872  159.6028 H   0  0  0  0  0  0  0  0  0  0  0  0
  151.6208  140.9682  157.9174 H   0  0  0  0  0  0  0  0  0  0  0  0
  152.4577  138.6081  158.2022 H   0  0  0  0  0  0  0  0  0  0  0  0
  153.6692  139.6282  157.4494 H   0  0  0  0  0  0  0  0  0  0  0  0
  155.5942  139.9236  160.5016 H   0  0  0  0  0  0  0  0  0  0  0  0
  155.5348  140.4130  158.8187 H   0  0  0  0  0  0  0  0  0  0  0  0
  154.8146  142.3153  160.2618 H   0  0  0  0  0  0  0  0  0  0  0  0
  153.6151  141.2975  161.0481 H   0  0  0  0  0  0  0  0  0  0  0  0
  148.9742  138.2962  157.6385 H   0  0  0  0  0  0  0  0  0  0  0  0
  149.7239  139.9087  157.6133 H   0  0  0  0  0  0  0  0  0  0  0  0
  150.0080  138.7635  156.2764 H   0  0  0  0  0  0  0  0  0  0  0  0
  1  2  1  0  0  0  0
  1 23  1  0  0  0  0
  1 24  1  0  0  0  0
  1 25  1  0  0  0  0
  2  3  1  0  0  0  0
  2 19  1  0  0  0  0
  2 26  1  0  0  0  0
  3  4  2  0  0  0  0
  3  5  1  0  0  0  0
  5  6  1  0  0  0  0
  5 27  1  0  0  0  0
  6  7  1  0  0  0  0
  6 28  1  0  0  0  0
  6 29  1  0  0  0  0
  7 12  1  0  0  0  0
  7  8  2  0  0  0  0
  8  9  1  0  0  0  0
  8 30  1  0  0  0  0
  9 10  2  0  0  0  0
  9 31  1  0  0  0  0
 10 11  1  0  0  0  0
 10 32  1  0  0  0  0
 11 12  2  0  0  0  0
 12 13  1  0  0  0  0
 13 18  1  0  0  0  0
 13 14  1  0  0  0  0
 14 15  1  0  0  0  0
 14 33  1  0  0  0  0
 14 34  1  0  0  0  0
 15 16  1  0  0  0  0
 15 35  1  0  0  0  0
 15 36  1  0  0  0  0
 16 17  1  0  0  0  0
 17 18  1  0  0  0  0
 17 37  1  0  0  0  0
 17 38  1  0  0  0  0
 18 39  1  0  0  0  0
 18 40  1  0  0  0  0
 19 20  1  0  0  0  0
 19 21  2  0  0  0  0
 19 22  2  0  0  0  0
 20 41  1  0  0  0  0
 20 42  1  0  0  0  0
 20 43  1  0  0  0  0
M  END
> <s_m_source_file>
AV-unprocessed.smi

> <i_m_source_file_index>
2000

> <i_lp_mmshare_version>
43012

> <i_f3d_flags>
0

> <s_epik_input>
W0NIM11TKD1PKSg9TylbQ0BIXShbQ0gzXSlDKD1PKVtOSF1bQ0gyXWMxW2NIXVtjSF1bY0hdbmMxTjJbQ0gyXVtDSDJdT1tDSDJdW0NIMl0y

> <s_epik_cmdline>
J2VwaWtfcHl0aG9uJywgJy1waCcsICc3LjAnLCAnLXRuJywgJzgnLCAnLW1hJywgJzIwMCcsICctbWV0YWxfYmluZGluZycsICctaW1hZScsICc8aW5maWxlLm1hZT4nLCAnLW9tYWUnLCAnPG91dGZpbGUubWFlPic=

> <r_lp_tautomer_probability>
1

> <r_epik_Ionization_Penalty>
0.00349769

> <r_epik_Ionization_Penalty_Charging>
0

> <r_epik_Ionization_Penalty_Neutral>
0.00349769

> <r_epik_State_Penalty>
0.00248024

> <r_epik_Charging_Adjusted_Penalty>
0.00248024

> <i_epik_Tot_Q>
0

> <i_epik_Tot_abs_Q>
0

> <r_epik_Metal_State_Penalty>
-0

> <b_epik_Metal_Only>
0

> <s_lp_Force_Field>
OPLS_2005

> <r_lp_Energy>
16.3383

> <b_lp_Chiralities_Consistent>
1

> <s_lp_Variant>
AV-unprocessed.smi:2000-1

> <Gold.Version>
5.8.1

> <Gold.Id.Protein>
6NUR|6NUR_protein|mol2

> <Gold.PLP.Fitness>
43.7451

> <Gold.PLP.PLP>
-39.8382

> <Gold.PLP.part.hbond>
-2.0000

> <Gold.PLP.part.metal>
0.0000

> <Gold.PLP.part.buried>
-6.4956

> <Gold.PLP.part.nonpolar>
-31.6251

> <Gold.PLP.part.repulsive>
0.2209

> <Gold.PLP.ligand.clash>
0.0000

> <Gold.PLP.ligand.torsion>
0.4990

> <Gold.PLP.Chemscore.Hbond>
1.5200

> <Gold.PLP.Chemscore.CHOScore>
0.0000

> <Gold.PLP.Chemscore.Metal>
0.0000

> <Gold.Chemscore.Hbonds>
donor molecule, donor type, donor heavy atom, donor atom, acceptor molecule, acceptor atom, score
      L1  H     5    27       P1  8028  0.48
      P1  H  7989  7998       L1     4  0.90

> <Gold.PLP.Chemscore.Internal.Correction>
0.3449

> <Gold.Rescore>
     Score         DG    S(hbond)    S(metal)    S(lipo)     H(rot)  DE(clash)    DE(int)     intcor
     14.58     -17.22       1.53        0.00     102.06       2.08       1.46       1.18       ----

> <Gold.Chemscore.Fitness>
14.5758

> <Gold.Chemscore.DG>
-17.2203

> <Gold.Chemscore.ZeroCoef>
-5.4800

> <Gold.Chemscore.Hbond>
1.5314

> <Gold.Chemscore.Metal>
0.0000

> <Gold.Chemscore.Lipo>
102.0583

> <Gold.Chemscore.Internal_Hbond>
0.0000

> <Gold.Chemscore.DEClash>
1.4602

> <Gold.Chemscore.DEInternal>
1.1843

> <Gold.Chemscore.Rot>
2.0764

> <Gold.Chemscore.Internal.Correction>
   9.000000E+99

> <Gold.Chemscore.Hbonds>
donor molecule, donor type, donor heavy atom, donor atom, acceptor molecule, acceptor atom, score
      L1  H     5    27       P1  8028  0.47
      P1  H  7989  7998       L1     4  0.88

> <Gold.Chemscore.Hbond.Weighted>
-5.1150

> <Gold.Chemscore.Metal.Weighted>
-0.0000

> <Gold.Chemscore.Lipo.Weighted>
-11.9408

> <Gold.Chemscore.Internal_Hbond.Weighted>
0.0000

> <Gold.Chemscore.DEClash.Weighted>
1.4602

> <Gold.Chemscore.DEInternal.Weighted>
1.1843

> <Gold.Chemscore.Rot.Weighted>
5.3155

> <Gold.Chemscore.Internal.Correction.Weighted>
   9.000000E+99

> <Gold.Protein.RotatedTorsions>
[ 6907 6896 6895 6894 ] final    8.42 input  -60.11 | X-H torsion
[ 7974 7965 7964 7962 ] final  -51.89 input  175.53 | X-H torsion
[ 8008 7997 7996 7995 ] final   40.75 input   59.86 | X-H torsion
[ 10167 10162 10161 10158 ] final  101.66 input  -65.29 | X-H torsion
[ 10718 10713 10712 10709 ] final   28.92 input   66.30 | X-H torsion
[ 10763 10752 10751 10750 ] final  -55.53 input  -60.55 | X-H torsion
[ 11005 11000 10999 10996 ] final -167.49 input  -57.11 | X-H torsion

> <Gold.Protein.ActiveResidues>
 VAL166  LYS551  ARG553  GLY616  TRP617  ASP618  TYR619  PRO620  LYS621  CYS622 
 ASP623  PHE694  ASN695  SER759  ASP760  ASP761  ALA762  ILE779  LEU786  VAL792 
 PHE793  MET794  SER795  GLU796  ALA797  LYS798  CYS799  TRP800  GLU811  SER814 

> <Gold.Protein.RotatedAtoms>
  151.7058  135.0922  160.0258 H   0  0  0  0  0  0  0  0  0  0  0  0  # atno 6907 bound_to 6896
  152.3692  133.6393  159.6082 H   0  0  0  0  0  0  0  0  0  0  0  0  # atno 6908 bound_to 6896
  150.7661  133.9214  159.3440 H   0  0  0  0  0  0  0  0  0  0  0  0  # atno 6909 bound_to 6896
  145.9140  140.7891  142.9681 H   0  0  0  0  0  0  0  0  0  0  0  0  # atno 7974 bound_to 7965
  155.2583  140.3357  155.4275 H   0  0  0  0  0  0  0  0  0  0  0  0  # atno 8008 bound_to 7997
  156.2186  140.1799  156.7574 H   0  0  0  0  0  0  0  0  0  0  0  0  # atno 8009 bound_to 7997
  154.5790  140.0657  156.9062 H   0  0  0  0  0  0  0  0  0  0  0  0  # atno 8010 bound_to 7997
  139.7418  144.7009  151.0564 H   0  0  0  0  0  0  0  0  0  0  0  0  # atno 10167 bound_to 10162
  157.2398  130.7064  149.6353 H   0  0  0  0  0  0  0  0  0  0  0  0  # atno 10718 bound_to 10713
  154.1923  135.6425  153.5063 H   0  0  0  0  0  0  0  0  0  0  0  0  # atno 10763 bound_to 10752
  153.0032  135.5431  154.6402 H   0  0  0  0  0  0  0  0  0  0  0  0  # atno 10764 bound_to 10752
  154.5794  135.2924  155.0721 H   0  0  0  0  0  0  0  0  0  0  0  0  # atno 10765 bound_to 10752
  140.5527  134.5412  157.5126 H   0  0  0  0  0  0  0  0  0  0  0  0  # atno 11005 bound_to 11000
  144.6746  140.1871  143.7400 LP  0  0  0  0  0  0  0  0  0  0  0  0  # atno 17320 bound_to 7965
  145.8635  139.2235  143.1703 LP  0  0  0  0  0  0  0  0  0  0  0  0  # atno 17321 bound_to 7965
  140.7787  143.4915  150.9887 LP  0  0  0  0  0  0  0  0  0  0  0  0  # atno 17342 bound_to 10162
  139.8603  143.7323  152.3173 LP  0  0  0  0  0  0  0  0  0  0  0  0  # atno 17343 bound_to 10162
  155.9670  130.4462  150.5530 LP  0  0  0  0  0  0  0  0  0  0  0  0  # atno 17370 bound_to 10713
  157.3391  131.0713  151.1802 LP  0  0  0  0  0  0  0  0  0  0  0  0  # atno 17371 bound_to 10713
  139.9447  134.7723  156.0591 LP  0  0  0  0  0  0  0  0  0  0  0  0  # atno 17394 bound_to 11000
  141.1162  133.6627  156.3100 LP  0  0  0  0  0  0  0  0  0  0  0  0  # atno 17395 bound_to 11000

$$$$
