AV-unprocessed.smi:290|AV-procd|sdf|2246|dock5
  -GOLD-   2262022133D 1   1.00000     0.00000
 Structure written by MMmdl.
 59 62  0  0  0  0  0  0  0  0  2 V2000
  152.4538  140.7913  158.3108 C   0  0  0  0  0  0  0  0  0  0  0  0
  151.6823  142.0477  158.7451 C   0  0  1  0  0  0  0  0  0  0  0  0
  152.6005  142.8884  159.4409 O   0  0  0  0  0  0  0  0  0  0  0  0
  152.2611  144.2430  159.2039 C   0  0  0  0  0  0  0  0  0  0  0  0
  151.8615  144.2291  157.7366 C   0  0  0  0  0  0  0  0  0  0  0  0
  151.0815  142.9241  157.6096 C   0  0  2  0  0  0  0  0  0  0  0  0
  149.7299  143.1944  157.9438 O   0  0  0  0  0  0  0  0  0  0  0  0
  151.1059  142.3164  156.1821 C   0  0  0  0  0  0  0  0  0  0  0  0
  150.6159  140.9473  156.1271 N   0  0  0  0  0  0  0  0  0  0  0  0
  149.3925  140.4932  156.5649 C   0  0  0  0  0  0  0  0  0  0  0  0
  149.1832  139.2154  156.4042 N   0  0  0  0  0  0  0  0  0  0  0  0
  150.3541  138.7489  155.8178 C   0  0  0  0  0  0  0  0  0  0  0  0
  150.8026  137.4689  155.3814 C   0  0  0  0  0  0  0  0  0  0  0  0
  150.0307  136.3525  155.4692 N   0  0  0  0  0  0  0  0  0  0  0  0
  150.6719  135.1621  156.0266 C   0  0  0  0  0  0  0  0  0  0  0  0
  149.6938  134.5823  157.0575 C   0  0  0  0  0  0  0  0  0  0  0  0
  148.7265  135.7435  157.3275 C   0  0  2  0  0  0  0  0  0  0  0  0
  147.4121  135.3598  157.9176 N   0  3  2  0  0  0  0  0  0  0  0  0
  146.3361  136.3426  157.6350 C   0  0  0  0  0  0  0  0  0  0  0  0
  147.4568  134.9513  159.3519 C   0  0  0  0  0  0  0  0  0  0  0  0
  148.1487  135.9510  160.3060 C   0  0  0  0  0  0  0  0  0  0  0  0
  147.5341  137.2209  160.2692 O   0  0  0  0  0  0  0  0  0  0  0  0
  148.6471  136.4071  155.9393 C   0  0  2  0  0  0  0  0  0  0  0  0
  147.7298  135.6810  154.9322 C   0  0  0  0  0  0  0  0  0  0  0  0
  152.0545  137.3967  154.8560 N   0  0  0  0  0  0  0  0  0  0  0  0
  152.8135  138.4919  154.7564 C   0  0  0  0  0  0  0  0  0  0  0  0
  152.5223  139.7430  155.1150 N   0  0  0  0  0  0  0  0  0  0  0  0
  151.2697  139.8259  155.6465 C   0  0  0  0  0  0  0  0  0  0  0  0
  149.2149  136.4461  158.0051 H   0  0  0  0  0  0  0  0  0  0  0  0
  148.2766  137.4261  156.0420 H   0  0  0  0  0  0  0  0  0  0  0  0
  151.8090  140.0899  157.7813 H   0  0  0  0  0  0  0  0  0  0  0  0
  152.8577  140.2696  159.1788 H   0  0  0  0  0  0  0  0  0  0  0  0
  153.2935  141.0425  157.6622 H   0  0  0  0  0  0  0  0  0  0  0  0
  150.9039  141.7480  159.4494 H   0  0  0  0  0  0  0  0  0  0  0  0
  151.4222  144.5317  159.8391 H   0  0  0  0  0  0  0  0  0  0  0  0
  153.0981  144.9106  159.4082 H   0  0  0  0  0  0  0  0  0  0  0  0
  151.2995  145.1136  157.4337 H   0  0  0  0  0  0  0  0  0  0  0  0
  152.7666  144.1856  157.1299 H   0  0  0  0  0  0  0  0  0  0  0  0
  149.4107  143.8738  157.3699 H   0  0  0  0  0  0  0  0  0  0  0  0
  150.4992  142.9130  155.5004 H   0  0  0  0  0  0  0  0  0  0  0  0
  152.1207  142.3279  155.7821 H   0  0  0  0  0  0  0  0  0  0  0  0
  148.6528  141.1458  157.0059 H   0  0  0  0  0  0  0  0  0  0  0  0
  150.8972  134.4408  155.2403 H   0  0  0  0  0  0  0  0  0  0  0  0
  151.6096  135.4219  156.5202 H   0  0  0  0  0  0  0  0  0  0  0  0
  149.1639  133.7320  156.6266 H   0  0  0  0  0  0  0  0  0  0  0  0
  150.2078  134.2329  157.9528 H   0  0  0  0  0  0  0  0  0  0  0  0
  146.5989  137.3378  157.9939 H   0  0  0  0  0  0  0  0  0  0  0  0
  145.4009  136.0426  158.1089 H   0  0  0  0  0  0  0  0  0  0  0  0
  146.1413  136.4210  156.5662 H   0  0  0  0  0  0  0  0  0  0  0  0
  146.4224  134.8354  159.6775 H   0  0  0  0  0  0  0  0  0  0  0  0
  147.8944  133.9583  159.4574 H   0  0  0  0  0  0  0  0  0  0  0  0
  148.1949  135.5888  161.3322 H   0  0  0  0  0  0  0  0  0  0  0  0
  149.1818  136.0892  159.9858 H   0  0  0  0  0  0  0  0  0  0  0  0
  146.8302  137.1974  159.6381 H   0  0  0  0  0  0  0  0  0  0  0  0
  146.6891  135.6825  155.2543 H   0  0  0  0  0  0  0  0  0  0  0  0
  148.0249  134.6435  154.7752 H   0  0  0  0  0  0  0  0  0  0  0  0
  147.7635  136.1764  153.9614 H   0  0  0  0  0  0  0  0  0  0  0  0
  153.7936  138.3450  154.3267 H   0  0  0  0  0  0  0  0  0  0  0  0
  147.1424  134.5205  157.4248 H   0  0  0  0  0  0  0  0  0  0  0  0
  1  2  1  0  0  0  0
  1 31  1  0  0  0  0
  1 32  1  0  0  0  0
  1 33  1  0  0  0  0
  2  6  1  0  0  0  0
  2  3  1  0  0  0  0
  2 34  1  0  0  0  0
  3  4  1  0  0  0  0
  4  5  1  0  0  0  0
  4 35  1  0  0  0  0
  4 36  1  0  0  0  0
  5  6  1  0  0  0  0
  5 37  1  0  0  0  0
  5 38  1  0  0  0  0
  6  7  1  0  0  0  0
  6  8  1  0  0  0  0
  7 39  1  0  0  0  0
  8  9  1  0  0  0  0
  8 40  1  0  0  0  0
  8 41  1  0  0  0  0
  9 28  1  0  0  0  0
  9 10  1  0  0  0  0
 10 11  2  0  0  0  0
 10 42  1  0  0  0  0
 11 12  1  0  0  0  0
 12 28  2  0  0  0  0
 12 13  1  0  0  0  0
 13 14  1  0  0  0  0
 13 25  2  0  0  0  0
 14 23  1  0  0  0  0
 14 15  1  0  0  0  0
 15 16  1  0  0  0  0
 15 43  1  0  0  0  0
 15 44  1  0  0  0  0
 16 17  1  0  0  0  0
 16 45  1  0  0  0  0
 16 46  1  0  0  0  0
 17 29  1  0  0  0  0
 17 18  1  0  0  0  0
 17 23  1  0  0  0  0
 18 19  1  0  0  0  0
 18 20  1  0  0  0  0
 18 59  1  0  0  0  0
 19 47  1  0  0  0  0
 19 48  1  0  0  0  0
 19 49  1  0  0  0  0
 20 21  1  0  0  0  0
 20 50  1  0  0  0  0
 20 51  1  0  0  0  0
 21 22  1  0  0  0  0
 21 52  1  0  0  0  0
 21 53  1  0  0  0  0
 22 54  1  0  0  0  0
 23 30  1  0  0  0  0
 23 24  1  0  0  0  0
 24 55  1  0  0  0  0
 24 56  1  0  0  0  0
 24 57  1  0  0  0  0
 25 26  1  0  0  0  0
 26 27  2  0  0  0  0
 26 58  1  0  0  0  0
 27 28  1  0  0  0  0
M  CHG  1  18   1
M  END
> <s_m_source_file>
AV-unprocessed.smi

> <i_m_source_file_index>
290

> <i_lp_mmshare_version>
43012

> <i_f3d_flags>
0

> <s_epik_input>
W0NIMl0xW0NIMl1PW0NAQEhdKFtDSDNdKVtDQEBdMShbT0hdKVtDSDJdbihbY0hdbjIpYyhjMjMpbltjSF1uYzNONFtDSDJdW0NIMl1bQ0BIXShbQ0BIXTRbQ0gzXSlOKFtDSDNdKVtDSDJdW0NIMl1bT0hd

> <s_epik_cmdline>
J2VwaWtfcHl0aG9uJywgJy1waCcsICc3LjAnLCAnLXRuJywgJzgnLCAnLW1hJywgJzIwMCcsICctbWV0YWxfYmluZGluZycsICctaW1hZScsICc8aW5maWxlLm1hZT4nLCAnLW9tYWUnLCAnPG91dGZpbGUubWFlPic=

> <r_lp_tautomer_probability>
1

> <r_epik_Ionization_Penalty>
0.0036983

> <r_epik_Ionization_Penalty_Charging>
0.0032725

> <r_epik_Ionization_Penalty_Neutral>
0.000425798

> <r_epik_State_Penalty>
-0

> <r_epik_Charging_Adjusted_Penalty>
0.0032725

> <i_epik_Tot_Q>
1

> <i_epik_Tot_abs_Q>
1

> <r_epik_Metal_State_Penalty>
-0

> <b_epik_Metal_Only>
0

> <s_lp_Force_Field>
OPLS_2005

> <r_lp_Energy>
63.8525

> <b_lp_Chiralities_Consistent>
1

> <s_lp_Variant>
AV-unprocessed.smi:290-32

> <Gold.Version>
5.8.1

> <Gold.Id.Protein>
6NUR|6NUR_protein|mol2

> <Gold.PLP.Fitness>
50.3986

> <Gold.PLP.PLP>
-40.6891

> <Gold.PLP.part.hbond>
-4.8408

> <Gold.PLP.part.metal>
0.0000

> <Gold.PLP.part.buried>
-7.3230

> <Gold.PLP.part.nonpolar>
-29.5922

> <Gold.PLP.part.repulsive>
0.2306

> <Gold.PLP.ligand.clash>
0.0000

> <Gold.PLP.ligand.torsion>
0.7166

> <Gold.PLP.Chemscore.Hbond>
3.5352

> <Gold.PLP.Chemscore.CHOScore>
0.0000

> <Gold.PLP.Chemscore.Metal>
0.0000

> <Gold.Chemscore.Hbonds>
donor molecule, donor type, donor heavy atom, donor atom, acceptor molecule, acceptor atom, score
      L1  H     7    39       P1  8028  1.00
      P1  H  6934  6947       L1    22  0.78
      P1  H  7989  7998       L1    27  0.12
      P1  H  7997  8010       L1    27  0.62
      P1  H 10752 10764       L1    25  0.82

> <Gold.PLP.Chemscore.Internal.Correction>
0.5370

> <Gold.Rescore>
     Score         DG    S(hbond)    S(metal)    S(lipo)     H(rot)  DE(clash)    DE(int)     intcor
     10.29     -17.03       3.30        0.00      84.82       3.67       1.54       5.20       ----

> <Gold.Chemscore.Fitness>
10.2923

> <Gold.Chemscore.DG>
-17.0303

> <Gold.Chemscore.ZeroCoef>
-5.4800

> <Gold.Chemscore.Hbond>
3.2965

> <Gold.Chemscore.Metal>
0.0000

> <Gold.Chemscore.Lipo>
84.8235

> <Gold.Chemscore.Internal_Hbond>
0.0000

> <Gold.Chemscore.DEClash>
1.5411

> <Gold.Chemscore.DEInternal>
5.1969

> <Gold.Chemscore.Rot>
3.6658

> <Gold.Chemscore.Internal.Correction>
   9.000000E+99

> <Gold.Chemscore.Hbonds>
donor molecule, donor type, donor heavy atom, donor atom, acceptor molecule, acceptor atom, score
      L1  H     7    39       P1  8028  0.39
      P1  H  6931  6943       L1    22  0.01
      P1  H  6934  6947       L1    22  0.11
      P1  H  7997  8010       L1    27  0.09
      P1  H 10752 10764       L1    25  0.72

> <Gold.Chemscore.Hbond.Weighted>
-11.0104

> <Gold.Chemscore.Metal.Weighted>
-0.0000

> <Gold.Chemscore.Lipo.Weighted>
-9.9243

> <Gold.Chemscore.Internal_Hbond.Weighted>
0.0000

> <Gold.Chemscore.DEClash.Weighted>
1.5411

> <Gold.Chemscore.DEInternal.Weighted>
5.1969

> <Gold.Chemscore.Rot.Weighted>
9.3844

> <Gold.Chemscore.Internal.Correction.Weighted>
   9.000000E+99

> <Gold.Protein.RotatedTorsions>
[ 6907 6896 6895 6894 ] final  -13.46 input  -60.11 | X-H torsion
[ 7974 7965 7964 7962 ] final  104.29 input  175.53 | X-H torsion
[ 8008 7997 7996 7995 ] final   98.04 input   59.86 | X-H torsion
[ 10167 10162 10161 10158 ] final   65.89 input  -65.29 | X-H torsion
[ 10718 10713 10712 10709 ] final -165.64 input   66.30 | X-H torsion
[ 10763 10752 10751 10750 ] final  -60.61 input  -60.55 | X-H torsion
[ 11005 11000 10999 10996 ] final   85.43 input  -57.11 | X-H torsion

> <Gold.Protein.ActiveResidues>
 VAL166  LYS551  ARG553  GLY616  TRP617  ASP618  TYR619  PRO620  LYS621  CYS622 
 ASP623  PHE694  ASN695  SER759  ASP760  ASP761  ALA762  ILE779  LEU786  VAL792 
 PHE793  MET794  SER795  GLU796  ALA797  LYS798  CYS799  TRP800  GLU811  SER814 

> <Gold.Protein.RotatedAtoms>
  151.3546  135.0891  159.9414 H   0  0  0  0  0  0  0  0  0  0  0  0  # atno 6907 bound_to 6896
  152.5178  133.9318  159.7594 H   0  0  0  0  0  0  0  0  0  0  0  0  # atno 6908 bound_to 6896
  150.9700  133.6300  159.2769 H   0  0  0  0  0  0  0  0  0  0  0  0  # atno 6909 bound_to 6896
  145.3347  139.2477  143.3642 H   0  0  0  0  0  0  0  0  0  0  0  0  # atno 7974 bound_to 7965
  156.0963  140.3249  155.7883 H   0  0  0  0  0  0  0  0  0  0  0  0  # atno 8008 bound_to 7997
  155.4911  140.0561  157.2970 H   0  0  0  0  0  0  0  0  0  0  0  0  # atno 8009 bound_to 7997
  154.4669  140.1993  156.0111 H   0  0  0  0  0  0  0  0  0  0  0  0  # atno 8010 bound_to 7997
  140.1064  144.4858  150.7005 H   0  0  0  0  0  0  0  0  0  0  0  0  # atno 10167 bound_to 10162
  156.6564  130.9028  151.3022 H   0  0  0  0  0  0  0  0  0  0  0  0  # atno 10718 bound_to 10713
  154.2718  135.6289  153.5313 H   0  0  0  0  0  0  0  0  0  0  0  0  # atno 10763 bound_to 10752
  152.9879  135.5612  154.5592 H   0  0  0  0  0  0  0  0  0  0  0  0  # atno 10764 bound_to 10752
  154.5163  135.2880  155.1275 H   0  0  0  0  0  0  0  0  0  0  0  0  # atno 10765 bound_to 10752
  139.8972  134.8286  156.2581 H   0  0  0  0  0  0  0  0  0  0  0  0  # atno 11005 bound_to 11000
  146.3031  140.3932  142.8697 LP  0  0  0  0  0  0  0  0  0  0  0  0  # atno 17320 bound_to 7965
  144.8836  140.7433  143.5971 LP  0  0  0  0  0  0  0  0  0  0  0  0  # atno 17321 bound_to 7965
  140.6950  143.2398  151.5026 LP  0  0  0  0  0  0  0  0  0  0  0  0  # atno 17342 bound_to 10162
  139.5643  144.2080  152.1741 LP  0  0  0  0  0  0  0  0  0  0  0  0  # atno 17343 bound_to 10162
  157.7124  130.9456  150.1135 LP  0  0  0  0  0  0  0  0  0  0  0  0  # atno 17370 bound_to 10713
  156.2044  130.3662  149.8747 LP  0  0  0  0  0  0  0  0  0  0  0  0  # atno 17371 bound_to 10713
  141.0180  133.7057  156.1221 LP  0  0  0  0  0  0  0  0  0  0  0  0  # atno 17394 bound_to 11000
  140.7274  134.4292  157.5569 LP  0  0  0  0  0  0  0  0  0  0  0  0  # atno 17395 bound_to 11000

$$$$
