AV-unprocessed.smi:2391|AV-procd|sdf|9484|dock5
  -GOLD-   2272013113D 1   1.00000     0.00000
 Structure written by MMmdl.
 35 36  0  0  0  0  0  0  0  0  1 V2000
  149.7544  140.8051  158.2715 O   0  0  0  0  0  0  0  0  0  0  0  0
  150.4361  141.2558  157.3464 C   0  0  0  0  0  0  0  0  0  0  0  0
  150.4129  140.9090  156.0006 N   0  0  0  0  0  0  0  0  0  0  0  0
  149.3587  140.4095  155.4241 C   0  0  0  0  0  0  0  0  0  0  0  0
  149.3807  140.0519  154.0160 C   0  0  0  0  0  0  0  0  0  0  0  0
  148.2914  139.5330  153.4038 C   0  0  0  0  0  0  0  0  0  0  0  0
  147.0856  139.3388  154.1846 C   0  0  0  0  0  0  0  0  0  0  0  0
  147.0210  139.6419  155.4379 N   0  0  0  0  0  0  0  0  0  0  0  0
  148.1128  140.1573  156.0388 N   0  0  0  0  0  0  0  0  0  0  0  0
  151.3564  142.2106  157.5502 N   0  0  0  0  0  0  0  0  0  0  0  0
  151.6872  142.8478  158.8274 C   0  0  1  0  0  0  0  0  0  0  0  0
  152.9997  142.2390  159.3848 C   0  0  0  0  0  0  0  0  0  0  0  0
  153.0238  140.7055  159.4203 C   0  0  0  0  0  0  0  0  0  0  0  0
  154.1806  140.3660  160.3586 C   0  0  0  0  0  0  0  0  0  0  0  0
  154.2131  141.4974  161.3928 C   0  0  0  0  0  0  0  0  0  0  0  0
  153.3258  142.6207  160.8364 C   0  0  0  0  0  0  0  0  0  0  0  0
  151.7489  144.3782  158.6172 C   0  0  0  0  0  0  0  0  0  0  0  0
  150.6277  144.7988  158.0298 F   0  0  0  0  0  0  0  0  0  0  0  0
  151.8609  145.0171  159.7812 F   0  0  0  0  0  0  0  0  0  0  0  0
  152.7847  144.7051  157.8433 F   0  0  0  0  0  0  0  0  0  0  0  0
  150.2707  140.1901  153.4193 H   0  0  0  0  0  0  0  0  0  0  0  0
  148.3077  139.2653  152.3575 H   0  0  0  0  0  0  0  0  0  0  0  0
  146.2367  138.9201  153.6441 H   0  0  0  0  0  0  0  0  0  0  0  0
  151.8748  142.5327  156.7456 H   0  0  0  0  0  0  0  0  0  0  0  0
  150.8942  142.6530  159.5512 H   0  0  0  0  0  0  0  0  0  0  0  0
  153.8322  142.5638  158.7583 H   0  0  0  0  0  0  0  0  0  0  0  0
  152.0896  140.3254  159.8368 H   0  0  0  0  0  0  0  0  0  0  0  0
  153.1526  140.2609  158.4328 H   0  0  0  0  0  0  0  0  0  0  0  0
  154.0679  139.3833  160.8175 H   0  0  0  0  0  0  0  0  0  0  0  0
  155.1149  140.3603  159.7954 H   0  0  0  0  0  0  0  0  0  0  0  0
  153.8304  141.1565  162.3555 H   0  0  0  0  0  0  0  0  0  0  0  0
  155.2357  141.8414  161.5522 H   0  0  0  0  0  0  0  0  0  0  0  0
  153.8158  143.5926  160.9032 H   0  0  0  0  0  0  0  0  0  0  0  0
  152.4086  142.6759  161.4246 H   0  0  0  0  0  0  0  0  0  0  0  0
  148.0184  140.3784  157.0200 H   0  0  0  0  0  0  0  0  0  0  0  0
  1  2  2  0  0  0  0
  2  3  1  0  0  0  0
  2 10  1  0  0  0  0
  3  4  2  0  0  0  0
  4  9  1  0  0  0  0
  4  5  1  0  0  0  0
  5  6  2  0  0  0  0
  5 21  1  0  0  0  0
  6  7  1  0  0  0  0
  6 22  1  0  0  0  0
  7  8  2  0  0  0  0
  7 23  1  0  0  0  0
  8  9  1  0  0  0  0
  9 35  1  0  0  0  0
 10 11  1  0  0  0  0
 10 24  1  0  0  0  0
 11 12  1  0  0  0  0
 11 17  1  0  0  0  0
 11 25  1  0  0  0  0
 12 16  1  0  0  0  0
 12 13  1  0  0  0  0
 12 26  1  0  0  0  0
 13 14  1  0  0  0  0
 13 27  1  0  0  0  0
 13 28  1  0  0  0  0
 14 15  1  0  0  0  0
 14 29  1  0  0  0  0
 14 30  1  0  0  0  0
 15 16  1  0  0  0  0
 15 31  1  0  0  0  0
 15 32  1  0  0  0  0
 16 33  1  0  0  0  0
 16 34  1  0  0  0  0
 17 18  1  0  0  0  0
 17 19  1  0  0  0  0
 17 20  1  0  0  0  0
M  END
> <s_m_source_file>
AV-unprocessed.smi

> <i_m_source_file_index>
2391

> <i_lp_mmshare_version>
43012

> <i_f3d_flags>
0

> <s_epik_input>
W0NIMl0xW0NIMl1bQ0gyXVtDSDJdW0NIXTFbQ0BIXShDKEYpKEYpRilbTkhdQyg9TylbTkhdYzJbY0hdW2NIXVtjSF1ubjI=

> <s_epik_cmdline>
J2VwaWtfcHl0aG9uJywgJy1waCcsICc3LjAnLCAnLXRuJywgJzgnLCAnLW1hJywgJzIwMCcsICctbWV0YWxfYmluZGluZycsICctaW1hZScsICc8aW5maWxlLm1hZT4nLCAnLW9tYWUnLCAnPG91dGZpbGUubWFlPic=

> <r_epik_Ionization_Penalty>
0.0611197

> <r_epik_Ionization_Penalty_Charging>
0.0611196

> <r_epik_Ionization_Penalty_Neutral>
6.50554e-08

> <r_epik_State_Penalty>
2.29873

> <r_epik_Charging_Adjusted_Penalty>
2.35985

> <i_epik_Tot_Q>
0

> <i_epik_Tot_abs_Q>
0

> <r_epik_Metal_State_Penalty>
2.32932

> <b_epik_Metal_Only>
0

> <s_lp_Force_Field>
OPLS_2005

> <r_lp_Energy>
50.064

> <b_lp_Chiralities_Consistent>
1

> <s_lp_Variant>
AV-unprocessed.smi:2391-4

> <Gold.Version>
5.8.1

> <Gold.Id.Protein>
6NUR|6NUR_protein|mol2

> <Gold.PLP.Fitness>
45.3975

> <Gold.PLP.PLP>
-43.0780

> <Gold.PLP.part.hbond>
0.0000

> <Gold.PLP.part.metal>
0.0000

> <Gold.PLP.part.buried>
-3.7075

> <Gold.PLP.part.nonpolar>
-38.9037

> <Gold.PLP.part.repulsive>
0.2241

> <Gold.PLP.ligand.clash>
0.0000

> <Gold.PLP.ligand.torsion>
0.5032

> <Gold.PLP.Chemscore.Hbond>
0.0000

> <Gold.PLP.Chemscore.CHOScore>
1.0000

> <Gold.PLP.Chemscore.Metal>
0.0000

> <Gold.PLP.Chemscore.Internal.Correction>
0.3258

> <Gold.Rescore>
     Score         DG    S(hbond)    S(metal)    S(lipo)     H(rot)  DE(clash)    DE(int)     intcor
     11.51     -12.32       0.00        0.00      87.55       1.33       0.01       0.80       ----

> <Gold.Chemscore.Fitness>
11.5138

> <Gold.Chemscore.DG>
-12.3182

> <Gold.Chemscore.ZeroCoef>
-5.4800

> <Gold.Chemscore.Hbond>
0.0000

> <Gold.Chemscore.Metal>
0.0000

> <Gold.Chemscore.Lipo>
87.5550

> <Gold.Chemscore.Internal_Hbond>
0.0000

> <Gold.Chemscore.DEClash>
0.0060

> <Gold.Chemscore.DEInternal>
0.7984

> <Gold.Chemscore.Rot>
1.3304

> <Gold.Chemscore.Internal.Correction>
   9.000000E+99

> <Gold.Chemscore.Hbond.Weighted>
-0.0000

> <Gold.Chemscore.Metal.Weighted>
-0.0000

> <Gold.Chemscore.Lipo.Weighted>
-10.2439

> <Gold.Chemscore.Internal_Hbond.Weighted>
0.0000

> <Gold.Chemscore.DEClash.Weighted>
0.0060

> <Gold.Chemscore.DEInternal.Weighted>
0.7984

> <Gold.Chemscore.Rot.Weighted>
3.4057

> <Gold.Chemscore.Internal.Correction.Weighted>
   9.000000E+99

> <Gold.Protein.RotatedTorsions>
[ 6907 6896 6895 6894 ] final  150.94 input  -60.11 | X-H torsion
[ 7974 7965 7964 7962 ] final  169.74 input  175.53 | X-H torsion
[ 8008 7997 7996 7995 ] final  121.80 input   59.86 | X-H torsion
[ 10167 10162 10161 10158 ] final  168.19 input  -65.29 | X-H torsion
[ 10718 10713 10712 10709 ] final -141.22 input   66.30 | X-H torsion
[ 10763 10752 10751 10750 ] final -132.86 input  -60.55 | X-H torsion
[ 11005 11000 10999 10996 ] final -102.90 input  -57.11 | X-H torsion

> <Gold.Protein.ActiveResidues>
 VAL166  LYS551  ARG553  GLY616  TRP617  ASP618  TYR619  PRO620  LYS621  CYS622 
 ASP623  PHE694  ASN695  SER759  ASP760  ASP761  ALA762  ILE779  LEU786  VAL792 
 PHE793  MET794  SER795  GLU796  ALA797  LYS798  CYS799  TRP800  GLU811  SER814 

> <Gold.Protein.RotatedAtoms>
  152.1075  133.4282  159.4615 H   0  0  0  0  0  0  0  0  0  0  0  0  # atno 6907 bound_to 6896
  150.6866  134.2687  159.4588 H   0  0  0  0  0  0  0  0  0  0  0  0  # atno 6908 bound_to 6896
  152.0553  134.9627  160.0625 H   0  0  0  0  0  0  0  0  0  0  0  0  # atno 6909 bound_to 6896
  144.7345  139.9098  143.6414 H   0  0  0  0  0  0  0  0  0  0  0  0  # atno 7974 bound_to 7965
  156.2702  140.2800  156.1366 H   0  0  0  0  0  0  0  0  0  0  0  0  # atno 8008 bound_to 7997
  155.0997  140.0389  157.2711 H   0  0  0  0  0  0  0  0  0  0  0  0  # atno 8009 bound_to 7997
  154.6825  140.2611  155.6900 H   0  0  0  0  0  0  0  0  0  0  0  0  # atno 8010 bound_to 7997
  139.4962  144.3841  151.9589 H   0  0  0  0  0  0  0  0  0  0  0  0  # atno 10167 bound_to 10162
  156.3315  130.7588  151.1707 H   0  0  0  0  0  0  0  0  0  0  0  0  # atno 10718 bound_to 10713
  154.8739  135.3784  154.4478 H   0  0  0  0  0  0  0  0  0  0  0  0  # atno 10763 bound_to 10752
  153.5157  135.7029  153.5763 H   0  0  0  0  0  0  0  0  0  0  0  0  # atno 10764 bound_to 10752
  153.4032  135.3943  155.1967 H   0  0  0  0  0  0  0  0  0  0  0  0  # atno 10765 bound_to 10752
  141.1169  133.8596  157.1418 H   0  0  0  0  0  0  0  0  0  0  0  0  # atno 11005 bound_to 11000
  146.1009  139.4005  143.0347 LP  0  0  0  0  0  0  0  0  0  0  0  0  # atno 17320 bound_to 7965
  145.7579  140.9947  143.1215 LP  0  0  0  0  0  0  0  0  0  0  0  0  # atno 17321 bound_to 7965
  140.3278  144.3352  150.5994 LP  0  0  0  0  0  0  0  0  0  0  0  0  # atno 17342 bound_to 10162
  140.5670  143.2185  151.7666 LP  0  0  0  0  0  0  0  0  0  0  0  0  # atno 17343 bound_to 10162
  157.7431  131.0480  150.4972 LP  0  0  0  0  0  0  0  0  0  0  0  0  # atno 17370 bound_to 10713
  156.5139  130.4146  149.6286 LP  0  0  0  0  0  0  0  0  0  0  0  0  # atno 17371 bound_to 10713
  140.0098  134.9993  157.0370 LP  0  0  0  0  0  0  0  0  0  0  0  0  # atno 17394 bound_to 11000
  140.4619  134.1475  155.7192 LP  0  0  0  0  0  0  0  0  0  0  0  0  # atno 17395 bound_to 11000

$$$$
