AV-unprocessed.smi:3266|AV-procd|sdf|12501|dock10
  -GOLD-   2272018403D 1   1.00000     0.00000
 Structure written by MMmdl.
 38 39  0  0  0  0  0  0  0  0  1 V2000
  151.1289  140.3389  155.9877 O   0  0  0  0  0  0  0  0  0  0  0  0
  150.7022  141.4917  156.0594 C   0  0  0  0  0  0  0  0  0  0  0  0
  151.3565  142.4987  157.0082 C   0  0  0  0  0  0  0  0  0  0  0  0
  151.3561  142.0117  158.4679 C   0  0  0  0  0  0  0  0  0  0  0  0
  152.1822  142.9153  159.3944 C   0  0  1  0  0  0  0  0  0  0  0  0
  151.7742  144.3845  159.3475 C   0  0  0  0  0  0  0  0  0  0  0  0
  152.2974  144.9218  160.6677 C   0  0  0  0  0  0  0  0  0  0  0  0
  152.4085  143.6772  161.5552 C   0  0  0  0  0  0  0  0  0  0  0  0
  151.9620  142.5870  160.7570 O   0  0  0  0  0  0  0  0  0  0  0  0
  149.6679  141.9395  155.3314 N   0  0  0  0  0  0  0  0  0  0  0  0
  148.9178  141.1423  154.3656 C   0  0  0  0  0  0  0  0  0  0  0  0
  147.5261  140.7264  154.8819 C   0  0  0  0  0  0  0  0  0  0  0  0
  146.5378  141.8778  154.9739 C   0  0  0  0  0  0  0  0  0  0  0  0
  146.2209  142.6402  153.8293 C   0  0  0  0  0  0  0  0  0  0  0  0
  145.2943  143.6928  153.9579 C   0  0  0  0  0  0  0  0  0  0  0  0
  144.7210  143.9410  155.2197 C   0  0  0  0  0  0  0  0  0  0  0  0
  145.1029  143.1228  156.3016 C   0  0  0  0  0  0  0  0  0  0  0  0
  145.9908  142.1116  156.1889 N   0  0  0  0  0  0  0  0  0  0  0  0
  152.3797  142.6709  156.6719 H   0  0  0  0  0  0  0  0  0  0  0  0
  150.8407  143.4578  156.9398 H   0  0  0  0  0  0  0  0  0  0  0  0
  150.3287  141.9768  158.8335 H   0  0  0  0  0  0  0  0  0  0  0  0
  151.7374  140.9908  158.5237 H   0  0  0  0  0  0  0  0  0  0  0  0
  153.2468  142.8214  159.1722 H   0  0  0  0  0  0  0  0  0  0  0  0
  152.1797  144.9102  158.4825 H   0  0  0  0  0  0  0  0  0  0  0  0
  150.6872  144.4735  159.3198 H   0  0  0  0  0  0  0  0  0  0  0  0
  153.2791  145.3781  160.5353 H   0  0  0  0  0  0  0  0  0  0  0  0
  151.6310  145.6748  161.0894 H   0  0  0  0  0  0  0  0  0  0  0  0
  153.4438  143.5099  161.8551 H   0  0  0  0  0  0  0  0  0  0  0  0
  151.8025  143.7585  162.4579 H   0  0  0  0  0  0  0  0  0  0  0  0
  149.3867  142.9023  155.4467 H   0  0  0  0  0  0  0  0  0  0  0  0
  148.8197  141.6914  153.4277 H   0  0  0  0  0  0  0  0  0  0  0  0
  149.5047  140.2523  154.1372 H   0  0  0  0  0  0  0  0  0  0  0  0
  147.1086  139.9495  154.2399 H   0  0  0  0  0  0  0  0  0  0  0  0
  147.6286  140.2727  155.8683 H   0  0  0  0  0  0  0  0  0  0  0  0
  146.6759  142.4239  152.8738 H   0  0  0  0  0  0  0  0  0  0  0  0
  145.0276  144.2977  153.1039 H   0  0  0  0  0  0  0  0  0  0  0  0
  144.0060  144.7388  155.3554 H   0  0  0  0  0  0  0  0  0  0  0  0
  144.6838  143.2848  157.2837 H   0  0  0  0  0  0  0  0  0  0  0  0
  1  2  2  0  0  0  0
  2  3  1  0  0  0  0
  2 10  1  0  0  0  0
  3  4  1  0  0  0  0
  3 19  1  0  0  0  0
  3 20  1  0  0  0  0
  4  5  1  0  0  0  0
  4 21  1  0  0  0  0
  4 22  1  0  0  0  0
  5  9  1  0  0  0  0
  5  6  1  0  0  0  0
  5 23  1  0  0  0  0
  6  7  1  0  0  0  0
  6 24  1  0  0  0  0
  6 25  1  0  0  0  0
  7  8  1  0  0  0  0
  7 26  1  0  0  0  0
  7 27  1  0  0  0  0
  8  9  1  0  0  0  0
  8 28  1  0  0  0  0
  8 29  1  0  0  0  0
 10 11  1  0  0  0  0
 10 30  1  0  0  0  0
 11 12  1  0  0  0  0
 11 31  1  0  0  0  0
 11 32  1  0  0  0  0
 12 13  1  0  0  0  0
 12 33  1  0  0  0  0
 12 34  1  0  0  0  0
 13 18  1  0  0  0  0
 13 14  2  0  0  0  0
 14 15  1  0  0  0  0
 14 35  1  0  0  0  0
 15 16  2  0  0  0  0
 15 36  1  0  0  0  0
 16 17  1  0  0  0  0
 16 37  1  0  0  0  0
 17 18  2  0  0  0  0
 17 38  1  0  0  0  0
M  END
> <s_m_source_file>
AV-unprocessed.smi

> <i_m_source_file_index>
3266

> <i_lp_mmshare_version>
43012

> <i_f3d_flags>
0

> <s_epik_input>
TzFbQ0gyXVtDSDJdW0NIMl1bQ0BIXTFbQ0gyXVtDSDJdQyg9TylbTkhdW0NIMl1bQ0gyXWMyW2NIXVtjSF1bY0hdW2NIXW4y

> <s_epik_cmdline>
J2VwaWtfcHl0aG9uJywgJy1waCcsICc3LjAnLCAnLXRuJywgJzgnLCAnLW1hJywgJzIwMCcsICctbWV0YWxfYmluZGluZycsICctaW1hZScsICc8aW5maWxlLm1hZT4nLCAnLW9tYWUnLCAnPG91dGZpbGUubWFlPic=

> <r_epik_Ionization_Penalty>
0.0267142

> <r_epik_Ionization_Penalty_Charging>
0

> <r_epik_Ionization_Penalty_Neutral>
0.0267142

> <r_epik_State_Penalty>
0.0218233

> <r_epik_Charging_Adjusted_Penalty>
0.0218233

> <i_epik_Tot_Q>
0

> <i_epik_Tot_abs_Q>
0

> <r_epik_Metal_State_Penalty>
0.0208786

> <b_epik_Metal_Only>
0

> <s_lp_Force_Field>
OPLS_2005

> <r_lp_Energy>
16.882

> <b_lp_Chiralities_Consistent>
1

> <s_lp_Variant>
AV-unprocessed.smi:3266-2

> <Gold.Version>
5.8.1

> <Gold.Id.Protein>
6NUR|6NUR_protein|mol2

> <Gold.PLP.Fitness>
45.6475

> <Gold.PLP.PLP>
-42.9425

> <Gold.PLP.part.hbond>
-2.0000

> <Gold.PLP.part.metal>
0.0000

> <Gold.PLP.part.buried>
-8.4913

> <Gold.PLP.part.nonpolar>
-33.1568

> <Gold.PLP.part.repulsive>
0.3753

> <Gold.PLP.ligand.clash>
0.0000

> <Gold.PLP.ligand.torsion>
0.1870

> <Gold.PLP.Chemscore.Hbond>
1.0099

> <Gold.PLP.Chemscore.CHOScore>
0.0000

> <Gold.PLP.Chemscore.Metal>
0.0000

> <Gold.Chemscore.Hbonds>
donor molecule, donor type, donor heavy atom, donor atom, acceptor molecule, acceptor atom, score
      L1  H    10    30       P1  8028  1.00

> <Gold.PLP.Chemscore.Internal.Correction>
0.0494

> <Gold.Rescore>
     Score         DG    S(hbond)    S(metal)    S(lipo)     H(rot)  DE(clash)    DE(int)     intcor
     16.15     -16.86       1.01        0.00     105.90       1.71       0.45       0.25       ----

> <Gold.Chemscore.Fitness>
16.1532

> <Gold.Chemscore.DG>
-16.8570

> <Gold.Chemscore.ZeroCoef>
-5.4800

> <Gold.Chemscore.Hbond>
1.0093

> <Gold.Chemscore.Metal>
0.0000

> <Gold.Chemscore.Lipo>
105.9033

> <Gold.Chemscore.Internal_Hbond>
0.0000

> <Gold.Chemscore.DEClash>
0.4492

> <Gold.Chemscore.DEInternal>
0.2547

> <Gold.Chemscore.Rot>
1.7127

> <Gold.Chemscore.Internal.Correction>
   9.000000E+99

> <Gold.Chemscore.Hbonds>
donor molecule, donor type, donor heavy atom, donor atom, acceptor molecule, acceptor atom, score
      L1  H    10    30       P1  8028  1.00

> <Gold.Chemscore.Hbond.Weighted>
-3.3709

> <Gold.Chemscore.Metal.Weighted>
-0.0000

> <Gold.Chemscore.Lipo.Weighted>
-12.3907

> <Gold.Chemscore.Internal_Hbond.Weighted>
0.0000

> <Gold.Chemscore.DEClash.Weighted>
0.4492

> <Gold.Chemscore.DEInternal.Weighted>
0.2547

> <Gold.Chemscore.Rot.Weighted>
4.3846

> <Gold.Chemscore.Internal.Correction.Weighted>
   9.000000E+99

> <Gold.Protein.RotatedTorsions>
[ 6907 6896 6895 6894 ] final  114.56 input  -60.11 | X-H torsion
[ 7974 7965 7964 7962 ] final  174.25 input  175.53 | X-H torsion
[ 8008 7997 7996 7995 ] final   48.93 input   59.86 | X-H torsion
[ 10167 10162 10161 10158 ] final  118.77 input  -65.29 | X-H torsion
[ 10718 10713 10712 10709 ] final -110.70 input   66.30 | X-H torsion
[ 10763 10752 10751 10750 ] final  157.91 input  -60.55 | X-H torsion
[ 11005 11000 10999 10996 ] final  125.31 input  -57.11 | X-H torsion

> <Gold.Protein.ActiveResidues>
 VAL166  LYS551  ARG553  GLY616  TRP617  ASP618  TYR619  PRO620  LYS621  CYS622 
 ASP623  PHE694  ASN695  SER759  ASP760  ASP761  ALA762  ILE779  LEU786  VAL792 
 PHE793  MET794  SER795  GLU796  ALA797  LYS798  CYS799  TRP800  GLU811  SER814 

> <Gold.Protein.RotatedAtoms>
  152.4795  133.8219  159.7057 H   0  0  0  0  0  0  0  0  0  0  0  0  # atno 6907 bound_to 6896
  150.8834  133.7331  159.2932 H   0  0  0  0  0  0  0  0  0  0  0  0  # atno 6908 bound_to 6896
  151.4827  135.1057  159.9834 H   0  0  0  0  0  0  0  0  0  0  0  0  # atno 6909 bound_to 6896
  144.7225  139.9769  143.6438 H   0  0  0  0  0  0  0  0  0  0  0  0  # atno 7974 bound_to 7965
  155.3938  140.3434  155.4253 H   0  0  0  0  0  0  0  0  0  0  0  0  # atno 8008 bound_to 7997
  156.1542  140.1580  156.8752 H   0  0  0  0  0  0  0  0  0  0  0  0  # atno 8009 bound_to 7997
  154.5080  140.0797  156.7914 H   0  0  0  0  0  0  0  0  0  0  0  0  # atno 8010 bound_to 7997
  139.6090  144.7077  151.2888 H   0  0  0  0  0  0  0  0  0  0  0  0  # atno 10167 bound_to 10162
  156.0605  130.5829  150.8273 H   0  0  0  0  0  0  0  0  0  0  0  0  # atno 10718 bound_to 10713
  154.2076  135.2787  155.2969 H   0  0  0  0  0  0  0  0  0  0  0  0  # atno 10763 bound_to 10752
  154.5804  135.5591  153.7183 H   0  0  0  0  0  0  0  0  0  0  0  0  # atno 10764 bound_to 10752
  153.0072  135.6343  154.2215 H   0  0  0  0  0  0  0  0  0  0  0  0  # atno 10765 bound_to 10752
  139.9400  134.9636  156.8539 H   0  0  0  0  0  0  0  0  0  0  0  0  # atno 11005 bound_to 11000
  146.0518  139.3518  143.0635 LP  0  0  0  0  0  0  0  0  0  0  0  0  # atno 17320 bound_to 7965
  145.8205  140.9681  143.0901 LP  0  0  0  0  0  0  0  0  0  0  0  0  # atno 17321 bound_to 7965
  140.7305  143.6877  150.7948 LP  0  0  0  0  0  0  0  0  0  0  0  0  # atno 17342 bound_to 10162
  140.0468  143.5290  152.2692 LP  0  0  0  0  0  0  0  0  0  0  0  0  # atno 17343 bound_to 10162
  157.5610  131.0946  150.9559 LP  0  0  0  0  0  0  0  0  0  0  0  0  # atno 17370 bound_to 10713
  156.9796  130.5522  149.5295 LP  0  0  0  0  0  0  0  0  0  0  0  0  # atno 17371 bound_to 10713
  140.5975  134.0203  155.7524 LP  0  0  0  0  0  0  0  0  0  0  0  0  # atno 17394 bound_to 11000
  141.1031  133.9737  157.3044 LP  0  0  0  0  0  0  0  0  0  0  0  0  # atno 17395 bound_to 11000

$$$$
