AV-unprocessed.smi:1|AV-procd|sdf|5|dock6
  -GOLD-   2262015 93D 1   1.00000     0.00000
 Structure written by MMmdl.
 57 62  0  0  0  0  0  0  0  0  1 V2000
  153.3040  142.3370  162.4679 O   0  0  0  0  0  0  0  0  0  0  0  0
  153.4149  142.3279  161.2414 C   0  0  0  0  0  0  0  0  0  0  0  0
  154.2777  141.3861  160.5501 N   0  0  0  0  0  0  0  0  0  0  0  0
  154.9998  140.3698  161.0779 C   0  0  0  0  0  0  0  0  0  0  0  0
  154.9953  140.0841  162.4065 N   0  0  0  0  0  0  0  0  0  0  0  0
  155.7259  139.0704  162.8790 C   0  0  0  0  0  0  0  0  0  0  0  0
  156.5186  138.2316  162.2093 N   0  0  0  0  0  0  0  0  0  0  0  0
  156.5270  138.5077  160.8736 C   0  0  0  0  0  0  0  0  0  0  0  0
  155.7996  139.5524  160.2372 C   0  0  0  0  0  0  0  0  0  0  0  0
  156.0484  139.5345  158.8714 N   0  0  0  0  0  0  0  0  0  0  0  0
  156.8737  138.5349  158.7140 C   0  0  0  0  0  0  0  0  0  0  0  0
  157.2196  137.8646  159.8669 N   0  0  0  0  0  0  0  0  0  0  0  0
  158.1310  136.6863  159.9893 C   0  0  2  0  0  0  0  0  0  0  0  0
  158.6966  136.4070  158.7427 O   0  0  0  0  0  0  0  0  0  0  0  0
  158.3212  135.1050  158.2995 C   0  0  1  0  0  0  0  0  0  0  0  0
  159.4285  134.4688  157.4516 C   0  0  0  0  0  0  0  0  0  0  0  0
  159.2384  134.8361  156.0954 O   0  0  0  0  0  0  0  0  0  0  0  0
  160.1219  134.4423  155.1587 C   0  0  0  0  0  0  0  0  0  0  0  0
  161.1471  133.8062  155.4120 O   0  0  0  0  0  0  0  0  0  0  0  0
  159.7268  134.8534  153.7805 C   0  0  0  0  0  0  0  0  0  0  0  0
  158.5195  135.5651  153.5889 C   0  0  0  0  0  0  0  0  0  0  0  0
  158.1217  135.9685  152.2992 C   0  0  0  0  0  0  0  0  0  0  0  0
  158.9257  135.6642  151.1854 C   0  0  0  0  0  0  0  0  0  0  0  0
  160.1280  134.9553  151.3624 C   0  0  0  0  0  0  0  0  0  0  0  0
  160.5281  134.5516  152.6515 C   0  0  0  0  0  0  0  0  0  0  0  0
  157.9946  134.3488  159.5855 C   0  0  1  0  0  0  0  0  0  0  0  0
  159.1699  133.8754  160.2229 O   0  0  0  0  0  0  0  0  0  0  0  0
  159.0314  134.1663  161.8621 S   0  0  0  0  0  0  0  0  0  0  0  0
  158.6646  132.9066  162.5263 O   0  0  0  0  0  0  0  0  0  0  0  0
  160.1819  134.9802  162.2835 O   0  0  0  0  0  0  0  0  0  0  0  0
  157.6792  135.1482  161.8212 O   0  0  0  0  0  0  0  0  0  0  0  0
  157.3777  135.4367  160.4675 C   0  0  1  0  0  0  0  0  0  0  0  0
  152.7280  143.3472  160.3798 C   0  0  0  0  0  0  0  0  0  0  0  0
  152.6062  143.1303  158.9887 C   0  0  0  0  0  0  0  0  0  0  0  0
  151.9785  144.0888  158.1697 C   0  0  0  0  0  0  0  0  0  0  0  0
  151.4731  145.2756  158.7332 C   0  0  0  0  0  0  0  0  0  0  0  0
  151.6002  145.5055  160.1160 C   0  0  0  0  0  0  0  0  0  0  0  0
  152.2284  144.5479  160.9364 C   0  0  0  0  0  0  0  0  0  0  0  0
  154.3326  141.4918  159.5475 H   0  0  0  0  0  0  0  0  0  0  0  0
  155.6667  138.9089  163.9452 H   0  0  0  0  0  0  0  0  0  0  0  0
  157.2575  138.2584  157.7427 H   0  0  0  0  0  0  0  0  0  0  0  0
  158.9154  137.0094  160.6749 H   0  0  0  0  0  0  0  0  0  0  0  0
  157.4091  135.1818  157.7081 H   0  0  0  0  0  0  0  0  0  0  0  0
  160.4133  134.7809  157.8019 H   0  0  0  0  0  0  0  0  0  0  0  0
  159.3765  133.3822  157.5341 H   0  0  0  0  0  0  0  0  0  0  0  0
  157.8858  135.8108  154.4291 H   0  0  0  0  0  0  0  0  0  0  0  0
  157.1981  136.5121  152.1654 H   0  0  0  0  0  0  0  0  0  0  0  0
  158.6206  135.9738  150.1968 H   0  0  0  0  0  0  0  0  0  0  0  0
  160.7460  134.7203  150.5083 H   0  0  0  0  0  0  0  0  0  0  0  0
  161.4569  134.0091  152.7517 H   0  0  0  0  0  0  0  0  0  0  0  0
  157.3162  133.5115  159.4181 H   0  0  0  0  0  0  0  0  0  0  0  0
  156.3051  135.5302  160.2951 H   0  0  0  0  0  0  0  0  0  0  0  0
  152.9900  142.2251  158.5404 H   0  0  0  0  0  0  0  0  0  0  0  0
  151.8858  143.9134  157.1080 H   0  0  0  0  0  0  0  0  0  0  0  0
  150.9923  146.0105  158.1046 H   0  0  0  0  0  0  0  0  0  0  0  0
  151.2180  146.4189  160.5480 H   0  0  0  0  0  0  0  0  0  0  0  0
  152.3240  144.7493  161.9935 H   0  0  0  0  0  0  0  0  0  0  0  0
  1  2  2  0  0  0  0
  2  3  1  0  0  0  0
  2 33  1  0  0  0  0
  3  4  1  0  0  0  0
  3 39  1  0  0  0  0
  4  9  1  0  0  0  0
  4  5  2  0  0  0  0
  5  6  1  0  0  0  0
  6  7  2  0  0  0  0
  6 40  1  0  0  0  0
  7  8  1  0  0  0  0
  8 12  1  0  0  0  0
  8  9  2  0  0  0  0
  9 10  1  0  0  0  0
 10 11  2  0  0  0  0
 11 12  1  0  0  0  0
 11 41  1  0  0  0  0
 12 13  1  0  0  0  0
 13 32  1  0  0  0  0
 13 14  1  0  0  0  0
 13 42  1  0  0  0  0
 14 15  1  0  0  0  0
 15 16  1  0  0  0  0
 15 26  1  0  0  0  0
 15 43  1  0  0  0  0
 16 17  1  0  0  0  0
 16 44  1  0  0  0  0
 16 45  1  0  0  0  0
 17 18  1  0  0  0  0
 18 19  2  0  0  0  0
 18 20  1  0  0  0  0
 20 25  1  0  0  0  0
 20 21  2  0  0  0  0
 21 22  1  0  0  0  0
 21 46  1  0  0  0  0
 22 23  2  0  0  0  0
 22 47  1  0  0  0  0
 23 24  1  0  0  0  0
 23 48  1  0  0  0  0
 24 25  2  0  0  0  0
 24 49  1  0  0  0  0
 25 50  1  0  0  0  0
 26 32  1  0  0  0  0
 26 27  1  0  0  0  0
 26 51  1  0  0  0  0
 27 28  1  0  0  0  0
 28 29  2  0  0  0  0
 28 30  2  0  0  0  0
 28 31  1  0  0  0  0
 31 32  1  0  0  0  0
 32 52  1  0  0  0  0
 33 38  1  0  0  0  0
 33 34  2  0  0  0  0
 34 35  1  0  0  0  0
 34 53  1  0  0  0  0
 35 36  2  0  0  0  0
 35 54  1  0  0  0  0
 36 37  1  0  0  0  0
 36 55  1  0  0  0  0
 37 38  2  0  0  0  0
 37 56  1  0  0  0  0
 38 57  1  0  0  0  0
M  END
> <s_m_source_file>
AV-unprocessed.smi

> <i_m_source_file_index>
1

> <i_lp_mmshare_version>
43012

> <i_f3d_flags>
0

> <s_epik_input>
W2NIXTFbY0hdW2NIXVtjSF1bY0hdYzFDKD1PKVtOSF1jKG5bY0hdbjIpYyhjMjMpbltjSF1uM1tDQEBIXShbQ0BIXShbQ0BIXTQ1KU9TKE81KSg9Tyk9TylPW0NASF00W0NIMl1PQyg9TyljNltjSF1bY0hdW2NIXVtjSF1bY0hdNg==

> <s_epik_cmdline>
J2VwaWtfcHl0aG9uJywgJy1waCcsICc3LjAnLCAnLXRuJywgJzgnLCAnLW1hJywgJzIwMCcsICctbWV0YWxfYmluZGluZycsICctaW1hZScsICc8aW5maWxlLm1hZT4nLCAnLW9tYWUnLCAnPG91dGZpbGUubWFlPic=

> <r_lp_tautomer_probability>
1

> <r_epik_Ionization_Penalty>
0.00195722

> <r_epik_Ionization_Penalty_Charging>
0

> <r_epik_Ionization_Penalty_Neutral>
0.00195722

> <r_epik_State_Penalty>
0.00633741

> <r_epik_Charging_Adjusted_Penalty>
0.00633741

> <i_epik_Tot_Q>
0

> <i_epik_Tot_abs_Q>
0

> <r_epik_Metal_State_Penalty>
0.341185

> <b_epik_Metal_Only>
0

> <s_epik_Chemistry_Notes>
This compound has an ester and may undergo hydrolysis at high or low pH. This compound contains an acetal/aminal-like group ( X-CH(R)-Y where X, Y are N, S, or O) that may be acid/base labile, releasing an aldehyde.

> <s_lp_Force_Field>
OPLS_2005

> <r_lp_Energy>
45.5474

> <b_lp_Chiralities_Consistent>
1

> <s_lp_Variant>
AV-unprocessed.smi:1-5

> <Gold.Version>
5.8.1

> <Gold.Id.Protein>
6NUR|6NUR_protein|mol2

> <Gold.PLP.Fitness>
57.3907

> <Gold.PLP.PLP>
-55.2674

> <Gold.PLP.part.hbond>
-1.0000

> <Gold.PLP.part.metal>
0.0000

> <Gold.PLP.part.buried>
-9.1149

> <Gold.PLP.part.nonpolar>
-46.3703

> <Gold.PLP.part.repulsive>
1.3725

> <Gold.PLP.ligand.clash>
0.0000

> <Gold.PLP.ligand.torsion>
0.5255

> <Gold.PLP.Chemscore.Hbond>
1.0000

> <Gold.PLP.Chemscore.CHOScore>
0.0000

> <Gold.PLP.Chemscore.Metal>
0.0000

> <Gold.Chemscore.Hbonds>
donor molecule, donor type, donor heavy atom, donor atom, acceptor molecule, acceptor atom, score
      P1  H  7997  8008       L1    10  1.00

> <Gold.PLP.Chemscore.Internal.Correction>
0.1742

> <Gold.Rescore>
     Score         DG    S(hbond)    S(metal)    S(lipo)     H(rot)  DE(clash)    DE(int)     intcor
     17.85     -19.98       0.97        0.00     143.06       2.13       0.26       1.87       ----

> <Gold.Chemscore.Fitness>
17.8484

> <Gold.Chemscore.DG>
-19.9826

> <Gold.Chemscore.ZeroCoef>
-5.4800

> <Gold.Chemscore.Hbond>
0.9658

> <Gold.Chemscore.Metal>
0.0000

> <Gold.Chemscore.Lipo>
143.0611

> <Gold.Chemscore.Internal_Hbond>
0.0000

> <Gold.Chemscore.DEClash>
0.2623

> <Gold.Chemscore.DEInternal>
1.8719

> <Gold.Chemscore.Rot>
2.1333

> <Gold.Chemscore.Internal.Correction>
   9.000000E+99

> <Gold.Chemscore.Hbonds>
donor molecule, donor type, donor heavy atom, donor atom, acceptor molecule, acceptor atom, score
      P1  H  7997  8008       L1    10  0.78

> <Gold.Chemscore.Hbond.Weighted>
-3.2258

> <Gold.Chemscore.Metal.Weighted>
-0.0000

> <Gold.Chemscore.Lipo.Weighted>
-16.7382

> <Gold.Chemscore.Internal_Hbond.Weighted>
0.0000

> <Gold.Chemscore.DEClash.Weighted>
0.2623

> <Gold.Chemscore.DEInternal.Weighted>
1.8719

> <Gold.Chemscore.Rot.Weighted>
5.4614

> <Gold.Chemscore.Internal.Correction.Weighted>
   9.000000E+99

> <Gold.Protein.RotatedTorsions>
[ 6907 6896 6895 6894 ] final   -3.11 input  -60.11 | X-H torsion
[ 7974 7965 7964 7962 ] final -152.01 input  175.53 | X-H torsion
[ 8008 7997 7996 7995 ] final -134.85 input   59.86 | X-H torsion
[ 10167 10162 10161 10158 ] final   12.01 input  -65.29 | X-H torsion
[ 10718 10713 10712 10709 ] final  -15.23 input   66.30 | X-H torsion
[ 10763 10752 10751 10750 ] final   -0.07 input  -60.55 | X-H torsion
[ 11005 11000 10999 10996 ] final   47.77 input  -57.11 | X-H torsion

> <Gold.Protein.ActiveResidues>
 VAL166  LYS551  ARG553  GLY616  TRP617  ASP618  TYR619  PRO620  LYS621  CYS622 
 ASP623  PHE694  ASN695  SER759  ASP760  ASP761  ALA762  ILE779  LEU786  VAL792 
 PHE793  MET794  SER795  GLU796  ALA797  LYS798  CYS799  TRP800  GLU811  SER814 

> <Gold.Protein.RotatedAtoms>
  151.5190  135.1067  159.9873 H   0  0  0  0  0  0  0  0  0  0  0  0  # atno 6907 bound_to 6896
  152.4629  133.7856  159.6885 H   0  0  0  0  0  0  0  0  0  0  0  0  # atno 6908 bound_to 6896
  150.8599  133.7595  159.3021 H   0  0  0  0  0  0  0  0  0  0  0  0  # atno 6909 bound_to 6896
  144.7818  140.4720  143.5834 H   0  0  0  0  0  0  0  0  0  0  0  0  # atno 7974 bound_to 7965
  155.3690  140.0487  157.3045 H   0  0  0  0  0  0  0  0  0  0  0  0  # atno 8008 bound_to 7997
  154.5139  140.2201  155.9065 H   0  0  0  0  0  0  0  0  0  0  0  0  # atno 8009 bound_to 7997
  156.1615  140.3115  155.8820 H   0  0  0  0  0  0  0  0  0  0  0  0  # atno 8010 bound_to 7997
  140.6095  143.8437  150.7050 H   0  0  0  0  0  0  0  0  0  0  0  0  # atno 10167 bound_to 10162
  156.6046  130.4833  149.6226 H   0  0  0  0  0  0  0  0  0  0  0  0  # atno 10718 bound_to 10713
  153.3271  135.6973  153.6980 H   0  0  0  0  0  0  0  0  0  0  0  0  # atno 10763 bound_to 10752
  153.5797  135.3500  155.2870 H   0  0  0  0  0  0  0  0  0  0  0  0  # atno 10764 bound_to 10752
  154.8610  135.4292  154.2450 H   0  0  0  0  0  0  0  0  0  0  0  0  # atno 10765 bound_to 10752
  140.1250  134.4780  155.8567 H   0  0  0  0  0  0  0  0  0  0  0  0  # atno 11005 bound_to 11000
  145.6030  139.1505  143.3118 LP  0  0  0  0  0  0  0  0  0  0  0  0  # atno 17320 bound_to 7965
  146.2029  140.6151  142.9094 LP  0  0  0  0  0  0  0  0  0  0  0  0  # atno 17321 bound_to 7965
  140.2002  143.3965  152.1797 LP  0  0  0  0  0  0  0  0  0  0  0  0  # atno 17342 bound_to 10162
  139.5350  144.7200  151.4923 LP  0  0  0  0  0  0  0  0  0  0  0  0  # atno 17343 bound_to 10162
  156.2440  130.6868  151.1583 LP  0  0  0  0  0  0  0  0  0  0  0  0  # atno 17370 bound_to 10713
  157.7270  131.0642  150.5883 LP  0  0  0  0  0  0  0  0  0  0  0  0  # atno 17371 bound_to 10713
  141.2159  133.6774  156.6961 LP  0  0  0  0  0  0  0  0  0  0  0  0  # atno 17394 bound_to 11000
  140.2916  134.8236  157.4021 LP  0  0  0  0  0  0  0  0  0  0  0  0  # atno 17395 bound_to 11000

$$$$
