AV-unprocessed.smi:2694|AV-procd|sdf|10406|dock10
  -GOLD-   2272014443D 1   1.00000     0.00000
 Structure written by MMmdl.
 42 44  0  0  0  0  0  0  0  0  1 V2000
  151.1836  140.4928  155.2642 O   0  0  0  0  0  0  0  0  0  0  0  0
  150.7204  141.2000  156.1594 C   0  0  0  0  0  0  0  0  0  0  0  0
  151.5574  142.0546  157.0015 C   0  0  0  0  0  0  0  0  0  0  0  0
  151.0099  142.8157  157.9791 C   0  0  0  0  0  0  0  0  0  0  0  0
  151.8596  143.6956  158.8857 C   0  0  0  0  0  0  0  0  0  0  0  0
  152.6114  142.9719  160.0150 C   0  0  0  0  0  0  0  0  0  0  0  0
  152.2904  144.1728  160.9116 C   0  0  0  0  0  0  0  0  0  0  0  0
  151.1056  144.4645  159.9842 C   0  0  0  0  0  0  0  0  0  0  0  0
  149.6299  142.7910  158.2114 N   0  0  0  0  0  0  0  0  0  0  0  0
  148.8671  142.0427  157.4802 C   0  0  0  0  0  0  0  0  0  0  0  0
  149.3865  141.2416  156.4455 N   0  0  0  0  0  0  0  0  0  0  0  0
  148.4134  140.4359  155.6906 C   0  0  0  0  0  0  0  0  0  0  0  0
  148.3698  140.8210  154.1946 C   0  0  1  0  0  0  0  0  0  0  0  0
  148.6057  139.6869  153.3842 O   0  0  0  0  0  0  0  0  0  0  0  0
  147.0224  141.4293  153.7685 C   0  0  0  0  0  0  0  0  0  0  0  0
  146.4024  142.0552  154.8850 O   0  0  0  0  0  0  0  0  0  0  0  0
  145.6409  143.1847  154.6707 C   0  0  0  0  0  0  0  0  0  0  0  0
  145.5516  143.8539  153.4233 C   0  0  0  0  0  0  0  0  0  0  0  0
  144.7477  145.0019  153.2843 C   0  0  0  0  0  0  0  0  0  0  0  0
  144.0252  145.4965  154.3853 C   0  0  0  0  0  0  0  0  0  0  0  0
  144.1083  144.8414  155.6273 C   0  0  0  0  0  0  0  0  0  0  0  0
  144.9113  143.6926  155.7691 C   0  0  0  0  0  0  0  0  0  0  0  0
  144.9972  142.9079  157.3058 Cl  0  0  0  0  0  0  0  0  0  0  0  0
  152.6244  142.0724  156.8342 H   0  0  0  0  0  0  0  0  0  0  0  0
  152.5195  144.3492  158.3122 H   0  0  0  0  0  0  0  0  0  0  0  0
  152.1183  142.0581  160.3517 H   0  0  0  0  0  0  0  0  0  0  0  0
  153.6738  142.8128  159.8280 H   0  0  0  0  0  0  0  0  0  0  0  0
  152.0179  143.9194  161.9365 H   0  0  0  0  0  0  0  0  0  0  0  0
  153.0587  144.9470  160.8746 H   0  0  0  0  0  0  0  0  0  0  0  0
  150.9409  145.5211  159.7713 H   0  0  0  0  0  0  0  0  0  0  0  0
  150.1897  143.9711  160.3151 H   0  0  0  0  0  0  0  0  0  0  0  0
  147.7865  141.9839  157.6219 H   0  0  0  0  0  0  0  0  0  0  0  0
  148.5943  139.3647  155.8036 H   0  0  0  0  0  0  0  0  0  0  0  0
  147.4254  140.5892  156.1290 H   0  0  0  0  0  0  0  0  0  0  0  0
  149.1490  141.5496  153.9680 H   0  0  0  0  0  0  0  0  0  0  0  0
  149.0410  139.9668  152.5936 H   0  0  0  0  0  0  0  0  0  0  0  0
  147.2053  142.1814  152.9993 H   0  0  0  0  0  0  0  0  0  0  0  0
  146.3782  140.6619  153.3354 H   0  0  0  0  0  0  0  0  0  0  0  0
  146.0902  143.5060  152.5552 H   0  0  0  0  0  0  0  0  0  0  0  0
  144.6858  145.5038  152.3299 H   0  0  0  0  0  0  0  0  0  0  0  0
  143.4086  146.3768  154.2775 H   0  0  0  0  0  0  0  0  0  0  0  0
  143.5540  145.2214  156.4731 H   0  0  0  0  0  0  0  0  0  0  0  0
  1  2  2  0  0  0  0
  2 11  1  0  0  0  0
  2  3  1  0  0  0  0
  3  4  2  0  0  0  0
  3 24  1  0  0  0  0
  4  5  1  0  0  0  0
  4  9  1  0  0  0  0
  5  8  1  0  0  0  0
  5  6  1  0  0  0  0
  5 25  1  0  0  0  0
  6  7  1  0  0  0  0
  6 26  1  0  0  0  0
  6 27  1  0  0  0  0
  7  8  1  0  0  0  0
  7 28  1  0  0  0  0
  7 29  1  0  0  0  0
  8 30  1  0  0  0  0
  8 31  1  0  0  0  0
  9 10  2  0  0  0  0
 10 11  1  0  0  0  0
 10 32  1  0  0  0  0
 11 12  1  0  0  0  0
 12 13  1  0  0  0  0
 12 33  1  0  0  0  0
 12 34  1  0  0  0  0
 13 14  1  0  0  0  0
 13 15  1  0  0  0  0
 13 35  1  0  0  0  0
 14 36  1  0  0  0  0
 15 16  1  0  0  0  0
 15 37  1  0  0  0  0
 15 38  1  0  0  0  0
 16 17  1  0  0  0  0
 17 22  1  0  0  0  0
 17 18  2  0  0  0  0
 18 19  1  0  0  0  0
 18 39  1  0  0  0  0
 19 20  2  0  0  0  0
 19 40  1  0  0  0  0
 20 21  1  0  0  0  0
 20 41  1  0  0  0  0
 21 22  2  0  0  0  0
 21 42  1  0  0  0  0
 22 23  1  0  0  0  0
M  END
> <s_m_source_file>
AV-unprocessed.smi

> <i_m_source_file_index>
2694

> <i_lp_mmshare_version>
43012

> <i_f3d_flags>
0

> <s_epik_input>
W0NIMl0xW0NIMl1bQ0gyXVtDSF0xYyhbY0hdYzI9TyluW2NIXW4yW0NIMl1bQ0BIXShbT0hdKVtDSDJdT2MzW2NIXVtjSF1bY0hdW2NIXWMzQ2w=

> <s_epik_cmdline>
J2VwaWtfcHl0aG9uJywgJy1waCcsICc3LjAnLCAnLXRuJywgJzgnLCAnLW1hJywgJzIwMCcsICctbWV0YWxfYmluZGluZycsICctaW1hZScsICc8aW5maWxlLm1hZT4nLCAnLW9tYWUnLCAnPG91dGZpbGUubWFlPic=

> <r_lp_tautomer_probability>
1

> <r_epik_Ionization_Penalty>
1.78212e-05

> <r_epik_Ionization_Penalty_Charging>
5.61663e-08

> <r_epik_Ionization_Penalty_Neutral>
1.7765e-05

> <r_epik_State_Penalty>
-0

> <r_epik_Charging_Adjusted_Penalty>
5.61663e-08

> <i_epik_Tot_Q>
0

> <i_epik_Tot_abs_Q>
0

> <r_epik_Metal_State_Penalty>
-0

> <b_epik_Metal_Only>
0

> <s_lp_Force_Field>
OPLS_2005

> <r_lp_Energy>
33.164

> <b_lp_Chiralities_Consistent>
1

> <s_lp_Variant>
AV-unprocessed.smi:2694-2

> <Gold.Version>
5.8.1

> <Gold.Id.Protein>
6NUR|6NUR_protein|mol2

> <Gold.PLP.Fitness>
52.5934

> <Gold.PLP.PLP>
-49.6583

> <Gold.PLP.part.hbond>
-1.7532

> <Gold.PLP.part.metal>
0.0000

> <Gold.PLP.part.buried>
-8.9914

> <Gold.PLP.part.nonpolar>
-39.3055

> <Gold.PLP.part.repulsive>
0.3600

> <Gold.PLP.ligand.clash>
0.0000

> <Gold.PLP.ligand.torsion>
1.6820

> <Gold.PLP.Chemscore.Hbond>
1.9440

> <Gold.PLP.Chemscore.CHOScore>
0.0000

> <Gold.PLP.Chemscore.Metal>
0.0000

> <Gold.Chemscore.Hbonds>
donor molecule, donor type, donor heavy atom, donor atom, acceptor molecule, acceptor atom, score
      L1  H    14    36       P1  7957  1.00
      P1  H  7989  7998       L1     1  0.94

> <Gold.PLP.Chemscore.Internal.Correction>
0.4671

> <Gold.Rescore>
     Score         DG    S(hbond)    S(metal)    S(lipo)     H(rot)  DE(clash)    DE(int)     intcor
     17.31     -19.99       1.93        0.00     122.09       2.42       1.13       1.55       ----

> <Gold.Chemscore.Fitness>
17.3097

> <Gold.Chemscore.DG>
-19.9889

> <Gold.Chemscore.ZeroCoef>
-5.4800

> <Gold.Chemscore.Hbond>
1.9254

> <Gold.Chemscore.Metal>
0.0000

> <Gold.Chemscore.Lipo>
122.0916

> <Gold.Chemscore.Internal_Hbond>
0.0000

> <Gold.Chemscore.DEClash>
1.1335

> <Gold.Chemscore.DEInternal>
1.5456

> <Gold.Chemscore.Rot>
2.4245

> <Gold.Chemscore.Internal.Correction>
   9.000000E+99

> <Gold.Chemscore.Hbonds>
donor molecule, donor type, donor heavy atom, donor atom, acceptor molecule, acceptor atom, score
      L1  H    14    36       P1  7957  0.94
      P1  H  7989  7998       L1     1  0.91

> <Gold.Chemscore.Hbond.Weighted>
-6.4308

> <Gold.Chemscore.Metal.Weighted>
-0.0000

> <Gold.Chemscore.Lipo.Weighted>
-14.2847

> <Gold.Chemscore.Internal_Hbond.Weighted>
0.0000

> <Gold.Chemscore.DEClash.Weighted>
1.1335

> <Gold.Chemscore.DEInternal.Weighted>
1.5456

> <Gold.Chemscore.Rot.Weighted>
6.2066

> <Gold.Chemscore.Internal.Correction.Weighted>
   9.000000E+99

> <Gold.Protein.RotatedTorsions>
[ 6907 6896 6895 6894 ] final  169.36 input  -60.11 | X-H torsion
[ 7974 7965 7964 7962 ] final -114.97 input  175.53 | X-H torsion
[ 8008 7997 7996 7995 ] final -164.36 input   59.86 | X-H torsion
[ 10167 10162 10161 10158 ] final  167.17 input  -65.29 | X-H torsion
[ 10718 10713 10712 10709 ] final -143.31 input   66.30 | X-H torsion
[ 10763 10752 10751 10750 ] final  -37.74 input  -60.55 | X-H torsion
[ 11005 11000 10999 10996 ] final   -4.17 input  -57.11 | X-H torsion

> <Gold.Protein.ActiveResidues>
 VAL166  LYS551  ARG553  GLY616  TRP617  ASP618  TYR619  PRO620  LYS621  CYS622 
 ASP623  PHE694  ASN695  SER759  ASP760  ASP761  ALA762  ILE779  LEU786  VAL792 
 PHE793  MET794  SER795  GLU796  ALA797  LYS798  CYS799  TRP800  GLU811  SER814 

> <Gold.Protein.RotatedAtoms>
  151.8331  133.3412  159.3619 H   0  0  0  0  0  0  0  0  0  0  0  0  # atno 6907 bound_to 6896
  150.7258  134.5463  159.5782 H   0  0  0  0  0  0  0  0  0  0  0  0  # atno 6908 bound_to 6896
  152.2921  134.7711  160.0427 H   0  0  0  0  0  0  0  0  0  0  0  0  # atno 6909 bound_to 6896
  145.1138  140.8628  143.3854 H   0  0  0  0  0  0  0  0  0  0  0  0  # atno 7974 bound_to 7965
  155.8345  140.0939  157.1772 H   0  0  0  0  0  0  0  0  0  0  0  0  # atno 8008 bound_to 7997
  154.3980  140.1412  156.3715 H   0  0  0  0  0  0  0  0  0  0  0  0  # atno 8009 bound_to 7997
  155.8131  140.3449  155.5471 H   0  0  0  0  0  0  0  0  0  0  0  0  # atno 8010 bound_to 7997
  139.4939  144.3950  151.9474 H   0  0  0  0  0  0  0  0  0  0  0  0  # atno 10167 bound_to 10162
  156.3564  130.7715  151.1876 H   0  0  0  0  0  0  0  0  0  0  0  0  # atno 10718 bound_to 10713
  153.9012  135.6802  153.4755 H   0  0  0  0  0  0  0  0  0  0  0  0  # atno 10763 bound_to 10752
  153.1128  135.4775  154.9062 H   0  0  0  0  0  0  0  0  0  0  0  0  # atno 10764 bound_to 10752
  154.7574  135.3201  154.8398 H   0  0  0  0  0  0  0  0  0  0  0  0  # atno 10765 bound_to 10752
  140.6773  133.9184  155.8533 H   0  0  0  0  0  0  0  0  0  0  0  0  # atno 11005 bound_to 11000
  145.0817  139.2955  143.5780 LP  0  0  0  0  0  0  0  0  0  0  0  0  # atno 17320 bound_to 7965
  146.3525  140.0325  142.8649 LP  0  0  0  0  0  0  0  0  0  0  0  0  # atno 17321 bound_to 7965
  140.3388  144.3228  150.5971 LP  0  0  0  0  0  0  0  0  0  0  0  0  # atno 17342 bound_to 10162
  140.5583  143.2196  151.7809 LP  0  0  0  0  0  0  0  0  0  0  0  0  # atno 17343 bound_to 10162
  157.7468  131.0413  150.4638 LP  0  0  0  0  0  0  0  0  0  0  0  0  # atno 17370 bound_to 10713
  156.4841  130.4080  149.6444 LP  0  0  0  0  0  0  0  0  0  0  0  0  # atno 17371 bound_to 10713
  141.0345  134.0709  157.3975 LP  0  0  0  0  0  0  0  0  0  0  0  0  # atno 17394 bound_to 11000
  139.8962  135.0145  156.7042 LP  0  0  0  0  0  0  0  0  0  0  0  0  # atno 17395 bound_to 11000

$$$$
