AV-unprocessed.smi:1907|AV-procd|sdf|7731|dock2
  -GOLD-   22720 9473D 1   1.00000     0.00000
 Structure written by MMmdl.
 32 33  0  0  0  0  0  0  0  0  1 V2000
  151.0858  136.9332  153.9476 N   0  0  0  0  0  0  0  0  0  0  0  0
  150.9437  137.4326  155.1786 C   0  0  0  0  0  0  0  0  0  0  0  0
  151.8852  137.5255  155.9631 O   0  0  0  0  0  0  0  0  0  0  0  0
  149.5432  137.8902  155.5906 C   0  0  0  0  0  0  0  0  0  0  0  0
  149.3818  139.3619  155.3441 C   0  0  0  0  0  0  0  0  0  0  0  0
  148.5632  139.9612  154.4172 C   0  0  0  0  0  0  0  0  0  0  0  0
  148.6887  141.6999  154.4595 S   0  0  0  0  0  0  0  0  0  0  0  0
  149.8429  141.5454  155.7743 C   0  0  0  0  0  0  0  0  0  0  0  0
  150.4733  142.6707  156.3647 N   0  0  0  0  0  0  0  0  0  0  0  0
  151.3893  142.7267  157.3525 C   0  0  0  0  0  0  0  0  0  0  0  0
  151.8054  141.6836  157.8556 O   0  0  0  0  0  0  0  0  0  0  0  0
  151.9473  144.0828  157.8454 C   0  0  0  0  0  0  0  0  0  0  0  0
  153.0696  143.9259  158.8880 C   0  0  0  0  0  0  0  0  0  0  0  0
  152.4012  143.9456  160.2715 C   0  0  0  0  0  0  0  0  0  0  0  0
  150.9605  144.4270  160.0553 C   0  0  0  0  0  0  0  0  0  0  0  0
  150.8889  144.8999  158.6009 C   0  0  0  0  0  0  0  0  0  0  0  0
  150.1246  140.2787  156.0946 N   0  0  0  0  0  0  0  0  0  0  0  0
  151.9946  136.6262  153.6328 H   0  0  0  0  0  0  0  0  0  0  0  0
  150.2864  136.8711  153.3340 H   0  0  0  0  0  0  0  0  0  0  0  0
  148.7958  137.3193  155.0377 H   0  0  0  0  0  0  0  0  0  0  0  0
  149.3870  137.6582  156.6449 H   0  0  0  0  0  0  0  0  0  0  0  0
  147.8973  139.4851  153.7127 H   0  0  0  0  0  0  0  0  0  0  0  0
  150.1952  143.5631  155.9831 H   0  0  0  0  0  0  0  0  0  0  0  0
  152.3497  144.6385  156.9990 H   0  0  0  0  0  0  0  0  0  0  0  0
  153.6709  143.0275  158.7395 H   0  0  0  0  0  0  0  0  0  0  0  0
  153.7526  144.7724  158.8067 H   0  0  0  0  0  0  0  0  0  0  0  0
  152.4035  142.9512  160.7193 H   0  0  0  0  0  0  0  0  0  0  0  0
  152.9420  144.6078  160.9483 H   0  0  0  0  0  0  0  0  0  0  0  0
  150.2719  143.5945  160.2050 H   0  0  0  0  0  0  0  0  0  0  0  0
  150.6768  145.2135  160.7552 H   0  0  0  0  0  0  0  0  0  0  0  0
  151.1447  145.9588  158.5440 H   0  0  0  0  0  0  0  0  0  0  0  0
  149.8848  144.7905  158.1886 H   0  0  0  0  0  0  0  0  0  0  0  0
  1  2  1  0  0  0  0
  1 18  1  0  0  0  0
  1 19  1  0  0  0  0
  2  3  2  0  0  0  0
  2  4  1  0  0  0  0
  4  5  1  0  0  0  0
  4 20  1  0  0  0  0
  4 21  1  0  0  0  0
  5 17  1  0  0  0  0
  5  6  2  0  0  0  0
  6  7  1  0  0  0  0
  6 22  1  0  0  0  0
  7  8  1  0  0  0  0
  8  9  1  0  0  0  0
  8 17  2  0  0  0  0
  9 10  1  0  0  0  0
  9 23  1  0  0  0  0
 10 11  2  0  0  0  0
 10 12  1  0  0  0  0
 12 16  1  0  0  0  0
 12 13  1  0  0  0  0
 12 24  1  0  0  0  0
 13 14  1  0  0  0  0
 13 25  1  0  0  0  0
 13 26  1  0  0  0  0
 14 15  1  0  0  0  0
 14 27  1  0  0  0  0
 14 28  1  0  0  0  0
 15 16  1  0  0  0  0
 15 29  1  0  0  0  0
 15 30  1  0  0  0  0
 16 31  1  0  0  0  0
 16 32  1  0  0  0  0
M  END
> <s_m_source_file>
AV-unprocessed.smi

> <i_m_source_file_index>
1907

> <i_lp_mmshare_version>
43012

> <i_f3d_flags>
0

> <s_epik_input>
W05IMl1DKD1PKVtDSDJdYzFbY0hdc2MobjEpW05IXUMoPU8pW0NIXTJbQ0gyXVtDSDJdW0NIMl1bQ0gyXTI=

> <s_epik_cmdline>
J2VwaWtfcHl0aG9uJywgJy1waCcsICc3LjAnLCAnLXRuJywgJzgnLCAnLW1hJywgJzIwMCcsICctbWV0YWxfYmluZGluZycsICctaW1hZScsICc8aW5maWxlLm1hZT4nLCAnLW9tYWUnLCAnPG91dGZpbGUubWFlPic=

> <r_lp_tautomer_probability>
1

> <r_epik_Ionization_Penalty>
0.00017492

> <r_epik_Ionization_Penalty_Charging>
0

> <r_epik_Ionization_Penalty_Neutral>
0.00017492

> <r_epik_State_Penalty>
-0

> <r_epik_Charging_Adjusted_Penalty>
0

> <i_epik_Tot_Q>
0

> <i_epik_Tot_abs_Q>
0

> <r_epik_Metal_State_Penalty>
0.109333

> <b_epik_Metal_Only>
0

> <s_lp_Force_Field>
OPLS_2005

> <r_lp_Energy>
23.3326

> <b_lp_Chiralities_Consistent>
1

> <s_lp_Variant>
AV-unprocessed.smi:1907-1

> <Gold.Version>
5.8.1

> <Gold.Id.Protein>
6NUR|6NUR_protein|mol2

> <Gold.PLP.Fitness>
37.4818

> <Gold.PLP.PLP>
-33.4674

> <Gold.PLP.part.hbond>
-3.0000

> <Gold.PLP.part.metal>
0.0000

> <Gold.PLP.part.buried>
-4.5462

> <Gold.PLP.part.nonpolar>
-26.9193

> <Gold.PLP.part.repulsive>
0.2056

> <Gold.PLP.ligand.clash>
0.0000

> <Gold.PLP.ligand.torsion>
0.5006

> <Gold.PLP.Chemscore.Hbond>
1.6620

> <Gold.PLP.Chemscore.CHOScore>
0.0000

> <Gold.PLP.Chemscore.Metal>
0.0000

> <Gold.Chemscore.Hbonds>
donor molecule, donor type, donor heavy atom, donor atom, acceptor molecule, acceptor atom, score
      L1  H     1    19       P1  7948  0.55
      L1  H     9    23       P1  8028  0.98

> <Gold.PLP.Chemscore.Internal.Correction>
0.0296

> <Gold.Rescore>
     Score         DG    S(hbond)    S(metal)    S(lipo)     H(rot)  DE(clash)    DE(int)     intcor
     13.25     -15.24       1.63        0.00      78.65       1.90       0.05       1.95       ----

> <Gold.Chemscore.Fitness>
13.2494

> <Gold.Chemscore.DG>
-15.2447

> <Gold.Chemscore.ZeroCoef>
-5.4800

> <Gold.Chemscore.Hbond>
1.6270

> <Gold.Chemscore.Metal>
0.0000

> <Gold.Chemscore.Lipo>
78.6468

> <Gold.Chemscore.Internal_Hbond>
0.0000

> <Gold.Chemscore.DEClash>
0.0477

> <Gold.Chemscore.DEInternal>
1.9476

> <Gold.Chemscore.Rot>
1.9028

> <Gold.Chemscore.Internal.Correction>
   9.000000E+99

> <Gold.Chemscore.Hbonds>
donor molecule, donor type, donor heavy atom, donor atom, acceptor molecule, acceptor atom, score
      L1  H     1    19       P1  7948  0.03
      L1  H     9    23       P1  8028  0.93

> <Gold.Chemscore.Hbond.Weighted>
-5.4342

> <Gold.Chemscore.Metal.Weighted>
-0.0000

> <Gold.Chemscore.Lipo.Weighted>
-9.2017

> <Gold.Chemscore.Internal_Hbond.Weighted>
0.0000

> <Gold.Chemscore.DEClash.Weighted>
0.0477

> <Gold.Chemscore.DEInternal.Weighted>
1.9476

> <Gold.Chemscore.Rot.Weighted>
4.8711

> <Gold.Chemscore.Internal.Correction.Weighted>
   9.000000E+99

> <Gold.Protein.RotatedTorsions>
[ 6907 6896 6895 6894 ] final -107.78 input  -60.11 | X-H torsion
[ 7974 7965 7964 7962 ] final   63.71 input  175.53 | X-H torsion
[ 8008 7997 7996 7995 ] final -108.68 input   59.86 | X-H torsion
[ 10167 10162 10161 10158 ] final  -88.73 input  -65.29 | X-H torsion
[ 10718 10713 10712 10709 ] final -154.65 input   66.30 | X-H torsion
[ 10763 10752 10751 10750 ] final   24.13 input  -60.55 | X-H torsion
[ 11005 11000 10999 10996 ] final   51.46 input  -57.11 | X-H torsion

> <Gold.Protein.ActiveResidues>
 VAL166  LYS551  ARG553  GLY616  TRP617  ASP618  TYR619  PRO620  LYS621  CYS622 
 ASP623  PHE694  ASN695  SER759  ASP760  ASP761  ALA762  ILE779  LEU786  VAL792 
 PHE793  MET794  SER795  GLU796  ALA797  LYS798  CYS799  TRP800  GLU811  SER814 

> <Gold.Protein.RotatedAtoms>
  150.7464  133.9775  159.3565 H   0  0  0  0  0  0  0  0  0  0  0  0  # atno 6907 bound_to 6896
  151.7714  135.0783  160.0370 H   0  0  0  0  0  0  0  0  0  0  0  0  # atno 6908 bound_to 6896
  152.3336  133.5950  159.5863 H   0  0  0  0  0  0  0  0  0  0  0  0  # atno 6909 bound_to 6896
  145.8586  139.3300  143.0832 H   0  0  0  0  0  0  0  0  0  0  0  0  # atno 7974 bound_to 7965
  154.9480  140.0401  157.2130 H   0  0  0  0  0  0  0  0  0  0  0  0  # atno 8008 bound_to 7997
  154.8006  140.2851  155.5902 H   0  0  0  0  0  0  0  0  0  0  0  0  # atno 8009 bound_to 7997
  156.2961  140.2556  156.2873 H   0  0  0  0  0  0  0  0  0  0  0  0  # atno 8010 bound_to 7997
  140.3718  143.2791  151.9491 H   0  0  0  0  0  0  0  0  0  0  0  0  # atno 10167 bound_to 10162
  156.5021  130.8396  151.2613 H   0  0  0  0  0  0  0  0  0  0  0  0  # atno 10718 bound_to 10713
  153.0786  135.6612  154.0092 H   0  0  0  0  0  0  0  0  0  0  0  0  # atno 10763 bound_to 10752
  153.9720  135.2963  155.3428 H   0  0  0  0  0  0  0  0  0  0  0  0  # atno 10764 bound_to 10752
  154.7180  135.5177  153.8839 H   0  0  0  0  0  0  0  0  0  0  0  0  # atno 10765 bound_to 10752
  140.0931  134.5183  155.8833 H   0  0  0  0  0  0  0  0  0  0  0  0  # atno 11005 bound_to 11000
  145.9274  140.9073  143.0374 LP  0  0  0  0  0  0  0  0  0  0  0  0  # atno 17320 bound_to 7965
  144.6727  140.1371  143.7439 LP  0  0  0  0  0  0  0  0  0  0  0  0  # atno 17321 bound_to 7965
  139.4803  144.5900  151.7788 LP  0  0  0  0  0  0  0  0  0  0  0  0  # atno 17342 bound_to 10162
  140.5026  144.1147  150.5974 LP  0  0  0  0  0  0  0  0  0  0  0  0  # atno 17343 bound_to 10162
  157.7461  130.9978  150.2829 LP  0  0  0  0  0  0  0  0  0  0  0  0  # atno 17370 bound_to 10713
  156.3322  130.3802  149.7481 LP  0  0  0  0  0  0  0  0  0  0  0  0  # atno 17371 bound_to 10713
  141.2084  133.6673  156.6367 LP  0  0  0  0  0  0  0  0  0  0  0  0  # atno 17394 bound_to 11000
  140.3325  134.7917  157.4337 LP  0  0  0  0  0  0  0  0  0  0  0  0  # atno 17395 bound_to 11000

$$$$
