AV-unprocessed.smi:2772|AV-procd|sdf|10675|dock2
  -GOLD-   2272015123D 1   1.00000     0.00000
 Structure written by MMmdl.
 56 58  0  0  0  0  0  0  0  0  4 V2000
  151.1165  142.1624  155.3074 C   0  0  0  0  0  0  0  0  0  0  0  0
  149.8540  141.4647  154.8472 C   0  0  0  0  0  0  0  0  0  0  0  0
  149.8225  140.0904  154.5311 C   0  0  0  0  0  0  0  0  0  0  0  0
  148.6097  139.5097  154.1059 C   0  0  0  0  0  0  0  0  0  0  0  0
  147.4463  140.3048  154.0114 C   0  0  0  0  0  0  0  0  0  0  0  0
  146.2499  139.6776  153.5662 N   0  0  0  0  0  0  0  0  0  0  0  0
  146.0304  138.3736  153.3229 C   0  0  0  0  0  0  0  0  0  0  0  0
  146.8709  137.4817  153.4334 O   0  0  0  0  0  0  0  0  0  0  0  0
  144.7686  138.1587  152.9210 N   0  0  0  0  0  0  0  0  0  0  0  0
  144.2006  136.8620  152.5566 C   0  0  2  0  0  0  0  0  0  0  0  0
  144.7209  135.7690  153.5073 C   0  0  0  0  0  0  0  0  0  0  0  0
  144.2469  134.3737  153.0559 C   0  0  0  0  0  0  0  0  0  0  0  0
  144.6607  134.0689  151.6554 N   0  3  2  0  0  0  0  0  0  0  0  0
  146.1269  133.7862  151.4635 C   0  0  2  0  0  0  0  0  0  0  0  0
  146.4297  132.9020  150.2293 C   0  0  0  0  0  0  0  0  0  0  0  0
  145.8956  131.4680  150.4047 C   0  0  0  0  0  0  0  0  0  0  0  0
  146.4681  130.8278  151.6157 N   0  3  2  0  0  0  0  0  0  0  0  0
  146.0212  129.4269  151.7749 C   0  0  0  0  0  0  0  0  0  0  0  0
  146.2443  131.6336  152.8426 C   0  0  0  0  0  0  0  0  0  0  0  0
  146.7780  133.0683  152.6708 C   0  0  0  0  0  0  0  0  0  0  0  0
  144.0803  135.0944  150.7404 C   0  0  0  0  0  0  0  0  0  0  0  0
  144.5506  136.5180  151.0977 C   0  0  0  0  0  0  0  0  0  0  0  0
  147.5449  141.6822  154.3324 C   0  0  0  0  0  0  0  0  0  0  0  0
  148.7261  142.1998  154.7346 N   0  3  0  0  0  0  0  0  0  0  0  0
  151.9512  141.4636  155.3707 H   0  0  0  0  0  0  0  0  0  0  0  0
  150.9688  142.6066  156.2922 H   0  0  0  0  0  0  0  0  0  0  0  0
  151.3879  142.9544  154.6088 H   0  0  0  0  0  0  0  0  0  0  0  0
  150.7144  139.4859  154.6112 H   0  0  0  0  0  0  0  0  0  0  0  0
  148.5765  138.4582  153.8593 H   0  0  0  0  0  0  0  0  0  0  0  0
  145.4839  140.3028  153.3613 H   0  0  0  0  0  0  0  0  0  0  0  0
  144.1525  138.9563  152.8578 H   0  0  0  0  0  0  0  0  0  0  0  0
  143.1124  136.8861  152.6402 H   0  0  0  0  0  0  0  0  0  0  0  0
  145.8100  135.7962  153.5575 H   0  0  0  0  0  0  0  0  0  0  0  0
  144.3664  135.9642  154.5203 H   0  0  0  0  0  0  0  0  0  0  0  0
  144.5666  133.6079  153.7586 H   0  0  0  0  0  0  0  0  0  0  0  0
  143.1571  134.3435  153.0987 H   0  0  0  0  0  0  0  0  0  0  0  0
  146.6396  134.7378  151.3245 H   0  0  0  0  0  0  0  0  0  0  0  0
  146.0654  133.3413  149.3027 H   0  0  0  0  0  0  0  0  0  0  0  0
  147.5113  132.8510  150.0935 H   0  0  0  0  0  0  0  0  0  0  0  0
  144.8065  131.4732  150.4699 H   0  0  0  0  0  0  0  0  0  0  0  0
  146.1562  130.8745  149.5274 H   0  0  0  0  0  0  0  0  0  0  0  0
  144.9433  129.3762  151.9341 H   0  0  0  0  0  0  0  0  0  0  0  0
  146.5150  128.9582  152.6267 H   0  0  0  0  0  0  0  0  0  0  0  0
  146.2634  128.8409  150.8877 H   0  0  0  0  0  0  0  0  0  0  0  0
  145.1804  131.6502  153.0842 H   0  0  0  0  0  0  0  0  0  0  0  0
  146.7508  131.1567  153.6828 H   0  0  0  0  0  0  0  0  0  0  0  0
  147.8555  133.0162  152.5064 H   0  0  0  0  0  0  0  0  0  0  0  0
  146.6761  133.6322  153.5957 H   0  0  0  0  0  0  0  0  0  0  0  0
  144.2714  134.8711  149.6934 H   0  0  0  0  0  0  0  0  0  0  0  0
  142.9940  135.0508  150.8322 H   0  0  0  0  0  0  0  0  0  0  0  0
  144.0778  137.2366  150.4270 H   0  0  0  0  0  0  0  0  0  0  0  0
  145.6245  136.6100  150.9321 H   0  0  0  0  0  0  0  0  0  0  0  0
  146.7376  142.3963  154.2748 H   0  0  0  0  0  0  0  0  0  0  0  0
  144.1938  133.2050  151.4196 H   0  0  0  0  0  0  0  0  0  0  0  0
  147.4682  130.7927  151.4750 H   0  0  0  0  0  0  0  0  0  0  0  0
  148.7679  143.1938  154.9612 H   0  0  0  0  0  0  0  0  0  0  0  0
  1  2  1  0  0  0  0
  1 25  1  0  0  0  0
  1 26  1  0  0  0  0
  1 27  1  0  0  0  0
  2 24  1  0  0  0  0
  2  3  2  0  0  0  0
  3  4  1  0  0  0  0
  3 28  1  0  0  0  0
  4  5  2  0  0  0  0
  4 29  1  0  0  0  0
  5  6  1  0  0  0  0
  5 23  1  0  0  0  0
  6  7  1  0  0  0  0
  6 30  1  0  0  0  0
  7  8  2  0  0  0  0
  7  9  1  0  0  0  0
  9 10  1  0  0  0  0
  9 31  1  0  0  0  0
 10 22  1  0  0  0  0
 10 11  1  0  0  0  0
 10 32  1  0  0  0  0
 11 12  1  0  0  0  0
 11 33  1  0  0  0  0
 11 34  1  0  0  0  0
 12 13  1  0  0  0  0
 12 35  1  0  0  0  0
 12 36  1  0  0  0  0
 13 14  1  0  0  0  0
 13 21  1  0  0  0  0
 13 54  1  0  0  0  0
 14 20  1  0  0  0  0
 14 15  1  0  0  0  0
 14 37  1  0  0  0  0
 15 16  1  0  0  0  0
 15 38  1  0  0  0  0
 15 39  1  0  0  0  0
 16 17  1  0  0  0  0
 16 40  1  0  0  0  0
 16 41  1  0  0  0  0
 17 18  1  0  0  0  0
 17 19  1  0  0  0  0
 17 55  1  0  0  0  0
 18 42  1  0  0  0  0
 18 43  1  0  0  0  0
 18 44  1  0  0  0  0
 19 20  1  0  0  0  0
 19 45  1  0  0  0  0
 19 46  1  0  0  0  0
 20 47  1  0  0  0  0
 20 48  1  0  0  0  0
 21 22  1  0  0  0  0
 21 49  1  0  0  0  0
 21 50  1  0  0  0  0
 22 51  1  0  0  0  0
 22 52  1  0  0  0  0
 23 24  2  0  0  0  0
 23 53  1  0  0  0  0
 24 56  1  0  0  0  0
M  CHG  1  13   1
M  CHG  1  17   1
M  CHG  1  24   1
M  END
> <s_m_source_file>
AV-unprocessed.smi

> <i_m_source_file_index>
2772

> <i_lp_mmshare_version>
43012

> <i_f3d_flags>
0

> <s_epik_input>
W0NIM11jMVtjSF1bY0hdYyhbY0hdbjEpW05IXUMoPU8pW05IXVtDSF0yW0NIMl1bQ0gyXU4oW0NIMl1bQ0gyXTIpW0NIXTNbQ0gyXVtDSDJdTihbQ0gzXSlbQ0gyXVtDSDJdMw==

> <s_epik_cmdline>
J2VwaWtfcHl0aG9uJywgJy1waCcsICc3LjAnLCAnLXRuJywgJzgnLCAnLW1hJywgJzIwMCcsICctbWV0YWxfYmluZGluZycsICctaW1hZScsICc8aW5maWxlLm1hZT4nLCAnLW9tYWUnLCAnPG91dGZpbGUubWFlPic=

> <r_epik_Ionization_Penalty>
2.34117

> <r_epik_Ionization_Penalty_Charging>
2.34115

> <r_epik_Ionization_Penalty_Neutral>
2.22786e-05

> <r_epik_State_Penalty>
2.43944

> <r_epik_Charging_Adjusted_Penalty>
4.78059

> <i_epik_Tot_Q>
3

> <i_epik_Tot_abs_Q>
3

> <r_epik_Metal_State_Penalty>
2.45906

> <b_epik_Metal_Only>
0

> <s_lp_Force_Field>
OPLS_2005

> <r_lp_Energy>
58.0527

> <b_lp_Chiralities_Consistent>
1

> <s_lp_Variant>
AV-unprocessed.smi:2772-12

> <Gold.Version>
5.8.1

> <Gold.Id.Protein>
6NUR|6NUR_protein|mol2

> <Gold.PLP.Fitness>
47.5914

> <Gold.PLP.PLP>
-34.5355

> <Gold.PLP.part.hbond>
-4.0317

> <Gold.PLP.part.metal>
0.0000

> <Gold.PLP.part.buried>
-1.1239

> <Gold.PLP.part.nonpolar>
-29.9971

> <Gold.PLP.part.repulsive>
0.7715

> <Gold.PLP.ligand.clash>
0.0091

> <Gold.PLP.ligand.torsion>
0.7502

> <Gold.PLP.Chemscore.Hbond>
4.8400

> <Gold.PLP.Chemscore.CHOScore>
0.0000

> <Gold.PLP.Chemscore.Metal>
0.0000

> <Gold.Chemscore.Hbonds>
donor molecule, donor type, donor heavy atom, donor atom, acceptor molecule, acceptor atom, score
      L1  H     6    30       P1 10175  0.91
      L1  H     9    31       P1 10175  1.00
      L1  H    17    55       P1 10747  0.99
      L1  H    24    56       P1  8028  2.00

> <Gold.PLP.Chemscore.Internal.Correction>
0.0454

> <Gold.Rescore>
     Score         DG    S(hbond)    S(metal)    S(lipo)     H(rot)  DE(clash)    DE(int)     intcor
     21.82     -27.35       3.81        0.00     105.04       1.22       2.05       3.48       ----

> <Gold.Chemscore.Fitness>
21.8177

> <Gold.Chemscore.DG>
-27.3499

> <Gold.Chemscore.ZeroCoef>
-5.4800

> <Gold.Chemscore.Hbond>
3.8051

> <Gold.Chemscore.Metal>
0.0000

> <Gold.Chemscore.Lipo>
105.0406

> <Gold.Chemscore.Internal_Hbond>
0.0000

> <Gold.Chemscore.DEClash>
2.0482

> <Gold.Chemscore.DEInternal>
3.4841

> <Gold.Chemscore.Rot>
1.2222

> <Gold.Chemscore.Internal.Correction>
   9.000000E+99

> <Gold.Chemscore.Hbonds>
donor molecule, donor type, donor heavy atom, donor atom, acceptor molecule, acceptor atom, score
      L1  H     6    30       P1 10175  0.85
      L1  H     9    31       P1 10175  0.99
      L1  H    17    55       P1 10747  0.94
      L1  H    24    56       P1  8028  1.00

> <Gold.Chemscore.Hbond.Weighted>
-12.7091

> <Gold.Chemscore.Metal.Weighted>
-0.0000

> <Gold.Chemscore.Lipo.Weighted>
-12.2897

> <Gold.Chemscore.Internal_Hbond.Weighted>
0.0000

> <Gold.Chemscore.DEClash.Weighted>
2.0482

> <Gold.Chemscore.DEInternal.Weighted>
3.4841

> <Gold.Chemscore.Rot.Weighted>
3.1289

> <Gold.Chemscore.Internal.Correction.Weighted>
   9.000000E+99

> <Gold.Protein.RotatedTorsions>
[ 6907 6896 6895 6894 ] final  154.06 input  -60.11 | X-H torsion
[ 7974 7965 7964 7962 ] final -144.55 input  175.53 | X-H torsion
[ 8008 7997 7996 7995 ] final  -91.75 input   59.86 | X-H torsion
[ 10167 10162 10161 10158 ] final -171.87 input  -65.29 | X-H torsion
[ 10718 10713 10712 10709 ] final  -53.73 input   66.30 | X-H torsion
[ 10763 10752 10751 10750 ] final  166.21 input  -60.55 | X-H torsion
[ 11005 11000 10999 10996 ] final -154.10 input  -57.11 | X-H torsion

> <Gold.Protein.ActiveResidues>
 VAL166  LYS551  ARG553  GLY616  TRP617  ASP618  TYR619  PRO620  LYS621  CYS622 
 ASP623  PHE694  ASN695  SER759  ASP760  ASP761  ALA762  ILE779  LEU786  VAL792 
 PHE793  MET794  SER795  GLU796  ALA797  LYS798  CYS799  TRP800  GLU811  SER814 

> <Gold.Protein.RotatedAtoms>
  152.0638  133.4074  159.4429 H   0  0  0  0  0  0  0  0  0  0  0  0  # atno 6907 bound_to 6896
  150.6865  134.3169  159.4779 H   0  0  0  0  0  0  0  0  0  0  0  0  # atno 6908 bound_to 6896
  152.0993  134.9352  160.0620 H   0  0  0  0  0  0  0  0  0  0  0  0  # atno 6909 bound_to 6896
  144.8289  140.5695  143.5528 H   0  0  0  0  0  0  0  0  0  0  0  0  # atno 7974 bound_to 7965
  154.7146  140.0516  157.0583 H   0  0  0  0  0  0  0  0  0  0  0  0  # atno 8008 bound_to 7997
  155.0508  140.3179  155.4673 H   0  0  0  0  0  0  0  0  0  0  0  0  # atno 8009 bound_to 7997
  156.2799  140.2116  156.5634 H   0  0  0  0  0  0  0  0  0  0  0  0  # atno 8010 bound_to 7997
  139.5777  144.1495  152.1473 H   0  0  0  0  0  0  0  0  0  0  0  0  # atno 10167 bound_to 10162
  156.1510  130.4151  149.9945 H   0  0  0  0  0  0  0  0  0  0  0  0  # atno 10718 bound_to 10713
  154.3356  135.2754  155.2449 H   0  0  0  0  0  0  0  0  0  0  0  0  # atno 10763 bound_to 10752
  154.4742  135.5875  153.6346 H   0  0  0  0  0  0  0  0  0  0  0  0  # atno 10764 bound_to 10752
  152.9862  135.6095  154.3553 H   0  0  0  0  0  0  0  0  0  0  0  0  # atno 10765 bound_to 10752
  140.7009  134.3938  157.5209 H   0  0  0  0  0  0  0  0  0  0  0  0  # atno 11005 bound_to 11000
  145.4938  139.1487  143.3695 LP  0  0  0  0  0  0  0  0  0  0  0  0  # atno 17320 bound_to 7965
  146.2593  140.5077  142.8860 LP  0  0  0  0  0  0  0  0  0  0  0  0  # atno 17321 bound_to 7965
  140.1041  144.5514  150.6969 LP  0  0  0  0  0  0  0  0  0  0  0  0  # atno 17342 bound_to 10162
  140.7058  143.2467  151.4730 LP  0  0  0  0  0  0  0  0  0  0  0  0  # atno 17343 bound_to 10162
  156.7803  130.9219  151.3646 LP  0  0  0  0  0  0  0  0  0  0  0  0  # atno 17370 bound_to 10713
  157.6657  130.9005  149.9926 LP  0  0  0  0  0  0  0  0  0  0  0  0  # atno 17371 bound_to 10713
  139.8897  134.8824  156.2408 LP  0  0  0  0  0  0  0  0  0  0  0  0  # atno 17394 bound_to 11000
  141.0164  133.7066  156.1196 LP  0  0  0  0  0  0  0  0  0  0  0  0  # atno 17395 bound_to 11000

$$$$
