AV-unprocessed.smi:2472|AV-procd|sdf|9741|dock2
  -GOLD-   2272013383D 1   1.00000     0.00000
 Structure written by MMmdl.
 47 49  0  0  0  0  0  0  0  0  1 V2000
  151.6206  144.7260  158.0572 C   0  0  0  0  0  0  0  0  0  0  0  0
  151.8552  143.2946  158.5069 C   0  0  0  0  0  0  0  0  0  0  0  0
  152.8467  143.0119  159.4713 C   0  0  0  0  0  0  0  0  0  0  0  0
  153.1171  141.7692  159.9214 N   0  0  0  0  0  0  0  0  0  0  0  0
  152.4004  140.7461  159.4130 C   0  0  0  0  0  0  0  0  0  0  0  0
  151.3883  140.9129  158.4480 C   0  0  0  0  0  0  0  0  0  0  0  0
  151.0936  142.2191  157.9891 C   0  0  0  0  0  0  0  0  0  0  0  0
  150.1040  142.4857  157.0024 N   0  0  0  0  0  0  0  0  0  0  0  0
  149.1720  141.6489  156.5163 C   0  0  0  0  0  0  0  0  0  0  0  0
  149.0279  140.4739  156.8538 O   0  0  0  0  0  0  0  0  0  0  0  0
  148.3763  142.2726  155.6290 N   0  0  0  0  0  0  0  0  0  0  0  0
  147.2150  141.7177  154.9083 C   0  0  0  0  0  0  0  0  0  0  0  0
  147.5749  140.4796  154.0369 C   0  0  0  0  0  0  0  0  0  0  0  0
  148.7081  139.9995  154.0887 O   0  0  0  0  0  0  0  0  0  0  0  0
  146.6280  139.9764  153.2281 N   0  0  0  0  0  0  0  0  0  0  0  0
  146.7956  138.8225  152.3588 C   0  0  0  0  0  0  0  0  0  0  0  0
  145.6605  137.8244  152.4491 C   0  0  0  0  0  0  0  0  0  0  0  0
  145.8398  136.5212  153.1913 C   0  0  0  0  0  0  0  0  0  0  0  0
  145.7083  136.5210  151.6870 C   0  0  0  0  0  0  0  0  0  0  0  0
  146.1551  141.2947  155.9541 C   0  0  0  0  0  0  0  0  0  0  0  0
  144.7930  141.6151  155.3424 C   0  0  0  0  0  0  0  0  0  0  0  0
  145.0360  142.9018  154.5650 C   0  0  0  0  0  0  0  0  0  0  0  0
  146.4874  142.8198  154.0751 C   0  0  0  0  0  0  0  0  0  0  0  0
  152.2662  145.4208  158.5955 H   0  0  0  0  0  0  0  0  0  0  0  0
  150.5861  145.0181  158.2389 H   0  0  0  0  0  0  0  0  0  0  0  0
  151.8280  144.8285  156.9917 H   0  0  0  0  0  0  0  0  0  0  0  0
  153.4438  143.8055  159.8957 H   0  0  0  0  0  0  0  0  0  0  0  0
  152.6452  139.7609  159.7818 H   0  0  0  0  0  0  0  0  0  0  0  0
  150.8699  140.0440  158.0721 H   0  0  0  0  0  0  0  0  0  0  0  0
  150.0388  143.4474  156.7030 H   0  0  0  0  0  0  0  0  0  0  0  0
  148.5842  143.2407  155.4332 H   0  0  0  0  0  0  0  0  0  0  0  0
  145.7199  140.4174  153.2321 H   0  0  0  0  0  0  0  0  0  0  0  0
  146.9016  139.1620  151.3272 H   0  0  0  0  0  0  0  0  0  0  0  0
  147.7215  138.3084  152.6211 H   0  0  0  0  0  0  0  0  0  0  0  0
  144.6800  138.2867  152.5496 H   0  0  0  0  0  0  0  0  0  0  0  0
  146.8212  136.3057  153.6096 H   0  0  0  0  0  0  0  0  0  0  0  0
  144.9951  136.1519  153.7696 H   0  0  0  0  0  0  0  0  0  0  0  0
  144.7757  136.1552  151.2620 H   0  0  0  0  0  0  0  0  0  0  0  0
  146.6021  136.3048  151.1052 H   0  0  0  0  0  0  0  0  0  0  0  0
  146.2270  140.2453  156.2452 H   0  0  0  0  0  0  0  0  0  0  0  0
  146.2694  141.8781  156.8696 H   0  0  0  0  0  0  0  0  0  0  0  0
  144.4938  140.8191  154.6594 H   0  0  0  0  0  0  0  0  0  0  0  0
  144.0097  141.7209  156.0934 H   0  0  0  0  0  0  0  0  0  0  0  0
  144.3266  143.0330  153.7474 H   0  0  0  0  0  0  0  0  0  0  0  0
  144.9267  143.7556  155.2349 H   0  0  0  0  0  0  0  0  0  0  0  0
  146.9506  143.8018  154.1755 H   0  0  0  0  0  0  0  0  0  0  0  0
  146.5033  142.5978  153.0071 H   0  0  0  0  0  0  0  0  0  0  0  0
  1  2  1  0  0  0  0
  1 24  1  0  0  0  0
  1 25  1  0  0  0  0
  1 26  1  0  0  0  0
  2  7  1  0  0  0  0
  2  3  2  0  0  0  0
  3  4  1  0  0  0  0
  3 27  1  0  0  0  0
  4  5  2  0  0  0  0
  5  6  1  0  0  0  0
  5 28  1  0  0  0  0
  6  7  2  0  0  0  0
  6 29  1  0  0  0  0
  7  8  1  0  0  0  0
  8  9  1  0  0  0  0
  8 30  1  0  0  0  0
  9 10  2  0  0  0  0
  9 11  1  0  0  0  0
 11 12  1  0  0  0  0
 11 31  1  0  0  0  0
 12 23  1  0  0  0  0
 12 13  1  0  0  0  0
 12 20  1  0  0  0  0
 13 14  2  0  0  0  0
 13 15  1  0  0  0  0
 15 16  1  0  0  0  0
 15 32  1  0  0  0  0
 16 17  1  0  0  0  0
 16 33  1  0  0  0  0
 16 34  1  0  0  0  0
 17 19  1  0  0  0  0
 17 18  1  0  0  0  0
 17 35  1  0  0  0  0
 18 19  1  0  0  0  0
 18 36  1  0  0  0  0
 18 37  1  0  0  0  0
 19 38  1  0  0  0  0
 19 39  1  0  0  0  0
 20 21  1  0  0  0  0
 20 40  1  0  0  0  0
 20 41  1  0  0  0  0
 21 22  1  0  0  0  0
 21 42  1  0  0  0  0
 21 43  1  0  0  0  0
 22 23  1  0  0  0  0
 22 44  1  0  0  0  0
 22 45  1  0  0  0  0
 23 46  1  0  0  0  0
 23 47  1  0  0  0  0
M  END
> <s_m_source_file>
AV-unprocessed.smi

> <i_m_source_file_index>
2472

> <i_lp_mmshare_version>
43012

> <i_f3d_flags>
0

> <s_epik_input>
W0NIM11jMVtjSF1uW2NIXVtjSF1jMVtOSF1DKD1PKVtOSF1DMihbQ0gyXVtDSDJdW0NIMl1bQ0gyXTIpQyg9TylbTkhdW0NIMl1bQ0hdM1tDSDJdW0NIMl0z

> <s_epik_cmdline>
J2VwaWtfcHl0aG9uJywgJy1waCcsICc3LjAnLCAnLXRuJywgJzgnLCAnLW1hJywgJzIwMCcsICctbWV0YWxfYmluZGluZycsICctaW1hZScsICc8aW5maWxlLm1hZT4nLCAnLW9tYWUnLCAnPG91dGZpbGUubWFlPic=

> <r_epik_Ionization_Penalty>
0.187836

> <r_epik_Ionization_Penalty_Charging>
0

> <r_epik_Ionization_Penalty_Neutral>
0.187836

> <r_epik_State_Penalty>
0.177409

> <r_epik_Charging_Adjusted_Penalty>
0.177409

> <i_epik_Tot_Q>
0

> <i_epik_Tot_abs_Q>
0

> <r_epik_Metal_State_Penalty>
0.134269

> <b_epik_Metal_Only>
0

> <s_lp_Force_Field>
OPLS_2005

> <r_lp_Energy>
32.7124

> <b_lp_Chiralities_Consistent>
1

> <s_lp_Variant>
AV-unprocessed.smi:2472-1

> <Gold.Version>
5.8.1

> <Gold.Id.Protein>
6NUR|6NUR_protein|mol2

> <Gold.PLP.Fitness>
48.4200

> <Gold.PLP.PLP>
-41.5112

> <Gold.PLP.part.hbond>
-2.8893

> <Gold.PLP.part.metal>
0.0000

> <Gold.PLP.part.buried>
-7.9027

> <Gold.PLP.part.nonpolar>
-33.3491

> <Gold.PLP.part.repulsive>
0.5584

> <Gold.PLP.ligand.clash>
0.0000

> <Gold.PLP.ligand.torsion>
0.6575

> <Gold.PLP.Chemscore.Hbond>
2.5284

> <Gold.PLP.Chemscore.CHOScore>
0.0000

> <Gold.PLP.Chemscore.Metal>
0.0000

> <Gold.Chemscore.Hbonds>
donor molecule, donor type, donor heavy atom, donor atom, acceptor molecule, acceptor atom, score
      L1  H     8    30       P1  8028  0.86
      L1  H    11    31       P1  8028  0.96
      L1  H    15    32       P1 10175  0.63

> <Gold.PLP.Chemscore.Internal.Correction>
0.6386

> <Gold.Rescore>
     Score         DG    S(hbond)    S(metal)    S(lipo)     H(rot)  DE(clash)    DE(int)     intcor
     17.70     -22.61       2.86        0.00      99.54       1.59       0.12       4.79       ----

> <Gold.Chemscore.Fitness>
17.6984

> <Gold.Chemscore.DG>
-22.6095

> <Gold.Chemscore.ZeroCoef>
-5.4800

> <Gold.Chemscore.Hbond>
2.8634

> <Gold.Chemscore.Metal>
0.0000

> <Gold.Chemscore.Lipo>
99.5440

> <Gold.Chemscore.Internal_Hbond>
0.0000

> <Gold.Chemscore.DEClash>
0.1163

> <Gold.Chemscore.DEInternal>
4.7948

> <Gold.Chemscore.Rot>
1.5941

> <Gold.Chemscore.Internal.Correction>
   9.000000E+99

> <Gold.Chemscore.Hbonds>
donor molecule, donor type, donor heavy atom, donor atom, acceptor molecule, acceptor atom, score
      L1  H     8    30       P1  8028  0.82
      L1  H    11    31       P1  8028  0.90
      L1  H    15    32       P1 10175  0.57

> <Gold.Chemscore.Hbond.Weighted>
-9.5638

> <Gold.Chemscore.Metal.Weighted>
-0.0000

> <Gold.Chemscore.Lipo.Weighted>
-11.6466

> <Gold.Chemscore.Internal_Hbond.Weighted>
0.0000

> <Gold.Chemscore.DEClash.Weighted>
0.1163

> <Gold.Chemscore.DEInternal.Weighted>
4.7948

> <Gold.Chemscore.Rot.Weighted>
4.0809

> <Gold.Chemscore.Internal.Correction.Weighted>
   9.000000E+99

> <Gold.Protein.RotatedTorsions>
[ 6907 6896 6895 6894 ] final    2.66 input  -60.11 | X-H torsion
[ 7974 7965 7964 7962 ] final   67.24 input  175.53 | X-H torsion
[ 8008 7997 7996 7995 ] final  -39.83 input   59.86 | X-H torsion
[ 10167 10162 10161 10158 ] final -139.57 input  -65.29 | X-H torsion
[ 10718 10713 10712 10709 ] final -125.64 input   66.30 | X-H torsion
[ 10763 10752 10751 10750 ] final  122.16 input  -60.55 | X-H torsion
[ 11005 11000 10999 10996 ] final   19.19 input  -57.11 | X-H torsion

> <Gold.Protein.ActiveResidues>
 VAL166  LYS551  ARG553  GLY616  TRP617  ASP618  TYR619  PRO620  LYS621  CYS622 
 ASP623  PHE694  ASN695  SER759  ASP760  ASP761  ALA762  ILE779  LEU786  VAL792 
 PHE793  MET794  SER795  GLU796  ALA797  LYS798  CYS799  TRP800  GLU811  SER814 

> <Gold.Protein.RotatedAtoms>
  151.6124  135.1039  160.0083 H   0  0  0  0  0  0  0  0  0  0  0  0  # atno 6907 bound_to 6896
  152.4201  133.7098  159.6483 H   0  0  0  0  0  0  0  0  0  0  0  0  # atno 6908 bound_to 6896
  150.8089  133.8386  159.3214 H   0  0  0  0  0  0  0  0  0  0  0  0  # atno 6909 bound_to 6896
  145.8170  139.3063  143.1066 H   0  0  0  0  0  0  0  0  0  0  0  0  # atno 7974 bound_to 7965
  154.4018  140.1541  156.2928 H   0  0  0  0  0  0  0  0  0  0  0  0  # atno 8008 bound_to 7997
  155.8770  140.3446  155.5839 H   0  0  0  0  0  0  0  0  0  0  0  0  # atno 8009 bound_to 7997
  155.7710  140.0830  157.2098 H   0  0  0  0  0  0  0  0  0  0  0  0  # atno 8010 bound_to 7997
  139.8367  143.7376  152.2664 H   0  0  0  0  0  0  0  0  0  0  0  0  # atno 10167 bound_to 10162
  156.1693  130.6656  151.0158 H   0  0  0  0  0  0  0  0  0  0  0  0  # atno 10718 bound_to 10713
  153.6255  135.3405  155.3025 H   0  0  0  0  0  0  0  0  0  0  0  0  # atno 10763 bound_to 10752
  154.8591  135.4283  154.2162 H   0  0  0  0  0  0  0  0  0  0  0  0  # atno 10764 bound_to 10752
  153.3045  135.7027  153.7245 H   0  0  0  0  0  0  0  0  0  0  0  0  # atno 10765 bound_to 10752
  140.4164  134.1564  155.7670 H   0  0  0  0  0  0  0  0  0  0  0  0  # atno 11005 bound_to 11000
  145.9716  140.8755  143.0159 LP  0  0  0  0  0  0  0  0  0  0  0  0  # atno 17320 bound_to 7965
  144.6751  140.1954  143.7392 LP  0  0  0  0  0  0  0  0  0  0  0  0  # atno 17321 bound_to 7965
  139.7600  144.7509  151.0378 LP  0  0  0  0  0  0  0  0  0  0  0  0  # atno 17342 bound_to 10162
  140.7802  143.4762  151.0079 LP  0  0  0  0  0  0  0  0  0  0  0  0  # atno 17343 bound_to 10162
  157.6791  131.0843  150.7417 LP  0  0  0  0  0  0  0  0  0  0  0  0  # atno 17370 bound_to 10713
  156.7476  130.4759  149.5463 LP  0  0  0  0  0  0  0  0  0  0  0  0  # atno 17371 bound_to 10713
  141.1801  133.8432  157.1287 LP  0  0  0  0  0  0  0  0  0  0  0  0  # atno 17394 bound_to 11000
  140.0231  134.9937  157.0631 LP  0  0  0  0  0  0  0  0  0  0  0  0  # atno 17395 bound_to 11000

$$$$
