AV-unprocessed.smi:2165|AV-procd|sdf|8813|dock8
  -GOLD-   2272012 03D 1   1.00000     0.00000
 Structure written by MMmdl.
 36 37  0  0  0  0  0  0  0  0  1 V2000
  150.4221  141.6971  156.9944 C   0  0  0  0  0  0  0  0  0  0  0  0
  150.0245  140.7637  155.9613 N   0  0  0  0  0  0  0  0  0  0  0  0
  148.9023  141.0656  155.1522 C   0  0  0  0  0  0  0  0  0  0  0  0
  148.2447  142.0980  155.2856 O   0  0  0  0  0  0  0  0  0  0  0  0
  148.5888  140.0504  154.1537 C   0  0  0  0  0  0  0  0  0  0  0  0
  149.3313  138.9266  154.0487 C   0  0  0  0  0  0  0  0  0  0  0  0
  150.4196  138.6535  154.8572 N   0  0  0  0  0  0  0  0  0  0  0  0
  151.1603  137.3975  154.6829 C   0  0  0  0  0  0  0  0  0  0  0  0
  150.4900  136.2050  155.3782 C   0  0  0  0  0  0  0  0  0  0  0  0
  150.8671  135.8308  156.4898 O   0  0  0  0  0  0  0  0  0  0  0  0
  149.4800  135.6265  154.7117 N   0  0  0  0  0  0  0  0  0  0  0  0
  148.7229  134.4703  155.1765 C   0  0  0  0  0  0  0  0  0  0  0  0
  148.2870  133.5739  154.0054 C   0  0  1  0  0  0  0  0  0  0  0  0
  147.9439  132.1446  154.4203 C   0  0  0  0  0  0  0  0  0  0  0  0
  147.0155  131.7201  153.3062 C   0  0  0  0  0  0  0  0  0  0  0  0
  146.2248  133.0010  153.0563 C   0  0  0  0  0  0  0  0  0  0  0  0
  147.0947  134.0754  153.4051 O   0  0  0  0  0  0  0  0  0  0  0  0
  150.7927  139.5840  155.8505 C   0  0  0  0  0  0  0  0  0  0  0  0
  151.7539  139.3631  156.5918 O   0  0  0  0  0  0  0  0  0  0  0  0
  149.8548  142.6251  156.9301 H   0  0  0  0  0  0  0  0  0  0  0  0
  151.4819  141.9149  156.8510 H   0  0  0  0  0  0  0  0  0  0  0  0
  150.2422  141.2072  157.9526 H   0  0  0  0  0  0  0  0  0  0  0  0
  147.7487  140.1993  153.4913 H   0  0  0  0  0  0  0  0  0  0  0  0
  149.0547  138.2029  153.2957 H   0  0  0  0  0  0  0  0  0  0  0  0
  151.2533  137.1634  153.6217 H   0  0  0  0  0  0  0  0  0  0  0  0
  152.1818  137.5141  155.0502 H   0  0  0  0  0  0  0  0  0  0  0  0
  149.2347  135.9971  153.8050 H   0  0  0  0  0  0  0  0  0  0  0  0
  149.3197  133.8990  155.8893 H   0  0  0  0  0  0  0  0  0  0  0  0
  147.8480  134.8270  155.7208 H   0  0  0  0  0  0  0  0  0  0  0  0
  149.0617  133.5401  153.2374 H   0  0  0  0  0  0  0  0  0  0  0  0
  148.8228  131.5060  154.5124 H   0  0  0  0  0  0  0  0  0  0  0  0
  147.4113  132.1352  155.3725 H   0  0  0  0  0  0  0  0  0  0  0  0
  147.5926  131.4544  152.4192 H   0  0  0  0  0  0  0  0  0  0  0  0
  146.3834  130.8722  153.5711 H   0  0  0  0  0  0  0  0  0  0  0  0
  145.8840  133.0832  152.0242 H   0  0  0  0  0  0  0  0  0  0  0  0
  145.3499  133.0416  153.7061 H   0  0  0  0  0  0  0  0  0  0  0  0
  1  2  1  0  0  0  0
  1 20  1  0  0  0  0
  1 21  1  0  0  0  0
  1 22  1  0  0  0  0
  2 18  1  0  0  0  0
  2  3  1  0  0  0  0
  3  4  2  0  0  0  0
  3  5  1  0  0  0  0
  5  6  2  0  0  0  0
  5 23  1  0  0  0  0
  6  7  1  0  0  0  0
  6 24  1  0  0  0  0
  7  8  1  0  0  0  0
  7 18  1  0  0  0  0
  8  9  1  0  0  0  0
  8 25  1  0  0  0  0
  8 26  1  0  0  0  0
  9 10  2  0  0  0  0
  9 11  1  0  0  0  0
 11 12  1  0  0  0  0
 11 27  1  0  0  0  0
 12 13  1  0  0  0  0
 12 28  1  0  0  0  0
 12 29  1  0  0  0  0
 13 17  1  0  0  0  0
 13 14  1  0  0  0  0
 13 30  1  0  0  0  0
 14 15  1  0  0  0  0
 14 31  1  0  0  0  0
 14 32  1  0  0  0  0
 15 16  1  0  0  0  0
 15 33  1  0  0  0  0
 15 34  1  0  0  0  0
 16 17  1  0  0  0  0
 16 35  1  0  0  0  0
 16 36  1  0  0  0  0
 18 19  2  0  0  0  0
M  END
> <s_m_source_file>
AV-unprocessed.smi

> <i_m_source_file_index>
2165

> <i_lp_mmshare_version>
43012

> <i_f3d_flags>
0

> <s_epik_input>
W0NIM11uMWMoPU8pW2NIXVtjSF1uKGMxPU8pW0NIMl1DKD1PKVtOSF1bQ0gyXVtDQEBIXTJbQ0gyXVtDSDJdW0NIMl1PMg==

> <s_epik_cmdline>
J2VwaWtfcHl0aG9uJywgJy1waCcsICc3LjAnLCAnLXRuJywgJzgnLCAnLW1hJywgJzIwMCcsICctbWV0YWxfYmluZGluZycsICctaW1hZScsICc8aW5maWxlLm1hZT4nLCAnLW9tYWUnLCAnPG91dGZpbGUubWFlPic=

> <r_lp_tautomer_probability>
1

> <r_epik_Ionization_Penalty>
3.89869e-08

> <r_epik_Ionization_Penalty_Charging>
1.21279e-08

> <r_epik_Ionization_Penalty_Neutral>
2.6859e-08

> <r_epik_State_Penalty>
-0

> <r_epik_Charging_Adjusted_Penalty>
1.21279e-08

> <i_epik_Tot_Q>
0

> <i_epik_Tot_abs_Q>
0

> <r_epik_Metal_State_Penalty>
-0

> <b_epik_Metal_Only>
0

> <s_lp_Force_Field>
OPLS_2005

> <r_lp_Energy>
24.234

> <b_lp_Chiralities_Consistent>
1

> <s_lp_Variant>
AV-unprocessed.smi:2165-2

> <Gold.Version>
5.8.1

> <Gold.Id.Protein>
6NUR|6NUR_protein|mol2

> <Gold.PLP.Fitness>
42.0433

> <Gold.PLP.PLP>
-32.9373

> <Gold.PLP.part.hbond>
-3.7842

> <Gold.PLP.part.metal>
0.0000

> <Gold.PLP.part.buried>
0.9774

> <Gold.PLP.part.nonpolar>
-31.8388

> <Gold.PLP.part.repulsive>
2.4021

> <Gold.PLP.ligand.clash>
0.0000

> <Gold.PLP.ligand.torsion>
1.0178

> <Gold.PLP.Chemscore.Hbond>
2.6563

> <Gold.PLP.Chemscore.CHOScore>
1.0560

> <Gold.PLP.Chemscore.Metal>
0.0000

> <Gold.Chemscore.Hbonds>
donor molecule, donor type, donor heavy atom, donor atom, acceptor molecule, acceptor atom, score
      L1  H    11    27       P1  7948  1.00
      L1  C     6    24       P1  7948  1.00
      L1  C     6    24       P1  7957  0.05

> <Gold.PLP.Chemscore.Internal.Correction>
0.0048

> <Gold.Rescore>
     Score         DG    S(hbond)    S(metal)    S(lipo)     H(rot)  DE(clash)    DE(int)     intcor
     12.46     -14.94       2.51        0.00      50.01       1.87       1.50       0.98       ----

> <Gold.Chemscore.Fitness>
12.4584

> <Gold.Chemscore.DG>
-14.9368

> <Gold.Chemscore.ZeroCoef>
-5.4800

> <Gold.Chemscore.Hbond>
2.5113

> <Gold.Chemscore.Metal>
0.0000

> <Gold.Chemscore.Lipo>
50.0110

> <Gold.Chemscore.Internal_Hbond>
0.0000

> <Gold.Chemscore.DEClash>
1.4963

> <Gold.Chemscore.DEInternal>
0.9820

> <Gold.Chemscore.Rot>
1.8681

> <Gold.Chemscore.Internal.Correction>
   9.000000E+99

> <Gold.Chemscore.Hbonds>
donor molecule, donor type, donor heavy atom, donor atom, acceptor molecule, acceptor atom, score
      L1  H    11    27       P1  7948  0.81

> <Gold.Chemscore.Hbond.Weighted>
-8.3877

> <Gold.Chemscore.Metal.Weighted>
-0.0000

> <Gold.Chemscore.Lipo.Weighted>
-5.8513

> <Gold.Chemscore.Internal_Hbond.Weighted>
0.0000

> <Gold.Chemscore.DEClash.Weighted>
1.4963

> <Gold.Chemscore.DEInternal.Weighted>
0.9820

> <Gold.Chemscore.Rot.Weighted>
4.7822

> <Gold.Chemscore.Internal.Correction.Weighted>
   9.000000E+99

> <Gold.Protein.RotatedTorsions>
[ 6907 6896 6895 6894 ] final  157.83 input  -60.11 | X-H torsion
[ 7974 7965 7964 7962 ] final -160.39 input  175.53 | X-H torsion
[ 8008 7997 7996 7995 ] final   86.40 input   59.86 | X-H torsion
[ 10167 10162 10161 10158 ] final  129.62 input  -65.29 | X-H torsion
[ 10718 10713 10712 10709 ] final    7.15 input   66.30 | X-H torsion
[ 10763 10752 10751 10750 ] final   84.82 input  -60.55 | X-H torsion
[ 11005 11000 10999 10996 ] final -110.00 input  -57.11 | X-H torsion

> <Gold.Protein.ActiveResidues>
 VAL166  LYS551  ARG553  GLY616  TRP617  ASP618  TYR619  PRO620  LYS621  CYS622 
 ASP623  PHE694  ASN695  SER759  ASP760  ASP761  ALA762  ILE779  LEU786  VAL792 
 PHE793  MET794  SER795  GLU796  ALA797  LYS798  CYS799  TRP800  GLU811  SER814 

> <Gold.Protein.RotatedAtoms>
  152.0093  133.3855  159.4212 H   0  0  0  0  0  0  0  0  0  0  0  0  # atno 6907 bound_to 6896
  150.6901  134.3748  159.5017 H   0  0  0  0  0  0  0  0  0  0  0  0  # atno 6908 bound_to 6896
  152.1506  134.8990  160.0599 H   0  0  0  0  0  0  0  0  0  0  0  0  # atno 6909 bound_to 6896
  144.7429  140.3549  143.6108 H   0  0  0  0  0  0  0  0  0  0  0  0  # atno 7974 bound_to 7965
  155.9623  140.3392  155.6502 H   0  0  0  0  0  0  0  0  0  0  0  0  # atno 8008 bound_to 7997
  155.6782  140.0734  157.2513 H   0  0  0  0  0  0  0  0  0  0  0  0  # atno 8009 bound_to 7997
  154.4146  140.1679  156.1941 H   0  0  0  0  0  0  0  0  0  0  0  0  # atno 8010 bound_to 7997
  139.5469  144.6781  151.4445 H   0  0  0  0  0  0  0  0  0  0  0  0  # atno 10167 bound_to 10162
  156.9326  130.5831  149.5650 H   0  0  0  0  0  0  0  0  0  0  0  0  # atno 10718 bound_to 10713
  153.1417  135.4640  154.9506 H   0  0  0  0  0  0  0  0  0  0  0  0  # atno 10763 bound_to 10752
  154.7753  135.3171  154.8108 H   0  0  0  0  0  0  0  0  0  0  0  0  # atno 10764 bound_to 10752
  153.8630  135.6911  153.4835 H   0  0  0  0  0  0  0  0  0  0  0  0  # atno 10765 bound_to 10752
  141.0816  133.9210  157.2276 H   0  0  0  0  0  0  0  0  0  0  0  0  # atno 11005 bound_to 11000
  145.7238  139.1717  143.2469 LP  0  0  0  0  0  0  0  0  0  0  0  0  # atno 17320 bound_to 7965
  146.1257  140.7251  142.9436 LP  0  0  0  0  0  0  0  0  0  0  0  0  # atno 17321 bound_to 7965
  140.6720  143.8273  150.7011 LP  0  0  0  0  0  0  0  0  0  0  0  0  # atno 17342 bound_to 10162
  140.1700  143.4202  152.2007 LP  0  0  0  0  0  0  0  0  0  0  0  0  # atno 17343 bound_to 10162
  156.0440  130.5519  150.8838 LP  0  0  0  0  0  0  0  0  0  0  0  0  # atno 17370 bound_to 10713
  157.5837  131.0946  150.9231 LP  0  0  0  0  0  0  0  0  0  0  0  0  # atno 17371 bound_to 10713
  139.9630  135.0149  156.9313 LP  0  0  0  0  0  0  0  0  0  0  0  0  # atno 17394 bound_to 11000
  140.5455  134.0678  155.7354 LP  0  0  0  0  0  0  0  0  0  0  0  0  # atno 17395 bound_to 11000

$$$$
