AV-unprocessed.smi:2526|AV-procd|sdf|9936|dock6
  -GOLD-   2272013583D 1   1.00000     0.00000
 Structure written by MMmdl.
 29 30  0  0  0  0  0  0  0  0  2 V2000
  143.7972  132.6765  147.9194 C   0  0  0  0  0  0  0  0  0  0  0  0
  144.0038  132.7175  149.3512 N   0  0  0  0  0  0  0  0  0  0  0  0
  144.3557  133.7910  150.1396 C   0  0  0  0  0  0  0  0  0  0  0  0
  144.4411  133.3470  151.4318 C   0  0  0  0  0  0  0  0  0  0  0  0
  144.8011  134.1058  152.6937 C   0  0  2  0  0  0  0  0  0  0  0  0
  143.6618  134.1560  153.6139 N   0  0  0  0  0  0  0  0  0  0  0  0
  142.7940  135.1746  153.7618 C   0  0  0  0  0  0  0  0  0  0  0  0
  141.8014  135.0701  154.4777 O   0  0  0  0  0  0  0  0  0  0  0  0
  143.0792  136.5137  153.0607 C   0  0  0  0  0  0  0  0  0  0  0  0
  144.1655  136.4438  151.9719 C   0  0  0  0  0  0  0  0  0  0  0  0
  145.3235  135.5337  152.4026 C   0  0  2  0  0  0  0  0  0  0  0  0
  146.4240  135.5459  151.4206 N   0  3  0  0  0  0  0  0  0  0  0  0
  144.1017  131.9671  151.3204 C   0  0  0  0  0  0  0  0  0  0  0  0
  143.8491  131.5930  150.0779 N   0  0  0  0  0  0  0  0  0  0  0  0
  143.9853  133.6590  147.4857 H   0  0  0  0  0  0  0  0  0  0  0  0
  142.7691  132.3847  147.7027 H   0  0  0  0  0  0  0  0  0  0  0  0
  144.4782  131.9543  147.4679 H   0  0  0  0  0  0  0  0  0  0  0  0
  144.5211  134.7725  149.7193 H   0  0  0  0  0  0  0  0  0  0  0  0
  145.5889  133.5660  153.2208 H   0  0  0  0  0  0  0  0  0  0  0  0
  143.4652  133.3086  154.1276 H   0  0  0  0  0  0  0  0  0  0  0  0
  142.1544  136.9104  152.6408 H   0  0  0  0  0  0  0  0  0  0  0  0
  143.3928  137.2169  153.8329 H   0  0  0  0  0  0  0  0  0  0  0  0
  143.7287  136.0863  151.0383 H   0  0  0  0  0  0  0  0  0  0  0  0
  144.5352  137.4492  151.7681 H   0  0  0  0  0  0  0  0  0  0  0  0
  145.7387  135.9397  153.3264 H   0  0  0  0  0  0  0  0  0  0  0  0
  147.2838  135.8026  151.8844 H   0  0  0  0  0  0  0  0  0  0  0  0
  146.2211  136.2164  150.6931 H   0  0  0  0  0  0  0  0  0  0  0  0
  144.0388  131.2272  152.1047 H   0  0  0  0  0  0  0  0  0  0  0  0
  146.5230  134.6270  151.0130 H   0  0  0  0  0  0  0  0  0  0  0  0
  1  2  1  0  0  0  0
  1 15  1  0  0  0  0
  1 16  1  0  0  0  0
  1 17  1  0  0  0  0
  2 14  1  0  0  0  0
  2  3  1  0  0  0  0
  3  4  2  0  0  0  0
  3 18  1  0  0  0  0
  4  5  1  0  0  0  0
  4 13  1  0  0  0  0
  5 11  1  0  0  0  0
  5  6  1  0  0  0  0
  5 19  1  0  0  0  0
  6  7  1  0  0  0  0
  6 20  1  0  0  0  0
  7  8  2  0  0  0  0
  7  9  1  0  0  0  0
  9 10  1  0  0  0  0
  9 21  1  0  0  0  0
  9 22  1  0  0  0  0
 10 11  1  0  0  0  0
 10 23  1  0  0  0  0
 10 24  1  0  0  0  0
 11 12  1  0  0  0  0
 11 25  1  0  0  0  0
 12 26  1  0  0  0  0
 12 27  1  0  0  0  0
 12 29  1  0  0  0  0
 13 14  2  0  0  0  0
 13 28  1  0  0  0  0
M  CHG  1  12   1
M  END
> <s_m_source_file>
AV-unprocessed.smi

> <i_m_source_file_index>
2526

> <i_lp_mmshare_version>
43012

> <i_f3d_flags>
0

> <s_epik_input>
W0NIM11uMVtjSF1jKFtjSF1uMSlbQ0BASF0yW05IXUMoPU8pW0NIMl1bQ0gyXVtDQEhdMltOSDJd

> <s_epik_cmdline>
J2VwaWtfcHl0aG9uJywgJy1waCcsICc3LjAnLCAnLXRuJywgJzgnLCAnLW1hJywgJzIwMCcsICctbWV0YWxfYmluZGluZycsICctaW1hZScsICc8aW5maWxlLm1hZT4nLCAnLW9tYWUnLCAnPG91dGZpbGUubWFlPic=

> <r_lp_tautomer_probability>
1

> <r_epik_Ionization_Penalty>
0.00878543

> <r_epik_Ionization_Penalty_Charging>
0.00874185

> <r_epik_Ionization_Penalty_Neutral>
4.35793e-05

> <r_epik_State_Penalty>
0.00660351

> <r_epik_Charging_Adjusted_Penalty>
0.0153454

> <i_epik_Tot_Q>
1

> <i_epik_Tot_abs_Q>
1

> <r_epik_Metal_State_Penalty>
0.00660727

> <b_epik_Metal_Only>
0

> <s_lp_Force_Field>
OPLS_2005

> <r_lp_Energy>
11.1602

> <b_lp_Chiralities_Consistent>
1

> <s_lp_Variant>
AV-unprocessed.smi:2526-3

> <Gold.Version>
5.8.1

> <Gold.Id.Protein>
6NUR|6NUR_protein|mol2

> <Gold.PLP.Fitness>
39.9285

> <Gold.PLP.PLP>
-25.2485

> <Gold.PLP.part.hbond>
-4.0000

> <Gold.PLP.part.metal>
0.0000

> <Gold.PLP.part.buried>
0.0168

> <Gold.PLP.part.nonpolar>
-19.8831

> <Gold.PLP.part.repulsive>
0.3627

> <Gold.PLP.ligand.clash>
0.0073

> <Gold.PLP.ligand.torsion>
0.0982

> <Gold.PLP.Chemscore.Hbond>
4.4480

> <Gold.PLP.Chemscore.CHOScore>
0.5069

> <Gold.PLP.Chemscore.Metal>
0.0000

> <Gold.Chemscore.Hbonds>
donor molecule, donor type, donor heavy atom, donor atom, acceptor molecule, acceptor atom, score
      L1  H     6    20       P1 10957  1.00
      L1  H    12    26       P1  7948  2.00
      P1  H 10785 10796       L1    14  0.70
      P1  H 11000 11005       L1     8  0.72
      L1  C     3    18       P1  7921  0.51

> <Gold.PLP.Chemscore.Internal.Correction>
0.0189

> <Gold.Rescore>
     Score         DG    S(hbond)    S(metal)    S(lipo)     H(rot)  DE(clash)    DE(int)     intcor
     17.99     -20.58       3.42        0.00      53.22       1.00       1.46       1.12       ----

> <Gold.Chemscore.Fitness>
17.9930

> <Gold.Chemscore.DG>
-20.5761

> <Gold.Chemscore.ZeroCoef>
-5.4800

> <Gold.Chemscore.Hbond>
3.4221

> <Gold.Chemscore.Metal>
0.0000

> <Gold.Chemscore.Lipo>
53.2156

> <Gold.Chemscore.Internal_Hbond>
0.0000

> <Gold.Chemscore.DEClash>
1.4593

> <Gold.Chemscore.DEInternal>
1.1238

> <Gold.Chemscore.Rot>
1.0000

> <Gold.Chemscore.Internal.Correction>
   9.000000E+99

> <Gold.Chemscore.Hbonds>
donor molecule, donor type, donor heavy atom, donor atom, acceptor molecule, acceptor atom, score
      L1  H     6    20       P1 10957  1.00
      L1  H    12    26       P1  7948  0.94
      P1  H 10785 10796       L1    14  0.38
      P1  H 11000 11005       L1     8  0.67

> <Gold.Chemscore.Hbond.Weighted>
-11.4299

> <Gold.Chemscore.Metal.Weighted>
-0.0000

> <Gold.Chemscore.Lipo.Weighted>
-6.2262

> <Gold.Chemscore.Internal_Hbond.Weighted>
0.0000

> <Gold.Chemscore.DEClash.Weighted>
1.4593

> <Gold.Chemscore.DEInternal.Weighted>
1.1238

> <Gold.Chemscore.Rot.Weighted>
2.5600

> <Gold.Chemscore.Internal.Correction.Weighted>
   9.000000E+99

> <Gold.Protein.RotatedTorsions>
[ 6907 6896 6895 6894 ] final   -8.59 input  -60.11 | X-H torsion
[ 7974 7965 7964 7962 ] final   52.34 input  175.53 | X-H torsion
[ 8008 7997 7996 7995 ] final  179.18 input   59.86 | X-H torsion
[ 10167 10162 10161 10158 ] final   -5.99 input  -65.29 | X-H torsion
[ 10718 10713 10712 10709 ] final  164.99 input   66.30 | X-H torsion
[ 10763 10752 10751 10750 ] final  -52.77 input  -60.55 | X-H torsion
[ 11005 11000 10999 10996 ] final   13.90 input  -57.11 | X-H torsion

> <Gold.Protein.ActiveResidues>
 VAL166  LYS551  ARG553  GLY616  TRP617  ASP618  TYR619  PRO620  LYS621  CYS622 
 ASP623  PHE694  ASN695  SER759  ASP760  ASP761  ALA762  ILE779  LEU786  VAL792 
 PHE793  MET794  SER795  GLU796  ALA797  LYS798  CYS799  TRP800  GLU811  SER814 

> <Gold.Protein.RotatedAtoms>
  151.4311  135.1010  159.9642 H   0  0  0  0  0  0  0  0  0  0  0  0  # atno 6907 bound_to 6896
  152.4955  133.8616  159.7263 H   0  0  0  0  0  0  0  0  0  0  0  0  # atno 6908 bound_to 6896
  150.9154  133.6887  159.2872 H   0  0  0  0  0  0  0  0  0  0  0  0  # atno 6909 bound_to 6896
  145.9823  139.4255  143.0124 H   0  0  0  0  0  0  0  0  0  0  0  0  # atno 7974 bound_to 7965
  156.0463  140.1315  157.0100 H   0  0  0  0  0  0  0  0  0  0  0  0  # atno 8008 bound_to 7997
  154.4414  140.1020  156.6381 H   0  0  0  0  0  0  0  0  0  0  0  0  # atno 8009 bound_to 7997
  155.5591  140.3464  155.4489 H   0  0  0  0  0  0  0  0  0  0  0  0  # atno 8010 bound_to 7997
  140.6982  143.6245  150.8581 H   0  0  0  0  0  0  0  0  0  0  0  0  # atno 10167 bound_to 10162
  157.0866  131.0406  151.2554 H   0  0  0  0  0  0  0  0  0  0  0  0  # atno 10718 bound_to 10713
  154.1481  135.6494  153.4957 H   0  0  0  0  0  0  0  0  0  0  0  0  # atno 10763 bound_to 10752
  153.0146  135.5331  154.6837 H   0  0  0  0  0  0  0  0  0  0  0  0  # atno 10764 bound_to 10752
  154.6117  135.2954  155.0396 H   0  0  0  0  0  0  0  0  0  0  0  0  # atno 10765 bound_to 10752
  140.4755  134.0988  155.7740 H   0  0  0  0  0  0  0  0  0  0  0  0  # atno 11005 bound_to 11000
  145.7751  140.9880  143.1129 LP  0  0  0  0  0  0  0  0  0  0  0  0  # atno 17320 bound_to 7965
  144.6865  139.9495  143.7477 LP  0  0  0  0  0  0  0  0  0  0  0  0  # atno 17321 bound_to 7965
  139.9965  143.5790  152.2891 LP  0  0  0  0  0  0  0  0  0  0  0  0  # atno 17342 bound_to 10162
  139.6464  144.7658  151.2235 LP  0  0  0  0  0  0  0  0  0  0  0  0  # atno 17343 bound_to 10162
  157.4756  130.7735  149.7365 LP  0  0  0  0  0  0  0  0  0  0  0  0  # atno 17370 bound_to 10713
  155.9909  130.3941  150.3007 LP  0  0  0  0  0  0  0  0  0  0  0  0  # atno 17371 bound_to 10713
  141.1556  133.8888  157.1985 LP  0  0  0  0  0  0  0  0  0  0  0  0  # atno 17394 bound_to 11000
  139.9858  135.0082  156.9860 LP  0  0  0  0  0  0  0  0  0  0  0  0  # atno 17395 bound_to 11000

$$$$
