AV-unprocessed.smi:249|AV-procd|sdf|1924|dock7
  -GOLD-   2262021 33D 1   1.00000     0.00000
 Structure written by MMmdl.
 64 67  0  0  0  0  0  0  0  0  2 V2000
  146.2841  129.5204  153.1378 C   0  0  0  0  0  0  0  0  0  0  0  0
  146.5143  131.0023  153.4719 C   0  0  0  0  0  0  0  0  0  0  0  0
  147.7747  131.5484  152.8870 N   0  3  2  0  0  0  0  0  0  0  0  0
  149.0015  131.2188  153.6668 C   0  0  0  0  0  0  0  0  0  0  0  0
  149.0891  132.0300  154.9740 C   0  0  0  0  0  0  0  0  0  0  0  0
  149.0172  133.5422  154.6847 C   0  0  2  0  0  0  0  0  0  0  0  0
  149.0999  134.3523  155.9057 N   0  0  0  0  0  0  0  0  0  0  0  0
  149.0332  133.7042  157.2153 C   0  0  0  0  0  0  0  0  0  0  0  0
  149.8762  135.4637  155.8153 C   0  0  0  0  0  0  0  0  0  0  0  0
  150.4207  135.8085  154.6176 N   0  0  0  0  0  0  0  0  0  0  0  0
  151.1697  136.9096  154.5077 C   0  0  0  0  0  0  0  0  0  0  0  0
  151.4922  137.7961  155.4510 N   0  0  0  0  0  0  0  0  0  0  0  0
  150.9538  137.4547  156.6561 C   0  0  0  0  0  0  0  0  0  0  0  0
  150.1478  136.3128  156.9258 C   0  0  0  0  0  0  0  0  0  0  0  0
  149.8038  136.2852  158.2727 N   0  0  0  0  0  0  0  0  0  0  0  0
  150.3625  137.3557  158.7672 C   0  0  0  0  0  0  0  0  0  0  0  0
  151.0507  138.1302  157.8605 N   0  0  0  0  0  0  0  0  0  0  0  0
  151.7622  139.3655  158.1395 C   0  0  0  0  0  0  0  0  0  0  0  0
  151.0253  140.6613  157.6965 C   0  0  2  0  0  0  0  0  0  0  0  0
  151.4955  141.0495  156.2738 C   0  0  0  0  0  0  0  0  0  0  0  0
  150.9068  140.2214  155.2919 O   0  0  0  0  0  0  0  0  0  0  0  0
  151.2056  141.8447  158.6947 C   0  0  1  0  0  0  0  0  0  0  0  0
  152.6493  142.2427  158.9655 C   0  0  0  0  0  0  0  0  0  0  0  0
  152.4999  143.6358  159.5592 C   0  0  0  0  0  0  0  0  0  0  0  0
  151.4315  144.2212  158.8323 O   0  0  0  0  0  0  0  0  0  0  0  0
  150.6341  143.1994  158.2416 C   0  0  0  0  0  0  0  0  0  0  0  0
  147.7731  133.8710  153.8360 C   0  0  0  0  0  0  0  0  0  0  0  0
  147.7425  133.0071  152.5578 C   0  0  2  0  0  0  0  0  0  0  0  0
  146.5971  133.4006  151.6077 C   0  0  0  0  0  0  0  0  0  0  0  0
  145.2853  129.2124  153.4475 H   0  0  0  0  0  0  0  0  0  0  0  0
  146.9886  128.8674  153.6515 H   0  0  0  0  0  0  0  0  0  0  0  0
  146.3668  129.3376  152.0661 H   0  0  0  0  0  0  0  0  0  0  0  0
  145.6595  131.5426  153.0698 H   0  0  0  0  0  0  0  0  0  0  0  0
  146.4869  131.1502  154.5511 H   0  0  0  0  0  0  0  0  0  0  0  0
  149.0681  130.1521  153.8738 H   0  0  0  0  0  0  0  0  0  0  0  0
  149.8711  131.4451  153.0478 H   0  0  0  0  0  0  0  0  0  0  0  0
  148.2906  131.7283  155.6514 H   0  0  0  0  0  0  0  0  0  0  0  0
  150.0242  131.7944  155.4838 H   0  0  0  0  0  0  0  0  0  0  0  0
  149.8773  133.7717  154.0573 H   0  0  0  0  0  0  0  0  0  0  0  0
  148.9256  134.4455  158.0083 H   0  0  0  0  0  0  0  0  0  0  0  0
  149.9358  133.1249  157.4111 H   0  0  0  0  0  0  0  0  0  0  0  0
  148.1766  133.0354  157.2847 H   0  0  0  0  0  0  0  0  0  0  0  0
  151.5631  137.1117  153.5224 H   0  0  0  0  0  0  0  0  0  0  0  0
  150.2752  137.6183  159.8117 H   0  0  0  0  0  0  0  0  0  0  0  0
  151.9746  139.4090  159.2086 H   0  0  0  0  0  0  0  0  0  0  0  0
  152.7292  139.2856  157.6428 H   0  0  0  0  0  0  0  0  0  0  0  0
  149.9575  140.4497  157.6291 H   0  0  0  0  0  0  0  0  0  0  0  0
  151.2112  142.0703  156.0231 H   0  0  0  0  0  0  0  0  0  0  0  0
  152.5813  140.9900  156.1939 H   0  0  0  0  0  0  0  0  0  0  0  0
  150.2971  139.6375  155.7166 H   0  0  0  0  0  0  0  0  0  0  0  0
  150.7492  141.5775  159.6494 H   0  0  0  0  0  0  0  0  0  0  0  0
  153.1661  141.5647  159.6451 H   0  0  0  0  0  0  0  0  0  0  0  0
  153.2138  142.2935  158.0329 H   0  0  0  0  0  0  0  0  0  0  0  0
  152.2204  143.5748  160.6117 H   0  0  0  0  0  0  0  0  0  0  0  0
  153.4119  144.2280  159.4809 H   0  0  0  0  0  0  0  0  0  0  0  0
  150.6964  143.3121  157.1588 H   0  0  0  0  0  0  0  0  0  0  0  0
  149.5936  143.3279  158.5369 H   0  0  0  0  0  0  0  0  0  0  0  0
  146.8567  133.7142  154.4040 H   0  0  0  0  0  0  0  0  0  0  0  0
  147.7900  134.9276  153.5656 H   0  0  0  0  0  0  0  0  0  0  0  0
  148.6627  133.2094  152.0067 H   0  0  0  0  0  0  0  0  0  0  0  0
  146.7417  134.4153  151.2356 H   0  0  0  0  0  0  0  0  0  0  0  0
  145.6256  133.3816  152.1016 H   0  0  0  0  0  0  0  0  0  0  0  0
  146.5541  132.7390  150.7421 H   0  0  0  0  0  0  0  0  0  0  0  0
  147.8773  131.0756  152.0004 H   0  0  0  0  0  0  0  0  0  0  0  0
  1  2  1  0  0  0  0
  1 30  1  0  0  0  0
  1 31  1  0  0  0  0
  1 32  1  0  0  0  0
  2  3  1  0  0  0  0
  2 33  1  0  0  0  0
  2 34  1  0  0  0  0
  3 28  1  0  0  0  0
  3  4  1  0  0  0  0
  3 64  1  0  0  0  0
  4  5  1  0  0  0  0
  4 35  1  0  0  0  0
  4 36  1  0  0  0  0
  5  6  1  0  0  0  0
  5 37  1  0  0  0  0
  5 38  1  0  0  0  0
  6  7  1  0  0  0  0
  6 27  1  0  0  0  0
  6 39  1  0  0  0  0
  7  8  1  0  0  0  0
  7  9  1  0  0  0  0
  8 40  1  0  0  0  0
  8 41  1  0  0  0  0
  8 42  1  0  0  0  0
  9 14  1  0  0  0  0
  9 10  2  0  0  0  0
 10 11  1  0  0  0  0
 11 12  2  0  0  0  0
 11 43  1  0  0  0  0
 12 13  1  0  0  0  0
 13 17  1  0  0  0  0
 13 14  2  0  0  0  0
 14 15  1  0  0  0  0
 15 16  2  0  0  0  0
 16 17  1  0  0  0  0
 16 44  1  0  0  0  0
 17 18  1  0  0  0  0
 18 19  1  0  0  0  0
 18 45  1  0  0  0  0
 18 46  1  0  0  0  0
 19 20  1  0  0  0  0
 19 22  1  0  0  0  0
 19 47  1  0  0  0  0
 20 21  1  0  0  0  0
 20 48  1  0  0  0  0
 20 49  1  0  0  0  0
 21 50  1  0  0  0  0
 22 26  1  0  0  0  0
 22 23  1  0  0  0  0
 22 51  1  0  0  0  0
 23 24  1  0  0  0  0
 23 52  1  0  0  0  0
 23 53  1  0  0  0  0
 24 25  1  0  0  0  0
 24 54  1  0  0  0  0
 24 55  1  0  0  0  0
 25 26  1  0  0  0  0
 26 56  1  0  0  0  0
 26 57  1  0  0  0  0
 27 28  1  0  0  0  0
 27 58  1  0  0  0  0
 27 59  1  0  0  0  0
 28 29  1  0  0  0  0
 28 60  1  0  0  0  0
 29 61  1  0  0  0  0
 29 62  1  0  0  0  0
 29 63  1  0  0  0  0
M  CHG  1   3   1
M  END
> <s_m_source_file>
AV-unprocessed.smi

> <i_m_source_file_index>
249

> <i_lp_mmshare_version>
43012

> <i_f3d_flags>
0

> <s_epik_input>
W0NIM11bQ0gyXU4xW0NIMl1bQ0gyXVtDQEhdKFtDSDJdW0NASF0xW0NIM10pTihbQ0gzXSljKG5bY0hdbjIpYyhjMjMpbltjSF1uM1tDSDJdW0NASF0oW0NIMl1bT0hdKVtDQEBIXTRbQ0gyXVtDSDJdT1tDSDJdNA==

> <s_epik_cmdline>
J2VwaWtfcHl0aG9uJywgJy1waCcsICc3LjAnLCAnLXRuJywgJzgnLCAnLW1hJywgJzIwMCcsICctbWV0YWxfYmluZGluZycsICctaW1hZScsICc8aW5maWxlLm1hZT4nLCAnLW9tYWUnLCAnPG91dGZpbGUubWFlPic=

> <r_lp_tautomer_probability>
1

> <r_epik_Ionization_Penalty>
0.00294688

> <r_epik_Ionization_Penalty_Charging>
0.00169971

> <r_epik_Ionization_Penalty_Neutral>
0.00124717

> <r_epik_State_Penalty>
-0

> <r_epik_Charging_Adjusted_Penalty>
0.00169971

> <i_epik_Tot_Q>
1

> <i_epik_Tot_abs_Q>
1

> <r_epik_Metal_State_Penalty>
-0

> <b_epik_Metal_Only>
0

> <s_lp_Force_Field>
OPLS_2005

> <r_lp_Energy>
54.5526

> <b_lp_Chiralities_Consistent>
1

> <s_lp_Variant>
AV-unprocessed.smi:249-27

> <Gold.Version>
5.8.1

> <Gold.Id.Protein>
6NUR|6NUR_protein|mol2

> <Gold.PLP.Fitness>
52.4080

> <Gold.PLP.PLP>
-43.7608

> <Gold.PLP.part.hbond>
-3.0030

> <Gold.PLP.part.metal>
0.0000

> <Gold.PLP.part.buried>
-6.7807

> <Gold.PLP.part.nonpolar>
-35.0892

> <Gold.PLP.part.repulsive>
0.3131

> <Gold.PLP.ligand.clash>
0.0000

> <Gold.PLP.ligand.torsion>
1.7201

> <Gold.PLP.Chemscore.Hbond>
2.7225

> <Gold.PLP.Chemscore.CHOScore>
0.9345

> <Gold.PLP.Chemscore.Metal>
0.0000

> <Gold.Chemscore.Hbonds>
donor molecule, donor type, donor heavy atom, donor atom, acceptor molecule, acceptor atom, score
      L1  H     3    64       P1 10747  0.91
      P1  H  6896  6908       L1    15  0.37
      P1  H  7989  7998       L1    21  0.98
      L1  C    11    43       P1  7949  0.99

> <Gold.PLP.Chemscore.Internal.Correction>
1.1166

> <Gold.Rescore>
     Score         DG    S(hbond)    S(metal)    S(lipo)     H(rot)  DE(clash)    DE(int)     intcor
     13.26     -17.17       1.78        0.00     107.21       2.65       0.86       3.04       ----

> <Gold.Chemscore.Fitness>
13.2640

> <Gold.Chemscore.DG>
-17.1712

> <Gold.Chemscore.ZeroCoef>
-5.4800

> <Gold.Chemscore.Hbond>
1.7772

> <Gold.Chemscore.Metal>
0.0000

> <Gold.Chemscore.Lipo>
107.2084

> <Gold.Chemscore.Internal_Hbond>
0.0000

> <Gold.Chemscore.DEClash>
0.8649

> <Gold.Chemscore.DEInternal>
3.0423

> <Gold.Chemscore.Rot>
2.6515

> <Gold.Chemscore.Internal.Correction>
   9.000000E+99

> <Gold.Chemscore.Hbonds>
donor molecule, donor type, donor heavy atom, donor atom, acceptor molecule, acceptor atom, score
      L1  H     3    64       P1 10747  0.82
      P1  H  6896  6908       L1    15  0.06
      P1  H  7989  7998       L1    21  0.50

> <Gold.Chemscore.Hbond.Weighted>
-5.9358

> <Gold.Chemscore.Metal.Weighted>
-0.0000

> <Gold.Chemscore.Lipo.Weighted>
-12.5434

> <Gold.Chemscore.Internal_Hbond.Weighted>
0.0000

> <Gold.Chemscore.DEClash.Weighted>
0.8649

> <Gold.Chemscore.DEInternal.Weighted>
3.0423

> <Gold.Chemscore.Rot.Weighted>
6.7880

> <Gold.Chemscore.Internal.Correction.Weighted>
   9.000000E+99

> <Gold.Protein.RotatedTorsions>
[ 6907 6896 6895 6894 ] final -175.23 input  -60.11 | X-H torsion
[ 7974 7965 7964 7962 ] final  -48.69 input  175.53 | X-H torsion
[ 8008 7997 7996 7995 ] final   63.00 input   59.86 | X-H torsion
[ 10167 10162 10161 10158 ] final  -49.59 input  -65.29 | X-H torsion
[ 10718 10713 10712 10709 ] final  -61.91 input   66.30 | X-H torsion
[ 10763 10752 10751 10750 ] final -165.97 input  -60.55 | X-H torsion
[ 11005 11000 10999 10996 ] final  -56.70 input  -57.11 | X-H torsion

> <Gold.Protein.ActiveResidues>
 VAL166  LYS551  ARG553  GLY616  TRP617  ASP618  TYR619  PRO620  LYS621  CYS622 
 ASP623  PHE694  ASN695  SER759  ASP760  ASP761  ALA762  ILE779  LEU786  VAL792 
 PHE793  MET794  SER795  GLU796  ALA797  LYS798  CYS799  TRP800  GLU811  SER814 

> <Gold.Protein.RotatedAtoms>
  151.5852  133.3373  159.3016 H   0  0  0  0  0  0  0  0  0  0  0  0  # atno 6907 bound_to 6896
  150.8291  134.7539  159.6849 H   0  0  0  0  0  0  0  0  0  0  0  0  # atno 6908 bound_to 6896
  152.4377  134.5660  159.9959 H   0  0  0  0  0  0  0  0  0  0  0  0  # atno 6909 bound_to 6896
  145.9485  140.7595  142.9516 H   0  0  0  0  0  0  0  0  0  0  0  0  # atno 7974 bound_to 7965
  155.6232  140.3496  155.4659 H   0  0  0  0  0  0  0  0  0  0  0  0  # atno 8008 bound_to 7997
  156.0062  140.1223  157.0522 H   0  0  0  0  0  0  0  0  0  0  0  0  # atno 8009 bound_to 7997
  154.4265  140.1090  156.5752 H   0  0  0  0  0  0  0  0  0  0  0  0  # atno 8010 bound_to 7997
  140.6678  143.2692  151.4236 H   0  0  0  0  0  0  0  0  0  0  0  0  # atno 10167 bound_to 10162
  156.0890  130.4203  150.1061 H   0  0  0  0  0  0  0  0  0  0  0  0  # atno 10718 bound_to 10713
  154.6879  135.2965  154.9521 H   0  0  0  0  0  0  0  0  0  0  0  0  # atno 10763 bound_to 10752
  154.0494  135.6646  153.4802 H   0  0  0  0  0  0  0  0  0  0  0  0  # atno 10764 bound_to 10752
  153.0591  135.5126  154.7956 H   0  0  0  0  0  0  0  0  0  0  0  0  # atno 10765 bound_to 10752
  141.1132  133.6610  156.4659 H   0  0  0  0  0  0  0  0  0  0  0  0  # atno 11005 bound_to 11000
  144.6791  140.2396  143.7345 LP  0  0  0  0  0  0  0  0  0  0  0  0  # atno 17320 bound_to 7965
  145.8203  139.2041  143.1941 LP  0  0  0  0  0  0  0  0  0  0  0  0  # atno 17321 bound_to 7965
  139.5933  144.1451  152.2115 LP  0  0  0  0  0  0  0  0  0  0  0  0  # atno 17342 bound_to 10162
  140.0812  144.5699  150.7121 LP  0  0  0  0  0  0  0  0  0  0  0  0  # atno 17343 bound_to 10162
  156.9076  130.9641  151.3567 LP  0  0  0  0  0  0  0  0  0  0  0  0  # atno 17370 bound_to 10713
  157.6033  130.8529  149.8836 LP  0  0  0  0  0  0  0  0  0  0  0  0  # atno 17371 bound_to 10713
  140.4718  134.6746  157.5133 LP  0  0  0  0  0  0  0  0  0  0  0  0  # atno 17394 bound_to 11000
  140.0038  134.6796  155.9488 LP  0  0  0  0  0  0  0  0  0  0  0  0  # atno 17395 bound_to 11000

$$$$
