AV-unprocessed.smi:54|AV-procd|sdf|547|dock3
  -GOLD-   2262016443D 1   1.00000     0.00000
 Structure written by MMmdl.
 43 45  0  0  0  0  0  0  0  0  2 V2000
  145.4401  136.5419  162.2301 C   0  0  0  0  0  0  0  0  0  0  0  0
  146.3661  135.5574  161.4969 C   0  0  0  0  0  0  0  0  0  0  0  0
  146.7419  134.3686  162.3970 C   0  0  0  0  0  0  0  0  0  0  0  0
  147.6267  136.2704  160.9867 C   0  0  0  0  0  0  0  0  0  0  0  0
  148.4339  136.7178  161.8040 O   0  0  0  0  0  0  0  0  0  0  0  0
  147.7482  136.3340  159.6419 N   0  0  0  0  0  0  0  0  0  0  0  0
  148.7746  136.8899  158.8688 C   0  0  0  0  0  0  0  0  0  0  0  0
  148.3425  137.7801  158.0087 N   0  0  0  0  0  0  0  0  0  0  0  0
  149.3631  138.3340  157.2597 C   0  0  0  0  0  0  0  0  0  0  0  0
  150.7005  138.0578  157.3310 C   0  0  0  0  0  0  0  0  0  0  0  0
  151.4229  138.8075  156.4108 N   0  0  0  0  0  0  0  0  0  0  0  0
  150.4652  139.5173  155.8156 C   0  0  0  0  0  0  0  0  0  0  0  0
  149.2137  139.3039  156.2748 N   0  0  0  0  0  0  0  0  0  0  0  0
  147.9286  139.9275  155.8180 C   0  0  2  0  0  0  0  0  0  0  0  0
  147.2470  139.0053  155.0200 O   0  0  0  0  0  0  0  0  0  0  0  0
  147.5439  139.2552  153.6502 C   0  0  1  0  0  0  0  0  0  0  0  0
  146.5340  138.5589  152.7209 C   0  0  0  0  0  0  0  0  0  0  0  0
  147.0153  138.5625  151.3938 O   0  0  0  0  0  0  0  0  0  0  0  0
  147.5438  140.7882  153.6077 C   0  0  1  0  0  0  0  0  0  0  0  0
  146.2165  141.2833  153.5194 O   0  0  0  0  0  0  0  0  0  0  0  0
  148.2269  141.1497  154.9278 C   0  0  1  0  0  0  0  0  0  0  0  0
  147.7608  142.3681  155.4767 O   0  0  0  0  0  0  0  0  0  0  0  0
  151.1228  137.0498  158.3319 C   0  0  0  0  0  0  0  0  0  0  0  0
  152.3159  136.7714  158.4354 O   0  0  0  0  0  0  0  0  0  0  0  0
  150.1145  136.5042  159.0760 N   0  5  0  0  0  0  0  0  0  0  0  0
  147.3820  140.1456  156.7365 H   0  0  0  0  0  0  0  0  0  0  0  0
  148.5548  138.9068  153.4293 H   0  0  0  0  0  0  0  0  0  0  0  0
  148.1029  141.1663  152.7512 H   0  0  0  0  0  0  0  0  0  0  0  0
  149.3033  141.2280  154.7650 H   0  0  0  0  0  0  0  0  0  0  0  0
  145.1756  137.3865  161.5925 H   0  0  0  0  0  0  0  0  0  0  0  0
  145.9078  136.9384  163.1323 H   0  0  0  0  0  0  0  0  0  0  0  0
  144.5115  136.0541  162.5276 H   0  0  0  0  0  0  0  0  0  0  0  0
  145.8200  135.1652  160.6372 H   0  0  0  0  0  0  0  0  0  0  0  0
  147.4103  133.6775  161.8819 H   0  0  0  0  0  0  0  0  0  0  0  0
  145.8548  133.8070  162.6909 H   0  0  0  0  0  0  0  0  0  0  0  0
  147.2413  134.6975  163.3093 H   0  0  0  0  0  0  0  0  0  0  0  0
  147.0162  135.8630  159.1314 H   0  0  0  0  0  0  0  0  0  0  0  0
  150.6871  140.2155  155.0222 H   0  0  0  0  0  0  0  0  0  0  0  0
  146.3304  137.5378  153.0460 H   0  0  0  0  0  0  0  0  0  0  0  0
  145.5864  139.0984  152.7244 H   0  0  0  0  0  0  0  0  0  0  0  0
  147.5242  137.7783  151.2566 H   0  0  0  0  0  0  0  0  0  0  0  0
  145.6690  140.6125  153.1418 H   0  0  0  0  0  0  0  0  0  0  0  0
  148.4550  143.0063  155.4141 H   0  0  0  0  0  0  0  0  0  0  0  0
  1  2  1  0  0  0  0
  1 30  1  0  0  0  0
  1 31  1  0  0  0  0
  1 32  1  0  0  0  0
  2  3  1  0  0  0  0
  2  4  1  0  0  0  0
  2 33  1  0  0  0  0
  3 34  1  0  0  0  0
  3 35  1  0  0  0  0
  3 36  1  0  0  0  0
  4  5  2  0  0  0  0
  4  6  1  0  0  0  0
  6 37  1  0  0  0  0
  6  7  1  0  0  0  0
  7 25  1  0  0  0  0
  7  8  2  0  0  0  0
  8  9  1  0  0  0  0
  9 13  1  0  0  0  0
  9 10  2  0  0  0  0
 10 11  1  0  0  0  0
 10 23  1  0  0  0  0
 11 12  2  0  0  0  0
 12 13  1  0  0  0  0
 12 38  1  0  0  0  0
 13 14  1  0  0  0  0
 14 26  1  0  0  0  0
 14 21  1  0  0  0  0
 14 15  1  0  0  0  0
 15 16  1  0  0  0  0
 16 27  1  0  0  0  0
 16 17  1  0  0  0  0
 16 19  1  0  0  0  0
 17 18  1  0  0  0  0
 17 39  1  0  0  0  0
 17 40  1  0  0  0  0
 18 41  1  0  0  0  0
 19 28  1  0  0  0  0
 19 20  1  0  0  0  0
 19 21  1  0  0  0  0
 20 42  1  0  0  0  0
 21 29  1  0  0  0  0
 21 22  1  0  0  0  0
 22 43  1  0  0  0  0
 23 24  2  0  0  0  0
 23 25  1  0  0  0  0
M  CHG  1  25  -1
M  END
> <s_m_source_file>
AV-unprocessed.smi

> <i_m_source_file_index>
54

> <i_lp_mmshare_version>
43012

> <i_f3d_flags>
0

> <s_epik_input>
W0NIM11bQ0hdKFtDSDNdKUMoPU8pW05IXWMobjEpW25IXWMoPU8pYyhjMTIpbltjSF1uMltDQEBIXTNPW0NASF0oW0NIMl1bT0hdKVtDQEBIXShbT0hdKVtDQEhdM1tPSF0=

> <s_epik_cmdline>
J2VwaWtfcHl0aG9uJywgJy1waCcsICc3LjAnLCAnLXRuJywgJzgnLCAnLW1hJywgJzIwMCcsICctbWV0YWxfYmluZGluZycsICctaW1hZScsICc8aW5maWxlLm1hZT4nLCAnLW9tYWUnLCAnPG91dGZpbGUubWFlPic=

> <r_lp_tautomer_probability>
0.85571

> <r_epik_Ionization_Penalty>
1.75936

> <r_epik_Ionization_Penalty_Charging>
4.55893e-11

> <r_epik_Ionization_Penalty_Neutral>
1.75936

> <r_epik_State_Penalty>
1.72072

> <r_epik_Charging_Adjusted_Penalty>
1.72072

> <i_epik_Tot_Q>
-1

> <i_epik_Tot_abs_Q>
1

> <r_epik_Metal_State_Penalty>
0.400338

> <b_epik_Metal_Only>
1

> <s_epik_Chemistry_Notes>
This compound contains an acetal/aminal-like group ( X-CH(R)-Y where X, Y are N, S, or O) that may be acid/base labile, releasing an aldehyde.

> <s_lp_Force_Field>
OPLS_2005

> <r_lp_Energy>
64.1359

> <b_lp_Chiralities_Consistent>
1

> <s_lp_Variant>
AV-unprocessed.smi:54-19

> <Gold.Version>
5.8.1

> <Gold.Id.Protein>
6NUR|6NUR_protein|mol2

> <Gold.PLP.Fitness>
48.9580

> <Gold.PLP.PLP>
-34.3995

> <Gold.PLP.part.hbond>
-7.1526

> <Gold.PLP.part.metal>
0.0000

> <Gold.PLP.part.buried>
-7.2589

> <Gold.PLP.part.nonpolar>
-22.1140

> <Gold.PLP.part.repulsive>
0.2043

> <Gold.PLP.ligand.clash>
0.0000

> <Gold.PLP.ligand.torsion>
1.0104

> <Gold.PLP.Chemscore.Hbond>
5.5084

> <Gold.PLP.Chemscore.CHOScore>
0.0000

> <Gold.PLP.Chemscore.Metal>
0.0000

> <Gold.Chemscore.Hbonds>
donor molecule, donor type, donor heavy atom, donor atom, acceptor molecule, acceptor atom, score
      L1  H    18    41       P1  7948  0.71
      L1  H    20    42       P1 10175  0.59
      L1  H    22    43       P1  8028  0.88
      P1  H  6896  6907       L1    25  2.00
      P1  H  6931  6943       L1     5  1.00

> <Gold.PLP.Chemscore.Internal.Correction>
0.0542

> <Gold.Rescore>
     Score         DG    S(hbond)    S(metal)    S(lipo)     H(rot)  DE(clash)    DE(int)     intcor
     14.09     -14.99       4.09        0.00      52.42       4.02       0.01       0.88       ----

> <Gold.Chemscore.Fitness>
14.0947

> <Gold.Chemscore.DG>
-14.9868

> <Gold.Chemscore.ZeroCoef>
-5.4800

> <Gold.Chemscore.Hbond>
4.0906

> <Gold.Chemscore.Metal>
0.0000

> <Gold.Chemscore.Lipo>
52.4218

> <Gold.Chemscore.Internal_Hbond>
0.0000

> <Gold.Chemscore.DEClash>
0.0089

> <Gold.Chemscore.DEInternal>
0.8833

> <Gold.Chemscore.Rot>
4.0192

> <Gold.Chemscore.Internal.Correction>
   9.000000E+99

> <Gold.Chemscore.Hbonds>
donor molecule, donor type, donor heavy atom, donor atom, acceptor molecule, acceptor atom, score
      L1  H    18    41       P1  7948  0.69
      L1  H    20    42       P1 10175  0.49
      L1  H    22    43       P1  8028  0.86
      P1  H  6896  6907       L1    25  0.30
      P1  H  6931  6943       L1     5  1.00

> <Gold.Chemscore.Hbond.Weighted>
-13.6628

> <Gold.Chemscore.Metal.Weighted>
-0.0000

> <Gold.Chemscore.Lipo.Weighted>
-6.1334

> <Gold.Chemscore.Internal_Hbond.Weighted>
0.0000

> <Gold.Chemscore.DEClash.Weighted>
0.0089

> <Gold.Chemscore.DEInternal.Weighted>
0.8833

> <Gold.Chemscore.Rot.Weighted>
10.2893

> <Gold.Chemscore.Internal.Correction.Weighted>
   9.000000E+99

> <Gold.Protein.RotatedTorsions>
[ 6907 6896 6895 6894 ] final  -39.10 input  -60.11 | X-H torsion
[ 7974 7965 7964 7962 ] final   94.87 input  175.53 | X-H torsion
[ 8008 7997 7996 7995 ] final  -29.93 input   59.86 | X-H torsion
[ 10167 10162 10161 10158 ] final -105.74 input  -65.29 | X-H torsion
[ 10718 10713 10712 10709 ] final -126.16 input   66.30 | X-H torsion
[ 10763 10752 10751 10750 ] final   98.06 input  -60.55 | X-H torsion
[ 11005 11000 10999 10996 ] final   64.67 input  -57.11 | X-H torsion

> <Gold.Protein.ActiveResidues>
 VAL166  LYS551  ARG553  GLY616  TRP617  ASP618  TYR619  PRO620  LYS621  CYS622 
 ASP623  PHE694  ASN695  SER759  ASP760  ASP761  ALA762  ILE779  LEU786  VAL792 
 PHE793  MET794  SER795  GLU796  ALA797  LYS798  CYS799  TRP800  GLU811  SER814 

> <Gold.Protein.RotatedAtoms>
  150.9944  134.9271  159.7917 H   0  0  0  0  0  0  0  0  0  0  0  0  # atno 6907 bound_to 6896
  152.5260  134.3238  159.9168 H   0  0  0  0  0  0  0  0  0  0  0  0  # atno 6908 bound_to 6896
  151.3244  133.3985  159.2691 H   0  0  0  0  0  0  0  0  0  0  0  0  # atno 6909 bound_to 6896
  145.4598  139.2287  143.2994 H   0  0  0  0  0  0  0  0  0  0  0  0  # atno 7974 bound_to 7965
  154.4270  140.1805  156.1327 H   0  0  0  0  0  0  0  0  0  0  0  0  # atno 8008 bound_to 7997
  156.0055  140.3356  155.6863 H   0  0  0  0  0  0  0  0  0  0  0  0  # atno 8009 bound_to 7997
  155.6183  140.0657  157.2676 H   0  0  0  0  0  0  0  0  0  0  0  0  # atno 8010 bound_to 7997
  140.1953  143.3860  152.1173 H   0  0  0  0  0  0  0  0  0  0  0  0  # atno 10167 bound_to 10162
  156.1740  130.6687  151.0217 H   0  0  0  0  0  0  0  0  0  0  0  0  # atno 10718 bound_to 10713
  153.2845  135.4161  155.1109 H   0  0  0  0  0  0  0  0  0  0  0  0  # atno 10763 bound_to 10752
  154.8500  135.3503  154.6067 H   0  0  0  0  0  0  0  0  0  0  0  0  # atno 10764 bound_to 10752
  153.6488  135.7053  153.5274 H   0  0  0  0  0  0  0  0  0  0  0  0  # atno 10765 bound_to 10752
  139.9943  134.6541  156.0036 H   0  0  0  0  0  0  0  0  0  0  0  0  # atno 11005 bound_to 11000
  146.2458  140.5365  142.8914 LP  0  0  0  0  0  0  0  0  0  0  0  0  # atno 17320 bound_to 7965
  144.8010  140.6213  143.6478 LP  0  0  0  0  0  0  0  0  0  0  0  0  # atno 17321 bound_to 7965
  139.5239  144.7077  151.5303 LP  0  0  0  0  0  0  0  0  0  0  0  0  # atno 17342 bound_to 10162
  140.6428  143.8856  150.6708 LP  0  0  0  0  0  0  0  0  0  0  0  0  # atno 17343 bound_to 10162
  157.6822  131.0835  150.7338 LP  0  0  0  0  0  0  0  0  0  0  0  0  # atno 17370 bound_to 10713
  156.7397  130.4735  149.5480 LP  0  0  0  0  0  0  0  0  0  0  0  0  # atno 17371 bound_to 10713
  141.1592  133.6540  156.4261 LP  0  0  0  0  0  0  0  0  0  0  0  0  # atno 17394 bound_to 11000
  140.4847  134.6631  157.5186 LP  0  0  0  0  0  0  0  0  0  0  0  0  # atno 17395 bound_to 11000

$$$$
