AV-unprocessed.smi:886|AV-procd|sdf|4050|dock6
  -GOLD-   22720 1533D 1   1.00000     0.00000
 Structure written by MMmdl.
 35 37  0  0  0  0  0  0  0  0  1 V2000
  155.0305  140.2248  160.8294 C   0  0  0  0  0  0  0  0  0  0  0  0
  154.0601  141.2139  160.3865 N   0  0  0  0  0  0  0  0  0  0  0  0
  153.2716  141.0675  159.3108 C   0  0  0  0  0  0  0  0  0  0  0  0
  153.3052  140.0779  158.5784 O   0  0  0  0  0  0  0  0  0  0  0  0
  152.3483  142.2250  159.0280 C   0  0  0  0  0  0  0  0  0  0  0  0
  152.5930  143.4765  159.6409 C   0  0  0  0  0  0  0  0  0  0  0  0
  151.7159  144.5500  159.4051 C   0  0  0  0  0  0  0  0  0  0  0  0
  150.6118  144.3331  158.5633 C   0  0  0  0  0  0  0  0  0  0  0  0
  150.3580  143.1481  157.9730 N   0  0  0  0  0  0  0  0  0  0  0  0
  151.1980  142.1072  158.1946 C   0  0  0  0  0  0  0  0  0  0  0  0
  150.9036  140.8982  157.5382 N   0  0  0  0  0  0  0  0  0  0  0  0
  149.7366  140.7803  156.6705 C   0  0  2  0  0  0  0  0  0  0  0  0
  149.4579  139.3358  156.2344 C   0  0  0  0  0  0  0  0  0  0  0  0
  149.4817  139.4547  154.7055 C   0  0  1  0  0  0  0  0  0  0  0  0
  148.2804  140.2418  154.1645 C   0  0  0  0  0  0  0  0  0  0  0  0
  148.6366  141.6718  154.5695 C   0  0  0  0  0  0  0  0  0  0  0  0
  149.9634  141.4688  155.3140 C   0  0  2  0  0  0  0  0  0  0  0  0
  150.5148  140.4105  154.5466 O   0  0  0  0  0  0  0  0  0  0  0  0
  155.5517  140.5860  161.7157 H   0  0  0  0  0  0  0  0  0  0  0  0
  155.7718  140.0330  160.0525 H   0  0  0  0  0  0  0  0  0  0  0  0
  154.5385  139.2845  161.0818 H   0  0  0  0  0  0  0  0  0  0  0  0
  153.9841  142.0629  160.9280 H   0  0  0  0  0  0  0  0  0  0  0  0
  153.4407  143.6195  160.2952 H   0  0  0  0  0  0  0  0  0  0  0  0
  151.8829  145.5139  159.8625 H   0  0  0  0  0  0  0  0  0  0  0  0
  149.9135  145.1309  158.3589 H   0  0  0  0  0  0  0  0  0  0  0  0
  151.2528  140.0460  157.9536 H   0  0  0  0  0  0  0  0  0  0  0  0
  148.8716  141.2237  157.1657 H   0  0  0  0  0  0  0  0  0  0  0  0
  150.2420  138.6548  156.5691 H   0  0  0  0  0  0  0  0  0  0  0  0
  148.5045  138.9622  156.6088 H   0  0  0  0  0  0  0  0  0  0  0  0
  149.6612  138.5101  154.1914 H   0  0  0  0  0  0  0  0  0  0  0  0
  148.2164  140.1567  153.0791 H   0  0  0  0  0  0  0  0  0  0  0  0
  147.3368  139.9018  154.5921 H   0  0  0  0  0  0  0  0  0  0  0  0
  148.7814  142.2936  153.6852 H   0  0  0  0  0  0  0  0  0  0  0  0
  147.8742  142.1390  155.1938 H   0  0  0  0  0  0  0  0  0  0  0  0
  150.5788  142.3681  155.3595 H   0  0  0  0  0  0  0  0  0  0  0  0
  1  2  1  0  0  0  0
  1 19  1  0  0  0  0
  1 20  1  0  0  0  0
  1 21  1  0  0  0  0
  2  3  1  0  0  0  0
  2 22  1  0  0  0  0
  3  4  2  0  0  0  0
  3  5  1  0  0  0  0
  5 10  1  0  0  0  0
  5  6  2  0  0  0  0
  6  7  1  0  0  0  0
  6 23  1  0  0  0  0
  7  8  2  0  0  0  0
  7 24  1  0  0  0  0
  8  9  1  0  0  0  0
  8 25  1  0  0  0  0
  9 10  2  0  0  0  0
 10 11  1  0  0  0  0
 11 12  1  0  0  0  0
 11 26  1  0  0  0  0
 12 17  1  0  0  0  0
 12 13  1  0  0  0  0
 12 27  1  0  0  0  0
 13 14  1  0  0  0  0
 13 28  1  0  0  0  0
 13 29  1  0  0  0  0
 14 18  1  0  0  0  0
 14 15  1  0  0  0  0
 14 30  1  0  0  0  0
 15 16  1  0  0  0  0
 15 31  1  0  0  0  0
 15 32  1  0  0  0  0
 16 17  1  0  0  0  0
 16 33  1  0  0  0  0
 16 34  1  0  0  0  0
 17 18  1  0  0  0  0
 17 35  1  0  0  0  0
M  END
> <s_m_source_file>
AV-unprocessed.smi

> <i_m_source_file_index>
886

> <i_lp_mmshare_version>
43012

> <i_f3d_flags>
0

> <s_epik_input>
W0NIM11bTkhdQyg9TyljMVtjSF1bY0hdW2NIXW5jMVtOSF1bQ0BIXShbQ0gyXVtDQEhdMjMpW0NASF0oTzMpW0NIMl1bQ0gyXTI=

> <s_epik_cmdline>
J2VwaWtfcHl0aG9uJywgJy1waCcsICc3LjAnLCAnLXRuJywgJzgnLCAnLW1hJywgJzIwMCcsICctbWV0YWxfYmluZGluZycsICctaW1hZScsICc8aW5maWxlLm1hZT4nLCAnLW9tYWUnLCAnPG91dGZpbGUubWFlPic=

> <r_lp_tautomer_probability>
1

> <r_epik_Ionization_Penalty>
0.0065447

> <r_epik_Ionization_Penalty_Charging>
0

> <r_epik_Ionization_Penalty_Neutral>
0.0065447

> <r_epik_State_Penalty>
0.00484214

> <r_epik_Charging_Adjusted_Penalty>
0.00484214

> <i_epik_Tot_Q>
0

> <i_epik_Tot_abs_Q>
0

> <r_epik_Metal_State_Penalty>
-0

> <b_epik_Metal_Only>
0

> <s_lp_Force_Field>
OPLS_2005

> <r_lp_Energy>
46.3803

> <b_lp_Chiralities_Consistent>
1

> <s_lp_Variant>
AV-unprocessed.smi:886-3

> <Gold.Version>
5.8.1

> <Gold.Id.Protein>
6NUR|6NUR_protein|mol2

> <Gold.PLP.Fitness>
43.0004

> <Gold.PLP.PLP>
-34.5566

> <Gold.PLP.part.hbond>
-1.8403

> <Gold.PLP.part.metal>
0.0000

> <Gold.PLP.part.buried>
-2.9967

> <Gold.PLP.part.nonpolar>
-28.7995

> <Gold.PLP.part.repulsive>
0.3445

> <Gold.PLP.ligand.clash>
0.0000

> <Gold.PLP.ligand.torsion>
0.2898

> <Gold.PLP.Chemscore.Hbond>
2.0000

> <Gold.PLP.Chemscore.CHOScore>
1.0000

> <Gold.PLP.Chemscore.Metal>
0.0000

> <Gold.Chemscore.Hbonds>
donor molecule, donor type, donor heavy atom, donor atom, acceptor molecule, acceptor atom, score
      P1  H  7989  7998       L1    18  1.00
      P1  H  7997  8009       L1     4  1.00
      L1  C     8    25       P1  8028  0.01
      L1  C     8    25       P1  8029  1.00

> <Gold.PLP.Chemscore.Internal.Correction>
0.0234

> <Gold.Rescore>
     Score         DG    S(hbond)    S(metal)    S(lipo)     H(rot)  DE(clash)    DE(int)     intcor
     18.51     -18.83       1.83        0.00      83.88       1.00       0.01       0.32       ----

> <Gold.Chemscore.Fitness>
18.5052

> <Gold.Chemscore.DG>
-18.8338

> <Gold.Chemscore.ZeroCoef>
-5.4800

> <Gold.Chemscore.Hbond>
1.8264

> <Gold.Chemscore.Metal>
0.0000

> <Gold.Chemscore.Lipo>
83.8783

> <Gold.Chemscore.Internal_Hbond>
0.0000

> <Gold.Chemscore.DEClash>
0.0060

> <Gold.Chemscore.DEInternal>
0.3226

> <Gold.Chemscore.Rot>
1.0000

> <Gold.Chemscore.Internal.Correction>
   9.000000E+99

> <Gold.Chemscore.Hbonds>
donor molecule, donor type, donor heavy atom, donor atom, acceptor molecule, acceptor atom, score
      P1  H  7989  7998       L1    18  0.84
      P1  H  7997  8009       L1     4  0.86

> <Gold.Chemscore.Hbond.Weighted>
-6.1000

> <Gold.Chemscore.Metal.Weighted>
-0.0000

> <Gold.Chemscore.Lipo.Weighted>
-9.8138

> <Gold.Chemscore.Internal_Hbond.Weighted>
0.0000

> <Gold.Chemscore.DEClash.Weighted>
0.0060

> <Gold.Chemscore.DEInternal.Weighted>
0.3226

> <Gold.Chemscore.Rot.Weighted>
2.5600

> <Gold.Chemscore.Internal.Correction.Weighted>
   9.000000E+99

> <Gold.Protein.RotatedTorsions>
[ 6907 6896 6895 6894 ] final  -73.86 input  -60.11 | X-H torsion
[ 7974 7965 7964 7962 ] final -161.17 input  175.53 | X-H torsion
[ 8008 7997 7996 7995 ] final  145.81 input   59.86 | X-H torsion
[ 10167 10162 10161 10158 ] final  -18.97 input  -65.29 | X-H torsion
[ 10718 10713 10712 10709 ] final   69.27 input   66.30 | X-H torsion
[ 10763 10752 10751 10750 ] final   63.82 input  -60.55 | X-H torsion
[ 11005 11000 10999 10996 ] final  150.90 input  -57.11 | X-H torsion

> <Gold.Protein.ActiveResidues>
 VAL166  LYS551  ARG553  GLY616  TRP617  ASP618  TYR619  PRO620  LYS621  CYS622 
 ASP623  PHE694  ASN695  SER759  ASP760  ASP761  ALA762  ILE779  LEU786  VAL792 
 PHE793  MET794  SER795  GLU796  ALA797  LYS798  CYS799  TRP800  GLU811  SER814 

> <Gold.Protein.RotatedAtoms>
  150.7114  134.4954  159.5535 H   0  0  0  0  0  0  0  0  0  0  0  0  # atno 6907 bound_to 6896
  152.2563  134.8078  160.0447 H   0  0  0  0  0  0  0  0  0  0  0  0  # atno 6908 bound_to 6896
  151.8807  133.3459  159.3802 H   0  0  0  0  0  0  0  0  0  0  0  0  # atno 6909 bound_to 6896
  144.7401  140.3437  143.6129 H   0  0  0  0  0  0  0  0  0  0  0  0  # atno 7974 bound_to 7965
  156.2873  140.2199  156.5275 H   0  0  0  0  0  0  0  0  0  0  0  0  # atno 8008 bound_to 7997
  154.7477  140.0483  157.0888 H   0  0  0  0  0  0  0  0  0  0  0  0  # atno 8009 bound_to 7997
  155.0150  140.3117  155.4818 H   0  0  0  0  0  0  0  0  0  0  0  0  # atno 8010 bound_to 7997
  140.7264  143.4864  151.0050 H   0  0  0  0  0  0  0  0  0  0  0  0  # atno 10167 bound_to 10162
  157.6336  130.9417  150.0491 H   0  0  0  0  0  0  0  0  0  0  0  0  # atno 10718 bound_to 10713
  153.0032  135.5415  154.6413 H   0  0  0  0  0  0  0  0  0  0  0  0  # atno 10763 bound_to 10752
  154.5667  135.2838  155.0869 H   0  0  0  0  0  0  0  0  0  0  0  0  # atno 10764 bound_to 10752
  154.2051  135.6477  153.5151 H   0  0  0  0  0  0  0  0  0  0  0  0  # atno 10765 bound_to 10752
  140.1171  134.8887  157.2020 H   0  0  0  0  0  0  0  0  0  0  0  0  # atno 11005 bound_to 11000
  145.7348  139.1747  143.2409 LP  0  0  0  0  0  0  0  0  0  0  0  0  # atno 17320 bound_to 7965
  146.1179  140.7346  142.9472 LP  0  0  0  0  0  0  0  0  0  0  0  0  # atno 17321 bound_to 7965
  139.8565  143.7369  152.3175 LP  0  0  0  0  0  0  0  0  0  0  0  0  # atno 17342 bound_to 10162
  139.7570  144.7518  151.0421 LP  0  0  0  0  0  0  0  0  0  0  0  0  # atno 17343 bound_to 10162
  156.1558  130.3643  149.9370 LP  0  0  0  0  0  0  0  0  0  0  0  0  # atno 17370 bound_to 10713
  156.7380  130.9068  151.3630 LP  0  0  0  0  0  0  0  0  0  0  0  0  # atno 17371 bound_to 10713
  140.3013  134.3128  155.7289 LP  0  0  0  0  0  0  0  0  0  0  0  0  # atno 17394 bound_to 11000
  141.2143  133.7594  156.9645 LP  0  0  0  0  0  0  0  0  0  0  0  0  # atno 17395 bound_to 11000

$$$$
