AV-unprocessed.smi:3303|AV-procd|sdf|12680|dock4
  -GOLD-   2272019 13D 1   1.00000     0.00000
 Structure written by MMmdl.
 44 45  0  0  0  0  0  0  0  0  2 V2000
  147.1926  141.4306  153.9301 C   0  0  0  0  0  0  0  0  0  0  0  0
  148.5997  140.8149  154.0179 C   0  0  1  0  0  0  0  0  0  0  0  0
  149.2679  141.2088  155.3498 C   0  0  0  0  0  0  0  0  0  0  0  0
  150.6302  140.6782  155.4482 N   0  0  0  0  0  0  0  0  0  0  0  0
  151.2086  141.1983  156.6844 C   0  0  0  0  0  0  0  0  0  0  0  0
  150.6065  139.2056  155.4263 C   0  0  2  0  0  0  0  0  0  0  0  0
  152.0153  138.5982  155.5862 C   0  0  0  0  0  0  0  0  0  0  0  0
  149.9919  138.7324  154.0922 C   0  0  0  0  0  0  0  0  0  0  0  0
  148.5741  139.2804  153.8793 C   0  0  2  0  0  0  0  0  0  0  0  0
  148.0814  138.8771  152.5432 N   0  3  0  0  0  0  0  0  0  0  0  0
  146.6218  138.6710  152.4571 C   0  0  0  0  0  0  0  0  0  0  0  0
  146.1798  137.4929  153.3358 C   0  0  0  0  0  0  0  0  0  0  0  0
  145.6759  136.3212  152.5150 C   0  0  0  0  0  0  0  0  0  0  0  0
  145.7966  136.3207  151.1090 C   0  0  0  0  0  0  0  0  0  0  0  0
  145.3062  135.2105  150.3943 C   0  0  0  0  0  0  0  0  0  0  0  0
  144.7173  134.1499  151.1093 C   0  0  0  0  0  0  0  0  0  0  0  0
  144.6436  134.2471  152.5132 C   0  0  0  0  0  0  0  0  0  0  0  0
  145.1084  135.3085  153.2080 N   0  0  0  0  0  0  0  0  0  0  0  0
  146.5371  141.0345  154.7064 H   0  0  0  0  0  0  0  0  0  0  0  0
  146.7256  141.2305  152.9656 H   0  0  0  0  0  0  0  0  0  0  0  0
  147.2317  142.5135  154.0509 H   0  0  0  0  0  0  0  0  0  0  0  0
  149.1986  141.2306  153.2054 H   0  0  0  0  0  0  0  0  0  0  0  0
  149.3020  142.2972  155.4184 H   0  0  0  0  0  0  0  0  0  0  0  0
  148.6697  140.8579  156.1927 H   0  0  0  0  0  0  0  0  0  0  0  0
  152.2671  140.9526  156.7635 H   0  0  0  0  0  0  0  0  0  0  0  0
  150.6948  140.8030  157.5619 H   0  0  0  0  0  0  0  0  0  0  0  0
  151.1407  142.2866  156.7131 H   0  0  0  0  0  0  0  0  0  0  0  0
  149.9827  138.8495  156.2482 H   0  0  0  0  0  0  0  0  0  0  0  0
  151.9908  137.5182  155.4376 H   0  0  0  0  0  0  0  0  0  0  0  0
  152.4242  138.7618  156.5830 H   0  0  0  0  0  0  0  0  0  0  0  0
  152.7146  139.0135  154.8596 H   0  0  0  0  0  0  0  0  0  0  0  0
  150.6355  139.0408  153.2661 H   0  0  0  0  0  0  0  0  0  0  0  0
  149.9638  137.6421  154.0671 H   0  0  0  0  0  0  0  0  0  0  0  0
  147.9274  138.8664  154.6553 H   0  0  0  0  0  0  0  0  0  0  0  0
  148.3424  139.5952  151.8826 H   0  0  0  0  0  0  0  0  0  0  0  0
  146.1142  139.5853  152.7674 H   0  0  0  0  0  0  0  0  0  0  0  0
  146.3453  138.4822  151.4188 H   0  0  0  0  0  0  0  0  0  0  0  0
  147.0109  137.1605  153.9594 H   0  0  0  0  0  0  0  0  0  0  0  0
  145.3908  137.8104  154.0192 H   0  0  0  0  0  0  0  0  0  0  0  0
  146.2528  137.1495  150.5877 H   0  0  0  0  0  0  0  0  0  0  0  0
  145.3800  135.1735  149.3174 H   0  0  0  0  0  0  0  0  0  0  0  0
  144.3314  133.2826  150.5943 H   0  0  0  0  0  0  0  0  0  0  0  0
  144.1984  133.4522  153.0933 H   0  0  0  0  0  0  0  0  0  0  0  0
  148.5422  138.0178  152.2794 H   0  0  0  0  0  0  0  0  0  0  0  0
  1  2  1  0  0  0  0
  1 19  1  0  0  0  0
  1 20  1  0  0  0  0
  1 21  1  0  0  0  0
  2  9  1  0  0  0  0
  2  3  1  0  0  0  0
  2 22  1  0  0  0  0
  3  4  1  0  0  0  0
  3 23  1  0  0  0  0
  3 24  1  0  0  0  0
  4  5  1  0  0  0  0
  4  6  1  0  0  0  0
  5 25  1  0  0  0  0
  5 26  1  0  0  0  0
  5 27  1  0  0  0  0
  6  7  1  0  0  0  0
  6  8  1  0  0  0  0
  6 28  1  0  0  0  0
  7 29  1  0  0  0  0
  7 30  1  0  0  0  0
  7 31  1  0  0  0  0
  8  9  1  0  0  0  0
  8 32  1  0  0  0  0
  8 33  1  0  0  0  0
  9 10  1  0  0  0  0
  9 34  1  0  0  0  0
 10 11  1  0  0  0  0
 10 35  1  0  0  0  0
 10 44  1  0  0  0  0
 11 12  1  0  0  0  0
 11 36  1  0  0  0  0
 11 37  1  0  0  0  0
 12 13  1  0  0  0  0
 12 38  1  0  0  0  0
 12 39  1  0  0  0  0
 13 18  1  0  0  0  0
 13 14  2  0  0  0  0
 14 15  1  0  0  0  0
 14 40  1  0  0  0  0
 15 16  2  0  0  0  0
 15 41  1  0  0  0  0
 16 17  1  0  0  0  0
 16 42  1  0  0  0  0
 17 18  2  0  0  0  0
 17 43  1  0  0  0  0
M  CHG  1  10   1
M  END
> <s_m_source_file>
AV-unprocessed.smi

> <i_m_source_file_index>
3303

> <i_lp_mmshare_version>
43012

> <i_f3d_flags>
0

> <s_epik_input>
W0NIM11bQ0BASF0xW0NIMl1OKFtDSDNdKVtDQEBIXShbQ0gzXSlbQ0gyXVtDQEhdMVtOSF1bQ0gyXVtDSDJdYzJbY0hdW2NIXVtjSF1bY0hdbjI=

> <s_epik_cmdline>
J2VwaWtfcHl0aG9uJywgJy1waCcsICc3LjAnLCAnLXRuJywgJzgnLCAnLW1hJywgJzIwMCcsICctbWV0YWxfYmluZGluZycsICctaW1hZScsICc8aW5maWxlLm1hZT4nLCAnLW9tYWUnLCAnPG91dGZpbGUubWFlPic=

> <r_epik_Ionization_Penalty>
1.37325

> <r_epik_Ionization_Penalty_Charging>
0.000251572

> <r_epik_Ionization_Penalty_Neutral>
1.373

> <r_epik_State_Penalty>
1.46343

> <r_epik_Charging_Adjusted_Penalty>
1.46368

> <i_epik_Tot_Q>
1

> <i_epik_Tot_abs_Q>
1

> <r_epik_Metal_State_Penalty>
1.46331

> <b_epik_Metal_Only>
0

> <s_lp_Force_Field>
OPLS_2005

> <r_lp_Energy>
21.6133

> <b_lp_Chiralities_Consistent>
1

> <s_lp_Variant>
AV-unprocessed.smi:3303-24

> <Gold.Version>
5.8.1

> <Gold.Id.Protein>
6NUR|6NUR_protein|mol2

> <Gold.PLP.Fitness>
47.7269

> <Gold.PLP.PLP>
-35.3339

> <Gold.PLP.part.hbond>
-2.7008

> <Gold.PLP.part.metal>
0.0000

> <Gold.PLP.part.buried>
-2.2653

> <Gold.PLP.part.nonpolar>
-30.2868

> <Gold.PLP.part.repulsive>
0.1872

> <Gold.PLP.ligand.clash>
0.0000

> <Gold.PLP.ligand.torsion>
0.8228

> <Gold.PLP.Chemscore.Hbond>
3.6960

> <Gold.PLP.Chemscore.CHOScore>
0.9817

> <Gold.PLP.Chemscore.Metal>
0.0000

> <Gold.Chemscore.Hbonds>
donor molecule, donor type, donor heavy atom, donor atom, acceptor molecule, acceptor atom, score
      L1  H    10    35       P1  7957  0.70
      L1  H    10    44       P1  7948  2.00
      P1  H  7989  7998       L1     4  0.39
      L1  C    17    43       P1 10957  0.25

> <Gold.PLP.Chemscore.Internal.Correction>
0.0055

> <Gold.Rescore>
     Score         DG    S(hbond)    S(metal)    S(lipo)     H(rot)  DE(clash)    DE(int)     intcor
     18.27     -19.39       2.04        0.00      89.80       1.33       0.27       0.85       ----

> <Gold.Chemscore.Fitness>
18.2735

> <Gold.Chemscore.DG>
-19.3927

> <Gold.Chemscore.ZeroCoef>
-5.4800

> <Gold.Chemscore.Hbond>
2.0390

> <Gold.Chemscore.Metal>
0.0000

> <Gold.Chemscore.Lipo>
89.8009

> <Gold.Chemscore.Internal_Hbond>
0.0000

> <Gold.Chemscore.DEClash>
0.2724

> <Gold.Chemscore.DEInternal>
0.8467

> <Gold.Chemscore.Rot>
1.3298

> <Gold.Chemscore.Internal.Correction>
   9.000000E+99

> <Gold.Chemscore.Hbonds>
donor molecule, donor type, donor heavy atom, donor atom, acceptor molecule, acceptor atom, score
      L1  H    10    35       P1  7957  0.67
      L1  H    10    44       P1  7948  1.00
      P1  H  7989  7998       L1     4  0.03

> <Gold.Chemscore.Hbond.Weighted>
-6.8103

> <Gold.Chemscore.Metal.Weighted>
-0.0000

> <Gold.Chemscore.Lipo.Weighted>
-10.5067

> <Gold.Chemscore.Internal_Hbond.Weighted>
0.0000

> <Gold.Chemscore.DEClash.Weighted>
0.2724

> <Gold.Chemscore.DEInternal.Weighted>
0.8467

> <Gold.Chemscore.Rot.Weighted>
3.4043

> <Gold.Chemscore.Internal.Correction.Weighted>
   9.000000E+99

> <Gold.Protein.RotatedTorsions>
[ 6907 6896 6895 6894 ] final -161.08 input  -60.11 | X-H torsion
[ 7974 7965 7964 7962 ] final  114.43 input  175.53 | X-H torsion
[ 8008 7997 7996 7995 ] final   63.71 input   59.86 | X-H torsion
[ 10167 10162 10161 10158 ] final -165.18 input  -65.29 | X-H torsion
[ 10718 10713 10712 10709 ] final  -80.19 input   66.30 | X-H torsion
[ 10763 10752 10751 10750 ] final   45.33 input  -60.55 | X-H torsion
[ 11005 11000 10999 10996 ] final  162.31 input  -57.11 | X-H torsion

> <Gold.Protein.ActiveResidues>
 VAL166  LYS551  ARG553  GLY616  TRP617  ASP618  TYR619  PRO620  LYS621  CYS622 
 ASP623  PHE694  ASN695  SER759  ASP760  ASP761  ALA762  ILE779  LEU786  VAL792 
 PHE793  MET794  SER795  GLU796  ALA797  LYS798  CYS799  TRP800  GLU811  SER814 

> <Gold.Protein.RotatedAtoms>
  151.3591  133.3896  159.2687 H   0  0  0  0  0  0  0  0  0  0  0  0  # atno 6907 bound_to 6896
  150.9740  134.9108  159.7815 H   0  0  0  0  0  0  0  0  0  0  0  0  # atno 6908 bound_to 6896
  152.5194  134.3554  159.9318 H   0  0  0  0  0  0  0  0  0  0  0  0  # atno 6909 bound_to 6896
  145.2045  139.2936  143.4301 H   0  0  0  0  0  0  0  0  0  0  0  0  # atno 7974 bound_to 7965
  155.6346  140.3496  155.4694 H   0  0  0  0  0  0  0  0  0  0  0  0  # atno 8008 bound_to 7997
  155.9976  140.1206  157.0602 H   0  0  0  0  0  0  0  0  0  0  0  0  # atno 8009 bound_to 7997
  154.4238  140.1107  156.5638 H   0  0  0  0  0  0  0  0  0  0  0  0  # atno 8010 bound_to 7997
  139.6200  144.0644  152.1923 H   0  0  0  0  0  0  0  0  0  0  0  0  # atno 10167 bound_to 10162
  156.0075  130.4567  150.3763 H   0  0  0  0  0  0  0  0  0  0  0  0  # atno 10718 bound_to 10713
  152.9826  135.6043  154.3420 H   0  0  0  0  0  0  0  0  0  0  0  0  # atno 10763 bound_to 10752
  154.3116  135.2771  155.2565 H   0  0  0  0  0  0  0  0  0  0  0  0  # atno 10764 bound_to 10752
  154.4772  135.5926  153.6419 H   0  0  0  0  0  0  0  0  0  0  0  0  # atno 10765 bound_to 10752
  140.2245  134.8171  157.3254 H   0  0  0  0  0  0  0  0  0  0  0  0  # atno 11005 bound_to 11000
  146.3410  140.2301  142.8593 LP  0  0  0  0  0  0  0  0  0  0  0  0  # atno 17320 bound_to 7965
  144.9915  140.8551  143.5336 LP  0  0  0  0  0  0  0  0  0  0  0  0  # atno 17321 bound_to 7965
  140.0284  144.6100  150.7509 LP  0  0  0  0  0  0  0  0  0  0  0  0  # atno 17342 bound_to 10162
  140.7375  143.2767  151.3721 LP  0  0  0  0  0  0  0  0  0  0  0  0  # atno 17343 bound_to 10162
  157.1845  131.0400  151.2731 LP  0  0  0  0  0  0  0  0  0  0  0  0  # atno 17370 bound_to 10713
  157.4116  130.7388  149.6843 LP  0  0  0  0  0  0  0  0  0  0  0  0  # atno 17371 bound_to 10713
  140.1815  134.4484  155.7769 LP  0  0  0  0  0  0  0  0  0  0  0  0  # atno 17394 bound_to 11000
  141.2221  133.6985  156.7876 LP  0  0  0  0  0  0  0  0  0  0  0  0  # atno 17395 bound_to 11000

$$$$
