AV-unprocessed.smi:3353|AV-procd|sdf|12954|dock8
  -GOLD-   2272019393D 1   1.00000     0.00000
 Structure written by MMmdl.
 43 44  0  0  0  0  0  0  0  0  2 V2000
  151.1732  141.0626  157.9241 C   0  0  0  0  0  0  0  0  0  0  0  0
  151.4971  141.2956  156.4435 C   0  0  0  0  0  0  0  0  0  0  0  0
  151.6874  140.0466  155.7320 N   0  0  0  0  0  0  0  0  0  0  0  0
  150.7600  139.0526  155.4902 C   0  0  0  0  0  0  0  0  0  0  0  0
  151.4250  138.0912  154.7830 C   0  0  0  0  0  0  0  0  0  0  0  0
  150.9497  136.8548  154.2774 N   0  0  0  0  0  0  0  0  0  0  0  0
  150.3165  135.8853  154.9575 C   0  0  0  0  0  0  0  0  0  0  0  0
  150.0404  135.9259  156.1563 O   0  0  0  0  0  0  0  0  0  0  0  0
  150.0158  134.8505  154.1610 N   0  0  0  0  0  0  0  0  0  0  0  0
  149.3300  133.6325  154.5837 C   0  0  0  0  0  0  0  0  0  0  0  0
  148.6084  132.9352  153.4049 C   0  0  1  0  0  0  0  0  0  0  0  0
  147.8528  131.6763  153.8883 C   0  0  0  0  0  0  0  0  0  0  0  0
  147.6844  133.8794  152.7097 N   0  3  0  0  0  0  0  0  0  0  0  0
  147.0433  133.3491  151.4867 C   0  0  0  0  0  0  0  0  0  0  0  0
  145.8314  134.2443  151.2183 C   0  0  0  0  0  0  0  0  0  0  0  0
  145.5236  134.9276  152.5530 C   0  0  0  0  0  0  0  0  0  0  0  0
  146.5724  134.3998  153.5350 C   0  0  0  0  0  0  0  0  0  0  0  0
  152.7522  138.5703  154.6318 C   0  0  0  0  0  0  0  0  0  0  0  0
  152.9034  139.7528  155.2087 N   0  0  0  0  0  0  0  0  0  0  0  0
  151.0433  142.0105  158.4465 H   0  0  0  0  0  0  0  0  0  0  0  0
  151.9754  140.5157  158.4201 H   0  0  0  0  0  0  0  0  0  0  0  0
  150.2529  140.4897  158.0421 H   0  0  0  0  0  0  0  0  0  0  0  0
  150.6945  141.8560  155.9620 H   0  0  0  0  0  0  0  0  0  0  0  0
  152.4041  141.8935  156.3464 H   0  0  0  0  0  0  0  0  0  0  0  0
  149.7395  139.1245  155.8364 H   0  0  0  0  0  0  0  0  0  0  0  0
  151.1100  136.6938  153.2938 H   0  0  0  0  0  0  0  0  0  0  0  0
  150.2802  134.9103  153.1884 H   0  0  0  0  0  0  0  0  0  0  0  0
  150.0256  132.9308  155.0477 H   0  0  0  0  0  0  0  0  0  0  0  0
  148.6224  133.9287  155.3577 H   0  0  0  0  0  0  0  0  0  0  0  0
  149.3637  132.6162  152.6845 H   0  0  0  0  0  0  0  0  0  0  0  0
  148.5122  130.9810  154.4075 H   0  0  0  0  0  0  0  0  0  0  0  0
  147.4189  131.1169  153.0599 H   0  0  0  0  0  0  0  0  0  0  0  0
  147.0466  131.9387  154.5741 H   0  0  0  0  0  0  0  0  0  0  0  0
  147.7273  133.3363  150.6377 H   0  0  0  0  0  0  0  0  0  0  0  0
  146.7072  132.3263  151.6661 H   0  0  0  0  0  0  0  0  0  0  0  0
  146.0752  134.9953  150.4658 H   0  0  0  0  0  0  0  0  0  0  0  0
  144.9839  133.6686  150.8449 H   0  0  0  0  0  0  0  0  0  0  0  0
  145.6161  136.0090  152.4442 H   0  0  0  0  0  0  0  0  0  0  0  0
  144.5107  134.7178  152.8988 H   0  0  0  0  0  0  0  0  0  0  0  0
  146.1440  133.5859  154.1225 H   0  0  0  0  0  0  0  0  0  0  0  0
  146.9041  135.1765  154.2246 H   0  0  0  0  0  0  0  0  0  0  0  0
  153.5929  138.1101  154.1339 H   0  0  0  0  0  0  0  0  0  0  0  0
  148.2272  134.6821  152.4240 H   0  0  0  0  0  0  0  0  0  0  0  0
  1  2  1  0  0  0  0
  1 20  1  0  0  0  0
  1 21  1  0  0  0  0
  1 22  1  0  0  0  0
  2  3  1  0  0  0  0
  2 23  1  0  0  0  0
  2 24  1  0  0  0  0
  3 19  1  0  0  0  0
  3  4  1  0  0  0  0
  4  5  2  0  0  0  0
  4 25  1  0  0  0  0
  5  6  1  0  0  0  0
  5 18  1  0  0  0  0
  6  7  1  0  0  0  0
  6 26  1  0  0  0  0
  7  8  2  0  0  0  0
  7  9  1  0  0  0  0
  9 10  1  0  0  0  0
  9 27  1  0  0  0  0
 10 11  1  0  0  0  0
 10 28  1  0  0  0  0
 10 29  1  0  0  0  0
 11 12  1  0  0  0  0
 11 13  1  0  0  0  0
 11 30  1  0  0  0  0
 12 31  1  0  0  0  0
 12 32  1  0  0  0  0
 12 33  1  0  0  0  0
 13 17  1  0  0  0  0
 13 14  1  0  0  0  0
 13 43  1  0  0  0  0
 14 15  1  0  0  0  0
 14 34  1  0  0  0  0
 14 35  1  0  0  0  0
 15 16  1  0  0  0  0
 15 36  1  0  0  0  0
 15 37  1  0  0  0  0
 16 17  1  0  0  0  0
 16 38  1  0  0  0  0
 16 39  1  0  0  0  0
 17 40  1  0  0  0  0
 17 41  1  0  0  0  0
 18 19  2  0  0  0  0
 18 42  1  0  0  0  0
M  CHG  1  13   1
M  END
> <s_m_source_file>
AV-unprocessed.smi

> <i_m_source_file_index>
3353

> <i_lp_mmshare_version>
43012

> <i_f3d_flags>
0

> <s_epik_input>
W0NIM11bQ0gyXW4xW2NIXWMoW2NIXW4xKVtOSF1DKD1PKVtOSF1bQ0gyXVtDQEhdKFtDSDNdKU4yW0NIMl1bQ0gyXVtDSDJdW0NIMl0y

> <s_epik_cmdline>
J2VwaWtfcHl0aG9uJywgJy1waCcsICc3LjAnLCAnLXRuJywgJzgnLCAnLW1hJywgJzIwMCcsICctbWV0YWxfYmluZGluZycsICctaW1hZScsICc8aW5maWxlLm1hZT4nLCAnLW9tYWUnLCAnPG91dGZpbGUubWFlPic=

> <r_lp_tautomer_probability>
1

> <r_epik_Ionization_Penalty>
0.000914091

> <r_epik_Ionization_Penalty_Charging>
0.000761583

> <r_epik_Ionization_Penalty_Neutral>
0.000152508

> <r_epik_State_Penalty>
0.000487427

> <r_epik_Charging_Adjusted_Penalty>
0.00124901

> <i_epik_Tot_Q>
1

> <i_epik_Tot_abs_Q>
1

> <r_epik_Metal_State_Penalty>
-0

> <b_epik_Metal_Only>
0

> <s_lp_Force_Field>
OPLS_2005

> <r_lp_Energy>
35.4291

> <b_lp_Chiralities_Consistent>
1

> <s_lp_Variant>
AV-unprocessed.smi:3353-2

> <Gold.Version>
5.8.1

> <Gold.Id.Protein>
6NUR|6NUR_protein|mol2

> <Gold.PLP.Fitness>
47.0415

> <Gold.PLP.PLP>
-36.3852

> <Gold.PLP.part.hbond>
-6.5677

> <Gold.PLP.part.metal>
0.0000

> <Gold.PLP.part.buried>
-2.0527

> <Gold.PLP.part.nonpolar>
-27.9927

> <Gold.PLP.part.repulsive>
0.1868

> <Gold.PLP.ligand.clash>
0.0000

> <Gold.PLP.ligand.torsion>
0.6942

> <Gold.PLP.Chemscore.Hbond>
4.0000

> <Gold.PLP.Chemscore.CHOScore>
0.0000

> <Gold.PLP.Chemscore.Metal>
0.0000

> <Gold.Chemscore.Hbonds>
donor molecule, donor type, donor heavy atom, donor atom, acceptor molecule, acceptor atom, score
      L1  H     6    26       P1  7949  1.00
      L1  H    13    43       P1  7948  2.00
      P1  H  7997  8010       L1    19  1.00

> <Gold.PLP.Chemscore.Internal.Correction>
0.0447

> <Gold.Rescore>
     Score         DG    S(hbond)    S(metal)    S(lipo)     H(rot)  DE(clash)    DE(int)     intcor
     15.54     -16.30       2.20        0.00      64.94       1.61       0.09       0.66       ----

> <Gold.Chemscore.Fitness>
15.5412

> <Gold.Chemscore.DG>
-16.2961

> <Gold.Chemscore.ZeroCoef>
-5.4800

> <Gold.Chemscore.Hbond>
2.1989

> <Gold.Chemscore.Metal>
0.0000

> <Gold.Chemscore.Lipo>
64.9393

> <Gold.Chemscore.Internal_Hbond>
0.0000

> <Gold.Chemscore.DEClash>
0.0901

> <Gold.Chemscore.DEInternal>
0.6648

> <Gold.Chemscore.Rot>
1.6117

> <Gold.Chemscore.Internal.Correction>
   9.000000E+99

> <Gold.Chemscore.Hbonds>
donor molecule, donor type, donor heavy atom, donor atom, acceptor molecule, acceptor atom, score
      L1  H     6    26       P1  7949  0.39
      L1  H    13    43       P1  7948  0.30
      P1  H  7997  8010       L1    19  0.98

> <Gold.Chemscore.Hbond.Weighted>
-7.3443

> <Gold.Chemscore.Metal.Weighted>
-0.0000

> <Gold.Chemscore.Lipo.Weighted>
-7.5979

> <Gold.Chemscore.Internal_Hbond.Weighted>
0.0000

> <Gold.Chemscore.DEClash.Weighted>
0.0901

> <Gold.Chemscore.DEInternal.Weighted>
0.6648

> <Gold.Chemscore.Rot.Weighted>
4.1260

> <Gold.Chemscore.Internal.Correction.Weighted>
   9.000000E+99

> <Gold.Protein.RotatedTorsions>
[ 6907 6896 6895 6894 ] final -166.53 input  -60.11 | X-H torsion
[ 7974 7965 7964 7962 ] final  107.44 input  175.53 | X-H torsion
[ 8008 7997 7996 7995 ] final   99.98 input   59.86 | X-H torsion
[ 10167 10162 10161 10158 ] final   52.32 input  -65.29 | X-H torsion
[ 10718 10713 10712 10709 ] final  103.98 input   66.30 | X-H torsion
[ 10763 10752 10751 10750 ] final  159.24 input  -60.55 | X-H torsion
[ 11005 11000 10999 10996 ] final  102.98 input  -57.11 | X-H torsion

> <Gold.Protein.ActiveResidues>
 VAL166  LYS551  ARG553  GLY616  TRP617  ASP618  TYR619  PRO620  LYS621  CYS622 
 ASP623  PHE694  ASN695  SER759  ASP760  ASP761  ALA762  ILE779  LEU786  VAL792 
 PHE793  MET794  SER795  GLU796  ALA797  LYS798  CYS799  TRP800  GLU811  SER814 

> <Gold.Protein.RotatedAtoms>
  151.4450  133.3633  159.2786 H   0  0  0  0  0  0  0  0  0  0  0  0  # atno 6907 bound_to 6896
  150.9130  134.8549  159.7449 H   0  0  0  0  0  0  0  0  0  0  0  0  # atno 6908 bound_to 6896
  152.4942  134.4382  159.9586 H   0  0  0  0  0  0  0  0  0  0  0  0  # atno 6909 bound_to 6896
  145.2936  139.2592  143.3851 H   0  0  0  0  0  0  0  0  0  0  0  0  # atno 7974 bound_to 7965
  156.1159  140.3220  155.8138 H   0  0  0  0  0  0  0  0  0  0  0  0  # atno 8008 bound_to 7997
  155.4591  140.0538  157.3010 H   0  0  0  0  0  0  0  0  0  0  0  0  # atno 8009 bound_to 7997
  154.4792  140.2045  155.9818 H   0  0  0  0  0  0  0  0  0  0  0  0  # atno 8010 bound_to 7997
  140.2526  144.3462  150.6343 H   0  0  0  0  0  0  0  0  0  0  0  0  # atno 10167 bound_to 10162
  157.6755  131.0792  150.5637 H   0  0  0  0  0  0  0  0  0  0  0  0  # atno 10718 bound_to 10713
  154.2286  135.2779  155.2898 H   0  0  0  0  0  0  0  0  0  0  0  0  # atno 10763 bound_to 10752
  154.5642  135.5638  153.7039 H   0  0  0  0  0  0  0  0  0  0  0  0  # atno 10764 bound_to 10752
  153.0025  135.6305  154.2428 H   0  0  0  0  0  0  0  0  0  0  0  0  # atno 10765 bound_to 10752
  139.8781  134.9245  156.5140 H   0  0  0  0  0  0  0  0  0  0  0  0  # atno 11005 bound_to 11000
  146.3176  140.3433  142.8650 LP  0  0  0  0  0  0  0  0  0  0  0  0  # atno 17320 bound_to 7965
  144.9152  140.7804  143.5782 LP  0  0  0  0  0  0  0  0  0  0  0  0  # atno 17321 bound_to 7965
  140.6028  143.2167  151.7038 LP  0  0  0  0  0  0  0  0  0  0  0  0  # atno 17342 bound_to 10162
  139.5041  144.3765  152.0418 LP  0  0  0  0  0  0  0  0  0  0  0  0  # atno 17343 bound_to 10162
  156.5940  130.4336  149.5925 LP  0  0  0  0  0  0  0  0  0  0  0  0  # atno 17370 bound_to 10713
  156.2560  130.6935  151.1688 LP  0  0  0  0  0  0  0  0  0  0  0  0  # atno 17371 bound_to 10713
  140.8499  133.8140  155.9159 LP  0  0  0  0  0  0  0  0  0  0  0  0  # atno 17394 bound_to 11000
  140.9154  134.2208  157.4960 LP  0  0  0  0  0  0  0  0  0  0  0  0  # atno 17395 bound_to 11000

$$$$
