AV-unprocessed.smi:2735|AV-procd|sdf|10544|dock6
  -GOLD-   2272014593D 1   1.00000     0.00000
 Structure written by MMmdl.
 42 42  0  0  0  0  0  0  0  0  2 V2000
  147.6263  136.8878  163.4823 C   0  0  0  0  0  0  0  0  0  0  0  0
  147.7656  136.4183  162.0645 C   0  0  0  0  0  0  0  0  0  0  0  0
  147.5693  135.1097  161.5450 C   0  0  0  0  0  0  0  0  0  0  0  0
  147.8331  135.2327  160.2098 C   0  0  0  0  0  0  0  0  0  0  0  0
  147.8133  134.1931  159.1365 C   0  0  0  0  0  0  0  0  0  0  0  0
  148.1469  136.5633  159.9771 N   0  0  0  0  0  0  0  0  0  0  0  0
  148.5504  137.2056  158.7257 C   0  0  1  0  0  0  0  0  0  0  0  0
  147.6500  138.4000  158.3459 C   0  0  0  0  0  0  0  0  0  0  0  0
  150.0334  137.5999  158.7898 C   0  0  0  0  0  0  0  0  0  0  0  0
  150.9109  136.7362  158.8180 O   0  0  0  0  0  0  0  0  0  0  0  0
  150.2907  138.9170  158.8086 N   0  0  0  0  0  0  0  0  0  0  0  0
  151.6066  139.5528  158.8185 C   0  0  2  0  0  0  0  0  0  0  0  0
  151.5280  140.9996  159.3619 C   0  0  0  0  0  0  0  0  0  0  0  0
  152.8672  141.7662  159.4560 C   0  0  0  0  0  0  0  0  0  0  0  0
  153.8475  141.0250  160.3779 C   0  0  0  0  0  0  0  0  0  0  0  0
  152.6817  143.2166  159.9336 C   0  0  0  0  0  0  0  0  0  0  0  0
  152.2028  139.4888  157.4076 C   0  0  0  0  0  0  0  0  0  0  0  0
  151.5376  140.0001  156.4785 O   0  0  0  0  0  0  0  0  0  0  0  0
  153.3146  138.9310  157.2787 O   0  5  0  0  0  0  0  0  0  0  0  0
  148.1193  137.2792  161.1262 N   0  0  0  0  0  0  0  0  0  0  0  0
  152.2786  138.9755  159.4550 H   0  0  0  0  0  0  0  0  0  0  0  0
  147.3195  136.0732  164.1386 H   0  0  0  0  0  0  0  0  0  0  0  0
  146.8795  137.6780  163.5626 H   0  0  0  0  0  0  0  0  0  0  0  0
  148.5706  137.2806  163.8600 H   0  0  0  0  0  0  0  0  0  0  0  0
  147.2865  134.2121  162.0748 H   0  0  0  0  0  0  0  0  0  0  0  0
  147.4660  133.2369  159.5287 H   0  0  0  0  0  0  0  0  0  0  0  0
  148.8099  134.0380  158.7236 H   0  0  0  0  0  0  0  0  0  0  0  0
  147.1463  134.4807  158.3240 H   0  0  0  0  0  0  0  0  0  0  0  0
  148.4357  136.4682  157.9304 H   0  0  0  0  0  0  0  0  0  0  0  0
  147.9386  138.8133  157.3789 H   0  0  0  0  0  0  0  0  0  0  0  0
  147.7039  139.2085  159.0763 H   0  0  0  0  0  0  0  0  0  0  0  0
  146.6073  138.0911  158.2701 H   0  0  0  0  0  0  0  0  0  0  0  0
  149.5032  139.5481  158.7727 H   0  0  0  0  0  0  0  0  0  0  0  0
  150.8410  141.5786  158.7424 H   0  0  0  0  0  0  0  0  0  0  0  0
  151.0696  140.9680  160.3518 H   0  0  0  0  0  0  0  0  0  0  0  0
  153.3265  141.7926  158.4683 H   0  0  0  0  0  0  0  0  0  0  0  0
  153.4603  140.9559  161.3951 H   0  0  0  0  0  0  0  0  0  0  0  0
  154.8097  141.5359  160.4220 H   0  0  0  0  0  0  0  0  0  0  0  0
  154.0326  140.0109  160.0227 H   0  0  0  0  0  0  0  0  0  0  0  0
  152.2039  143.2536  160.9130 H   0  0  0  0  0  0  0  0  0  0  0  0
  152.0699  143.7956  159.2427 H   0  0  0  0  0  0  0  0  0  0  0  0
  153.6417  143.7274  160.0138 H   0  0  0  0  0  0  0  0  0  0  0  0
  1  2  1  0  0  0  0
  1 22  1  0  0  0  0
  1 23  1  0  0  0  0
  1 24  1  0  0  0  0
  2 20  2  0  0  0  0
  2  3  1  0  0  0  0
  3  4  2  0  0  0  0
  3 25  1  0  0  0  0
  4  5  1  0  0  0  0
  4  6  1  0  0  0  0
  5 26  1  0  0  0  0
  5 27  1  0  0  0  0
  5 28  1  0  0  0  0
  6  7  1  0  0  0  0
  6 20  1  0  0  0  0
  7  8  1  0  0  0  0
  7  9  1  0  0  0  0
  7 29  1  0  0  0  0
  8 30  1  0  0  0  0
  8 31  1  0  0  0  0
  8 32  1  0  0  0  0
  9 10  2  0  0  0  0
  9 11  1  0  0  0  0
 11 12  1  0  0  0  0
 11 33  1  0  0  0  0
 12 21  1  0  0  0  0
 12 13  1  0  0  0  0
 12 17  1  0  0  0  0
 13 14  1  0  0  0  0
 13 34  1  0  0  0  0
 13 35  1  0  0  0  0
 14 15  1  0  0  0  0
 14 16  1  0  0  0  0
 14 36  1  0  0  0  0
 15 37  1  0  0  0  0
 15 38  1  0  0  0  0
 15 39  1  0  0  0  0
 16 40  1  0  0  0  0
 16 41  1  0  0  0  0
 16 42  1  0  0  0  0
 17 18  2  0  0  0  0
 17 19  1  0  0  0  0
M  CHG  1  19  -1
M  END
> <s_m_source_file>
AV-unprocessed.smi

> <i_m_source_file_index>
2735

> <i_lp_mmshare_version>
43012

> <i_f3d_flags>
0

> <s_epik_input>
W0NIM11jMVtjSF1jKFtDSDNdKW4objEpW0NASF0oW0NIM10pQyg9TylbTkhdW0NASF0oQyg9TylbT0hdKVtDSDJdW0NIXShbQ0gzXSlbQ0gzXQ==

> <s_epik_cmdline>
J2VwaWtfcHl0aG9uJywgJy1waCcsICc3LjAnLCAnLXRuJywgJzgnLCAnLW1hJywgJzIwMCcsICctbWV0YWxfYmluZGluZycsICctaW1hZScsICc8aW5maWxlLm1hZT4nLCAnLW9tYWUnLCAnPG91dGZpbGUubWFlPic=

> <r_lp_tautomer_probability>
1

> <r_epik_Ionization_Penalty>
0.0012303

> <r_epik_Ionization_Penalty_Charging>
0.000186407

> <r_epik_Ionization_Penalty_Neutral>
0.0010439

> <r_epik_State_Penalty>
-0

> <r_epik_Charging_Adjusted_Penalty>
0.000186407

> <i_epik_Tot_Q>
-1

> <i_epik_Tot_abs_Q>
1

> <r_epik_Metal_State_Penalty>
-0

> <b_epik_Metal_Only>
0

> <s_lp_Force_Field>
OPLS_2005

> <r_lp_Energy>
6.63837

> <b_lp_Chiralities_Consistent>
1

> <s_lp_Variant>
AV-unprocessed.smi:2735-4

> <Gold.Version>
5.8.1

> <Gold.Id.Protein>
6NUR|6NUR_protein|mol2

> <Gold.PLP.Fitness>
48.7922

> <Gold.PLP.PLP>
-36.8010

> <Gold.PLP.part.hbond>
-4.0000

> <Gold.PLP.part.metal>
0.0000

> <Gold.PLP.part.buried>
-3.7007

> <Gold.PLP.part.nonpolar>
-29.1936

> <Gold.PLP.part.repulsive>
0.1862

> <Gold.PLP.ligand.clash>
0.7150

> <Gold.PLP.ligand.torsion>
0.6341

> <Gold.PLP.Chemscore.Hbond>
4.6064

> <Gold.PLP.Chemscore.CHOScore>
0.0000

> <Gold.PLP.Chemscore.Metal>
0.0000

> <Gold.Chemscore.Hbonds>
donor molecule, donor type, donor heavy atom, donor atom, acceptor molecule, acceptor atom, score
      P1  H  6896  6907       L1    10  1.00
      P1  H  6931  6943       L1    20  0.98
      P1  H  6934  6947       L1    20  0.64
      P1  H  7997  8009       L1    19  2.00

> <Gold.PLP.Chemscore.Internal.Correction>
0.1550

> <Gold.Rescore>
     Score         DG    S(hbond)    S(metal)    S(lipo)     H(rot)  DE(clash)    DE(int)     intcor
     18.61     -19.49       2.94        0.00      84.79       2.24       0.10       0.78       ----

> <Gold.Chemscore.Fitness>
18.6079

> <Gold.Chemscore.DG>
-19.4927

> <Gold.Chemscore.ZeroCoef>
-5.4800

> <Gold.Chemscore.Hbond>
2.9413

> <Gold.Chemscore.Metal>
0.0000

> <Gold.Chemscore.Lipo>
84.7869

> <Gold.Chemscore.Internal_Hbond>
0.0000

> <Gold.Chemscore.DEClash>
0.1042

> <Gold.Chemscore.DEInternal>
0.7805

> <Gold.Chemscore.Rot>
2.2388

> <Gold.Chemscore.Internal.Correction>
   9.000000E+99

> <Gold.Chemscore.Hbonds>
donor molecule, donor type, donor heavy atom, donor atom, acceptor molecule, acceptor atom, score
      P1  H  6896  6907       L1    10  0.94
      P1  H  6931  6943       L1    20  0.35
      P1  H  6934  6947       L1    20  0.53
      P1  H  7997  8009       L1    19  0.82

> <Gold.Chemscore.Hbond.Weighted>
-9.8239

> <Gold.Chemscore.Metal.Weighted>
-0.0000

> <Gold.Chemscore.Lipo.Weighted>
-9.9201

> <Gold.Chemscore.Internal_Hbond.Weighted>
0.0000

> <Gold.Chemscore.DEClash.Weighted>
0.1042

> <Gold.Chemscore.DEInternal.Weighted>
0.7805

> <Gold.Chemscore.Rot.Weighted>
5.7314

> <Gold.Chemscore.Internal.Correction.Weighted>
   9.000000E+99

> <Gold.Protein.RotatedTorsions>
[ 6907 6896 6895 6894 ] final  -24.26 input  -60.11 | X-H torsion
[ 7974 7965 7964 7962 ] final   23.60 input  175.53 | X-H torsion
[ 8008 7997 7996 7995 ] final  160.70 input   59.86 | X-H torsion
[ 10167 10162 10161 10158 ] final   27.55 input  -65.29 | X-H torsion
[ 10718 10713 10712 10709 ] final  -64.13 input   66.30 | X-H torsion
[ 10763 10752 10751 10750 ] final  169.16 input  -60.55 | X-H torsion
[ 11005 11000 10999 10996 ] final  133.88 input  -57.11 | X-H torsion

> <Gold.Protein.ActiveResidues>
 VAL166  LYS551  ARG553  GLY616  TRP617  ASP618  TYR619  PRO620  LYS621  CYS622 
 ASP623  PHE694  ASN695  SER759  ASP760  ASP761  ALA762  ILE779  LEU786  VAL792 
 PHE793  MET794  SER795  GLU796  ALA797  LYS798  CYS799  TRP800  GLU811  SER814 

> <Gold.Protein.RotatedAtoms>
  151.1921  135.0407  159.8836 H   0  0  0  0  0  0  0  0  0  0  0  0  # atno 6907 bound_to 6896
  152.5438  134.0944  159.8301 H   0  0  0  0  0  0  0  0  0  0  0  0  # atno 6908 bound_to 6896
  151.1074  133.5151  159.2639 H   0  0  0  0  0  0  0  0  0  0  0  0  # atno 6909 bound_to 6896
  146.1977  139.7722  142.8785 H   0  0  0  0  0  0  0  0  0  0  0  0  # atno 7974 bound_to 7965
  156.2154  140.1797  156.7600 H   0  0  0  0  0  0  0  0  0  0  0  0  # atno 8008 bound_to 7997
  154.5784  140.0670  156.9097 H   0  0  0  0  0  0  0  0  0  0  0  0  # atno 8009 bound_to 7997
  155.2546  140.3331  155.4281 H   0  0  0  0  0  0  0  0  0  0  0  0  # atno 8010 bound_to 7997
  140.4928  144.0439  150.6303 H   0  0  0  0  0  0  0  0  0  0  0  0  # atno 10167 bound_to 10162
  156.0748  130.4229  150.1376 H   0  0  0  0  0  0  0  0  0  0  0  0  # atno 10718 bound_to 10713
  154.3791  135.2753  155.2222 H   0  0  0  0  0  0  0  0  0  0  0  0  # atno 10763 bound_to 10752
  154.4336  135.5971  153.6088 H   0  0  0  0  0  0  0  0  0  0  0  0  # atno 10764 bound_to 10752
  152.9835  135.6001  154.4032 H   0  0  0  0  0  0  0  0  0  0  0  0  # atno 10765 bound_to 10752
  139.9880  134.9525  156.9788 H   0  0  0  0  0  0  0  0  0  0  0  0  # atno 11005 bound_to 11000
  145.3589  141.0322  143.3296 LP  0  0  0  0  0  0  0  0  0  0  0  0  # atno 17320 bound_to 7965
  144.8615  139.5170  143.6810 LP  0  0  0  0  0  0  0  0  0  0  0  0  # atno 17321 bound_to 7965
  140.3713  143.2853  152.0275 LP  0  0  0  0  0  0  0  0  0  0  0  0  # atno 17342 bound_to 10162
  139.4855  144.6227  151.7223 LP  0  0  0  0  0  0  0  0  0  0  0  0  # atno 17343 bound_to 10162
  156.9420  130.9747  151.3514 LP  0  0  0  0  0  0  0  0  0  0  0  0  # atno 17370 bound_to 10713
  157.5837  130.8394  149.8559 LP  0  0  0  0  0  0  0  0  0  0  0  0  # atno 17371 bound_to 10713
  140.4965  134.1140  155.7242 LP  0  0  0  0  0  0  0  0  0  0  0  0  # atno 17394 bound_to 11000
  141.1541  133.8915  157.2022 LP  0  0  0  0  0  0  0  0  0  0  0  0  # atno 17395 bound_to 11000

$$$$
