AV-unprocessed.smi:2160|AV-procd|sdf|8798|dock4
  -GOLD-   2272011583D 1   1.00000     0.00000
 Structure written by MMmdl.
 43 45  0  0  0  0  0  0  0  0  1 V2000
  144.4710  145.3102  152.6586 C   0  0  0  0  0  0  0  0  0  0  0  0
  143.9986  144.8461  153.9148 O   0  0  0  0  0  0  0  0  0  0  0  0
  144.7080  143.8458  154.5441 C   0  0  0  0  0  0  0  0  0  0  0  0
  145.7466  143.0995  153.9321 C   0  0  0  0  0  0  0  0  0  0  0  0
  146.4153  142.0878  154.6479 C   0  0  0  0  0  0  0  0  0  0  0  0
  146.0544  141.8014  155.9798 C   0  0  0  0  0  0  0  0  0  0  0  0
  146.7573  140.6977  156.7442 C   0  0  0  0  0  0  0  0  0  0  0  0
  148.1418  140.9705  156.8803 O   0  0  0  0  0  0  0  0  0  0  0  0
  148.8885  140.6678  155.7133 C   0  0  0  0  0  0  0  0  0  0  0  0
  150.3855  140.5538  156.0602 C   0  0  1  0  0  0  0  0  0  0  0  0
  151.0719  139.9550  154.9815 O   0  0  0  0  0  0  0  0  0  0  0  0
  151.0782  141.8768  156.4549 C   0  0  0  0  0  0  0  0  0  0  0  0
  151.7465  141.8074  157.7434 N   0  0  0  0  0  0  0  0  0  0  0  0
  152.3767  140.7418  158.2736 C   0  0  0  0  0  0  0  0  0  0  0  0
  152.9163  140.8901  159.4800 N   0  0  0  0  0  0  0  0  0  0  0  0
  152.6103  142.2103  159.7627 C   0  0  0  0  0  0  0  0  0  0  0  0
  152.8994  142.9948  160.9023 C   0  0  0  0  0  0  0  0  0  0  0  0
  152.4822  144.3405  160.9688 C   0  0  0  0  0  0  0  0  0  0  0  0
  151.7729  144.9223  159.8984 C   0  0  0  0  0  0  0  0  0  0  0  0
  151.4713  144.1602  158.7539 C   0  0  0  0  0  0  0  0  0  0  0  0
  151.8858  142.8162  158.6922 C   0  0  0  0  0  0  0  0  0  0  0  0
  145.0311  142.5474  156.5971 C   0  0  0  0  0  0  0  0  0  0  0  0
  144.3646  143.5600  155.8813 C   0  0  0  0  0  0  0  0  0  0  0  0
  143.7998  146.0833  152.2851 H   0  0  0  0  0  0  0  0  0  0  0  0
  144.4926  144.5081  151.9198 H   0  0  0  0  0  0  0  0  0  0  0  0
  145.4651  145.7502  152.7446 H   0  0  0  0  0  0  0  0  0  0  0  0
  146.0471  143.2808  152.9115 H   0  0  0  0  0  0  0  0  0  0  0  0
  147.1984  141.5235  154.1631 H   0  0  0  0  0  0  0  0  0  0  0  0
  146.2975  140.5963  157.7287 H   0  0  0  0  0  0  0  0  0  0  0  0
  146.6157  139.7519  156.2200 H   0  0  0  0  0  0  0  0  0  0  0  0
  148.5488  139.7112  155.3130 H   0  0  0  0  0  0  0  0  0  0  0  0
  148.7172  141.4147  154.9366 H   0  0  0  0  0  0  0  0  0  0  0  0
  150.4745  139.8583  156.8956 H   0  0  0  0  0  0  0  0  0  0  0  0
  151.6332  139.2770  155.3260 H   0  0  0  0  0  0  0  0  0  0  0  0
  151.8108  142.1625  155.6989 H   0  0  0  0  0  0  0  0  0  0  0  0
  150.3455  142.6836  156.4937 H   0  0  0  0  0  0  0  0  0  0  0  0
  152.4334  139.8001  157.7473 H   0  0  0  0  0  0  0  0  0  0  0  0
  153.4437  142.5602  161.7274 H   0  0  0  0  0  0  0  0  0  0  0  0
  152.7078  144.9295  161.8456 H   0  0  0  0  0  0  0  0  0  0  0  0
  151.4535  145.9526  159.9588 H   0  0  0  0  0  0  0  0  0  0  0  0
  150.9185  144.6024  157.9386 H   0  0  0  0  0  0  0  0  0  0  0  0
  144.7494  142.3391  157.6189 H   0  0  0  0  0  0  0  0  0  0  0  0
  143.5778  144.1214  156.3632 H   0  0  0  0  0  0  0  0  0  0  0  0
  1  2  1  0  0  0  0
  1 24  1  0  0  0  0
  1 25  1  0  0  0  0
  1 26  1  0  0  0  0
  2  3  1  0  0  0  0
  3 23  1  0  0  0  0
  3  4  2  0  0  0  0
  4  5  1  0  0  0  0
  4 27  1  0  0  0  0
  5  6  2  0  0  0  0
  5 28  1  0  0  0  0
  6  7  1  0  0  0  0
  6 22  1  0  0  0  0
  7  8  1  0  0  0  0
  7 29  1  0  0  0  0
  7 30  1  0  0  0  0
  8  9  1  0  0  0  0
  9 10  1  0  0  0  0
  9 31  1  0  0  0  0
  9 32  1  0  0  0  0
 10 11  1  0  0  0  0
 10 12  1  0  0  0  0
 10 33  1  0  0  0  0
 11 34  1  0  0  0  0
 12 13  1  0  0  0  0
 12 35  1  0  0  0  0
 12 36  1  0  0  0  0
 13 21  1  0  0  0  0
 13 14  1  0  0  0  0
 14 15  2  0  0  0  0
 14 37  1  0  0  0  0
 15 16  1  0  0  0  0
 16 21  2  0  0  0  0
 16 17  1  0  0  0  0
 17 18  2  0  0  0  0
 17 38  1  0  0  0  0
 18 19  1  0  0  0  0
 18 39  1  0  0  0  0
 19 20  2  0  0  0  0
 19 40  1  0  0  0  0
 20 21  1  0  0  0  0
 20 41  1  0  0  0  0
 22 23  2  0  0  0  0
 22 42  1  0  0  0  0
 23 43  1  0  0  0  0
M  END
> <s_m_source_file>
AV-unprocessed.smi

> <i_m_source_file_index>
2160

> <i_lp_mmshare_version>
43012

> <i_f3d_flags>
0

> <s_epik_input>
W0NIM11PYzFbY0hdW2NIXWMoW2NIXVtjSF0xKVtDSDJdT1tDSDJdW0NASF0oW09IXSlbQ0gyXW4oW2NIXW4yKWMoYzIzKVtjSF1bY0hdW2NIXVtjSF0z

> <s_epik_cmdline>
J2VwaWtfcHl0aG9uJywgJy1waCcsICc3LjAnLCAnLXRuJywgJzgnLCAnLW1hJywgJzIwMCcsICctbWV0YWxfYmluZGluZycsICctaW1hZScsICc8aW5maWxlLm1hZT4nLCAnLW9tYWUnLCAnPG91dGZpbGUubWFlPic=

> <r_lp_tautomer_probability>
1

> <r_epik_Ionization_Penalty>
0.0713119

> <r_epik_Ionization_Penalty_Charging>
0

> <r_epik_Ionization_Penalty_Neutral>
0.0713119

> <r_epik_State_Penalty>
0.06259

> <r_epik_Charging_Adjusted_Penalty>
0.06259

> <i_epik_Tot_Q>
0

> <i_epik_Tot_abs_Q>
0

> <r_epik_Metal_State_Penalty>
6.60119e-05

> <b_epik_Metal_Only>
0

> <s_lp_Force_Field>
OPLS_2005

> <r_lp_Energy>
17.5376

> <b_lp_Chiralities_Consistent>
1

> <s_lp_Variant>
AV-unprocessed.smi:2160-2

> <Gold.Version>
5.8.1

> <Gold.Id.Protein>
6NUR|6NUR_protein|mol2

> <Gold.PLP.Fitness>
51.7362

> <Gold.PLP.PLP>
-51.3561

> <Gold.PLP.part.hbond>
-1.6320

> <Gold.PLP.part.metal>
0.0000

> <Gold.PLP.part.buried>
-7.7777

> <Gold.PLP.part.nonpolar>
-42.0907

> <Gold.PLP.part.repulsive>
0.1962

> <Gold.PLP.ligand.clash>
0.0000

> <Gold.PLP.ligand.torsion>
1.4136

> <Gold.PLP.Chemscore.Hbond>
1.0000

> <Gold.PLP.Chemscore.CHOScore>
0.0000

> <Gold.PLP.Chemscore.Metal>
0.0000

> <Gold.Chemscore.Hbonds>
donor molecule, donor type, donor heavy atom, donor atom, acceptor molecule, acceptor atom, score
      P1  H  7989  7998       L1    11  1.00

> <Gold.PLP.Chemscore.Internal.Correction>
0.2073

> <Gold.Rescore>
     Score         DG    S(hbond)    S(metal)    S(lipo)     H(rot)  DE(clash)    DE(int)     intcor
     14.43     -17.36       0.96        0.00     131.69       2.63       1.67       1.27       ----

> <Gold.Chemscore.Fitness>
14.4256

> <Gold.Chemscore.DG>
-17.3646

> <Gold.Chemscore.ZeroCoef>
-5.4800

> <Gold.Chemscore.Hbond>
0.9615

> <Gold.Chemscore.Metal>
0.0000

> <Gold.Chemscore.Lipo>
131.6905

> <Gold.Chemscore.Internal_Hbond>
0.0000

> <Gold.Chemscore.DEClash>
1.6722

> <Gold.Chemscore.DEInternal>
1.2668

> <Gold.Chemscore.Rot>
2.6308

> <Gold.Chemscore.Internal.Correction>
   9.000000E+99

> <Gold.Chemscore.Hbonds>
donor molecule, donor type, donor heavy atom, donor atom, acceptor molecule, acceptor atom, score
      P1  H  7989  7998       L1    11  0.95

> <Gold.Chemscore.Hbond.Weighted>
-3.2116

> <Gold.Chemscore.Metal.Weighted>
-0.0000

> <Gold.Chemscore.Lipo.Weighted>
-15.4078

> <Gold.Chemscore.Internal_Hbond.Weighted>
0.0000

> <Gold.Chemscore.DEClash.Weighted>
1.6722

> <Gold.Chemscore.DEInternal.Weighted>
1.2668

> <Gold.Chemscore.Rot.Weighted>
6.7347

> <Gold.Chemscore.Internal.Correction.Weighted>
   9.000000E+99

> <Gold.Protein.RotatedTorsions>
[ 6907 6896 6895 6894 ] final  -51.31 input  -60.11 | X-H torsion
[ 7974 7965 7964 7962 ] final  -64.68 input  175.53 | X-H torsion
[ 8008 7997 7996 7995 ] final   62.65 input   59.86 | X-H torsion
[ 10167 10162 10161 10158 ] final   13.66 input  -65.29 | X-H torsion
[ 10718 10713 10712 10709 ] final  -19.43 input   66.30 | X-H torsion
[ 10763 10752 10751 10750 ] final   42.98 input  -60.55 | X-H torsion
[ 11005 11000 10999 10996 ] final  -67.54 input  -57.11 | X-H torsion

> <Gold.Protein.ActiveResidues>
 VAL166  LYS551  ARG553  GLY616  TRP617  ASP618  TYR619  PRO620  LYS621  CYS622 
 ASP623  PHE694  ASN695  SER759  ASP760  ASP761  ALA762  ILE779  LEU786  VAL792 
 PHE793  MET794  SER795  GLU796  ALA797  LYS798  CYS799  TRP800  GLU811  SER814 

> <Gold.Protein.RotatedAtoms>
  150.8623  134.7978  159.7091 H   0  0  0  0  0  0  0  0  0  0  0  0  # atno 6907 bound_to 6896
  152.4656  134.5080  159.9755 H   0  0  0  0  0  0  0  0  0  0  0  0  # atno 6908 bound_to 6896
  151.5182  133.3433  159.2932 H   0  0  0  0  0  0  0  0  0  0  0  0  # atno 6909 bound_to 6896
  145.7637  140.8848  143.0416 H   0  0  0  0  0  0  0  0  0  0  0  0  # atno 7974 bound_to 7965
  155.6177  140.3495  155.4642 H   0  0  0  0  0  0  0  0  0  0  0  0  # atno 8008 bound_to 7997
  156.0104  140.1232  157.0483 H   0  0  0  0  0  0  0  0  0  0  0  0  # atno 8009 bound_to 7997
  154.4279  140.1082  156.5808 H   0  0  0  0  0  0  0  0  0  0  0  0  # atno 8010 bound_to 7997
  140.5988  143.8647  150.6944 H   0  0  0  0  0  0  0  0  0  0  0  0  # atno 10167 bound_to 10162
  156.5457  130.4689  149.6476 H   0  0  0  0  0  0  0  0  0  0  0  0  # atno 10718 bound_to 10713
  152.9871  135.6115  154.3037 H   0  0  0  0  0  0  0  0  0  0  0  0  # atno 10763 bound_to 10752
  154.2756  135.2778  155.2721 H   0  0  0  0  0  0  0  0  0  0  0  0  # atno 10764 bound_to 10752
  154.5084  135.5848  153.6642 H   0  0  0  0  0  0  0  0  0  0  0  0  # atno 10765 bound_to 10752
  141.1510  133.6721  156.6308 H   0  0  0  0  0  0  0  0  0  0  0  0  # atno 11005 bound_to 11000
  144.6825  139.9759  143.7483 LP  0  0  0  0  0  0  0  0  0  0  0  0  # atno 17320 bound_to 7965
  146.0238  139.3274  143.0796 LP  0  0  0  0  0  0  0  0  0  0  0  0  # atno 17321 bound_to 7965
  140.2188  143.3825  152.1659 LP  0  0  0  0  0  0  0  0  0  0  0  0  # atno 17342 bound_to 10162
  139.5276  144.7122  151.5171 LP  0  0  0  0  0  0  0  0  0  0  0  0  # atno 17343 bound_to 10162
  156.2930  130.7135  151.1988 LP  0  0  0  0  0  0  0  0  0  0  0  0  # atno 17370 bound_to 10713
  157.7397  131.0526  150.5215 LP  0  0  0  0  0  0  0  0  0  0  0  0  # atno 17371 bound_to 10713
  140.3468  134.7802  157.4438 LP  0  0  0  0  0  0  0  0  0  0  0  0  # atno 17394 bound_to 11000
  140.0893  134.5623  155.8460 LP  0  0  0  0  0  0  0  0  0  0  0  0  # atno 17395 bound_to 11000

$$$$
