AV-unprocessed.smi:536|AV-procd|sdf|2862|dock1
  -GOLD-   2262023353D 1   1.00000     0.00000
 Structure written by MMmdl.
 46 48  0  0  0  0  0  0  0  0  1 V2000
  153.6225  138.2379  159.3233 C   0  0  0  0  0  0  0  0  0  0  0  0
  153.5603  138.9460  158.0985 O   0  0  0  0  0  0  0  0  0  0  0  0
  152.2332  139.1068  157.6266 C   0  0  0  0  0  0  0  0  0  0  0  0
  152.2282  139.8700  156.2923 C   0  0  0  0  0  0  0  0  0  0  0  0
  150.9080  140.4008  155.9699 N   0  0  0  0  0  0  0  0  0  0  0  0
  150.2820  141.4699  156.5254 C   0  0  0  0  0  0  0  0  0  0  0  0
  150.9099  142.2539  157.4892 N   0  0  0  0  0  0  0  0  0  0  0  0
  150.8205  143.7112  157.4624 C   0  0  0  0  0  0  0  0  0  0  0  0
  152.1464  144.4503  157.7236 C   0  0  0  0  0  0  0  0  0  0  0  0
  152.5408  144.4620  159.2083 C   0  0  0  0  0  0  0  0  0  0  0  0
  153.2654  143.1965  159.6972 C   0  0  0  0  0  0  0  0  0  0  0  0
  152.8435  141.8803  159.0234 C   0  0  0  0  0  0  0  0  0  0  0  0
  151.3320  141.7264  158.7841 C   0  0  0  0  0  0  0  0  0  0  0  0
  149.0557  141.7125  156.0559 N   0  0  0  0  0  0  0  0  0  0  0  0
  148.8918  140.7166  155.1042 C   0  0  0  0  0  0  0  0  0  0  0  0
  149.9937  139.9278  155.0278 C   0  0  0  0  0  0  0  0  0  0  0  0
  150.0936  138.8053  154.0862 C   0  0  0  0  0  0  0  0  0  0  0  0
  151.0868  138.0885  153.9856 O   0  0  0  0  0  0  0  0  0  0  0  0
  148.9783  138.6446  153.3330 N   0  0  0  0  0  0  0  0  0  0  0  0
  147.8362  139.3977  153.3638 C   0  0  0  0  0  0  0  0  0  0  0  0
  146.9042  139.1217  152.6090 O   0  0  0  0  0  0  0  0  0  0  0  0
  147.7872  140.4448  154.2505 N   0  0  0  0  0  0  0  0  0  0  0  0
  146.6161  141.3174  154.3567 C   0  0  0  0  0  0  0  0  0  0  0  0
  148.9935  137.8837  152.6695 H   0  0  0  0  0  0  0  0  0  0  0  0
  154.6612  138.1497  159.6415 H   0  0  0  0  0  0  0  0  0  0  0  0
  153.2160  137.2312  159.2181 H   0  0  0  0  0  0  0  0  0  0  0  0
  153.0727  138.7582  160.1085 H   0  0  0  0  0  0  0  0  0  0  0  0
  151.7763  138.1254  157.4983 H   0  0  0  0  0  0  0  0  0  0  0  0
  151.6396  139.6502  158.3631 H   0  0  0  0  0  0  0  0  0  0  0  0
  152.9436  140.6906  156.3330 H   0  0  0  0  0  0  0  0  0  0  0  0
  152.5670  139.2273  155.4809 H   0  0  0  0  0  0  0  0  0  0  0  0
  150.4570  144.0014  156.4756 H   0  0  0  0  0  0  0  0  0  0  0  0
  150.0555  144.0380  158.1677 H   0  0  0  0  0  0  0  0  0  0  0  0
  152.9523  144.0619  157.0998 H   0  0  0  0  0  0  0  0  0  0  0  0
  152.0059  145.4861  157.4127 H   0  0  0  0  0  0  0  0  0  0  0  0
  153.1837  145.3210  159.4041 H   0  0  0  0  0  0  0  0  0  0  0  0
  151.6477  144.6260  159.8125 H   0  0  0  0  0  0  0  0  0  0  0  0
  154.3389  143.3213  159.5513 H   0  0  0  0  0  0  0  0  0  0  0  0
  153.1240  143.1140  160.7755 H   0  0  0  0  0  0  0  0  0  0  0  0
  153.3811  141.7677  158.0823 H   0  0  0  0  0  0  0  0  0  0  0  0
  153.1861  141.0575  159.6517 H   0  0  0  0  0  0  0  0  0  0  0  0
  150.7587  142.1836  159.5914 H   0  0  0  0  0  0  0  0  0  0  0  0
  151.0837  140.6644  158.8037 H   0  0  0  0  0  0  0  0  0  0  0  0
  145.7988  141.0484  153.6870 H   0  0  0  0  0  0  0  0  0  0  0  0
  146.8983  142.3464  154.1317 H   0  0  0  0  0  0  0  0  0  0  0  0
  146.2243  141.2921  155.3741 H   0  0  0  0  0  0  0  0  0  0  0  0
  1  2  1  0  0  0  0
  1 25  1  0  0  0  0
  1 26  1  0  0  0  0
  1 27  1  0  0  0  0
  2  3  1  0  0  0  0
  3  4  1  0  0  0  0
  3 28  1  0  0  0  0
  3 29  1  0  0  0  0
  4  5  1  0  0  0  0
  4 30  1  0  0  0  0
  4 31  1  0  0  0  0
  5 16  1  0  0  0  0
  5  6  1  0  0  0  0
  6  7  1  0  0  0  0
  6 14  2  0  0  0  0
  7 13  1  0  0  0  0
  7  8  1  0  0  0  0
  8  9  1  0  0  0  0
  8 32  1  0  0  0  0
  8 33  1  0  0  0  0
  9 10  1  0  0  0  0
  9 34  1  0  0  0  0
  9 35  1  0  0  0  0
 10 11  1  0  0  0  0
 10 36  1  0  0  0  0
 10 37  1  0  0  0  0
 11 12  1  0  0  0  0
 11 38  1  0  0  0  0
 11 39  1  0  0  0  0
 12 13  1  0  0  0  0
 12 40  1  0  0  0  0
 12 41  1  0  0  0  0
 13 42  1  0  0  0  0
 13 43  1  0  0  0  0
 14 15  1  0  0  0  0
 15 22  1  0  0  0  0
 15 16  2  0  0  0  0
 16 17  1  0  0  0  0
 17 18  2  0  0  0  0
 17 19  1  0  0  0  0
 19 24  1  0  0  0  0
 19 20  1  0  0  0  0
 20 21  2  0  0  0  0
 20 22  1  0  0  0  0
 22 23  1  0  0  0  0
 23 44  1  0  0  0  0
 23 45  1  0  0  0  0
 23 46  1  0  0  0  0
M  END
> <s_m_source_file>
AV-unprocessed.smi

> <i_m_source_file_index>
536

> <i_lp_mmshare_version>
43012

> <i_f3d_flags>
0

> <s_epik_input>
W0NIM11uMWMoPU8pW25IXWMoPU8pYyhjMTIpbihbQ0gyXVtDSDJdT1tDSDNdKWMobjIpTjNbQ0gyXVtDSDJdW0NIMl1bQ0gyXVtDSDJdW0NIMl0z

> <s_epik_cmdline>
J2VwaWtfcHl0aG9uJywgJy1waCcsICc3LjAnLCAnLXRuJywgJzgnLCAnLW1hJywgJzIwMCcsICctbWV0YWxfYmluZGluZycsICctaW1hZScsICc8aW5maWxlLm1hZT4nLCAnLW9tYWUnLCAnPG91dGZpbGUubWFlPic=

> <r_lp_tautomer_probability>
1

> <r_epik_Ionization_Penalty>
0.000219348

> <r_epik_Ionization_Penalty_Charging>
2.05342e-05

> <r_epik_Ionization_Penalty_Neutral>
0.000198814

> <r_epik_State_Penalty>
-0

> <r_epik_Charging_Adjusted_Penalty>
2.05342e-05

> <i_epik_Tot_Q>
0

> <i_epik_Tot_abs_Q>
0

> <r_epik_Metal_State_Penalty>
0.0195159

> <b_epik_Metal_Only>
0

> <s_lp_Force_Field>
OPLS_2005

> <r_lp_Energy>
45.5568

> <b_lp_Chiralities_Consistent>
1

> <s_lp_Variant>
AV-unprocessed.smi:536-1

> <Gold.Version>
5.8.1

> <Gold.Id.Protein>
6NUR|6NUR_protein|mol2

> <Gold.PLP.Fitness>
48.6141

> <Gold.PLP.PLP>
-43.9141

> <Gold.PLP.part.hbond>
-3.0000

> <Gold.PLP.part.metal>
0.0000

> <Gold.PLP.part.buried>
-0.5451

> <Gold.PLP.part.nonpolar>
-42.2453

> <Gold.PLP.part.repulsive>
2.0708

> <Gold.PLP.ligand.clash>
0.0000

> <Gold.PLP.ligand.torsion>
1.1708

> <Gold.PLP.Chemscore.Hbond>
2.0000

> <Gold.PLP.Chemscore.CHOScore>
0.0000

> <Gold.PLP.Chemscore.Metal>
0.0000

> <Gold.Chemscore.Hbonds>
donor molecule, donor type, donor heavy atom, donor atom, acceptor molecule, acceptor atom, score
      L1  H    19    24       P1  7948  1.00
      P1  H  7997  8010       L1     2  1.00

> <Gold.PLP.Chemscore.Internal.Correction>
1.0414

> <Gold.Rescore>
     Score         DG    S(hbond)    S(metal)    S(lipo)     H(rot)  DE(clash)    DE(int)     intcor
     16.74     -19.38       1.92        0.00      95.82       1.46       1.38       1.26       ----

> <Gold.Chemscore.Fitness>
16.7436

> <Gold.Chemscore.DG>
-19.3756

> <Gold.Chemscore.ZeroCoef>
-5.4800

> <Gold.Chemscore.Hbond>
1.9194

> <Gold.Chemscore.Metal>
0.0000

> <Gold.Chemscore.Lipo>
95.8244

> <Gold.Chemscore.Internal_Hbond>
0.0000

> <Gold.Chemscore.DEClash>
1.3764

> <Gold.Chemscore.DEInternal>
1.2557

> <Gold.Chemscore.Rot>
1.4557

> <Gold.Chemscore.Internal.Correction>
   9.000000E+99

> <Gold.Chemscore.Hbonds>
donor molecule, donor type, donor heavy atom, donor atom, acceptor molecule, acceptor atom, score
      L1  H    19    24       P1  7948  1.00
      P1  H  7997  8010       L1     2  0.85

> <Gold.Chemscore.Hbond.Weighted>
-6.4109

> <Gold.Chemscore.Metal.Weighted>
-0.0000

> <Gold.Chemscore.Lipo.Weighted>
-11.2115

> <Gold.Chemscore.Internal_Hbond.Weighted>
0.0000

> <Gold.Chemscore.DEClash.Weighted>
1.3764

> <Gold.Chemscore.DEInternal.Weighted>
1.2557

> <Gold.Chemscore.Rot.Weighted>
3.7267

> <Gold.Chemscore.Internal.Correction.Weighted>
   9.000000E+99

> <Gold.Protein.RotatedTorsions>
[ 6907 6896 6895 6894 ] final  -26.01 input  -60.11 | X-H torsion
[ 7974 7965 7964 7962 ] final   28.53 input  175.53 | X-H torsion
[ 8008 7997 7996 7995 ] final   20.25 input   59.86 | X-H torsion
[ 10167 10162 10161 10158 ] final   -6.67 input  -65.29 | X-H torsion
[ 10718 10713 10712 10709 ] final  -31.13 input   66.30 | X-H torsion
[ 10763 10752 10751 10750 ] final  -76.11 input  -60.55 | X-H torsion
[ 11005 11000 10999 10996 ] final  -70.72 input  -57.11 | X-H torsion

> <Gold.Protein.ActiveResidues>
 VAL166  LYS551  ARG553  GLY616  TRP617  ASP618  TYR619  PRO620  LYS621  CYS622 
 ASP623  PHE694  ASN695  SER759  ASP760  ASP761  ALA762  ILE779  LEU786  VAL792 
 PHE793  MET794  SER795  GLU796  ALA797  LYS798  CYS799  TRP800  GLU811  SER814 

> <Gold.Protein.RotatedAtoms>
  151.1671  135.0300  159.8735 H   0  0  0  0  0  0  0  0  0  0  0  0  # atno 6907 bound_to 6896
  152.5450  134.1213  159.8410 H   0  0  0  0  0  0  0  0  0  0  0  0  # atno 6908 bound_to 6896
  151.1315  133.4987  159.2631 H   0  0  0  0  0  0  0  0  0  0  0  0  # atno 6909 bound_to 6896
  146.1724  139.7044  142.8958 H   0  0  0  0  0  0  0  0  0  0  0  0  # atno 7974 bound_to 7965
  154.9328  140.3042  155.5159 H   0  0  0  0  0  0  0  0  0  0  0  0  # atno 8008 bound_to 7997
  156.3002  140.2350  156.4327 H   0  0  0  0  0  0  0  0  0  0  0  0  # atno 8009 bound_to 7997
  154.8220  140.0423  157.1406 H   0  0  0  0  0  0  0  0  0  0  0  0  # atno 8010 bound_to 7997
  140.7004  143.6167  150.8651 H   0  0  0  0  0  0  0  0  0  0  0  0  # atno 10167 bound_to 10162
  156.3911  130.4373  149.7394 H   0  0  0  0  0  0  0  0  0  0  0  0  # atno 10718 bound_to 10713
  154.4955  135.5809  153.6491 H   0  0  0  0  0  0  0  0  0  0  0  0  # atno 10763 bound_to 10752
  152.9869  135.6123  154.3070 H   0  0  0  0  0  0  0  0  0  0  0  0  # atno 10764 bound_to 10752
  154.2973  135.2847  155.2606 H   0  0  0  0  0  0  0  0  0  0  0  0  # atno 10765 bound_to 10752
  141.1579  133.6797  156.6796 H   0  0  0  0  0  0  0  0  0  0  0  0  # atno 11005 bound_to 11000
  145.4305  141.0414  143.2913 LP  0  0  0  0  0  0  0  0  0  0  0  0  # atno 17320 bound_to 7965
  144.8183  139.5837  143.6998 LP  0  0  0  0  0  0  0  0  0  0  0  0  # atno 17321 bound_to 7965
  139.9889  143.5869  152.2917 LP  0  0  0  0  0  0  0  0  0  0  0  0  # atno 17342 bound_to 10162
  139.6517  144.7661  151.2136 LP  0  0  0  0  0  0  0  0  0  0  0  0  # atno 17343 bound_to 10162
  156.4447  130.7878  151.2899 LP  0  0  0  0  0  0  0  0  0  0  0  0  # atno 17370 bound_to 10713
  157.7499  131.0114  150.3344 LP  0  0  0  0  0  0  0  0  0  0  0  0  # atno 17371 bound_to 10713
  140.3112  134.8084  157.4178 LP  0  0  0  0  0  0  0  0  0  0  0  0  # atno 17394 bound_to 11000
  140.1177  134.5262  155.8211 LP  0  0  0  0  0  0  0  0  0  0  0  0  # atno 17395 bound_to 11000

$$$$
