AV-unprocessed.smi:3305|AV-procd|sdf|12699|dock6
  -GOLD-   2272019 33D 1   1.00000     0.00000
 Structure written by MMmdl.
 32 33  0  0  0  0  0  0  0  0  1 V2000
  153.5927  141.6890  161.5270 C   0  0  0  0  0  0  0  0  0  0  0  0
  152.8189  142.8091  160.9065 C   0  0  0  0  0  0  0  0  0  0  0  0
  152.4994  144.0149  161.4795 C   0  0  0  0  0  0  0  0  0  0  0  0
  151.5632  145.0177  160.4045 S   0  0  0  0  0  0  0  0  0  0  0  0
  151.6534  143.7472  159.1908 C   0  0  0  0  0  0  0  0  0  0  0  0
  150.9774  143.8319  157.8588 C   0  0  0  0  0  0  0  0  0  0  0  0
  151.2530  142.6238  156.9388 C   0  0  0  0  0  0  0  0  0  0  0  0
  150.0738  142.1967  156.1915 N   0  0  0  0  0  0  0  0  0  0  0  0
  150.0106  141.1159  155.3992 C   0  0  0  0  0  0  0  0  0  0  0  0
  150.9847  140.4049  155.1500 O   0  0  0  0  0  0  0  0  0  0  0  0
  148.6258  140.7764  154.8259 C   0  0  2  0  0  0  0  0  0  0  0  0
  148.0076  141.9708  154.0911 C   0  0  0  0  0  0  0  0  0  0  0  0
  146.7716  142.3395  154.9147 C   0  0  0  0  0  0  0  0  0  0  0  0
  146.9916  141.7372  156.1792 O   0  0  0  0  0  0  0  0  0  0  0  0
  147.6010  140.4814  155.9297 C   0  0  0  0  0  0  0  0  0  0  0  0
  152.3337  142.6738  159.6039 N   0  0  0  0  0  0  0  0  0  0  0  0
  153.9184  141.9392  162.5368 H   0  0  0  0  0  0  0  0  0  0  0  0
  154.4820  141.4535  160.9422 H   0  0  0  0  0  0  0  0  0  0  0  0
  152.9887  140.7835  161.5903 H   0  0  0  0  0  0  0  0  0  0  0  0
  152.7509  144.3701  162.4678 H   0  0  0  0  0  0  0  0  0  0  0  0
  149.9041  143.9367  158.0180 H   0  0  0  0  0  0  0  0  0  0  0  0
  151.3014  144.7506  157.3678 H   0  0  0  0  0  0  0  0  0  0  0  0
  152.0140  142.8967  156.2073 H   0  0  0  0  0  0  0  0  0  0  0  0
  151.6613  141.7907  157.5128 H   0  0  0  0  0  0  0  0  0  0  0  0
  149.2260  142.7248  156.3394 H   0  0  0  0  0  0  0  0  0  0  0  0
  148.7118  139.9149  154.1619 H   0  0  0  0  0  0  0  0  0  0  0  0
  148.6910  142.8204  154.0371 H   0  0  0  0  0  0  0  0  0  0  0  0
  147.7344  141.7173  153.0665 H   0  0  0  0  0  0  0  0  0  0  0  0
  146.6322  143.4170  155.0043 H   0  0  0  0  0  0  0  0  0  0  0  0
  145.8713  141.9154  154.4675 H   0  0  0  0  0  0  0  0  0  0  0  0
  146.8493  139.7733  155.5775 H   0  0  0  0  0  0  0  0  0  0  0  0
  148.0423  140.0720  156.8395 H   0  0  0  0  0  0  0  0  0  0  0  0
  1  2  1  0  0  0  0
  1 17  1  0  0  0  0
  1 18  1  0  0  0  0
  1 19  1  0  0  0  0
  2 16  1  0  0  0  0
  2  3  2  0  0  0  0
  3  4  1  0  0  0  0
  3 20  1  0  0  0  0
  4  5  1  0  0  0  0
  5  6  1  0  0  0  0
  5 16  2  0  0  0  0
  6  7  1  0  0  0  0
  6 21  1  0  0  0  0
  6 22  1  0  0  0  0
  7  8  1  0  0  0  0
  7 23  1  0  0  0  0
  7 24  1  0  0  0  0
  8  9  1  0  0  0  0
  8 25  1  0  0  0  0
  9 10  2  0  0  0  0
  9 11  1  0  0  0  0
 11 15  1  0  0  0  0
 11 12  1  0  0  0  0
 11 26  1  0  0  0  0
 12 13  1  0  0  0  0
 12 27  1  0  0  0  0
 12 28  1  0  0  0  0
 13 14  1  0  0  0  0
 13 29  1  0  0  0  0
 13 30  1  0  0  0  0
 14 15  1  0  0  0  0
 15 31  1  0  0  0  0
 15 32  1  0  0  0  0
M  END
> <s_m_source_file>
AV-unprocessed.smi

> <i_m_source_file_index>
3305

> <i_lp_mmshare_version>
43012

> <i_f3d_flags>
0

> <s_epik_input>
W0NIM11jMVtjSF1zYyhuMSlbQ0gyXVtDSDJdW05IXUMoPU8pW0NAQEhdMltDSDJdW0NIMl1PW0NIMl0y

> <s_epik_cmdline>
J2VwaWtfcHl0aG9uJywgJy1waCcsICc3LjAnLCAnLXRuJywgJzgnLCAnLW1hJywgJzIwMCcsICctbWV0YWxfYmluZGluZycsICctaW1hZScsICc8aW5maWxlLm1hZT4nLCAnLW9tYWUnLCAnPG91dGZpbGUubWFlPic=

> <r_epik_Ionization_Penalty>
0.00102754

> <r_epik_Ionization_Penalty_Charging>
0

> <r_epik_Ionization_Penalty_Neutral>
0.00102754

> <r_epik_State_Penalty>
0.000671034

> <r_epik_Charging_Adjusted_Penalty>
0.000671034

> <i_epik_Tot_Q>
0

> <i_epik_Tot_abs_Q>
0

> <r_epik_Metal_State_Penalty>
-0

> <b_epik_Metal_Only>
0

> <s_lp_Force_Field>
OPLS_2005

> <r_lp_Energy>
8.47785

> <b_lp_Chiralities_Consistent>
1

> <s_lp_Variant>
AV-unprocessed.smi:3305-1

> <Gold.Version>
5.8.1

> <Gold.Id.Protein>
6NUR|6NUR_protein|mol2

> <Gold.PLP.Fitness>
40.1710

> <Gold.PLP.PLP>
-36.6976

> <Gold.PLP.part.hbond>
-2.0000

> <Gold.PLP.part.metal>
0.0000

> <Gold.PLP.part.buried>
-3.5028

> <Gold.PLP.part.nonpolar>
-29.7168

> <Gold.PLP.part.repulsive>
0.2477

> <Gold.PLP.ligand.clash>
0.0000

> <Gold.PLP.ligand.torsion>
0.3601

> <Gold.PLP.Chemscore.Hbond>
1.3827

> <Gold.PLP.Chemscore.CHOScore>
0.0000

> <Gold.PLP.Chemscore.Metal>
0.0000

> <Gold.Chemscore.Hbonds>
donor molecule, donor type, donor heavy atom, donor atom, acceptor molecule, acceptor atom, score
      L1  H     8    25       P1  8028  0.38
      P1  H  7989  7998       L1    10  1.00

> <Gold.PLP.Chemscore.Internal.Correction>
0.0454

> <Gold.Rescore>
     Score         DG    S(hbond)    S(metal)    S(lipo)     H(rot)  DE(clash)    DE(int)     intcor
     16.54     -17.43       1.41        0.00      95.11       1.52       0.20       0.69       ----

> <Gold.Chemscore.Fitness>
16.5365

> <Gold.Chemscore.DG>
-17.4303

> <Gold.Chemscore.ZeroCoef>
-5.4800

> <Gold.Chemscore.Hbond>
1.4079

> <Gold.Chemscore.Metal>
0.0000

> <Gold.Chemscore.Lipo>
95.1148

> <Gold.Chemscore.Internal_Hbond>
0.0000

> <Gold.Chemscore.DEClash>
0.2033

> <Gold.Chemscore.DEInternal>
0.6904

> <Gold.Chemscore.Rot>
1.5159

> <Gold.Chemscore.Internal.Correction>
   9.000000E+99

> <Gold.Chemscore.Hbonds>
donor molecule, donor type, donor heavy atom, donor atom, acceptor molecule, acceptor atom, score
      L1  H     8    25       P1  8028  0.36
      P1  H  7989  7998       L1    10  0.63

> <Gold.Chemscore.Hbond.Weighted>
-4.7025

> <Gold.Chemscore.Metal.Weighted>
-0.0000

> <Gold.Chemscore.Lipo.Weighted>
-11.1284

> <Gold.Chemscore.Internal_Hbond.Weighted>
0.0000

> <Gold.Chemscore.DEClash.Weighted>
0.2033

> <Gold.Chemscore.DEInternal.Weighted>
0.6904

> <Gold.Chemscore.Rot.Weighted>
3.8807

> <Gold.Chemscore.Internal.Correction.Weighted>
   9.000000E+99

> <Gold.Protein.RotatedTorsions>
[ 6907 6896 6895 6894 ] final   86.52 input  -60.11 | X-H torsion
[ 7974 7965 7964 7962 ] final  -94.26 input  175.53 | X-H torsion
[ 8008 7997 7996 7995 ] final  -68.34 input   59.86 | X-H torsion
[ 10167 10162 10161 10158 ] final  -44.91 input  -65.29 | X-H torsion
[ 10718 10713 10712 10709 ] final   63.70 input   66.30 | X-H torsion
[ 10763 10752 10751 10750 ] final   57.86 input  -60.55 | X-H torsion
[ 11005 11000 10999 10996 ] final  -10.79 input  -57.11 | X-H torsion

> <Gold.Protein.ActiveResidues>
 VAL166  LYS551  ARG553  GLY616  TRP617  ASP618  TYR619  PRO620  LYS621  CYS622 
 ASP623  PHE694  ASN695  SER759  ASP760  ASP761  ALA762  ILE779  LEU786  VAL792 
 PHE793  MET794  SER795  GLU796  ALA797  LYS798  CYS799  TRP800  GLU811  SER814 

> <Gold.Protein.RotatedAtoms>
  152.5395  134.2419  159.8865 H   0  0  0  0  0  0  0  0  0  0  0  0  # atno 6907 bound_to 6896
  151.2386  133.4405  159.2614 H   0  0  0  0  0  0  0  0  0  0  0  0  # atno 6908 bound_to 6896
  151.0648  134.9774  159.8335 H   0  0  0  0  0  0  0  0  0  0  0  0  # atno 6909 bound_to 6896
  145.3756  140.9511  143.2422 H   0  0  0  0  0  0  0  0  0  0  0  0  # atno 7974 bound_to 7965
  154.4861  140.0875  156.7489 H   0  0  0  0  0  0  0  0  0  0  0  0  # atno 8008 bound_to 7997
  155.4347  140.3451  155.4265 H   0  0  0  0  0  0  0  0  0  0  0  0  # atno 8009 bound_to 7997
  156.1263  140.1488  156.9119 H   0  0  0  0  0  0  0  0  0  0  0  0  # atno 8010 bound_to 7997
  140.6879  143.2906  151.3563 H   0  0  0  0  0  0  0  0  0  0  0  0  # atno 10167 bound_to 10162
  157.5989  130.9120  149.9750 H   0  0  0  0  0  0  0  0  0  0  0  0  # atno 10718 bound_to 10713
  152.9858  135.5627  154.5458 H   0  0  0  0  0  0  0  0  0  0  0  0  # atno 10763 bound_to 10752
  154.4905  135.2792  155.1503 H   0  0  0  0  0  0  0  0  0  0  0  0  # atno 10764 bound_to 10752
  154.2974  135.6314  153.5463 H   0  0  0  0  0  0  0  0  0  0  0  0  # atno 10765 bound_to 10752
  140.7484  133.8612  155.9025 H   0  0  0  0  0  0  0  0  0  0  0  0  # atno 11005 bound_to 11000
  144.8545  139.5271  143.6841 LP  0  0  0  0  0  0  0  0  0  0  0  0  # atno 17320 bound_to 7965
  146.2865  139.7020  142.9191 LP  0  0  0  0  0  0  0  0  0  0  0  0  # atno 17321 bound_to 7965
  139.6253  144.0826  152.2428 LP  0  0  0  0  0  0  0  0  0  0  0  0  # atno 17342 bound_to 10162
  140.0284  144.6100  150.7508 LP  0  0  0  0  0  0  0  0  0  0  0  0  # atno 17343 bound_to 10162
  156.1058  130.3653  150.0136 LP  0  0  0  0  0  0  0  0  0  0  0  0  # atno 17370 bound_to 10713
  156.8243  130.9370  151.3640 LP  0  0  0  0  0  0  0  0  0  0  0  0  # atno 17371 bound_to 10713
  140.9773  134.1452  157.4525 LP  0  0  0  0  0  0  0  0  0  0  0  0  # atno 17394 bound_to 11000
  139.8792  134.9999  156.5978 LP  0  0  0  0  0  0  0  0  0  0  0  0  # atno 17395 bound_to 11000

$$$$
