AV-unprocessed.smi:705|AV-procd|sdf|3448|dock4
  -GOLD-   22720 0433D 1   1.00000     0.00000
 Structure written by MMmdl.
 29 30  0  0  0  0  0  0  0  0  2 V2000
  150.7733  137.7525  153.8987 N   0  0  0  0  0  0  0  0  0  0  0  0
  151.6521  138.1857  154.8065 C   0  0  0  0  0  0  0  0  0  0  0  0
  152.6922  137.5831  155.0669 O   0  0  0  0  0  0  0  0  0  0  0  0
  151.2925  139.4696  155.4947 C   0  0  0  0  0  0  0  0  0  0  0  0
  151.7622  139.7442  156.8144 C   0  0  0  0  0  0  0  0  0  0  0  0
  151.2477  140.9763  157.1091 C   0  0  0  0  0  0  0  0  0  0  0  0
  151.3612  141.8269  158.3349 C   0  0  2  0  0  0  0  0  0  0  0  0
  151.9181  143.2281  158.0151 C   0  0  0  0  0  0  0  0  0  0  0  0
  152.0465  144.0694  159.2942 C   0  0  0  0  0  0  0  0  0  0  0  0
  152.8908  143.3368  160.3489 C   0  0  0  0  0  0  0  0  0  0  0  0
  152.3266  141.9990  160.6295 N   0  3  0  0  0  0  0  0  0  0  0  0
  152.2234  141.1508  159.4213 C   0  0  0  0  0  0  0  0  0  0  0  0
  150.5216  141.3619  156.0047 N   0  0  0  0  0  0  0  0  0  0  0  0
  150.5421  140.4525  155.0126 N   0  0  0  0  0  0  0  0  0  0  0  0
  150.0178  142.2329  155.9122 H   0  0  0  0  0  0  0  0  0  0  0  0
  150.9503  136.8955  153.3954 H   0  0  0  0  0  0  0  0  0  0  0  0
  149.9355  138.2874  153.7209 H   0  0  0  0  0  0  0  0  0  0  0  0
  152.3836  139.1295  157.4491 H   0  0  0  0  0  0  0  0  0  0  0  0
  150.3595  141.9601  158.7473 H   0  0  0  0  0  0  0  0  0  0  0  0
  152.8961  143.1417  157.5395 H   0  0  0  0  0  0  0  0  0  0  0  0
  151.2695  143.7367  157.3010 H   0  0  0  0  0  0  0  0  0  0  0  0
  152.4958  145.0353  159.0608 H   0  0  0  0  0  0  0  0  0  0  0  0
  151.0549  144.2787  159.6976 H   0  0  0  0  0  0  0  0  0  0  0  0
  153.9195  143.2277  160.0026 H   0  0  0  0  0  0  0  0  0  0  0  0
  152.9240  143.9121  161.2744 H   0  0  0  0  0  0  0  0  0  0  0  0
  152.9116  141.5320  161.3079 H   0  0  0  0  0  0  0  0  0  0  0  0
  151.7910  140.1906  159.7046 H   0  0  0  0  0  0  0  0  0  0  0  0
  153.2265  140.9477  159.0432 H   0  0  0  0  0  0  0  0  0  0  0  0
  151.4030  142.1153  161.0214 H   0  0  0  0  0  0  0  0  0  0  0  0
  1  2  1  0  0  0  0
  1 16  1  0  0  0  0
  1 17  1  0  0  0  0
  2  3  2  0  0  0  0
  2  4  1  0  0  0  0
  4 14  2  0  0  0  0
  4  5  1  0  0  0  0
  5  6  2  0  0  0  0
  5 18  1  0  0  0  0
  6  7  1  0  0  0  0
  6 13  1  0  0  0  0
  7 12  1  0  0  0  0
  7  8  1  0  0  0  0
  7 19  1  0  0  0  0
  8  9  1  0  0  0  0
  8 20  1  0  0  0  0
  8 21  1  0  0  0  0
  9 10  1  0  0  0  0
  9 22  1  0  0  0  0
  9 23  1  0  0  0  0
 10 11  1  0  0  0  0
 10 24  1  0  0  0  0
 10 25  1  0  0  0  0
 11 12  1  0  0  0  0
 11 26  1  0  0  0  0
 11 29  1  0  0  0  0
 12 27  1  0  0  0  0
 12 28  1  0  0  0  0
 13 15  1  0  0  0  0
 13 14  1  0  0  0  0
M  CHG  1  11   1
M  END
> <s_m_source_file>
AV-unprocessed.smi

> <i_m_source_file_index>
705

> <i_lp_mmshare_version>
43012

> <i_f3d_flags>
0

> <s_epik_input>
W05IMl1DKD1PKWMxW2NIXWMoW25IXW4xKVtDQEBIXTJbQ0gyXVtDSDJdW0NIMl1bTkhdW0NIMl0y

> <s_epik_cmdline>
J2VwaWtfcHl0aG9uJywgJy1waCcsICc3LjAnLCAnLXRuJywgJzgnLCAnLW1hJywgJzIwMCcsICctbWV0YWxfYmluZGluZycsICctaW1hZScsICc8aW5maWxlLm1hZT4nLCAnLW9tYWUnLCAnPG91dGZpbGUubWFlPic=

> <r_lp_tautomer_probability>
0.5

> <r_epik_Ionization_Penalty>
0.000245231

> <r_epik_Ionization_Penalty_Charging>
0.000226378

> <r_epik_Ionization_Penalty_Neutral>
1.88531e-05

> <r_epik_State_Penalty>
0.41068

> <r_epik_Charging_Adjusted_Penalty>
0.410906

> <i_epik_Tot_Q>
1

> <i_epik_Tot_abs_Q>
1

> <r_epik_Metal_State_Penalty>
0.446108

> <b_epik_Metal_Only>
0

> <s_lp_Force_Field>
OPLS_2005

> <r_lp_Energy>
15.347

> <b_lp_Chiralities_Consistent>
1

> <s_lp_Variant>
AV-unprocessed.smi:705-3

> <Gold.Version>
5.8.1

> <Gold.Id.Protein>
6NUR|6NUR_protein|mol2

> <Gold.PLP.Fitness>
36.7511

> <Gold.PLP.PLP>
-30.2351

> <Gold.PLP.part.hbond>
-3.8451

> <Gold.PLP.part.metal>
0.0000

> <Gold.PLP.part.buried>
-5.6003

> <Gold.PLP.part.nonpolar>
-21.5578

> <Gold.PLP.part.repulsive>
0.4831

> <Gold.PLP.ligand.clash>
0.0000

> <Gold.PLP.ligand.torsion>
0.3382

> <Gold.PLP.Chemscore.Hbond>
2.3920

> <Gold.PLP.Chemscore.CHOScore>
0.0000

> <Gold.PLP.Chemscore.Metal>
0.0000

> <Gold.Chemscore.Hbonds>
donor molecule, donor type, donor heavy atom, donor atom, acceptor molecule, acceptor atom, score
      L1  H     1    16       P1  7949  0.69
      P1  H  7989  7998       L1    14  0.90
      P1  H 10752 10763       L1     3  0.45

> <Gold.PLP.Chemscore.Internal.Correction>
0.0164

> <Gold.Rescore>
     Score         DG    S(hbond)    S(metal)    S(lipo)     H(rot)  DE(clash)    DE(int)     intcor
     17.97     -18.43       2.31        0.00      66.77       1.00       0.10       0.36       ----

> <Gold.Chemscore.Fitness>
17.9743

> <Gold.Chemscore.DG>
-18.4335

> <Gold.Chemscore.ZeroCoef>
-5.4800

> <Gold.Chemscore.Hbond>
2.3059

> <Gold.Chemscore.Metal>
0.0000

> <Gold.Chemscore.Lipo>
66.7673

> <Gold.Chemscore.Internal_Hbond>
0.0000

> <Gold.Chemscore.DEClash>
0.1004

> <Gold.Chemscore.DEInternal>
0.3588

> <Gold.Chemscore.Rot>
1.0000

> <Gold.Chemscore.Internal.Correction>
   9.000000E+99

> <Gold.Chemscore.Hbonds>
donor molecule, donor type, donor heavy atom, donor atom, acceptor molecule, acceptor atom, score
      L1  H     1    16       P1  7949  0.15
      P1  H  7989  7998       L1    14  0.16
      P1  H 10752 10763       L1     3  0.42

> <Gold.Chemscore.Hbond.Weighted>
-7.7018

> <Gold.Chemscore.Metal.Weighted>
-0.0000

> <Gold.Chemscore.Lipo.Weighted>
-7.8118

> <Gold.Chemscore.Internal_Hbond.Weighted>
0.0000

> <Gold.Chemscore.DEClash.Weighted>
0.1004

> <Gold.Chemscore.DEInternal.Weighted>
0.3588

> <Gold.Chemscore.Rot.Weighted>
2.5600

> <Gold.Chemscore.Internal.Correction.Weighted>
   9.000000E+99

> <Gold.Protein.RotatedTorsions>
[ 6907 6896 6895 6894 ] final -134.56 input  -60.11 | X-H torsion
[ 7974 7965 7964 7962 ] final -143.02 input  175.53 | X-H torsion
[ 8008 7997 7996 7995 ] final   23.13 input   59.86 | X-H torsion
[ 10167 10162 10161 10158 ] final  -62.91 input  -65.29 | X-H torsion
[ 10718 10713 10712 10709 ] final  112.81 input   66.30 | X-H torsion
[ 10763 10752 10751 10750 ] final   65.86 input  -60.55 | X-H torsion
[ 11005 11000 10999 10996 ] final   58.89 input  -57.11 | X-H torsion

> <Gold.Protein.ActiveResidues>
 VAL166  LYS551  ARG553  GLY616  TRP617  ASP618  TYR619  PRO620  LYS621  CYS622 
 ASP623  PHE694  ASN695  SER759  ASP760  ASP761  ALA762  ILE779  LEU786  VAL792 
 PHE793  MET794  SER795  GLU796  ALA797  LYS798  CYS799  TRP800  GLU811  SER814 

> <Gold.Protein.RotatedAtoms>
  150.9873  133.6185  159.2713 H   0  0  0  0  0  0  0  0  0  0  0  0  # atno 6907 bound_to 6896
  151.3418  135.0864  159.9383 H   0  0  0  0  0  0  0  0  0  0  0  0  # atno 6908 bound_to 6896
  152.5235  133.9482  159.7714 H   0  0  0  0  0  0  0  0  0  0  0  0  # atno 6909 bound_to 6896
  144.8400  140.5886  143.5458 H   0  0  0  0  0  0  0  0  0  0  0  0  # atno 7974 bound_to 7965
  154.9763  140.3096  155.4966 H   0  0  0  0  0  0  0  0  0  0  0  0  # atno 8008 bound_to 7997
  156.2959  140.2275  156.4798 H   0  0  0  0  0  0  0  0  0  0  0  0  # atno 8009 bound_to 7997
  154.7831  140.0444  157.1131 H   0  0  0  0  0  0  0  0  0  0  0  0  # atno 8010 bound_to 7997
  140.5907  143.2341  151.6145 H   0  0  0  0  0  0  0  0  0  0  0  0  # atno 10167 bound_to 10162
  157.6372  131.0974  150.6950 H   0  0  0  0  0  0  0  0  0  0  0  0  # atno 10718 bound_to 10713
  153.0114  135.5341  154.6733 H   0  0  0  0  0  0  0  0  0  0  0  0  # atno 10763 bound_to 10752
  154.5912  135.2859  155.0636 H   0  0  0  0  0  0  0  0  0  0  0  0  # atno 10764 bound_to 10752
  154.1728  135.6529  153.5066 H   0  0  0  0  0  0  0  0  0  0  0  0  # atno 10765 bound_to 10752
  140.0344  134.5965  155.9464 H   0  0  0  0  0  0  0  0  0  0  0  0  # atno 11005 bound_to 11000
  145.4714  139.1503  143.3812 LP  0  0  0  0  0  0  0  0  0  0  0  0  # atno 17320 bound_to 7965
  146.2694  140.4847  142.8821 LP  0  0  0  0  0  0  0  0  0  0  0  0  # atno 17321 bound_to 7965
  139.5226  144.3159  152.0953 LP  0  0  0  0  0  0  0  0  0  0  0  0  # atno 17342 bound_to 10162
  140.2323  144.4356  150.6295 LP  0  0  0  0  0  0  0  0  0  0  0  0  # atno 17343 bound_to 10162
  156.7279  130.4700  149.5506 LP  0  0  0  0  0  0  0  0  0  0  0  0  # atno 17370 bound_to 10713
  156.1621  130.6381  151.0732 LP  0  0  0  0  0  0  0  0  0  0  0  0  # atno 17371 bound_to 10713
  141.1849  133.6554  156.5175 LP  0  0  0  0  0  0  0  0  0  0  0  0  # atno 17394 bound_to 11000
  140.4172  134.7219  157.4870 LP  0  0  0  0  0  0  0  0  0  0  0  0  # atno 17395 bound_to 11000

$$$$
