AV-unprocessed.smi:16|AV-procd|sdf|87|dock6
  -GOLD-   2262015223D 1   1.00000     0.00000
 Structure written by MMmdl.
 60 64  0  0  0  0  0  0  0  0  2 V2000
  146.8592  138.5558  151.7069 C   0  0  0  0  0  0  0  0  0  0  0  0
  146.7435  139.6850  152.7395 C   0  0  0  0  0  0  0  0  0  0  0  0
  148.0664  140.1073  153.2706 N   0  3  1  0  0  0  0  0  0  0  0  0
  148.1108  141.4893  153.8186 C   0  0  0  0  0  0  0  0  0  0  0  0
  147.4648  141.5787  155.2104 C   0  0  0  0  0  0  0  0  0  0  0  0
  148.1288  140.5857  156.1849 C   0  0  1  0  0  0  0  0  0  0  0  0
  147.5630  140.6429  157.4945 O   0  0  0  0  0  0  0  0  0  0  0  0
  146.2462  140.1087  157.5940 C   0  0  0  0  0  0  0  0  0  0  0  0
  146.2369  138.6516  157.1149 C   0  0  0  0  0  0  0  0  0  0  0  0
  146.7811  138.5478  155.7654 N   0  0  0  0  0  0  0  0  0  0  0  0
  146.5959  137.2953  155.2850 C   0  0  0  0  0  0  0  0  0  0  0  0
  147.2749  136.2450  155.8175 N   0  0  0  0  0  0  0  0  0  0  0  0
  147.0770  135.0118  155.3421 C   0  0  0  0  0  0  0  0  0  0  0  0
  146.2612  134.6161  154.3622 N   0  0  0  0  0  0  0  0  0  0  0  0
  145.5698  135.6673  153.8344 C   0  0  0  0  0  0  0  0  0  0  0  0
  145.6763  137.0275  154.2371 C   0  0  0  0  0  0  0  0  0  0  0  0
  144.8302  137.8211  153.4743 N   0  0  0  0  0  0  0  0  0  0  0  0
  144.2528  136.9760  152.6640 C   0  0  0  0  0  0  0  0  0  0  0  0
  144.6336  135.6604  152.8142 N   0  0  0  0  0  0  0  0  0  0  0  0
  144.1660  134.5379  152.0513 C   0  0  0  0  0  0  0  0  0  0  0  0
  144.8387  133.1708  152.1772 C   0  0  0  0  0  0  0  0  0  0  0  0
  144.5214  132.8870  150.6914 C   0  0  0  0  0  0  0  0  0  0  0  0
  145.6512  132.2081  149.8997 C   0  0  0  0  0  0  0  0  0  0  0  0
  146.9136  132.7324  150.2584 O   0  0  0  0  0  0  0  0  0  0  0  0
  143.2008  132.1321  150.4364 C   0  0  0  0  0  0  0  0  0  0  0  0
  142.8701  132.1180  149.0623 O   0  0  0  0  0  0  0  0  0  0  0  0
  144.4395  134.4249  150.5501 C   0  0  0  0  0  0  0  0  0  0  0  0
  148.1190  139.1398  155.6345 C   0  0  1  0  0  0  0  0  0  0  0  0
  148.6963  139.1192  154.1893 C   0  0  0  0  0  0  0  0  0  0  0  0
  149.1700  140.8917  156.2959 H   0  0  0  0  0  0  0  0  0  0  0  0
  148.7842  138.5482  156.2657 H   0  0  0  0  0  0  0  0  0  0  0  0
  145.8695  138.2055  151.4132 H   0  0  0  0  0  0  0  0  0  0  0  0
  147.4031  137.7028  152.1139 H   0  0  0  0  0  0  0  0  0  0  0  0
  147.3684  138.8800  150.7999 H   0  0  0  0  0  0  0  0  0  0  0  0
  146.2037  140.5307  152.3144 H   0  0  0  0  0  0  0  0  0  0  0  0
  146.1329  139.3135  153.5632 H   0  0  0  0  0  0  0  0  0  0  0  0
  149.1561  141.7930  153.8883 H   0  0  0  0  0  0  0  0  0  0  0  0
  147.6401  142.1951  153.1352 H   0  0  0  0  0  0  0  0  0  0  0  0
  147.5649  142.5931  155.5970 H   0  0  0  0  0  0  0  0  0  0  0  0
  146.3957  141.3930  155.1211 H   0  0  0  0  0  0  0  0  0  0  0  0
  145.9297  140.1575  158.6359 H   0  0  0  0  0  0  0  0  0  0  0  0
  145.5339  140.7101  157.0299 H   0  0  0  0  0  0  0  0  0  0  0  0
  146.8322  138.0364  157.7917 H   0  0  0  0  0  0  0  0  0  0  0  0
  145.2170  138.2653  157.1459 H   0  0  0  0  0  0  0  0  0  0  0  0
  147.6538  134.2302  155.8144 H   0  0  0  0  0  0  0  0  0  0  0  0
  143.5289  137.2938  151.9276 H   0  0  0  0  0  0  0  0  0  0  0  0
  143.0949  134.4501  152.2405 H   0  0  0  0  0  0  0  0  0  0  0  0
  145.9095  133.2458  152.3758 H   0  0  0  0  0  0  0  0  0  0  0  0
  144.3581  132.4949  152.8851 H   0  0  0  0  0  0  0  0  0  0  0  0
  145.6577  131.1286  150.0516 H   0  0  0  0  0  0  0  0  0  0  0  0
  145.5205  132.3642  148.8287 H   0  0  0  0  0  0  0  0  0  0  0  0
  147.5608  132.0513  150.1573 H   0  0  0  0  0  0  0  0  0  0  0  0
  143.2529  131.1037  150.7946 H   0  0  0  0  0  0  0  0  0  0  0  0
  142.3725  132.5954  150.9723 H   0  0  0  0  0  0  0  0  0  0  0  0
  142.2600  132.8198  148.8934 H   0  0  0  0  0  0  0  0  0  0  0  0
  143.6279  134.7885  149.9191 H   0  0  0  0  0  0  0  0  0  0  0  0
  145.3886  134.8748  150.2545 H   0  0  0  0  0  0  0  0  0  0  0  0
  148.6739  138.1241  153.7456 H   0  0  0  0  0  0  0  0  0  0  0  0
  149.7550  139.3751  154.2472 H   0  0  0  0  0  0  0  0  0  0  0  0
  148.6659  140.1187  152.4577 H   0  0  0  0  0  0  0  0  0  0  0  0
  1  2  1  0  0  0  0
  1 32  1  0  0  0  0
  1 33  1  0  0  0  0
  1 34  1  0  0  0  0
  2  3  1  0  0  0  0
  2 35  1  0  0  0  0
  2 36  1  0  0  0  0
  3 29  1  0  0  0  0
  3  4  1  0  0  0  0
  3 60  1  0  0  0  0
  4  5  1  0  0  0  0
  4 37  1  0  0  0  0
  4 38  1  0  0  0  0
  5  6  1  0  0  0  0
  5 39  1  0  0  0  0
  5 40  1  0  0  0  0
  6 30  1  0  0  0  0
  6 28  1  0  0  0  0
  6  7  1  0  0  0  0
  7  8  1  0  0  0  0
  8  9  1  0  0  0  0
  8 41  1  0  0  0  0
  8 42  1  0  0  0  0
  9 10  1  0  0  0  0
  9 43  1  0  0  0  0
  9 44  1  0  0  0  0
 10 11  1  0  0  0  0
 10 28  1  0  0  0  0
 11 16  1  0  0  0  0
 11 12  2  0  0  0  0
 12 13  1  0  0  0  0
 13 14  2  0  0  0  0
 13 45  1  0  0  0  0
 14 15  1  0  0  0  0
 15 19  1  0  0  0  0
 15 16  2  0  0  0  0
 16 17  1  0  0  0  0
 17 18  2  0  0  0  0
 18 19  1  0  0  0  0
 18 46  1  0  0  0  0
 19 20  1  0  0  0  0
 20 27  1  0  0  0  0
 20 21  1  0  0  0  0
 20 47  1  0  0  0  0
 21 22  1  0  0  0  0
 21 48  1  0  0  0  0
 21 49  1  0  0  0  0
 22 23  1  0  0  0  0
 22 25  1  0  0  0  0
 22 27  1  0  0  0  0
 23 24  1  0  0  0  0
 23 50  1  0  0  0  0
 23 51  1  0  0  0  0
 24 52  1  0  0  0  0
 25 26  1  0  0  0  0
 25 53  1  0  0  0  0
 25 54  1  0  0  0  0
 26 55  1  0  0  0  0
 27 56  1  0  0  0  0
 27 57  1  0  0  0  0
 28 31  1  0  0  0  0
 28 29  1  0  0  0  0
 29 58  1  0  0  0  0
 29 59  1  0  0  0  0
M  CHG  1   3   1
M  END
> <s_m_source_file>
AV-unprocessed.smi

> <i_m_source_file_index>
16

> <i_lp_mmshare_version>
43012

> <i_f3d_flags>
0

> <s_epik_input>
W0NIM11bQ0gyXU4oW0NIMl1bQ0gyXTEpW0NIMl1bQ0BASF0oW0NAQEhdMTIpTihbQ0gyXVtDSDJdTzIpYyhuW2NIXW4zKWMoYzM0KW5bY0hdbjRbQ0hdKFtDSDJdNSlbQ0gyXUM1KFtDSDJdW09IXSlbQ0gyXVtPSF0=

> <s_epik_cmdline>
J2VwaWtfcHl0aG9uJywgJy1waCcsICc3LjAnLCAnLXRuJywgJzgnLCAnLW1hJywgJzIwMCcsICctbWV0YWxfYmluZGluZycsICctaW1hZScsICc8aW5maWxlLm1hZT4nLCAnLW9tYWUnLCAnPG91dGZpbGUubWFlPic=

> <r_lp_tautomer_probability>
1

> <r_epik_Ionization_Penalty>
0.0135603

> <r_epik_Ionization_Penalty_Charging>
0.0131385

> <r_epik_Ionization_Penalty_Neutral>
0.000421734

> <r_epik_State_Penalty>
0.0102091

> <r_epik_Charging_Adjusted_Penalty>
0.0233476

> <i_epik_Tot_Q>
1

> <i_epik_Tot_abs_Q>
1

> <r_epik_Metal_State_Penalty>
0.0103746

> <b_epik_Metal_Only>
0

> <s_lp_Force_Field>
OPLS_2005

> <r_lp_Energy>
65.3073

> <b_lp_Chiralities_Consistent>
1

> <s_lp_Variant>
AV-unprocessed.smi:16-1

> <Gold.Version>
5.8.1

> <Gold.Id.Protein>
6NUR|6NUR_protein|mol2

> <Gold.PLP.Fitness>
50.8917

> <Gold.PLP.PLP>
-37.2506

> <Gold.PLP.part.hbond>
-5.3776

> <Gold.PLP.part.metal>
0.0000

> <Gold.PLP.part.buried>
-2.9730

> <Gold.PLP.part.nonpolar>
-30.1757

> <Gold.PLP.part.repulsive>
0.9230

> <Gold.PLP.ligand.clash>
0.0000

> <Gold.PLP.ligand.torsion>
0.5378

> <Gold.PLP.Chemscore.Hbond>
3.7125

> <Gold.PLP.Chemscore.CHOScore>
0.9677

> <Gold.PLP.Chemscore.Metal>
0.0000

> <Gold.Chemscore.Hbonds>
donor molecule, donor type, donor heavy atom, donor atom, acceptor molecule, acceptor atom, score
      L1  H     3    60       P1  7957  1.00
      L1  H    24    52       P1 10747  1.00
      L1  H    26    55       P1 10186  0.78
      P1  H 10785 10796       L1    26  0.90
      L1  C    18    46       P1 10171  1.00

> <Gold.PLP.Chemscore.Internal.Correction>
0.6760

> <Gold.Rescore>
     Score         DG    S(hbond)    S(metal)    S(lipo)     H(rot)  DE(clash)    DE(int)     intcor
     14.36     -18.60       3.62        0.00      81.53       3.33       0.08       4.17       ----

> <Gold.Chemscore.Fitness>
14.3551

> <Gold.Chemscore.DG>
-18.6044

> <Gold.Chemscore.ZeroCoef>
-5.4800

> <Gold.Chemscore.Hbond>
3.6219

> <Gold.Chemscore.Metal>
0.0000

> <Gold.Chemscore.Lipo>
81.5337

> <Gold.Chemscore.Internal_Hbond>
0.0000

> <Gold.Chemscore.DEClash>
0.0762

> <Gold.Chemscore.DEInternal>
4.1731

> <Gold.Chemscore.Rot>
3.3251

> <Gold.Chemscore.Internal.Correction>
   9.000000E+99

> <Gold.Chemscore.Hbonds>
donor molecule, donor type, donor heavy atom, donor atom, acceptor molecule, acceptor atom, score
      L1  H     3    60       P1  7957  0.99
      L1  H    24    52       P1 10747  1.00
      L1  H    26    55       P1 10186  0.74
      P1  H 10785 10796       L1    26  0.17

> <Gold.Chemscore.Hbond.Weighted>
-12.0971

> <Gold.Chemscore.Metal.Weighted>
-0.0000

> <Gold.Chemscore.Lipo.Weighted>
-9.5394

> <Gold.Chemscore.Internal_Hbond.Weighted>
0.0000

> <Gold.Chemscore.DEClash.Weighted>
0.0762

> <Gold.Chemscore.DEInternal.Weighted>
4.1731

> <Gold.Chemscore.Rot.Weighted>
8.5122

> <Gold.Chemscore.Internal.Correction.Weighted>
   9.000000E+99

> <Gold.Protein.RotatedTorsions>
[ 6907 6896 6895 6894 ] final  171.75 input  -60.11 | X-H torsion
[ 7974 7965 7964 7962 ] final  168.69 input  175.53 | X-H torsion
[ 8008 7997 7996 7995 ] final   68.85 input   59.86 | X-H torsion
[ 10167 10162 10161 10158 ] final -160.15 input  -65.29 | X-H torsion
[ 10718 10713 10712 10709 ] final   89.04 input   66.30 | X-H torsion
[ 10763 10752 10751 10750 ] final -130.56 input  -60.55 | X-H torsion
[ 11005 11000 10999 10996 ] final -137.26 input  -57.11 | X-H torsion

> <Gold.Protein.ActiveResidues>
 VAL166  LYS551  ARG553  GLY616  TRP617  ASP618  TYR619  PRO620  LYS621  CYS622 
 ASP623  PHE694  ASN695  SER759  ASP760  ASP761  ALA762  ILE779  LEU786  VAL792 
 PHE793  MET794  SER795  GLU796  ALA797  LYS798  CYS799  TRP800  GLU811  SER814 

> <Gold.Protein.RotatedAtoms>
  151.7952  133.3363  159.3510 H   0  0  0  0  0  0  0  0  0  0  0  0  # atno 6907 bound_to 6896
  150.7377  134.5805  159.5945 H   0  0  0  0  0  0  0  0  0  0  0  0  # atno 6908 bound_to 6896
  152.3182  134.7415  160.0371 H   0  0  0  0  0  0  0  0  0  0  0  0  # atno 6909 bound_to 6896
  144.7380  139.8945  143.6405 H   0  0  0  0  0  0  0  0  0  0  0  0  # atno 7974 bound_to 7965
  155.7146  140.3494  155.4989 H   0  0  0  0  0  0  0  0  0  0  0  0  # atno 8008 bound_to 7997
  155.9325  140.1087  157.1143 H   0  0  0  0  0  0  0  0  0  0  0  0  # atno 8009 bound_to 7997
  154.4088  140.1228  156.4808 H   0  0  0  0  0  0  0  0  0  0  0  0  # atno 8010 bound_to 7997
  139.6561  143.9996  152.2195 H   0  0  0  0  0  0  0  0  0  0  0  0  # atno 10167 bound_to 10162
  157.6953  131.0318  150.3366 H   0  0  0  0  0  0  0  0  0  0  0  0  # atno 10718 bound_to 10713
  154.8755  135.3858  154.4103 H   0  0  0  0  0  0  0  0  0  0  0  0  # atno 10763 bound_to 10752
  153.4817  135.7030  153.5939 H   0  0  0  0  0  0  0  0  0  0  0  0  # atno 10764 bound_to 10752
  153.4351  135.3869  155.2162 H   0  0  0  0  0  0  0  0  0  0  0  0  # atno 10765 bound_to 10752
  140.8728  134.2030  157.4640 H   0  0  0  0  0  0  0  0  0  0  0  0  # atno 11005 bound_to 11000
  146.1117  139.4123  143.0283 LP  0  0  0  0  0  0  0  0  0  0  0  0  # atno 17320 bound_to 7965
  145.7433  141.0000  143.1289 LP  0  0  0  0  0  0  0  0  0  0  0  0  # atno 17321 bound_to 7965
  139.9723  144.6485  150.7977 LP  0  0  0  0  0  0  0  0  0  0  0  0  # atno 17342 bound_to 10162
  140.7560  143.3056  151.2969 LP  0  0  0  0  0  0  0  0  0  0  0  0  # atno 17343 bound_to 10162
  156.3833  130.3884  149.7085 LP  0  0  0  0  0  0  0  0  0  0  0  0  # atno 17370 bound_to 10713
  156.4460  130.7884  151.2905 LP  0  0  0  0  0  0  0  0  0  0  0  0  # atno 17371 bound_to 10713
  139.8713  134.9782  156.4987 LP  0  0  0  0  0  0  0  0  0  0  0  0  # atno 17394 bound_to 11000
  140.8554  133.8100  155.9210 LP  0  0  0  0  0  0  0  0  0  0  0  0  # atno 17395 bound_to 11000

$$$$
