AV-unprocessed.smi:630|AV-procd|sdf|3120|dock4
  -GOLD-   22720 0 43D 1   1.00000     0.00000
 Structure written by MMmdl.
 37 38  0  0  0  0  0  0  0  0  1 V2000
  149.7498  138.6978  153.2251 N   0  0  0  0  0  0  0  0  0  0  0  0
  150.3922  138.8063  154.3911 C   0  0  0  0  0  0  0  0  0  0  0  0
  150.8979  139.8648  154.7589 O   0  0  0  0  0  0  0  0  0  0  0  0
  150.4783  137.5435  155.2703 C   0  0  1  0  0  0  0  0  0  0  0  0
  151.4525  137.7745  156.4526 C   0  0  0  0  0  0  0  0  0  0  0  0
  150.8445  138.3650  157.7363 C   0  0  0  0  0  0  0  0  0  0  0  0
  150.2886  137.2831  158.6755 C   0  0  0  0  0  0  0  0  0  0  0  0
  148.9789  136.6374  158.2024 C   0  0  0  0  0  0  0  0  0  0  0  0
  149.0282  136.0010  156.8011 C   0  0  0  0  0  0  0  0  0  0  0  0
  149.0571  137.0412  155.6598 C   0  0  2  0  0  0  0  0  0  0  0  0
  148.4103  136.4685  154.4749 N   0  0  0  0  0  0  0  0  0  0  0  0
  147.1631  135.9770  154.4110 C   0  0  0  0  0  0  0  0  0  0  0  0
  146.3922  135.9395  155.3702 O   0  0  0  0  0  0  0  0  0  0  0  0
  146.8786  135.5425  153.1707 N   0  0  0  0  0  0  0  0  0  0  0  0
  145.6683  134.9721  152.6958 C   0  0  0  0  0  0  0  0  0  0  0  0
  144.6651  134.5656  153.4824 N   0  0  0  0  0  0  0  0  0  0  0  0
  143.5980  134.0457  152.7455 C   0  0  0  0  0  0  0  0  0  0  0  0
  143.8070  134.0647  151.3890 C   0  0  0  0  0  0  0  0  0  0  0  0
  145.3615  134.7407  150.9807 S   0  0  0  0  0  0  0  0  0  0  0  0
  149.6716  139.5035  152.6216 H   0  0  0  0  0  0  0  0  0  0  0  0
  149.3448  137.8148  152.9510 H   0  0  0  0  0  0  0  0  0  0  0  0
  150.9436  136.7649  154.6620 H   0  0  0  0  0  0  0  0  0  0  0  0
  151.9552  136.8365  156.6912 H   0  0  0  0  0  0  0  0  0  0  0  0
  152.2593  138.4327  156.1250 H   0  0  0  0  0  0  0  0  0  0  0  0
  151.6363  138.8900  158.2719 H   0  0  0  0  0  0  0  0  0  0  0  0
  150.0889  139.1184  157.5118 H   0  0  0  0  0  0  0  0  0  0  0  0
  151.0420  136.5112  158.8365 H   0  0  0  0  0  0  0  0  0  0  0  0
  150.1127  137.7298  159.6547 H   0  0  0  0  0  0  0  0  0  0  0  0
  148.7042  135.8664  158.9228 H   0  0  0  0  0  0  0  0  0  0  0  0
  148.1744  137.3729  158.2422 H   0  0  0  0  0  0  0  0  0  0  0  0
  149.8631  135.3045  156.7167 H   0  0  0  0  0  0  0  0  0  0  0  0
  148.1272  135.3935  156.7026 H   0  0  0  0  0  0  0  0  0  0  0  0
  148.4700  137.8975  155.9968 H   0  0  0  0  0  0  0  0  0  0  0  0
  148.9633  136.4499  153.6308 H   0  0  0  0  0  0  0  0  0  0  0  0
  147.6124  135.6338  152.4839 H   0  0  0  0  0  0  0  0  0  0  0  0
  142.7257  133.6834  153.2692 H   0  0  0  0  0  0  0  0  0  0  0  0
  143.1428  133.7236  150.6088 H   0  0  0  0  0  0  0  0  0  0  0  0
  1  2  1  0  0  0  0
  1 20  1  0  0  0  0
  1 21  1  0  0  0  0
  2  3  2  0  0  0  0
  2  4  1  0  0  0  0
  4 10  1  0  0  0  0
  4  5  1  0  0  0  0
  4 22  1  0  0  0  0
  5  6  1  0  0  0  0
  5 23  1  0  0  0  0
  5 24  1  0  0  0  0
  6  7  1  0  0  0  0
  6 25  1  0  0  0  0
  6 26  1  0  0  0  0
  7  8  1  0  0  0  0
  7 27  1  0  0  0  0
  7 28  1  0  0  0  0
  8  9  1  0  0  0  0
  8 29  1  0  0  0  0
  8 30  1  0  0  0  0
  9 10  1  0  0  0  0
  9 31  1  0  0  0  0
  9 32  1  0  0  0  0
 10 11  1  0  0  0  0
 10 33  1  0  0  0  0
 11 12  1  0  0  0  0
 11 34  1  0  0  0  0
 12 13  2  0  0  0  0
 12 14  1  0  0  0  0
 14 15  1  0  0  0  0
 14 35  1  0  0  0  0
 15 19  1  0  0  0  0
 15 16  2  0  0  0  0
 16 17  1  0  0  0  0
 17 18  2  0  0  0  0
 17 36  1  0  0  0  0
 18 19  1  0  0  0  0
 18 37  1  0  0  0  0
M  END
> <s_m_source_file>
AV-unprocessed.smi

> <i_m_source_file_index>
630

> <i_lp_mmshare_version>
43012

> <i_f3d_flags>
0

> <s_epik_input>
W05IMl1DKD1PKVtDQEBIXTFbQ0gyXVtDSDJdW0NIMl1bQ0gyXVtDSDJdW0NASF0xW05IXUMoPU8pW05IXWMybltjSF1bY0hdczI=

> <s_epik_cmdline>
J2VwaWtfcHl0aG9uJywgJy1waCcsICc3LjAnLCAnLXRuJywgJzgnLCAnLW1hJywgJzIwMCcsICctbWV0YWxfYmluZGluZycsICctaW1hZScsICc8aW5maWxlLm1hZT4nLCAnLW9tYWUnLCAnPG91dGZpbGUubWFlPic=

> <r_lp_tautomer_probability>
0.999

> <r_epik_Ionization_Penalty>
0.000342689

> <r_epik_Ionization_Penalty_Charging>
0

> <r_epik_Ionization_Penalty_Neutral>
0.000342689

> <r_epik_State_Penalty>
0.000177984

> <r_epik_Charging_Adjusted_Penalty>
0.000177984

> <i_epik_Tot_Q>
0

> <i_epik_Tot_abs_Q>
0

> <r_epik_Metal_State_Penalty>
0.00743087

> <b_epik_Metal_Only>
0

> <s_lp_Force_Field>
OPLS_2005

> <r_lp_Energy>
11.5905

> <b_lp_Chiralities_Consistent>
1

> <s_lp_Variant>
AV-unprocessed.smi:630-4

> <Gold.Version>
5.8.1

> <Gold.Id.Protein>
6NUR|6NUR_protein|mol2

> <Gold.PLP.Fitness>
41.8615

> <Gold.PLP.PLP>
-21.6345

> <Gold.PLP.part.hbond>
-4.7387

> <Gold.PLP.part.metal>
0.0000

> <Gold.PLP.part.buried>
-2.4487

> <Gold.PLP.part.nonpolar>
-13.7654

> <Gold.PLP.part.repulsive>
0.2858

> <Gold.PLP.ligand.clash>
0.0000

> <Gold.PLP.ligand.torsion>
0.1304

> <Gold.PLP.Chemscore.Hbond>
4.9200

> <Gold.PLP.Chemscore.CHOScore>
1.8732

> <Gold.PLP.Chemscore.Metal>
0.0000

> <Gold.Chemscore.Hbonds>
donor molecule, donor type, donor heavy atom, donor atom, acceptor molecule, acceptor atom, score
      L1  H     1    20       P1  7957  0.93
      L1  H     1    21       P1  7948  1.00
      L1  H    11    34       P1  7948  0.94
      L1  H    14    35       P1  7948  1.00
      P1  H  7989  7998       L1     3  1.00
      L1  C    17    36       P1 10957  0.92
      L1  C    18    37       P1 10186  1.00

> <Gold.PLP.Chemscore.Internal.Correction>
0.1083

> <Gold.Rescore>
     Score         DG    S(hbond)    S(metal)    S(lipo)     H(rot)  DE(clash)    DE(int)     intcor
     19.30     -22.00       4.79        0.00      37.59       1.52       0.00       2.70       ----

> <Gold.Chemscore.Fitness>
19.2963

> <Gold.Chemscore.DG>
-22.0011

> <Gold.Chemscore.ZeroCoef>
-5.4800

> <Gold.Chemscore.Hbond>
4.7934

> <Gold.Chemscore.Metal>
0.0000

> <Gold.Chemscore.Lipo>
37.5922

> <Gold.Chemscore.Internal_Hbond>
0.0000

> <Gold.Chemscore.DEClash>
0.0048

> <Gold.Chemscore.DEInternal>
2.7000

> <Gold.Chemscore.Rot>
1.5184

> <Gold.Chemscore.Internal.Correction>
   9.000000E+99

> <Gold.Chemscore.Hbonds>
donor molecule, donor type, donor heavy atom, donor atom, acceptor molecule, acceptor atom, score
      L1  H     1    20       P1  7957  0.85
      L1  H     1    21       P1  7948  0.93
      L1  H    11    34       P1  7948  0.91
      L1  H    14    35       P1  7948  0.96
      P1  H  7989  7998       L1     3  0.93

> <Gold.Chemscore.Hbond.Weighted>
-16.0100

> <Gold.Chemscore.Metal.Weighted>
-0.0000

> <Gold.Chemscore.Lipo.Weighted>
-4.3983

> <Gold.Chemscore.Internal_Hbond.Weighted>
0.0000

> <Gold.Chemscore.DEClash.Weighted>
0.0048

> <Gold.Chemscore.DEInternal.Weighted>
2.7000

> <Gold.Chemscore.Rot.Weighted>
3.8872

> <Gold.Chemscore.Internal.Correction.Weighted>
   9.000000E+99

> <Gold.Protein.RotatedTorsions>
[ 6907 6896 6895 6894 ] final   86.73 input  -60.11 | X-H torsion
[ 7974 7965 7964 7962 ] final -152.54 input  175.53 | X-H torsion
[ 8008 7997 7996 7995 ] final   15.21 input   59.86 | X-H torsion
[ 10167 10162 10161 10158 ] final  118.53 input  -65.29 | X-H torsion
[ 10718 10713 10712 10709 ] final  138.54 input   66.30 | X-H torsion
[ 10763 10752 10751 10750 ] final  -20.98 input  -60.55 | X-H torsion
[ 11005 11000 10999 10996 ] final  -77.53 input  -57.11 | X-H torsion

> <Gold.Protein.ActiveResidues>
 VAL166  LYS551  ARG553  GLY616  TRP617  ASP618  TYR619  PRO620  LYS621  CYS622 
 ASP623  PHE694  ASN695  SER759  ASP760  ASP761  ALA762  ILE779  LEU786  VAL792 
 PHE793  MET794  SER795  GLU796  ALA797  LYS798  CYS799  TRP800  GLU811  SER814 

> <Gold.Protein.RotatedAtoms>
  152.5399  134.2386  159.8852 H   0  0  0  0  0  0  0  0  0  0  0  0  # atno 6907 bound_to 6896
  151.2354  133.4421  159.2613 H   0  0  0  0  0  0  0  0  0  0  0  0  # atno 6908 bound_to 6896
  151.0676  134.9791  159.8348 H   0  0  0  0  0  0  0  0  0  0  0  0  # atno 6909 bound_to 6896
  144.7789  140.4648  143.5854 H   0  0  0  0  0  0  0  0  0  0  0  0  # atno 7974 bound_to 7965
  154.8594  140.2942  155.5548 H   0  0  0  0  0  0  0  0  0  0  0  0  # atno 8008 bound_to 7997
  156.3019  140.2481  156.3498 H   0  0  0  0  0  0  0  0  0  0  0  0  # atno 8009 bound_to 7997
  154.8935  140.0393  157.1841 H   0  0  0  0  0  0  0  0  0  0  0  0  # atno 8010 bound_to 7997
  139.6105  144.7080  151.2855 H   0  0  0  0  0  0  0  0  0  0  0  0  # atno 10167 bound_to 10162
  157.4242  131.1042  151.0321 H   0  0  0  0  0  0  0  0  0  0  0  0  # atno 10718 bound_to 10713
  153.6290  135.6990  153.5282 H   0  0  0  0  0  0  0  0  0  0  0  0  # atno 10763 bound_to 10752
  153.2875  135.4167  155.1135 H   0  0  0  0  0  0  0  0  0  0  0  0  # atno 10764 bound_to 10752
  154.8526  135.3617  154.5832 H   0  0  0  0  0  0  0  0  0  0  0  0  # atno 10765 bound_to 10752
  141.1661  133.7026  156.7834 H   0  0  0  0  0  0  0  0  0  0  0  0  # atno 11005 bound_to 11000
  145.6108  139.1513  143.3077 LP  0  0  0  0  0  0  0  0  0  0  0  0  # atno 17320 bound_to 7965
  146.1985  140.6224  142.9113 LP  0  0  0  0  0  0  0  0  0  0  0  0  # atno 17321 bound_to 7965
  140.7316  143.6848  150.7971 LP  0  0  0  0  0  0  0  0  0  0  0  0  # atno 17342 bound_to 10162
  140.0442  143.5315  152.2704 LP  0  0  0  0  0  0  0  0  0  0  0  0  # atno 17343 bound_to 10162
  157.1241  130.6074  149.5512 LP  0  0  0  0  0  0  0  0  0  0  0  0  # atno 17370 bound_to 10713
  155.9890  130.4936  150.7197 LP  0  0  0  0  0  0  0  0  0  0  0  0  # atno 17371 bound_to 10713
  140.2377  134.8637  157.3542 LP  0  0  0  0  0  0  0  0  0  0  0  0  # atno 17394 bound_to 11000
  140.1827  134.4470  155.7762 LP  0  0  0  0  0  0  0  0  0  0  0  0  # atno 17395 bound_to 11000

$$$$
