AV-unprocessed.smi:2508|AV-procd|sdf|9865|dock8
  -GOLD-   2272013493D 1   1.00000     0.00000
 Structure written by MMmdl.
 46 47  0  0  0  0  0  0  0  0  1 V2000
  146.1908  131.6397  148.8941 C   0  0  0  0  0  0  0  0  0  0  0  0
  145.6423  132.5126  149.9358 N   0  0  0  0  0  0  0  0  0  0  0  0
  146.5518  133.1848  150.7757 C   0  0  0  0  0  0  0  0  0  0  0  0
  146.1452  134.0098  151.7661 C   0  0  0  0  0  0  0  0  0  0  0  0
  146.9865  134.7167  152.6389 N   0  0  0  0  0  0  0  0  0  0  0  0
  146.7994  135.0544  153.9327 C   0  0  0  0  0  0  0  0  0  0  0  0
  145.7965  134.8044  154.5973 O   0  0  0  0  0  0  0  0  0  0  0  0
  147.8313  135.7266  154.4716 N   0  0  0  0  0  0  0  0  0  0  0  0
  147.9498  136.2352  155.8396 C   0  0  0  0  0  0  0  0  0  0  0  0
  149.3655  136.8016  156.1465 C   0  0  0  0  0  0  0  0  0  0  0  0
  149.6811  136.6218  157.6492 C   0  0  0  0  0  0  0  0  0  0  0  0
  150.4274  136.0157  155.3434 C   0  0  0  0  0  0  0  0  0  0  0  0
  149.4921  138.3175  155.7886 C   0  0  0  0  0  0  0  0  0  0  0  0
  148.6142  139.2976  156.5815 C   0  0  0  0  0  0  0  0  0  0  0  0
  148.6978  140.6154  155.8043 C   0  0  0  0  0  0  0  0  0  0  0  0
  149.0543  140.2410  154.3578 C   0  0  0  0  0  0  0  0  0  0  0  0
  149.2128  138.7163  154.3310 C   0  0  0  0  0  0  0  0  0  0  0  0
  144.7170  134.1814  151.9283 C   0  0  0  0  0  0  0  0  0  0  0  0
  143.8406  133.5422  151.1292 C   0  0  0  0  0  0  0  0  0  0  0  0
  144.2903  132.6473  150.0608 C   0  0  0  0  0  0  0  0  0  0  0  0
  143.5014  132.0556  149.3236 O   0  0  0  0  0  0  0  0  0  0  0  0
  147.2811  131.6254  148.8826 H   0  0  0  0  0  0  0  0  0  0  0  0
  145.8613  131.9672  147.9070 H   0  0  0  0  0  0  0  0  0  0  0  0
  145.8544  130.6122  149.0408 H   0  0  0  0  0  0  0  0  0  0  0  0
  147.5832  132.9764  150.5432 H   0  0  0  0  0  0  0  0  0  0  0  0
  147.8596  135.0160  152.2296 H   0  0  0  0  0  0  0  0  0  0  0  0
  148.6142  135.9169  153.8629 H   0  0  0  0  0  0  0  0  0  0  0  0
  147.1909  137.0049  155.9789 H   0  0  0  0  0  0  0  0  0  0  0  0
  147.7083  135.4200  156.5212 H   0  0  0  0  0  0  0  0  0  0  0  0
  150.6445  137.0620  157.9089 H   0  0  0  0  0  0  0  0  0  0  0  0
  149.7252  135.5701  157.9335 H   0  0  0  0  0  0  0  0  0  0  0  0
  148.9247  137.0926  158.2775 H   0  0  0  0  0  0  0  0  0  0  0  0
  151.4249  136.4305  155.4924 H   0  0  0  0  0  0  0  0  0  0  0  0
  150.2191  136.0376  154.2734 H   0  0  0  0  0  0  0  0  0  0  0  0
  150.4709  134.9675  155.6404 H   0  0  0  0  0  0  0  0  0  0  0  0
  150.5257  138.6078  155.9881 H   0  0  0  0  0  0  0  0  0  0  0  0
  147.5758  138.9694  156.5980 H   0  0  0  0  0  0  0  0  0  0  0  0
  148.9402  139.4145  157.6155 H   0  0  0  0  0  0  0  0  0  0  0  0
  147.7635  141.1743  155.8642 H   0  0  0  0  0  0  0  0  0  0  0  0
  149.4823  141.2468  156.2230 H   0  0  0  0  0  0  0  0  0  0  0  0
  148.2910  140.5712  153.6525 H   0  0  0  0  0  0  0  0  0  0  0  0
  149.9905  140.7227  154.0725 H   0  0  0  0  0  0  0  0  0  0  0  0
  150.0053  138.4037  153.6505 H   0  0  0  0  0  0  0  0  0  0  0  0
  148.2825  138.2762  153.9750 H   0  0  0  0  0  0  0  0  0  0  0  0
  144.3415  134.8329  152.7041 H   0  0  0  0  0  0  0  0  0  0  0  0
  142.7814  133.6922  151.2782 H   0  0  0  0  0  0  0  0  0  0  0  0
  1  2  1  0  0  0  0
  1 22  1  0  0  0  0
  1 23  1  0  0  0  0
  1 24  1  0  0  0  0
  2 20  1  0  0  0  0
  2  3  1  0  0  0  0
  3  4  2  0  0  0  0
  3 25  1  0  0  0  0
  4  5  1  0  0  0  0
  4 18  1  0  0  0  0
  5  6  1  0  0  0  0
  5 26  1  0  0  0  0
  6  7  2  0  0  0  0
  6  8  1  0  0  0  0
  8  9  1  0  0  0  0
  8 27  1  0  0  0  0
  9 10  1  0  0  0  0
  9 28  1  0  0  0  0
  9 29  1  0  0  0  0
 10 11  1  0  0  0  0
 10 12  1  0  0  0  0
 10 13  1  0  0  0  0
 11 30  1  0  0  0  0
 11 31  1  0  0  0  0
 11 32  1  0  0  0  0
 12 33  1  0  0  0  0
 12 34  1  0  0  0  0
 12 35  1  0  0  0  0
 13 17  1  0  0  0  0
 13 14  1  0  0  0  0
 13 36  1  0  0  0  0
 14 15  1  0  0  0  0
 14 37  1  0  0  0  0
 14 38  1  0  0  0  0
 15 16  1  0  0  0  0
 15 39  1  0  0  0  0
 15 40  1  0  0  0  0
 16 17  1  0  0  0  0
 16 41  1  0  0  0  0
 16 42  1  0  0  0  0
 17 43  1  0  0  0  0
 17 44  1  0  0  0  0
 18 19  2  0  0  0  0
 18 45  1  0  0  0  0
 19 20  1  0  0  0  0
 19 46  1  0  0  0  0
 20 21  2  0  0  0  0
M  END
> <s_m_source_file>
AV-unprocessed.smi

> <i_m_source_file_index>
2508

> <i_lp_mmshare_version>
43012

> <i_f3d_flags>
0

> <s_epik_input>
Tz1jMVtjSF1bY0hdYyhbY0hdbjFbQ0gzXSlbTkhdQyg9TylbTkhdW0NIMl1DKFtDSDNdKShbQ0gzXSlbQ0hdMltDSDJdW0NIMl1bQ0gyXVtDSDJdMg==

> <s_epik_cmdline>
J2VwaWtfcHl0aG9uJywgJy1waCcsICc3LjAnLCAnLXRuJywgJzgnLCAnLW1hJywgJzIwMCcsICctbWV0YWxfYmluZGluZycsICctaW1hZScsICc8aW5maWxlLm1hZT4nLCAnLW9tYWUnLCAnPG91dGZpbGUubWFlPic=

> <r_lp_tautomer_probability>
1

> <r_epik_Ionization_Penalty>
2.69566e-05

> <r_epik_Ionization_Penalty_Charging>
5.95678e-06

> <r_epik_Ionization_Penalty_Neutral>
2.09998e-05

> <r_epik_State_Penalty>
-0

> <r_epik_Charging_Adjusted_Penalty>
5.95678e-06

> <i_epik_Tot_Q>
0

> <i_epik_Tot_abs_Q>
0

> <r_epik_Metal_State_Penalty>
-0

> <b_epik_Metal_Only>
0

> <s_lp_Force_Field>
OPLS_2005

> <r_lp_Energy>
55.0143

> <b_lp_Chiralities_Consistent>
1

> <s_lp_Variant>
AV-unprocessed.smi:2508-1

> <Gold.Version>
5.8.1

> <Gold.Id.Protein>
6NUR|6NUR_protein|mol2

> <Gold.PLP.Fitness>
39.6706

> <Gold.PLP.PLP>
-29.9261

> <Gold.PLP.part.hbond>
-3.0000

> <Gold.PLP.part.metal>
0.0000

> <Gold.PLP.part.buried>
-3.7940

> <Gold.PLP.part.nonpolar>
-24.3024

> <Gold.PLP.part.repulsive>
0.3215

> <Gold.PLP.ligand.clash>
0.0000

> <Gold.PLP.ligand.torsion>
0.7966

> <Gold.PLP.Chemscore.Hbond>
2.7760

> <Gold.PLP.Chemscore.CHOScore>
0.9988

> <Gold.PLP.Chemscore.Metal>
0.0000

> <Gold.Chemscore.Hbonds>
donor molecule, donor type, donor heavy atom, donor atom, acceptor molecule, acceptor atom, score
      L1  H     5    26       P1  7948  1.00
      L1  H     8    27       P1  7948  0.76
      P1  H 10785 10796       L1    21  0.98
      L1  C     3    25       P1 10747  0.98

> <Gold.PLP.Chemscore.Internal.Correction>
0.0133

> <Gold.Rescore>
     Score         DG    S(hbond)    S(metal)    S(lipo)     H(rot)  DE(clash)    DE(int)     intcor
     16.84     -19.38       2.74        0.00      70.63       1.37       0.48       2.06       ----

> <Gold.Chemscore.Fitness>
16.8378

> <Gold.Chemscore.DG>
-19.3792

> <Gold.Chemscore.ZeroCoef>
-5.4800

> <Gold.Chemscore.Hbond>
2.7406

> <Gold.Chemscore.Metal>
0.0000

> <Gold.Chemscore.Lipo>
70.6273

> <Gold.Chemscore.Internal_Hbond>
0.0000

> <Gold.Chemscore.DEClash>
0.4772

> <Gold.Chemscore.DEInternal>
2.0642

> <Gold.Chemscore.Rot>
1.3742

> <Gold.Chemscore.Internal.Correction>
   9.000000E+99

> <Gold.Chemscore.Hbonds>
donor molecule, donor type, donor heavy atom, donor atom, acceptor molecule, acceptor atom, score
      L1  H     5    26       P1  7948  0.82
      L1  H     8    27       P1  7948  0.71
      P1  H 10785 10796       L1    21  0.88

> <Gold.Chemscore.Hbond.Weighted>
-9.1537

> <Gold.Chemscore.Metal.Weighted>
-0.0000

> <Gold.Chemscore.Lipo.Weighted>
-8.2634

> <Gold.Chemscore.Internal_Hbond.Weighted>
0.0000

> <Gold.Chemscore.DEClash.Weighted>
0.4772

> <Gold.Chemscore.DEInternal.Weighted>
2.0642

> <Gold.Chemscore.Rot.Weighted>
3.5179

> <Gold.Chemscore.Internal.Correction.Weighted>
   9.000000E+99

> <Gold.Protein.RotatedTorsions>
[ 6907 6896 6895 6894 ] final -161.49 input  -60.11 | X-H torsion
[ 7974 7965 7964 7962 ] final -127.25 input  175.53 | X-H torsion
[ 8008 7997 7996 7995 ] final -138.99 input   59.86 | X-H torsion
[ 10167 10162 10161 10158 ] final -151.45 input  -65.29 | X-H torsion
[ 10718 10713 10712 10709 ] final   32.06 input   66.30 | X-H torsion
[ 10763 10752 10751 10750 ] final  104.93 input  -60.55 | X-H torsion
[ 11005 11000 10999 10996 ] final   36.03 input  -57.11 | X-H torsion

> <Gold.Protein.ActiveResidues>
 VAL166  LYS551  ARG553  GLY616  TRP617  ASP618  TYR619  PRO620  LYS621  CYS622 
 ASP623  PHE694  ASN695  SER759  ASP760  ASP761  ALA762  ILE779  LEU786  VAL792 
 PHE793  MET794  SER795  GLU796  ALA797  LYS798  CYS799  TRP800  GLU811  SER814 

> <Gold.Protein.RotatedAtoms>
  151.3654  133.3874  159.2693 H   0  0  0  0  0  0  0  0  0  0  0  0  # atno 6907 bound_to 6896
  150.9692  134.9069  159.7788 H   0  0  0  0  0  0  0  0  0  0  0  0  # atno 6908 bound_to 6896
  152.5178  134.3616  159.9339 H   0  0  0  0  0  0  0  0  0  0  0  0  # atno 6909 bound_to 6896
  144.9790  140.7621  143.4624 H   0  0  0  0  0  0  0  0  0  0  0  0  # atno 7974 bound_to 7965
  155.4375  140.0529  157.3013 H   0  0  0  0  0  0  0  0  0  0  0  0  # atno 8008 bound_to 7997
  154.4833  140.2090  155.9671 H   0  0  0  0  0  0  0  0  0  0  0  0  # atno 8009 bound_to 7997
  156.1237  140.3184  155.8251 H   0  0  0  0  0  0  0  0  0  0  0  0  # atno 8010 bound_to 7997
  139.7267  143.8873  152.2521 H   0  0  0  0  0  0  0  0  0  0  0  0  # atno 10167 bound_to 10162
  157.2804  130.7252  149.6553 H   0  0  0  0  0  0  0  0  0  0  0  0  # atno 10718 bound_to 10713
  153.3725  135.3927  155.1799 H   0  0  0  0  0  0  0  0  0  0  0  0  # atno 10763 bound_to 10752
  154.8696  135.3706  154.4959 H   0  0  0  0  0  0  0  0  0  0  0  0  # atno 10764 bound_to 10752
  153.5428  135.7084  153.5689 H   0  0  0  0  0  0  0  0  0  0  0  0  # atno 10765 bound_to 10752
  140.2366  134.3464  155.7942 H   0  0  0  0  0  0  0  0  0  0  0  0  # atno 11005 bound_to 11000
  145.2448  139.2057  143.4973 LP  0  0  0  0  0  0  0  0  0  0  0  0  # atno 17320 bound_to 7965
  146.3403  140.2351  142.8594 LP  0  0  0  0  0  0  0  0  0  0  0  0  # atno 17321 bound_to 7965
  139.8784  144.7031  150.8906 LP  0  0  0  0  0  0  0  0  0  0  0  0  # atno 17342 bound_to 10162
  140.7764  143.3681  151.1701 LP  0  0  0  0  0  0  0  0  0  0  0  0  # atno 17343 bound_to 10162
  155.9664  130.4340  150.5029 LP  0  0  0  0  0  0  0  0  0  0  0  0  # atno 17370 bound_to 10713
  157.2972  131.0638  151.2093 LP  0  0  0  0  0  0  0  0  0  0  0  0  # atno 17371 bound_to 10713
  141.2214  133.7275  156.8818 LP  0  0  0  0  0  0  0  0  0  0  0  0  # atno 17394 bound_to 11000
  140.1696  134.9109  157.2816 LP  0  0  0  0  0  0  0  0  0  0  0  0  # atno 17395 bound_to 11000

$$$$
