AV-unprocessed.smi:1623|AV-procd|sdf|6502|dock10
  -GOLD-   22720 7173D 1   1.00000     0.00000
 Structure written by MMmdl.
 42 43  0  0  0  0  0  0  0  0  1 V2000
  146.8071  137.1441  162.7135 C   0  0  0  0  0  0  0  0  0  0  0  0
  147.3068  136.2419  161.6174 C   0  0  0  0  0  0  0  0  0  0  0  0
  148.1824  136.7414  160.8082 N   0  0  0  0  0  0  0  0  0  0  0  0
  148.7063  135.9988  159.7695 N   0  0  0  0  0  0  0  0  0  0  0  0
  149.6709  136.7307  158.9415 C   0  0  0  0  0  0  0  0  0  0  0  0
  148.9993  137.3678  157.7041 C   0  0  1  0  0  0  0  0  0  0  0  0
  147.9283  138.1822  158.1368 O   0  0  0  0  0  0  0  0  0  0  0  0
  149.9694  138.2636  156.9216 C   0  0  0  0  0  0  0  0  0  0  0  0
  150.0462  139.5202  157.5784 O   0  0  0  0  0  0  0  0  0  0  0  0
  150.5051  140.5798  156.7522 C   0  0  0  0  0  0  0  0  0  0  0  0
  151.2506  141.6580  157.5254 C   0  0  0  0  0  0  0  0  0  0  0  0
  150.9455  143.0155  157.2876 C   0  0  0  0  0  0  0  0  0  0  0  0
  151.6208  144.0312  157.9908 C   0  0  0  0  0  0  0  0  0  0  0  0
  152.6092  143.6956  158.9345 C   0  0  0  0  0  0  0  0  0  0  0  0
  152.9225  142.3440  159.1727 C   0  0  0  0  0  0  0  0  0  0  0  0
  152.2489  141.3233  158.4719 C   0  0  0  0  0  0  0  0  0  0  0  0
  152.6667  139.6765  158.7926 Cl  0  0  0  0  0  0  0  0  0  0  0  0
  148.3738  134.7056  159.4920 C   0  0  0  0  0  0  0  0  0  0  0  0
  148.8640  134.0824  158.5490 O   0  0  0  0  0  0  0  0  0  0  0  0
  147.3815  134.1457  160.4122 C   0  0  0  0  0  0  0  0  0  0  0  0
  147.0023  132.7936  160.1560 C   0  0  0  0  0  0  0  0  0  0  0  0
  146.7142  131.6907  159.9545 N   0  0  0  0  0  0  0  0  0  0  0  0
  146.8564  134.8654  161.4355 C   0  0  0  0  0  0  0  0  0  0  0  0
  145.8211  134.3320  162.4163 C   0  0  0  0  0  0  0  0  0  0  0  0
  145.7289  137.2860  162.6371 H   0  0  0  0  0  0  0  0  0  0  0  0
  147.2721  138.1304  162.6720 H   0  0  0  0  0  0  0  0  0  0  0  0
  147.0249  136.7193  163.6937 H   0  0  0  0  0  0  0  0  0  0  0  0
  150.1998  137.4859  159.5267 H   0  0  0  0  0  0  0  0  0  0  0  0
  150.4525  136.0366  158.6273 H   0  0  0  0  0  0  0  0  0  0  0  0
  148.6037  136.6061  157.0307 H   0  0  0  0  0  0  0  0  0  0  0  0
  148.2268  139.0786  158.1629 H   0  0  0  0  0  0  0  0  0  0  0  0
  150.9654  137.8185  156.8962 H   0  0  0  0  0  0  0  0  0  0  0  0
  149.6314  138.3700  155.8896 H   0  0  0  0  0  0  0  0  0  0  0  0
  151.1867  140.1609  156.0115 H   0  0  0  0  0  0  0  0  0  0  0  0
  149.6716  141.0064  156.1921 H   0  0  0  0  0  0  0  0  0  0  0  0
  150.1876  143.2837  156.5660 H   0  0  0  0  0  0  0  0  0  0  0  0
  151.3804  145.0677  157.8055 H   0  0  0  0  0  0  0  0  0  0  0  0
  153.1278  144.4739  159.4743 H   0  0  0  0  0  0  0  0  0  0  0  0
  153.6833  142.0903  159.8961 H   0  0  0  0  0  0  0  0  0  0  0  0
  145.5426  133.3006  162.2020 H   0  0  0  0  0  0  0  0  0  0  0  0
  144.9107  134.9310  162.3758 H   0  0  0  0  0  0  0  0  0  0  0  0
  146.2082  134.3614  163.4352 H   0  0  0  0  0  0  0  0  0  0  0  0
  1  2  1  0  0  0  0
  1 25  1  0  0  0  0
  1 26  1  0  0  0  0
  1 27  1  0  0  0  0
  2 23  1  0  0  0  0
  2  3  2  0  0  0  0
  3  4  1  0  0  0  0
  4  5  1  0  0  0  0
  4 18  1  0  0  0  0
  5  6  1  0  0  0  0
  5 28  1  0  0  0  0
  5 29  1  0  0  0  0
  6  7  1  0  0  0  0
  6  8  1  0  0  0  0
  6 30  1  0  0  0  0
  7 31  1  0  0  0  0
  8  9  1  0  0  0  0
  8 32  1  0  0  0  0
  8 33  1  0  0  0  0
  9 10  1  0  0  0  0
 10 11  1  0  0  0  0
 10 34  1  0  0  0  0
 10 35  1  0  0  0  0
 11 16  1  0  0  0  0
 11 12  2  0  0  0  0
 12 13  1  0  0  0  0
 12 36  1  0  0  0  0
 13 14  2  0  0  0  0
 13 37  1  0  0  0  0
 14 15  1  0  0  0  0
 14 38  1  0  0  0  0
 15 16  2  0  0  0  0
 15 39  1  0  0  0  0
 16 17  1  0  0  0  0
 18 19  2  0  0  0  0
 18 20  1  0  0  0  0
 20 21  1  0  0  0  0
 20 23  2  0  0  0  0
 21 22  3  0  0  0  0
 23 24  1  0  0  0  0
 24 40  1  0  0  0  0
 24 41  1  0  0  0  0
 24 42  1  0  0  0  0
M  END
> <s_m_source_file>
AV-unprocessed.smi

> <i_m_source_file_index>
1623

> <i_lp_mmshare_version>
43012

> <i_f3d_flags>
0

> <s_epik_input>
TiNDYyhjMVtDSDNdKWMoPU8pbihuYzFbQ0gzXSlbQ0gyXVtDQEhdKFtPSF0pW0NIMl1PW0NIMl1jMltjSF1bY0hdW2NIXVtjSF1jMkNs

> <s_epik_cmdline>
J2VwaWtfcHl0aG9uJywgJy1waCcsICc3LjAnLCAnLXRuJywgJzgnLCAnLW1hJywgJzIwMCcsICctbWV0YWxfYmluZGluZycsICctaW1hZScsICc8aW5maWxlLm1hZT4nLCAnLW9tYWUnLCAnPG91dGZpbGUubWFlPic=

> <r_lp_tautomer_probability>
1

> <r_epik_Ionization_Penalty>
6.50533e-08

> <r_epik_Ionization_Penalty_Charging>
2.19172e-10

> <r_epik_Ionization_Penalty_Neutral>
6.48342e-08

> <r_epik_State_Penalty>
-0

> <r_epik_Charging_Adjusted_Penalty>
2.19172e-10

> <i_epik_Tot_Q>
0

> <i_epik_Tot_abs_Q>
0

> <r_epik_Metal_State_Penalty>
-0

> <b_epik_Metal_Only>
0

> <s_lp_Force_Field>
OPLS_2005

> <r_lp_Energy>
29.8059

> <b_lp_Chiralities_Consistent>
1

> <s_lp_Variant>
AV-unprocessed.smi:1623-2

> <Gold.Version>
5.8.1

> <Gold.Id.Protein>
6NUR|6NUR_protein|mol2

> <Gold.PLP.Fitness>
51.5497

> <Gold.PLP.PLP>
-46.0376

> <Gold.PLP.part.hbond>
-4.0000

> <Gold.PLP.part.metal>
0.0000

> <Gold.PLP.part.buried>
-5.2859

> <Gold.PLP.part.nonpolar>
-38.2322

> <Gold.PLP.part.repulsive>
0.0000

> <Gold.PLP.ligand.clash>
0.0000

> <Gold.PLP.ligand.torsion>
1.0177

> <Gold.PLP.Chemscore.Hbond>
2.4736

> <Gold.PLP.Chemscore.CHOScore>
0.0000

> <Gold.PLP.Chemscore.Metal>
0.0000

> <Gold.Chemscore.Hbonds>
donor molecule, donor type, donor heavy atom, donor atom, acceptor molecule, acceptor atom, score
      P1  H  6896  6909       L1    19  0.35
      P1  H  6931  6943       L1     3  0.96

> <Gold.PLP.Chemscore.Internal.Correction>
0.1266

> <Gold.Rescore>
     Score         DG    S(hbond)    S(metal)    S(lipo)     H(rot)  DE(clash)    DE(int)     intcor
     16.66     -19.28       1.66        0.00     124.81       2.48       0.03       2.60       ----

> <Gold.Chemscore.Fitness>
16.6552

> <Gold.Chemscore.DG>
-19.2829

> <Gold.Chemscore.ZeroCoef>
-5.4800

> <Gold.Chemscore.Hbond>
1.6596

> <Gold.Chemscore.Metal>
0.0000

> <Gold.Chemscore.Lipo>
124.8086

> <Gold.Chemscore.Internal_Hbond>
0.0000

> <Gold.Chemscore.DEClash>
0.0314

> <Gold.Chemscore.DEInternal>
2.5964

> <Gold.Chemscore.Rot>
2.4777

> <Gold.Chemscore.Internal.Correction>
   9.000000E+99

> <Gold.Chemscore.Hbonds>
donor molecule, donor type, donor heavy atom, donor atom, acceptor molecule, acceptor atom, score
      P1  H  6896  6909       L1    19  0.01
      P1  H  6931  6943       L1     3  0.40

> <Gold.Chemscore.Hbond.Weighted>
-5.5432

> <Gold.Chemscore.Metal.Weighted>
-0.0000

> <Gold.Chemscore.Lipo.Weighted>
-14.6026

> <Gold.Chemscore.Internal_Hbond.Weighted>
0.0000

> <Gold.Chemscore.DEClash.Weighted>
0.0314

> <Gold.Chemscore.DEInternal.Weighted>
2.5964

> <Gold.Chemscore.Rot.Weighted>
6.3428

> <Gold.Chemscore.Internal.Correction.Weighted>
   9.000000E+99

> <Gold.Protein.RotatedTorsions>
[ 6907 6896 6895 6894 ] final   32.83 input  -60.11 | X-H torsion
[ 7974 7965 7964 7962 ] final  157.65 input  175.53 | X-H torsion
[ 8008 7997 7996 7995 ] final  -16.53 input   59.86 | X-H torsion
[ 10167 10162 10161 10158 ] final   58.43 input  -65.29 | X-H torsion
[ 10718 10713 10712 10709 ] final    9.48 input   66.30 | X-H torsion
[ 10763 10752 10751 10750 ] final -147.62 input  -60.55 | X-H torsion
[ 11005 11000 10999 10996 ] final   49.69 input  -57.11 | X-H torsion

> <Gold.Protein.ActiveResidues>
 VAL166  LYS551  ARG553  GLY616  TRP617  ASP618  TYR619  PRO620  LYS621  CYS622 
 ASP623  PHE694  ASN695  SER759  ASP760  ASP761  ALA762  ILE779  LEU786  VAL792 
 PHE793  MET794  SER795  GLU796  ALA797  LYS798  CYS799  TRP800  GLU811  SER814 

> <Gold.Protein.RotatedAtoms>
  152.0799  134.9478  160.0573 H   0  0  0  0  0  0  0  0  0  0  0  0  # atno 6907 bound_to 6896
  152.0770  133.4129  159.4492 H   0  0  0  0  0  0  0  0  0  0  0  0  # atno 6908 bound_to 6896
  150.6836  134.2946  159.4724 H   0  0  0  0  0  0  0  0  0  0  0  0  # atno 6909 bound_to 6896
  144.7891  139.7370  143.6229 H   0  0  0  0  0  0  0  0  0  0  0  0  # atno 7974 bound_to 7965
  154.5046  140.2167  155.9276 H   0  0  0  0  0  0  0  0  0  0  0  0  # atno 8008 bound_to 7997
  156.1478  140.3167  155.8565 H   0  0  0  0  0  0  0  0  0  0  0  0  # atno 8009 bound_to 7997
  155.3998  140.0483  157.3028 H   0  0  0  0  0  0  0  0  0  0  0  0  # atno 8010 bound_to 7997
  140.1873  144.4121  150.6587 H   0  0  0  0  0  0  0  0  0  0  0  0  # atno 10167 bound_to 10162
  156.9670  130.5954  149.5666 H   0  0  0  0  0  0  0  0  0  0  0  0  # atno 10718 bound_to 10713
  154.8276  135.3355  154.6847 H   0  0  0  0  0  0  0  0  0  0  0  0  # atno 10763 bound_to 10752
  153.7471  135.6942  153.4958 H   0  0  0  0  0  0  0  0  0  0  0  0  # atno 10764 bound_to 10752
  153.2203  135.4451  155.0432 H   0  0  0  0  0  0  0  0  0  0  0  0  # atno 10765 bound_to 10752
  140.1081  134.4991  155.8701 H   0  0  0  0  0  0  0  0  0  0  0  0  # atno 11005 bound_to 11000
  146.2135  139.5508  142.9665 LP  0  0  0  0  0  0  0  0  0  0  0  0  # atno 17320 bound_to 7965
  145.5843  141.0378  143.2105 LP  0  0  0  0  0  0  0  0  0  0  0  0  # atno 17321 bound_to 7965
  140.6479  143.2218  151.6143 LP  0  0  0  0  0  0  0  0  0  0  0  0  # atno 17342 bound_to 10162
  139.5271  144.3028  152.1059 LP  0  0  0  0  0  0  0  0  0  0  0  0  # atno 17343 bound_to 10162
  156.0298  130.5390  150.8505 LP  0  0  0  0  0  0  0  0  0  0  0  0  # atno 17370 bound_to 10713
  157.5619  131.0946  150.9547 LP  0  0  0  0  0  0  0  0  0  0  0  0  # atno 17371 bound_to 10713
  141.2123  133.6718  156.6652 LP  0  0  0  0  0  0  0  0  0  0  0  0  # atno 17394 bound_to 11000
  140.3128  134.8072  157.4190 LP  0  0  0  0  0  0  0  0  0  0  0  0  # atno 17395 bound_to 11000

$$$$
