AV-unprocessed.smi:3001|AV-procd|sdf|11432|dock3
  -GOLD-   2272016363D 1   1.00000     0.00000
 Structure written by MMmdl.
 42 43  0  0  0  0  0  0  0  0  2 V2000
  144.1831  134.0390  162.6359 C   0  0  0  0  0  0  0  0  0  0  0  0
  145.2964  134.5282  162.5253 C   0  0  0  0  0  0  0  0  0  0  0  0
  146.6377  135.1231  162.4036 C   0  0  0  0  0  0  0  0  0  0  0  0
  147.1617  135.0533  161.0441 N   0  0  0  0  0  0  0  0  0  0  0  0
  147.6538  136.0879  160.3449 C   0  0  0  0  0  0  0  0  0  0  0  0
  147.7040  137.2385  160.7822 O   0  0  0  0  0  0  0  0  0  0  0  0
  148.1414  135.7690  158.9262 C   0  0  0  0  0  0  0  0  0  0  0  0
  148.3408  136.9662  158.1127 N   0  0  0  0  0  0  0  0  0  0  0  0
  149.1717  137.9733  158.4187 C   0  0  0  0  0  0  0  0  0  0  0  0
  149.8915  137.9840  159.4173 O   0  0  0  0  0  0  0  0  0  0  0  0
  149.0952  138.9633  157.5139 N   0  0  0  0  0  0  0  0  0  0  0  0
  149.7607  140.2205  157.5490 C   0  0  0  0  0  0  0  0  0  0  0  0
  150.8336  140.4508  158.4477 C   0  0  0  0  0  0  0  0  0  0  0  0
  151.5242  141.6768  158.4188 C   0  0  0  0  0  0  0  0  0  0  0  0
  151.1427  142.6493  157.4790 C   0  0  0  0  0  0  0  0  0  0  0  0
  150.1267  142.3955  156.6288 N   0  3  0  0  0  0  0  0  0  0  0  0
  149.4128  141.2417  156.6175 C   0  0  0  0  0  0  0  0  0  0  0  0
  148.3651  141.1241  155.6755 N   0  0  0  0  0  0  0  0  0  0  0  0
  148.6621  140.9139  154.2633 C   0  0  0  0  0  0  0  0  0  0  0  0
  147.3482  141.1879  153.5370 C   0  0  0  0  0  0  0  0  0  0  0  0
  146.7379  142.3077  154.3746 C   0  0  0  0  0  0  0  0  0  0  0  0
  147.1918  141.9834  155.8017 C   0  0  0  0  0  0  0  0  0  0  0  0
  143.2100  133.6128  162.7350 H   0  0  0  0  0  0  0  0  0  0  0  0
  146.5982  136.1518  162.7648 H   0  0  0  0  0  0  0  0  0  0  0  0
  147.3080  134.5768  163.0670 H   0  0  0  0  0  0  0  0  0  0  0  0
  147.1525  134.1459  160.6013 H   0  0  0  0  0  0  0  0  0  0  0  0
  149.0636  135.1863  158.9664 H   0  0  0  0  0  0  0  0  0  0  0  0
  147.3956  135.1418  158.4374 H   0  0  0  0  0  0  0  0  0  0  0  0
  147.7818  137.0426  157.2758 H   0  0  0  0  0  0  0  0  0  0  0  0
  148.3919  138.8590  156.7971 H   0  0  0  0  0  0  0  0  0  0  0  0
  151.1525  139.6934  159.1476 H   0  0  0  0  0  0  0  0  0  0  0  0
  152.3422  141.8615  159.0996 H   0  0  0  0  0  0  0  0  0  0  0  0
  151.6178  143.6145  157.3788 H   0  0  0  0  0  0  0  0  0  0  0  0
  149.4215  141.6199  153.9248 H   0  0  0  0  0  0  0  0  0  0  0  0
  149.0239  139.9023  154.0779 H   0  0  0  0  0  0  0  0  0  0  0  0
  147.4896  141.4626  152.4914 H   0  0  0  0  0  0  0  0  0  0  0  0
  146.7090  140.3046  153.5731 H   0  0  0  0  0  0  0  0  0  0  0  0
  147.1575  143.2657  154.0645 H   0  0  0  0  0  0  0  0  0  0  0  0
  145.6537  142.3695  154.2790 H   0  0  0  0  0  0  0  0  0  0  0  0
  146.4091  141.4324  156.3237 H   0  0  0  0  0  0  0  0  0  0  0  0
  147.4039  142.8921  156.3667 H   0  0  0  0  0  0  0  0  0  0  0  0
  149.8743  143.1214  155.9582 H   0  0  0  0  0  0  0  0  0  0  0  0
  1  2  3  0  0  0  0
  1 23  1  0  0  0  0
  2  3  1  0  0  0  0
  3  4  1  0  0  0  0
  3 24  1  0  0  0  0
  3 25  1  0  0  0  0
  4  5  1  0  0  0  0
  4 26  1  0  0  0  0
  5  6  2  0  0  0  0
  5  7  1  0  0  0  0
  7  8  1  0  0  0  0
  7 27  1  0  0  0  0
  7 28  1  0  0  0  0
  8  9  1  0  0  0  0
  8 29  1  0  0  0  0
  9 10  2  0  0  0  0
  9 11  1  0  0  0  0
 11 12  1  0  0  0  0
 11 30  1  0  0  0  0
 12 17  1  0  0  0  0
 12 13  2  0  0  0  0
 13 14  1  0  0  0  0
 13 31  1  0  0  0  0
 14 15  2  0  0  0  0
 14 32  1  0  0  0  0
 15 16  1  0  0  0  0
 15 33  1  0  0  0  0
 16 17  2  0  0  0  0
 16 42  1  0  0  0  0
 17 18  1  0  0  0  0
 18 22  1  0  0  0  0
 18 19  1  0  0  0  0
 19 20  1  0  0  0  0
 19 34  1  0  0  0  0
 19 35  1  0  0  0  0
 20 21  1  0  0  0  0
 20 36  1  0  0  0  0
 20 37  1  0  0  0  0
 21 22  1  0  0  0  0
 21 38  1  0  0  0  0
 21 39  1  0  0  0  0
 22 40  1  0  0  0  0
 22 41  1  0  0  0  0
M  CHG  1  16   1
M  END
> <s_m_source_file>
AV-unprocessed.smi

> <i_m_source_file_index>
3001

> <i_lp_mmshare_version>
43012

> <i_f3d_flags>
0

> <s_epik_input>
W0NIXSNDW0NIMl1bTkhdQyg9TylbQ0gyXVtOSF1DKD1PKVtOSF1jMVtjSF1bY0hdW2NIXW5jMU4yW0NIMl1bQ0gyXVtDSDJdW0NIMl0y

> <s_epik_cmdline>
J2VwaWtfcHl0aG9uJywgJy1waCcsICc3LjAnLCAnLXRuJywgJzgnLCAnLW1hJywgJzIwMCcsICctbWV0YWxfYmluZGluZycsICctaW1hZScsICc8aW5maWxlLm1hZT4nLCAnLW9tYWUnLCAnPG91dGZpbGUubWFlPic=

> <r_lp_tautomer_probability>
0.999994

> <r_epik_Ionization_Penalty>
0.644915

> <r_epik_Ionization_Penalty_Charging>
0.644896

> <r_epik_Ionization_Penalty_Neutral>
1.90142e-05

> <r_epik_State_Penalty>
0.662902

> <r_epik_Charging_Adjusted_Penalty>
1.3078

> <i_epik_Tot_Q>
1

> <i_epik_Tot_abs_Q>
1

> <r_epik_Metal_State_Penalty>
0.837036

> <b_epik_Metal_Only>
0

> <s_lp_Force_Field>
OPLS_2005

> <r_lp_Energy>
32.9475

> <b_lp_Chiralities_Consistent>
1

> <s_lp_Variant>
AV-unprocessed.smi:3001-2

> <Gold.Version>
5.8.1

> <Gold.Id.Protein>
6NUR|6NUR_protein|mol2

> <Gold.PLP.Fitness>
48.3223

> <Gold.PLP.PLP>
-38.1541

> <Gold.PLP.part.hbond>
-4.0000

> <Gold.PLP.part.metal>
0.0000

> <Gold.PLP.part.buried>
-6.1540

> <Gold.PLP.part.nonpolar>
-29.1836

> <Gold.PLP.part.repulsive>
0.3419

> <Gold.PLP.ligand.clash>
0.0000

> <Gold.PLP.ligand.torsion>
0.4433

> <Gold.PLP.Chemscore.Hbond>
3.5520

> <Gold.PLP.Chemscore.CHOScore>
0.0000

> <Gold.PLP.Chemscore.Metal>
0.0000

> <Gold.Chemscore.Hbonds>
donor molecule, donor type, donor heavy atom, donor atom, acceptor molecule, acceptor atom, score
      L1  H    16    42       P1  8028  1.86
      P1  H  6931  6943       L1     6  0.82
      P1  H  6934  6947       L1     6  0.91

> <Gold.PLP.Chemscore.Internal.Correction>
0.3988

> <Gold.Rescore>
     Score         DG    S(hbond)    S(metal)    S(lipo)     H(rot)  DE(clash)    DE(int)     intcor
     14.40     -18.71       2.64        0.00      78.42       1.85       0.01       4.31       ----

> <Gold.Chemscore.Fitness>
14.3959

> <Gold.Chemscore.DG>
-18.7129

> <Gold.Chemscore.ZeroCoef>
-5.4800

> <Gold.Chemscore.Hbond>
2.6366

> <Gold.Chemscore.Metal>
0.0000

> <Gold.Chemscore.Lipo>
78.4160

> <Gold.Chemscore.Internal_Hbond>
0.0000

> <Gold.Chemscore.DEClash>
0.0096

> <Gold.Chemscore.DEInternal>
4.3075

> <Gold.Chemscore.Rot>
1.8547

> <Gold.Chemscore.Internal.Correction>
   9.000000E+99

> <Gold.Chemscore.Hbonds>
donor molecule, donor type, donor heavy atom, donor atom, acceptor molecule, acceptor atom, score
      L1  H    16    42       P1  8028  0.89
      P1  H  6931  6943       L1     6  0.76
      P1  H  6934  6947       L1     6  0.88

> <Gold.Chemscore.Hbond.Weighted>
-8.8062

> <Gold.Chemscore.Metal.Weighted>
-0.0000

> <Gold.Chemscore.Lipo.Weighted>
-9.1747

> <Gold.Chemscore.Internal_Hbond.Weighted>
0.0000

> <Gold.Chemscore.DEClash.Weighted>
0.0096

> <Gold.Chemscore.DEInternal.Weighted>
4.3075

> <Gold.Chemscore.Rot.Weighted>
4.7479

> <Gold.Chemscore.Internal.Correction.Weighted>
   9.000000E+99

> <Gold.Protein.RotatedTorsions>
[ 6907 6896 6895 6894 ] final   -5.60 input  -60.11 | X-H torsion
[ 7974 7965 7964 7962 ] final -171.90 input  175.53 | X-H torsion
[ 8008 7997 7996 7995 ] final   69.39 input   59.86 | X-H torsion
[ 10167 10162 10161 10158 ] final  -59.91 input  -65.29 | X-H torsion
[ 10718 10713 10712 10709 ] final -132.93 input   66.30 | X-H torsion
[ 10763 10752 10751 10750 ] final -150.21 input  -60.55 | X-H torsion
[ 11005 11000 10999 10996 ] final  -96.18 input  -57.11 | X-H torsion

> <Gold.Protein.ActiveResidues>
 VAL166  LYS551  ARG553  GLY616  TRP617  ASP618  TYR619  PRO620  LYS621  CYS622 
 ASP623  PHE694  ASN695  SER759  ASP760  ASP761  ALA762  ILE779  LEU786  VAL792 
 PHE793  MET794  SER795  GLU796  ALA797  LYS798  CYS799  TRP800  GLU811  SER814 

> <Gold.Protein.RotatedAtoms>
  151.4790  135.1051  159.9772 H   0  0  0  0  0  0  0  0  0  0  0  0  # atno 6907 bound_to 6896
  152.4786  133.8196  159.7057 H   0  0  0  0  0  0  0  0  0  0  0  0  # atno 6908 bound_to 6896
  150.8842  133.7269  159.2949 H   0  0  0  0  0  0  0  0  0  0  0  0  # atno 6909 bound_to 6896
  144.7152  140.1853  143.6354 H   0  0  0  0  0  0  0  0  0  0  0  0  # atno 7974 bound_to 7965
  155.7229  140.3493  155.5024 H   0  0  0  0  0  0  0  0  0  0  0  0  # atno 8008 bound_to 7997
  155.9253  140.1074  157.1196 H   0  0  0  0  0  0  0  0  0  0  0  0  # atno 8009 bound_to 7997
  154.4076  140.1241  156.4719 H   0  0  0  0  0  0  0  0  0  0  0  0  # atno 8010 bound_to 7997
  140.6105  143.2386  151.5720 H   0  0  0  0  0  0  0  0  0  0  0  0  # atno 10167 bound_to 10162
  156.2397  130.7088  151.0944 H   0  0  0  0  0  0  0  0  0  0  0  0  # atno 10718 bound_to 10713
  154.8132  135.3290  154.7248 H   0  0  0  0  0  0  0  0  0  0  0  0  # atno 10763 bound_to 10752
  153.7893  135.6912  153.4879 H   0  0  0  0  0  0  0  0  0  0  0  0  # atno 10764 bound_to 10752
  153.1927  135.4545  155.0116 H   0  0  0  0  0  0  0  0  0  0  0  0  # atno 10765 bound_to 10752
  141.1419  133.8079  157.0537 H   0  0  0  0  0  0  0  0  0  0  0  0  # atno 11005 bound_to 11000
  145.8819  139.2327  143.1600 LP  0  0  0  0  0  0  0  0  0  0  0  0  # atno 17320 bound_to 7965
  145.9987  140.8539  143.0029 LP  0  0  0  0  0  0  0  0  0  0  0  0  # atno 17321 bound_to 7965
  139.5357  144.2787  152.1247 LP  0  0  0  0  0  0  0  0  0  0  0  0  # atno 17342 bound_to 10162
  140.1985  144.4681  150.6443 LP  0  0  0  0  0  0  0  0  0  0  0  0  # atno 17343 bound_to 10162
  157.7170  131.0704  150.6289 LP  0  0  0  0  0  0  0  0  0  0  0  0  # atno 17370 bound_to 10713
  156.6361  130.4445  149.5769 LP  0  0  0  0  0  0  0  0  0  0  0  0  # atno 17371 bound_to 10713
  140.0616  134.9752  157.1314 LP  0  0  0  0  0  0  0  0  0  0  0  0  # atno 17394 bound_to 11000
  140.3841  134.2255  155.7169 LP  0  0  0  0  0  0  0  0  0  0  0  0  # atno 17395 bound_to 11000

$$$$
