AV-unprocessed.smi:1450|AV-procd|sdf|5898|dock7
  -GOLD-   22720 5583D 1   1.00000     0.00000
 Structure written by MMmdl.
 31 32  0  0  0  0  0  0  0  0  1 V2000
  144.8904  136.0772  153.4169 O   0  0  0  0  0  0  0  0  0  0  0  0
  145.9888  136.0417  152.8633 C   0  0  0  0  0  0  0  0  0  0  0  0
  146.9248  136.9886  153.0192 N   0  0  0  0  0  0  0  0  0  0  0  0
  146.7743  138.1911  153.8319 C   0  0  0  0  0  0  0  0  0  0  0  0
  147.8720  139.2313  153.5357 C   0  0  1  0  0  0  0  0  0  0  0  0
  147.6118  140.5995  154.1524 C   0  0  0  0  0  0  0  0  0  0  0  0
  149.0043  141.1139  154.5358 C   0  0  0  0  0  0  0  0  0  0  0  0
  149.9206  140.1283  154.0774 O   0  0  0  0  0  0  0  0  0  0  0  0
  149.2515  138.8795  154.0880 C   0  0  0  0  0  0  0  0  0  0  0  0
  146.4200  135.0648  152.0469 N   0  0  0  0  0  0  0  0  0  0  0  0
  145.7259  133.9067  151.6018 C   0  0  0  0  0  0  0  0  0  0  0  0
  144.3229  133.8860  151.7416 C   0  0  0  0  0  0  0  0  0  0  0  0
  143.6076  132.7465  151.3277 C   0  0  0  0  0  0  0  0  0  0  0  0
  144.3287  131.6612  150.7939 C   0  0  0  0  0  0  0  0  0  0  0  0
  145.6720  131.6576  150.6654 N   0  0  0  0  0  0  0  0  0  0  0  0
  146.3520  132.7547  151.0631 C   0  0  0  0  0  0  0  0  0  0  0  0
  147.8027  136.8751  152.5338 H   0  0  0  0  0  0  0  0  0  0  0  0
  145.7867  138.6269  153.6721 H   0  0  0  0  0  0  0  0  0  0  0  0
  146.8127  137.8940  154.8804 H   0  0  0  0  0  0  0  0  0  0  0  0
  147.9655  139.3638  152.4565 H   0  0  0  0  0  0  0  0  0  0  0  0
  147.1095  141.2626  153.4472 H   0  0  0  0  0  0  0  0  0  0  0  0
  146.9857  140.5262  155.0429 H   0  0  0  0  0  0  0  0  0  0  0  0
  149.2275  142.0829  154.0887 H   0  0  0  0  0  0  0  0  0  0  0  0
  149.0911  141.2118  155.6188 H   0  0  0  0  0  0  0  0  0  0  0  0
  149.1880  138.5053  155.1113 H   0  0  0  0  0  0  0  0  0  0  0  0
  149.7746  138.1407  153.4803 H   0  0  0  0  0  0  0  0  0  0  0  0
  147.3769  135.1400  151.7347 H   0  0  0  0  0  0  0  0  0  0  0  0
  143.7978  134.7333  152.1580 H   0  0  0  0  0  0  0  0  0  0  0  0
  142.5322  132.7045  151.4181 H   0  0  0  0  0  0  0  0  0  0  0  0
  143.8133  130.7704  150.4667 H   0  0  0  0  0  0  0  0  0  0  0  0
  147.4227  132.6795  150.9581 H   0  0  0  0  0  0  0  0  0  0  0  0
  1  2  2  0  0  0  0
  2  3  1  0  0  0  0
  2 10  1  0  0  0  0
  3  4  1  0  0  0  0
  3 17  1  0  0  0  0
  4  5  1  0  0  0  0
  4 18  1  0  0  0  0
  4 19  1  0  0  0  0
  5  9  1  0  0  0  0
  5  6  1  0  0  0  0
  5 20  1  0  0  0  0
  6  7  1  0  0  0  0
  6 21  1  0  0  0  0
  6 22  1  0  0  0  0
  7  8  1  0  0  0  0
  7 23  1  0  0  0  0
  7 24  1  0  0  0  0
  8  9  1  0  0  0  0
  9 25  1  0  0  0  0
  9 26  1  0  0  0  0
 10 11  1  0  0  0  0
 10 27  1  0  0  0  0
 11 16  1  0  0  0  0
 11 12  2  0  0  0  0
 12 13  1  0  0  0  0
 12 28  1  0  0  0  0
 13 14  2  0  0  0  0
 13 29  1  0  0  0  0
 14 15  1  0  0  0  0
 14 30  1  0  0  0  0
 15 16  2  0  0  0  0
 16 31  1  0  0  0  0
M  END
> <s_m_source_file>
AV-unprocessed.smi

> <i_m_source_file_index>
1450

> <i_lp_mmshare_version>
43012

> <i_f3d_flags>
0

> <s_epik_input>
W2NIXTFuW2NIXVtjSF1bY0hdYzFbTkhdQyg9TylbTkhdW0NIMl1bQ0BASF0yW0NIMl1bQ0gyXU9bQ0gyXTI=

> <s_epik_cmdline>
J2VwaWtfcHl0aG9uJywgJy1waCcsICc3LjAnLCAnLXRuJywgJzgnLCAnLW1hJywgJzIwMCcsICctbWV0YWxfYmluZGluZycsICctaW1hZScsICc8aW5maWxlLm1hZT4nLCAnLW9tYWUnLCAnPG91dGZpbGUubWFlPic=

> <r_epik_Ionization_Penalty>
0.00478342

> <r_epik_Ionization_Penalty_Charging>
0

> <r_epik_Ionization_Penalty_Neutral>
0.00478342

> <r_epik_State_Penalty>
0.0034384

> <r_epik_Charging_Adjusted_Penalty>
0.0034384

> <i_epik_Tot_Q>
0

> <i_epik_Tot_abs_Q>
0

> <r_epik_Metal_State_Penalty>
-0

> <b_epik_Metal_Only>
0

> <s_lp_Force_Field>
OPLS_2005

> <r_lp_Energy>
21.9504

> <b_lp_Chiralities_Consistent>
1

> <s_lp_Variant>
AV-unprocessed.smi:1450-2

> <Gold.Version>
5.8.1

> <Gold.Id.Protein>
6NUR|6NUR_protein|mol2

> <Gold.PLP.Fitness>
37.7733

> <Gold.PLP.PLP>
-26.9580

> <Gold.PLP.part.hbond>
-2.9716

> <Gold.PLP.part.metal>
0.0000

> <Gold.PLP.part.buried>
-3.2720

> <Gold.PLP.part.nonpolar>
-21.5229

> <Gold.PLP.part.repulsive>
1.5188

> <Gold.PLP.ligand.clash>
0.0000

> <Gold.PLP.ligand.torsion>
0.2299

> <Gold.PLP.Chemscore.Hbond>
2.7600

> <Gold.PLP.Chemscore.CHOScore>
0.9976

> <Gold.PLP.Chemscore.Metal>
0.0000

> <Gold.Chemscore.Hbonds>
donor molecule, donor type, donor heavy atom, donor atom, acceptor molecule, acceptor atom, score
      L1  H     3    17       P1  7948  0.86
      L1  H    10    27       P1  7948  0.90
      P1  H  7989  7998       L1     8  0.88
      L1  C    16    31       P1 10747  1.00

> <Gold.PLP.Chemscore.Internal.Correction>
0.0023

> <Gold.Rescore>
     Score         DG    S(hbond)    S(metal)    S(lipo)     H(rot)  DE(clash)    DE(int)     intcor
     17.00     -18.72       2.73        0.00      62.33       1.24       0.20       1.51       ----

> <Gold.Chemscore.Fitness>
17.0034

> <Gold.Chemscore.DG>
-18.7172

> <Gold.Chemscore.ZeroCoef>
-5.4800

> <Gold.Chemscore.Hbond>
2.7295

> <Gold.Chemscore.Metal>
0.0000

> <Gold.Chemscore.Lipo>
62.3281

> <Gold.Chemscore.Internal_Hbond>
0.0000

> <Gold.Chemscore.DEClash>
0.2047

> <Gold.Chemscore.DEInternal>
1.5091

> <Gold.Chemscore.Rot>
1.2390

> <Gold.Chemscore.Internal.Correction>
   9.000000E+99

> <Gold.Chemscore.Hbonds>
donor molecule, donor type, donor heavy atom, donor atom, acceptor molecule, acceptor atom, score
      L1  H     3    17       P1  7948  0.84
      L1  H    10    27       P1  7948  0.80
      P1  H  7989  7998       L1     8  0.73

> <Gold.Chemscore.Hbond.Weighted>
-9.1166

> <Gold.Chemscore.Metal.Weighted>
-0.0000

> <Gold.Chemscore.Lipo.Weighted>
-7.2924

> <Gold.Chemscore.Internal_Hbond.Weighted>
0.0000

> <Gold.Chemscore.DEClash.Weighted>
0.2047

> <Gold.Chemscore.DEInternal.Weighted>
1.5091

> <Gold.Chemscore.Rot.Weighted>
3.1718

> <Gold.Chemscore.Internal.Correction.Weighted>
   9.000000E+99

> <Gold.Protein.RotatedTorsions>
[ 6907 6896 6895 6894 ] final   24.92 input  -60.11 | X-H torsion
[ 7974 7965 7964 7962 ] final -121.69 input  175.53 | X-H torsion
[ 8008 7997 7996 7995 ] final -170.53 input   59.86 | X-H torsion
[ 10167 10162 10161 10158 ] final  132.44 input  -65.29 | X-H torsion
[ 10718 10713 10712 10709 ] final  -40.81 input   66.30 | X-H torsion
[ 10763 10752 10751 10750 ] final   32.94 input  -60.55 | X-H torsion
[ 11005 11000 10999 10996 ] final   53.69 input  -57.11 | X-H torsion

> <Gold.Protein.ActiveResidues>
 VAL166  LYS551  ARG553  GLY616  TRP617  ASP618  TYR619  PRO620  LYS621  CYS622 
 ASP623  PHE694  ASN695  SER759  ASP760  ASP761  ALA762  ILE779  LEU786  VAL792 
 PHE793  MET794  SER795  GLU796  ALA797  LYS798  CYS799  TRP800  GLU811  SER814 

> <Gold.Protein.RotatedAtoms>
  151.9647  135.0106  160.0549 H   0  0  0  0  0  0  0  0  0  0  0  0  # atno 6907 bound_to 6896
  152.1837  133.4720  159.4979 H   0  0  0  0  0  0  0  0  0  0  0  0  # atno 6908 bound_to 6896
  150.6922  134.1718  159.4258 H   0  0  0  0  0  0  0  0  0  0  0  0  # atno 6909 bound_to 6896
  145.0376  140.8118  143.4286 H   0  0  0  0  0  0  0  0  0  0  0  0  # atno 7974 bound_to 7965
  155.9195  140.1071  157.1217 H   0  0  0  0  0  0  0  0  0  0  0  0  # atno 8008 bound_to 7997
  154.4052  140.1258  156.4727 H   0  0  0  0  0  0  0  0  0  0  0  0  # atno 8009 bound_to 7997
  155.7213  140.3470  155.5019 H   0  0  0  0  0  0  0  0  0  0  0  0  # atno 8010 bound_to 7997
  139.5339  144.6662  151.4852 H   0  0  0  0  0  0  0  0  0  0  0  0  # atno 10167 bound_to 10162
  156.2773  130.4213  149.8374 H   0  0  0  0  0  0  0  0  0  0  0  0  # atno 10718 bound_to 10713
  153.0237  135.6400  154.1433 H   0  0  0  0  0  0  0  0  0  0  0  0  # atno 10763 bound_to 10752
  154.1164  135.2849  155.3220 H   0  0  0  0  0  0  0  0  0  0  0  0  # atno 10764 bound_to 10752
  154.6294  135.5497  153.7726 H   0  0  0  0  0  0  0  0  0  0  0  0  # atno 10765 bound_to 10752
  140.0747  134.5422  155.9009 H   0  0  0  0  0  0  0  0  0  0  0  0  # atno 11005 bound_to 11000
  145.1689  139.2415  143.5352 LP  0  0  0  0  0  0  0  0  0  0  0  0  # atno 17320 bound_to 7965
  146.3506  140.1435  142.8594 LP  0  0  0  0  0  0  0  0  0  0  0  0  # atno 17321 bound_to 7965
  140.6535  143.8648  150.6810 LP  0  0  0  0  0  0  0  0  0  0  0  0  # atno 17342 bound_to 10162
  140.2020  143.3952  152.1784 LP  0  0  0  0  0  0  0  0  0  0  0  0  # atno 17343 bound_to 10162
  156.5834  130.8475  151.3389 LP  0  0  0  0  0  0  0  0  0  0  0  0  # atno 17370 bound_to 10713
  157.7303  130.9684  150.1827 LP  0  0  0  0  0  0  0  0  0  0  0  0  # atno 17371 bound_to 10713
  141.2025  133.6625  156.6009 LP  0  0  0  0  0  0  0  0  0  0  0  0  # atno 17394 bound_to 11000
  140.3576  134.7715  157.4511 LP  0  0  0  0  0  0  0  0  0  0  0  0  # atno 17395 bound_to 11000

$$$$
