AV-unprocessed.smi:79|AV-procd|sdf|782|dock3
  -GOLD-   2262017143D 1   1.00000     0.00000
 Structure written by MMmdl.
 56 59  0  0  0  0  0  0  0  0  2 V2000
  146.0641  129.7517  152.0369 C   0  0  0  0  0  0  0  0  0  0  0  0
  145.9109  131.2778  152.0122 C   0  0  1  0  0  0  0  0  0  0  0  0
  147.1929  131.8528  152.1631 O   0  0  0  0  0  0  0  0  0  0  0  0
  145.2856  131.7763  150.6946 C   0  0  0  0  0  0  0  0  0  0  0  0
  144.7300  133.1492  150.8095 N   0  3  2  0  0  0  0  0  0  0  0  0
  145.7754  134.2073  150.8606 C   0  0  0  0  0  0  0  0  0  0  0  0
  145.1477  135.6125  150.9242 C   0  0  0  0  0  0  0  0  0  0  0  0
  144.2130  135.7139  152.0400 N   0  0  0  0  0  0  0  0  0  0  0  0
  144.8214  136.0582  153.2045 C   0  0  0  0  0  0  0  0  0  0  0  0
  144.5755  135.3663  154.3481 N   0  0  0  0  0  0  0  0  0  0  0  0
  145.2007  135.6952  155.4825 C   0  0  0  0  0  0  0  0  0  0  0  0
  146.1005  136.6584  155.6894 N   0  0  0  0  0  0  0  0  0  0  0  0
  146.3581  137.3500  154.5426 C   0  0  0  0  0  0  0  0  0  0  0  0
  145.7695  137.1153  153.2688 C   0  0  0  0  0  0  0  0  0  0  0  0
  146.2773  138.0123  152.3379 N   0  0  0  0  0  0  0  0  0  0  0  0
  147.1188  138.7380  153.0229 C   0  0  0  0  0  0  0  0  0  0  0  0
  147.2242  138.4140  154.3575 N   0  0  0  0  0  0  0  0  0  0  0  0
  148.0813  139.0507  155.3461 C   0  0  0  0  0  0  0  0  0  0  0  0
  149.2264  139.8812  154.7370 C   0  0  0  0  0  0  0  0  0  0  0  0
  148.6234  141.1286  154.0595 C   0  0  0  0  0  0  0  0  0  0  0  0
  148.0698  142.0365  154.9912 O   0  0  0  0  0  0  0  0  0  0  0  0
  150.4167  140.1265  155.6756 C   0  0  0  0  0  0  0  0  0  0  0  0
  151.3598  139.6071  154.7125 O   0  0  0  0  0  0  0  0  0  0  0  0
  150.2649  139.1034  153.9161 C   0  0  0  0  0  0  0  0  0  0  0  0
  143.1595  134.6920  152.0046 C   0  0  2  0  0  0  0  0  0  0  0  0
  142.0918  134.8506  153.1041 C   0  0  0  0  0  0  0  0  0  0  0  0
  143.7515  133.2673  151.9229 C   0  0  0  0  0  0  0  0  0  0  0  0
  145.0958  129.2606  151.9361 H   0  0  0  0  0  0  0  0  0  0  0  0
  146.5050  129.4161  152.9763 H   0  0  0  0  0  0  0  0  0  0  0  0
  146.7011  129.3998  151.2245 H   0  0  0  0  0  0  0  0  0  0  0  0
  145.3015  131.5730  152.8656 H   0  0  0  0  0  0  0  0  0  0  0  0
  147.7819  131.4490  151.5434 H   0  0  0  0  0  0  0  0  0  0  0  0
  146.0512  131.7510  149.9171 H   0  0  0  0  0  0  0  0  0  0  0  0
  144.4975  131.0980  150.3634 H   0  0  0  0  0  0  0  0  0  0  0  0
  146.4126  134.0447  151.7314 H   0  0  0  0  0  0  0  0  0  0  0  0
  146.4208  134.1494  149.9853 H   0  0  0  0  0  0  0  0  0  0  0  0
  145.9305  136.3689  150.9949 H   0  0  0  0  0  0  0  0  0  0  0  0
  144.6070  135.8201  150.0002 H   0  0  0  0  0  0  0  0  0  0  0  0
  144.9455  135.1002  156.3471 H   0  0  0  0  0  0  0  0  0  0  0  0
  147.6893  139.5341  152.5680 H   0  0  0  0  0  0  0  0  0  0  0  0
  147.4613  139.6728  155.9926 H   0  0  0  0  0  0  0  0  0  0  0  0
  148.4795  138.2652  155.9897 H   0  0  0  0  0  0  0  0  0  0  0  0
  149.3785  141.6722  153.4917 H   0  0  0  0  0  0  0  0  0  0  0  0
  147.8398  140.8468  153.3557 H   0  0  0  0  0  0  0  0  0  0  0  0
  148.4213  142.8966  154.8185 H   0  0  0  0  0  0  0  0  0  0  0  0
  150.5949  141.1753  155.9155 H   0  0  0  0  0  0  0  0  0  0  0  0
  150.3966  139.5231  156.5844 H   0  0  0  0  0  0  0  0  0  0  0  0
  150.1788  138.0195  153.9984 H   0  0  0  0  0  0  0  0  0  0  0  0
  150.3297  139.4083  152.8712 H   0  0  0  0  0  0  0  0  0  0  0  0
  142.6355  134.8650  151.0634 H   0  0  0  0  0  0  0  0  0  0  0  0
  141.2541  134.1761  152.9253 H   0  0  0  0  0  0  0  0  0  0  0  0
  141.6947  135.8660  153.1204 H   0  0  0  0  0  0  0  0  0  0  0  0
  142.4761  134.6251  154.0982 H   0  0  0  0  0  0  0  0  0  0  0  0
  142.9433  132.5519  151.7658 H   0  0  0  0  0  0  0  0  0  0  0  0
  144.2339  132.9882  152.8599 H   0  0  0  0  0  0  0  0  0  0  0  0
  144.2014  133.3091  149.9634 H   0  0  0  0  0  0  0  0  0  0  0  0
  1  2  1  0  0  0  0
  1 28  1  0  0  0  0
  1 29  1  0  0  0  0
  1 30  1  0  0  0  0
  2  3  1  0  0  0  0
  2  4  1  0  0  0  0
  2 31  1  0  0  0  0
  3 32  1  0  0  0  0
  4  5  1  0  0  0  0
  4 33  1  0  0  0  0
  4 34  1  0  0  0  0
  5 27  1  0  0  0  0
  5  6  1  0  0  0  0
  5 56  1  0  0  0  0
  6  7  1  0  0  0  0
  6 35  1  0  0  0  0
  6 36  1  0  0  0  0
  7  8  1  0  0  0  0
  7 37  1  0  0  0  0
  7 38  1  0  0  0  0
  8  9  1  0  0  0  0
  8 25  1  0  0  0  0
  9 14  1  0  0  0  0
  9 10  2  0  0  0  0
 10 11  1  0  0  0  0
 11 12  2  0  0  0  0
 11 39  1  0  0  0  0
 12 13  1  0  0  0  0
 13 17  1  0  0  0  0
 13 14  2  0  0  0  0
 14 15  1  0  0  0  0
 15 16  2  0  0  0  0
 16 17  1  0  0  0  0
 16 40  1  0  0  0  0
 17 18  1  0  0  0  0
 18 19  1  0  0  0  0
 18 41  1  0  0  0  0
 18 42  1  0  0  0  0
 19 24  1  0  0  0  0
 19 20  1  0  0  0  0
 19 22  1  0  0  0  0
 20 21  1  0  0  0  0
 20 43  1  0  0  0  0
 20 44  1  0  0  0  0
 21 45  1  0  0  0  0
 22 23  1  0  0  0  0
 22 46  1  0  0  0  0
 22 47  1  0  0  0  0
 23 24  1  0  0  0  0
 24 48  1  0  0  0  0
 24 49  1  0  0  0  0
 25 26  1  0  0  0  0
 25 27  1  0  0  0  0
 25 50  1  0  0  0  0
 26 51  1  0  0  0  0
 26 52  1  0  0  0  0
 26 53  1  0  0  0  0
 27 54  1  0  0  0  0
 27 55  1  0  0  0  0
M  CHG  1   5   1
M  END
> <s_m_source_file>
AV-unprocessed.smi

> <i_m_source_file_index>
79

> <i_lp_mmshare_version>
43012

> <i_f3d_flags>
0

> <s_epik_input>
W0NIM11bQ0BIXShbT0hdKVtDSDJdTjFbQ0gyXVtDSDJdTihbQ0BASF0oW0NIM10pW0NIMl0xKWMobltjSF1uMiljKGMyMyluW2NIXW4zW0NIMl1DNChbQ0gyXVtPSF0pW0NIMl1PW0NIMl00

> <s_epik_cmdline>
J2VwaWtfcHl0aG9uJywgJy1waCcsICc3LjAnLCAnLXRuJywgJzgnLCAnLW1hJywgJzIwMCcsICctbWV0YWxfYmluZGluZycsICctaW1hZScsICc8aW5maWxlLm1hZT4nLCAnLW9tYWUnLCAnPG91dGZpbGUubWFlPic=

> <r_lp_tautomer_probability>
1

> <r_epik_Ionization_Penalty>
0.00515943

> <r_epik_Ionization_Penalty_Charging>
0.00509693

> <r_epik_Ionization_Penalty_Neutral>
6.25007e-05

> <r_epik_State_Penalty>
-0

> <r_epik_Charging_Adjusted_Penalty>
0.00509693

> <i_epik_Tot_Q>
1

> <i_epik_Tot_abs_Q>
1

> <r_epik_Metal_State_Penalty>
-0

> <b_epik_Metal_Only>
0

> <s_lp_Force_Field>
OPLS_2005

> <r_lp_Energy>
48.9332

> <b_lp_Chiralities_Consistent>
1

> <s_lp_Variant>
AV-unprocessed.smi:79-6

> <Gold.Version>
5.8.1

> <Gold.Id.Protein>
6NUR|6NUR_protein|mol2

> <Gold.PLP.Fitness>
47.7129

> <Gold.PLP.PLP>
-38.5280

> <Gold.PLP.part.hbond>
-3.0000

> <Gold.PLP.part.metal>
0.0000

> <Gold.PLP.part.buried>
-7.1961

> <Gold.PLP.part.nonpolar>
-29.9463

> <Gold.PLP.part.repulsive>
0.5582

> <Gold.PLP.ligand.clash>
0.0000

> <Gold.PLP.ligand.torsion>
0.9038

> <Gold.PLP.Chemscore.Hbond>
2.4000

> <Gold.PLP.Chemscore.CHOScore>
1.0000

> <Gold.PLP.Chemscore.Metal>
0.0000

> <Gold.Chemscore.Hbonds>
donor molecule, donor type, donor heavy atom, donor atom, acceptor molecule, acceptor atom, score
      L1  H     3    32       P1 10747  1.00
      L1  H    21    45       P1  8028  0.90
      P1  H  7989  7998       L1    23  0.50
      L1  C    16    40       P1  7957  1.00

> <Gold.PLP.Chemscore.Internal.Correction>
0.7926

> <Gold.Rescore>
     Score         DG    S(hbond)    S(metal)    S(lipo)     H(rot)  DE(clash)    DE(int)     intcor
      9.96     -13.03       1.99        0.00      89.23       3.72       0.08       2.99       ----

> <Gold.Chemscore.Fitness>
9.9648

> <Gold.Chemscore.DG>
-13.0273

> <Gold.Chemscore.ZeroCoef>
-5.4800

> <Gold.Chemscore.Hbond>
1.9872

> <Gold.Chemscore.Metal>
0.0000

> <Gold.Chemscore.Lipo>
89.2280

> <Gold.Chemscore.Internal_Hbond>
0.0000

> <Gold.Chemscore.DEClash>
0.0766

> <Gold.Chemscore.DEInternal>
2.9859

> <Gold.Chemscore.Rot>
3.7226

> <Gold.Chemscore.Internal.Correction>
   9.000000E+99

> <Gold.Chemscore.Hbonds>
donor molecule, donor type, donor heavy atom, donor atom, acceptor molecule, acceptor atom, score
      L1  H     3    32       P1 10747  1.00
      L1  H    21    45       P1  8028  0.81
      P1  H  7989  7998       L1    23  0.01

> <Gold.Chemscore.Hbond.Weighted>
-6.6374

> <Gold.Chemscore.Metal.Weighted>
-0.0000

> <Gold.Chemscore.Lipo.Weighted>
-10.4397

> <Gold.Chemscore.Internal_Hbond.Weighted>
0.0000

> <Gold.Chemscore.DEClash.Weighted>
0.0766

> <Gold.Chemscore.DEInternal.Weighted>
2.9859

> <Gold.Chemscore.Rot.Weighted>
9.5298

> <Gold.Chemscore.Internal.Correction.Weighted>
   9.000000E+99

> <Gold.Protein.RotatedTorsions>
[ 6907 6896 6895 6894 ] final   22.25 input  -60.11 | X-H torsion
[ 7974 7965 7964 7962 ] final  -81.42 input  175.53 | X-H torsion
[ 8008 7997 7996 7995 ] final  -81.31 input   59.86 | X-H torsion
[ 10167 10162 10161 10158 ] final   29.02 input  -65.29 | X-H torsion
[ 10718 10713 10712 10709 ] final -100.33 input   66.30 | X-H torsion
[ 10763 10752 10751 10750 ] final -142.26 input  -60.55 | X-H torsion
[ 11005 11000 10999 10996 ] final  171.88 input  -57.11 | X-H torsion

> <Gold.Protein.ActiveResidues>
 VAL166  LYS551  ARG553  GLY616  TRP617  ASP618  TYR619  PRO620  LYS621  CYS622 
 ASP623  PHE694  ASN695  SER759  ASP760  ASP761  ALA762  ILE779  LEU786  VAL792 
 PHE793  MET794  SER795  GLU796  ALA797  LYS798  CYS799  TRP800  GLU811  SER814 

> <Gold.Protein.RotatedAtoms>
  151.9242  135.0285  160.0524 H   0  0  0  0  0  0  0  0  0  0  0  0  # atno 6907 bound_to 6896
  152.2174  133.4952  159.5151 H   0  0  0  0  0  0  0  0  0  0  0  0  # atno 6908 bound_to 6896
  150.6991  134.1305  159.4110 H   0  0  0  0  0  0  0  0  0  0  0  0  # atno 6909 bound_to 6896
  145.5469  140.9502  143.1520 H   0  0  0  0  0  0  0  0  0  0  0  0  # atno 7974 bound_to 7965
  154.5971  140.0649  156.9318 H   0  0  0  0  0  0  0  0  0  0  0  0  # atno 8008 bound_to 7997
  155.2196  140.3329  155.4299 H   0  0  0  0  0  0  0  0  0  0  0  0  # atno 8009 bound_to 7997
  156.2294  140.1834  156.7265 H   0  0  0  0  0  0  0  0  0  0  0  0  # atno 8010 bound_to 7997
  140.4802  144.0628  150.6263 H   0  0  0  0  0  0  0  0  0  0  0  0  # atno 10167 bound_to 10162
  156.0160  130.5323  150.6801 H   0  0  0  0  0  0  0  0  0  0  0  0  # atno 10718 bound_to 10713
  154.8515  135.3501  154.5999 H   0  0  0  0  0  0  0  0  0  0  0  0  # atno 10763 bound_to 10752
  153.6608  135.6989  153.5182 H   0  0  0  0  0  0  0  0  0  0  0  0  # atno 10764 bound_to 10752
  153.2819  135.4261  155.1044 H   0  0  0  0  0  0  0  0  0  0  0  0  # atno 10765 bound_to 10752
  140.3237  134.7416  157.4083 H   0  0  0  0  0  0  0  0  0  0  0  0  # atno 11005 bound_to 11000
  144.7549  139.7100  143.7258 LP  0  0  0  0  0  0  0  0  0  0  0  0  # atno 17320 bound_to 7965
  146.1943  139.5201  142.9784 LP  0  0  0  0  0  0  0  0  0  0  0  0  # atno 17321 bound_to 7965
  140.3867  143.2774  152.0107 LP  0  0  0  0  0  0  0  0  0  0  0  0  # atno 17342 bound_to 10162
  139.4832  144.6110  151.7433 LP  0  0  0  0  0  0  0  0  0  0  0  0  # atno 17343 bound_to 10162
  157.4505  131.0872  151.0850 LP  0  0  0  0  0  0  0  0  0  0  0  0  # atno 17370 bound_to 10713
  157.1367  130.6125  149.5544 LP  0  0  0  0  0  0  0  0  0  0  0  0  # atno 17371 bound_to 10713
  140.0920  134.5588  155.8435 LP  0  0  0  0  0  0  0  0  0  0  0  0  # atno 17394 bound_to 11000
  141.2080  133.6670  156.6345 LP  0  0  0  0  0  0  0  0  0  0  0  0  # atno 17395 bound_to 11000

$$$$
