AV-unprocessed.smi:2482|AV-procd|sdf|9782|dock10
  -GOLD-   2272013423D 1   1.00000     0.00000
 Structure written by MMmdl.
 34 35  0  0  0  0  0  0  0  0  3 V2000
  152.5131  143.4441  161.4338 C   0  0  0  0  0  0  0  0  0  0  0  0
  152.0980  143.0848  160.0192 C   0  0  0  0  0  0  0  0  0  0  0  0
  151.2955  143.9792  159.4028 N   0  0  0  0  0  0  0  0  0  0  0  0
  150.9028  143.7064  158.1429 C   0  0  0  0  0  0  0  0  0  0  0  0
  151.2850  142.5429  157.4491 C   0  0  0  0  0  0  0  0  0  0  0  0
  152.1176  141.5944  158.0838 C   0  0  0  0  0  0  0  0  0  0  0  0
  152.4953  140.4825  157.4314 N   0  5  0  0  0  0  0  0  0  0  0  0
  151.5594  139.6188  156.9685 C   0  0  0  0  0  0  0  0  0  0  0  0
  150.5939  139.1415  157.5683 O   0  0  0  0  0  0  0  0  0  0  0  0
  151.8197  139.2403  155.4930 C   0  0  1  0  0  0  0  0  0  0  0  0
  151.7699  137.7212  155.2035 C   0  0  0  0  0  0  0  0  0  0  0  0
  150.3843  137.2038  155.3028 N   0  3  2  0  0  0  0  0  0  0  0  0
  150.3042  135.7420  155.1003 C   0  0  0  0  0  0  0  0  0  0  0  0
  149.4754  137.9579  154.4104 C   0  0  0  0  0  0  0  0  0  0  0  0
  149.5498  139.4618  154.7202 C   0  0  0  0  0  0  0  0  0  0  0  0
  150.9019  139.9059  154.6164 O   0  0  0  0  0  0  0  0  0  0  0  0
  152.5372  141.8858  159.4078 C   0  0  0  0  0  0  0  0  0  0  0  0
  153.5723  140.7959  160.2722 Cl  0  0  0  0  0  0  0  0  0  0  0  0
  152.1676  142.6838  162.1347 H   0  0  0  0  0  0  0  0  0  0  0  0
  152.0953  144.4028  161.7436 H   0  0  0  0  0  0  0  0  0  0  0  0
  153.5989  143.5114  161.5045 H   0  0  0  0  0  0  0  0  0  0  0  0
  150.2641  144.4386  157.6713 H   0  0  0  0  0  0  0  0  0  0  0  0
  150.9385  142.3810  156.4387 H   0  0  0  0  0  0  0  0  0  0  0  0
  152.8210  139.5962  155.2457 H   0  0  0  0  0  0  0  0  0  0  0  0
  152.1560  137.5272  154.2018 H   0  0  0  0  0  0  0  0  0  0  0  0
  152.4181  137.1806  155.8952 H   0  0  0  0  0  0  0  0  0  0  0  0
  150.6257  135.4672  154.0950 H   0  0  0  0  0  0  0  0  0  0  0  0
  149.2820  135.3902  155.2422 H   0  0  0  0  0  0  0  0  0  0  0  0
  150.9386  135.2202  155.8177 H   0  0  0  0  0  0  0  0  0  0  0  0
  149.7503  137.7769  153.3700 H   0  0  0  0  0  0  0  0  0  0  0  0
  148.4519  137.6035  154.5390 H   0  0  0  0  0  0  0  0  0  0  0  0
  148.9453  140.0194  154.0049 H   0  0  0  0  0  0  0  0  0  0  0  0
  149.1378  139.6777  155.7068 H   0  0  0  0  0  0  0  0  0  0  0  0
  150.0795  137.3850  156.2493 H   0  0  0  0  0  0  0  0  0  0  0  0
  1  2  1  0  0  0  0
  1 19  1  0  0  0  0
  1 20  1  0  0  0  0
  1 21  1  0  0  0  0
  2 17  1  0  0  0  0
  2  3  2  0  0  0  0
  3  4  1  0  0  0  0
  4  5  2  0  0  0  0
  4 22  1  0  0  0  0
  5  6  1  0  0  0  0
  5 23  1  0  0  0  0
  6  7  1  0  0  0  0
  6 17  2  0  0  0  0
  7  8  1  0  0  0  0
  8  9  2  0  0  0  0
  8 10  1  0  0  0  0
 10 16  1  0  0  0  0
 10 11  1  0  0  0  0
 10 24  1  0  0  0  0
 11 12  1  0  0  0  0
 11 25  1  0  0  0  0
 11 26  1  0  0  0  0
 12 13  1  0  0  0  0
 12 14  1  0  0  0  0
 12 34  1  0  0  0  0
 13 27  1  0  0  0  0
 13 28  1  0  0  0  0
 13 29  1  0  0  0  0
 14 15  1  0  0  0  0
 14 30  1  0  0  0  0
 14 31  1  0  0  0  0
 15 16  1  0  0  0  0
 15 32  1  0  0  0  0
 15 33  1  0  0  0  0
 17 18  1  0  0  0  0
M  CHG  1   7  -1
M  CHG  1  12   1
M  END
> <s_m_source_file>
AV-unprocessed.smi

> <i_m_source_file_index>
2482

> <i_lp_mmshare_version>
43012

> <i_f3d_flags>
0

> <s_epik_input>
W0NIM11jMW5bY0hdW2NIXWMoYzFDbClbTkhdQyg9TylbQ0BASF0yW0NIMl1OKFtDSDNdKVtDSDJdW0NIMl1PMg==

> <s_epik_cmdline>
J2VwaWtfcHl0aG9uJywgJy1waCcsICc3LjAnLCAnLXRuJywgJzgnLCAnLW1hJywgJzIwMCcsICctbWV0YWxfYmluZGluZycsICctaW1hZScsICc8aW5maWxlLm1hZT4nLCAnLW9tYWUnLCAnPG91dGZpbGUubWFlPic=

> <r_epik_Ionization_Penalty>
6.9249

> <r_epik_Ionization_Penalty_Charging>
6.74596

> <r_epik_Ionization_Penalty_Neutral>
0.178941

> <r_epik_State_Penalty>
6.78185

> <r_epik_Charging_Adjusted_Penalty>
13.5278

> <i_epik_Tot_Q>
0

> <i_epik_Tot_abs_Q>
2

> <r_epik_Metal_State_Penalty>
2.70608

> <b_epik_Metal_Only>
1

> <s_lp_Force_Field>
OPLS_2005

> <r_lp_Energy>
12.3896

> <b_lp_Chiralities_Consistent>
1

> <s_lp_Variant>
AV-unprocessed.smi:2482-8

> <Gold.Version>
5.8.1

> <Gold.Id.Protein>
6NUR|6NUR_protein|mol2

> <Gold.PLP.Fitness>
42.8834

> <Gold.PLP.PLP>
-33.5477

> <Gold.PLP.part.hbond>
-2.0000

> <Gold.PLP.part.metal>
0.0000

> <Gold.PLP.part.buried>
-2.6331

> <Gold.PLP.part.nonpolar>
-28.4889

> <Gold.PLP.part.repulsive>
0.1897

> <Gold.PLP.ligand.clash>
0.0000

> <Gold.PLP.ligand.torsion>
1.2787

> <Gold.PLP.Chemscore.Hbond>
2.7446

> <Gold.PLP.Chemscore.CHOScore>
1.0626

> <Gold.PLP.Chemscore.Metal>
0.0000

> <Gold.Chemscore.Hbonds>
donor molecule, donor type, donor heavy atom, donor atom, acceptor molecule, acceptor atom, score
      P1  H  7989  7998       L1    16  1.00
      P1  H  7997  8008       L1     7  1.60
      L1  C     4    22       P1  8028  1.00
      L1  C     4    22       P1  8029  0.05

> <Gold.PLP.Chemscore.Internal.Correction>
0.4713

> <Gold.Rescore>
     Score         DG    S(hbond)    S(metal)    S(lipo)     H(rot)  DE(clash)    DE(int)     intcor
     19.11     -20.61       1.75        0.00     101.22       1.00       0.04       1.46       ----

> <Gold.Chemscore.Fitness>
19.1095

> <Gold.Chemscore.DG>
-20.6065

> <Gold.Chemscore.ZeroCoef>
-5.4800

> <Gold.Chemscore.Hbond>
1.7495

> <Gold.Chemscore.Metal>
0.0000

> <Gold.Chemscore.Lipo>
101.2229

> <Gold.Chemscore.Internal_Hbond>
0.0000

> <Gold.Chemscore.DEClash>
0.0396

> <Gold.Chemscore.DEInternal>
1.4574

> <Gold.Chemscore.Rot>
1.0000

> <Gold.Chemscore.Internal.Correction>
   9.000000E+99

> <Gold.Chemscore.Hbonds>
donor molecule, donor type, donor heavy atom, donor atom, acceptor molecule, acceptor atom, score
      P1  H  7989  7998       L1    16  0.88
      P1  H  7997  8008       L1     7  0.64

> <Gold.Chemscore.Hbond.Weighted>
-5.8434

> <Gold.Chemscore.Metal.Weighted>
-0.0000

> <Gold.Chemscore.Lipo.Weighted>
-11.8431

> <Gold.Chemscore.Internal_Hbond.Weighted>
0.0000

> <Gold.Chemscore.DEClash.Weighted>
0.0396

> <Gold.Chemscore.DEInternal.Weighted>
1.4574

> <Gold.Chemscore.Rot.Weighted>
2.5600

> <Gold.Chemscore.Internal.Correction.Weighted>
   9.000000E+99

> <Gold.Protein.RotatedTorsions>
[ 6907 6896 6895 6894 ] final  -98.03 input  -60.11 | X-H torsion
[ 7974 7965 7964 7962 ] final  119.06 input  175.53 | X-H torsion
[ 8008 7997 7996 7995 ] final  -60.29 input   59.86 | X-H torsion
[ 10167 10162 10161 10158 ] final  137.21 input  -65.29 | X-H torsion
[ 10718 10713 10712 10709 ] final  -67.97 input   66.30 | X-H torsion
[ 10763 10752 10751 10750 ] final  -87.84 input  -60.55 | X-H torsion
[ 11005 11000 10999 10996 ] final  151.43 input  -57.11 | X-H torsion

> <Gold.Protein.ActiveResidues>
 VAL166  LYS551  ARG553  GLY616  TRP617  ASP618  TYR619  PRO620  LYS621  CYS622 
 ASP623  PHE694  ASN695  SER759  ASP760  ASP761  ALA762  ILE779  LEU786  VAL792 
 PHE793  MET794  SER795  GLU796  ALA797  LYS798  CYS799  TRP800  GLU811  SER814 

> <Gold.Protein.RotatedAtoms>
  150.7034  134.1258  159.4051 H   0  0  0  0  0  0  0  0  0  0  0  0  # atno 6907 bound_to 6896
  151.9244  135.0282  160.0534 H   0  0  0  0  0  0  0  0  0  0  0  0  # atno 6908 bound_to 6896
  152.2229  133.4962  159.5209 H   0  0  0  0  0  0  0  0  0  0  0  0  # atno 6909 bound_to 6896
  145.1477  139.3229  143.4583 H   0  0  0  0  0  0  0  0  0  0  0  0  # atno 7974 bound_to 7965
  154.4392  140.1043  156.6250 H   0  0  0  0  0  0  0  0  0  0  0  0  # atno 8008 bound_to 7997
  155.5666  140.3488  155.4486 H   0  0  0  0  0  0  0  0  0  0  0  0  # atno 8009 bound_to 7997
  156.0420  140.1284  157.0134 H   0  0  0  0  0  0  0  0  0  0  0  0  # atno 8010 bound_to 7997
  139.5152  144.6422  151.5537 H   0  0  0  0  0  0  0  0  0  0  0  0  # atno 10167 bound_to 10162
  156.0530  130.4287  150.1932 H   0  0  0  0  0  0  0  0  0  0  0  0  # atno 10718 bound_to 10713
  154.6381  135.5398  153.7757 H   0  0  0  0  0  0  0  0  0  0  0  0  # atno 10763 bound_to 10752
  153.0319  135.6452  154.1201 H   0  0  0  0  0  0  0  0  0  0  0  0  # atno 10764 bound_to 10752
  154.1127  135.2925  155.3206 H   0  0  0  0  0  0  0  0  0  0  0  0  # atno 10765 bound_to 10752
  140.1218  134.8859  157.2083 H   0  0  0  0  0  0  0  0  0  0  0  0  # atno 11005 bound_to 11000
  146.3498  140.1539  142.8592 LP  0  0  0  0  0  0  0  0  0  0  0  0  # atno 17320 bound_to 7965
  145.0464  140.8984  143.5022 LP  0  0  0  0  0  0  0  0  0  0  0  0  # atno 17321 bound_to 7965
  140.6193  143.9288  150.6514 LP  0  0  0  0  0  0  0  0  0  0  0  0  # atno 17342 bound_to 10162
  140.2556  143.3561  152.1367 LP  0  0  0  0  0  0  0  0  0  0  0  0  # atno 17343 bound_to 10162
  157.0012  130.9923  151.3390 LP  0  0  0  0  0  0  0  0  0  0  0  0  # atno 17370 bound_to 10713
  157.5473  130.8159  149.8102 LP  0  0  0  0  0  0  0  0  0  0  0  0  # atno 17371 bound_to 10713
  140.2955  134.3191  155.7303 LP  0  0  0  0  0  0  0  0  0  0  0  0  # atno 17394 bound_to 11000
  141.2153  133.7560  156.9565 LP  0  0  0  0  0  0  0  0  0  0  0  0  # atno 17395 bound_to 11000

$$$$
