AV-unprocessed.smi:2918|AV-procd|sdf|11191|dock3
  -GOLD-   2272016 83D 1   1.00000     0.00000
 Structure written by MMmdl.
 41 42  0  0  0  0  0  0  0  0  1 V2000
  148.4661  139.5718  153.2874 C   0  0  0  0  0  0  0  0  0  0  0  0
  149.0250  139.9589  154.6653 C   0  0  0  0  0  0  0  0  0  0  0  0
  149.0927  141.4843  154.8489 C   0  0  0  0  0  0  0  0  0  0  0  0
  150.3251  139.3350  154.8935 N   0  0  0  0  0  0  0  0  0  0  0  0
  151.3936  140.0963  155.2277 N   0  0  0  0  0  0  0  0  0  0  0  0
  152.4053  139.2470  155.3441 C   0  0  0  0  0  0  0  0  0  0  0  0
  152.0329  137.8991  155.0796 C   0  0  0  0  0  0  0  0  0  0  0  0
  150.6991  138.0090  154.7941 C   0  0  0  0  0  0  0  0  0  0  0  0
  149.8212  137.0282  154.4518 N   0  0  0  0  0  0  0  0  0  0  0  0
  149.2827  136.0696  155.2257 C   0  0  0  0  0  0  0  0  0  0  0  0
  149.4996  135.9224  156.4282 O   0  0  0  0  0  0  0  0  0  0  0  0
  148.4605  135.2848  154.5086 N   0  0  0  0  0  0  0  0  0  0  0  0
  147.6611  134.1367  154.9637 C   0  0  0  0  0  0  0  0  0  0  0  0
  146.7196  134.5711  156.1073 C   0  0  0  0  0  0  0  0  0  0  0  0
  146.8578  133.4998  153.8034 C   0  0  0  0  0  0  0  0  0  0  0  0
  147.7774  132.8566  152.7499 C   0  0  0  0  0  0  0  0  0  0  0  0
  148.6097  131.8803  153.3652 O   0  0  0  0  0  0  0  0  0  0  0  0
  149.4689  132.4293  154.3576 C   0  0  0  0  0  0  0  0  0  0  0  0
  148.6360  133.0608  155.4894 C   0  0  0  0  0  0  0  0  0  0  0  0
  147.4668  139.9830  153.1415 H   0  0  0  0  0  0  0  0  0  0  0  0
  148.3948  138.4887  153.1839 H   0  0  0  0  0  0  0  0  0  0  0  0
  149.0984  139.9433  152.4801 H   0  0  0  0  0  0  0  0  0  0  0  0
  148.3350  139.5761  155.4175 H   0  0  0  0  0  0  0  0  0  0  0  0
  148.1029  141.9322  154.7568 H   0  0  0  0  0  0  0  0  0  0  0  0
  149.7363  141.9525  154.1031 H   0  0  0  0  0  0  0  0  0  0  0  0
  149.4802  141.7432  155.8348 H   0  0  0  0  0  0  0  0  0  0  0  0
  153.3777  139.6334  155.6121 H   0  0  0  0  0  0  0  0  0  0  0  0
  152.6566  137.0182  155.0972 H   0  0  0  0  0  0  0  0  0  0  0  0
  149.5327  137.0304  153.4848 H   0  0  0  0  0  0  0  0  0  0  0  0
  148.3685  135.5087  153.5287 H   0  0  0  0  0  0  0  0  0  0  0  0
  146.1818  133.7176  156.5212 H   0  0  0  0  0  0  0  0  0  0  0  0
  145.9683  135.2856  155.7708 H   0  0  0  0  0  0  0  0  0  0  0  0
  147.2746  135.0345  156.9238 H   0  0  0  0  0  0  0  0  0  0  0  0
  146.2015  132.7255  154.2034 H   0  0  0  0  0  0  0  0  0  0  0  0
  146.1979  134.2254  153.3289 H   0  0  0  0  0  0  0  0  0  0  0  0
  147.1779  132.3684  151.9815 H   0  0  0  0  0  0  0  0  0  0  0  0
  148.3865  133.6073  152.2444 H   0  0  0  0  0  0  0  0  0  0  0  0
  150.0942  131.6307  154.7572 H   0  0  0  0  0  0  0  0  0  0  0  0
  150.1425  133.1597  153.9067 H   0  0  0  0  0  0  0  0  0  0  0  0
  149.2982  133.4816  156.2476 H   0  0  0  0  0  0  0  0  0  0  0  0
  148.0737  132.2684  155.9856 H   0  0  0  0  0  0  0  0  0  0  0  0
  1  2  1  0  0  0  0
  1 20  1  0  0  0  0
  1 21  1  0  0  0  0
  1 22  1  0  0  0  0
  2  3  1  0  0  0  0
  2  4  1  0  0  0  0
  2 23  1  0  0  0  0
  3 24  1  0  0  0  0
  3 25  1  0  0  0  0
  3 26  1  0  0  0  0
  4  8  1  0  0  0  0
  4  5  1  0  0  0  0
  5  6  2  0  0  0  0
  6  7  1  0  0  0  0
  6 27  1  0  0  0  0
  7  8  2  0  0  0  0
  7 28  1  0  0  0  0
  8  9  1  0  0  0  0
  9 10  1  0  0  0  0
  9 29  1  0  0  0  0
 10 11  2  0  0  0  0
 10 12  1  0  0  0  0
 12 13  1  0  0  0  0
 12 30  1  0  0  0  0
 13 19  1  0  0  0  0
 13 14  1  0  0  0  0
 13 15  1  0  0  0  0
 14 31  1  0  0  0  0
 14 32  1  0  0  0  0
 14 33  1  0  0  0  0
 15 16  1  0  0  0  0
 15 34  1  0  0  0  0
 15 35  1  0  0  0  0
 16 17  1  0  0  0  0
 16 36  1  0  0  0  0
 16 37  1  0  0  0  0
 17 18  1  0  0  0  0
 18 19  1  0  0  0  0
 18 38  1  0  0  0  0
 18 39  1  0  0  0  0
 19 40  1  0  0  0  0
 19 41  1  0  0  0  0
M  END
> <s_m_source_file>
AV-unprocessed.smi

> <i_m_source_file_index>
2918

> <i_lp_mmshare_version>
43012

> <i_f3d_flags>
0

> <s_epik_input>
W0NIM11bQ0hdKFtDSDNdKW4xbltjSF1bY0hdYzFbTkhdQyg9TylbTkhdQzIoW0NIM10pW0NIMl1bQ0gyXU9bQ0gyXVtDSDJdMg==

> <s_epik_cmdline>
J2VwaWtfcHl0aG9uJywgJy1waCcsICc3LjAnLCAnLXRuJywgJzgnLCAnLW1hJywgJzIwMCcsICctbWV0YWxfYmluZGluZycsICctaW1hZScsICc8aW5maWxlLm1hZT4nLCAnLW9tYWUnLCAnPG91dGZpbGUubWFlPic=

> <r_lp_tautomer_probability>
1

> <r_epik_Ionization_Penalty>
4.13243e-05

> <r_epik_Ionization_Penalty_Charging>
0

> <r_epik_Ionization_Penalty_Neutral>
4.13243e-05

> <r_epik_State_Penalty>
-0

> <r_epik_Charging_Adjusted_Penalty>
0

> <i_epik_Tot_Q>
0

> <i_epik_Tot_abs_Q>
0

> <r_epik_Metal_State_Penalty>
-0

> <b_epik_Metal_Only>
0

> <s_lp_Force_Field>
OPLS_2005

> <r_lp_Energy>
17.4718

> <b_lp_Chiralities_Consistent>
1

> <s_lp_Variant>
AV-unprocessed.smi:2918-1

> <Gold.Version>
5.8.1

> <Gold.Id.Protein>
6NUR|6NUR_protein|mol2

> <Gold.PLP.Fitness>
36.2921

> <Gold.PLP.PLP>
-28.7220

> <Gold.PLP.part.hbond>
-3.1706

> <Gold.PLP.part.metal>
0.0000

> <Gold.PLP.part.buried>
2.1057

> <Gold.PLP.part.nonpolar>
-28.4163

> <Gold.PLP.part.repulsive>
0.2164

> <Gold.PLP.ligand.clash>
0.0000

> <Gold.PLP.ligand.torsion>
0.7357

> <Gold.PLP.Chemscore.Hbond>
3.0000

> <Gold.PLP.Chemscore.CHOScore>
0.0000

> <Gold.PLP.Chemscore.Metal>
0.0000

> <Gold.Chemscore.Hbonds>
donor molecule, donor type, donor heavy atom, donor atom, acceptor molecule, acceptor atom, score
      L1  H     9    29       P1  7948  1.00
      L1  H    12    30       P1  7948  1.00
      P1  H  7989  7998       L1     5  0.85

> <Gold.PLP.Chemscore.Internal.Correction>
0.0415

> <Gold.Rescore>
     Score         DG    S(hbond)    S(metal)    S(lipo)     H(rot)  DE(clash)    DE(int)     intcor
     13.23     -15.58       1.84        0.00      59.92       1.19       1.52       0.83       ----

> <Gold.Chemscore.Fitness>
13.2288

> <Gold.Chemscore.DG>
-15.5813

> <Gold.Chemscore.ZeroCoef>
-5.4800

> <Gold.Chemscore.Hbond>
1.8394

> <Gold.Chemscore.Metal>
0.0000

> <Gold.Chemscore.Lipo>
59.9169

> <Gold.Chemscore.Internal_Hbond>
0.0000

> <Gold.Chemscore.DEClash>
1.5199

> <Gold.Chemscore.DEInternal>
0.8326

> <Gold.Chemscore.Rot>
1.1924

> <Gold.Chemscore.Internal.Correction>
   9.000000E+99

> <Gold.Chemscore.Hbonds>
donor molecule, donor type, donor heavy atom, donor atom, acceptor molecule, acceptor atom, score
      L1  H     9    29       P1  7948  0.84
      L1  H    12    30       P1  7948  0.97
      P1  H  7989  7998       L1     5  0.06

> <Gold.Chemscore.Hbond.Weighted>
-6.1434

> <Gold.Chemscore.Metal.Weighted>
-0.0000

> <Gold.Chemscore.Lipo.Weighted>
-7.0103

> <Gold.Chemscore.Internal_Hbond.Weighted>
0.0000

> <Gold.Chemscore.DEClash.Weighted>
1.5199

> <Gold.Chemscore.DEInternal.Weighted>
0.8326

> <Gold.Chemscore.Rot.Weighted>
3.0524

> <Gold.Chemscore.Internal.Correction.Weighted>
   9.000000E+99

> <Gold.Protein.RotatedTorsions>
[ 6907 6896 6895 6894 ] final  179.66 input  -60.11 | X-H torsion
[ 7974 7965 7964 7962 ] final   37.98 input  175.53 | X-H torsion
[ 8008 7997 7996 7995 ] final -149.24 input   59.86 | X-H torsion
[ 10167 10162 10161 10158 ] final  -70.04 input  -65.29 | X-H torsion
[ 10718 10713 10712 10709 ] final -125.33 input   66.30 | X-H torsion
[ 10763 10752 10751 10750 ] final -100.99 input  -60.55 | X-H torsion
[ 11005 11000 10999 10996 ] final   12.61 input  -57.11 | X-H torsion

> <Gold.Protein.ActiveResidues>
 VAL166  LYS551  ARG553  GLY616  TRP617  ASP618  TYR619  PRO620  LYS621  CYS622 
 ASP623  PHE694  ASN695  SER759  ASP760  ASP761  ALA762  ILE779  LEU786  VAL792 
 PHE793  MET794  SER795  GLU796  ALA797  LYS798  CYS799  TRP800  GLU811  SER814 

> <Gold.Protein.RotatedAtoms>
  151.6681  133.3315  159.3189 H   0  0  0  0  0  0  0  0  0  0  0  0  # atno 6907 bound_to 6896
  150.7881  134.6886  159.6493 H   0  0  0  0  0  0  0  0  0  0  0  0  # atno 6908 bound_to 6896
  152.3955  134.6376  160.0143 H   0  0  0  0  0  0  0  0  0  0  0  0  # atno 6909 bound_to 6896
  146.1097  139.5828  142.9360 H   0  0  0  0  0  0  0  0  0  0  0  0  # atno 7974 bound_to 7965
  155.6044  140.0665  157.2724 H   0  0  0  0  0  0  0  0  0  0  0  0  # atno 8008 bound_to 7997
  154.4270  140.1812  156.1254 H   0  0  0  0  0  0  0  0  0  0  0  0  # atno 8009 bound_to 7997
  156.0134  140.3324  155.6967 H   0  0  0  0  0  0  0  0  0  0  0  0  # atno 8010 bound_to 7997
  140.5384  143.2316  151.7135 H   0  0  0  0  0  0  0  0  0  0  0  0  # atno 10167 bound_to 10162
  156.1666  130.6638  151.0123 H   0  0  0  0  0  0  0  0  0  0  0  0  # atno 10718 bound_to 10713
  154.7623  135.4914  153.9487 H   0  0  0  0  0  0  0  0  0  0  0  0  # atno 10763 bound_to 10752
  153.1265  135.6743  153.9255 H   0  0  0  0  0  0  0  0  0  0  0  0  # atno 10764 bound_to 10752
  153.8972  135.3114  155.3427 H   0  0  0  0  0  0  0  0  0  0  0  0  # atno 10765 bound_to 10752
  140.4900  134.0850  155.7769 H   0  0  0  0  0  0  0  0  0  0  0  0  # atno 11005 bound_to 11000
  145.5690  141.0396  143.2185 LP  0  0  0  0  0  0  0  0  0  0  0  0  # atno 17320 bound_to 7965
  144.7500  139.7218  143.7277 LP  0  0  0  0  0  0  0  0  0  0  0  0  # atno 17321 bound_to 7965
  139.4979  144.4007  152.0184 LP  0  0  0  0  0  0  0  0  0  0  0  0  # atno 17342 bound_to 10162
  140.3114  144.3533  150.6033 LP  0  0  0  0  0  0  0  0  0  0  0  0  # atno 17343 bound_to 10162
  157.6772  131.0847  150.7464 LP  0  0  0  0  0  0  0  0  0  0  0  0  # atno 17370 bound_to 10713
  156.7524  130.4773  149.5454 LP  0  0  0  0  0  0  0  0  0  0  0  0  # atno 17371 bound_to 10713
  141.1489  133.9005  157.2148 LP  0  0  0  0  0  0  0  0  0  0  0  0  # atno 17394 bound_to 11000
  139.9775  135.0109  156.9667 LP  0  0  0  0  0  0  0  0  0  0  0  0  # atno 17395 bound_to 11000

$$$$
