AV-unprocessed.smi:447|AV-procd|sdf|2600|dock5
  -GOLD-   2262022593D 1   1.00000     0.00000
 Structure written by MMmdl.
 45 47  0  0  0  0  0  0  0  0  1 V2000
  154.5211  137.0210  162.3263 C   0  0  0  0  0  0  0  0  0  0  0  0
  153.8130  137.0167  160.9762 C   0  0  0  0  0  0  0  0  0  0  0  0
  153.7843  135.9898  160.2986 O   0  0  0  0  0  0  0  0  0  0  0  0
  153.2477  138.1743  160.6014 N   0  0  0  0  0  0  0  0  0  0  0  0
  152.5430  138.4110  159.3427 C   0  0  1  0  0  0  0  0  0  0  0  0
  151.1914  137.6829  159.3318 C   0  0  0  0  0  0  0  0  0  0  0  0
  152.3893  139.9013  159.1705 C   0  0  0  0  0  0  0  0  0  0  0  0
  152.9374  140.7734  160.0227 N   0  0  0  0  0  0  0  0  0  0  0  0
  152.5576  141.9947  159.5038 C   0  0  0  0  0  0  0  0  0  0  0  0
  152.8308  143.3078  159.9497 C   0  0  0  0  0  0  0  0  0  0  0  0
  152.3270  144.4205  159.2442 C   0  0  0  0  0  0  0  0  0  0  0  0
  151.5451  144.2362  158.0854 C   0  0  0  0  0  0  0  0  0  0  0  0
  151.2615  142.9361  157.6248 C   0  0  0  0  0  0  0  0  0  0  0  0
  151.7663  141.8291  158.3333 C   0  0  0  0  0  0  0  0  0  0  0  0
  151.6733  140.4527  158.1543 N   0  0  0  0  0  0  0  0  0  0  0  0
  150.9477  139.7905  157.0774 C   0  0  0  0  0  0  0  0  0  0  0  0
  151.0765  140.5315  155.7305 C   0  0  1  0  0  0  0  0  0  0  0  0
  152.1543  140.0092  154.9773 O   0  0  0  0  0  0  0  0  0  0  0  0
  149.7684  140.4977  154.9562 C   0  0  0  0  0  0  0  0  0  0  0  0
  149.2260  139.2631  154.5386 C   0  0  0  0  0  0  0  0  0  0  0  0
  148.0178  139.2267  153.8155 C   0  0  0  0  0  0  0  0  0  0  0  0
  147.3468  140.4247  153.5033 C   0  0  0  0  0  0  0  0  0  0  0  0
  147.8850  141.6596  153.9135 C   0  0  0  0  0  0  0  0  0  0  0  0
  149.0928  141.6966  154.6371 C   0  0  0  0  0  0  0  0  0  0  0  0
  155.3830  137.6882  162.3004 H   0  0  0  0  0  0  0  0  0  0  0  0
  154.8711  136.0208  162.5836 H   0  0  0  0  0  0  0  0  0  0  0  0
  153.8450  137.3581  163.1123 H   0  0  0  0  0  0  0  0  0  0  0  0
  153.3287  138.9651  161.2242 H   0  0  0  0  0  0  0  0  0  0  0  0
  153.1496  138.0134  158.5310 H   0  0  0  0  0  0  0  0  0  0  0  0
  150.6664  137.8518  158.3911 H   0  0  0  0  0  0  0  0  0  0  0  0
  150.5459  138.0275  160.1404 H   0  0  0  0  0  0  0  0  0  0  0  0
  151.3245  136.6067  159.4464 H   0  0  0  0  0  0  0  0  0  0  0  0
  153.4291  143.4590  160.8360 H   0  0  0  0  0  0  0  0  0  0  0  0
  152.5414  145.4199  159.5934 H   0  0  0  0  0  0  0  0  0  0  0  0
  151.1634  145.0936  157.5504 H   0  0  0  0  0  0  0  0  0  0  0  0
  150.6631  142.7915  156.7375 H   0  0  0  0  0  0  0  0  0  0  0  0
  151.2753  138.7549  156.9950 H   0  0  0  0  0  0  0  0  0  0  0  0
  149.8965  139.7379  157.3640 H   0  0  0  0  0  0  0  0  0  0  0  0
  151.3247  141.5742  155.9333 H   0  0  0  0  0  0  0  0  0  0  0  0
  152.9052  139.9280  155.5453 H   0  0  0  0  0  0  0  0  0  0  0  0
  149.7349  138.3388  154.7705 H   0  0  0  0  0  0  0  0  0  0  0  0
  147.6059  138.2795  153.4991 H   0  0  0  0  0  0  0  0  0  0  0  0
  146.4209  140.3968  152.9480 H   0  0  0  0  0  0  0  0  0  0  0  0
  147.3721  142.5790  153.6723 H   0  0  0  0  0  0  0  0  0  0  0  0
  149.5006  142.6489  154.9447 H   0  0  0  0  0  0  0  0  0  0  0  0
  1  2  1  0  0  0  0
  1 25  1  0  0  0  0
  1 26  1  0  0  0  0
  1 27  1  0  0  0  0
  2  3  2  0  0  0  0
  2  4  1  0  0  0  0
  4  5  1  0  0  0  0
  4 28  1  0  0  0  0
  5  6  1  0  0  0  0
  5  7  1  0  0  0  0
  5 29  1  0  0  0  0
  6 30  1  0  0  0  0
  6 31  1  0  0  0  0
  6 32  1  0  0  0  0
  7 15  1  0  0  0  0
  7  8  2  0  0  0  0
  8  9  1  0  0  0  0
  9 14  2  0  0  0  0
  9 10  1  0  0  0  0
 10 11  2  0  0  0  0
 10 33  1  0  0  0  0
 11 12  1  0  0  0  0
 11 34  1  0  0  0  0
 12 13  2  0  0  0  0
 12 35  1  0  0  0  0
 13 14  1  0  0  0  0
 13 36  1  0  0  0  0
 14 15  1  0  0  0  0
 15 16  1  0  0  0  0
 16 17  1  0  0  0  0
 16 37  1  0  0  0  0
 16 38  1  0  0  0  0
 17 18  1  0  0  0  0
 17 19  1  0  0  0  0
 17 39  1  0  0  0  0
 18 40  1  0  0  0  0
 19 24  1  0  0  0  0
 19 20  2  0  0  0  0
 20 21  1  0  0  0  0
 20 41  1  0  0  0  0
 21 22  2  0  0  0  0
 21 42  1  0  0  0  0
 22 23  1  0  0  0  0
 22 43  1  0  0  0  0
 23 24  2  0  0  0  0
 23 44  1  0  0  0  0
 24 45  1  0  0  0  0
M  END
> <s_m_source_file>
AV-unprocessed.smi

> <i_m_source_file_index>
447

> <i_lp_mmshare_version>
43012

> <i_f3d_flags>
0

> <s_epik_input>
W0NIM11DKD1PKVtOSF1bQ0BIXShbQ0gzXSljKG4xKW4oYyhjMTIpW2NIXVtjSF1bY0hdW2NIXTIpW0NIMl1bQ0BIXShbT0hdKWMzW2NIXVtjSF1bY0hdW2NIXVtjSF0z

> <s_epik_cmdline>
J2VwaWtfcHl0aG9uJywgJy1waCcsICc3LjAnLCAnLXRuJywgJzgnLCAnLW1hJywgJzIwMCcsICctbWV0YWxfYmluZGluZycsICctaW1hZScsICc8aW5maWxlLm1hZT4nLCAnLW9tYWUnLCAnPG91dGZpbGUubWFlPic=

> <r_epik_Ionization_Penalty>
0.13301

> <r_epik_Ionization_Penalty_Charging>
0

> <r_epik_Ionization_Penalty_Neutral>
0.13301

> <r_epik_State_Penalty>
0.122384

> <r_epik_Charging_Adjusted_Penalty>
0.122384

> <i_epik_Tot_Q>
0

> <i_epik_Tot_abs_Q>
0

> <r_epik_Metal_State_Penalty>
0.0997374

> <b_epik_Metal_Only>
0

> <s_lp_Force_Field>
OPLS_2005

> <r_lp_Energy>
8.36794

> <b_lp_Chiralities_Consistent>
1

> <s_lp_Variant>
AV-unprocessed.smi:447-4

> <Gold.Version>
5.8.1

> <Gold.Id.Protein>
6NUR|6NUR_protein|mol2

> <Gold.PLP.Fitness>
55.5923

> <Gold.PLP.PLP>
-53.0258

> <Gold.PLP.part.hbond>
-2.0000

> <Gold.PLP.part.metal>
0.0000

> <Gold.PLP.part.buried>
-4.3199

> <Gold.PLP.part.nonpolar>
-47.1923

> <Gold.PLP.part.repulsive>
0.0704

> <Gold.PLP.ligand.clash>
0.0000

> <Gold.PLP.ligand.torsion>
1.0359

> <Gold.PLP.Chemscore.Hbond>
1.5152

> <Gold.PLP.Chemscore.CHOScore>
0.0000

> <Gold.PLP.Chemscore.Metal>
0.0000

> <Gold.Chemscore.Hbonds>
donor molecule, donor type, donor heavy atom, donor atom, acceptor molecule, acceptor atom, score
      P1  H  6896  6909       L1     3  1.00
      P1  H  7989  7998       L1    18  0.49

> <Gold.PLP.Chemscore.Internal.Correction>
0.0928

> <Gold.Rescore>
     Score         DG    S(hbond)    S(metal)    S(lipo)     H(rot)  DE(clash)    DE(int)     intcor
     18.40     -19.17       1.68        0.00     120.45       2.35       0.01       0.75       ----

> <Gold.Chemscore.Fitness>
18.4021

> <Gold.Chemscore.DG>
-19.1657

> <Gold.Chemscore.ZeroCoef>
-5.4800

> <Gold.Chemscore.Hbond>
1.6813

> <Gold.Chemscore.Metal>
0.0000

> <Gold.Chemscore.Lipo>
120.4540

> <Gold.Chemscore.Internal_Hbond>
0.0000

> <Gold.Chemscore.DEClash>
0.0089

> <Gold.Chemscore.DEInternal>
0.7547

> <Gold.Chemscore.Rot>
2.3528

> <Gold.Chemscore.Internal.Correction>
   9.000000E+99

> <Gold.Chemscore.Hbonds>
donor molecule, donor type, donor heavy atom, donor atom, acceptor molecule, acceptor atom, score
      P1  H  6896  6909       L1     3  0.99
      P1  H  7989  7998       L1    18  0.04

> <Gold.Chemscore.Hbond.Weighted>
-5.6157

> <Gold.Chemscore.Metal.Weighted>
-0.0000

> <Gold.Chemscore.Lipo.Weighted>
-14.0931

> <Gold.Chemscore.Internal_Hbond.Weighted>
0.0000

> <Gold.Chemscore.DEClash.Weighted>
0.0089

> <Gold.Chemscore.DEInternal.Weighted>
0.7547

> <Gold.Chemscore.Rot.Weighted>
6.0231

> <Gold.Chemscore.Internal.Correction.Weighted>
   9.000000E+99

> <Gold.Protein.RotatedTorsions>
[ 6907 6896 6895 6894 ] final  158.87 input  -60.11 | X-H torsion
[ 7974 7965 7964 7962 ] final  134.88 input  175.53 | X-H torsion
[ 8008 7997 7996 7995 ] final  137.29 input   59.86 | X-H torsion
[ 10167 10162 10161 10158 ] final   13.55 input  -65.29 | X-H torsion
[ 10718 10713 10712 10709 ] final  130.99 input   66.30 | X-H torsion
[ 10763 10752 10751 10750 ] final -176.37 input  -60.55 | X-H torsion
[ 11005 11000 10999 10996 ] final -143.38 input  -57.11 | X-H torsion

> <Gold.Protein.ActiveResidues>
 VAL166  LYS551  ARG553  GLY616  TRP617  ASP618  TYR619  PRO620  LYS621  CYS622 
 ASP623  PHE694  ASN695  SER759  ASP760  ASP761  ALA762  ILE779  LEU786  VAL792 
 PHE793  MET794  SER795  GLU796  ALA797  LYS798  CYS799  TRP800  GLU811  SER814 

> <Gold.Protein.RotatedAtoms>
  151.9941  133.3801  159.4155 H   0  0  0  0  0  0  0  0  0  0  0  0  # atno 6907 bound_to 6896
  150.6918  134.3905  159.5083 H   0  0  0  0  0  0  0  0  0  0  0  0  # atno 6908 bound_to 6896
  152.1643  134.8886  160.0590 H   0  0  0  0  0  0  0  0  0  0  0  0  # atno 6909 bound_to 6896
  144.9719  139.4597  143.5429 H   0  0  0  0  0  0  0  0  0  0  0  0  # atno 7974 bound_to 7965
  156.3002  140.2423  156.3885 H   0  0  0  0  0  0  0  0  0  0  0  0  # atno 8008 bound_to 7997
  154.8635  140.0419  157.1700 H   0  0  0  0  0  0  0  0  0  0  0  0  # atno 8009 bound_to 7997
  154.8871  140.2958  155.5396 H   0  0  0  0  0  0  0  0  0  0  0  0  # atno 8010 bound_to 7997
  140.5995  143.8634  150.6951 H   0  0  0  0  0  0  0  0  0  0  0  0  # atno 10167 bound_to 10162
  157.5010  131.1094  150.9427 H   0  0  0  0  0  0  0  0  0  0  0  0  # atno 10718 bound_to 10713
  154.5732  135.2829  155.0806 H   0  0  0  0  0  0  0  0  0  0  0  0  # atno 10763 bound_to 10752
  154.2171  135.6398  153.5137 H   0  0  0  0  0  0  0  0  0  0  0  0  # atno 10764 bound_to 10752
  153.0064  135.5505  154.6362 H   0  0  0  0  0  0  0  0  0  0  0  0  # atno 10765 bound_to 10752
  140.8131  134.2721  157.4932 H   0  0  0  0  0  0  0  0  0  0  0  0  # atno 11005 bound_to 11000
  146.3384  139.8936  142.8805 LP  0  0  0  0  0  0  0  0  0  0  0  0  # atno 17320 bound_to 7965
  145.2547  141.0056  143.3861 LP  0  0  0  0  0  0  0  0  0  0  0  0  # atno 17321 bound_to 7965
  140.2176  143.3834  152.1668 LP  0  0  0  0  0  0  0  0  0  0  0  0  # atno 17342 bound_to 10162
  139.5281  144.7127  151.5155 LP  0  0  0  0  0  0  0  0  0  0  0  0  # atno 17343 bound_to 10162
  157.0098  130.5632  149.5319 LP  0  0  0  0  0  0  0  0  0  0  0  0  # atno 17370 bound_to 10713
  156.0229  130.5323  150.8326 LP  0  0  0  0  0  0  0  0  0  0  0  0  # atno 17371 bound_to 10713
  139.8713  134.9494  156.4024 LP  0  0  0  0  0  0  0  0  0  0  0  0  # atno 17394 bound_to 11000
  140.9177  133.7667  155.9868 LP  0  0  0  0  0  0  0  0  0  0  0  0  # atno 17395 bound_to 11000

$$$$
