AV-unprocessed.smi:47|AV-procd|sdf|433|dock10
  -GOLD-   2262016303D 1   1.00000     0.00000
 Structure written by MMmdl.
 32 34  0  0  0  0  0  0  0  0  2 V2000
  146.4515  139.9281  153.1669 O   0  0  0  0  0  0  0  0  0  0  0  0
  147.3614  140.9630  153.4733 C   0  0  1  0  0  0  0  0  0  0  0  0
  146.8782  141.8328  154.6394 C   0  0  0  0  0  0  0  0  0  0  0  0
  148.0950  142.3256  155.3161 N   0  3  0  0  0  0  0  0  0  0  0  0
  149.2612  141.6194  154.7446 C   0  0  1  0  0  0  0  0  0  0  0  0
  150.1263  141.2635  155.9172 C   0  0  0  0  0  0  0  0  0  0  0  0
  150.5098  140.0040  156.1509 N   0  0  0  0  0  0  0  0  0  0  0  0
  151.2653  139.9619  157.2691 N   0  0  0  0  0  0  0  0  0  0  0  0
  151.2733  141.2422  157.6361 C   0  0  0  0  0  0  0  0  0  0  0  0
  151.9943  141.7032  158.8458 C   0  0  0  0  0  0  0  0  0  0  0  0
  152.7809  140.8086  159.6121 C   0  0  0  0  0  0  0  0  0  0  0  0
  153.4674  141.2427  160.7628 C   0  0  0  0  0  0  0  0  0  0  0  0
  153.3798  142.5853  161.1708 C   0  0  0  0  0  0  0  0  0  0  0  0
  152.6047  143.4900  160.4240 C   0  0  0  0  0  0  0  0  0  0  0  0
  151.9200  143.0513  159.2741 C   0  0  0  0  0  0  0  0  0  0  0  0
  150.5815  142.1114  156.8384 N   0  0  0  0  0  0  0  0  0  0  0  0
  148.6997  140.4249  153.9699 C   0  0  0  0  0  0  0  0  0  0  0  0
  147.5190  141.5833  152.5897 H   0  0  0  0  0  0  0  0  0  0  0  0
  149.7867  142.2997  154.0727 H   0  0  0  0  0  0  0  0  0  0  0  0
  145.5827  140.2954  153.1036 H   0  0  0  0  0  0  0  0  0  0  0  0
  146.2392  142.6529  154.3114 H   0  0  0  0  0  0  0  0  0  0  0  0
  146.3166  141.2362  155.3601 H   0  0  0  0  0  0  0  0  0  0  0  0
  148.1987  143.3217  155.1869 H   0  0  0  0  0  0  0  0  0  0  0  0
  152.8687  139.7716  159.3236 H   0  0  0  0  0  0  0  0  0  0  0  0
  154.0621  140.5438  161.3324 H   0  0  0  0  0  0  0  0  0  0  0  0
  153.9056  142.9203  162.0529 H   0  0  0  0  0  0  0  0  0  0  0  0
  152.5343  144.5226  160.7324 H   0  0  0  0  0  0  0  0  0  0  0  0
  151.3323  143.7695  158.7215 H   0  0  0  0  0  0  0  0  0  0  0  0
  148.5256  139.5868  154.6480 H   0  0  0  0  0  0  0  0  0  0  0  0
  149.3591  140.0809  153.1726 H   0  0  0  0  0  0  0  0  0  0  0  0
  148.0296  142.1141  156.3020 H   0  0  0  0  0  0  0  0  0  0  0  0
  150.2905  139.1822  155.6054 H   0  0  0  0  0  0  0  0  0  0  0  0
  1  2  1  0  0  0  0
  1 20  1  0  0  0  0
  2 18  1  0  0  0  0
  2 17  1  0  0  0  0
  2  3  1  0  0  0  0
  3  4  1  0  0  0  0
  3 21  1  0  0  0  0
  3 22  1  0  0  0  0
  4  5  1  0  0  0  0
  4 23  1  0  0  0  0
  4 31  1  0  0  0  0
  5 19  1  0  0  0  0
  5  6  1  0  0  0  0
  5 17  1  0  0  0  0
  6 16  2  0  0  0  0
  6  7  1  0  0  0  0
  7  8  1  0  0  0  0
  7 32  1  0  0  0  0
  8  9  2  0  0  0  0
  9 10  1  0  0  0  0
  9 16  1  0  0  0  0
 10 15  1  0  0  0  0
 10 11  2  0  0  0  0
 11 12  1  0  0  0  0
 11 24  1  0  0  0  0
 12 13  2  0  0  0  0
 12 25  1  0  0  0  0
 13 14  1  0  0  0  0
 13 26  1  0  0  0  0
 14 15  2  0  0  0  0
 14 27  1  0  0  0  0
 15 28  1  0  0  0  0
 17 29  1  0  0  0  0
 17 30  1  0  0  0  0
M  CHG  1   4   1
M  END
> <s_m_source_file>
AV-unprocessed.smi

> <i_m_source_file_index>
47

> <i_lp_mmshare_version>
43012

> <i_f3d_flags>
0

> <s_epik_input>
W09IXVtDQEhdMVtDSDJdW05IXVtDQEBIXShbQ0gyXTEpYzJuW25IXWMobjIpLWMzW2NIXVtjSF1bY0hdW2NIXVtjSF0z

> <s_epik_cmdline>
J2VwaWtfcHl0aG9uJywgJy1waCcsICc3LjAnLCAnLXRuJywgJzgnLCAnLW1hJywgJzIwMCcsICctbWV0YWxfYmluZGluZycsICctaW1hZScsICc8aW5maWxlLm1hZT4nLCAnLW9tYWUnLCAnPG91dGZpbGUubWFlPic=

> <r_epik_Ionization_Penalty>
1.14296

> <r_epik_Ionization_Penalty_Charging>
0.0688988

> <r_epik_Ionization_Penalty_Neutral>
1.07406

> <r_epik_State_Penalty>
1.72347

> <r_epik_Charging_Adjusted_Penalty>
1.79237

> <i_epik_Tot_Q>
1

> <i_epik_Tot_abs_Q>
1

> <r_epik_Metal_State_Penalty>
2.22085

> <b_epik_Metal_Only>
0

> <s_lp_Force_Field>
OPLS_2005

> <r_lp_Energy>
30.8137

> <b_lp_Chiralities_Consistent>
1

> <s_lp_Variant>
AV-unprocessed.smi:47-11

> <Gold.Version>
5.8.1

> <Gold.Id.Protein>
6NUR|6NUR_protein|mol2

> <Gold.PLP.Fitness>
44.9108

> <Gold.PLP.PLP>
-36.1223

> <Gold.PLP.part.hbond>
-2.0000

> <Gold.PLP.part.metal>
0.0000

> <Gold.PLP.part.buried>
-3.6308

> <Gold.PLP.part.nonpolar>
-30.9022

> <Gold.PLP.part.repulsive>
0.2925

> <Gold.PLP.ligand.clash>
0.0000

> <Gold.PLP.ligand.torsion>
0.1124

> <Gold.PLP.Chemscore.Hbond>
3.0000

> <Gold.PLP.Chemscore.CHOScore>
0.0000

> <Gold.PLP.Chemscore.Metal>
0.0000

> <Gold.Chemscore.Hbonds>
donor molecule, donor type, donor heavy atom, donor atom, acceptor molecule, acceptor atom, score
      L1  H     1    20       P1 10175  1.00
      L1  H     4    23       P1  8028  2.00

> <Gold.PLP.Chemscore.Internal.Correction>
0.0133

> <Gold.Rescore>
     Score         DG    S(hbond)    S(metal)    S(lipo)     H(rot)  DE(clash)    DE(int)     intcor
     17.82     -18.05       1.77        0.00      89.56       1.50       0.00       0.23       ----

> <Gold.Chemscore.Fitness>
17.8225

> <Gold.Chemscore.DG>
-18.0515

> <Gold.Chemscore.ZeroCoef>
-5.4800

> <Gold.Chemscore.Hbond>
1.7737

> <Gold.Chemscore.Metal>
0.0000

> <Gold.Chemscore.Lipo>
89.5610

> <Gold.Chemscore.Internal_Hbond>
0.0000

> <Gold.Chemscore.DEClash>
0.0030

> <Gold.Chemscore.DEInternal>
0.2260

> <Gold.Chemscore.Rot>
1.4966

> <Gold.Chemscore.Internal.Correction>
   9.000000E+99

> <Gold.Chemscore.Hbonds>
donor molecule, donor type, donor heavy atom, donor atom, acceptor molecule, acceptor atom, score
      L1  H     1    20       P1 10175  0.92
      L1  H     4    23       P1  8028  0.86

> <Gold.Chemscore.Hbond.Weighted>
-5.9241

> <Gold.Chemscore.Metal.Weighted>
-0.0000

> <Gold.Chemscore.Lipo.Weighted>
-10.4786

> <Gold.Chemscore.Internal_Hbond.Weighted>
0.0000

> <Gold.Chemscore.DEClash.Weighted>
0.0030

> <Gold.Chemscore.DEInternal.Weighted>
0.2260

> <Gold.Chemscore.Rot.Weighted>
3.8312

> <Gold.Chemscore.Internal.Correction.Weighted>
   9.000000E+99

> <Gold.Protein.RotatedTorsions>
[ 6907 6896 6895 6894 ] final   85.40 input  -60.11 | X-H torsion
[ 7974 7965 7964 7962 ] final -153.28 input  175.53 | X-H torsion
[ 8008 7997 7996 7995 ] final  -83.84 input   59.86 | X-H torsion
[ 10167 10162 10161 10158 ] final   12.76 input  -65.29 | X-H torsion
[ 10718 10713 10712 10709 ] final -113.12 input   66.30 | X-H torsion
[ 10763 10752 10751 10750 ] final   -2.85 input  -60.55 | X-H torsion
[ 11005 11000 10999 10996 ] final   80.64 input  -57.11 | X-H torsion

> <Gold.Protein.ActiveResidues>
 VAL166  LYS551  ARG553  GLY616  TRP617  ASP618  TYR619  PRO620  LYS621  CYS622 
 ASP623  PHE694  ASN695  SER759  ASP760  ASP761  ALA762  ILE779  LEU786  VAL792 
 PHE793  MET794  SER795  GLU796  ALA797  LYS798  CYS799  TRP800  GLU811  SER814 

> <Gold.Protein.RotatedAtoms>
  152.5374  134.2592  159.8928 H   0  0  0  0  0  0  0  0  0  0  0  0  # atno 6907 bound_to 6896
  151.2552  133.4323  159.2621 H   0  0  0  0  0  0  0  0  0  0  0  0  # atno 6908 bound_to 6896
  151.0502  134.9682  159.8264 H   0  0  0  0  0  0  0  0  0  0  0  0  # atno 6909 bound_to 6896
  144.7749  140.4547  143.5881 H   0  0  0  0  0  0  0  0  0  0  0  0  # atno 7974 bound_to 7965
  154.6234  140.0613  156.9643 H   0  0  0  0  0  0  0  0  0  0  0  0  # atno 8008 bound_to 7997
  155.1780  140.3297  155.4362 H   0  0  0  0  0  0  0  0  0  0  0  0  # atno 8009 bound_to 7997
  156.2444  140.1902  156.6878 H   0  0  0  0  0  0  0  0  0  0  0  0  # atno 8010 bound_to 7997
  140.6047  143.8533  150.7001 H   0  0  0  0  0  0  0  0  0  0  0  0  # atno 10167 bound_to 10162
  156.0747  130.5956  150.8600 H   0  0  0  0  0  0  0  0  0  0  0  0  # atno 10718 bound_to 10713
  153.3634  135.6991  153.6694 H   0  0  0  0  0  0  0  0  0  0  0  0  # atno 10763 bound_to 10752
  153.5373  135.3580  155.2703 H   0  0  0  0  0  0  0  0  0  0  0  0  # atno 10764 bound_to 10752
  154.8671  135.4195  154.2897 H   0  0  0  0  0  0  0  0  0  0  0  0  # atno 10765 bound_to 10752
  139.9127  134.7936  156.1936 H   0  0  0  0  0  0  0  0  0  0  0  0  # atno 11005 bound_to 11000
  145.6215  139.1525  143.3019 LP  0  0  0  0  0  0  0  0  0  0  0  0  # atno 17320 bound_to 7965
  146.1921  140.6325  142.9140 LP  0  0  0  0  0  0  0  0  0  0  0  0  # atno 17321 bound_to 7965
  140.2087  143.3901  152.1735 LP  0  0  0  0  0  0  0  0  0  0  0  0  # atno 17342 bound_to 10162
  139.5316  144.7165  151.5036 LP  0  0  0  0  0  0  0  0  0  0  0  0  # atno 17343 bound_to 10162
  157.5837  131.0946  150.9231 LP  0  0  0  0  0  0  0  0  0  0  0  0  # atno 17370 bound_to 10713
  156.9421  130.5388  149.5280 LP  0  0  0  0  0  0  0  0  0  0  0  0  # atno 17371 bound_to 10713
  141.0568  133.6861  156.1876 LP  0  0  0  0  0  0  0  0  0  0  0  0  # atno 17394 bound_to 11000
  140.6724  134.4854  157.5587 LP  0  0  0  0  0  0  0  0  0  0  0  0  # atno 17395 bound_to 11000

$$$$
