AV-unprocessed.smi:956|AV-procd|sdf|4263|dock10
  -GOLD-   22720 2173D 1   1.00000     0.00000
 Structure written by MMmdl.
 42 43  0  0  0  0  0  0  0  0  1 V2000
  155.4060  133.2500  158.2113 C   0  0  0  0  0  0  0  0  0  0  0  0
  154.3855  134.7731  157.9274 S   0  0  2  0  0  0  0  0  0  0  0  0
  155.0403  135.5468  156.7816 O   0  0  0  0  0  0  0  0  0  0  0  0
  154.9450  135.6387  159.4371 C   0  0  0  0  0  0  0  0  0  0  0  0
  156.0145  135.2741  160.1509 N   0  0  0  0  0  0  0  0  0  0  0  0
  156.0684  136.1742  161.1980 N   0  0  0  0  0  0  0  0  0  0  0  0
  155.0298  136.9879  160.9989 C   0  0  0  0  0  0  0  0  0  0  0  0
  154.2837  136.7087  159.9176 N   0  0  0  0  0  0  0  0  0  0  0  0
  153.0828  137.3798  159.4466 C   0  0  0  0  0  0  0  0  0  0  0  0
  153.3701  138.8616  159.2135 C   0  0  0  0  0  0  0  0  0  0  0  0
  153.4462  139.2974  158.0656 O   0  0  0  0  0  0  0  0  0  0  0  0
  153.5811  139.6053  160.3110 N   0  0  0  0  0  0  0  0  0  0  0  0
  154.1394  140.9534  160.3225 C   0  0  0  0  0  0  0  0  0  0  0  0
  153.1310  141.9688  160.8973 C   0  0  0  0  0  0  0  0  0  0  0  0
  152.9313  143.2547  160.0614 C   0  0  0  0  0  0  0  0  0  0  0  0
  151.9653  144.2311  160.7613 C   0  0  0  0  0  0  0  0  0  0  0  0
  151.8132  145.5363  159.9638 C   0  0  0  0  0  0  0  0  0  0  0  0
  151.3418  145.2566  158.5288 C   0  0  0  0  0  0  0  0  0  0  0  0
  152.2786  144.2669  157.8196 C   0  0  0  0  0  0  0  0  0  0  0  0
  152.4378  142.9685  158.6275 C   0  0  0  0  0  0  0  0  0  0  0  0
  155.7168  133.1671  159.2512 H   0  0  0  0  0  0  0  0  0  0  0  0
  156.2989  133.2735  157.5869 H   0  0  0  0  0  0  0  0  0  0  0  0
  154.8290  132.3616  157.9563 H   0  0  0  0  0  0  0  0  0  0  0  0
  154.7990  137.8033  161.6688 H   0  0  0  0  0  0  0  0  0  0  0  0
  152.7604  136.9097  158.5167 H   0  0  0  0  0  0  0  0  0  0  0  0
  152.2741  137.2555  160.1668 H   0  0  0  0  0  0  0  0  0  0  0  0
  153.4680  139.1586  161.2093 H   0  0  0  0  0  0  0  0  0  0  0  0
  155.0772  140.9976  160.8777 H   0  0  0  0  0  0  0  0  0  0  0  0
  154.3865  141.2270  159.2966 H   0  0  0  0  0  0  0  0  0  0  0  0
  152.1695  141.4747  161.0411 H   0  0  0  0  0  0  0  0  0  0  0  0
  153.4693  142.2504  161.8953 H   0  0  0  0  0  0  0  0  0  0  0  0
  153.8897  143.7676  159.9860 H   0  0  0  0  0  0  0  0  0  0  0  0
  150.9884  143.7611  160.8831 H   0  0  0  0  0  0  0  0  0  0  0  0
  152.3233  144.4614  161.7651 H   0  0  0  0  0  0  0  0  0  0  0  0
  151.1065  146.1983  160.4649 H   0  0  0  0  0  0  0  0  0  0  0  0
  152.7681  146.0636  159.9401 H   0  0  0  0  0  0  0  0  0  0  0  0
  150.3302  144.8494  158.5505 H   0  0  0  0  0  0  0  0  0  0  0  0
  151.2892  146.1888  157.9658 H   0  0  0  0  0  0  0  0  0  0  0  0
  151.8949  144.0404  156.8243 H   0  0  0  0  0  0  0  0  0  0  0  0
  153.2564  144.7286  157.6756 H   0  0  0  0  0  0  0  0  0  0  0  0
  153.1342  142.3126  158.1063 H   0  0  0  0  0  0  0  0  0  0  0  0
  151.4846  142.4395  158.6633 H   0  0  0  0  0  0  0  0  0  0  0  0
  1  2  1  0  0  0  0
  1 21  1  0  0  0  0
  1 22  1  0  0  0  0
  1 23  1  0  0  0  0
  2  3  2  0  0  0  0
  2  4  1  0  0  0  0
  4  8  1  0  0  0  0
  4  5  2  0  0  0  0
  5  6  1  0  0  0  0
  6  7  2  0  0  0  0
  7  8  1  0  0  0  0
  7 24  1  0  0  0  0
  8  9  1  0  0  0  0
  9 10  1  0  0  0  0
  9 25  1  0  0  0  0
  9 26  1  0  0  0  0
 10 11  2  0  0  0  0
 10 12  1  0  0  0  0
 12 13  1  0  0  0  0
 12 27  1  0  0  0  0
 13 14  1  0  0  0  0
 13 28  1  0  0  0  0
 13 29  1  0  0  0  0
 14 15  1  0  0  0  0
 14 30  1  0  0  0  0
 14 31  1  0  0  0  0
 15 20  1  0  0  0  0
 15 16  1  0  0  0  0
 15 32  1  0  0  0  0
 16 17  1  0  0  0  0
 16 33  1  0  0  0  0
 16 34  1  0  0  0  0
 17 18  1  0  0  0  0
 17 35  1  0  0  0  0
 17 36  1  0  0  0  0
 18 19  1  0  0  0  0
 18 37  1  0  0  0  0
 18 38  1  0  0  0  0
 19 20  1  0  0  0  0
 19 39  1  0  0  0  0
 19 40  1  0  0  0  0
 20 41  1  0  0  0  0
 20 42  1  0  0  0  0
M  END
> <s_m_source_file>
AV-unprocessed.smi

> <i_m_source_file_index>
956

> <i_lp_mmshare_version>
43012

> <i_f3d_flags>
0

> <s_epik_input>
W0NIM11bU0BdKD1PKWMxbm5bY0hdbjFbQ0gyXUMoPU8pW05IXVtDSDJdW0NIMl1bQ0hdMltDSDJdW0NIMl1bQ0gyXVtDSDJdW0NIMl0y

> <s_epik_cmdline>
J2VwaWtfcHl0aG9uJywgJy1waCcsICc3LjAnLCAnLXRuJywgJzgnLCAnLW1hJywgJzIwMCcsICctbWV0YWxfYmluZGluZycsICctaW1hZScsICc8aW5maWxlLm1hZT4nLCAnLW9tYWUnLCAnPG91dGZpbGUubWFlPic=

> <r_lp_tautomer_probability>
1

> <r_epik_Ionization_Penalty>
7.32521e-08

> <r_epik_Ionization_Penalty_Charging>
0

> <r_epik_Ionization_Penalty_Neutral>
7.32521e-08

> <r_epik_State_Penalty>
-0

> <r_epik_Charging_Adjusted_Penalty>
0

> <i_epik_Tot_Q>
0

> <i_epik_Tot_abs_Q>
0

> <r_epik_Metal_State_Penalty>
-0

> <b_epik_Metal_Only>
0

> <s_lp_Force_Field>
OPLS_2005

> <r_lp_Energy>
8.17766

> <b_lp_Chiralities_Consistent>
1

> <s_lp_Variant>
AV-unprocessed.smi:956-1

> <Gold.Version>
5.8.1

> <Gold.Id.Protein>
6NUR|6NUR_protein|mol2

> <Gold.PLP.Fitness>
44.9875

> <Gold.PLP.PLP>
-40.4155

> <Gold.PLP.part.hbond>
-2.0000

> <Gold.PLP.part.metal>
0.0000

> <Gold.PLP.part.buried>
-4.4274

> <Gold.PLP.part.nonpolar>
-33.7074

> <Gold.PLP.part.repulsive>
0.0590

> <Gold.PLP.ligand.clash>
0.0000

> <Gold.PLP.ligand.torsion>
1.2734

> <Gold.PLP.Chemscore.Hbond>
2.0000

> <Gold.PLP.Chemscore.CHOScore>
0.0000

> <Gold.PLP.Chemscore.Metal>
0.0000

> <Gold.Chemscore.Hbonds>
donor molecule, donor type, donor heavy atom, donor atom, acceptor molecule, acceptor atom, score
      P1  H  7997  8010       L1    11  0.99
      P1  H 10752 10765       L1     3  1.00

> <Gold.PLP.Chemscore.Internal.Correction>
1.1187

> <Gold.Rescore>
     Score         DG    S(hbond)    S(metal)    S(lipo)     H(rot)  DE(clash)    DE(int)     intcor
     17.10     -18.60       2.00        0.00     104.51       2.26       0.00       1.50       ----

> <Gold.Chemscore.Fitness>
17.0982

> <Gold.Chemscore.DG>
-18.6015

> <Gold.Chemscore.ZeroCoef>
-5.4800

> <Gold.Chemscore.Hbond>
1.9963

> <Gold.Chemscore.Metal>
0.0000

> <Gold.Chemscore.Lipo>
104.5087

> <Gold.Chemscore.Internal_Hbond>
0.0000

> <Gold.Chemscore.DEClash>
0.0004

> <Gold.Chemscore.DEInternal>
1.5028

> <Gold.Chemscore.Rot>
2.2554

> <Gold.Chemscore.Internal.Correction>
   9.000000E+99

> <Gold.Chemscore.Hbonds>
donor molecule, donor type, donor heavy atom, donor atom, acceptor molecule, acceptor atom, score
      P1  H  7997  8010       L1    11  0.94
      P1  H 10752 10765       L1     3  0.85

> <Gold.Chemscore.Hbond.Weighted>
-6.6678

> <Gold.Chemscore.Metal.Weighted>
-0.0000

> <Gold.Chemscore.Lipo.Weighted>
-12.2275

> <Gold.Chemscore.Internal_Hbond.Weighted>
0.0000

> <Gold.Chemscore.DEClash.Weighted>
0.0004

> <Gold.Chemscore.DEInternal.Weighted>
1.5028

> <Gold.Chemscore.Rot.Weighted>
5.7738

> <Gold.Chemscore.Internal.Correction.Weighted>
   9.000000E+99

> <Gold.Protein.RotatedTorsions>
[ 6907 6896 6895 6894 ] final  135.51 input  -60.11 | X-H torsion
[ 7974 7965 7964 7962 ] final -146.26 input  175.53 | X-H torsion
[ 8008 7997 7996 7995 ] final   12.34 input   59.86 | X-H torsion
[ 10167 10162 10161 10158 ] final   34.54 input  -65.29 | X-H torsion
[ 10718 10713 10712 10709 ] final  -51.82 input   66.30 | X-H torsion
[ 10763 10752 10751 10750 ] final  -78.30 input  -60.55 | X-H torsion
[ 11005 11000 10999 10996 ] final  -58.81 input  -57.11 | X-H torsion

> <Gold.Protein.ActiveResidues>
 VAL166  LYS551  ARG553  GLY616  TRP617  ASP618  TYR619  PRO620  LYS621  CYS622 
 ASP623  PHE694  ASN695  SER759  ASP760  ASP761  ALA762  ILE779  LEU786  VAL792 
 PHE793  MET794  SER795  GLU796  ALA797  LYS798  CYS799  TRP800  GLU811  SER814 

> <Gold.Protein.RotatedAtoms>
  152.2996  133.5642  159.5609 H   0  0  0  0  0  0  0  0  0  0  0  0  # atno 6907 bound_to 6896
  150.7272  134.0310  159.3742 H   0  0  0  0  0  0  0  0  0  0  0  0  # atno 6908 bound_to 6896
  151.8211  135.0652  160.0476 H   0  0  0  0  0  0  0  0  0  0  0  0  # atno 6909 bound_to 6896
  144.8171  140.5478  143.5603 H   0  0  0  0  0  0  0  0  0  0  0  0  # atno 7974 bound_to 7965
  154.8192  140.2881  155.5798 H   0  0  0  0  0  0  0  0  0  0  0  0  # atno 8008 bound_to 7997
  156.2996  140.2553  156.3026 H   0  0  0  0  0  0  0  0  0  0  0  0  # atno 8009 bound_to 7997
  154.9358  140.0382  157.2061 H   0  0  0  0  0  0  0  0  0  0  0  0  # atno 8010 bound_to 7997
  140.4305  144.1331  150.6159 H   0  0  0  0  0  0  0  0  0  0  0  0  # atno 10167 bound_to 10162
  156.1676  130.4149  149.9697 H   0  0  0  0  0  0  0  0  0  0  0  0  # atno 10718 bound_to 10713
  154.5242  135.5734  153.6705 H   0  0  0  0  0  0  0  0  0  0  0  0  # atno 10763 bound_to 10752
  152.9924  135.6189  154.2715 H   0  0  0  0  0  0  0  0  0  0  0  0  # atno 10764 bound_to 10752
  154.2637  135.2855  155.2747 H   0  0  0  0  0  0  0  0  0  0  0  0  # atno 10765 bound_to 10752
  141.1222  133.6613  156.4976 H   0  0  0  0  0  0  0  0  0  0  0  0  # atno 11005 bound_to 11000
  145.5189  139.1477  143.3563 LP  0  0  0  0  0  0  0  0  0  0  0  0  # atno 17320 bound_to 7965
  146.2475  140.5330  142.8908 LP  0  0  0  0  0  0  0  0  0  0  0  0  # atno 17321 bound_to 7965
  140.4432  143.2517  151.9445 LP  0  0  0  0  0  0  0  0  0  0  0  0  # atno 17342 bound_to 10162
  139.4785  144.5634  151.8203 LP  0  0  0  0  0  0  0  0  0  0  0  0  # atno 17343 bound_to 10162
  156.7507  130.9114  151.3637 LP  0  0  0  0  0  0  0  0  0  0  0  0  # atno 17370 bound_to 10713
  157.6779  130.9112  150.0195 LP  0  0  0  0  0  0  0  0  0  0  0  0  # atno 17371 bound_to 10713
  140.4472  134.6962  157.5021 LP  0  0  0  0  0  0  0  0  0  0  0  0  # atno 17394 bound_to 11000
  140.0190  134.6576  155.9268 LP  0  0  0  0  0  0  0  0  0  0  0  0  # atno 17395 bound_to 11000

$$$$
