AV-unprocessed.smi:422|AV-procd|sdf|2536|dock3
  -GOLD-   2262022493D 1   1.00000     0.00000
 Structure written by MMmdl.
 43 45  0  0  0  0  0  0  0  0  1 V2000
  141.6185  134.3526  152.9615 C   0  0  0  0  0  0  0  0  0  0  0  0
  143.0106  134.5832  152.5954 N   0  0  0  0  0  0  0  0  0  0  0  0
  143.8057  135.5955  153.0146 C   0  0  0  0  0  0  0  0  0  0  0  0
  143.4856  136.4970  153.7891 O   0  0  0  0  0  0  0  0  0  0  0  0
  145.0236  135.4334  152.4470 N   0  0  0  0  0  0  0  0  0  0  0  0
  146.1930  136.2852  152.6446 C   0  0  0  0  0  0  0  0  0  0  0  0
  145.8857  137.7555  152.2856 C   0  0  2  0  0  0  0  0  0  0  0  0
  146.5775  138.0897  151.0998 O   0  0  0  0  0  0  0  0  0  0  0  0
  146.3436  138.7299  153.3809 C   0  0  0  0  0  0  0  0  0  0  0  0
  147.7607  138.7211  153.4175 O   0  0  0  0  0  0  0  0  0  0  0  0
  148.3114  139.8103  154.1360 C   0  0  0  0  0  0  0  0  0  0  0  0
  149.7553  139.5403  154.5112 C   0  0  0  0  0  0  0  0  0  0  0  0
  150.3859  138.3471  154.0992 C   0  0  0  0  0  0  0  0  0  0  0  0
  151.7292  138.1006  154.4441 C   0  0  0  0  0  0  0  0  0  0  0  0
  152.4464  139.0447  155.2039 C   0  0  0  0  0  0  0  0  0  0  0  0
  151.8193  140.2346  155.6207 C   0  0  0  0  0  0  0  0  0  0  0  0
  150.4758  140.4825  155.2775 C   0  0  0  0  0  0  0  0  0  0  0  0
  149.8812  141.6291  155.6864 F   0  0  0  0  0  0  0  0  0  0  0  0
  145.0165  134.2686  151.6658 C   0  0  0  0  0  0  0  0  0  0  0  0
  146.0276  133.6555  150.9054 C   0  0  0  0  0  0  0  0  0  0  0  0
  145.6921  132.4609  150.2267 C   0  0  0  0  0  0  0  0  0  0  0  0
  144.3853  131.9146  150.3196 C   0  0  0  0  0  0  0  0  0  0  0  0
  143.3870  132.5508  151.0945 C   0  0  0  0  0  0  0  0  0  0  0  0
  143.7481  133.7359  151.7581 C   0  0  0  0  0  0  0  0  0  0  0  0
  141.1809  135.2143  153.4676 H   0  0  0  0  0  0  0  0  0  0  0  0
  141.5438  133.4930  153.6279 H   0  0  0  0  0  0  0  0  0  0  0  0
  141.0209  134.1495  152.0725 H   0  0  0  0  0  0  0  0  0  0  0  0
  146.4883  136.2036  153.6914 H   0  0  0  0  0  0  0  0  0  0  0  0
  147.0472  135.9054  152.0809 H   0  0  0  0  0  0  0  0  0  0  0  0
  144.8185  137.9019  152.1111 H   0  0  0  0  0  0  0  0  0  0  0  0
  145.9521  138.4141  150.4695 H   0  0  0  0  0  0  0  0  0  0  0  0
  145.9664  139.7345  153.1822 H   0  0  0  0  0  0  0  0  0  0  0  0
  145.9582  138.4183  154.3532 H   0  0  0  0  0  0  0  0  0  0  0  0
  148.2751  140.7161  153.5290 H   0  0  0  0  0  0  0  0  0  0  0  0
  147.7204  139.9991  155.0333 H   0  0  0  0  0  0  0  0  0  0  0  0
  149.8438  137.6180  153.5149 H   0  0  0  0  0  0  0  0  0  0  0  0
  152.2094  137.1872  154.1253 H   0  0  0  0  0  0  0  0  0  0  0  0
  153.4764  138.8558  155.4681 H   0  0  0  0  0  0  0  0  0  0  0  0
  152.3689  140.9577  156.2049 H   0  0  0  0  0  0  0  0  0  0  0  0
  147.0208  134.0725  150.8400 H   0  0  0  0  0  0  0  0  0  0  0  0
  146.4405  131.9584  149.6316 H   0  0  0  0  0  0  0  0  0  0  0  0
  144.1506  131.0011  149.7939 H   0  0  0  0  0  0  0  0  0  0  0  0
  142.3915  132.1394  151.1730 H   0  0  0  0  0  0  0  0  0  0  0  0
  1  2  1  0  0  0  0
  1 25  1  0  0  0  0
  1 26  1  0  0  0  0
  1 27  1  0  0  0  0
  2 24  1  0  0  0  0
  2  3  1  0  0  0  0
  3  4  2  0  0  0  0
  3  5  1  0  0  0  0
  5  6  1  0  0  0  0
  5 19  1  0  0  0  0
  6  7  1  0  0  0  0
  6 28  1  0  0  0  0
  6 29  1  0  0  0  0
  7  8  1  0  0  0  0
  7  9  1  0  0  0  0
  7 30  1  0  0  0  0
  8 31  1  0  0  0  0
  9 10  1  0  0  0  0
  9 32  1  0  0  0  0
  9 33  1  0  0  0  0
 10 11  1  0  0  0  0
 11 12  1  0  0  0  0
 11 34  1  0  0  0  0
 11 35  1  0  0  0  0
 12 17  1  0  0  0  0
 12 13  2  0  0  0  0
 13 14  1  0  0  0  0
 13 36  1  0  0  0  0
 14 15  2  0  0  0  0
 14 37  1  0  0  0  0
 15 16  1  0  0  0  0
 15 38  1  0  0  0  0
 16 17  2  0  0  0  0
 16 39  1  0  0  0  0
 17 18  1  0  0  0  0
 19 24  2  0  0  0  0
 19 20  1  0  0  0  0
 20 21  2  0  0  0  0
 20 40  1  0  0  0  0
 21 22  1  0  0  0  0
 21 41  1  0  0  0  0
 22 23  2  0  0  0  0
 22 42  1  0  0  0  0
 23 24  1  0  0  0  0
 23 43  1  0  0  0  0
M  END
> <s_m_source_file>
AV-unprocessed.smi

> <i_m_source_file_index>
422

> <i_lp_mmshare_version>
43012

> <i_f3d_flags>
0

> <s_epik_input>
W2NIXTFbY0hdW2NIXVtjSF1jKGMxMiluKFtDSDNdKWMoPU8pbjJbQ0gyXVtDQEhdKFtPSF0pW0NIMl1PW0NIMl1jM1tjSF1bY0hdW2NIXVtjSF1jM0Y=

> <s_epik_cmdline>
J2VwaWtfcHl0aG9uJywgJy1waCcsICc3LjAnLCAnLXRuJywgJzgnLCAnLW1hJywgJzIwMCcsICctbWV0YWxfYmluZGluZycsICctaW1hZScsICc8aW5maWxlLm1hZT4nLCAnLW9tYWUnLCAnPG91dGZpbGUubWFlPic=

> <r_lp_tautomer_probability>
1

> <r_epik_Ionization_Penalty>
1.0795e-06

> <r_epik_Ionization_Penalty_Charging>
2.82452e-09

> <r_epik_Ionization_Penalty_Neutral>
1.07667e-06

> <r_epik_State_Penalty>
-0

> <r_epik_Charging_Adjusted_Penalty>
2.82452e-09

> <i_epik_Tot_Q>
0

> <i_epik_Tot_abs_Q>
0

> <r_epik_Metal_State_Penalty>
-0

> <b_epik_Metal_Only>
0

> <s_lp_Force_Field>
OPLS_2005

> <r_lp_Energy>
45.4687

> <b_lp_Chiralities_Consistent>
1

> <s_lp_Variant>
AV-unprocessed.smi:422-1

> <Gold.Version>
5.8.1

> <Gold.Id.Protein>
6NUR|6NUR_protein|mol2

> <Gold.PLP.Fitness>
53.7797

> <Gold.PLP.PLP>
-50.2887

> <Gold.PLP.part.hbond>
-2.7355

> <Gold.PLP.part.metal>
0.0000

> <Gold.PLP.part.buried>
-3.9434

> <Gold.PLP.part.nonpolar>
-46.2929

> <Gold.PLP.part.repulsive>
0.2939

> <Gold.PLP.ligand.clash>
0.0000

> <Gold.PLP.ligand.torsion>
0.8858

> <Gold.PLP.Chemscore.Hbond>
1.6988

> <Gold.PLP.Chemscore.CHOScore>
0.0000

> <Gold.PLP.Chemscore.Metal>
0.0000

> <Gold.Chemscore.Hbonds>
donor molecule, donor type, donor heavy atom, donor atom, acceptor molecule, acceptor atom, score
      L1  H     8    31       P1 10171  0.65
      P1  H  7954  7966       L1     8  0.95

> <Gold.PLP.Chemscore.Internal.Correction>
0.1664

> <Gold.Rescore>
     Score         DG    S(hbond)    S(metal)    S(lipo)     H(rot)  DE(clash)    DE(int)     intcor
     16.75     -18.22       1.31        0.00     123.70       2.38       0.65       0.83       ----

> <Gold.Chemscore.Fitness>
16.7466

> <Gold.Chemscore.DG>
-18.2238

> <Gold.Chemscore.ZeroCoef>
-5.4800

> <Gold.Chemscore.Hbond>
1.3072

> <Gold.Chemscore.Metal>
0.0000

> <Gold.Chemscore.Lipo>
123.7000

> <Gold.Chemscore.Internal_Hbond>
0.0000

> <Gold.Chemscore.DEClash>
0.6470

> <Gold.Chemscore.DEInternal>
0.8302

> <Gold.Chemscore.Rot>
2.3809

> <Gold.Chemscore.Internal.Correction>
   9.000000E+99

> <Gold.Chemscore.Hbonds>
donor molecule, donor type, donor heavy atom, donor atom, acceptor molecule, acceptor atom, score
      L1  H     8    31       P1 10171  0.61
      P1  H  7954  7966       L1     8  0.21

> <Gold.Chemscore.Hbond.Weighted>
-4.3660

> <Gold.Chemscore.Metal.Weighted>
-0.0000

> <Gold.Chemscore.Lipo.Weighted>
-14.4729

> <Gold.Chemscore.Internal_Hbond.Weighted>
0.0000

> <Gold.Chemscore.DEClash.Weighted>
0.6470

> <Gold.Chemscore.DEInternal.Weighted>
0.8302

> <Gold.Chemscore.Rot.Weighted>
6.0951

> <Gold.Chemscore.Internal.Correction.Weighted>
   9.000000E+99

> <Gold.Protein.RotatedTorsions>
[ 6907 6896 6895 6894 ] final   33.19 input  -60.11 | X-H torsion
[ 7974 7965 7964 7962 ] final   98.41 input  175.53 | X-H torsion
[ 8008 7997 7996 7995 ] final  -71.55 input   59.86 | X-H torsion
[ 10167 10162 10161 10158 ] final   95.76 input  -65.29 | X-H torsion
[ 10718 10713 10712 10709 ] final   50.28 input   66.30 | X-H torsion
[ 10763 10752 10751 10750 ] final  -34.20 input  -60.55 | X-H torsion
[ 11005 11000 10999 10996 ] final  -27.97 input  -57.11 | X-H torsion

> <Gold.Protein.ActiveResidues>
 VAL166  LYS551  ARG553  GLY616  TRP617  ASP618  TYR619  PRO620  LYS621  CYS622 
 ASP623  PHE694  ASN695  SER759  ASP760  ASP761  ALA762  ILE779  LEU786  VAL792 
 PHE793  MET794  SER795  GLU796  ALA797  LYS798  CYS799  TRP800  GLU811  SER814 

> <Gold.Protein.RotatedAtoms>
  152.0851  134.9445  160.0572 H   0  0  0  0  0  0  0  0  0  0  0  0  # atno 6907 bound_to 6896
  152.0719  133.4106  159.4471 H   0  0  0  0  0  0  0  0  0  0  0  0  # atno 6908 bound_to 6896
  150.6836  134.3002  159.4746 H   0  0  0  0  0  0  0  0  0  0  0  0  # atno 6909 bound_to 6896
  145.4126  139.2332  143.3240 H   0  0  0  0  0  0  0  0  0  0  0  0  # atno 7974 bound_to 7965
  154.5097  140.0813  156.7964 H   0  0  0  0  0  0  0  0  0  0  0  0  # atno 8008 bound_to 7997
  155.3814  140.3428  155.4229 H   0  0  0  0  0  0  0  0  0  0  0  0  # atno 8009 bound_to 7997
  156.1558  140.1572  156.8682 H   0  0  0  0  0  0  0  0  0  0  0  0  # atno 8010 bound_to 7997
  139.7958  144.6834  150.9831 H   0  0  0  0  0  0  0  0  0  0  0  0  # atno 10167 bound_to 10162
  157.4870  130.8351  149.8158 H   0  0  0  0  0  0  0  0  0  0  0  0  # atno 10718 bound_to 10713
  153.8428  135.6856  153.4801 H   0  0  0  0  0  0  0  0  0  0  0  0  # atno 10763 bound_to 10752
  153.1443  135.4644  154.9541 H   0  0  0  0  0  0  0  0  0  0  0  0  # atno 10764 bound_to 10752
  154.7837  135.3277  154.7880 H   0  0  0  0  0  0  0  0  0  0  0  0  # atno 10765 bound_to 10752
  140.9167  133.7425  156.0745 H   0  0  0  0  0  0  0  0  0  0  0  0  # atno 11005 bound_to 11000
  146.2697  140.4839  142.8819 LP  0  0  0  0  0  0  0  0  0  0  0  0  # atno 17320 bound_to 7965
  144.8299  140.6689  143.6298 LP  0  0  0  0  0  0  0  0  0  0  0  0  # atno 17321 bound_to 7965
  140.7820  143.4333  151.0662 LP  0  0  0  0  0  0  0  0  0  0  0  0  # atno 17342 bound_to 10162
  139.8007  143.8087  152.3162 LP  0  0  0  0  0  0  0  0  0  0  0  0  # atno 17343 bound_to 10162
  156.0152  130.3816  150.2134 LP  0  0  0  0  0  0  0  0  0  0  0  0  # atno 17370 bound_to 10713
  157.0322  131.0010  151.3309 LP  0  0  0  0  0  0  0  0  0  0  0  0  # atno 17371 bound_to 10713
  140.8041  134.3475  157.5431 LP  0  0  0  0  0  0  0  0  0  0  0  0  # atno 17394 bound_to 11000
  139.8767  134.9215  156.3277 LP  0  0  0  0  0  0  0  0  0  0  0  0  # atno 17395 bound_to 11000

$$$$
