AV-unprocessed.smi:229|AV-procd|sdf|1749|dock8
  -GOLD-   2262020273D 1   1.00000     0.00000
 Structure written by MMmdl.
 58 62  0  0  0  0  0  0  0  0  1 V2000
  148.2573  131.8317  159.3692 C   0  0  0  0  0  0  0  0  0  0  0  0
  146.9271  132.4963  158.9902 C   0  0  0  0  0  0  0  0  0  0  0  0
  146.9359  134.0271  159.1347 C   0  0  2  0  0  0  0  0  0  0  0  0
  147.9495  134.7121  158.2002 C   0  0  0  0  0  0  0  0  0  0  0  0
  147.9903  136.1436  158.4721 N   0  0  0  0  0  0  0  0  0  0  0  0
  148.5889  136.8920  157.5108 C   0  0  0  0  0  0  0  0  0  0  0  0
  148.3468  136.6339  156.1973 N   0  0  0  0  0  0  0  0  0  0  0  0
  148.9193  137.3771  155.2453 C   0  0  0  0  0  0  0  0  0  0  0  0
  149.7548  138.4084  155.3809 N   0  0  0  0  0  0  0  0  0  0  0  0
  150.0110  138.6653  156.6952 C   0  0  0  0  0  0  0  0  0  0  0  0
  149.4778  137.9625  157.8128 C   0  0  0  0  0  0  0  0  0  0  0  0
  149.9780  138.5029  158.9923 N   0  0  0  0  0  0  0  0  0  0  0  0
  150.7497  139.4777  158.5951 C   0  0  0  0  0  0  0  0  0  0  0  0
  150.8247  139.6465  157.2315 N   0  0  0  0  0  0  0  0  0  0  0  0
  151.5960  140.6498  156.5191 C   0  0  0  0  0  0  0  0  0  0  0  0
  151.1365  142.0841  156.8477 C   0  0  1  0  0  0  0  0  0  0  0  0
  149.7626  142.2170  156.5345 O   0  0  0  0  0  0  0  0  0  0  0  0
  151.3411  142.4370  158.3321 C   0  0  2  0  0  0  0  0  0  0  0  0
  151.3588  143.9351  158.6308 C   0  0  0  0  0  0  0  0  0  0  0  0
  152.0682  143.9955  159.9695 C   0  0  0  0  0  0  0  0  0  0  0  0
  152.9460  142.7405  159.9693 C   0  0  0  0  0  0  0  0  0  0  0  0
  152.6328  142.0412  158.7693 O   0  0  0  0  0  0  0  0  0  0  0  0
  148.2920  136.4450  159.8679 C   0  0  0  0  0  0  0  0  0  0  0  0
  147.3060  135.7191  160.8123 C   0  0  1  0  0  0  0  0  0  0  0  0
  147.7451  135.8489  162.2672 C   0  0  0  0  0  0  0  0  0  0  0  0
  146.9496  137.0451  162.7666 C   0  0  0  0  0  0  0  0  0  0  0  0
  145.6874  136.8435  162.1592 O   0  0  0  0  0  0  0  0  0  0  0  0
  145.9001  136.3642  160.8362 C   0  0  0  0  0  0  0  0  0  0  0  0
  147.2749  134.3253  160.4903 O   0  0  0  0  0  0  0  0  0  0  0  0
  148.2162  130.7573  159.1889 H   0  0  0  0  0  0  0  0  0  0  0  0
  148.4938  131.9774  160.4230 H   0  0  0  0  0  0  0  0  0  0  0  0
  149.0810  132.2356  158.7801 H   0  0  0  0  0  0  0  0  0  0  0  0
  146.7002  132.2431  157.9540 H   0  0  0  0  0  0  0  0  0  0  0  0
  146.1204  132.0720  159.5892 H   0  0  0  0  0  0  0  0  0  0  0  0
  145.9347  134.3996  158.9166 H   0  0  0  0  0  0  0  0  0  0  0  0
  148.9457  134.2951  158.3544 H   0  0  0  0  0  0  0  0  0  0  0  0
  147.6840  134.5171  157.1626 H   0  0  0  0  0  0  0  0  0  0  0  0
  148.6699  137.1078  154.2296 H   0  0  0  0  0  0  0  0  0  0  0  0
  151.2853  140.1076  159.2903 H   0  0  0  0  0  0  0  0  0  0  0  0
  152.6505  140.5192  156.7663 H   0  0  0  0  0  0  0  0  0  0  0  0
  151.5002  140.4556  155.4502 H   0  0  0  0  0  0  0  0  0  0  0  0
  151.6916  142.7902  156.2281 H   0  0  0  0  0  0  0  0  0  0  0  0
  149.6124  143.0938  156.2153 H   0  0  0  0  0  0  0  0  0  0  0  0
  150.5918  141.9420  158.9531 H   0  0  0  0  0  0  0  0  0  0  0  0
  151.9457  144.4637  157.8781 H   0  0  0  0  0  0  0  0  0  0  0  0
  150.3626  144.3772  158.6588 H   0  0  0  0  0  0  0  0  0  0  0  0
  152.6457  144.9127  160.0880 H   0  0  0  0  0  0  0  0  0  0  0  0
  151.3447  143.9448  160.7842 H   0  0  0  0  0  0  0  0  0  0  0  0
  154.0089  142.9833  159.9908 H   0  0  0  0  0  0  0  0  0  0  0  0
  152.7243  142.1124  160.8330 H   0  0  0  0  0  0  0  0  0  0  0  0
  149.3126  136.1217  160.0785 H   0  0  0  0  0  0  0  0  0  0  0  0
  148.2541  137.5214  160.0414 H   0  0  0  0  0  0  0  0  0  0  0  0
  147.4450  134.9643  162.8311 H   0  0  0  0  0  0  0  0  0  0  0  0
  148.8216  135.9703  162.3929 H   0  0  0  0  0  0  0  0  0  0  0  0
  146.8732  137.0791  163.8536 H   0  0  0  0  0  0  0  0  0  0  0  0
  147.3848  137.9830  162.4178 H   0  0  0  0  0  0  0  0  0  0  0  0
  145.8303  137.1968  160.1351 H   0  0  0  0  0  0  0  0  0  0  0  0
  145.1055  135.6597  160.5917 H   0  0  0  0  0  0  0  0  0  0  0  0
  1  2  1  0  0  0  0
  1 30  1  0  0  0  0
  1 31  1  0  0  0  0
  1 32  1  0  0  0  0
  2  3  1  0  0  0  0
  2 33  1  0  0  0  0
  2 34  1  0  0  0  0
  3 29  1  0  0  0  0
  3  4  1  0  0  0  0
  3 35  1  0  0  0  0
  4  5  1  0  0  0  0
  4 36  1  0  0  0  0
  4 37  1  0  0  0  0
  5  6  1  0  0  0  0
  5 23  1  0  0  0  0
  6 11  1  0  0  0  0
  6  7  2  0  0  0  0
  7  8  1  0  0  0  0
  8  9  2  0  0  0  0
  8 38  1  0  0  0  0
  9 10  1  0  0  0  0
 10 14  1  0  0  0  0
 10 11  2  0  0  0  0
 11 12  1  0  0  0  0
 12 13  2  0  0  0  0
 13 14  1  0  0  0  0
 13 39  1  0  0  0  0
 14 15  1  0  0  0  0
 15 16  1  0  0  0  0
 15 40  1  0  0  0  0
 15 41  1  0  0  0  0
 16 17  1  0  0  0  0
 16 18  1  0  0  0  0
 16 42  1  0  0  0  0
 17 43  1  0  0  0  0
 18 22  1  0  0  0  0
 18 19  1  0  0  0  0
 18 44  1  0  0  0  0
 19 20  1  0  0  0  0
 19 45  1  0  0  0  0
 19 46  1  0  0  0  0
 20 21  1  0  0  0  0
 20 47  1  0  0  0  0
 20 48  1  0  0  0  0
 21 22  1  0  0  0  0
 21 49  1  0  0  0  0
 21 50  1  0  0  0  0
 23 24  1  0  0  0  0
 23 51  1  0  0  0  0
 23 52  1  0  0  0  0
 24 28  1  0  0  0  0
 24 25  1  0  0  0  0
 24 29  1  0  0  0  0
 25 26  1  0  0  0  0
 25 53  1  0  0  0  0
 25 54  1  0  0  0  0
 26 27  1  0  0  0  0
 26 55  1  0  0  0  0
 26 56  1  0  0  0  0
 27 28  1  0  0  0  0
 28 57  1  0  0  0  0
 28 58  1  0  0  0  0
M  END
> <s_m_source_file>
AV-unprocessed.smi

> <i_m_source_file_index>
229

> <i_lp_mmshare_version>
43012

> <i_f3d_flags>
0

> <s_epik_input>
W0NIMl0xT1tDSDJdW0NIMl1bQ0BdMTJbQ0gyXU4oW0NIMl1bQ0BIXShPMilbQ0gyXVtDSDNdKWMobltjSF1uMyljKGMzNCluW2NIXW40W0NIMl1bQ0BIXShbT0hdKVtDQEBIXTVbQ0gyXVtDSDJdW0NIMl1PNQ==

> <s_epik_cmdline>
J2VwaWtfcHl0aG9uJywgJy1waCcsICc3LjAnLCAnLXRuJywgJzgnLCAnLW1hJywgJzIwMCcsICctbWV0YWxfYmluZGluZycsICctaW1hZScsICc8aW5maWxlLm1hZT4nLCAnLW9tYWUnLCAnPG91dGZpbGUubWFlPic=

> <r_lp_tautomer_probability>
1

> <r_epik_Ionization_Penalty>
0.00318402

> <r_epik_Ionization_Penalty_Charging>
0

> <r_epik_Ionization_Penalty_Neutral>
0.00318402

> <r_epik_State_Penalty>
0.00215642

> <r_epik_Charging_Adjusted_Penalty>
0.00215642

> <i_epik_Tot_Q>
0

> <i_epik_Tot_abs_Q>
0

> <r_epik_Metal_State_Penalty>
-0

> <b_epik_Metal_Only>
0

> <s_lp_Force_Field>
OPLS_2005

> <r_lp_Energy>
54.6587

> <b_lp_Chiralities_Consistent>
1

> <s_lp_Variant>
AV-unprocessed.smi:229-3

> <Gold.Version>
5.8.1

> <Gold.Id.Protein>
6NUR|6NUR_protein|mol2

> <Gold.PLP.Fitness>
46.4271

> <Gold.PLP.PLP>
-41.0980

> <Gold.PLP.part.hbond>
-1.7901

> <Gold.PLP.part.metal>
0.0000

> <Gold.PLP.part.buried>
-5.9610

> <Gold.PLP.part.nonpolar>
-32.2452

> <Gold.PLP.part.repulsive>
0.1026

> <Gold.PLP.ligand.clash>
0.0000

> <Gold.PLP.ligand.torsion>
0.5198

> <Gold.PLP.Chemscore.Hbond>
1.0000

> <Gold.PLP.Chemscore.CHOScore>
1.0000

> <Gold.PLP.Chemscore.Metal>
0.0000

> <Gold.Chemscore.Hbonds>
donor molecule, donor type, donor heavy atom, donor atom, acceptor molecule, acceptor atom, score
      L1  H    17    43       P1  8028  1.00
      L1  C     8    38       P1  7948  1.00

> <Gold.PLP.Chemscore.Internal.Correction>
0.3686

> <Gold.Rescore>
     Score         DG    S(hbond)    S(metal)    S(lipo)     H(rot)  DE(clash)    DE(int)     intcor
     13.90     -15.65       1.00        0.00     112.19       2.46       0.08       1.67       ----

> <Gold.Chemscore.Fitness>
13.8989

> <Gold.Chemscore.DG>
-15.6508

> <Gold.Chemscore.ZeroCoef>
-5.4800

> <Gold.Chemscore.Hbond>
0.9998

> <Gold.Chemscore.Metal>
0.0000

> <Gold.Chemscore.Lipo>
112.1938

> <Gold.Chemscore.Internal_Hbond>
0.0000

> <Gold.Chemscore.DEClash>
0.0775

> <Gold.Chemscore.DEInternal>
1.6744

> <Gold.Chemscore.Rot>
2.4591

> <Gold.Chemscore.Internal.Correction>
   9.000000E+99

> <Gold.Chemscore.Hbonds>
donor molecule, donor type, donor heavy atom, donor atom, acceptor molecule, acceptor atom, score
      L1  H    17    43       P1  8028  1.00

> <Gold.Chemscore.Hbond.Weighted>
-3.3395

> <Gold.Chemscore.Metal.Weighted>
-0.0000

> <Gold.Chemscore.Lipo.Weighted>
-13.1267

> <Gold.Chemscore.Internal_Hbond.Weighted>
0.0000

> <Gold.Chemscore.DEClash.Weighted>
0.0775

> <Gold.Chemscore.DEInternal.Weighted>
1.6744

> <Gold.Chemscore.Rot.Weighted>
6.2953

> <Gold.Chemscore.Internal.Correction.Weighted>
   9.000000E+99

> <Gold.Protein.RotatedTorsions>
[ 6907 6896 6895 6894 ] final   32.42 input  -60.11 | X-H torsion
[ 7974 7965 7964 7962 ] final -128.96 input  175.53 | X-H torsion
[ 8008 7997 7996 7995 ] final   88.39 input   59.86 | X-H torsion
[ 10167 10162 10161 10158 ] final   69.85 input  -65.29 | X-H torsion
[ 10718 10713 10712 10709 ] final  178.44 input   66.30 | X-H torsion
[ 10763 10752 10751 10750 ] final   -4.92 input  -60.55 | X-H torsion
[ 11005 11000 10999 10996 ] final  -27.96 input  -57.11 | X-H torsion

> <Gold.Protein.ActiveResidues>
 VAL166  LYS551  ARG553  GLY616  TRP617  ASP618  TYR619  PRO620  LYS621  CYS622 
 ASP623  PHE694  ASN695  SER759  ASP760  ASP761  ALA762  ILE779  LEU786  VAL792 
 PHE793  MET794  SER795  GLU796  ALA797  LYS798  CYS799  TRP800  GLU811  SER814 

> <Gold.Protein.RotatedAtoms>
  152.0742  134.9513  160.0573 H   0  0  0  0  0  0  0  0  0  0  0  0  # atno 6907 bound_to 6896
  152.0827  133.4156  159.4517 H   0  0  0  0  0  0  0  0  0  0  0  0  # atno 6908 bound_to 6896
  150.6836  134.2883  159.4699 H   0  0  0  0  0  0  0  0  0  0  0  0  # atno 6909 bound_to 6896
  144.9619  140.7455  143.4724 H   0  0  0  0  0  0  0  0  0  0  0  0  # atno 7974 bound_to 7965
  155.9872  140.3372  155.6718 H   0  0  0  0  0  0  0  0  0  0  0  0  # atno 8008 bound_to 7997
  155.6470  140.0701  157.2617 H   0  0  0  0  0  0  0  0  0  0  0  0  # atno 8009 bound_to 7997
  154.4208  140.1732  156.1621 H   0  0  0  0  0  0  0  0  0  0  0  0  # atno 8010 bound_to 7997
  140.0633  144.5214  150.7278 H   0  0  0  0  0  0  0  0  0  0  0  0  # atno 10167 bound_to 10162
  156.8905  130.9845  151.3050 H   0  0  0  0  0  0  0  0  0  0  0  0  # atno 10718 bound_to 10713
  153.3914  135.7002  153.6492 H   0  0  0  0  0  0  0  0  0  0  0  0  # atno 10763 bound_to 10752
  153.5063  135.3641  155.2565 H   0  0  0  0  0  0  0  0  0  0  0  0  # atno 10764 bound_to 10752
  154.8702  135.4124  154.3231 H   0  0  0  0  0  0  0  0  0  0  0  0  # atno 10765 bound_to 10752
  140.9166  133.7426  156.0743 H   0  0  0  0  0  0  0  0  0  0  0  0  # atno 11005 bound_to 11000
  145.2687  139.1963  143.4853 LP  0  0  0  0  0  0  0  0  0  0  0  0  # atno 17320 bound_to 7965
  146.3355  140.2630  142.8602 LP  0  0  0  0  0  0  0  0  0  0  0  0  # atno 17321 bound_to 7965
  140.7161  143.2546  151.4429 LP  0  0  0  0  0  0  0  0  0  0  0  0  # atno 17342 bound_to 10162
  139.5880  144.1561  152.2053 LP  0  0  0  0  0  0  0  0  0  0  0  0  # atno 17343 bound_to 10162
  157.6087  130.8566  149.8916 LP  0  0  0  0  0  0  0  0  0  0  0  0  # atno 17370 bound_to 10713
  156.0631  130.3696  150.0937 LP  0  0  0  0  0  0  0  0  0  0  0  0  # atno 17371 bound_to 10713
  140.8042  134.3474  157.5431 LP  0  0  0  0  0  0  0  0  0  0  0  0  # atno 17394 bound_to 11000
  139.8767  134.9216  156.3279 LP  0  0  0  0  0  0  0  0  0  0  0  0  # atno 17395 bound_to 11000

$$$$
