AV-unprocessed.smi:2078|AV-procd|sdf|8473|dock6
  -GOLD-   2272011173D 1   1.00000     0.00000
 Structure written by MMmdl.
 41 42  0  0  0  0  0  0  0  0  3 V2000
  155.1146  136.3250  164.8669 C   0  0  0  0  0  0  0  0  0  0  0  0
  154.9826  136.7565  163.4465 C   0  0  0  0  0  0  0  0  0  0  0  0
  154.2334  137.7220  162.8352 C   0  0  0  0  0  0  0  0  0  0  0  0
  154.5930  137.5895  161.4678 C   0  0  0  0  0  0  0  0  0  0  0  0
  154.0308  138.4445  160.4838 N   0  0  0  0  0  0  0  0  0  0  0  0
  154.4213  138.6254  159.2098 C   0  0  0  0  0  0  0  0  0  0  0  0
  155.3078  137.9140  158.7220 O   0  0  0  0  0  0  0  0  0  0  0  0
  153.7475  139.6385  158.5977 N   0  5  0  0  0  0  0  0  0  0  0  0
  152.3216  139.9296  158.7793 C   0  0  0  0  0  0  0  0  0  0  0  0
  151.9233  141.2003  157.9963 C   0  0  0  0  0  0  0  0  0  0  0  0
  151.6984  142.3680  158.8912 N   0  3  1  0  0  0  0  0  0  0  0  0
  152.8128  142.6265  159.8413 C   0  0  0  0  0  0  0  0  0  0  0  0
  152.4167  143.7001  160.8661 C   0  0  0  0  0  0  0  0  0  0  0  0
  151.9734  144.9930  160.1654 C   0  0  0  0  0  0  0  0  0  0  0  0
  150.8663  144.7201  159.1293 C   0  0  2  0  0  0  0  0  0  0  0  0
  149.4991  144.4394  159.7783 C   0  0  0  0  0  0  0  0  0  0  0  0
  151.2948  143.5977  158.1609 C   0  0  0  0  0  0  0  0  0  0  0  0
  155.4883  136.6341  161.2645 N   0  0  0  0  0  0  0  0  0  0  0  0
  155.7409  136.0944  162.5313 O   0  0  0  0  0  0  0  0  0  0  0  0
  155.9201  136.8683  165.3607 H   0  0  0  0  0  0  0  0  0  0  0  0
  155.3344  135.2590  164.9325 H   0  0  0  0  0  0  0  0  0  0  0  0
  154.1923  136.5133  165.4165 H   0  0  0  0  0  0  0  0  0  0  0  0
  153.5394  138.4105  163.2936 H   0  0  0  0  0  0  0  0  0  0  0  0
  153.2625  139.0207  160.7945 H   0  0  0  0  0  0  0  0  0  0  0  0
  151.6834  139.1015  158.4682 H   0  0  0  0  0  0  0  0  0  0  0  0
  152.0909  140.0883  159.8325 H   0  0  0  0  0  0  0  0  0  0  0  0
  152.6854  141.4422  157.2543 H   0  0  0  0  0  0  0  0  0  0  0  0
  151.0195  140.9797  157.4262 H   0  0  0  0  0  0  0  0  0  0  0  0
  153.0756  141.7089  160.3688 H   0  0  0  0  0  0  0  0  0  0  0  0
  153.6998  142.9397  159.2887 H   0  0  0  0  0  0  0  0  0  0  0  0
  151.6128  143.3228  161.4995 H   0  0  0  0  0  0  0  0  0  0  0  0
  153.2562  143.9072  161.5301 H   0  0  0  0  0  0  0  0  0  0  0  0
  151.6399  145.7269  160.8998 H   0  0  0  0  0  0  0  0  0  0  0  0
  152.8337  145.4354  159.6614 H   0  0  0  0  0  0  0  0  0  0  0  0
  150.7425  145.6288  158.5390 H   0  0  0  0  0  0  0  0  0  0  0  0
  149.5175  143.5448  160.3993 H   0  0  0  0  0  0  0  0  0  0  0  0
  148.7276  144.2959  159.0214 H   0  0  0  0  0  0  0  0  0  0  0  0
  149.1873  145.2718  160.4097 H   0  0  0  0  0  0  0  0  0  0  0  0
  152.1286  143.9334  157.5426 H   0  0  0  0  0  0  0  0  0  0  0  0
  150.4713  143.3723  157.4818 H   0  0  0  0  0  0  0  0  0  0  0  0
  150.8969  142.1098  159.4510 H   0  0  0  0  0  0  0  0  0  0  0  0
  1  2  1  0  0  0  0
  1 20  1  0  0  0  0
  1 21  1  0  0  0  0
  1 22  1  0  0  0  0
  2 19  1  0  0  0  0
  2  3  2  0  0  0  0
  3  4  1  0  0  0  0
  3 23  1  0  0  0  0
  4  5  1  0  0  0  0
  4 18  2  0  0  0  0
  5  6  1  0  0  0  0
  5 24  1  0  0  0  0
  6  7  2  0  0  0  0
  6  8  1  0  0  0  0
  8  9  1  0  0  0  0
  9 10  1  0  0  0  0
  9 25  1  0  0  0  0
  9 26  1  0  0  0  0
 10 11  1  0  0  0  0
 10 27  1  0  0  0  0
 10 28  1  0  0  0  0
 11 17  1  0  0  0  0
 11 12  1  0  0  0  0
 11 41  1  0  0  0  0
 12 13  1  0  0  0  0
 12 29  1  0  0  0  0
 12 30  1  0  0  0  0
 13 14  1  0  0  0  0
 13 31  1  0  0  0  0
 13 32  1  0  0  0  0
 14 15  1  0  0  0  0
 14 33  1  0  0  0  0
 14 34  1  0  0  0  0
 15 16  1  0  0  0  0
 15 17  1  0  0  0  0
 15 35  1  0  0  0  0
 16 36  1  0  0  0  0
 16 37  1  0  0  0  0
 16 38  1  0  0  0  0
 17 39  1  0  0  0  0
 17 40  1  0  0  0  0
 18 19  1  0  0  0  0
M  CHG  1   8  -1
M  CHG  1  11   1
M  END
> <s_m_source_file>
AV-unprocessed.smi

> <i_m_source_file_index>
2078

> <i_lp_mmshare_version>
43012

> <i_f3d_flags>
0

> <s_epik_input>
W0NIM11jMVtjSF1jKG5vMSlbTkhdQyg9TylbTkhdW0NIMl1bQ0gyXU4yW0NIMl1bQ0gyXVtDSDJdW0NAQEhdKFtDSDNdKVtDSDJdMg==

> <s_epik_cmdline>
J2VwaWtfcHl0aG9uJywgJy1waCcsICc3LjAnLCAnLXRuJywgJzgnLCAnLW1hJywgJzIwMCcsICctbWV0YWxfYmluZGluZycsICctaW1hZScsICc8aW5maWxlLm1hZT4nLCAnLW9tYWUnLCAnPG91dGZpbGUubWFlPic=

> <r_epik_Ionization_Penalty>
6.76934

> <r_epik_Ionization_Penalty_Charging>
6.76934

> <r_epik_Ionization_Penalty_Neutral>
5.77849e-06

> <r_epik_State_Penalty>
6.79457

> <r_epik_Charging_Adjusted_Penalty>
13.5639

> <i_epik_Tot_Q>
0

> <i_epik_Tot_abs_Q>
2

> <r_epik_Metal_State_Penalty>
2.72837

> <b_epik_Metal_Only>
1

> <s_lp_Force_Field>
OPLS_2005

> <r_lp_Energy>
11.5184

> <b_lp_Chiralities_Consistent>
1

> <s_lp_Variant>
AV-unprocessed.smi:2078-11

> <Gold.Version>
5.8.1

> <Gold.Id.Protein>
6NUR|6NUR_protein|mol2

> <Gold.PLP.Fitness>
42.5869

> <Gold.PLP.PLP>
-37.8376

> <Gold.PLP.part.hbond>
-1.0000

> <Gold.PLP.part.metal>
0.0000

> <Gold.PLP.part.buried>
-5.8243

> <Gold.PLP.part.nonpolar>
-31.4500

> <Gold.PLP.part.repulsive>
0.1246

> <Gold.PLP.ligand.clash>
0.0000

> <Gold.PLP.ligand.torsion>
0.6782

> <Gold.PLP.Chemscore.Hbond>
2.0000

> <Gold.PLP.Chemscore.CHOScore>
0.0000

> <Gold.PLP.Chemscore.Metal>
0.0000

> <Gold.Chemscore.Hbonds>
donor molecule, donor type, donor heavy atom, donor atom, acceptor molecule, acceptor atom, score
      P1  H  7997  8010       L1     8  2.00

> <Gold.PLP.Chemscore.Internal.Correction>
0.1057

> <Gold.Rescore>
     Score         DG    S(hbond)    S(metal)    S(lipo)     H(rot)  DE(clash)    DE(int)     intcor
     14.26     -16.27       0.87        0.00     101.01       1.54       0.00       2.01       ----

> <Gold.Chemscore.Fitness>
14.2610

> <Gold.Chemscore.DG>
-16.2745

> <Gold.Chemscore.ZeroCoef>
-5.4800

> <Gold.Chemscore.Hbond>
0.8746

> <Gold.Chemscore.Metal>
0.0000

> <Gold.Chemscore.Lipo>
101.0075

> <Gold.Chemscore.Internal_Hbond>
0.0000

> <Gold.Chemscore.DEClash>
0.0038

> <Gold.Chemscore.DEInternal>
2.0097

> <Gold.Chemscore.Rot>
1.5409

> <Gold.Chemscore.Internal.Correction>
   9.000000E+99

> <Gold.Chemscore.Hbonds>
donor molecule, donor type, donor heavy atom, donor atom, acceptor molecule, acceptor atom, score
      P1  H  7997  8010       L1     8  0.40

> <Gold.Chemscore.Hbond.Weighted>
-2.9212

> <Gold.Chemscore.Metal.Weighted>
-0.0000

> <Gold.Chemscore.Lipo.Weighted>
-11.8179

> <Gold.Chemscore.Internal_Hbond.Weighted>
0.0000

> <Gold.Chemscore.DEClash.Weighted>
0.0038

> <Gold.Chemscore.DEInternal.Weighted>
2.0097

> <Gold.Chemscore.Rot.Weighted>
3.9446

> <Gold.Chemscore.Internal.Correction.Weighted>
   9.000000E+99

> <Gold.Protein.RotatedTorsions>
[ 6907 6896 6895 6894 ] final -127.60 input  -60.11 | X-H torsion
[ 7974 7965 7964 7962 ] final   99.52 input  175.53 | X-H torsion
[ 8008 7997 7996 7995 ] final   18.70 input   59.86 | X-H torsion
[ 10167 10162 10161 10158 ] final  160.62 input  -65.29 | X-H torsion
[ 10718 10713 10712 10709 ] final -107.98 input   66.30 | X-H torsion
[ 10763 10752 10751 10750 ] final  -98.06 input  -60.55 | X-H torsion
[ 11005 11000 10999 10996 ] final   21.59 input  -57.11 | X-H torsion

> <Gold.Protein.ActiveResidues>
 VAL166  LYS551  ARG553  GLY616  TRP617  ASP618  TYR619  PRO620  LYS621  CYS622 
 ASP623  PHE694  ASN695  SER759  ASP760  ASP761  ALA762  ILE779  LEU786  VAL792 
 PHE793  MET794  SER795  GLU796  ALA797  LYS798  CYS799  TRP800  GLU811  SER814 

> <Gold.Protein.RotatedAtoms>
  150.9090  133.7022  159.2859 H   0  0  0  0  0  0  0  0  0  0  0  0  # atno 6907 bound_to 6896
  151.4515  135.1029  159.9709 H   0  0  0  0  0  0  0  0  0  0  0  0  # atno 6908 bound_to 6896
  152.4919  133.8474  159.7239 H   0  0  0  0  0  0  0  0  0  0  0  0  # atno 6909 bound_to 6896
  145.3977  139.2352  143.3317 H   0  0  0  0  0  0  0  0  0  0  0  0  # atno 7974 bound_to 7965
  154.9099  140.3012  155.5272 H   0  0  0  0  0  0  0  0  0  0  0  0  # atno 8008 bound_to 7997
  156.3015  140.2391  156.4073 H   0  0  0  0  0  0  0  0  0  0  0  0  # atno 8009 bound_to 7997
  154.8436  140.0412  157.1546 H   0  0  0  0  0  0  0  0  0  0  0  0  # atno 8010 bound_to 7997
  139.4841  144.4616  151.8697 H   0  0  0  0  0  0  0  0  0  0  0  0  # atno 10167 bound_to 10162
  156.0463  130.5690  150.7898 H   0  0  0  0  0  0  0  0  0  0  0  0  # atno 10718 bound_to 10713
  154.7381  135.5023  153.9076 H   0  0  0  0  0  0  0  0  0  0  0  0  # atno 10763 bound_to 10752
  153.1016  135.6686  153.9671 H   0  0  0  0  0  0  0  0  0  0  0  0  # atno 10764 bound_to 10752
  153.9455  135.3063  155.3420 H   0  0  0  0  0  0  0  0  0  0  0  0  # atno 10765 bound_to 10752
  140.3899  134.1830  155.7662 H   0  0  0  0  0  0  0  0  0  0  0  0  # atno 11005 bound_to 11000
  146.2767  140.4670  142.8792 LP  0  0  0  0  0  0  0  0  0  0  0  0  # atno 17320 bound_to 7965
  144.8396  140.6836  143.6238 LP  0  0  0  0  0  0  0  0  0  0  0  0  # atno 17321 bound_to 7965
  140.4079  144.2407  150.5890 LP  0  0  0  0  0  0  0  0  0  0  0  0  # atno 17342 bound_to 10162
  140.4994  143.2322  151.8700 LP  0  0  0  0  0  0  0  0  0  0  0  0  # atno 17343 bound_to 10162
  157.5342  131.0938  150.9915 LP  0  0  0  0  0  0  0  0  0  0  0  0  # atno 17370 bound_to 10713
  157.0214  130.5675  149.5332 LP  0  0  0  0  0  0  0  0  0  0  0  0  # atno 17371 bound_to 10713
  141.1894  133.8239  157.0957 LP  0  0  0  0  0  0  0  0  0  0  0  0  # atno 17394 bound_to 11000
  140.0414  134.9852  157.0969 LP  0  0  0  0  0  0  0  0  0  0  0  0  # atno 17395 bound_to 11000

$$$$
