AV-unprocessed.smi:3160|AV-procd|sdf|12052|dock3
  -GOLD-   2272017483D 1   1.00000     0.00000
 Structure written by MMmdl.
 40 41  0  0  0  0  0  0  0  0  2 V2000
  150.0618  136.2040  155.2089 C   0  0  0  0  0  0  0  0  0  0  0  0
  150.3626  137.6689  155.0730 C   0  0  0  0  0  0  0  0  0  0  0  0
  151.5256  138.2747  154.5193 C   0  0  0  0  0  0  0  0  0  0  0  0
  151.4778  139.5963  154.5463 N   0  0  0  0  0  0  0  0  0  0  0  0
  150.2872  139.8835  155.1179 N   0  0  0  0  0  0  0  0  0  0  0  0
  149.8767  141.2706  155.3065 C   0  0  1  0  0  0  0  0  0  0  0  0
  148.5338  141.5191  154.5933 C   0  0  0  0  0  0  0  0  0  0  0  0
  149.8528  141.6525  156.8111 C   0  0  2  0  0  0  0  0  0  0  0  0
  148.4276  141.7836  157.3739 C   0  0  0  0  0  0  0  0  0  0  0  0
  150.5689  142.9329  157.0239 N   0  3  0  0  0  0  0  0  0  0  0  0
  150.9190  143.2398  158.4272 C   0  0  0  0  0  0  0  0  0  0  0  0
  151.5429  144.6256  158.6101 C   0  0  0  0  0  0  0  0  0  0  0  0
  152.3098  144.5348  159.9349 C   0  0  0  0  0  0  0  0  0  0  0  0
  152.5727  143.0397  160.1808 C   0  0  0  0  0  0  0  0  0  0  0  0
  151.9937  142.2998  158.9706 C   0  0  0  0  0  0  0  0  0  0  0  0
  149.5966  138.7358  155.4491 C   0  0  0  0  0  0  0  0  0  0  0  0
  150.8530  135.5858  154.7841 H   0  0  0  0  0  0  0  0  0  0  0  0
  149.1363  135.9343  154.6999 H   0  0  0  0  0  0  0  0  0  0  0  0
  149.9531  135.9114  156.2535 H   0  0  0  0  0  0  0  0  0  0  0  0
  152.3976  137.7957  154.0989 H   0  0  0  0  0  0  0  0  0  0  0  0
  150.6261  141.8903  154.8113 H   0  0  0  0  0  0  0  0  0  0  0  0
  148.2861  142.5797  154.5596 H   0  0  0  0  0  0  0  0  0  0  0  0
  147.7134  141.0003  155.0902 H   0  0  0  0  0  0  0  0  0  0  0  0
  148.5696  141.1694  153.5612 H   0  0  0  0  0  0  0  0  0  0  0  0
  150.3538  140.8626  157.3732 H   0  0  0  0  0  0  0  0  0  0  0  0
  147.8940  140.8341  157.3457 H   0  0  0  0  0  0  0  0  0  0  0  0
  147.8429  142.5139  156.8135 H   0  0  0  0  0  0  0  0  0  0  0  0
  148.4465  142.1032  158.4163 H   0  0  0  0  0  0  0  0  0  0  0  0
  151.4306  142.8869  156.4989 H   0  0  0  0  0  0  0  0  0  0  0  0
  150.0309  143.1502  159.0552 H   0  0  0  0  0  0  0  0  0  0  0  0
  152.2447  144.8294  157.7998 H   0  0  0  0  0  0  0  0  0  0  0  0
  150.8016  145.4255  158.6144 H   0  0  0  0  0  0  0  0  0  0  0  0
  153.2360  145.1094  159.8951 H   0  0  0  0  0  0  0  0  0  0  0  0
  151.7089  144.9431  160.7488 H   0  0  0  0  0  0  0  0  0  0  0  0
  153.6340  142.8249  160.3101 H   0  0  0  0  0  0  0  0  0  0  0  0
  152.0632  142.7222  161.0914 H   0  0  0  0  0  0  0  0  0  0  0  0
  151.6002  141.3162  159.2301 H   0  0  0  0  0  0  0  0  0  0  0  0
  152.7783  142.1575  158.2254 H   0  0  0  0  0  0  0  0  0  0  0  0
  148.6239  138.7713  155.9174 H   0  0  0  0  0  0  0  0  0  0  0  0
  150.0103  143.6883  156.6536 H   0  0  0  0  0  0  0  0  0  0  0  0
  1  2  1  0  0  0  0
  1 17  1  0  0  0  0
  1 18  1  0  0  0  0
  1 19  1  0  0  0  0
  2 16  2  0  0  0  0
  2  3  1  0  0  0  0
  3  4  2  0  0  0  0
  3 20  1  0  0  0  0
  4  5  1  0  0  0  0
  5  6  1  0  0  0  0
  5 16  1  0  0  0  0
  6  7  1  0  0  0  0
  6  8  1  0  0  0  0
  6 21  1  0  0  0  0
  7 22  1  0  0  0  0
  7 23  1  0  0  0  0
  7 24  1  0  0  0  0
  8  9  1  0  0  0  0
  8 10  1  0  0  0  0
  8 25  1  0  0  0  0
  9 26  1  0  0  0  0
  9 27  1  0  0  0  0
  9 28  1  0  0  0  0
 10 11  1  0  0  0  0
 10 29  1  0  0  0  0
 10 40  1  0  0  0  0
 11 15  1  0  0  0  0
 11 12  1  0  0  0  0
 11 30  1  0  0  0  0
 12 13  1  0  0  0  0
 12 31  1  0  0  0  0
 12 32  1  0  0  0  0
 13 14  1  0  0  0  0
 13 33  1  0  0  0  0
 13 34  1  0  0  0  0
 14 15  1  0  0  0  0
 14 35  1  0  0  0  0
 14 36  1  0  0  0  0
 15 37  1  0  0  0  0
 15 38  1  0  0  0  0
 16 39  1  0  0  0  0
M  CHG  1  10   1
M  END
> <s_m_source_file>
AV-unprocessed.smi

> <i_m_source_file_index>
3160

> <i_lp_mmshare_version>
43012

> <i_f3d_flags>
0

> <s_epik_input>
W0NIM11jMVtjSF1ubihbY0hdMSlbQ0BIXShbQ0gzXSlbQ0BIXShbQ0gzXSlbTkhdW0NIXTJbQ0gyXVtDSDJdW0NIMl1bQ0gyXTI=

> <s_epik_cmdline>
J2VwaWtfcHl0aG9uJywgJy1waCcsICc3LjAnLCAnLXRuJywgJzgnLCAnLW1hJywgJzIwMCcsICctbWV0YWxfYmluZGluZycsICctaW1hZScsICc8aW5maWxlLm1hZT4nLCAnLW9tYWUnLCAnPG91dGZpbGUubWFlPic=

> <r_lp_tautomer_probability>
1

> <r_epik_Ionization_Penalty>
0.00117636

> <r_epik_Ionization_Penalty_Charging>
0.00115264

> <r_epik_Ionization_Penalty_Neutral>
2.37123e-05

> <r_epik_State_Penalty>
-0

> <r_epik_Charging_Adjusted_Penalty>
0.00115264

> <i_epik_Tot_Q>
1

> <i_epik_Tot_abs_Q>
1

> <r_epik_Metal_State_Penalty>
-0

> <b_epik_Metal_Only>
0

> <s_lp_Force_Field>
OPLS_2005

> <r_lp_Energy>
30.6153

> <b_lp_Chiralities_Consistent>
1

> <s_lp_Variant>
AV-unprocessed.smi:3160-2

> <Gold.Version>
5.8.1

> <Gold.Id.Protein>
6NUR|6NUR_protein|mol2

> <Gold.PLP.Fitness>
43.8793

> <Gold.PLP.PLP>
-37.7691

> <Gold.PLP.part.hbond>
-2.0000

> <Gold.PLP.part.metal>
0.0000

> <Gold.PLP.part.buried>
-4.7317

> <Gold.PLP.part.nonpolar>
-31.6465

> <Gold.PLP.part.repulsive>
0.0990

> <Gold.PLP.ligand.clash>
0.0000

> <Gold.PLP.ligand.torsion>
1.4802

> <Gold.PLP.Chemscore.Hbond>
3.0000

> <Gold.PLP.Chemscore.CHOScore>
0.0000

> <Gold.PLP.Chemscore.Metal>
0.0000

> <Gold.Chemscore.Hbonds>
donor molecule, donor type, donor heavy atom, donor atom, acceptor molecule, acceptor atom, score
      L1  H    10    40       P1  8028  2.00
      P1  H  7989  7998       L1     4  1.00

> <Gold.PLP.Chemscore.Internal.Correction>
0.0706

> <Gold.Rescore>
     Score         DG    S(hbond)    S(metal)    S(lipo)     H(rot)  DE(clash)    DE(int)     intcor
     18.74     -20.34       1.93        0.00     101.78       1.37       0.17       1.43       ----

> <Gold.Chemscore.Fitness>
18.7354

> <Gold.Chemscore.DG>
-20.3369

> <Gold.Chemscore.ZeroCoef>
-5.4800

> <Gold.Chemscore.Hbond>
1.9337

> <Gold.Chemscore.Metal>
0.0000

> <Gold.Chemscore.Lipo>
101.7772

> <Gold.Chemscore.Internal_Hbond>
0.0000

> <Gold.Chemscore.DEClash>
0.1677

> <Gold.Chemscore.DEInternal>
1.4337

> <Gold.Chemscore.Rot>
1.3709

> <Gold.Chemscore.Internal.Correction>
   9.000000E+99

> <Gold.Chemscore.Hbonds>
donor molecule, donor type, donor heavy atom, donor atom, acceptor molecule, acceptor atom, score
      L1  H    10    40       P1  8028  1.00
      P1  H  7989  7998       L1     4  0.35

> <Gold.Chemscore.Hbond.Weighted>
-6.4584

> <Gold.Chemscore.Metal.Weighted>
-0.0000

> <Gold.Chemscore.Lipo.Weighted>
-11.9079

> <Gold.Chemscore.Internal_Hbond.Weighted>
0.0000

> <Gold.Chemscore.DEClash.Weighted>
0.1677

> <Gold.Chemscore.DEInternal.Weighted>
1.4337

> <Gold.Chemscore.Rot.Weighted>
3.5095

> <Gold.Chemscore.Internal.Correction.Weighted>
   9.000000E+99

> <Gold.Protein.RotatedTorsions>
[ 6907 6896 6895 6894 ] final  -50.79 input  -60.11 | X-H torsion
[ 7974 7965 7964 7962 ] final -166.76 input  175.53 | X-H torsion
[ 8008 7997 7996 7995 ] final  112.82 input   59.86 | X-H torsion
[ 10167 10162 10161 10158 ] final  -48.48 input  -65.29 | X-H torsion
[ 10718 10713 10712 10709 ] final  129.74 input   66.30 | X-H torsion
[ 10763 10752 10751 10750 ] final  177.26 input  -60.55 | X-H torsion
[ 11005 11000 10999 10996 ] final   84.04 input  -57.11 | X-H torsion

> <Gold.Protein.ActiveResidues>
 VAL166  LYS551  ARG553  GLY616  TRP617  ASP618  TYR619  PRO620  LYS621  CYS622 
 ASP623  PHE694  ASN695  SER759  ASP760  ASP761  ALA762  ILE779  LEU786  VAL792 
 PHE793  MET794  SER795  GLU796  ALA797  LYS798  CYS799  TRP800  GLU811  SER814 

> <Gold.Protein.RotatedAtoms>
  150.8674  134.8040  159.7128 H   0  0  0  0  0  0  0  0  0  0  0  0  # atno 6907 bound_to 6896
  152.4690  134.5002  159.9732 H   0  0  0  0  0  0  0  0  0  0  0  0  # atno 6908 bound_to 6896
  151.5096  133.3449  159.2918 H   0  0  0  0  0  0  0  0  0  0  0  0  # atno 6909 bound_to 6896
  144.7238  140.2619  143.6263 H   0  0  0  0  0  0  0  0  0  0  0  0  # atno 7974 bound_to 7965
  156.2217  140.2992  155.9969 H   0  0  0  0  0  0  0  0  0  0  0  0  # atno 8008 bound_to 7997
  155.2463  140.0424  157.2998 H   0  0  0  0  0  0  0  0  0  0  0  0  # atno 8009 bound_to 7997
  154.5852  140.2386  155.8006 H   0  0  0  0  0  0  0  0  0  0  0  0  # atno 8010 bound_to 7997
  140.6729  143.2738  151.4077 H   0  0  0  0  0  0  0  0  0  0  0  0  # atno 10167 bound_to 10162
  157.5126  131.1097  150.9271 H   0  0  0  0  0  0  0  0  0  0  0  0  # atno 10718 bound_to 10713
  154.4921  135.2779  155.1488 H   0  0  0  0  0  0  0  0  0  0  0  0  # atno 10763 bound_to 10752
  154.3156  135.6220  153.5488 H   0  0  0  0  0  0  0  0  0  0  0  0  # atno 10764 bound_to 10752
  152.9889  135.5730  154.5345 H   0  0  0  0  0  0  0  0  0  0  0  0  # atno 10765 bound_to 10752
  139.9012  134.8188  156.2391 H   0  0  0  0  0  0  0  0  0  0  0  0  # atno 11005 bound_to 11000
  145.8127  139.2010  143.1983 LP  0  0  0  0  0  0  0  0  0  0  0  0  # atno 17320 bound_to 7965
  146.0582  140.7999  142.9748 LP  0  0  0  0  0  0  0  0  0  0  0  0  # atno 17321 bound_to 7965
  139.6006  144.1304  152.2194 LP  0  0  0  0  0  0  0  0  0  0  0  0  # atno 17342 bound_to 10162
  140.0687  144.5797  150.7208 LP  0  0  0  0  0  0  0  0  0  0  0  0  # atno 17343 bound_to 10162
  156.9906  130.5562  149.5303 LP  0  0  0  0  0  0  0  0  0  0  0  0  # atno 17370 bound_to 10713
  156.0299  130.5391  150.8507 LP  0  0  0  0  0  0  0  0  0  0  0  0  # atno 17371 bound_to 10713
  141.0296  133.6996  156.1407 LP  0  0  0  0  0  0  0  0  0  0  0  0  # atno 17394 bound_to 11000
  140.7115  134.4456  157.5581 LP  0  0  0  0  0  0  0  0  0  0  0  0  # atno 17395 bound_to 11000

$$$$
