AV-unprocessed.smi:2669|AV-procd|sdf|10343|dock8
  -GOLD-   2272014363D 1   1.00000     0.00000
 Structure written by MMmdl.
 39 41  0  0  0  0  0  0  0  0  1 V2000
  146.8321  138.5081  152.5908 C   0  0  0  0  0  0  0  0  0  0  0  0
  145.4589  138.0297  152.6138 N   0  0  0  0  0  0  0  0  0  0  0  0
  145.1804  136.6602  152.5042 C   0  0  0  0  0  0  0  0  0  0  0  0
  146.1420  135.8093  152.0764 N   0  0  0  0  0  0  0  0  0  0  0  0
  145.8324  134.5099  151.9821 C   0  0  0  0  0  0  0  0  0  0  0  0
  144.6718  133.8950  152.2571 N   0  0  0  0  0  0  0  0  0  0  0  0
  143.7138  134.7283  152.6850 C   0  0  0  0  0  0  0  0  0  0  0  0
  142.4250  134.3680  153.0391 N   0  0  0  0  0  0  0  0  0  0  0  0
  141.9011  135.5421  153.3817 C   0  0  0  0  0  0  0  0  0  0  0  0
  142.6945  136.6277  153.2950 N   0  0  0  0  0  0  0  0  0  0  0  0
  142.3182  137.9926  153.6238 C   0  0  0  0  0  0  0  0  0  0  0  0
  141.1959  138.5337  152.7157 C   0  0  2  0  0  0  0  0  0  0  0  0
  141.6984  138.7823  151.4177 O   0  0  0  0  0  0  0  0  0  0  0  0
  140.5821  139.8341  153.2547 C   0  0  0  0  0  0  0  0  0  0  0  0
  139.5887  140.2878  152.3448 O   0  0  0  0  0  0  0  0  0  0  0  0
  138.4474  139.5305  152.1926 C   0  0  0  0  0  0  0  0  0  0  0  0
  137.4806  140.0067  151.2830 C   0  0  0  0  0  0  0  0  0  0  0  0
  136.2847  139.2964  151.0637 C   0  0  0  0  0  0  0  0  0  0  0  0
  136.0428  138.0956  151.7568 C   0  0  0  0  0  0  0  0  0  0  0  0
  134.5793  137.2218  151.4896 Cl  0  0  0  0  0  0  0  0  0  0  0  0
  136.9982  137.6093  152.6685 C   0  0  0  0  0  0  0  0  0  0  0  0
  138.1941  138.3206  152.8876 C   0  0  0  0  0  0  0  0  0  0  0  0
  143.9139  136.1344  152.8317 C   0  0  0  0  0  0  0  0  0  0  0  0
  146.8468  139.5976  152.6136 H   0  0  0  0  0  0  0  0  0  0  0  0
  147.3428  138.1795  151.6850 H   0  0  0  0  0  0  0  0  0  0  0  0
  147.3831  138.1408  153.4572 H   0  0  0  0  0  0  0  0  0  0  0  0
  144.7054  138.6986  152.5448 H   0  0  0  0  0  0  0  0  0  0  0  0
  146.6277  133.8670  151.6356 H   0  0  0  0  0  0  0  0  0  0  0  0
  140.8773  135.6184  153.7176 H   0  0  0  0  0  0  0  0  0  0  0  0
  141.9937  138.0096  154.6650 H   0  0  0  0  0  0  0  0  0  0  0  0
  143.2009  138.6292  153.5742 H   0  0  0  0  0  0  0  0  0  0  0  0
  140.4106  137.7822  152.6223 H   0  0  0  0  0  0  0  0  0  0  0  0
  142.3248  139.4883  151.4674 H   0  0  0  0  0  0  0  0  0  0  0  0
  140.1539  139.6634  154.2442 H   0  0  0  0  0  0  0  0  0  0  0  0
  141.3588  140.5952  153.3481 H   0  0  0  0  0  0  0  0  0  0  0  0
  137.6583  140.9270  150.7460 H   0  0  0  0  0  0  0  0  0  0  0  0
  135.5547  139.6745  150.3632 H   0  0  0  0  0  0  0  0  0  0  0  0
  136.8156  136.6883  153.2026 H   0  0  0  0  0  0  0  0  0  0  0  0
  138.9014  137.9157  153.5951 H   0  0  0  0  0  0  0  0  0  0  0  0
  1  2  1  0  0  0  0
  1 24  1  0  0  0  0
  1 25  1  0  0  0  0
  1 26  1  0  0  0  0
  2  3  1  0  0  0  0
  2 27  1  0  0  0  0
  3 23  1  0  0  0  0
  3  4  2  0  0  0  0
  4  5  1  0  0  0  0
  5  6  2  0  0  0  0
  5 28  1  0  0  0  0
  6  7  1  0  0  0  0
  7 23  2  0  0  0  0
  7  8  1  0  0  0  0
  8  9  2  0  0  0  0
  9 10  1  0  0  0  0
  9 29  1  0  0  0  0
 10 11  1  0  0  0  0
 10 23  1  0  0  0  0
 11 12  1  0  0  0  0
 11 30  1  0  0  0  0
 11 31  1  0  0  0  0
 12 13  1  0  0  0  0
 12 14  1  0  0  0  0
 12 32  1  0  0  0  0
 13 33  1  0  0  0  0
 14 15  1  0  0  0  0
 14 34  1  0  0  0  0
 14 35  1  0  0  0  0
 15 16  1  0  0  0  0
 16 22  1  0  0  0  0
 16 17  2  0  0  0  0
 17 18  1  0  0  0  0
 17 36  1  0  0  0  0
 18 19  2  0  0  0  0
 18 37  1  0  0  0  0
 19 20  1  0  0  0  0
 19 21  1  0  0  0  0
 21 22  2  0  0  0  0
 21 38  1  0  0  0  0
 22 39  1  0  0  0  0
M  END
> <s_m_source_file>
AV-unprocessed.smi

> <i_m_source_file_index>
2669

> <i_lp_mmshare_version>
43012

> <i_f3d_flags>
0

> <s_epik_input>
bjFbY0hdbmMoW05IXVtDSDNdKWMoYzEyKW4oW2NIXW4yKVtDSDJdW0NASF0oW09IXSlbQ0gyXU9jM1tjSF1bY0hdYyhDbClbY0hdW2NIXTM=

> <s_epik_cmdline>
J2VwaWtfcHl0aG9uJywgJy1waCcsICc3LjAnLCAnLXRuJywgJzgnLCAnLW1hJywgJzIwMCcsICctbWV0YWxfYmluZGluZycsICctaW1hZScsICc8aW5maWxlLm1hZT4nLCAnLW9tYWUnLCAnPG91dGZpbGUubWFlPic=

> <r_lp_tautomer_probability>
1

> <r_epik_Ionization_Penalty>
0.00733592

> <r_epik_Ionization_Penalty_Charging>
0

> <r_epik_Ionization_Penalty_Neutral>
0.00733592

> <r_epik_State_Penalty>
-0

> <r_epik_Charging_Adjusted_Penalty>
0

> <i_epik_Tot_Q>
0

> <i_epik_Tot_abs_Q>
0

> <r_epik_Metal_State_Penalty>
-0

> <b_epik_Metal_Only>
0

> <s_lp_Force_Field>
OPLS_2005

> <r_lp_Energy>
12.7517

> <b_lp_Chiralities_Consistent>
1

> <s_lp_Variant>
AV-unprocessed.smi:2669-1

> <Gold.Version>
5.8.1

> <Gold.Id.Protein>
6NUR|6NUR_protein|mol2

> <Gold.PLP.Fitness>
45.6159

> <Gold.PLP.PLP>
-37.1206

> <Gold.PLP.part.hbond>
-3.7312

> <Gold.PLP.part.metal>
0.0000

> <Gold.PLP.part.buried>
-4.4138

> <Gold.PLP.part.nonpolar>
-29.4474

> <Gold.PLP.part.repulsive>
0.7911

> <Gold.PLP.ligand.clash>
0.0000

> <Gold.PLP.ligand.torsion>
0.1562

> <Gold.PLP.Chemscore.Hbond>
1.9280

> <Gold.PLP.Chemscore.CHOScore>
1.0000

> <Gold.PLP.Chemscore.Metal>
0.0000

> <Gold.Chemscore.Hbonds>
donor molecule, donor type, donor heavy atom, donor atom, acceptor molecule, acceptor atom, score
      L1  H     2    27       P1 10175  0.99
      L1  H    13    33       P1 10175  0.35

> <Gold.PLP.Chemscore.Internal.Correction>
0.0237

> <Gold.Rescore>
     Score         DG    S(hbond)    S(metal)    S(lipo)     H(rot)  DE(clash)    DE(int)     intcor
     10.42     -10.88       1.78        0.00      60.37       2.97       0.02       0.43       ----

> <Gold.Chemscore.Fitness>
10.4195

> <Gold.Chemscore.DG>
-10.8751

> <Gold.Chemscore.ZeroCoef>
-5.4800

> <Gold.Chemscore.Hbond>
1.7805

> <Gold.Chemscore.Metal>
0.0000

> <Gold.Chemscore.Lipo>
60.3685

> <Gold.Chemscore.Internal_Hbond>
0.0000

> <Gold.Chemscore.DEClash>
0.0215

> <Gold.Chemscore.DEInternal>
0.4341

> <Gold.Chemscore.Rot>
2.9746

> <Gold.Chemscore.Internal.Correction>
   9.000000E+99

> <Gold.Chemscore.Hbonds>
donor molecule, donor type, donor heavy atom, donor atom, acceptor molecule, acceptor atom, score
      L1  H     2    27       P1 10175  0.92
      L1  H    13    33       P1 10175  0.01

> <Gold.Chemscore.Hbond.Weighted>
-5.9470

> <Gold.Chemscore.Metal.Weighted>
-0.0000

> <Gold.Chemscore.Lipo.Weighted>
-7.0631

> <Gold.Chemscore.Internal_Hbond.Weighted>
0.0000

> <Gold.Chemscore.DEClash.Weighted>
0.0215

> <Gold.Chemscore.DEInternal.Weighted>
0.4341

> <Gold.Chemscore.Rot.Weighted>
7.6150

> <Gold.Chemscore.Internal.Correction.Weighted>
   9.000000E+99

> <Gold.Protein.RotatedTorsions>
[ 6907 6896 6895 6894 ] final -121.30 input  -60.11 | X-H torsion
[ 7974 7965 7964 7962 ] final  103.52 input  175.53 | X-H torsion
[ 8008 7997 7996 7995 ] final  -90.17 input   59.86 | X-H torsion
[ 10167 10162 10161 10158 ] final -127.52 input  -65.29 | X-H torsion
[ 10718 10713 10712 10709 ] final   75.23 input   66.30 | X-H torsion
[ 10763 10752 10751 10750 ] final -172.03 input  -60.55 | X-H torsion
[ 11005 11000 10999 10996 ] final   24.32 input  -57.11 | X-H torsion

> <Gold.Protein.ActiveResidues>
 VAL166  LYS551  ARG553  GLY616  TRP617  ASP618  TYR619  PRO620  LYS621  CYS622 
 ASP623  PHE694  ASN695  SER759  ASP760  ASP761  ALA762  ILE779  LEU786  VAL792 
 PHE793  MET794  SER795  GLU796  ALA797  LYS798  CYS799  TRP800  GLU811  SER814 

> <Gold.Protein.RotatedAtoms>
  150.8471  133.7844  159.3038 H   0  0  0  0  0  0  0  0  0  0  0  0  # atno 6907 bound_to 6896
  151.5528  135.1065  159.9963 H   0  0  0  0  0  0  0  0  0  0  0  0  # atno 6908 bound_to 6896
  152.4522  133.7610  159.6802 H   0  0  0  0  0  0  0  0  0  0  0  0  # atno 6909 bound_to 6896
  145.3448  139.2453  143.3590 H   0  0  0  0  0  0  0  0  0  0  0  0  # atno 7974 bound_to 7965
  154.6953  140.0533  157.0404 H   0  0  0  0  0  0  0  0  0  0  0  0  # atno 8008 bound_to 7997
  155.0759  140.3204  155.4597 H   0  0  0  0  0  0  0  0  0  0  0  0  # atno 8009 bound_to 7997
  156.2742  140.2073  156.5887 H   0  0  0  0  0  0  0  0  0  0  0  0  # atno 8010 bound_to 7997
  139.9599  143.5961  152.2448 H   0  0  0  0  0  0  0  0  0  0  0  0  # atno 10167 bound_to 10162
  157.6625  130.9716  150.1323 H   0  0  0  0  0  0  0  0  0  0  0  0  # atno 10718 bound_to 10713
  154.6238  135.2878  155.0295 H   0  0  0  0  0  0  0  0  0  0  0  0  # atno 10763 bound_to 10752
  154.1480  135.6508  153.4961 H   0  0  0  0  0  0  0  0  0  0  0  0  # atno 10764 bound_to 10752
  153.0248  135.5349  154.7039 H   0  0  0  0  0  0  0  0  0  0  0  0  # atno 10765 bound_to 10752
  140.3600  134.2136  155.7673 H   0  0  0  0  0  0  0  0  0  0  0  0  # atno 11005 bound_to 11000
  146.2992  140.4052  142.8710 LP  0  0  0  0  0  0  0  0  0  0  0  0  # atno 17320 bound_to 7965
  144.8763  140.7340  143.6015 LP  0  0  0  0  0  0  0  0  0  0  0  0  # atno 17321 bound_to 7965
  139.6562  144.7662  151.2052 LP  0  0  0  0  0  0  0  0  0  0  0  0  # atno 17342 bound_to 10162
  140.7556  143.6082  150.8631 LP  0  0  0  0  0  0  0  0  0  0  0  0  # atno 17343 bound_to 10162
  156.2167  130.3671  149.8605 LP  0  0  0  0  0  0  0  0  0  0  0  0  # atno 17370 bound_to 10713
  156.6469  130.8728  151.3524 LP  0  0  0  0  0  0  0  0  0  0  0  0  # atno 17371 bound_to 10713
  141.1987  133.8029  157.0571 LP  0  0  0  0  0  0  0  0  0  0  0  0  # atno 17394 bound_to 11000
  140.0634  134.9742  157.1345 LP  0  0  0  0  0  0  0  0  0  0  0  0  # atno 17395 bound_to 11000

$$$$
