AV-unprocessed.smi:977|AV-procd|sdf|4305|dock9
  -GOLD-   22720 2213D 1   1.00000     0.00000
 Structure written by MMmdl.
 37 38  0  0  0  0  0  0  0  0  1 V2000
  150.6342  135.4888  156.0224 C   0  0  0  0  0  0  0  0  0  0  0  0
  150.3141  134.0603  155.6792 C   0  0  0  0  0  0  0  0  0  0  0  0
  150.9080  133.0862  156.3531 N   0  0  0  0  0  0  0  0  0  0  0  0
  150.3723  131.8803  155.8744 O   0  0  0  0  0  0  0  0  0  0  0  0
  149.4566  132.1578  154.9097 C   0  0  0  0  0  0  0  0  0  0  0  0
  148.7574  130.9986  154.2842 C   0  0  0  0  0  0  0  0  0  0  0  0
  149.4053  133.5083  154.7296 C   0  0  0  0  0  0  0  0  0  0  0  0
  148.5433  134.1718  153.8213 N   0  0  0  0  0  0  0  0  0  0  0  0
  147.2664  133.8568  153.5573 C   0  0  0  0  0  0  0  0  0  0  0  0
  146.6317  132.9683  154.1258 O   0  0  0  0  0  0  0  0  0  0  0  0
  146.7527  134.6486  152.6048 N   0  0  0  0  0  0  0  0  0  0  0  0
  145.3915  134.5674  152.0789 C   0  0  1  0  0  0  0  0  0  0  0  0
  145.1796  135.7286  151.0948 C   0  0  0  0  0  0  0  0  0  0  0  0
  145.1540  133.1903  151.4206 C   0  0  2  0  0  0  0  0  0  0  0  0
  146.1614  132.8324  150.3230 C   0  0  0  0  0  0  0  0  0  0  0  0
  145.3507  131.9264  149.4258 C   0  0  0  0  0  0  0  0  0  0  0  0
  143.9907  132.6098  149.4660 C   0  0  0  0  0  0  0  0  0  0  0  0
  143.8775  133.1435  150.7803 O   0  0  0  0  0  0  0  0  0  0  0  0
  149.7639  136.1313  155.8887 H   0  0  0  0  0  0  0  0  0  0  0  0
  151.4361  135.8731  155.3918 H   0  0  0  0  0  0  0  0  0  0  0  0
  150.9535  135.5882  157.0603 H   0  0  0  0  0  0  0  0  0  0  0  0
  147.9333  131.3309  153.6527 H   0  0  0  0  0  0  0  0  0  0  0  0
  148.3506  130.3345  155.0471 H   0  0  0  0  0  0  0  0  0  0  0  0
  149.4458  130.4226  153.6659 H   0  0  0  0  0  0  0  0  0  0  0  0
  148.9092  135.0068  153.3879 H   0  0  0  0  0  0  0  0  0  0  0  0
  147.3520  135.3533  152.2008 H   0  0  0  0  0  0  0  0  0  0  0  0
  144.6802  134.6935  152.8972 H   0  0  0  0  0  0  0  0  0  0  0  0
  144.1567  135.7507  150.7189 H   0  0  0  0  0  0  0  0  0  0  0  0
  145.8479  135.6491  150.2366 H   0  0  0  0  0  0  0  0  0  0  0  0
  145.3680  136.6890  151.5756 H   0  0  0  0  0  0  0  0  0  0  0  0
  145.1625  132.4056  152.1790 H   0  0  0  0  0  0  0  0  0  0  0  0
  146.4619  133.7232  149.7691 H   0  0  0  0  0  0  0  0  0  0  0  0
  147.0608  132.3535  150.7110 H   0  0  0  0  0  0  0  0  0  0  0  0
  145.7566  131.8427  148.4172 H   0  0  0  0  0  0  0  0  0  0  0  0
  145.2861  130.9265  149.8572 H   0  0  0  0  0  0  0  0  0  0  0  0
  143.9584  133.4345  148.7533 H   0  0  0  0  0  0  0  0  0  0  0  0
  143.1701  131.9298  149.2373 H   0  0  0  0  0  0  0  0  0  0  0  0
  1  2  1  0  0  0  0
  1 19  1  0  0  0  0
  1 20  1  0  0  0  0
  1 21  1  0  0  0  0
  2  7  1  0  0  0  0
  2  3  2  0  0  0  0
  3  4  1  0  0  0  0
  4  5  1  0  0  0  0
  5  6  1  0  0  0  0
  5  7  2  0  0  0  0
  6 22  1  0  0  0  0
  6 23  1  0  0  0  0
  6 24  1  0  0  0  0
  7  8  1  0  0  0  0
  8  9  1  0  0  0  0
  8 25  1  0  0  0  0
  9 10  2  0  0  0  0
  9 11  1  0  0  0  0
 11 12  1  0  0  0  0
 11 26  1  0  0  0  0
 12 13  1  0  0  0  0
 12 14  1  0  0  0  0
 12 27  1  0  0  0  0
 13 28  1  0  0  0  0
 13 29  1  0  0  0  0
 13 30  1  0  0  0  0
 14 18  1  0  0  0  0
 14 15  1  0  0  0  0
 14 31  1  0  0  0  0
 15 16  1  0  0  0  0
 15 32  1  0  0  0  0
 15 33  1  0  0  0  0
 16 17  1  0  0  0  0
 16 34  1  0  0  0  0
 16 35  1  0  0  0  0
 17 18  1  0  0  0  0
 17 36  1  0  0  0  0
 17 37  1  0  0  0  0
M  END
> <s_m_source_file>
AV-unprocessed.smi

> <i_m_source_file_index>
977

> <i_lp_mmshare_version>
43012

> <i_f3d_flags>
0

> <s_epik_input>
W0NIM11jMW5vYyhbQ0gzXSljMVtOSF1DKD1PKVtOSF1bQ0BIXShbQ0gzXSlbQ0BASF0yW0NIMl1bQ0gyXVtDSDJdTzI=

> <s_epik_cmdline>
J2VwaWtfcHl0aG9uJywgJy1waCcsICc3LjAnLCAnLXRuJywgJzgnLCAnLW1hJywgJzIwMCcsICctbWV0YWxfYmluZGluZycsICctaW1hZScsICc8aW5maWxlLm1hZT4nLCAnLW9tYWUnLCAnPG91dGZpbGUubWFlPic=

> <r_lp_tautomer_probability>
1

> <r_epik_Ionization_Penalty>
3.41601e-05

> <r_epik_Ionization_Penalty_Charging>
0

> <r_epik_Ionization_Penalty_Neutral>
3.41601e-05

> <r_epik_State_Penalty>
-0

> <r_epik_Charging_Adjusted_Penalty>
0

> <i_epik_Tot_Q>
0

> <i_epik_Tot_abs_Q>
0

> <r_epik_Metal_State_Penalty>
-0

> <b_epik_Metal_Only>
0

> <s_lp_Force_Field>
OPLS_2005

> <r_lp_Energy>
19.7508

> <b_lp_Chiralities_Consistent>
1

> <s_lp_Variant>
AV-unprocessed.smi:977-2

> <Gold.Version>
5.8.1

> <Gold.Id.Protein>
6NUR|6NUR_protein|mol2

> <Gold.PLP.Fitness>
37.5281

> <Gold.PLP.PLP>
-32.0948

> <Gold.PLP.part.hbond>
-2.0000

> <Gold.PLP.part.metal>
0.0000

> <Gold.PLP.part.buried>
-5.3548

> <Gold.PLP.part.nonpolar>
-25.2702

> <Gold.PLP.part.repulsive>
0.2680

> <Gold.PLP.ligand.clash>
0.0000

> <Gold.PLP.ligand.torsion>
0.3755

> <Gold.PLP.Chemscore.Hbond>
1.9760

> <Gold.PLP.Chemscore.CHOScore>
0.0000

> <Gold.PLP.Chemscore.Metal>
0.0000

> <Gold.Chemscore.Hbonds>
donor molecule, donor type, donor heavy atom, donor atom, acceptor molecule, acceptor atom, score
      L1  H     8    25       P1  7948  0.98
      L1  H    11    26       P1  7948  1.00

> <Gold.PLP.Chemscore.Internal.Correction>
0.2562

> <Gold.Rescore>
     Score         DG    S(hbond)    S(metal)    S(lipo)     H(rot)  DE(clash)    DE(int)     intcor
     16.55     -17.27       1.73        0.00      77.92       1.22       0.20       0.51       ----

> <Gold.Chemscore.Fitness>
16.5526

> <Gold.Chemscore.DG>
-17.2667

> <Gold.Chemscore.ZeroCoef>
-5.4800

> <Gold.Chemscore.Hbond>
1.7346

> <Gold.Chemscore.Metal>
0.0000

> <Gold.Chemscore.Lipo>
77.9166

> <Gold.Chemscore.Internal_Hbond>
0.0000

> <Gold.Chemscore.DEClash>
0.2037

> <Gold.Chemscore.DEInternal>
0.5104

> <Gold.Chemscore.Rot>
1.2200

> <Gold.Chemscore.Internal.Correction>
   9.000000E+99

> <Gold.Chemscore.Hbonds>
donor molecule, donor type, donor heavy atom, donor atom, acceptor molecule, acceptor atom, score
      L1  H     8    25       P1  7948  0.37
      L1  H    11    26       P1  7948  0.98

> <Gold.Chemscore.Hbond.Weighted>
-5.7937

> <Gold.Chemscore.Metal.Weighted>
-0.0000

> <Gold.Chemscore.Lipo.Weighted>
-9.1162

> <Gold.Chemscore.Internal_Hbond.Weighted>
0.0000

> <Gold.Chemscore.DEClash.Weighted>
0.2037

> <Gold.Chemscore.DEInternal.Weighted>
0.5104

> <Gold.Chemscore.Rot.Weighted>
3.1232

> <Gold.Chemscore.Internal.Correction.Weighted>
   9.000000E+99

> <Gold.Protein.RotatedTorsions>
[ 6907 6896 6895 6894 ] final  102.54 input  -60.11 | X-H torsion
[ 7974 7965 7964 7962 ] final  124.36 input  175.53 | X-H torsion
[ 8008 7997 7996 7995 ] final   29.04 input   59.86 | X-H torsion
[ 10167 10162 10161 10158 ] final  124.48 input  -65.29 | X-H torsion
[ 10718 10713 10712 10709 ] final  -37.82 input   66.30 | X-H torsion
[ 10763 10752 10751 10750 ] final  133.62 input  -60.55 | X-H torsion
[ 11005 11000 10999 10996 ] final  -42.02 input  -57.11 | X-H torsion

> <Gold.Protein.ActiveResidues>
 VAL166  LYS551  ARG553  GLY616  TRP617  ASP618  TYR619  PRO620  LYS621  CYS622 
 ASP623  PHE694  ASN695  SER759  ASP760  ASP761  ALA762  ILE779  LEU786  VAL792 
 PHE793  MET794  SER795  GLU796  ALA797  LYS798  CYS799  TRP800  GLU811  SER814 

> <Gold.Protein.RotatedAtoms>
  152.5321  133.9960  159.7872 H   0  0  0  0  0  0  0  0  0  0  0  0  # atno 6907 bound_to 6896
  151.0187  133.5888  159.2681 H   0  0  0  0  0  0  0  0  0  0  0  0  # atno 6908 bound_to 6896
  151.2936  135.0756  159.9266 H   0  0  0  0  0  0  0  0  0  0  0  0  # atno 6909 bound_to 6896
  145.0853  139.3627  143.4888 H   0  0  0  0  0  0  0  0  0  0  0  0  # atno 7974 bound_to 7965
  155.0682  140.3197  155.4639 H   0  0  0  0  0  0  0  0  0  0  0  0  # atno 8008 bound_to 7997
  156.2797  140.2116  156.5754 H   0  0  0  0  0  0  0  0  0  0  0  0  # atno 8009 bound_to 7997
  154.7076  140.0501  157.0506 H   0  0  0  0  0  0  0  0  0  0  0  0  # atno 8010 bound_to 7997
  139.5739  144.6953  151.3705 H   0  0  0  0  0  0  0  0  0  0  0  0  # atno 10167 bound_to 10162
  156.3108  130.4252  149.8052 H   0  0  0  0  0  0  0  0  0  0  0  0  # atno 10718 bound_to 10713
  153.8102  135.3130  155.3400 H   0  0  0  0  0  0  0  0  0  0  0  0  # atno 10763 bound_to 10752
  154.8054  135.4701  154.0383 H   0  0  0  0  0  0  0  0  0  0  0  0  # atno 10764 bound_to 10752
  153.1759  135.6885  153.8633 H   0  0  0  0  0  0  0  0  0  0  0  0  # atno 10765 bound_to 10752
  141.0286  133.6830  156.2537 H   0  0  0  0  0  0  0  0  0  0  0  0  # atno 11005 bound_to 11000
  146.3531  140.0662  142.8626 LP  0  0  0  0  0  0  0  0  0  0  0  0  # atno 17320 bound_to 7965
  145.1130  140.9416  143.4645 LP  0  0  0  0  0  0  0  0  0  0  0  0  # atno 17321 bound_to 7965
  140.7022  143.7602  150.7423 LP  0  0  0  0  0  0  0  0  0  0  0  0  # atno 17342 bound_to 10162
  140.1116  143.4694  152.2366 LP  0  0  0  0  0  0  0  0  0  0  0  0  # atno 17343 bound_to 10162
  156.5396  130.8294  151.3264 LP  0  0  0  0  0  0  0  0  0  0  0  0  # atno 17370 bound_to 10713
  157.7390  130.9824  150.2289 LP  0  0  0  0  0  0  0  0  0  0  0  0  # atno 17371 bound_to 10713
  140.6446  134.5130  157.5572 LP  0  0  0  0  0  0  0  0  0  0  0  0  # atno 17394 bound_to 11000
  139.9193  134.8182  156.1264 LP  0  0  0  0  0  0  0  0  0  0  0  0  # atno 17395 bound_to 11000

$$$$
