AV-unprocessed.smi:1670|AV-procd|sdf|6695|dock5
  -GOLD-   22720 7433D 1   1.00000     0.00000
 Structure written by MMmdl.
 41 42  0  0  0  0  0  0  0  0  1 V2000
  152.3493  138.7342  154.9676 C   0  0  0  0  0  0  0  0  0  0  0  0
  150.9078  139.1071  155.3402 C   0  0  2  0  0  0  0  0  0  0  0  0
  149.9918  139.1272  154.0971 C   0  0  0  0  0  0  0  0  0  0  0  0
  148.9372  140.1222  154.1952 N   0  0  0  0  0  0  0  0  0  0  0  0
  147.6173  139.9387  154.5497 C   0  0  0  0  0  0  0  0  0  0  0  0
  147.0161  141.1645  154.5256 C   0  0  0  0  0  0  0  0  0  0  0  0
  148.0627  142.0468  154.1369 C   0  0  0  0  0  0  0  0  0  0  0  0
  149.2099  141.4198  153.9347 N   0  0  0  0  0  0  0  0  0  0  0  0
  150.9087  140.4096  156.0057 N   0  0  0  0  0  0  0  0  0  0  0  0
  151.7884  140.8059  156.9373 C   0  0  0  0  0  0  0  0  0  0  0  0
  152.7563  140.1388  157.3038 O   0  0  0  0  0  0  0  0  0  0  0  0
  151.4664  142.0027  157.4464 N   0  0  0  0  0  0  0  0  0  0  0  0
  152.1774  142.6702  158.5324 C   0  0  2  0  0  0  0  0  0  0  0  0
  152.2635  141.7531  159.7706 C   0  0  0  0  0  0  0  0  0  0  0  0
  152.9506  142.4613  160.9512 C   0  0  0  0  0  0  0  0  0  0  0  0
  152.2804  143.8042  161.2978 C   0  0  2  0  0  0  0  0  0  0  0  0
  151.0070  143.5784  161.8696 O   0  0  0  0  0  0  0  0  0  0  0  0
  152.1491  144.7083  160.0574 C   0  0  0  0  0  0  0  0  0  0  0  0
  151.4646  143.9893  158.8815 C   0  0  0  0  0  0  0  0  0  0  0  0
  152.3900  137.7535  154.4928 H   0  0  0  0  0  0  0  0  0  0  0  0
  152.9868  138.6973  155.8516 H   0  0  0  0  0  0  0  0  0  0  0  0
  152.7810  139.4571  154.2745 H   0  0  0  0  0  0  0  0  0  0  0  0
  150.5445  138.3405  156.0271 H   0  0  0  0  0  0  0  0  0  0  0  0
  150.5754  139.3101  153.1930 H   0  0  0  0  0  0  0  0  0  0  0  0
  149.5176  138.1535  153.9675 H   0  0  0  0  0  0  0  0  0  0  0  0
  147.2234  138.9635  154.7953 H   0  0  0  0  0  0  0  0  0  0  0  0
  145.9867  141.3964  154.7545 H   0  0  0  0  0  0  0  0  0  0  0  0
  148.0228  143.1169  153.9962 H   0  0  0  0  0  0  0  0  0  0  0  0
  150.1488  141.0339  155.7782 H   0  0  0  0  0  0  0  0  0  0  0  0
  150.6490  142.4706  157.0831 H   0  0  0  0  0  0  0  0  0  0  0  0
  153.1887  142.9081  158.1967 H   0  0  0  0  0  0  0  0  0  0  0  0
  151.2626  141.4361  160.0667 H   0  0  0  0  0  0  0  0  0  0  0  0
  152.8117  140.8414  159.5295 H   0  0  0  0  0  0  0  0  0  0  0  0
  152.9649  141.8075  161.8240 H   0  0  0  0  0  0  0  0  0  0  0  0
  153.9944  142.6429  160.6921 H   0  0  0  0  0  0  0  0  0  0  0  0
  152.8795  144.3180  162.0503 H   0  0  0  0  0  0  0  0  0  0  0  0
  150.5525  144.4050  161.9259 H   0  0  0  0  0  0  0  0  0  0  0  0
  151.6040  145.6188  160.3085 H   0  0  0  0  0  0  0  0  0  0  0  0
  153.1440  145.0271  159.7442 H   0  0  0  0  0  0  0  0  0  0  0  0
  151.4491  144.6470  158.0117 H   0  0  0  0  0  0  0  0  0  0  0  0
  150.4221  143.7909  159.1346 H   0  0  0  0  0  0  0  0  0  0  0  0
  1  2  1  0  0  0  0
  1 20  1  0  0  0  0
  1 21  1  0  0  0  0
  1 22  1  0  0  0  0
  2  3  1  0  0  0  0
  2  9  1  0  0  0  0
  2 23  1  0  0  0  0
  3  4  1  0  0  0  0
  3 24  1  0  0  0  0
  3 25  1  0  0  0  0
  4  8  1  0  0  0  0
  4  5  1  0  0  0  0
  5  6  2  0  0  0  0
  5 26  1  0  0  0  0
  6  7  1  0  0  0  0
  6 27  1  0  0  0  0
  7  8  2  0  0  0  0
  7 28  1  0  0  0  0
  9 10  1  0  0  0  0
  9 29  1  0  0  0  0
 10 11  2  0  0  0  0
 10 12  1  0  0  0  0
 12 13  1  0  0  0  0
 12 30  1  0  0  0  0
 13 19  1  0  0  0  0
 13 14  1  0  0  0  0
 13 31  1  0  0  0  0
 14 15  1  0  0  0  0
 14 32  1  0  0  0  0
 14 33  1  0  0  0  0
 15 16  1  0  0  0  0
 15 34  1  0  0  0  0
 15 35  1  0  0  0  0
 16 17  1  0  0  0  0
 16 18  1  0  0  0  0
 16 36  1  0  0  0  0
 17 37  1  0  0  0  0
 18 19  1  0  0  0  0
 18 38  1  0  0  0  0
 18 39  1  0  0  0  0
 19 40  1  0  0  0  0
 19 41  1  0  0  0  0
M  END
> <s_m_source_file>
AV-unprocessed.smi

> <i_m_source_file_index>
1670

> <i_lp_mmshare_version>
43012

> <i_f3d_flags>
0

> <s_epik_input>
bjFbY0hdW2NIXVtjSF1uMVtDSDJdW0NAQEhdKFtDSDNdKVtOSF1DKD1PKVtOSF1bQ0BASF0yW0NIMl1bQ0gyXVtDQEBIXShbT0hdKVtDSDJdW0NIMl0y

> <s_epik_cmdline>
J2VwaWtfcHl0aG9uJywgJy1waCcsICc3LjAnLCAnLXRuJywgJzgnLCAnLW1hJywgJzIwMCcsICctbWV0YWxfYmluZGluZycsICctaW1hZScsICc8aW5maWxlLm1hZT4nLCAnLW9tYWUnLCAnPG91dGZpbGUubWFlPic=

> <r_lp_tautomer_probability>
1

> <r_epik_Ionization_Penalty>
7.33369e-05

> <r_epik_Ionization_Penalty_Charging>
0

> <r_epik_Ionization_Penalty_Neutral>
7.33369e-05

> <r_epik_State_Penalty>
-0

> <r_epik_Charging_Adjusted_Penalty>
0

> <i_epik_Tot_Q>
0

> <i_epik_Tot_abs_Q>
0

> <r_epik_Metal_State_Penalty>
-0

> <b_epik_Metal_Only>
0

> <s_lp_Force_Field>
OPLS_2005

> <r_lp_Energy>
7.35879

> <b_lp_Chiralities_Consistent>
1

> <s_lp_Variant>
AV-unprocessed.smi:1670-3

> <Gold.Version>
5.8.1

> <Gold.Id.Protein>
6NUR|6NUR_protein|mol2

> <Gold.PLP.Fitness>
50.1374

> <Gold.PLP.PLP>
-42.7431

> <Gold.PLP.part.hbond>
-4.9286

> <Gold.PLP.part.metal>
0.0000

> <Gold.PLP.part.buried>
-1.8175

> <Gold.PLP.part.nonpolar>
-34.8574

> <Gold.PLP.part.repulsive>
0.3487

> <Gold.PLP.ligand.clash>
0.0000

> <Gold.PLP.ligand.torsion>
0.9409

> <Gold.PLP.Chemscore.Hbond>
2.1736

> <Gold.PLP.Chemscore.CHOScore>
0.9114

> <Gold.PLP.Chemscore.Metal>
0.0000

> <Gold.Chemscore.Hbonds>
donor molecule, donor type, donor heavy atom, donor atom, acceptor molecule, acceptor atom, score
      P1  H  6933  6945       L1    17  0.36
      P1  H  7997  8008       L1    11  1.00
      P1  H  8011  8017       L1     8  0.68
      L1  C     7    28       P1  8028  0.89

> <Gold.PLP.Chemscore.Internal.Correction>
0.0210

> <Gold.Rescore>
     Score         DG    S(hbond)    S(metal)    S(lipo)     H(rot)  DE(clash)    DE(int)     intcor
     13.21     -17.92       1.78        0.00     104.11       2.22       1.32       3.39       ----

> <Gold.Chemscore.Fitness>
13.2111

> <Gold.Chemscore.DG>
-17.9179

> <Gold.Chemscore.ZeroCoef>
-5.4800

> <Gold.Chemscore.Hbond>
1.7802

> <Gold.Chemscore.Metal>
0.0000

> <Gold.Chemscore.Lipo>
104.1130

> <Gold.Chemscore.Internal_Hbond>
0.0000

> <Gold.Chemscore.DEClash>
1.3184

> <Gold.Chemscore.DEInternal>
3.3884

> <Gold.Chemscore.Rot>
2.2224

> <Gold.Chemscore.Internal.Correction>
   9.000000E+99

> <Gold.Chemscore.Hbonds>
donor molecule, donor type, donor heavy atom, donor atom, acceptor molecule, acceptor atom, score
      P1  H  6933  6945       L1    17  0.34
      P1  H  7997  8008       L1    11  0.95
      P1  H  8011  8017       L1     8  0.13

> <Gold.Chemscore.Hbond.Weighted>
-5.9459

> <Gold.Chemscore.Metal.Weighted>
-0.0000

> <Gold.Chemscore.Lipo.Weighted>
-12.1812

> <Gold.Chemscore.Internal_Hbond.Weighted>
0.0000

> <Gold.Chemscore.DEClash.Weighted>
1.3184

> <Gold.Chemscore.DEInternal.Weighted>
3.3884

> <Gold.Chemscore.Rot.Weighted>
5.6893

> <Gold.Chemscore.Internal.Correction.Weighted>
   9.000000E+99

> <Gold.Protein.RotatedTorsions>
[ 6907 6896 6895 6894 ] final  179.19 input  -60.11 | X-H torsion
[ 7974 7965 7964 7962 ] final   18.37 input  175.53 | X-H torsion
[ 8008 7997 7996 7995 ] final  -71.92 input   59.86 | X-H torsion
[ 10167 10162 10161 10158 ] final -172.40 input  -65.29 | X-H torsion
[ 10718 10713 10712 10709 ] final  -45.19 input   66.30 | X-H torsion
[ 10763 10752 10751 10750 ] final -154.03 input  -60.55 | X-H torsion
[ 11005 11000 10999 10996 ] final  158.73 input  -57.11 | X-H torsion

> <Gold.Protein.ActiveResidues>
 VAL166  LYS551  ARG553  GLY616  TRP617  ASP618  TYR619  PRO620  LYS621  CYS622 
 ASP623  PHE694  ASN695  SER759  ASP760  ASP761  ALA762  ILE779  LEU786  VAL792 
 PHE793  MET794  SER795  GLU796  ALA797  LYS798  CYS799  TRP800  GLU811  SER814 

> <Gold.Protein.RotatedAtoms>
  151.6757  133.3313  159.3207 H   0  0  0  0  0  0  0  0  0  0  0  0  # atno 6907 bound_to 6896
  150.7846  134.6824  159.6461 H   0  0  0  0  0  0  0  0  0  0  0  0  # atno 6908 bound_to 6896
  152.3913  134.6440  160.0158 H   0  0  0  0  0  0  0  0  0  0  0  0  # atno 6909 bound_to 6896
  146.2187  139.8466  142.8630 H   0  0  0  0  0  0  0  0  0  0  0  0  # atno 7974 bound_to 7965
  154.5126  140.0806  156.8018 H   0  0  0  0  0  0  0  0  0  0  0  0  # atno 8008 bound_to 7997
  155.3752  140.3425  155.4226 H   0  0  0  0  0  0  0  0  0  0  0  0  # atno 8009 bound_to 7997
  156.1590  140.1582  156.8631 H   0  0  0  0  0  0  0  0  0  0  0  0  # atno 8010 bound_to 7997
  139.5747  144.1560  152.1433 H   0  0  0  0  0  0  0  0  0  0  0  0  # atno 10167 bound_to 10162
  156.2309  130.4172  149.8876 H   0  0  0  0  0  0  0  0  0  0  0  0  # atno 10718 bound_to 10713
  154.7887  135.3199  154.7827 H   0  0  0  0  0  0  0  0  0  0  0  0  # atno 10763 bound_to 10752
  153.8521  135.6861  153.4795 H   0  0  0  0  0  0  0  0  0  0  0  0  # atno 10764 bound_to 10752
  153.1549  135.4684  154.9629 H   0  0  0  0  0  0  0  0  0  0  0  0  # atno 10765 bound_to 10752
  140.1894  134.8418  157.2894 H   0  0  0  0  0  0  0  0  0  0  0  0  # atno 11005 bound_to 11000
  145.2844  141.0148  143.3699 LP  0  0  0  0  0  0  0  0  0  0  0  0  # atno 17320 bound_to 7965
  144.9125  139.4511  143.6580 LP  0  0  0  0  0  0  0  0  0  0  0  0  # atno 17321 bound_to 7965
  140.1101  144.5465  150.6931 LP  0  0  0  0  0  0  0  0  0  0  0  0  # atno 17342 bound_to 10162
  140.7030  143.2448  151.4809 LP  0  0  0  0  0  0  0  0  0  0  0  0  # atno 17343 bound_to 10162
  156.6491  130.8736  151.3528 LP  0  0  0  0  0  0  0  0  0  0  0  0  # atno 17370 bound_to 10713
  157.7132  130.9466  150.1163 LP  0  0  0  0  0  0  0  0  0  0  0  0  # atno 17371 bound_to 10713
  140.2177  134.4061  155.7581 LP  0  0  0  0  0  0  0  0  0  0  0  0  # atno 17394 bound_to 11000
  141.2226  133.7150  156.8440 LP  0  0  0  0  0  0  0  0  0  0  0  0  # atno 17395 bound_to 11000

$$$$
