AV-unprocessed.smi:2597|AV-procd|sdf|10177|dock8
  -GOLD-   2272014193D 1   1.00000     0.00000
 Structure written by MMmdl.
 30 31  0  0  0  0  0  0  0  0  1 V2000
  149.5494  143.1298  157.4294 N   0  0  0  0  0  0  0  0  0  0  0  0
  150.5703  142.8777  158.4314 C   0  0  2  0  0  0  0  0  0  0  0  0
  151.7794  143.8081  158.2061 C   0  0  0  0  0  0  0  0  0  0  0  0
  152.8800  143.5455  159.2464 C   0  0  0  0  0  0  0  0  0  0  0  0
  153.3023  142.0678  159.2695 C   0  0  0  0  0  0  0  0  0  0  0  0
  152.0944  141.1422  159.5065 C   0  0  0  0  0  0  0  0  0  0  0  0
  150.9427  141.3701  158.5015 C   0  0  2  0  0  0  0  0  0  0  0  0
  151.2074  140.7325  157.2090 N   0  0  0  0  0  0  0  0  0  0  0  0
  152.2074  139.8266  156.9154 C   0  0  0  0  0  0  0  0  0  0  0  0
  152.0330  139.5662  155.5864 C   0  0  0  0  0  0  0  0  0  0  0  0
  152.8081  138.6512  154.6893 C   0  0  0  0  0  0  0  0  0  0  0  0
  154.1306  139.1427  154.6558 O   0  0  0  0  0  0  0  0  0  0  0  0
  150.9574  140.3203  155.1234 N   0  0  0  0  0  0  0  0  0  0  0  0
  150.4754  141.0180  156.1026 N   0  0  0  0  0  0  0  0  0  0  0  0
  150.1303  143.1481  159.3921 H   0  0  0  0  0  0  0  0  0  0  0  0
  150.0711  140.8534  158.9063 H   0  0  0  0  0  0  0  0  0  0  0  0
  149.6592  144.0614  157.0548 H   0  0  0  0  0  0  0  0  0  0  0  0
  149.6634  142.4901  156.6562 H   0  0  0  0  0  0  0  0  0  0  0  0
  152.1856  143.6886  157.2023 H   0  0  0  0  0  0  0  0  0  0  0  0
  151.4616  144.8492  158.2753 H   0  0  0  0  0  0  0  0  0  0  0  0
  153.7450  144.1757  159.0382 H   0  0  0  0  0  0  0  0  0  0  0  0
  152.5197  143.8340  160.2348 H   0  0  0  0  0  0  0  0  0  0  0  0
  153.8006  141.8107  158.3354 H   0  0  0  0  0  0  0  0  0  0  0  0
  154.0418  141.9110  160.0551 H   0  0  0  0  0  0  0  0  0  0  0  0
  152.4130  140.0992  159.4850 H   0  0  0  0  0  0  0  0  0  0  0  0
  151.7178  141.3187  160.5148 H   0  0  0  0  0  0  0  0  0  0  0  0
  152.9178  139.4610  157.6416 H   0  0  0  0  0  0  0  0  0  0  0  0
  152.8060  137.6253  155.0595 H   0  0  0  0  0  0  0  0  0  0  0  0
  152.3952  138.6425  153.6802 H   0  0  0  0  0  0  0  0  0  0  0  0
  154.3777  139.2768  153.7539 H   0  0  0  0  0  0  0  0  0  0  0  0
  1  2  1  0  0  0  0
  1 17  1  0  0  0  0
  1 18  1  0  0  0  0
  2 15  1  0  0  0  0
  2  7  1  0  0  0  0
  2  3  1  0  0  0  0
  3  4  1  0  0  0  0
  3 19  1  0  0  0  0
  3 20  1  0  0  0  0
  4  5  1  0  0  0  0
  4 21  1  0  0  0  0
  4 22  1  0  0  0  0
  5  6  1  0  0  0  0
  5 23  1  0  0  0  0
  5 24  1  0  0  0  0
  6  7  1  0  0  0  0
  6 25  1  0  0  0  0
  6 26  1  0  0  0  0
  7 16  1  0  0  0  0
  7  8  1  0  0  0  0
  8 14  1  0  0  0  0
  8  9  1  0  0  0  0
  9 10  2  0  0  0  0
  9 27  1  0  0  0  0
 10 11  1  0  0  0  0
 10 13  1  0  0  0  0
 11 12  1  0  0  0  0
 11 28  1  0  0  0  0
 11 29  1  0  0  0  0
 12 30  1  0  0  0  0
 13 14  2  0  0  0  0
M  END
> <s_m_source_file>
AV-unprocessed.smi

> <i_m_source_file_index>
2597

> <i_lp_mmshare_version>
43012

> <i_f3d_flags>
0

> <s_epik_input>
W05IMl1bQ0BIXTFbQ0gyXVtDSDJdW0NIMl1bQ0gyXVtDQEhdMW4yW2NIXWMobm4yKVtDSDJdW09IXQ==

> <s_epik_cmdline>
J2VwaWtfcHl0aG9uJywgJy1waCcsICc3LjAnLCAnLXRuJywgJzgnLCAnLW1hJywgJzIwMCcsICctbWV0YWxfYmluZGluZycsICctaW1hZScsICc8aW5maWxlLm1hZT4nLCAnLW9tYWUnLCAnPG91dGZpbGUubWFlPic=

> <r_lp_tautomer_probability>
1

> <r_epik_Ionization_Penalty>
2.21303

> <r_epik_Ionization_Penalty_Charging>
0

> <r_epik_Ionization_Penalty_Neutral>
2.21303

> <r_epik_State_Penalty>
2.3573

> <r_epik_Charging_Adjusted_Penalty>
2.3573

> <i_epik_Tot_Q>
0

> <i_epik_Tot_abs_Q>
0

> <r_epik_Metal_State_Penalty>
2.35724

> <b_epik_Metal_Only>
0

> <s_lp_Force_Field>
OPLS_2005

> <r_lp_Energy>
16.7408

> <b_lp_Chiralities_Consistent>
1

> <s_lp_Variant>
AV-unprocessed.smi:2597-8

> <Gold.Version>
5.8.1

> <Gold.Id.Protein>
6NUR|6NUR_protein|mol2

> <Gold.PLP.Fitness>
37.9078

> <Gold.PLP.PLP>
-30.9830

> <Gold.PLP.part.hbond>
-2.8647

> <Gold.PLP.part.metal>
0.0000

> <Gold.PLP.part.buried>
-3.8440

> <Gold.PLP.part.nonpolar>
-24.3522

> <Gold.PLP.part.repulsive>
0.0921

> <Gold.PLP.ligand.clash>
0.0000

> <Gold.PLP.ligand.torsion>
0.4201

> <Gold.PLP.Chemscore.Hbond>
2.5680

> <Gold.PLP.Chemscore.CHOScore>
0.0000

> <Gold.PLP.Chemscore.Metal>
0.0000

> <Gold.Chemscore.Hbonds>
donor molecule, donor type, donor heavy atom, donor atom, acceptor molecule, acceptor atom, score
      L1  H     1    17       P1  8028  0.58
      P1  H  7989  7998       L1    13  1.00
      P1  H  7997  8010       L1    12  0.99

> <Gold.PLP.Chemscore.Internal.Correction>
0.0609

> <Gold.Rescore>
     Score         DG    S(hbond)    S(metal)    S(lipo)     H(rot)  DE(clash)    DE(int)     intcor
     15.23     -17.60       2.35        0.00      76.32       1.82       0.00       2.37       ----

> <Gold.Chemscore.Fitness>
15.2344

> <Gold.Chemscore.DG>
-17.6027

> <Gold.Chemscore.ZeroCoef>
-5.4800

> <Gold.Chemscore.Hbond>
2.3529

> <Gold.Chemscore.Metal>
0.0000

> <Gold.Chemscore.Lipo>
76.3159

> <Gold.Chemscore.Internal_Hbond>
0.0000

> <Gold.Chemscore.DEClash>
0.0000

> <Gold.Chemscore.DEInternal>
2.3683

> <Gold.Chemscore.Rot>
1.8222

> <Gold.Chemscore.Internal.Correction>
   9.000000E+99

> <Gold.Chemscore.Hbonds>
donor molecule, donor type, donor heavy atom, donor atom, acceptor molecule, acceptor atom, score
      L1  H     1    17       P1  8028  0.39
      P1  H  7989  7998       L1    13  0.25
      P1  H  7997  8010       L1    12  0.77

> <Gold.Chemscore.Hbond.Weighted>
-7.8587

> <Gold.Chemscore.Metal.Weighted>
-0.0000

> <Gold.Chemscore.Lipo.Weighted>
-8.9290

> <Gold.Chemscore.Internal_Hbond.Weighted>
0.0000

> <Gold.Chemscore.DEClash.Weighted>
0.0000

> <Gold.Chemscore.DEInternal.Weighted>
2.3683

> <Gold.Chemscore.Rot.Weighted>
4.6649

> <Gold.Chemscore.Internal.Correction.Weighted>
   9.000000E+99

> <Gold.Protein.RotatedTorsions>
[ 6907 6896 6895 6894 ] final   76.89 input  -60.11 | X-H torsion
[ 7974 7965 7964 7962 ] final  -91.37 input  175.53 | X-H torsion
[ 8008 7997 7996 7995 ] final  126.47 input   59.86 | X-H torsion
[ 10167 10162 10161 10158 ] final   17.80 input  -65.29 | X-H torsion
[ 10718 10713 10712 10709 ] final   53.55 input   66.30 | X-H torsion
[ 10763 10752 10751 10750 ] final   93.01 input  -60.55 | X-H torsion
[ 11005 11000 10999 10996 ] final   45.24 input  -57.11 | X-H torsion

> <Gold.Protein.ActiveResidues>
 VAL166  LYS551  ARG553  GLY616  TRP617  ASP618  TYR619  PRO620  LYS621  CYS622 
 ASP623  PHE694  ASN695  SER759  ASP760  ASP761  ALA762  ILE779  LEU786  VAL792 
 PHE793  MET794  SER795  GLU796  ALA797  LYS798  CYS799  TRP800  GLU811  SER814 

> <Gold.Protein.RotatedAtoms>
  152.5093  134.3900  159.9380 H   0  0  0  0  0  0  0  0  0  0  0  0  # atno 6907 bound_to 6896
  151.3860  133.3799  159.2723 H   0  0  0  0  0  0  0  0  0  0  0  0  # atno 6908 bound_to 6896
  150.9469  134.8893  159.7706 H   0  0  0  0  0  0  0  0  0  0  0  0  # atno 6909 bound_to 6896
  145.4140  140.9547  143.2218 H   0  0  0  0  0  0  0  0  0  0  0  0  # atno 7974 bound_to 7965
  156.2865  140.2692  156.2116 H   0  0  0  0  0  0  0  0  0  0  0  0  # atno 8008 bound_to 7997
  155.0258  140.0386  157.2473 H   0  0  0  0  0  0  0  0  0  0  0  0  # atno 8009 bound_to 7997
  154.7396  140.2722  155.6389 H   0  0  0  0  0  0  0  0  0  0  0  0  # atno 8010 bound_to 7997
  140.5700  143.9180  150.6705 H   0  0  0  0  0  0  0  0  0  0  0  0  # atno 10167 bound_to 10162
  157.5177  130.8544  149.8517 H   0  0  0  0  0  0  0  0  0  0  0  0  # atno 10718 bound_to 10713
  153.2256  135.4340  155.0538 H   0  0  0  0  0  0  0  0  0  0  0  0  # atno 10763 bound_to 10752
  154.8271  135.3367  154.6863 H   0  0  0  0  0  0  0  0  0  0  0  0  # atno 10764 bound_to 10752
  153.7293  135.7012  153.5049 H   0  0  0  0  0  0  0  0  0  0  0  0  # atno 10765 bound_to 10752
  140.1478  134.4501  155.8403 H   0  0  0  0  0  0  0  0  0  0  0  0  # atno 11005 bound_to 11000
  144.8290  139.5661  143.6952 LP  0  0  0  0  0  0  0  0  0  0  0  0  # atno 17320 bound_to 7965
  146.2690  139.6590  142.9309 LP  0  0  0  0  0  0  0  0  0  0  0  0  # atno 17321 bound_to 7965
  140.2652  143.3495  152.1287 LP  0  0  0  0  0  0  0  0  0  0  0  0  # atno 17342 bound_to 10162
  139.5112  144.6897  151.5792 LP  0  0  0  0  0  0  0  0  0  0  0  0  # atno 17343 bound_to 10162
  156.0332  130.3759  150.1632 LP  0  0  0  0  0  0  0  0  0  0  0  0  # atno 17370 bound_to 10713
  156.9820  130.9867  151.3435 LP  0  0  0  0  0  0  0  0  0  0  0  0  # atno 17371 bound_to 10713
  141.2195  133.6859  156.7365 LP  0  0  0  0  0  0  0  0  0  0  0  0  # atno 17394 bound_to 11000
  140.2642  134.8443  157.3787 LP  0  0  0  0  0  0  0  0  0  0  0  0  # atno 17395 bound_to 11000

$$$$
