AV-unprocessed.smi:157|AV-procd|sdf|1304|dock5
  -GOLD-   2262018593D 1   1.00000     0.00000
 Structure written by MMmdl.
 35 37  0  0  0  0  0  0  0  0  1 V2000
  153.8174  137.2670  156.0063 O   0  0  0  0  0  0  0  0  0  0  0  0
  153.8938  137.3192  157.4150 C   0  0  0  0  0  0  0  0  0  0  0  0
  152.7759  138.2076  157.9838 C   0  0  2  0  0  0  0  0  0  0  0  0
  153.0646  139.5761  157.6903 O   0  0  0  0  0  0  0  0  0  0  0  0
  153.0258  140.3319  158.8611 C   0  0  1  0  0  0  0  0  0  0  0  0
  152.3882  141.6524  158.5646 N   0  0  0  0  0  0  0  0  0  0  0  0
  151.7543  141.9879  157.4333 C   0  0  0  0  0  0  0  0  0  0  0  0
  151.2685  143.2174  157.4198 N   0  0  0  0  0  0  0  0  0  0  0  0
  151.6132  143.7286  158.6696 C   0  0  0  0  0  0  0  0  0  0  0  0
  152.3030  142.7707  159.3993 C   0  0  0  0  0  0  0  0  0  0  0  0
  152.8775  142.6971  160.6539 N   0  0  0  0  0  0  0  0  0  0  0  0
  152.5221  143.5726  161.5407 C   0  0  0  0  0  0  0  0  0  0  0  0
  151.6900  144.6771  161.4274 N   0  0  0  0  0  0  0  0  0  0  0  0
  151.7937  145.6505  160.3540 C   0  0  0  0  0  0  0  0  0  0  0  0
  151.2467  145.1432  159.0143 C   0  0  2  0  0  0  0  0  0  0  0  0
  149.8354  145.2125  159.0296 O   0  0  0  0  0  0  0  0  0  0  0  0
  152.1846  139.5431  159.8539 C   0  0  0  0  0  0  0  0  0  0  0  0
  152.6193  138.1351  159.5121 C   0  0  1  0  0  0  0  0  0  0  0  0
  151.6419  137.1982  159.9150 O   0  0  0  0  0  0  0  0  0  0  0  0
  151.8272  137.9823  157.4935 H   0  0  0  0  0  0  0  0  0  0  0  0
  154.0393  140.5395  159.2061 H   0  0  0  0  0  0  0  0  0  0  0  0
  151.5867  145.8161  158.2266 H   0  0  0  0  0  0  0  0  0  0  0  0
  153.5731  137.9152  159.9940 H   0  0  0  0  0  0  0  0  0  0  0  0
  153.4680  138.0875  155.6938 H   0  0  0  0  0  0  0  0  0  0  0  0
  153.8406  136.3102  157.8252 H   0  0  0  0  0  0  0  0  0  0  0  0
  154.8681  137.7262  157.6868 H   0  0  0  0  0  0  0  0  0  0  0  0
  151.6469  141.3123  156.5973 H   0  0  0  0  0  0  0  0  0  0  0  0
  152.9185  143.4738  162.5523 H   0  0  0  0  0  0  0  0  0  0  0  0
  151.3368  145.1018  162.2728 H   0  0  0  0  0  0  0  0  0  0  0  0
  151.3027  146.5791  160.6469 H   0  0  0  0  0  0  0  0  0  0  0  0
  152.8516  145.8895  160.2345 H   0  0  0  0  0  0  0  0  0  0  0  0
  149.5535  145.6594  158.2459 H   0  0  0  0  0  0  0  0  0  0  0  0
  152.3948  139.8405  160.8817 H   0  0  0  0  0  0  0  0  0  0  0  0
  151.1250  139.6943  159.6384 H   0  0  0  0  0  0  0  0  0  0  0  0
  150.8733  137.6692  160.1985 H   0  0  0  0  0  0  0  0  0  0  0  0
  1  2  1  0  0  0  0
  1 24  1  0  0  0  0
  2  3  1  0  0  0  0
  2 25  1  0  0  0  0
  2 26  1  0  0  0  0
  3 20  1  0  0  0  0
  3 18  1  0  0  0  0
  3  4  1  0  0  0  0
  4  5  1  0  0  0  0
  5 21  1  0  0  0  0
  5  6  1  0  0  0  0
  5 17  1  0  0  0  0
  6 10  1  0  0  0  0
  6  7  1  0  0  0  0
  7  8  2  0  0  0  0
  7 27  1  0  0  0  0
  8  9  1  0  0  0  0
  9 15  1  0  0  0  0
  9 10  2  0  0  0  0
 10 11  1  0  0  0  0
 11 12  2  0  0  0  0
 12 13  1  0  0  0  0
 12 28  1  0  0  0  0
 13 14  1  0  0  0  0
 13 29  1  0  0  0  0
 14 15  1  0  0  0  0
 14 30  1  0  0  0  0
 14 31  1  0  0  0  0
 15 22  1  0  0  0  0
 15 16  1  0  0  0  0
 16 32  1  0  0  0  0
 17 18  1  0  0  0  0
 17 33  1  0  0  0  0
 17 34  1  0  0  0  0
 18 23  1  0  0  0  0
 18 19  1  0  0  0  0
 19 35  1  0  0  0  0
M  END
> <s_m_source_file>
AV-unprocessed.smi

> <i_m_source_file_index>
157

> <i_lp_mmshare_version>
43012

> <i_f3d_flags>
0

> <s_epik_input>
W09IXVtDSDJdW0NASF0xT1tDQEhdKFtDSDJdW0NAQEhdMVtPSF0pbihbY0hdbjIpYyhjMjMpTj1bQ0hdW05IXVtDSDJdW0NASF0zW09IXQ==

> <s_epik_cmdline>
J2VwaWtfcHl0aG9uJywgJy1waCcsICc3LjAnLCAnLXRuJywgJzgnLCAnLW1hJywgJzIwMCcsICctbWV0YWxfYmluZGluZycsICctaW1hZScsICc8aW5maWxlLm1hZT4nLCAnLW9tYWUnLCAnPG91dGZpbGUubWFlPic=

> <r_lp_tautomer_probability>
1

> <r_epik_Ionization_Penalty>
0.0357149

> <r_epik_Ionization_Penalty_Charging>
0.0355056

> <r_epik_Ionization_Penalty_Neutral>
0.000209255

> <r_epik_State_Penalty>
0.0296046

> <r_epik_Charging_Adjusted_Penalty>
0.0651102

> <i_epik_Tot_Q>
0

> <i_epik_Tot_abs_Q>
0

> <r_epik_Metal_State_Penalty>
3.03559e-05

> <b_epik_Metal_Only>
0

> <s_epik_Chemistry_Notes>
This compound has an imine and may undergo hydrolysis. This compound contains an acetal/aminal-like group ( X-CH(R)-Y where X, Y are N, S, or O) that may be acid/base labile, releasing an aldehyde.

> <s_lp_Force_Field>
OPLS_2005

> <r_lp_Energy>
43.9106

> <b_lp_Chiralities_Consistent>
1

> <s_lp_Variant>
AV-unprocessed.smi:157-14

> <Gold.Version>
5.8.1

> <Gold.Id.Protein>
6NUR|6NUR_protein|mol2

> <Gold.PLP.Fitness>
41.7972

> <Gold.PLP.PLP>
-32.4175

> <Gold.PLP.part.hbond>
-5.0000

> <Gold.PLP.part.metal>
0.0000

> <Gold.PLP.part.buried>
-6.7666

> <Gold.PLP.part.nonpolar>
-21.4217

> <Gold.PLP.part.repulsive>
0.2220

> <Gold.PLP.ligand.clash>
0.0000

> <Gold.PLP.ligand.torsion>
0.2934

> <Gold.PLP.Chemscore.Hbond>
3.3172

> <Gold.PLP.Chemscore.CHOScore>
0.0000

> <Gold.PLP.Chemscore.Metal>
0.0000

> <Gold.Chemscore.Hbonds>
donor molecule, donor type, donor heavy atom, donor atom, acceptor molecule, acceptor atom, score
      L1  H    16    32       P1  8029  0.78
      P1  H  6896  6909       L1    19  1.00
      P1  H  7997  8008       L1     4  1.00
      P1  H 10752 10763       L1     1  0.35

> <Gold.PLP.Chemscore.Internal.Correction>
0.0148

> <Gold.Rescore>
     Score         DG    S(hbond)    S(metal)    S(lipo)     H(rot)  DE(clash)    DE(int)     intcor
      9.58     -11.69       2.75        0.00      54.14       3.64       1.75       0.36       ----

> <Gold.Chemscore.Fitness>
9.5813

> <Gold.Chemscore.DG>
-11.6948

> <Gold.Chemscore.ZeroCoef>
-5.4800

> <Gold.Chemscore.Hbond>
2.7512

> <Gold.Chemscore.Metal>
0.0000

> <Gold.Chemscore.Lipo>
54.1410

> <Gold.Chemscore.Internal_Hbond>
0.0000

> <Gold.Chemscore.DEClash>
1.7542

> <Gold.Chemscore.DEInternal>
0.3594

> <Gold.Chemscore.Rot>
3.6362

> <Gold.Chemscore.Internal.Correction>
   9.000000E+99

> <Gold.Chemscore.Hbonds>
donor molecule, donor type, donor heavy atom, donor atom, acceptor molecule, acceptor atom, score
      L1  H    16    32       P1  8029  0.54
      P1  H  6896  6909       L1    19  0.88
      P1  H  7997  8008       L1     4  0.49
      P1  H 10752 10763       L1     1  0.26

> <Gold.Chemscore.Hbond.Weighted>
-9.1891

> <Gold.Chemscore.Metal.Weighted>
-0.0000

> <Gold.Chemscore.Lipo.Weighted>
-6.3345

> <Gold.Chemscore.Internal_Hbond.Weighted>
0.0000

> <Gold.Chemscore.DEClash.Weighted>
1.7542

> <Gold.Chemscore.DEInternal.Weighted>
0.3594

> <Gold.Chemscore.Rot.Weighted>
9.3087

> <Gold.Chemscore.Internal.Correction.Weighted>
   9.000000E+99

> <Gold.Protein.RotatedTorsions>
[ 6907 6896 6895 6894 ] final  119.61 input  -60.11 | X-H torsion
[ 7974 7965 7964 7962 ] final -178.42 input  175.53 | X-H torsion
[ 8008 7997 7996 7995 ] final  -75.96 input   59.86 | X-H torsion
[ 10167 10162 10161 10158 ] final  -32.02 input  -65.29 | X-H torsion
[ 10718 10713 10712 10709 ] final  150.23 input   66.30 | X-H torsion
[ 10763 10752 10751 10750 ] final  130.58 input  -60.55 | X-H torsion
[ 11005 11000 10999 10996 ] final  -70.84 input  -57.11 | X-H torsion

> <Gold.Protein.ActiveResidues>
 VAL166  LYS551  ARG553  GLY616  TRP617  ASP618  TYR619  PRO620  LYS621  CYS622 
 ASP623  PHE694  ASN695  SER759  ASP760  ASP761  ALA762  ILE779  LEU786  VAL792 
 PHE793  MET794  SER795  GLU796  ALA797  LYS798  CYS799  TRP800  GLU811  SER814 

> <Gold.Protein.RotatedAtoms>
  152.4459  133.7535  159.6706 H   0  0  0  0  0  0  0  0  0  0  0  0  # atno 6907 bound_to 6896
  150.8359  133.8004  159.3086 H   0  0  0  0  0  0  0  0  0  0  0  0  # atno 6908 bound_to 6896
  151.5644  135.1067  160.0032 H   0  0  0  0  0  0  0  0  0  0  0  0  # atno 6909 bound_to 6896
  144.7131  140.0871  143.6423 H   0  0  0  0  0  0  0  0  0  0  0  0  # atno 7974 bound_to 7965
  154.5463  140.0735  156.8593 H   0  0  0  0  0  0  0  0  0  0  0  0  # atno 8008 bound_to 7997
  155.3082  140.3388  155.4227 H   0  0  0  0  0  0  0  0  0  0  0  0  # atno 8009 bound_to 7997
  156.1920  140.1690  156.8058 H   0  0  0  0  0  0  0  0  0  0  0  0  # atno 8010 bound_to 7997
  140.7227  143.3726  151.1749 H   0  0  0  0  0  0  0  0  0  0  0  0  # atno 10167 bound_to 10162
  157.2861  131.0844  151.1496 H   0  0  0  0  0  0  0  0  0  0  0  0  # atno 10718 bound_to 10713
  153.7604  135.3197  155.3336 H   0  0  0  0  0  0  0  0  0  0  0  0  # atno 10763 bound_to 10752
  154.8232  135.4588  154.0843 H   0  0  0  0  0  0  0  0  0  0  0  0  # atno 10764 bound_to 10752
  153.2073  135.6931  153.8241 H   0  0  0  0  0  0  0  0  0  0  0  0  # atno 10765 bound_to 10752
  141.1581  133.6801  156.6815 H   0  0  0  0  0  0  0  0  0  0  0  0  # atno 11005 bound_to 11000
  145.9652  139.2829  143.1132 LP  0  0  0  0  0  0  0  0  0  0  0  0  # atno 17320 bound_to 7965
  145.9177  140.9137  143.0421 LP  0  0  0  0  0  0  0  0  0  0  0  0  # atno 17321 bound_to 7965
  139.7300  143.9087  152.3016 LP  0  0  0  0  0  0  0  0  0  0  0  0  # atno 17342 bound_to 10162
  139.8873  144.6985  150.8810 LP  0  0  0  0  0  0  0  0  0  0  0  0  # atno 17343 bound_to 10162
  157.2911  130.6797  149.6115 LP  0  0  0  0  0  0  0  0  0  0  0  0  # atno 17370 bound_to 10713
  155.9665  130.4420  150.5365 LP  0  0  0  0  0  0  0  0  0  0  0  0  # atno 17371 bound_to 10713
  140.3099  134.8095  157.4167 LP  0  0  0  0  0  0  0  0  0  0  0  0  # atno 17394 bound_to 11000
  140.1188  134.5248  155.8202 LP  0  0  0  0  0  0  0  0  0  0  0  0  # atno 17395 bound_to 11000

$$$$
