AV-unprocessed.smi:193|AV-procd|sdf|1511|dock6
  -GOLD-   2262019343D 1   1.00000     0.00000
 Structure written by MMmdl.
 62 66  0  0  0  0  0  0  0  0  2 V2000
  146.0659  137.6930  154.7335 C   0  0  0  0  0  0  0  0  0  0  0  0
  147.4685  137.0648  154.6940 C   0  0  1  0  0  0  0  0  0  0  0  0
  148.3469  137.7007  155.7908 C   0  0  0  0  0  0  0  0  0  0  0  0
  149.7865  137.6037  155.5396 N   0  0  0  0  0  0  0  0  0  0  0  0
  150.6049  138.5013  156.1490 C   0  0  0  0  0  0  0  0  0  0  0  0
  151.5722  138.0440  156.9880 N   0  0  0  0  0  0  0  0  0  0  0  0
  152.3994  138.8975  157.5982 C   0  0  0  0  0  0  0  0  0  0  0  0
  152.4332  140.2282  157.5155 N   0  0  0  0  0  0  0  0  0  0  0  0
  151.4601  140.6969  156.6834 C   0  0  0  0  0  0  0  0  0  0  0  0
  150.5115  139.9122  155.9675 C   0  0  0  0  0  0  0  0  0  0  0  0
  149.6694  140.7444  155.2377 N   0  0  0  0  0  0  0  0  0  0  0  0
  150.1042  141.9476  155.4961 C   0  0  0  0  0  0  0  0  0  0  0  0
  151.1816  142.0107  156.3498 N   0  0  0  0  0  0  0  0  0  0  0  0
  151.8629  143.2131  156.8047 C   0  0  0  0  0  0  0  0  0  0  0  0
  151.5465  143.5968  158.2716 C   0  0  0  0  0  0  0  0  0  0  0  0
  151.9817  142.5313  159.0986 O   0  0  0  0  0  0  0  0  0  0  0  0
  152.3193  144.8695  158.6719 C   0  0  0  0  0  0  0  0  0  0  0  0
  151.9085  145.3861  160.0623 C   0  0  0  0  0  0  0  0  0  0  0  0
  150.5030  145.5989  160.1070 O   0  0  0  0  0  0  0  0  0  0  0  0
  149.7590  144.4021  159.9153 C   0  0  0  0  0  0  0  0  0  0  0  0
  150.0384  143.8221  158.5173 C   0  0  0  0  0  0  0  0  0  0  0  0
  150.3970  136.4430  154.8923 C   0  0  0  0  0  0  0  0  0  0  0  0
  149.7575  135.1077  155.2970 C   0  0  0  0  0  0  0  0  0  0  0  0
  148.5757  134.7955  154.4584 N   0  3  1  0  0  0  0  0  0  0  0  0
  148.3256  133.3378  154.3879 C   0  0  1  0  0  0  0  0  0  0  0  0
  148.2278  132.8084  152.9755 C   0  0  0  0  0  0  0  0  0  0  0  0
  149.4728  132.5482  153.7957 C   0  0  2  0  0  0  0  0  0  0  0  0
  149.7827  131.1505  154.2848 C   0  0  0  0  0  0  0  0  0  0  0  0
  147.3536  135.5339  154.8605 C   0  0  0  0  0  0  0  0  0  0  0  0
  145.5755  137.5113  155.6904 H   0  0  0  0  0  0  0  0  0  0  0  0
  145.4268  137.2865  153.9489 H   0  0  0  0  0  0  0  0  0  0  0  0
  146.1129  138.7723  154.5841 H   0  0  0  0  0  0  0  0  0  0  0  0
  147.8877  137.2942  153.7130 H   0  0  0  0  0  0  0  0  0  0  0  0
  148.0971  138.7611  155.8560 H   0  0  0  0  0  0  0  0  0  0  0  0
  148.1137  137.2715  156.7661 H   0  0  0  0  0  0  0  0  0  0  0  0
  153.1404  138.4502  158.2442 H   0  0  0  0  0  0  0  0  0  0  0  0
  149.6505  142.8291  155.0662 H   0  0  0  0  0  0  0  0  0  0  0  0
  152.9360  143.0663  156.6741 H   0  0  0  0  0  0  0  0  0  0  0  0
  151.5873  144.0302  156.1370 H   0  0  0  0  0  0  0  0  0  0  0  0
  152.8472  142.2718  158.8219 H   0  0  0  0  0  0  0  0  0  0  0  0
  153.3948  144.6901  158.6415 H   0  0  0  0  0  0  0  0  0  0  0  0
  152.1210  145.6553  157.9418 H   0  0  0  0  0  0  0  0  0  0  0  0
  152.2084  144.6897  160.8468 H   0  0  0  0  0  0  0  0  0  0  0  0
  152.4115  146.3304  160.2706 H   0  0  0  0  0  0  0  0  0  0  0  0
  150.0022  143.6804  160.6964 H   0  0  0  0  0  0  0  0  0  0  0  0
  148.6979  144.6298  160.0178 H   0  0  0  0  0  0  0  0  0  0  0  0
  149.6534  144.5187  157.7714 H   0  0  0  0  0  0  0  0  0  0  0  0
  149.4791  142.8948  158.3880 H   0  0  0  0  0  0  0  0  0  0  0  0
  150.3819  136.5722  153.8095 H   0  0  0  0  0  0  0  0  0  0  0  0
  151.4482  136.3871  155.1768 H   0  0  0  0  0  0  0  0  0  0  0  0
  150.5057  134.3317  155.1290 H   0  0  0  0  0  0  0  0  0  0  0  0
  149.5187  135.0701  156.3611 H   0  0  0  0  0  0  0  0  0  0  0  0
  147.7075  132.9151  155.1784 H   0  0  0  0  0  0  0  0  0  0  0  0
  147.5550  131.9709  152.8012 H   0  0  0  0  0  0  0  0  0  0  0  0
  148.3107  133.5146  152.1513 H   0  0  0  0  0  0  0  0  0  0  0  0
  150.3580  133.1127  153.5069 H   0  0  0  0  0  0  0  0  0  0  0  0
  148.8681  130.6248  154.5615 H   0  0  0  0  0  0  0  0  0  0  0  0
  150.4350  131.1955  155.1570 H   0  0  0  0  0  0  0  0  0  0  0  0
  150.2868  130.5834  153.5020 H   0  0  0  0  0  0  0  0  0  0  0  0
  147.0821  135.2758  155.8855 H   0  0  0  0  0  0  0  0  0  0  0  0
  146.5348  135.1791  154.2331 H   0  0  0  0  0  0  0  0  0  0  0  0
  148.8014  135.0853  153.5177 H   0  0  0  0  0  0  0  0  0  0  0  0
  1  2  1  0  0  0  0
  1 30  1  0  0  0  0
  1 31  1  0  0  0  0
  1 32  1  0  0  0  0
  2 29  1  0  0  0  0
  2  3  1  0  0  0  0
  2 33  1  0  0  0  0
  3  4  1  0  0  0  0
  3 34  1  0  0  0  0
  3 35  1  0  0  0  0
  4  5  1  0  0  0  0
  4 22  1  0  0  0  0
  5 10  1  0  0  0  0
  5  6  2  0  0  0  0
  6  7  1  0  0  0  0
  7  8  2  0  0  0  0
  7 36  1  0  0  0  0
  8  9  1  0  0  0  0
  9 13  1  0  0  0  0
  9 10  2  0  0  0  0
 10 11  1  0  0  0  0
 11 12  2  0  0  0  0
 12 13  1  0  0  0  0
 12 37  1  0  0  0  0
 13 14  1  0  0  0  0
 14 15  1  0  0  0  0
 14 38  1  0  0  0  0
 14 39  1  0  0  0  0
 15 21  1  0  0  0  0
 15 16  1  0  0  0  0
 15 17  1  0  0  0  0
 16 40  1  0  0  0  0
 17 18  1  0  0  0  0
 17 41  1  0  0  0  0
 17 42  1  0  0  0  0
 18 19  1  0  0  0  0
 18 43  1  0  0  0  0
 18 44  1  0  0  0  0
 19 20  1  0  0  0  0
 20 21  1  0  0  0  0
 20 45  1  0  0  0  0
 20 46  1  0  0  0  0
 21 47  1  0  0  0  0
 21 48  1  0  0  0  0
 22 23  1  0  0  0  0
 22 49  1  0  0  0  0
 22 50  1  0  0  0  0
 23 24  1  0  0  0  0
 23 51  1  0  0  0  0
 23 52  1  0  0  0  0
 24 25  1  0  0  0  0
 24 29  1  0  0  0  0
 24 62  1  0  0  0  0
 25 27  1  0  0  0  0
 25 26  1  0  0  0  0
 25 53  1  0  0  0  0
 26 27  1  0  0  0  0
 26 54  1  0  0  0  0
 26 55  1  0  0  0  0
 27 28  1  0  0  0  0
 27 56  1  0  0  0  0
 28 57  1  0  0  0  0
 28 58  1  0  0  0  0
 28 59  1  0  0  0  0
 29 60  1  0  0  0  0
 29 61  1  0  0  0  0
M  CHG  1  24   1
M  END
> <s_m_source_file>
AV-unprocessed.smi

> <i_m_source_file_index>
193

> <i_lp_mmshare_version>
43012

> <i_f3d_flags>
0

> <s_epik_input>
W0NIM11bQ0BASF0xW0NIMl1bQ0BIXTFOKFtDSDJdMilbQ0gyXVtDSDJdTihbQ0gyXVtDQEhdMltDSDNdKWMobltjSF1uMyljKGMzNCluW2NIXW40W0NIMl1DNShbT0hdKVtDSDJdW0NIMl1PW0NIMl1bQ0gyXTU=

> <s_epik_cmdline>
J2VwaWtfcHl0aG9uJywgJy1waCcsICc3LjAnLCAnLXRuJywgJzgnLCAnLW1hJywgJzIwMCcsICctbWV0YWxfYmluZGluZycsICctaW1hZScsICc8aW5maWxlLm1hZT4nLCAnLW9tYWUnLCAnPG91dGZpbGUubWFlPic=

> <r_lp_tautomer_probability>
1

> <r_epik_Ionization_Penalty>
0.0540825

> <r_epik_Ionization_Penalty_Charging>
0.0538476

> <r_epik_Ionization_Penalty_Neutral>
0.000234891

> <r_epik_State_Penalty>
0.0200719

> <r_epik_Charging_Adjusted_Penalty>
0.0739194

> <i_epik_Tot_Q>
1

> <i_epik_Tot_abs_Q>
1

> <r_epik_Metal_State_Penalty>
0.0199414

> <b_epik_Metal_Only>
0

> <s_lp_Force_Field>
OPLS_2005

> <r_lp_Energy>
53.3477

> <b_lp_Chiralities_Consistent>
1

> <s_lp_Variant>
AV-unprocessed.smi:193-16

> <Gold.Version>
5.8.1

> <Gold.Id.Protein>
6NUR|6NUR_protein|mol2

> <Gold.PLP.Fitness>
48.7853

> <Gold.PLP.PLP>
-41.0363

> <Gold.PLP.part.hbond>
-2.9503

> <Gold.PLP.part.metal>
0.0000

> <Gold.PLP.part.buried>
-5.9387

> <Gold.PLP.part.nonpolar>
-32.1297

> <Gold.PLP.part.repulsive>
0.3313

> <Gold.PLP.ligand.clash>
0.0000

> <Gold.PLP.ligand.torsion>
1.8473

> <Gold.PLP.Chemscore.Hbond>
2.3819

> <Gold.PLP.Chemscore.CHOScore>
1.0000

> <Gold.PLP.Chemscore.Metal>
0.0000

> <Gold.Chemscore.Hbonds>
donor molecule, donor type, donor heavy atom, donor atom, acceptor molecule, acceptor atom, score
      L1  H    24    62       P1  7948  2.00
      P1  H  7997  8008       L1     8  0.38
      L1  C    12    37       P1  8028  1.00

> <Gold.PLP.Chemscore.Internal.Correction>
1.2981

> <Gold.Rescore>
     Score         DG    S(hbond)    S(metal)    S(lipo)     H(rot)  DE(clash)    DE(int)     intcor
     11.43     -16.20       1.00        0.00     105.15       1.93       2.20       2.58       ----

> <Gold.Chemscore.Fitness>
11.4258

> <Gold.Chemscore.DG>
-16.1994

> <Gold.Chemscore.ZeroCoef>
-5.4800

> <Gold.Chemscore.Hbond>
1.0046

> <Gold.Chemscore.Metal>
0.0000

> <Gold.Chemscore.Lipo>
105.1495

> <Gold.Chemscore.Internal_Hbond>
0.0000

> <Gold.Chemscore.DEClash>
2.1971

> <Gold.Chemscore.DEInternal>
2.5765

> <Gold.Chemscore.Rot>
1.9290

> <Gold.Chemscore.Internal.Correction>
   9.000000E+99

> <Gold.Chemscore.Hbonds>
donor molecule, donor type, donor heavy atom, donor atom, acceptor molecule, acceptor atom, score
      L1  H    24    62       P1  7948  0.63
      P1  H  7997  8008       L1     8  0.01

> <Gold.Chemscore.Hbond.Weighted>
-3.3552

> <Gold.Chemscore.Metal.Weighted>
-0.0000

> <Gold.Chemscore.Lipo.Weighted>
-12.3025

> <Gold.Chemscore.Internal_Hbond.Weighted>
0.0000

> <Gold.Chemscore.DEClash.Weighted>
2.1971

> <Gold.Chemscore.DEInternal.Weighted>
2.5765

> <Gold.Chemscore.Rot.Weighted>
4.9383

> <Gold.Chemscore.Internal.Correction.Weighted>
   9.000000E+99

> <Gold.Protein.RotatedTorsions>
[ 6907 6896 6895 6894 ] final  171.77 input  -60.11 | X-H torsion
[ 7974 7965 7964 7962 ] final -116.64 input  175.53 | X-H torsion
[ 8008 7997 7996 7995 ] final  -60.81 input   59.86 | X-H torsion
[ 10167 10162 10161 10158 ] final -153.75 input  -65.29 | X-H torsion
[ 10718 10713 10712 10709 ] final   36.71 input   66.30 | X-H torsion
[ 10763 10752 10751 10750 ] final  177.02 input  -60.55 | X-H torsion
[ 11005 11000 10999 10996 ] final   24.28 input  -57.11 | X-H torsion

> <Gold.Protein.ActiveResidues>
 VAL166  LYS551  ARG553  GLY616  TRP617  ASP618  TYR619  PRO620  LYS621  CYS622 
 ASP623  PHE694  ASN695  SER759  ASP760  ASP761  ALA762  ILE779  LEU786  VAL792 
 PHE793  MET794  SER795  GLU796  ALA797  LYS798  CYS799  TRP800  GLU811  SER814 

> <Gold.Protein.RotatedAtoms>
  151.7949  133.3363  159.3509 H   0  0  0  0  0  0  0  0  0  0  0  0  # atno 6907 bound_to 6896
  150.7379  134.5808  159.5947 H   0  0  0  0  0  0  0  0  0  0  0  0  # atno 6908 bound_to 6896
  152.3184  134.7412  160.0371 H   0  0  0  0  0  0  0  0  0  0  0  0  # atno 6909 bound_to 6896
  145.0944  140.8511  143.3963 H   0  0  0  0  0  0  0  0  0  0  0  0  # atno 7974 bound_to 7965
  154.4416  140.1031  156.6332 H   0  0  0  0  0  0  0  0  0  0  0  0  # atno 8008 bound_to 7997
  155.5582  140.3487  155.4466 H   0  0  0  0  0  0  0  0  0  0  0  0  # atno 8009 bound_to 7997
  156.0479  140.1297  157.0072 H   0  0  0  0  0  0  0  0  0  0  0  0  # atno 8010 bound_to 7997
  139.7071  143.9169  152.2453 H   0  0  0  0  0  0  0  0  0  0  0  0  # atno 10167 bound_to 10162
  157.3382  130.7534  149.6893 H   0  0  0  0  0  0  0  0  0  0  0  0  # atno 10718 bound_to 10713
  154.4890  135.2778  155.1512 H   0  0  0  0  0  0  0  0  0  0  0  0  # atno 10763 bound_to 10752
  154.3191  135.6213  153.5503 H   0  0  0  0  0  0  0  0  0  0  0  0  # atno 10764 bound_to 10752
  152.9885  135.5738  154.5307 H   0  0  0  0  0  0  0  0  0  0  0  0  # atno 10765 bound_to 10752
  140.3604  134.2132  155.7672 H   0  0  0  0  0  0  0  0  0  0  0  0  # atno 11005 bound_to 11000
  145.1028  139.2810  143.5677 LP  0  0  0  0  0  0  0  0  0  0  0  0  # atno 17320 bound_to 7965
  146.3531  140.0601  142.8630 LP  0  0  0  0  0  0  0  0  0  0  0  0  # atno 17321 bound_to 7965
  139.9028  144.6902  150.8647 LP  0  0  0  0  0  0  0  0  0  0  0  0  # atno 17342 bound_to 10162
  140.7724  143.3501  151.2031 LP  0  0  0  0  0  0  0  0  0  0  0  0  # atno 17343 bound_to 10162
  155.9704  130.4175  150.4284 LP  0  0  0  0  0  0  0  0  0  0  0  0  # atno 17370 bound_to 10713
  157.2327  131.0508  151.2483 LP  0  0  0  0  0  0  0  0  0  0  0  0  # atno 17371 bound_to 10713
  141.1986  133.8032  157.0576 LP  0  0  0  0  0  0  0  0  0  0  0  0  # atno 17394 bound_to 11000
  140.0631  134.9744  157.1339 LP  0  0  0  0  0  0  0  0  0  0  0  0  # atno 17395 bound_to 11000

$$$$
