AV-unprocessed.smi:926|AV-procd|sdf|4183|dock9
  -GOLD-   22720 2 83D 1   1.00000     0.00000
 Structure written by MMmdl.
 37 39  0  0  0  0  0  0  0  0  1 V2000
  152.8286  139.4793  155.0812 O   0  0  0  0  0  0  0  0  0  0  0  0
  151.6132  139.3926  155.2556 C   0  0  0  0  0  0  0  0  0  0  0  0
  150.7452  138.6671  154.2281 C   0  0  0  0  0  0  0  0  0  0  0  0
  149.3494  138.6954  154.6221 N   0  0  0  0  0  0  0  0  0  0  0  0
  148.2757  139.2046  154.0139 C   0  0  0  0  0  0  0  0  0  0  0  0
  147.1765  139.0223  154.7295 N   0  0  0  0  0  0  0  0  0  0  0  0
  147.6377  138.3508  155.8496 N   0  0  0  0  0  0  0  0  0  0  0  0
  148.9263  138.1538  155.7914 N   0  0  0  0  0  0  0  0  0  0  0  0
  150.9769  139.9184  156.3142 N   0  0  0  0  0  0  0  0  0  0  0  0
  151.6180  140.6875  157.3731 C   0  0  0  0  0  0  0  0  0  0  0  0
  150.9408  142.0568  157.5570 C   0  0  0  0  0  0  0  0  0  0  0  0
  151.0386  142.5987  158.9966 C   0  0  2  0  0  0  0  0  0  0  0  0
  150.1913  143.8647  159.2482 C   0  0  0  0  0  0  0  0  0  0  0  0
  151.1985  144.8313  159.8989 C   0  0  2  0  0  0  0  0  0  0  0  0
  152.1757  145.3428  158.8241 C   0  0  0  0  0  0  0  0  0  0  0  0
  153.0582  144.1101  158.5556 C   0  0  0  0  0  0  0  0  0  0  0  0
  152.4418  143.0409  159.4812 C   0  0  1  0  0  0  0  0  0  0  0  0
  152.0805  143.8819  160.7015 C   0  0  0  0  0  0  0  0  0  0  0  0
  150.8425  139.1439  153.2518 H   0  0  0  0  0  0  0  0  0  0  0  0
  151.0751  137.6326  154.1182 H   0  0  0  0  0  0  0  0  0  0  0  0
  148.3004  139.7084  153.0587 H   0  0  0  0  0  0  0  0  0  0  0  0
  149.9762  139.7977  156.3773 H   0  0  0  0  0  0  0  0  0  0  0  0
  151.5575  140.1142  158.2985 H   0  0  0  0  0  0  0  0  0  0  0  0
  152.6792  140.8051  157.1489 H   0  0  0  0  0  0  0  0  0  0  0  0
  151.3571  142.7787  156.8548 H   0  0  0  0  0  0  0  0  0  0  0  0
  149.8872  141.9679  157.2896 H   0  0  0  0  0  0  0  0  0  0  0  0
  150.6851  141.8154  159.6693 H   0  0  0  0  0  0  0  0  0  0  0  0
  149.7628  144.2801  158.3350 H   0  0  0  0  0  0  0  0  0  0  0  0
  149.3671  143.6438  159.9277 H   0  0  0  0  0  0  0  0  0  0  0  0
  150.7292  145.6276  160.4773 H   0  0  0  0  0  0  0  0  0  0  0  0
  151.6604  145.6884  157.9274 H   0  0  0  0  0  0  0  0  0  0  0  0
  152.7776  146.1691  159.2043 H   0  0  0  0  0  0  0  0  0  0  0  0
  153.0756  143.8200  157.5058 H   0  0  0  0  0  0  0  0  0  0  0  0
  154.0888  144.3152  158.8480 H   0  0  0  0  0  0  0  0  0  0  0  0
  153.1138  142.2086  159.6926 H   0  0  0  0  0  0  0  0  0  0  0  0
  152.9400  144.3733  161.1612 H   0  0  0  0  0  0  0  0  0  0  0  0
  151.5352  143.3268  161.4670 H   0  0  0  0  0  0  0  0  0  0  0  0
  1  2  2  0  0  0  0
  2  3  1  0  0  0  0
  2  9  1  0  0  0  0
  3  4  1  0  0  0  0
  3 19  1  0  0  0  0
  3 20  1  0  0  0  0
  4  8  1  0  0  0  0
  4  5  1  0  0  0  0
  5  6  2  0  0  0  0
  5 21  1  0  0  0  0
  6  7  1  0  0  0  0
  7  8  2  0  0  0  0
  9 10  1  0  0  0  0
  9 22  1  0  0  0  0
 10 11  1  0  0  0  0
 10 23  1  0  0  0  0
 10 24  1  0  0  0  0
 11 12  1  0  0  0  0
 11 25  1  0  0  0  0
 11 26  1  0  0  0  0
 12 17  1  0  0  0  0
 12 13  1  0  0  0  0
 12 27  1  0  0  0  0
 13 14  1  0  0  0  0
 13 28  1  0  0  0  0
 13 29  1  0  0  0  0
 14 18  1  0  0  0  0
 14 15  1  0  0  0  0
 14 30  1  0  0  0  0
 15 16  1  0  0  0  0
 15 31  1  0  0  0  0
 15 32  1  0  0  0  0
 16 17  1  0  0  0  0
 16 33  1  0  0  0  0
 16 34  1  0  0  0  0
 17 18  1  0  0  0  0
 17 35  1  0  0  0  0
 18 36  1  0  0  0  0
 18 37  1  0  0  0  0
M  END
> <s_m_source_file>
AV-unprocessed.smi

> <i_m_source_file_index>
926

> <i_lp_mmshare_version>
43012

> <i_f3d_flags>
0

> <s_epik_input>
bjFubltjSF1uMVtDSDJdQyg9TylbTkhdW0NIMl1bQ0gyXVtDQEhdKFtDSDJdW0NASF0yMylbQ0BIXShbQ0gyXTMpW0NIMl1bQ0gyXTI=

> <s_epik_cmdline>
J2VwaWtfcHl0aG9uJywgJy1waCcsICc3LjAnLCAnLXRuJywgJzgnLCAnLW1hJywgJzIwMCcsICctbWV0YWxfYmluZGluZycsICctaW1hZScsICc8aW5maWxlLm1hZT4nLCAnLW9tYWUnLCAnPG91dGZpbGUubWFlPic=

> <r_lp_tautomer_probability>
1

> <r_epik_Ionization_Penalty>
4.22645e-07

> <r_epik_Ionization_Penalty_Charging>
0

> <r_epik_Ionization_Penalty_Neutral>
4.22645e-07

> <r_epik_State_Penalty>
-0

> <r_epik_Charging_Adjusted_Penalty>
0

> <i_epik_Tot_Q>
0

> <i_epik_Tot_abs_Q>
0

> <r_epik_Metal_State_Penalty>
-0

> <b_epik_Metal_Only>
0

> <s_lp_Force_Field>
OPLS_2005

> <r_lp_Energy>
51.1932

> <b_lp_Chiralities_Consistent>
1

> <s_lp_Variant>
AV-unprocessed.smi:926-1

> <Gold.Version>
5.8.1

> <Gold.Id.Protein>
6NUR|6NUR_protein|mol2

> <Gold.PLP.Fitness>
44.0207

> <Gold.PLP.PLP>
-38.4750

> <Gold.PLP.part.hbond>
-2.0000

> <Gold.PLP.part.metal>
0.0000

> <Gold.PLP.part.buried>
-3.5988

> <Gold.PLP.part.nonpolar>
-32.2823

> <Gold.PLP.part.repulsive>
0.2590

> <Gold.PLP.ligand.clash>
0.0000

> <Gold.PLP.ligand.torsion>
0.2347

> <Gold.PLP.Chemscore.Hbond>
1.0000

> <Gold.PLP.Chemscore.CHOScore>
1.0000

> <Gold.PLP.Chemscore.Metal>
0.0000

> <Gold.Chemscore.Hbonds>
donor molecule, donor type, donor heavy atom, donor atom, acceptor molecule, acceptor atom, score
      P1  H  7997  8008       L1     1  1.00
      L1  C     5    21       P1  7957  1.00

> <Gold.PLP.Chemscore.Internal.Correction>
0.0151

> <Gold.Rescore>
     Score         DG    S(hbond)    S(metal)    S(lipo)     H(rot)  DE(clash)    DE(int)     intcor
     14.03     -14.38       1.00        0.00     103.19       2.54       0.05       0.30       ----

> <Gold.Chemscore.Fitness>
14.0255

> <Gold.Chemscore.DG>
-14.3773

> <Gold.Chemscore.ZeroCoef>
-5.4800

> <Gold.Chemscore.Hbond>
0.9988

> <Gold.Chemscore.Metal>
0.0000

> <Gold.Chemscore.Lipo>
103.1876

> <Gold.Chemscore.Internal_Hbond>
0.0000

> <Gold.Chemscore.DEClash>
0.0484

> <Gold.Chemscore.DEInternal>
0.3034

> <Gold.Chemscore.Rot>
2.5436

> <Gold.Chemscore.Internal.Correction>
   9.000000E+99

> <Gold.Chemscore.Hbonds>
donor molecule, donor type, donor heavy atom, donor atom, acceptor molecule, acceptor atom, score
      P1  H  7997  8008       L1     1  0.99

> <Gold.Chemscore.Hbond.Weighted>
-3.3361

> <Gold.Chemscore.Metal.Weighted>
-0.0000

> <Gold.Chemscore.Lipo.Weighted>
-12.0729

> <Gold.Chemscore.Internal_Hbond.Weighted>
0.0000

> <Gold.Chemscore.DEClash.Weighted>
0.0484

> <Gold.Chemscore.DEInternal.Weighted>
0.3034

> <Gold.Chemscore.Rot.Weighted>
6.5117

> <Gold.Chemscore.Internal.Correction.Weighted>
   9.000000E+99

> <Gold.Protein.RotatedTorsions>
[ 6907 6896 6895 6894 ] final  -95.14 input  -60.11 | X-H torsion
[ 7974 7965 7964 7962 ] final   77.95 input  175.53 | X-H torsion
[ 8008 7997 7996 7995 ] final  -16.73 input   59.86 | X-H torsion
[ 10167 10162 10161 10158 ] final -116.74 input  -65.29 | X-H torsion
[ 10718 10713 10712 10709 ] final  157.52 input   66.30 | X-H torsion
[ 10763 10752 10751 10750 ] final   98.97 input  -60.55 | X-H torsion
[ 11005 11000 10999 10996 ] final  -98.75 input  -57.11 | X-H torsion

> <Gold.Protein.ActiveResidues>
 VAL166  LYS551  ARG553  GLY616  TRP617  ASP618  TYR619  PRO620  LYS621  CYS622 
 ASP623  PHE694  ASN695  SER759  ASP760  ASP761  ALA762  ILE779  LEU786  VAL792 
 PHE793  MET794  SER795  GLU796  ALA797  LYS798  CYS799  TRP800  GLU811  SER814 

> <Gold.Protein.RotatedAtoms>
  150.6957  134.1704  159.4209 H   0  0  0  0  0  0  0  0  0  0  0  0  # atno 6907 bound_to 6896
  151.9682  135.0087  160.0560 H   0  0  0  0  0  0  0  0  0  0  0  0  # atno 6908 bound_to 6896
  152.1865  133.4708  159.5022 H   0  0  0  0  0  0  0  0  0  0  0  0  # atno 6909 bound_to 6896
  145.6835  139.2531  143.1801 H   0  0  0  0  0  0  0  0  0  0  0  0  # atno 7974 bound_to 7965
  154.5031  140.2162  155.9306 H   0  0  0  0  0  0  0  0  0  0  0  0  # atno 8008 bound_to 7997
  156.1459  140.3171  155.8537 H   0  0  0  0  0  0  0  0  0  0  0  0  # atno 8009 bound_to 7997
  155.4031  140.0485  157.3026 H   0  0  0  0  0  0  0  0  0  0  0  0  # atno 8010 bound_to 7997
  140.0760  143.4833  152.1953 H   0  0  0  0  0  0  0  0  0  0  0  0  # atno 10167 bound_to 10162
  157.1904  131.0653  151.2082 H   0  0  0  0  0  0  0  0  0  0  0  0  # atno 10718 bound_to 10713
  153.2956  135.4129  155.1207 H   0  0  0  0  0  0  0  0  0  0  0  0  # atno 10763 bound_to 10752
  154.8534  135.3529  154.5921 H   0  0  0  0  0  0  0  0  0  0  0  0  # atno 10764 bound_to 10752
  153.6345  135.7059  153.5321 H   0  0  0  0  0  0  0  0  0  0  0  0  # atno 10765 bound_to 10752
  141.1333  133.8269  157.0881 H   0  0  0  0  0  0  0  0  0  0  0  0  # atno 11005 bound_to 11000
  146.0944  140.7618  142.9579 LP  0  0  0  0  0  0  0  0  0  0  0  0  # atno 17320 bound_to 7965
  144.7019  140.3688  143.7149 LP  0  0  0  0  0  0  0  0  0  0  0  0  # atno 17321 bound_to 7965
  139.5808  144.7509  151.3645 LP  0  0  0  0  0  0  0  0  0  0  0  0  # atno 17342 bound_to 10162
  140.7102  143.7410  150.7553 LP  0  0  0  0  0  0  0  0  0  0  0  0  # atno 17343 bound_to 10162
  157.3866  130.7260  149.6668 LP  0  0  0  0  0  0  0  0  0  0  0  0  # atno 17370 bound_to 10713
  155.9712  130.4158  150.4198 LP  0  0  0  0  0  0  0  0  0  0  0  0  # atno 17371 bound_to 10713
  140.0409  134.9855  157.0960 LP  0  0  0  0  0  0  0  0  0  0  0  0  # atno 17394 bound_to 11000
  140.4137  134.1954  155.7163 LP  0  0  0  0  0  0  0  0  0  0  0  0  # atno 17395 bound_to 11000

$$$$
