AV-unprocessed.smi:1007|AV-procd|sdf|4409|dock3
  -GOLD-   22720 2353D 1   1.00000     0.00000
 Structure written by MMmdl.
 57 59  0  0  0  0  0  0  0  0  3 V2000
  145.5941  135.7964  150.8146 C   0  0  0  0  0  0  0  0  0  0  0  0
  145.9207  136.5703  151.9559 O   0  0  0  0  0  0  0  0  0  0  0  0
  144.9126  136.5224  152.9518 C   0  0  0  0  0  0  0  0  0  0  0  0
  145.3999  137.2968  154.1860 C   0  0  0  0  0  0  0  0  0  0  0  0
  145.3522  138.7697  153.9836 N   0  3  2  0  0  0  0  0  0  0  0  0
  146.4556  139.3205  153.1532 C   0  0  0  0  0  0  0  0  0  0  0  0
  147.7830  139.4182  153.9339 C   0  0  0  0  0  0  0  0  0  0  0  0
  147.6149  140.1753  155.2023 N   0  3  2  0  0  0  0  0  0  0  0  0
  148.8799  140.3411  155.9650 C   0  0  0  0  0  0  0  0  0  0  0  0
  149.8769  141.2805  155.2587 C   0  0  1  0  0  0  0  0  0  0  0  0
  149.1619  142.1063  154.3588 O   0  0  0  0  0  0  0  0  0  0  0  0
  150.6475  142.1590  156.2634 C   0  0  0  0  0  0  0  0  0  0  0  0
  151.5450  141.3864  157.1035 N   0  0  0  0  0  0  0  0  0  0  0  0
  152.1089  140.1995  156.8086 C   0  0  0  0  0  0  0  0  0  0  0  0
  152.9079  139.6602  157.7243 N   0  0  0  0  0  0  0  0  0  0  0  0
  152.8539  140.6060  158.7336 C   0  0  0  0  0  0  0  0  0  0  0  0
  153.4855  140.6362  159.9962 C   0  0  0  0  0  0  0  0  0  0  0  0
  153.2847  141.7194  160.8811 C   0  0  0  0  0  0  0  0  0  0  0  0
  153.9840  141.7112  162.2291 C   0  0  0  0  0  0  0  0  0  0  0  0
  152.4404  142.7956  160.5072 C   0  0  0  0  0  0  0  0  0  0  0  0
  152.2087  143.9690  161.4430 C   0  0  0  0  0  0  0  0  0  0  0  0
  151.8021  142.7817  159.2492 C   0  0  0  0  0  0  0  0  0  0  0  0
  152.0093  141.6981  158.3773 C   0  0  0  0  0  0  0  0  0  0  0  0
  146.5263  139.6022  156.0324 C   0  0  0  0  0  0  0  0  0  0  0  0
  145.2039  139.5363  155.2455 C   0  0  0  0  0  0  0  0  0  0  0  0
  146.3981  135.8664  150.0821 H   0  0  0  0  0  0  0  0  0  0  0  0
  144.6785  136.1560  150.3435 H   0  0  0  0  0  0  0  0  0  0  0  0
  145.4655  134.7447  151.0735 H   0  0  0  0  0  0  0  0  0  0  0  0
  144.0028  136.9887  152.5702 H   0  0  0  0  0  0  0  0  0  0  0  0
  144.6631  135.4901  153.1982 H   0  0  0  0  0  0  0  0  0  0  0  0
  144.7620  137.0202  155.0266 H   0  0  0  0  0  0  0  0  0  0  0  0
  146.4070  136.9804  154.4560 H   0  0  0  0  0  0  0  0  0  0  0  0
  146.5916  138.7338  152.2453 H   0  0  0  0  0  0  0  0  0  0  0  0
  146.1622  140.3179  152.8229 H   0  0  0  0  0  0  0  0  0  0  0  0
  148.1695  138.4217  154.1520 H   0  0  0  0  0  0  0  0  0  0  0  0
  148.5253  139.9032  153.3014 H   0  0  0  0  0  0  0  0  0  0  0  0
  148.6655  140.7479  156.9548 H   0  0  0  0  0  0  0  0  0  0  0  0
  149.3290  139.3611  156.1332 H   0  0  0  0  0  0  0  0  0  0  0  0
  150.5997  140.7025  154.6839 H   0  0  0  0  0  0  0  0  0  0  0  0
  148.9943  142.9384  154.7758 H   0  0  0  0  0  0  0  0  0  0  0  0
  151.2255  142.9235  155.7425 H   0  0  0  0  0  0  0  0  0  0  0  0
  149.9486  142.6885  156.9123 H   0  0  0  0  0  0  0  0  0  0  0  0
  151.9241  139.7036  155.8667 H   0  0  0  0  0  0  0  0  0  0  0  0
  154.1288  139.8164  160.2803 H   0  0  0  0  0  0  0  0  0  0  0  0
  153.2550  141.7579  163.0381 H   0  0  0  0  0  0  0  0  0  0  0  0
  154.6553  142.5658  162.3168 H   0  0  0  0  0  0  0  0  0  0  0  0
  154.5762  140.8059  162.3649 H   0  0  0  0  0  0  0  0  0  0  0  0
  151.5445  144.7094  160.9962 H   0  0  0  0  0  0  0  0  0  0  0  0
  153.1515  144.4636  161.6777 H   0  0  0  0  0  0  0  0  0  0  0  0
  151.7535  143.6307  162.3741 H   0  0  0  0  0  0  0  0  0  0  0  0
  151.1575  143.5956  158.9533 H   0  0  0  0  0  0  0  0  0  0  0  0
  146.8137  138.6085  156.3797 H   0  0  0  0  0  0  0  0  0  0  0  0
  146.3812  140.2172  156.9215 H   0  0  0  0  0  0  0  0  0  0  0  0
  144.8806  140.5479  154.9959 H   0  0  0  0  0  0  0  0  0  0  0  0
  144.4104  139.1096  155.8600 H   0  0  0  0  0  0  0  0  0  0  0  0
  147.3163  141.1081  154.9531 H   0  0  0  0  0  0  0  0  0  0  0  0
  144.4974  138.9286  153.4680 H   0  0  0  0  0  0  0  0  0  0  0  0
  1  2  1  0  0  0  0
  1 26  1  0  0  0  0
  1 27  1  0  0  0  0
  1 28  1  0  0  0  0
  2  3  1  0  0  0  0
  3  4  1  0  0  0  0
  3 29  1  0  0  0  0
  3 30  1  0  0  0  0
  4  5  1  0  0  0  0
  4 31  1  0  0  0  0
  4 32  1  0  0  0  0
  5 25  1  0  0  0  0
  5  6  1  0  0  0  0
  5 57  1  0  0  0  0
  6  7  1  0  0  0  0
  6 33  1  0  0  0  0
  6 34  1  0  0  0  0
  7  8  1  0  0  0  0
  7 35  1  0  0  0  0
  7 36  1  0  0  0  0
  8  9  1  0  0  0  0
  8 24  1  0  0  0  0
  8 56  1  0  0  0  0
  9 10  1  0  0  0  0
  9 37  1  0  0  0  0
  9 38  1  0  0  0  0
 10 11  1  0  0  0  0
 10 12  1  0  0  0  0
 10 39  1  0  0  0  0
 11 40  1  0  0  0  0
 12 13  1  0  0  0  0
 12 41  1  0  0  0  0
 12 42  1  0  0  0  0
 13 23  1  0  0  0  0
 13 14  1  0  0  0  0
 14 15  2  0  0  0  0
 14 43  1  0  0  0  0
 15 16  1  0  0  0  0
 16 23  2  0  0  0  0
 16 17  1  0  0  0  0
 17 18  2  0  0  0  0
 17 44  1  0  0  0  0
 18 19  1  0  0  0  0
 18 20  1  0  0  0  0
 19 45  1  0  0  0  0
 19 46  1  0  0  0  0
 19 47  1  0  0  0  0
 20 21  1  0  0  0  0
 20 22  2  0  0  0  0
 21 48  1  0  0  0  0
 21 49  1  0  0  0  0
 21 50  1  0  0  0  0
 22 23  1  0  0  0  0
 22 51  1  0  0  0  0
 24 25  1  0  0  0  0
 24 52  1  0  0  0  0
 24 53  1  0  0  0  0
 25 54  1  0  0  0  0
 25 55  1  0  0  0  0
M  CHG  1   5   1
M  CHG  1   8   1
M  END
> <s_m_source_file>
AV-unprocessed.smi

> <i_m_source_file_index>
1007

> <i_lp_mmshare_version>
43012

> <i_f3d_flags>
0

> <s_epik_input>
W0NIM11PW0NIMl1bQ0gyXU4xW0NIMl1bQ0gyXU4oW0NIMl1bQ0gyXTEpW0NIMl1bQ0BIXShbT0hdKVtDSDJdbihbY0hdbjIpYyhjMjMpW2NIXWMoW0NIM10pYyhbY0hdMylbQ0gzXQ==

> <s_epik_cmdline>
J2VwaWtfcHl0aG9uJywgJy1waCcsICc3LjAnLCAnLXRuJywgJzgnLCAnLW1hJywgJzIwMCcsICctbWV0YWxfYmluZGluZycsICctaW1hZScsICc8aW5maWxlLm1hZT4nLCAnLW9tYWUnLCAnPG91dGZpbGUubWFlPic=

> <r_epik_Ionization_Penalty>
3.88944

> <r_epik_Ionization_Penalty_Charging>
3.80608

> <r_epik_Ionization_Penalty_Neutral>
0.0833653

> <r_epik_State_Penalty>
2.70739

> <r_epik_Charging_Adjusted_Penalty>
6.51347

> <i_epik_Tot_Q>
2

> <i_epik_Tot_abs_Q>
2

> <r_epik_Metal_State_Penalty>
2.62239

> <b_epik_Metal_Only>
0

> <s_lp_Force_Field>
OPLS_2005

> <r_lp_Energy>
30.9183

> <b_lp_Chiralities_Consistent>
1

> <s_lp_Variant>
AV-unprocessed.smi:1007-12

> <Gold.Version>
5.8.1

> <Gold.Id.Protein>
6NUR|6NUR_protein|mol2

> <Gold.PLP.Fitness>
52.1380

> <Gold.PLP.PLP>
-43.1657

> <Gold.PLP.part.hbond>
-4.3358

> <Gold.PLP.part.metal>
0.0000

> <Gold.PLP.part.buried>
-0.9873

> <Gold.PLP.part.nonpolar>
-36.3815

> <Gold.PLP.part.repulsive>
0.6594

> <Gold.PLP.ligand.clash>
0.0000

> <Gold.PLP.ligand.torsion>
1.2743

> <Gold.PLP.Chemscore.Hbond>
3.7460

> <Gold.PLP.Chemscore.CHOScore>
0.0000

> <Gold.PLP.Chemscore.Metal>
0.0000

> <Gold.Chemscore.Hbonds>
donor molecule, donor type, donor heavy atom, donor atom, acceptor molecule, acceptor atom, score
      L1  H     5    57       P1 10175  1.47
      L1  H    11    40       P1  8028  1.00
      P1  H  7997  8010       L1    15  1.00
      P1  H  8011  8017       L1    11  0.24

> <Gold.PLP.Chemscore.Internal.Correction>
0.2829

> <Gold.Rescore>
     Score         DG    S(hbond)    S(metal)    S(lipo)     H(rot)  DE(clash)    DE(int)     intcor
     18.31     -20.12       2.17        0.00     120.93       2.63       0.38       1.44       ----

> <Gold.Chemscore.Fitness>
18.3053

> <Gold.Chemscore.DG>
-20.1212

> <Gold.Chemscore.ZeroCoef>
-5.4800

> <Gold.Chemscore.Hbond>
2.1667

> <Gold.Chemscore.Metal>
0.0000

> <Gold.Chemscore.Lipo>
120.9330

> <Gold.Chemscore.Internal_Hbond>
0.0000

> <Gold.Chemscore.DEClash>
0.3786

> <Gold.Chemscore.DEInternal>
1.4373

> <Gold.Chemscore.Rot>
2.6347

> <Gold.Chemscore.Internal.Correction>
   9.000000E+99

> <Gold.Chemscore.Hbonds>
donor molecule, donor type, donor heavy atom, donor atom, acceptor molecule, acceptor atom, score
      L1  H     5    57       P1 10175  0.71
      L1  H    11    40       P1  8028  0.98
      P1  H  7997  8010       L1    15  0.08
      P1  H  8011  8017       L1    11  0.16

> <Gold.Chemscore.Hbond.Weighted>
-7.2368

> <Gold.Chemscore.Metal.Weighted>
-0.0000

> <Gold.Chemscore.Lipo.Weighted>
-14.1492

> <Gold.Chemscore.Internal_Hbond.Weighted>
0.0000

> <Gold.Chemscore.DEClash.Weighted>
0.3786

> <Gold.Chemscore.DEInternal.Weighted>
1.4373

> <Gold.Chemscore.Rot.Weighted>
6.7448

> <Gold.Chemscore.Internal.Correction.Weighted>
   9.000000E+99

> <Gold.Protein.RotatedTorsions>
[ 6907 6896 6895 6894 ] final  -97.11 input  -60.11 | X-H torsion
[ 7974 7965 7964 7962 ] final  130.69 input  175.53 | X-H torsion
[ 8008 7997 7996 7995 ] final   35.66 input   59.86 | X-H torsion
[ 10167 10162 10161 10158 ] final -144.73 input  -65.29 | X-H torsion
[ 10718 10713 10712 10709 ] final  175.05 input   66.30 | X-H torsion
[ 10763 10752 10751 10750 ] final   63.72 input  -60.55 | X-H torsion
[ 11005 11000 10999 10996 ] final -139.21 input  -57.11 | X-H torsion

> <Gold.Protein.ActiveResidues>
 VAL166  LYS551  ARG553  GLY616  TRP617  ASP618  TYR619  PRO620  LYS621  CYS622 
 ASP623  PHE694  ASN695  SER759  ASP760  ASP761  ALA762  ILE779  LEU786  VAL792 
 PHE793  MET794  SER795  GLU796  ALA797  LYS798  CYS799  TRP800  GLU811  SER814 

> <Gold.Protein.RotatedAtoms>
  150.7007  134.1399  159.4100 H   0  0  0  0  0  0  0  0  0  0  0  0  # atno 6907 bound_to 6896
  151.9384  135.0222  160.0543 H   0  0  0  0  0  0  0  0  0  0  0  0  # atno 6908 bound_to 6896
  152.2115  133.4880  159.5149 H   0  0  0  0  0  0  0  0  0  0  0  0  # atno 6909 bound_to 6896
  145.0152  139.4183  143.5225 H   0  0  0  0  0  0  0  0  0  0  0  0  # atno 7974 bound_to 7965
  155.1746  140.3294  155.4386 H   0  0  0  0  0  0  0  0  0  0  0  0  # atno 8008 bound_to 7997
  156.2498  140.1937  156.6798 H   0  0  0  0  0  0  0  0  0  0  0  0  # atno 8009 bound_to 7997
  154.6313  140.0582  156.9722 H   0  0  0  0  0  0  0  0  0  0  0  0  # atno 8010 bound_to 7997
  139.7871  143.8018  152.2646 H   0  0  0  0  0  0  0  0  0  0  0  0  # atno 10167 bound_to 10162
  156.9405  131.0000  151.2969 H   0  0  0  0  0  0  0  0  0  0  0  0  # atno 10718 bound_to 10713
  153.0028  135.5419  154.6397 H   0  0  0  0  0  0  0  0  0  0  0  0  # atno 10763 bound_to 10752
  154.5655  135.2837  155.0880 H   0  0  0  0  0  0  0  0  0  0  0  0  # atno 10764 bound_to 10752
  154.2066  135.6474  153.5155 H   0  0  0  0  0  0  0  0  0  0  0  0  # atno 10765 bound_to 10752
  140.8542  134.2249  157.4744 H   0  0  0  0  0  0  0  0  0  0  0  0  # atno 11005 bound_to 11000
  146.3476  139.9618  142.8716 LP  0  0  0  0  0  0  0  0  0  0  0  0  # atno 17320 bound_to 7965
  145.1969  140.9837  143.4178 LP  0  0  0  0  0  0  0  0  0  0  0  0  # atno 17321 bound_to 7965
  139.8098  144.7340  150.9712 LP  0  0  0  0  0  0  0  0  0  0  0  0  # atno 17342 bound_to 10162
  140.7820  143.4262  151.0765 LP  0  0  0  0  0  0  0  0  0  0  0  0  # atno 17343 bound_to 10162
  157.5788  130.8361  149.8493 LP  0  0  0  0  0  0  0  0  0  0  0  0  # atno 17370 bound_to 10713
  156.0406  130.3740  150.1445 LP  0  0  0  0  0  0  0  0  0  0  0  0  # atno 17371 bound_to 10713
  139.8705  134.9698  156.4679 LP  0  0  0  0  0  0  0  0  0  0  0  0  # atno 17394 bound_to 11000
  140.8756  133.7956  155.9411 LP  0  0  0  0  0  0  0  0  0  0  0  0  # atno 17395 bound_to 11000

$$$$
