AV-unprocessed.smi:163|AV-procd|sdf|1381|dock5
  -GOLD-   2262019113D 1   1.00000     0.00000
 Structure written by MMmdl.
 48 51  0  0  0  0  0  0  0  0  1 V2000
  155.2642  142.2236  163.9277 N   0  0  0  0  0  0  0  0  0  0  0  0
  154.7479  142.1300  162.8961 C   0  0  0  0  0  0  0  0  0  0  0  0
  154.0935  142.0135  161.5822 C   0  0  0  0  0  0  0  0  0  0  0  0
  153.0448  143.1023  161.3194 C   0  0  0  0  0  0  0  0  0  0  0  0
  152.7412  143.8702  162.2333 O   0  0  0  0  0  0  0  0  0  0  0  0
  152.4880  143.1837  160.0883 N   0  0  0  0  0  0  0  0  0  0  0  0
  152.7545  142.2644  158.9756 C   0  0  0  0  0  0  0  0  0  0  0  0
  151.4763  141.4608  158.6735 C   0  0  0  0  0  0  0  0  0  0  0  0
  150.3438  142.3587  158.4366 N   0  0  0  0  0  0  0  0  0  0  0  0
  149.2497  141.7858  157.8717 C   0  0  0  0  0  0  0  0  0  0  0  0
  148.2134  141.3883  158.6581 N   0  0  0  0  0  0  0  0  0  0  0  0
  147.1329  140.8179  158.1170 C   0  0  0  0  0  0  0  0  0  0  0  0
  146.8817  140.5573  156.8329 N   0  0  0  0  0  0  0  0  0  0  0  0
  147.9115  140.9630  156.0361 C   0  0  0  0  0  0  0  0  0  0  0  0
  149.1207  141.5786  156.4684 C   0  0  0  0  0  0  0  0  0  0  0  0
  149.9241  141.8596  155.3694 N   0  0  0  0  0  0  0  0  0  0  0  0
  149.2366  141.4238  154.3498 C   0  0  0  0  0  0  0  0  0  0  0  0
  148.0110  140.8783  154.6581 N   0  0  0  0  0  0  0  0  0  0  0  0
  147.0455  140.3196  153.7236 C   0  0  0  0  0  0  0  0  0  0  0  0
  147.4404  138.9309  153.1600 C   0  0  2  0  0  0  0  0  0  0  0  0
  148.7635  138.9915  152.6590 O   0  0  0  0  0  0  0  0  0  0  0  0
  146.5105  138.4143  152.0605 C   0  0  0  0  0  0  0  0  0  0  0  0
  145.5682  137.4934  152.8209 C   0  0  0  0  0  0  0  0  0  0  0  0
  146.4431  136.8541  153.7334 O   0  0  0  0  0  0  0  0  0  0  0  0
  147.3429  137.8332  154.2397 C   0  0  0  0  0  0  0  0  0  0  0  0
  150.1310  143.3922  159.4540 C   0  0  0  0  0  0  0  0  0  0  0  0
  151.4393  144.1514  159.7441 C   0  0  0  0  0  0  0  0  0  0  0  0
  154.8765  142.0594  160.8249 H   0  0  0  0  0  0  0  0  0  0  0  0
  153.6292  141.0278  161.5374 H   0  0  0  0  0  0  0  0  0  0  0  0
  153.0432  142.8445  158.0979 H   0  0  0  0  0  0  0  0  0  0  0  0
  153.5817  141.5811  159.1595 H   0  0  0  0  0  0  0  0  0  0  0  0
  151.6578  140.8090  157.8207 H   0  0  0  0  0  0  0  0  0  0  0  0
  151.2374  140.8115  159.5169 H   0  0  0  0  0  0  0  0  0  0  0  0
  146.3593  140.5287  158.8131 H   0  0  0  0  0  0  0  0  0  0  0  0
  149.6039  141.4947  153.3360 H   0  0  0  0  0  0  0  0  0  0  0  0
  146.0818  140.2579  154.2311 H   0  0  0  0  0  0  0  0  0  0  0  0
  146.9119  141.0299  152.9067 H   0  0  0  0  0  0  0  0  0  0  0  0
  148.8241  139.7224  152.0628 H   0  0  0  0  0  0  0  0  0  0  0  0
  145.9847  139.1912  151.5075 H   0  0  0  0  0  0  0  0  0  0  0  0
  147.0656  137.8192  151.3332 H   0  0  0  0  0  0  0  0  0  0  0  0
  144.8129  138.0634  153.3646 H   0  0  0  0  0  0  0  0  0  0  0  0
  145.0642  136.7751  152.1739 H   0  0  0  0  0  0  0  0  0  0  0  0
  148.3038  137.3720  154.4726 H   0  0  0  0  0  0  0  0  0  0  0  0
  146.9380  138.2276  155.1729 H   0  0  0  0  0  0  0  0  0  0  0  0
  149.3693  144.0969  159.1175 H   0  0  0  0  0  0  0  0  0  0  0  0
  149.7608  142.9273  160.3692 H   0  0  0  0  0  0  0  0  0  0  0  0
  151.2698  144.8925  160.5262 H   0  0  0  0  0  0  0  0  0  0  0  0
  151.7487  144.7135  158.8617 H   0  0  0  0  0  0  0  0  0  0  0  0
  1  2  3  0  0  0  0
  2  3  1  0  0  0  0
  3  4  1  0  0  0  0
  3 28  1  0  0  0  0
  3 29  1  0  0  0  0
  4  5  2  0  0  0  0
  4  6  1  0  0  0  0
  6 27  1  0  0  0  0
  6  7  1  0  0  0  0
  7  8  1  0  0  0  0
  7 30  1  0  0  0  0
  7 31  1  0  0  0  0
  8  9  1  0  0  0  0
  8 32  1  0  0  0  0
  8 33  1  0  0  0  0
  9 10  1  0  0  0  0
  9 26  1  0  0  0  0
 10 15  1  0  0  0  0
 10 11  2  0  0  0  0
 11 12  1  0  0  0  0
 12 13  2  0  0  0  0
 12 34  1  0  0  0  0
 13 14  1  0  0  0  0
 14 18  1  0  0  0  0
 14 15  2  0  0  0  0
 15 16  1  0  0  0  0
 16 17  2  0  0  0  0
 17 18  1  0  0  0  0
 17 35  1  0  0  0  0
 18 19  1  0  0  0  0
 19 20  1  0  0  0  0
 19 36  1  0  0  0  0
 19 37  1  0  0  0  0
 20 25  1  0  0  0  0
 20 21  1  0  0  0  0
 20 22  1  0  0  0  0
 21 38  1  0  0  0  0
 22 23  1  0  0  0  0
 22 39  1  0  0  0  0
 22 40  1  0  0  0  0
 23 24  1  0  0  0  0
 23 41  1  0  0  0  0
 23 42  1  0  0  0  0
 24 25  1  0  0  0  0
 25 43  1  0  0  0  0
 25 44  1  0  0  0  0
 26 27  1  0  0  0  0
 26 45  1  0  0  0  0
 26 46  1  0  0  0  0
 27 47  1  0  0  0  0
 27 48  1  0  0  0  0
M  END
> <s_m_source_file>
AV-unprocessed.smi

> <i_m_source_file_index>
163

> <i_lp_mmshare_version>
43012

> <i_f3d_flags>
0

> <s_epik_input>
TiNDW0NIMl1DKD1PKU4xW0NIMl1bQ0gyXU4oW0NIMl1bQ0gyXTEpYyhuW2NIXW4yKWMoYzIzKW5bY0hdbjNbQ0gyXVtDQEBdNChbT0hdKVtDSDJdW0NIMl1PW0NIMl00

> <s_epik_cmdline>
J2VwaWtfcHl0aG9uJywgJy1waCcsICc3LjAnLCAnLXRuJywgJzgnLCAnLW1hJywgJzIwMCcsICctbWV0YWxfYmluZGluZycsICctaW1hZScsICc8aW5maWxlLm1hZT4nLCAnLW9tYWUnLCAnPG91dGZpbGUubWFlPic=

> <r_lp_tautomer_probability>
1

> <r_epik_Ionization_Penalty>
0.000981096

> <r_epik_Ionization_Penalty_Charging>
0

> <r_epik_Ionization_Penalty_Neutral>
0.000981096

> <r_epik_State_Penalty>
0.000482875

> <r_epik_Charging_Adjusted_Penalty>
0.000482875

> <i_epik_Tot_Q>
0

> <i_epik_Tot_abs_Q>
0

> <r_epik_Metal_State_Penalty>
-0

> <b_epik_Metal_Only>
0

> <s_lp_Force_Field>
OPLS_2005

> <r_lp_Energy>
51.4692

> <b_lp_Chiralities_Consistent>
1

> <s_lp_Variant>
AV-unprocessed.smi:163-2

> <Gold.Version>
5.8.1

> <Gold.Id.Protein>
6NUR|6NUR_protein|mol2

> <Gold.PLP.Fitness>
49.6861

> <Gold.PLP.PLP>
-44.7637

> <Gold.PLP.part.hbond>
-2.8828

> <Gold.PLP.part.metal>
0.0000

> <Gold.PLP.part.buried>
-1.4069

> <Gold.PLP.part.nonpolar>
-40.3533

> <Gold.PLP.part.repulsive>
1.4609

> <Gold.PLP.ligand.clash>
0.0053

> <Gold.PLP.ligand.torsion>
0.7942

> <Gold.PLP.Chemscore.Hbond>
1.0000

> <Gold.PLP.Chemscore.CHOScore>
1.0000

> <Gold.PLP.Chemscore.Metal>
0.0000

> <Gold.Chemscore.Hbonds>
donor molecule, donor type, donor heavy atom, donor atom, acceptor molecule, acceptor atom, score
      L1  H    21    38       P1  7957  0.17
      L1  C    17    35       P1  7957  0.82

> <Gold.PLP.Chemscore.Internal.Correction>
0.5160

> <Gold.Rescore>
     Score         DG    S(hbond)    S(metal)    S(lipo)     H(rot)  DE(clash)    DE(int)     intcor
      9.04     -10.42       0.99        0.00      73.61       2.72       0.69       0.69       ----

> <Gold.Chemscore.Fitness>
9.0405

> <Gold.Chemscore.DG>
-10.4173

> <Gold.Chemscore.ZeroCoef>
-5.4800

> <Gold.Chemscore.Hbond>
0.9867

> <Gold.Chemscore.Metal>
0.0000

> <Gold.Chemscore.Lipo>
73.6120

> <Gold.Chemscore.Internal_Hbond>
0.0000

> <Gold.Chemscore.DEClash>
0.6887

> <Gold.Chemscore.DEInternal>
0.6881

> <Gold.Chemscore.Rot>
2.7230

> <Gold.Chemscore.Internal.Correction>
   9.000000E+99

> <Gold.Chemscore.Hbonds>
donor molecule, donor type, donor heavy atom, donor atom, acceptor molecule, acceptor atom, score
      L1  H    21    38       P1  7957  0.17

> <Gold.Chemscore.Hbond.Weighted>
-3.2956

> <Gold.Chemscore.Metal.Weighted>
-0.0000

> <Gold.Chemscore.Lipo.Weighted>
-8.6126

> <Gold.Chemscore.Internal_Hbond.Weighted>
0.0000

> <Gold.Chemscore.DEClash.Weighted>
0.6887

> <Gold.Chemscore.DEInternal.Weighted>
0.6881

> <Gold.Chemscore.Rot.Weighted>
6.9709

> <Gold.Chemscore.Internal.Correction.Weighted>
   9.000000E+99

> <Gold.Protein.RotatedTorsions>
[ 6907 6896 6895 6894 ] final -130.09 input  -60.11 | X-H torsion
[ 7974 7965 7964 7962 ] final -134.71 input  175.53 | X-H torsion
[ 8008 7997 7996 7995 ] final  144.19 input   59.86 | X-H torsion
[ 10167 10162 10161 10158 ] final   94.41 input  -65.29 | X-H torsion
[ 10718 10713 10712 10709 ] final   41.48 input   66.30 | X-H torsion
[ 10763 10752 10751 10750 ] final  100.86 input  -60.55 | X-H torsion
[ 11005 11000 10999 10996 ] final  105.43 input  -57.11 | X-H torsion

> <Gold.Protein.ActiveResidues>
 VAL166  LYS551  ARG553  GLY616  TRP617  ASP618  TYR619  PRO620  LYS621  CYS622 
 ASP623  PHE694  ASN695  SER759  ASP760  ASP761  ALA762  ILE779  LEU786  VAL792 
 PHE793  MET794  SER795  GLU796  ALA797  LYS798  CYS799  TRP800  GLU811  SER814 

> <Gold.Protein.RotatedAtoms>
  150.9358  133.6713  159.2800 H   0  0  0  0  0  0  0  0  0  0  0  0  # atno 6907 bound_to 6896
  151.4119  135.0985  159.9597 H   0  0  0  0  0  0  0  0  0  0  0  0  # atno 6908 bound_to 6896
  152.5047  133.8829  159.7410 H   0  0  0  0  0  0  0  0  0  0  0  0  # atno 6909 bound_to 6896
  144.9079  140.6856  143.5044 H   0  0  0  0  0  0  0  0  0  0  0  0  # atno 7974 bound_to 7965
  156.2913  140.2242  156.5013 H   0  0  0  0  0  0  0  0  0  0  0  0  # atno 8008 bound_to 7997
  154.7687  140.0468  157.1055 H   0  0  0  0  0  0  0  0  0  0  0  0  # atno 8009 bound_to 7997
  154.9901  140.3089  155.4913 H   0  0  0  0  0  0  0  0  0  0  0  0  # atno 8010 bound_to 7997
  139.8087  144.6783  150.9669 H   0  0  0  0  0  0  0  0  0  0  0  0  # atno 10167 bound_to 10162
  157.3940  130.7822  149.7293 H   0  0  0  0  0  0  0  0  0  0  0  0  # atno 10718 bound_to 10713
  153.3193  135.4064  155.1403 H   0  0  0  0  0  0  0  0  0  0  0  0  # atno 10763 bound_to 10752
  154.8596  135.3583  154.5617 H   0  0  0  0  0  0  0  0  0  0  0  0  # atno 10764 bound_to 10752
  153.6050  135.7070  153.5428 H   0  0  0  0  0  0  0  0  0  0  0  0  # atno 10765 bound_to 10752
  139.8802  134.9335  156.5512 H   0  0  0  0  0  0  0  0  0  0  0  0  # atno 11005 bound_to 11000
  145.3505  139.1707  143.4437 LP  0  0  0  0  0  0  0  0  0  0  0  0  # atno 17320 bound_to 7965
  146.3143  140.3556  142.8660 LP  0  0  0  0  0  0  0  0  0  0  0  0  # atno 17321 bound_to 7965
  140.7818  143.4208  151.0845 LP  0  0  0  0  0  0  0  0  0  0  0  0  # atno 17342 bound_to 10162
  139.7875  143.8266  152.3147 LP  0  0  0  0  0  0  0  0  0  0  0  0  # atno 17343 bound_to 10162
  155.9805  130.4028  150.3522 LP  0  0  0  0  0  0  0  0  0  0  0  0  # atno 17370 bound_to 10713
  157.1641  131.0352  151.2827 LP  0  0  0  0  0  0  0  0  0  0  0  0  # atno 17371 bound_to 10713
  140.8238  133.8332  155.8920 LP  0  0  0  0  0  0  0  0  0  0  0  0  # atno 17394 bound_to 11000
  140.9393  134.1921  157.4809 LP  0  0  0  0  0  0  0  0  0  0  0  0  # atno 17395 bound_to 11000

$$$$
