AV-unprocessed.smi:2871|AV-procd|sdf|11032|dock10
  -GOLD-   2272015493D 1   1.00000     0.00000
 Structure written by MMmdl.
 38 40  0  0  0  0  0  0  0  0  1 V2000
  151.8293  144.6954  159.0534 C   0  0  0  0  0  0  0  0  0  0  0  0
  152.2503  143.6996  160.0302 N   0  0  0  0  0  0  0  0  0  0  0  0
  152.2168  144.0105  161.4554 C   0  0  0  0  0  0  0  0  0  0  0  0
  152.6758  142.4227  159.6026 C   0  0  0  0  0  0  0  0  0  0  0  0
  153.7199  141.7203  160.2527 C   0  0  0  0  0  0  0  0  0  0  0  0
  154.0615  140.4518  159.7315 C   0  0  0  0  0  0  0  0  0  0  0  0
  155.1662  139.5995  160.3374 C   0  0  0  0  0  0  0  0  0  0  0  0
  156.3510  140.2080  160.2689 F   0  0  0  0  0  0  0  0  0  0  0  0
  154.8914  139.3525  161.6183 F   0  0  0  0  0  0  0  0  0  0  0  0
  155.2494  138.4403  159.6839 F   0  0  0  0  0  0  0  0  0  0  0  0
  153.4192  139.9311  158.6617 N   0  0  0  0  0  0  0  0  0  0  0  0
  152.4511  140.6679  158.1186 C   0  0  0  0  0  0  0  0  0  0  0  0
  151.8206  140.1090  157.0224 N   0  0  0  0  0  0  0  0  0  0  0  0
  152.2025  138.8437  156.4050 C   0  0  2  0  0  0  0  0  0  0  0  0
  152.6491  138.9932  154.9489 C   0  0  0  0  0  0  0  0  0  0  0  0
  151.7499  137.9716  154.2379 C   0  0  2  0  0  0  0  0  0  0  0  0
  150.3085  138.4810  154.1118 C   0  0  0  0  0  0  0  0  0  0  0  0
  149.8132  138.3709  155.5524 C   0  0  0  0  0  0  0  0  0  0  0  0
  151.0552  137.8219  156.2751 C   0  0  1  0  0  0  0  0  0  0  0  0
  151.5895  136.9960  155.2543 O   0  0  0  0  0  0  0  0  0  0  0  0
  152.0516  141.8738  158.5332 N   0  0  0  0  0  0  0  0  0  0  0  0
  152.6468  144.9304  158.3712 H   0  0  0  0  0  0  0  0  0  0  0  0
  151.5242  145.6227  159.5387 H   0  0  0  0  0  0  0  0  0  0  0  0
  150.9826  144.3305  158.4717 H   0  0  0  0  0  0  0  0  0  0  0  0
  153.2096  143.9100  161.8945 H   0  0  0  0  0  0  0  0  0  0  0  0
  151.5383  143.3348  161.9770 H   0  0  0  0  0  0  0  0  0  0  0  0
  151.8754  145.0302  161.6330 H   0  0  0  0  0  0  0  0  0  0  0  0
  154.2413  142.1236  161.1073 H   0  0  0  0  0  0  0  0  0  0  0  0
  150.9812  140.5639  156.6942 H   0  0  0  0  0  0  0  0  0  0  0  0
  153.0180  138.4014  156.9789 H   0  0  0  0  0  0  0  0  0  0  0  0
  152.5181  139.9997  154.5487 H   0  0  0  0  0  0  0  0  0  0  0  0
  153.7011  138.7237  154.8479 H   0  0  0  0  0  0  0  0  0  0  0  0
  152.1661  137.5881  153.3060 H   0  0  0  0  0  0  0  0  0  0  0  0
  150.2586  139.4982  153.7221 H   0  0  0  0  0  0  0  0  0  0  0  0
  149.7237  137.8343  153.4567 H   0  0  0  0  0  0  0  0  0  0  0  0
  149.4671  139.3217  155.9582 H   0  0  0  0  0  0  0  0  0  0  0  0
  148.9888  137.6600  155.6156 H   0  0  0  0  0  0  0  0  0  0  0  0
  150.8275  137.2909  157.1997 H   0  0  0  0  0  0  0  0  0  0  0  0
  1  2  1  0  0  0  0
  1 22  1  0  0  0  0
  1 23  1  0  0  0  0
  1 24  1  0  0  0  0
  2  3  1  0  0  0  0
  2  4  1  0  0  0  0
  3 25  1  0  0  0  0
  3 26  1  0  0  0  0
  3 27  1  0  0  0  0
  4 21  1  0  0  0  0
  4  5  2  0  0  0  0
  5  6  1  0  0  0  0
  5 28  1  0  0  0  0
  6  7  1  0  0  0  0
  6 11  2  0  0  0  0
  7  8  1  0  0  0  0
  7  9  1  0  0  0  0
  7 10  1  0  0  0  0
 11 12  1  0  0  0  0
 12 13  1  0  0  0  0
 12 21  2  0  0  0  0
 13 14  1  0  0  0  0
 13 29  1  0  0  0  0
 14 19  1  0  0  0  0
 14 15  1  0  0  0  0
 14 30  1  0  0  0  0
 15 16  1  0  0  0  0
 15 31  1  0  0  0  0
 15 32  1  0  0  0  0
 16 20  1  0  0  0  0
 16 17  1  0  0  0  0
 16 33  1  0  0  0  0
 17 18  1  0  0  0  0
 17 34  1  0  0  0  0
 17 35  1  0  0  0  0
 18 19  1  0  0  0  0
 18 36  1  0  0  0  0
 18 37  1  0  0  0  0
 19 20  1  0  0  0  0
 19 38  1  0  0  0  0
M  END
> <s_m_source_file>
AV-unprocessed.smi

> <i_m_source_file_index>
2871

> <i_lp_mmshare_version>
43012

> <i_f3d_flags>
0

> <s_epik_input>
W0NIM11OKFtDSDNdKWMxW2NIXWMoQyhGKShGKUYpbmMobjEpW05IXVtDQEhdKFtDSDJdW0NAQEhdMjMpW0NAQEhdKE8zKVtDSDJdW0NIMl0y

> <s_epik_cmdline>
J2VwaWtfcHl0aG9uJywgJy1waCcsICc3LjAnLCAnLXRuJywgJzgnLCAnLW1hJywgJzIwMCcsICctbWV0YWxfYmluZGluZycsICctaW1hZScsICc8aW5maWxlLm1hZT4nLCAnLW9tYWUnLCAnPG91dGZpbGUubWFlPic=

> <r_lp_tautomer_probability>
1

> <r_epik_Ionization_Penalty>
0.00695968

> <r_epik_Ionization_Penalty_Charging>
0

> <r_epik_Ionization_Penalty_Neutral>
0.00695968

> <r_epik_State_Penalty>
0.0050343

> <r_epik_Charging_Adjusted_Penalty>
0.0050343

> <i_epik_Tot_Q>
0

> <i_epik_Tot_abs_Q>
0

> <r_epik_Metal_State_Penalty>
-0

> <b_epik_Metal_Only>
0

> <s_lp_Force_Field>
OPLS_2005

> <r_lp_Energy>
33.2945

> <b_lp_Chiralities_Consistent>
1

> <s_lp_Variant>
AV-unprocessed.smi:2871-3

> <Gold.Version>
5.8.1

> <Gold.Id.Protein>
6NUR|6NUR_protein|mol2

> <Gold.PLP.Fitness>
48.4382

> <Gold.PLP.PLP>
-43.5292

> <Gold.PLP.part.hbond>
-2.0000

> <Gold.PLP.part.metal>
0.0000

> <Gold.PLP.part.buried>
-5.7640

> <Gold.PLP.part.nonpolar>
-36.7915

> <Gold.PLP.part.repulsive>
0.1997

> <Gold.PLP.ligand.clash>
0.0000

> <Gold.PLP.ligand.torsion>
0.5594

> <Gold.PLP.Chemscore.Hbond>
2.0000

> <Gold.PLP.Chemscore.CHOScore>
0.0000

> <Gold.PLP.Chemscore.Metal>
0.0000

> <Gold.Chemscore.Hbonds>
donor molecule, donor type, donor heavy atom, donor atom, acceptor molecule, acceptor atom, score
      P1  H  7997  8008       L1    11  1.00
      P1  H 10752 10764       L1    20  0.96

> <Gold.PLP.Chemscore.Internal.Correction>
0.0277

> <Gold.Rescore>
     Score         DG    S(hbond)    S(metal)    S(lipo)     H(rot)  DE(clash)    DE(int)     intcor
     16.32     -17.09       1.05        0.00      91.20       1.00       0.18       0.59       ----

> <Gold.Chemscore.Fitness>
16.3177

> <Gold.Chemscore.DG>
-17.0899

> <Gold.Chemscore.ZeroCoef>
-5.4800

> <Gold.Chemscore.Hbond>
1.0479

> <Gold.Chemscore.Metal>
0.0000

> <Gold.Chemscore.Lipo>
91.1969

> <Gold.Chemscore.Internal_Hbond>
0.0000

> <Gold.Chemscore.DEClash>
0.1839

> <Gold.Chemscore.DEInternal>
0.5883

> <Gold.Chemscore.Rot>
1.0000

> <Gold.Chemscore.Internal.Correction>
   9.000000E+99

> <Gold.Chemscore.Hbonds>
donor molecule, donor type, donor heavy atom, donor atom, acceptor molecule, acceptor atom, score
      P1  H  7997  8008       L1    11  0.09
      P1  H 10752 10764       L1    20  0.27

> <Gold.Chemscore.Hbond.Weighted>
-3.4999

> <Gold.Chemscore.Metal.Weighted>
-0.0000

> <Gold.Chemscore.Lipo.Weighted>
-10.6700

> <Gold.Chemscore.Internal_Hbond.Weighted>
0.0000

> <Gold.Chemscore.DEClash.Weighted>
0.1839

> <Gold.Chemscore.DEInternal.Weighted>
0.5883

> <Gold.Chemscore.Rot.Weighted>
2.5600

> <Gold.Chemscore.Internal.Correction.Weighted>
   9.000000E+99

> <Gold.Protein.RotatedTorsions>
[ 6907 6896 6895 6894 ] final -120.52 input  -60.11 | X-H torsion
[ 7974 7965 7964 7962 ] final  -32.11 input  175.53 | X-H torsion
[ 8008 7997 7996 7995 ] final -101.35 input   59.86 | X-H torsion
[ 10167 10162 10161 10158 ] final  160.37 input  -65.29 | X-H torsion
[ 10718 10713 10712 10709 ] final -145.68 input   66.30 | X-H torsion
[ 10763 10752 10751 10750 ] final  -55.82 input  -60.55 | X-H torsion
[ 11005 11000 10999 10996 ] final   -1.59 input  -57.11 | X-H torsion

> <Gold.Protein.ActiveResidues>
 VAL166  LYS551  ARG553  GLY616  TRP617  ASP618  TYR619  PRO620  LYS621  CYS622 
 ASP623  PHE694  ASN695  SER759  ASP760  ASP761  ALA762  ILE779  LEU786  VAL792 
 PHE793  MET794  SER795  GLU796  ALA797  LYS798  CYS799  TRP800  GLU811  SER814 

> <Gold.Protein.RotatedAtoms>
  150.8401  133.7950  159.3064 H   0  0  0  0  0  0  0  0  0  0  0  0  # atno 6907 bound_to 6896
  151.5654  135.1062  159.9992 H   0  0  0  0  0  0  0  0  0  0  0  0  # atno 6908 bound_to 6896
  152.4466  133.7506  159.6748 H   0  0  0  0  0  0  0  0  0  0  0  0  # atno 6909 bound_to 6896
  146.1015  140.5752  142.8819 H   0  0  0  0  0  0  0  0  0  0  0  0  # atno 7974 bound_to 7965
  154.8414  140.0435  157.1543 H   0  0  0  0  0  0  0  0  0  0  0  0  # atno 8008 bound_to 7997
  154.9043  140.3004  155.5280 H   0  0  0  0  0  0  0  0  0  0  0  0  # atno 8009 bound_to 7997
  156.2992  140.2370  156.4075 H   0  0  0  0  0  0  0  0  0  0  0  0  # atno 8010 bound_to 7997
  139.4839  144.4641  151.8665 H   0  0  0  0  0  0  0  0  0  0  0  0  # atno 10167 bound_to 10162
  156.3855  130.7859  151.2056 H   0  0  0  0  0  0  0  0  0  0  0  0  # atno 10718 bound_to 10713
  154.1969  135.6418  153.5076 H   0  0  0  0  0  0  0  0  0  0  0  0  # atno 10763 bound_to 10752
  153.0021  135.5442  154.6357 H   0  0  0  0  0  0  0  0  0  0  0  0  # atno 10764 bound_to 10752
  154.5760  135.2921  155.0754 H   0  0  0  0  0  0  0  0  0  0  0  0  # atno 10765 bound_to 10752
  140.6490  133.9421  155.8369 H   0  0  0  0  0  0  0  0  0  0  0  0  # atno 11005 bound_to 11000
  144.7437  140.5010  143.6851 LP  0  0  0  0  0  0  0  0  0  0  0  0  # atno 17320 bound_to 7965
  145.5844  139.1491  143.3217 LP  0  0  0  0  0  0  0  0  0  0  0  0  # atno 17321 bound_to 7965
  140.4105  144.2375  150.5889 LP  0  0  0  0  0  0  0  0  0  0  0  0  # atno 17342 bound_to 10162
  140.4971  143.2329  151.8734 LP  0  0  0  0  0  0  0  0  0  0  0  0  # atno 17343 bound_to 10162
  157.7495  131.0331  150.4258 LP  0  0  0  0  0  0  0  0  0  0  0  0  # atno 17370 bound_to 10713
  156.4509  130.4011  149.6636 LP  0  0  0  0  0  0  0  0  0  0  0  0  # atno 17371 bound_to 10713
  141.0551  134.0428  157.3733 LP  0  0  0  0  0  0  0  0  0  0  0  0  # atno 17394 bound_to 11000
  139.9053  135.0177  156.7455 LP  0  0  0  0  0  0  0  0  0  0  0  0  # atno 17395 bound_to 11000

$$$$
