AV-unprocessed.smi:2849|AV-procd|sdf|10962|dock7
  -GOLD-   2272015413D 1   1.00000     0.00000
 Structure written by MMmdl.
 56 59  0  0  0  0  0  0  0  0  3 V2000
  144.7413  134.5085  155.5246 C   0  0  0  0  0  0  0  0  0  0  0  0
  144.3455  134.0858  154.1600 N   0  3  2  0  0  0  0  0  0  0  0  0
  145.4722  133.7167  153.2687 C   0  0  1  0  0  0  0  0  0  0  0  0
  144.9208  132.9000  152.0762 C   0  0  0  0  0  0  0  0  0  0  0  0
  143.7642  133.5921  151.3255 C   0  0  0  0  0  0  0  0  0  0  0  0
  142.7604  134.2679  152.2823 C   0  0  0  0  0  0  0  0  0  0  0  0
  143.4256  135.0162  153.4614 C   0  0  2  0  0  0  0  0  0  0  0  0
  144.1437  136.3342  153.0750 C   0  0  0  0  0  0  0  0  0  0  0  0
  145.4799  136.1429  152.3200 C   0  0  1  0  0  0  0  0  0  0  0  0
  146.2696  137.3704  152.4148 N   0  0  0  0  0  0  0  0  0  0  0  0
  146.9524  137.7862  153.4921 C   0  0  0  0  0  0  0  0  0  0  0  0
  146.9953  137.1669  154.5548 O   0  0  0  0  0  0  0  0  0  0  0  0
  147.5535  138.9660  153.2604 N   0  0  0  0  0  0  0  0  0  0  0  0
  148.4148  139.6999  154.1201 C   0  0  0  0  0  0  0  0  0  0  0  0
  149.3180  138.9742  154.9264 C   0  0  0  0  0  0  0  0  0  0  0  0
  150.1740  139.6614  155.8111 C   0  0  0  0  0  0  0  0  0  0  0  0
  150.1055  141.0719  155.8879 C   0  0  0  0  0  0  0  0  0  0  0  0
  150.9114  141.8490  156.7320 N   0  0  0  0  0  0  0  0  0  0  0  0
  150.1993  142.6511  157.7134 C   0  0  0  0  0  0  0  0  0  0  0  0
  151.2493  143.0521  158.7520 C   0  0  0  0  0  0  0  0  0  0  0  0
  152.3596  142.0037  158.6145 C   0  0  0  0  0  0  0  0  0  0  0  0
  151.9029  141.0892  157.4742 C   0  0  0  0  0  0  0  0  0  0  0  0
  149.2225  141.7298  155.1054 N   0  3  0  0  0  0  0  0  0  0  0  0
  148.3876  141.1108  154.2427 C   0  0  0  0  0  0  0  0  0  0  0  0
  146.3077  134.9598  152.8729 C   0  0  0  0  0  0  0  0  0  0  0  0
  145.3176  135.4332  155.5208 H   0  0  0  0  0  0  0  0  0  0  0  0
  145.3454  133.7362  156.0013 H   0  0  0  0  0  0  0  0  0  0  0  0
  143.8579  134.6642  156.1444 H   0  0  0  0  0  0  0  0  0  0  0  0
  146.1307  133.0466  153.8235 H   0  0  0  0  0  0  0  0  0  0  0  0
  145.7229  132.6520  151.3801 H   0  0  0  0  0  0  0  0  0  0  0  0
  144.5546  131.9463  152.4585 H   0  0  0  0  0  0  0  0  0  0  0  0
  144.1521  134.3130  150.6110 H   0  0  0  0  0  0  0  0  0  0  0  0
  143.2412  132.8583  150.7114 H   0  0  0  0  0  0  0  0  0  0  0  0
  142.1051  134.9383  151.7250 H   0  0  0  0  0  0  0  0  0  0  0  0
  142.1114  133.4941  152.6944 H   0  0  0  0  0  0  0  0  0  0  0  0
  142.6234  135.2749  154.1540 H   0  0  0  0  0  0  0  0  0  0  0  0
  143.4751  136.9635  152.4864 H   0  0  0  0  0  0  0  0  0  0  0  0
  144.3320  136.8960  153.9907 H   0  0  0  0  0  0  0  0  0  0  0  0
  145.2546  135.9504  151.2746 H   0  0  0  0  0  0  0  0  0  0  0  0
  146.2925  137.9551  151.5919 H   0  0  0  0  0  0  0  0  0  0  0  0
  147.3478  139.4044  152.3747 H   0  0  0  0  0  0  0  0  0  0  0  0
  149.3622  137.8964  154.8664 H   0  0  0  0  0  0  0  0  0  0  0  0
  150.8732  139.1058  156.4188 H   0  0  0  0  0  0  0  0  0  0  0  0
  149.7442  143.5260  157.2479 H   0  0  0  0  0  0  0  0  0  0  0  0
  149.4062  142.0731  158.1888 H   0  0  0  0  0  0  0  0  0  0  0  0
  151.6461  144.0426  158.5260 H   0  0  0  0  0  0  0  0  0  0  0  0
  150.8293  143.0848  159.7578 H   0  0  0  0  0  0  0  0  0  0  0  0
  153.3017  142.4906  158.3599 H   0  0  0  0  0  0  0  0  0  0  0  0
  152.5147  141.4425  159.5364 H   0  0  0  0  0  0  0  0  0  0  0  0
  151.4611  140.1766  157.8770 H   0  0  0  0  0  0  0  0  0  0  0  0
  152.7369  140.8039  156.8322 H   0  0  0  0  0  0  0  0  0  0  0  0
  147.7260  141.7699  153.7010 H   0  0  0  0  0  0  0  0  0  0  0  0
  146.8534  135.2931  153.7568 H   0  0  0  0  0  0  0  0  0  0  0  0
  147.0762  134.6786  152.1518 H   0  0  0  0  0  0  0  0  0  0  0  0
  143.8187  133.2350  154.2983 H   0  0  0  0  0  0  0  0  0  0  0  0
  149.1799  142.7470  155.1723 H   0  0  0  0  0  0  0  0  0  0  0  0
  1  2  1  0  0  0  0
  1 26  1  0  0  0  0
  1 27  1  0  0  0  0
  1 28  1  0  0  0  0
  2  7  1  0  0  0  0
  2  3  1  0  0  0  0
  2 55  1  0  0  0  0
  3 25  1  0  0  0  0
  3  4  1  0  0  0  0
  3 29  1  0  0  0  0
  4  5  1  0  0  0  0
  4 30  1  0  0  0  0
  4 31  1  0  0  0  0
  5  6  1  0  0  0  0
  5 32  1  0  0  0  0
  5 33  1  0  0  0  0
  6  7  1  0  0  0  0
  6 34  1  0  0  0  0
  6 35  1  0  0  0  0
  7  8  1  0  0  0  0
  7 36  1  0  0  0  0
  8  9  1  0  0  0  0
  8 37  1  0  0  0  0
  8 38  1  0  0  0  0
  9 10  1  0  0  0  0
  9 25  1  0  0  0  0
  9 39  1  0  0  0  0
 10 11  1  0  0  0  0
 10 40  1  0  0  0  0
 11 12  2  0  0  0  0
 11 13  1  0  0  0  0
 13 14  1  0  0  0  0
 13 41  1  0  0  0  0
 14 24  1  0  0  0  0
 14 15  2  0  0  0  0
 15 16  1  0  0  0  0
 15 42  1  0  0  0  0
 16 17  2  0  0  0  0
 16 43  1  0  0  0  0
 17 18  1  0  0  0  0
 17 23  1  0  0  0  0
 18 22  1  0  0  0  0
 18 19  1  0  0  0  0
 19 20  1  0  0  0  0
 19 44  1  0  0  0  0
 19 45  1  0  0  0  0
 20 21  1  0  0  0  0
 20 46  1  0  0  0  0
 20 47  1  0  0  0  0
 21 22  1  0  0  0  0
 21 48  1  0  0  0  0
 21 49  1  0  0  0  0
 22 50  1  0  0  0  0
 22 51  1  0  0  0  0
 23 24  2  0  0  0  0
 23 56  1  0  0  0  0
 24 52  1  0  0  0  0
 25 53  1  0  0  0  0
 25 54  1  0  0  0  0
M  CHG  1   2   1
M  CHG  1  23   1
M  END
> <s_m_source_file>
AV-unprocessed.smi

> <i_m_source_file_index>
2849

> <i_lp_mmshare_version>
43012

> <i_f3d_flags>
0

> <s_epik_input>
W0NIMl0xW0NIMl1bQ0gyXVtDQEhdKE4oW0NIM10pW0NIXTEyKVtDSDJdW0NASF0oW0NIMl0yKVtOSF1DKD1PKVtOSF1jM1tjSF1bY0hdYyhuW2NIXTMpTjRbQ0gyXVtDSDJdW0NIMl1bQ0gyXTQ=

> <s_epik_cmdline>
J2VwaWtfcHl0aG9uJywgJy1waCcsICc3LjAnLCAnLXRuJywgJzgnLCAnLW1hJywgJzIwMCcsICctbWV0YWxfYmluZGluZycsICctaW1hZScsICc8aW5maWxlLm1hZT4nLCAnLW9tYWUnLCAnPG91dGZpbGUubWFlPic=

> <r_lp_tautomer_probability>
0.999994

> <r_epik_Ionization_Penalty>
1.2404

> <r_epik_Ionization_Penalty_Charging>
1.24038

> <r_epik_Ionization_Penalty_Neutral>
1.86921e-05

> <r_epik_State_Penalty>
1.30821

> <r_epik_Charging_Adjusted_Penalty>
2.54859

> <i_epik_Tot_Q>
2

> <i_epik_Tot_abs_Q>
2

> <r_epik_Metal_State_Penalty>
1.37823

> <b_epik_Metal_Only>
0

> <s_lp_Force_Field>
OPLS_2005

> <r_lp_Energy>
73.3774

> <b_lp_Chiralities_Consistent>
1

> <s_lp_Variant>
AV-unprocessed.smi:2849-6

> <Gold.Version>
5.8.1

> <Gold.Id.Protein>
6NUR|6NUR_protein|mol2

> <Gold.PLP.Fitness>
42.6685

> <Gold.PLP.PLP>
-31.5990

> <Gold.PLP.part.hbond>
-3.7016

> <Gold.PLP.part.metal>
0.0000

> <Gold.PLP.part.buried>
-3.0386

> <Gold.PLP.part.nonpolar>
-25.4712

> <Gold.PLP.part.repulsive>
0.4027

> <Gold.PLP.ligand.clash>
0.0000

> <Gold.PLP.ligand.torsion>
0.4751

> <Gold.PLP.Chemscore.Hbond>
4.0000

> <Gold.PLP.Chemscore.CHOScore>
0.0000

> <Gold.PLP.Chemscore.Metal>
0.0000

> <Gold.Chemscore.Hbonds>
donor molecule, donor type, donor heavy atom, donor atom, acceptor molecule, acceptor atom, score
      L1  H     2    55       P1 10957  2.00
      L1  H    23    56       P1  8028  1.92

> <Gold.PLP.Chemscore.Internal.Correction>
0.0197

> <Gold.Rescore>
     Score         DG    S(hbond)    S(metal)    S(lipo)     H(rot)  DE(clash)    DE(int)     intcor
     16.42     -19.25       2.00        0.00      86.76       1.19       0.01       2.82       ----

> <Gold.Chemscore.Fitness>
16.4231

> <Gold.Chemscore.DG>
-19.2532

> <Gold.Chemscore.ZeroCoef>
-5.4800

> <Gold.Chemscore.Hbond>
1.9952

> <Gold.Chemscore.Metal>
0.0000

> <Gold.Chemscore.Lipo>
86.7551

> <Gold.Chemscore.Internal_Hbond>
0.0000

> <Gold.Chemscore.DEClash>
0.0117

> <Gold.Chemscore.DEInternal>
2.8183

> <Gold.Chemscore.Rot>
1.1879

> <Gold.Chemscore.Internal.Correction>
   9.000000E+99

> <Gold.Chemscore.Hbonds>
donor molecule, donor type, donor heavy atom, donor atom, acceptor molecule, acceptor atom, score
      L1  H     2    55       P1 10957  0.99
      L1  H    23    56       P1  8028  0.91

> <Gold.Chemscore.Hbond.Weighted>
-6.6639

> <Gold.Chemscore.Metal.Weighted>
-0.0000

> <Gold.Chemscore.Lipo.Weighted>
-10.1504

> <Gold.Chemscore.Internal_Hbond.Weighted>
0.0000

> <Gold.Chemscore.DEClash.Weighted>
0.0117

> <Gold.Chemscore.DEInternal.Weighted>
2.8183

> <Gold.Chemscore.Rot.Weighted>
3.0410

> <Gold.Chemscore.Internal.Correction.Weighted>
   9.000000E+99

> <Gold.Protein.RotatedTorsions>
[ 6907 6896 6895 6894 ] final -174.23 input  -60.11 | X-H torsion
[ 7974 7965 7964 7962 ] final  -77.67 input  175.53 | X-H torsion
[ 8008 7997 7996 7995 ] final  170.24 input   59.86 | X-H torsion
[ 10167 10162 10161 10158 ] final   80.05 input  -65.29 | X-H torsion
[ 10718 10713 10712 10709 ] final  -11.89 input   66.30 | X-H torsion
[ 10763 10752 10751 10750 ] final  -92.83 input  -60.55 | X-H torsion
[ 11005 11000 10999 10996 ] final   72.09 input  -57.11 | X-H torsion

> <Gold.Protein.ActiveResidues>
 VAL166  LYS551  ARG553  GLY616  TRP617  ASP618  TYR619  PRO620  LYS621  CYS622 
 ASP623  PHE694  ASN695  SER759  ASP760  ASP761  ALA762  ILE779  LEU786  VAL792 
 PHE793  MET794  SER795  GLU796  ALA797  LYS798  CYS799  TRP800  GLU811  SER814 

> <Gold.Protein.RotatedAtoms>
  151.5690  133.3392  159.2985 H   0  0  0  0  0  0  0  0  0  0  0  0  # atno 6907 bound_to 6896
  150.8379  134.7662  159.6919 H   0  0  0  0  0  0  0  0  0  0  0  0  # atno 6908 bound_to 6896
  152.4452  134.5517  159.9920 H   0  0  0  0  0  0  0  0  0  0  0  0  # atno 6909 bound_to 6896
  145.5966  140.9418  143.1263 H   0  0  0  0  0  0  0  0  0  0  0  0  # atno 7974 bound_to 7965
  156.1384  140.1543  156.8959 H   0  0  0  0  0  0  0  0  0  0  0  0  # atno 8008 bound_to 7997
  154.4966  140.0836  156.7749 H   0  0  0  0  0  0  0  0  0  0  0  0  # atno 8009 bound_to 7997
  155.4126  140.3419  155.4267 H   0  0  0  0  0  0  0  0  0  0  0  0  # atno 8010 bound_to 7997
  139.9538  144.6008  150.8136 H   0  0  0  0  0  0  0  0  0  0  0  0  # atno 10167 bound_to 10162
  156.6524  130.4958  149.6057 H   0  0  0  0  0  0  0  0  0  0  0  0  # atno 10718 bound_to 10713
  154.6899  135.5217  153.8378 H   0  0  0  0  0  0  0  0  0  0  0  0  # atno 10763 bound_to 10752
  153.0625  135.6573  154.0440 H   0  0  0  0  0  0  0  0  0  0  0  0  # atno 10764 bound_to 10752
  154.0316  135.2985  155.3347 H   0  0  0  0  0  0  0  0  0  0  0  0  # atno 10765 bound_to 10752
  139.9509  134.7229  156.0865 H   0  0  0  0  0  0  0  0  0  0  0  0  # atno 11005 bound_to 11000
  144.7328  139.7675  143.7341 LP  0  0  0  0  0  0  0  0  0  0  0  0  # atno 17320 bound_to 7965
  146.1607  139.4720  142.9990 LP  0  0  0  0  0  0  0  0  0  0  0  0  # atno 17321 bound_to 7965
  140.7574  143.3087  151.2899 LP  0  0  0  0  0  0  0  0  0  0  0  0  # atno 17342 bound_to 10162
  139.6607  144.0194  152.2690 LP  0  0  0  0  0  0  0  0  0  0  0  0  # atno 17343 bound_to 10162
  156.2074  130.6657  151.1233 LP  0  0  0  0  0  0  0  0  0  0  0  0  # atno 17370 bound_to 10713
  157.7136  131.0721  150.6409 LP  0  0  0  0  0  0  0  0  0  0  0  0  # atno 17371 bound_to 10713
  141.1171  133.6624  156.3122 LP  0  0  0  0  0  0  0  0  0  0  0  0  # atno 17394 bound_to 11000
  140.5722  134.5829  157.5460 LP  0  0  0  0  0  0  0  0  0  0  0  0  # atno 17395 bound_to 11000

$$$$
