AV-unprocessed.smi:1492|AV-procd|sdf|6044|dock8
  -GOLD-   22720 6153D 1   1.00000     0.00000
 Structure written by MMmdl.
 51 52  0  0  0  0  0  0  0  0  2 V2000
  153.0775  132.7152  153.5958 C   0  0  0  0  0  0  0  0  0  0  0  0
  152.2686  133.2909  154.7707 C   0  0  0  0  0  0  0  0  0  0  0  0
  151.2827  134.4498  154.4042 C   0  0  1  0  0  0  0  0  0  0  0  0
  150.8318  135.0830  155.7475 C   0  0  0  0  0  0  0  0  0  0  0  0
  152.0645  135.5383  153.5925 C   0  0  0  0  0  0  0  0  0  0  0  0
  151.3861  136.8295  153.5219 N   0  0  0  0  0  0  0  0  0  0  0  0
  151.8549  138.0062  153.9632 C   0  0  0  0  0  0  0  0  0  0  0  0
  152.8913  138.1299  154.6155 O   0  0  0  0  0  0  0  0  0  0  0  0
  151.0372  139.2373  153.5709 C   0  0  0  0  0  0  0  0  0  0  0  0
  150.6995  140.1736  154.7324 C   0  0  0  0  0  0  0  0  0  0  0  0
  149.4222  140.4429  155.1266 C   0  0  0  0  0  0  0  0  0  0  0  0
  148.2036  139.8570  154.4354 C   0  0  0  0  0  0  0  0  0  0  0  0
  149.1611  141.2847  156.2210 N   0  0  0  0  0  0  0  0  0  0  0  0
  150.1376  141.8012  156.8646 C   0  0  0  0  0  0  0  0  0  0  0  0
  149.8521  142.7034  158.0460 C   0  0  0  0  0  0  0  0  0  0  0  0
  151.4616  141.5903  156.5519 N   0  5  0  0  0  0  0  0  0  0  0  0
  151.7967  140.7887  155.5016 C   0  0  0  0  0  0  0  0  0  0  0  0
  152.9680  140.5619  155.2007 O   0  0  0  0  0  0  0  0  0  0  0  0
  150.1245  133.9453  153.6057 N   0  0  0  0  0  0  0  0  0  0  0  0
  150.4618  133.3971  152.2848 C   0  0  0  0  0  0  0  0  0  0  0  0
  149.2108  133.0171  151.4753 C   0  0  0  0  0  0  0  0  0  0  0  0
  148.4292  132.0847  152.2106 O   0  0  0  0  0  0  0  0  0  0  0  0
  148.0239  132.5991  153.4724 C   0  0  0  0  0  0  0  0  0  0  0  0
  149.2619  132.9812  154.3019 C   0  0  0  0  0  0  0  0  0  0  0  0
  153.7103  131.8952  153.9352 H   0  0  0  0  0  0  0  0  0  0  0  0
  153.7323  133.4639  153.1503 H   0  0  0  0  0  0  0  0  0  0  0  0
  152.4279  132.3258  152.8120 H   0  0  0  0  0  0  0  0  0  0  0  0
  151.7374  132.4774  155.2633 H   0  0  0  0  0  0  0  0  0  0  0  0
  152.9734  133.6176  155.5359 H   0  0  0  0  0  0  0  0  0  0  0  0
  151.6853  135.3920  156.3509 H   0  0  0  0  0  0  0  0  0  0  0  0
  150.2655  134.3863  156.3643 H   0  0  0  0  0  0  0  0  0  0  0  0
  150.2168  135.9699  155.5973 H   0  0  0  0  0  0  0  0  0  0  0  0
  153.0395  135.7132  154.0483 H   0  0  0  0  0  0  0  0  0  0  0  0
  152.2712  135.1993  152.5771 H   0  0  0  0  0  0  0  0  0  0  0  0
  150.5178  136.8464  153.0054 H   0  0  0  0  0  0  0  0  0  0  0  0
  151.5656  139.7716  152.7807 H   0  0  0  0  0  0  0  0  0  0  0  0
  150.1088  138.9031  153.1073 H   0  0  0  0  0  0  0  0  0  0  0  0
  148.1428  140.2101  153.4060 H   0  0  0  0  0  0  0  0  0  0  0  0
  147.2838  140.1473  154.9444 H   0  0  0  0  0  0  0  0  0  0  0  0
  148.2501  138.7682  154.4279 H   0  0  0  0  0  0  0  0  0  0  0  0
  150.1926  143.7179  157.8367 H   0  0  0  0  0  0  0  0  0  0  0  0
  150.3707  142.3403  158.9338 H   0  0  0  0  0  0  0  0  0  0  0  0
  148.7842  142.7381  158.2657 H   0  0  0  0  0  0  0  0  0  0  0  0
  151.0208  134.1168  151.6909 H   0  0  0  0  0  0  0  0  0  0  0  0
  151.0907  132.5131  152.3900 H   0  0  0  0  0  0  0  0  0  0  0  0
  148.6161  133.9028  151.2457 H   0  0  0  0  0  0  0  0  0  0  0  0
  149.4974  132.5686  150.5242 H   0  0  0  0  0  0  0  0  0  0  0  0
  147.3733  133.4633  153.3296 H   0  0  0  0  0  0  0  0  0  0  0  0
  147.4389  131.8414  153.9936 H   0  0  0  0  0  0  0  0  0  0  0  0
  149.8215  132.0756  154.5362 H   0  0  0  0  0  0  0  0  0  0  0  0
  148.9022  133.3854  155.2456 H   0  0  0  0  0  0  0  0  0  0  0  0
  1  2  1  0  0  0  0
  1 25  1  0  0  0  0
  1 26  1  0  0  0  0
  1 27  1  0  0  0  0
  2  3  1  0  0  0  0
  2 28  1  0  0  0  0
  2 29  1  0  0  0  0
  3  4  1  0  0  0  0
  3  5  1  0  0  0  0
  3 19  1  0  0  0  0
  4 30  1  0  0  0  0
  4 31  1  0  0  0  0
  4 32  1  0  0  0  0
  5  6  1  0  0  0  0
  5 33  1  0  0  0  0
  5 34  1  0  0  0  0
  6  7  1  0  0  0  0
  6 35  1  0  0  0  0
  7  8  2  0  0  0  0
  7  9  1  0  0  0  0
  9 10  1  0  0  0  0
  9 36  1  0  0  0  0
  9 37  1  0  0  0  0
 10 17  1  0  0  0  0
 10 11  2  0  0  0  0
 11 12  1  0  0  0  0
 11 13  1  0  0  0  0
 12 38  1  0  0  0  0
 12 39  1  0  0  0  0
 12 40  1  0  0  0  0
 13 14  2  0  0  0  0
 14 15  1  0  0  0  0
 14 16  1  0  0  0  0
 15 41  1  0  0  0  0
 15 42  1  0  0  0  0
 15 43  1  0  0  0  0
 16 17  1  0  0  0  0
 17 18  2  0  0  0  0
 19 24  1  0  0  0  0
 19 20  1  0  0  0  0
 20 21  1  0  0  0  0
 20 44  1  0  0  0  0
 20 45  1  0  0  0  0
 21 22  1  0  0  0  0
 21 46  1  0  0  0  0
 21 47  1  0  0  0  0
 22 23  1  0  0  0  0
 23 24  1  0  0  0  0
 23 48  1  0  0  0  0
 23 49  1  0  0  0  0
 24 50  1  0  0  0  0
 24 51  1  0  0  0  0
M  CHG  1  16  -1
M  END
> <s_m_source_file>
AV-unprocessed.smi

> <i_m_source_file_index>
1492

> <i_lp_mmshare_version>
43012

> <i_f3d_flags>
0

> <s_epik_input>
W0NIMl0xW0NIMl1PW0NIMl1bQ0gyXU4xW0NAQF0oW0NIM10pKFtDSDJdW0NIM10pW0NIMl1bTkhdQyg9TylbQ0gyXWMyYyhbQ0gzXSluYyhbQ0gzXSlbbkhdYzI9Tw==

> <s_epik_cmdline>
J2VwaWtfcHl0aG9uJywgJy1waCcsICc3LjAnLCAnLXRuJywgJzgnLCAnLW1hJywgJzIwMCcsICctbWV0YWxfYmluZGluZycsICctaW1hZScsICc8aW5maWxlLm1hZT4nLCAnLW9tYWUnLCAnPG91dGZpbGUubWFlPic=

> <r_lp_tautomer_probability>
0.839158

> <r_epik_Ionization_Penalty>
6.88574

> <r_epik_Ionization_Penalty_Charging>
6.74373e-08

> <r_epik_Ionization_Penalty_Neutral>
6.88574

> <r_epik_State_Penalty>
4.79448

> <r_epik_Charging_Adjusted_Penalty>
4.79448

> <i_epik_Tot_Q>
-1

> <i_epik_Tot_abs_Q>
1

> <r_epik_Metal_State_Penalty>
1.16421

> <b_epik_Metal_Only>
1

> <s_lp_Force_Field>
OPLS_2005

> <r_lp_Energy>
44.9842

> <b_lp_Chiralities_Consistent>
1

> <s_lp_Variant>
AV-unprocessed.smi:1492-9

> <Gold.Version>
5.8.1

> <Gold.Id.Protein>
6NUR|6NUR_protein|mol2

> <Gold.PLP.Fitness>
44.3700

> <Gold.PLP.PLP>
-35.9584

> <Gold.PLP.part.hbond>
-4.0000

> <Gold.PLP.part.metal>
0.0000

> <Gold.PLP.part.buried>
-3.7573

> <Gold.PLP.part.nonpolar>
-28.7963

> <Gold.PLP.part.repulsive>
0.4033

> <Gold.PLP.ligand.clash>
0.0000

> <Gold.PLP.ligand.torsion>
0.3494

> <Gold.PLP.Chemscore.Hbond>
2.9920

> <Gold.PLP.Chemscore.CHOScore>
0.0000

> <Gold.PLP.Chemscore.Metal>
0.0000

> <Gold.Chemscore.Hbonds>
donor molecule, donor type, donor heavy atom, donor atom, acceptor molecule, acceptor atom, score
      L1  H     6    35       P1  7948  0.05
      P1  H  7997  8010       L1    18  0.43

> <Gold.PLP.Chemscore.Internal.Correction>
0.1343

> <Gold.Rescore>
     Score         DG    S(hbond)    S(metal)    S(lipo)     H(rot)  DE(clash)    DE(int)     intcor
     13.04     -15.25       2.11        0.00      67.98       2.05       0.06       2.15       ----

> <Gold.Chemscore.Fitness>
13.0437

> <Gold.Chemscore.DG>
-15.2531

> <Gold.Chemscore.ZeroCoef>
-5.4800

> <Gold.Chemscore.Hbond>
2.1129

> <Gold.Chemscore.Metal>
0.0000

> <Gold.Chemscore.Lipo>
67.9836

> <Gold.Chemscore.Internal_Hbond>
0.0000

> <Gold.Chemscore.DEClash>
0.0560

> <Gold.Chemscore.DEInternal>
2.1534

> <Gold.Chemscore.Rot>
2.0461

> <Gold.Chemscore.Internal.Correction>
   9.000000E+99

> <Gold.Chemscore.Hbonds>
donor molecule, donor type, donor heavy atom, donor atom, acceptor molecule, acceptor atom, score
      P1  H  7997  8010       L1    18  0.44

> <Gold.Chemscore.Hbond.Weighted>
-7.0571

> <Gold.Chemscore.Metal.Weighted>
-0.0000

> <Gold.Chemscore.Lipo.Weighted>
-7.9541

> <Gold.Chemscore.Internal_Hbond.Weighted>
0.0000

> <Gold.Chemscore.DEClash.Weighted>
0.0560

> <Gold.Chemscore.DEInternal.Weighted>
2.1534

> <Gold.Chemscore.Rot.Weighted>
5.2381

> <Gold.Chemscore.Internal.Correction.Weighted>
   9.000000E+99

> <Gold.Protein.RotatedTorsions>
[ 6907 6896 6895 6894 ] final  147.48 input  -60.11 | X-H torsion
[ 7974 7965 7964 7962 ] final  173.16 input  175.53 | X-H torsion
[ 8008 7997 7996 7995 ] final   68.20 input   59.86 | X-H torsion
[ 10167 10162 10161 10158 ] final   99.25 input  -65.29 | X-H torsion
[ 10718 10713 10712 10709 ] final -162.65 input   66.30 | X-H torsion
[ 10763 10752 10751 10750 ] final   84.92 input  -60.55 | X-H torsion
[ 11005 11000 10999 10996 ] final  -79.46 input  -57.11 | X-H torsion

> <Gold.Protein.ActiveResidues>
 VAL166  LYS551  ARG553  GLY616  TRP617  ASP618  TYR619  PRO620  LYS621  CYS622 
 ASP623  PHE694  ASN695  SER759  ASP760  ASP761  ALA762  ILE779  LEU786  VAL792 
 PHE793  MET794  SER795  GLU796  ALA797  LYS798  CYS799  TRP800  GLU811  SER814 

> <Gold.Protein.RotatedAtoms>
  152.1542  133.4541  159.4828 H   0  0  0  0  0  0  0  0  0  0  0  0  # atno 6907 bound_to 6896
  150.6899  134.2151  159.4384 H   0  0  0  0  0  0  0  0  0  0  0  0  # atno 6908 bound_to 6896
  152.0050  134.9907  160.0617 H   0  0  0  0  0  0  0  0  0  0  0  0  # atno 6909 bound_to 6896
  144.7250  139.9606  143.6434 H   0  0  0  0  0  0  0  0  0  0  0  0  # atno 7974 bound_to 7965
  155.7047  140.3495  155.4948 H   0  0  0  0  0  0  0  0  0  0  0  0  # atno 8008 bound_to 7997
  155.9409  140.1101  157.1078 H   0  0  0  0  0  0  0  0  0  0  0  0  # atno 8009 bound_to 7997
  154.4102  140.1213  156.4912 H   0  0  0  0  0  0  0  0  0  0  0  0  # atno 8010 bound_to 7997
  139.7634  144.6946  151.0259 H   0  0  0  0  0  0  0  0  0  0  0  0  # atno 10167 bound_to 10162
  156.6135  130.8860  151.2942 H   0  0  0  0  0  0  0  0  0  0  0  0  # atno 10718 bound_to 10713
  153.1427  135.4636  154.9519 H   0  0  0  0  0  0  0  0  0  0  0  0  # atno 10763 bound_to 10752
  154.7760  135.3173  154.8093 H   0  0  0  0  0  0  0  0  0  0  0  0  # atno 10764 bound_to 10752
  153.8613  135.6912  153.4837 H   0  0  0  0  0  0  0  0  0  0  0  0  # atno 10765 bound_to 10752
  141.1667  133.7107  156.8126 H   0  0  0  0  0  0  0  0  0  0  0  0  # atno 11005 bound_to 11000
  146.0640  139.3632  143.0563 LP  0  0  0  0  0  0  0  0  0  0  0  0  # atno 17320 bound_to 7965
  145.8055  140.9751  143.0976 LP  0  0  0  0  0  0  0  0  0  0  0  0  # atno 17321 bound_to 7965
  140.7809  143.4670  151.0198 LP  0  0  0  0  0  0  0  0  0  0  0  0  # atno 17342 bound_to 10162
  139.8356  143.7633  152.3180 LP  0  0  0  0  0  0  0  0  0  0  0  0  # atno 17343 bound_to 10162
  157.7248  130.9607  150.1587 LP  0  0  0  0  0  0  0  0  0  0  0  0  # atno 17370 bound_to 10713
  156.2370  130.3687  149.8380 LP  0  0  0  0  0  0  0  0  0  0  0  0  # atno 17371 bound_to 10713
  140.2177  134.8781  157.3343 LP  0  0  0  0  0  0  0  0  0  0  0  0  # atno 17394 bound_to 11000
  140.2021  134.4242  155.7657 LP  0  0  0  0  0  0  0  0  0  0  0  0  # atno 17395 bound_to 11000

$$$$
