AV-unprocessed.smi:2695|AV-procd|sdf|10409|dock2
  -GOLD-   2272014443D 1   1.00000     0.00000
 Structure written by MMmdl.
 42 43  0  0  0  0  0  0  0  0  1 V2000
  148.7375  140.7080  155.5703 C   0  0  0  0  0  0  0  0  0  0  0  0
  149.7486  139.6080  155.2690 C   0  0  0  0  0  0  0  0  0  0  0  0
  149.3488  138.3907  154.8582 C   0  0  0  0  0  0  0  0  0  0  0  0
  150.3267  137.3583  154.6176 C   0  0  0  0  0  0  0  0  0  0  0  0
  149.9344  136.1485  154.1996 O   0  0  0  0  0  0  0  0  0  0  0  0
  151.6311  137.6155  154.8257 C   0  0  0  0  0  0  0  0  0  0  0  0
  152.0983  138.9266  155.2822 C   0  0  0  0  0  0  0  0  0  0  0  0
  153.2937  139.1449  155.4847 O   0  0  0  0  0  0  0  0  0  0  0  0
  151.1338  139.8860  155.4625 N   0  0  0  0  0  0  0  0  0  0  0  0
  151.5621  141.2439  155.8716 C   0  0  0  0  0  0  0  0  0  0  0  0
  151.2410  141.5753  157.3369 C   0  0  0  0  0  0  0  0  0  0  0  0
  150.1071  141.9165  157.6761 O   0  0  0  0  0  0  0  0  0  0  0  0
  152.2714  141.4858  158.1918 N   0  0  0  0  0  0  0  0  0  0  0  0
  152.2245  141.7583  159.6299 C   0  0  2  0  0  0  0  0  0  0  0  0
  152.0723  143.2841  159.8658 C   0  0  0  0  0  0  0  0  0  0  0  0
  150.6847  143.8558  159.5452 C   0  0  0  0  0  0  0  0  0  0  0  0
  150.8900  145.3559  159.2959 C   0  0  0  0  0  0  0  0  0  0  0  0
  152.3946  145.5576  159.0736 C   0  0  0  0  0  0  0  0  0  0  0  0
  152.9993  144.1544  159.0067 C   0  0  0  0  0  0  0  0  0  0  0  0
  153.4798  141.1440  160.2907 C   0  0  0  0  0  0  0  0  0  0  0  0
  153.4512  139.8164  160.1671 F   0  0  0  0  0  0  0  0  0  0  0  0
  154.5891  141.6027  159.7097 F   0  0  0  0  0  0  0  0  0  0  0  0
  153.5239  141.4284  161.5917 F   0  0  0  0  0  0  0  0  0  0  0  0
  147.7299  140.2961  155.6320 H   0  0  0  0  0  0  0  0  0  0  0  0
  148.7386  141.4577  154.7788 H   0  0  0  0  0  0  0  0  0  0  0  0
  148.9355  141.1964  156.5243 H   0  0  0  0  0  0  0  0  0  0  0  0
  148.2983  138.1774  154.7220 H   0  0  0  0  0  0  0  0  0  0  0  0
  149.8513  136.1850  153.2590 H   0  0  0  0  0  0  0  0  0  0  0  0
  152.3613  136.8386  154.6498 H   0  0  0  0  0  0  0  0  0  0  0  0
  152.6365  141.3691  155.7226 H   0  0  0  0  0  0  0  0  0  0  0  0
  151.1324  142.0133  155.2318 H   0  0  0  0  0  0  0  0  0  0  0  0
  153.1650  141.1975  157.8203 H   0  0  0  0  0  0  0  0  0  0  0  0
  151.3561  141.2605  160.0652 H   0  0  0  0  0  0  0  0  0  0  0  0
  152.2916  143.5029  160.9121 H   0  0  0  0  0  0  0  0  0  0  0  0
  150.2922  143.3916  158.6394 H   0  0  0  0  0  0  0  0  0  0  0  0
  149.9664  143.6751  160.3455 H   0  0  0  0  0  0  0  0  0  0  0  0
  150.3111  145.6859  158.4328 H   0  0  0  0  0  0  0  0  0  0  0  0
  150.5560  145.9406  160.1539 H   0  0  0  0  0  0  0  0  0  0  0  0
  152.6072  146.1361  158.1740 H   0  0  0  0  0  0  0  0  0  0  0  0
  152.8184  146.1003  159.9197 H   0  0  0  0  0  0  0  0  0  0  0  0
  154.0342  144.1378  159.3504 H   0  0  0  0  0  0  0  0  0  0  0  0
  152.9883  143.8016  157.9741 H   0  0  0  0  0  0  0  0  0  0  0  0
  1  2  1  0  0  0  0
  1 24  1  0  0  0  0
  1 25  1  0  0  0  0
  1 26  1  0  0  0  0
  2  9  1  0  0  0  0
  2  3  2  0  0  0  0
  3  4  1  0  0  0  0
  3 27  1  0  0  0  0
  4  5  1  0  0  0  0
  4  6  2  0  0  0  0
  5 28  1  0  0  0  0
  6  7  1  0  0  0  0
  6 29  1  0  0  0  0
  7  8  2  0  0  0  0
  7  9  1  0  0  0  0
  9 10  1  0  0  0  0
 10 11  1  0  0  0  0
 10 30  1  0  0  0  0
 10 31  1  0  0  0  0
 11 12  2  0  0  0  0
 11 13  1  0  0  0  0
 13 14  1  0  0  0  0
 13 32  1  0  0  0  0
 14 15  1  0  0  0  0
 14 20  1  0  0  0  0
 14 33  1  0  0  0  0
 15 19  1  0  0  0  0
 15 16  1  0  0  0  0
 15 34  1  0  0  0  0
 16 17  1  0  0  0  0
 16 35  1  0  0  0  0
 16 36  1  0  0  0  0
 17 18  1  0  0  0  0
 17 37  1  0  0  0  0
 17 38  1  0  0  0  0
 18 19  1  0  0  0  0
 18 39  1  0  0  0  0
 18 40  1  0  0  0  0
 19 41  1  0  0  0  0
 19 42  1  0  0  0  0
 20 21  1  0  0  0  0
 20 22  1  0  0  0  0
 20 23  1  0  0  0  0
M  END
> <s_m_source_file>
AV-unprocessed.smi

> <i_m_source_file_index>
2695

> <i_lp_mmshare_version>
43012

> <i_f3d_flags>
0

> <s_epik_input>
W0NIM11jMVtjSF1jKFtPSF0pW2NIXWMoPU8pbjFbQ0gyXUMoPU8pW05IXVtDQEBIXShDKEYpKEYpRilbQ0hdMltDSDJdW0NIMl1bQ0gyXVtDSDJdMg==

> <s_epik_cmdline>
J2VwaWtfcHl0aG9uJywgJy1waCcsICc3LjAnLCAnLXRuJywgJzgnLCAnLW1hJywgJzIwMCcsICctbWV0YWxfYmluZGluZycsICctaW1hZScsICc8aW5maWxlLm1hZT4nLCAnLW9tYWUnLCAnPG91dGZpbGUubWFlPic=

> <r_lp_tautomer_probability>
0.999984

> <r_epik_Ionization_Penalty>
0.843628

> <r_epik_Ionization_Penalty_Charging>
1.18449e-07

> <r_epik_Ionization_Penalty_Neutral>
0.843628

> <r_epik_State_Penalty>
0.886913

> <r_epik_Charging_Adjusted_Penalty>
0.886913

> <i_epik_Tot_Q>
0

> <i_epik_Tot_abs_Q>
0

> <r_epik_Metal_State_Penalty>
0.886913

> <b_epik_Metal_Only>
0

> <s_lp_Force_Field>
OPLS_2005

> <r_lp_Energy>
35.2102

> <b_lp_Chiralities_Consistent>
1

> <s_lp_Variant>
AV-unprocessed.smi:2695-3

> <Gold.Version>
5.8.1

> <Gold.Id.Protein>
6NUR|6NUR_protein|mol2

> <Gold.PLP.Fitness>
50.5274

> <Gold.PLP.PLP>
-45.7826

> <Gold.PLP.part.hbond>
-2.5811

> <Gold.PLP.part.metal>
0.0000

> <Gold.PLP.part.buried>
-4.7911

> <Gold.PLP.part.nonpolar>
-37.3150

> <Gold.PLP.part.repulsive>
0.1671

> <Gold.PLP.ligand.clash>
0.0000

> <Gold.PLP.ligand.torsion>
0.8486

> <Gold.PLP.Chemscore.Hbond>
2.0000

> <Gold.PLP.Chemscore.CHOScore>
0.0000

> <Gold.PLP.Chemscore.Metal>
0.0000

> <Gold.Chemscore.Hbonds>
donor molecule, donor type, donor heavy atom, donor atom, acceptor molecule, acceptor atom, score
      L1  H     5    28       P1  7948  0.65
      P1  H  7997  8009       L1     8  1.00

> <Gold.PLP.Chemscore.Internal.Correction>
0.4421

> <Gold.Rescore>
     Score         DG    S(hbond)    S(metal)    S(lipo)     H(rot)  DE(clash)    DE(int)     intcor
     16.77     -18.68       1.92        0.00     109.62       2.36       0.08       1.84       ----

> <Gold.Chemscore.Fitness>
16.7729

> <Gold.Chemscore.DG>
-18.6842

> <Gold.Chemscore.ZeroCoef>
-5.4800

> <Gold.Chemscore.Hbond>
1.9220

> <Gold.Chemscore.Metal>
0.0000

> <Gold.Chemscore.Lipo>
109.6239

> <Gold.Chemscore.Internal_Hbond>
0.0000

> <Gold.Chemscore.DEClash>
0.0756

> <Gold.Chemscore.DEInternal>
1.8357

> <Gold.Chemscore.Rot>
2.3599

> <Gold.Chemscore.Internal.Correction>
   9.000000E+99

> <Gold.Chemscore.Hbonds>
donor molecule, donor type, donor heavy atom, donor atom, acceptor molecule, acceptor atom, score
      L1  H     5    28       P1  7948  0.05
      P1  H  7997  8009       L1     8  0.98

> <Gold.Chemscore.Hbond.Weighted>
-6.4195

> <Gold.Chemscore.Metal.Weighted>
-0.0000

> <Gold.Chemscore.Lipo.Weighted>
-12.8260

> <Gold.Chemscore.Internal_Hbond.Weighted>
0.0000

> <Gold.Chemscore.DEClash.Weighted>
0.0756

> <Gold.Chemscore.DEInternal.Weighted>
1.8357

> <Gold.Chemscore.Rot.Weighted>
6.0413

> <Gold.Chemscore.Internal.Correction.Weighted>
   9.000000E+99

> <Gold.Protein.RotatedTorsions>
[ 6907 6896 6895 6894 ] final   62.00 input  -60.11 | X-H torsion
[ 7974 7965 7964 7962 ] final -135.46 input  175.53 | X-H torsion
[ 8008 7997 7996 7995 ] final -148.85 input   59.86 | X-H torsion
[ 10167 10162 10161 10158 ] final -120.80 input  -65.29 | X-H torsion
[ 10718 10713 10712 10709 ] final   98.29 input   66.30 | X-H torsion
[ 10763 10752 10751 10750 ] final -162.16 input  -60.55 | X-H torsion
[ 11005 11000 10999 10996 ] final  -22.33 input  -57.11 | X-H torsion

> <Gold.Protein.ActiveResidues>
 VAL166  LYS551  ARG553  GLY616  TRP617  ASP618  TYR619  PRO620  LYS621  CYS622 
 ASP623  PHE694  ASN695  SER759  ASP760  ASP761  ALA762  ILE779  LEU786  VAL792 
 PHE793  MET794  SER795  GLU796  ALA797  LYS798  CYS799  TRP800  GLU811  SER814 

> <Gold.Protein.RotatedAtoms>
  152.4136  134.6081  160.0018 H   0  0  0  0  0  0  0  0  0  0  0  0  # atno 6907 bound_to 6896
  151.6251  133.3330  159.3104 H   0  0  0  0  0  0  0  0  0  0  0  0  # atno 6908 bound_to 6896
  150.8025  134.7169  159.6680 H   0  0  0  0  0  0  0  0  0  0  0  0  # atno 6909 bound_to 6896
  144.9012  140.6773  143.5084 H   0  0  0  0  0  0  0  0  0  0  0  0  # atno 7974 bound_to 7965
  155.5981  140.0659  157.2740 H   0  0  0  0  0  0  0  0  0  0  0  0  # atno 8008 bound_to 7997
  154.4286  140.1823  156.1192 H   0  0  0  0  0  0  0  0  0  0  0  0  # atno 8009 bound_to 7997
  156.0180  140.3320  155.7013 H   0  0  0  0  0  0  0  0  0  0  0  0  # atno 8010 bound_to 7997
  140.0319  143.5240  152.2172 H   0  0  0  0  0  0  0  0  0  0  0  0  # atno 10167 bound_to 10162
  157.6898  131.0635  150.4773 H   0  0  0  0  0  0  0  0  0  0  0  0  # atno 10718 bound_to 10713
  154.7239  135.3031  154.9003 H   0  0  0  0  0  0  0  0  0  0  0  0  # atno 10763 bound_to 10752
  153.9866  135.6724  153.4756 H   0  0  0  0  0  0  0  0  0  0  0  0  # atno 10764 bound_to 10752
  153.0858  135.4985  154.8511 H   0  0  0  0  0  0  0  0  0  0  0  0  # atno 10765 bound_to 10752
  140.8647  133.7763  156.0116 H   0  0  0  0  0  0  0  0  0  0  0  0  # atno 11005 bound_to 11000
  145.3614  139.1681  143.4381 LP  0  0  0  0  0  0  0  0  0  0  0  0  # atno 17320 bound_to 7965
  146.3109  140.3676  142.8671 LP  0  0  0  0  0  0  0  0  0  0  0  0  # atno 17321 bound_to 7965
  139.6071  144.7599  151.3038 LP  0  0  0  0  0  0  0  0  0  0  0  0  # atno 17342 bound_to 10162
  140.7298  143.6897  150.7932 LP  0  0  0  0  0  0  0  0  0  0  0  0  # atno 17343 bound_to 10162
  156.5107  130.4138  149.6303 LP  0  0  0  0  0  0  0  0  0  0  0  0  # atno 17370 bound_to 10713
  156.3243  130.7297  151.2215 LP  0  0  0  0  0  0  0  0  0  0  0  0  # atno 17371 bound_to 10713
  140.8642  134.2804  157.5220 LP  0  0  0  0  0  0  0  0  0  0  0  0  # atno 17394 bound_to 11000
  139.8708  134.9534  156.4144 LP  0  0  0  0  0  0  0  0  0  0  0  0  # atno 17395 bound_to 11000

$$$$
