AV-unprocessed.smi:229|AV-procd|sdf|1759|dock1
  -GOLD-   2262020283D 1   1.00000     0.00000
 Structure written by MMmdl.
 58 62  0  0  0  0  0  0  0  0  1 V2000
  145.9040  134.3993  162.4902 C   0  0  0  0  0  0  0  0  0  0  0  0
  146.7707  135.6093  162.1162 C   0  0  0  0  0  0  0  0  0  0  0  0
  147.5623  135.4222  160.8114 C   0  0  2  0  0  0  0  0  0  0  0  0
  148.4845  136.6129  160.4925 C   0  0  0  0  0  0  0  0  0  0  0  0
  149.1175  136.4179  159.1944 N   0  0  0  0  0  0  0  0  0  0  0  0
  150.1874  137.2161  158.9498 C   0  0  0  0  0  0  0  0  0  0  0  0
  151.4427  136.7785  159.2391 N   0  0  0  0  0  0  0  0  0  0  0  0
  152.5028  137.5542  158.9927 C   0  0  0  0  0  0  0  0  0  0  0  0
  152.5354  138.7822  158.4719 N   0  0  0  0  0  0  0  0  0  0  0  0
  151.2793  139.2303  158.1878 C   0  0  0  0  0  0  0  0  0  0  0  0
  150.0623  138.5210  158.3940 C   0  0  0  0  0  0  0  0  0  0  0  0
  148.9855  139.3069  157.9983 N   0  0  0  0  0  0  0  0  0  0  0  0
  149.5350  140.4115  157.5728 C   0  0  0  0  0  0  0  0  0  0  0  0
  150.9085  140.4493  157.6506 N   0  0  0  0  0  0  0  0  0  0  0  0
  151.7743  141.5457  157.2545 C   0  0  0  0  0  0  0  0  0  0  0  0
  151.1790  142.9230  157.6065 C   0  0  2  0  0  0  0  0  0  0  0  0
  150.9499  143.6510  156.4145 O   0  0  0  0  0  0  0  0  0  0  0  0
  152.0949  143.7211  158.5570 C   0  0  1  0  0  0  0  0  0  0  0  0
  151.6257  145.1181  158.9765 C   0  0  0  0  0  0  0  0  0  0  0  0
  152.4030  145.3118  160.2590 C   0  0  0  0  0  0  0  0  0  0  0  0
  152.3592  143.9107  160.8658 C   0  0  0  0  0  0  0  0  0  0  0  0
  152.3314  143.0046  159.7653 O   0  0  0  0  0  0  0  0  0  0  0  0
  148.1561  136.2036  158.1169 C   0  0  0  0  0  0  0  0  0  0  0  0
  147.1903  135.0470  158.4596 C   0  0  2  0  0  0  0  0  0  0  0  0
  147.8369  133.6599  158.3697 C   0  0  0  0  0  0  0  0  0  0  0  0
  147.3245  133.1048  157.0483 C   0  0  0  0  0  0  0  0  0  0  0  0
  145.9993  133.5993  157.0111 O   0  0  0  0  0  0  0  0  0  0  0  0
  146.0486  134.9563  157.4283 C   0  0  0  0  0  0  0  0  0  0  0  0
  146.6163  135.2732  159.7513 O   0  0  0  0  0  0  0  0  0  0  0  0
  145.3170  134.6070  163.3848 H   0  0  0  0  0  0  0  0  0  0  0  0
  146.5110  133.5175  162.6949 H   0  0  0  0  0  0  0  0  0  0  0  0
  145.2087  134.1505  161.6880 H   0  0  0  0  0  0  0  0  0  0  0  0
  146.1196  136.4777  162.0103 H   0  0  0  0  0  0  0  0  0  0  0  0
  147.4532  135.8408  162.9348 H   0  0  0  0  0  0  0  0  0  0  0  0
  148.1583  134.5126  160.8970 H   0  0  0  0  0  0  0  0  0  0  0  0
  147.9085  137.5391  160.4688 H   0  0  0  0  0  0  0  0  0  0  0  0
  149.2279  136.7250  161.2797 H   0  0  0  0  0  0  0  0  0  0  0  0
  153.4618  137.1295  159.2500 H   0  0  0  0  0  0  0  0  0  0  0  0
  148.9504  141.2371  157.1935 H   0  0  0  0  0  0  0  0  0  0  0  0
  152.7375  141.4126  157.7488 H   0  0  0  0  0  0  0  0  0  0  0  0
  151.9617  141.4709  156.1824 H   0  0  0  0  0  0  0  0  0  0  0  0
  150.2170  142.7697  158.0973 H   0  0  0  0  0  0  0  0  0  0  0  0
  150.2030  144.2140  156.5499 H   0  0  0  0  0  0  0  0  0  0  0  0
  153.0752  143.8221  158.0882 H   0  0  0  0  0  0  0  0  0  0  0  0
  151.8384  145.8815  158.2277 H   0  0  0  0  0  0  0  0  0  0  0  0
  150.5571  145.1400  159.1921 H   0  0  0  0  0  0  0  0  0  0  0  0
  153.4329  145.5931  160.0342 H   0  0  0  0  0  0  0  0  0  0  0  0
  151.9751  146.0737  160.9112 H   0  0  0  0  0  0  0  0  0  0  0  0
  153.2066  143.7144  161.5230 H   0  0  0  0  0  0  0  0  0  0  0  0
  151.4442  143.7771  161.4445 H   0  0  0  0  0  0  0  0  0  0  0  0
  147.5898  137.1239  157.9654 H   0  0  0  0  0  0  0  0  0  0  0  0
  148.6771  135.9877  157.1826 H   0  0  0  0  0  0  0  0  0  0  0  0
  148.9258  133.6786  158.4255 H   0  0  0  0  0  0  0  0  0  0  0  0
  147.4746  133.0218  159.1769 H   0  0  0  0  0  0  0  0  0  0  0  0
  147.8940  133.5010  156.2059 H   0  0  0  0  0  0  0  0  0  0  0  0
  147.3521  132.0159  157.0072 H   0  0  0  0  0  0  0  0  0  0  0  0
  145.0861  135.2721  157.8319 H   0  0  0  0  0  0  0  0  0  0  0  0
  146.2560  135.5749  156.5536 H   0  0  0  0  0  0  0  0  0  0  0  0
  1  2  1  0  0  0  0
  1 30  1  0  0  0  0
  1 31  1  0  0  0  0
  1 32  1  0  0  0  0
  2  3  1  0  0  0  0
  2 33  1  0  0  0  0
  2 34  1  0  0  0  0
  3 29  1  0  0  0  0
  3  4  1  0  0  0  0
  3 35  1  0  0  0  0
  4  5  1  0  0  0  0
  4 36  1  0  0  0  0
  4 37  1  0  0  0  0
  5  6  1  0  0  0  0
  5 23  1  0  0  0  0
  6 11  1  0  0  0  0
  6  7  2  0  0  0  0
  7  8  1  0  0  0  0
  8  9  2  0  0  0  0
  8 38  1  0  0  0  0
  9 10  1  0  0  0  0
 10 14  1  0  0  0  0
 10 11  2  0  0  0  0
 11 12  1  0  0  0  0
 12 13  2  0  0  0  0
 13 14  1  0  0  0  0
 13 39  1  0  0  0  0
 14 15  1  0  0  0  0
 15 16  1  0  0  0  0
 15 40  1  0  0  0  0
 15 41  1  0  0  0  0
 16 17  1  0  0  0  0
 16 18  1  0  0  0  0
 16 42  1  0  0  0  0
 17 43  1  0  0  0  0
 18 22  1  0  0  0  0
 18 19  1  0  0  0  0
 18 44  1  0  0  0  0
 19 20  1  0  0  0  0
 19 45  1  0  0  0  0
 19 46  1  0  0  0  0
 20 21  1  0  0  0  0
 20 47  1  0  0  0  0
 20 48  1  0  0  0  0
 21 22  1  0  0  0  0
 21 49  1  0  0  0  0
 21 50  1  0  0  0  0
 23 24  1  0  0  0  0
 23 51  1  0  0  0  0
 23 52  1  0  0  0  0
 24 28  1  0  0  0  0
 24 25  1  0  0  0  0
 24 29  1  0  0  0  0
 25 26  1  0  0  0  0
 25 53  1  0  0  0  0
 25 54  1  0  0  0  0
 26 27  1  0  0  0  0
 26 55  1  0  0  0  0
 26 56  1  0  0  0  0
 27 28  1  0  0  0  0
 28 57  1  0  0  0  0
 28 58  1  0  0  0  0
M  END
> <s_m_source_file>
AV-unprocessed.smi

> <i_m_source_file_index>
229

> <i_lp_mmshare_version>
43012

> <i_f3d_flags>
0

> <s_epik_input>
W0NIMl0xT1tDSDJdW0NIMl1bQ0BdMTJbQ0gyXU4oW0NIMl1bQ0BIXShPMilbQ0gyXVtDSDNdKWMobltjSF1uMyljKGMzNCluW2NIXW40W0NIMl1bQ0BIXShbT0hdKVtDQEBIXTVbQ0gyXVtDSDJdW0NIMl1PNQ==

> <s_epik_cmdline>
J2VwaWtfcHl0aG9uJywgJy1waCcsICc3LjAnLCAnLXRuJywgJzgnLCAnLW1hJywgJzIwMCcsICctbWV0YWxfYmluZGluZycsICctaW1hZScsICc8aW5maWxlLm1hZT4nLCAnLW9tYWUnLCAnPG91dGZpbGUubWFlPic=

> <r_lp_tautomer_probability>
1

> <r_epik_Ionization_Penalty>
0.00318402

> <r_epik_Ionization_Penalty_Charging>
0

> <r_epik_Ionization_Penalty_Neutral>
0.00318402

> <r_epik_State_Penalty>
0.00215642

> <r_epik_Charging_Adjusted_Penalty>
0.00215642

> <i_epik_Tot_Q>
0

> <i_epik_Tot_abs_Q>
0

> <r_epik_Metal_State_Penalty>
-0

> <b_epik_Metal_Only>
0

> <s_lp_Force_Field>
OPLS_2005

> <r_lp_Energy>
55.431

> <b_lp_Chiralities_Consistent>
1

> <s_lp_Variant>
AV-unprocessed.smi:229-13

> <Gold.Version>
5.8.1

> <Gold.Id.Protein>
6NUR|6NUR_protein|mol2

> <Gold.PLP.Fitness>
48.0132

> <Gold.PLP.PLP>
-44.6094

> <Gold.PLP.part.hbond>
-2.4872

> <Gold.PLP.part.metal>
0.0000

> <Gold.PLP.part.buried>
-7.5705

> <Gold.PLP.part.nonpolar>
-35.1379

> <Gold.PLP.part.repulsive>
0.0059

> <Gold.PLP.ligand.clash>
0.0000

> <Gold.PLP.ligand.torsion>
1.4994

> <Gold.PLP.Chemscore.Hbond>
2.0000

> <Gold.PLP.Chemscore.CHOScore>
0.0000

> <Gold.PLP.Chemscore.Metal>
0.0000

> <Gold.Chemscore.Hbonds>
donor molecule, donor type, donor heavy atom, donor atom, acceptor molecule, acceptor atom, score
      L1  H    17    43       P1  8028  0.75
      P1  H  6896  6907       L1     7  1.00

> <Gold.PLP.Chemscore.Internal.Correction>
0.4025

> <Gold.Rescore>
     Score         DG    S(hbond)    S(metal)    S(lipo)     H(rot)  DE(clash)    DE(int)     intcor
     15.94     -17.70       1.88        0.00     104.51       2.46       0.07       1.69       ----

> <Gold.Chemscore.Fitness>
15.9444

> <Gold.Chemscore.DG>
-17.6979

> <Gold.Chemscore.ZeroCoef>
-5.4800

> <Gold.Chemscore.Hbond>
1.8818

> <Gold.Chemscore.Metal>
0.0000

> <Gold.Chemscore.Lipo>
104.5137

> <Gold.Chemscore.Internal_Hbond>
0.0000

> <Gold.Chemscore.DEClash>
0.0678

> <Gold.Chemscore.DEInternal>
1.6856

> <Gold.Chemscore.Rot>
2.4591

> <Gold.Chemscore.Internal.Correction>
   9.000000E+99

> <Gold.Chemscore.Hbonds>
donor molecule, donor type, donor heavy atom, donor atom, acceptor molecule, acceptor atom, score
      L1  H    17    43       P1  8028  0.75
      P1  H  6896  6907       L1     7  0.81

> <Gold.Chemscore.Hbond.Weighted>
-6.2851

> <Gold.Chemscore.Metal.Weighted>
-0.0000

> <Gold.Chemscore.Lipo.Weighted>
-12.2281

> <Gold.Chemscore.Internal_Hbond.Weighted>
0.0000

> <Gold.Chemscore.DEClash.Weighted>
0.0678

> <Gold.Chemscore.DEInternal.Weighted>
1.6856

> <Gold.Chemscore.Rot.Weighted>
6.2953

> <Gold.Chemscore.Internal.Correction.Weighted>
   9.000000E+99

> <Gold.Protein.RotatedTorsions>
[ 6907 6896 6895 6894 ] final   -8.20 input  -60.11 | X-H torsion
[ 7974 7965 7964 7962 ] final -111.45 input  175.53 | X-H torsion
[ 8008 7997 7996 7995 ] final -170.90 input   59.86 | X-H torsion
[ 10167 10162 10161 10158 ] final   64.90 input  -65.29 | X-H torsion
[ 10718 10713 10712 10709 ] final  -34.55 input   66.30 | X-H torsion
[ 10763 10752 10751 10750 ] final  -21.91 input  -60.55 | X-H torsion
[ 11005 11000 10999 10996 ] final   88.27 input  -57.11 | X-H torsion

> <Gold.Protein.ActiveResidues>
 VAL166  LYS551  ARG553  GLY616  TRP617  ASP618  TYR619  PRO620  LYS621  CYS622 
 ASP623  PHE694  ASN695  SER759  ASP760  ASP761  ALA762  ILE779  LEU786  VAL792 
 PHE793  MET794  SER795  GLU796  ALA797  LYS798  CYS799  TRP800  GLU811  SER814 

> <Gold.Protein.RotatedAtoms>
  151.4374  135.1016  159.9659 H   0  0  0  0  0  0  0  0  0  0  0  0  # atno 6907 bound_to 6896
  152.4935  133.8560  159.7236 H   0  0  0  0  0  0  0  0  0  0  0  0  # atno 6908 bound_to 6896
  150.9112  133.6936  159.2882 H   0  0  0  0  0  0  0  0  0  0  0  0  # atno 6909 bound_to 6896
  145.1559  140.8853  143.3619 H   0  0  0  0  0  0  0  0  0  0  0  0  # atno 7974 bound_to 7965
  155.9244  140.1080  157.1181 H   0  0  0  0  0  0  0  0  0  0  0  0  # atno 8008 bound_to 7997
  154.4060  140.1249  156.4787 H   0  0  0  0  0  0  0  0  0  0  0  0  # atno 8009 bound_to 7997
  155.7156  140.3470  155.4995 H   0  0  0  0  0  0  0  0  0  0  0  0  # atno 8010 bound_to 7997
  140.1172  144.4764  150.6942 H   0  0  0  0  0  0  0  0  0  0  0  0  # atno 10167 bound_to 10162
  156.3492  130.4305  149.7719 H   0  0  0  0  0  0  0  0  0  0  0  0  # atno 10718 bound_to 10713
  153.6436  135.6984  153.5233 H   0  0  0  0  0  0  0  0  0  0  0  0  # atno 10763 bound_to 10752
  153.2762  135.4199  155.1035 H   0  0  0  0  0  0  0  0  0  0  0  0  # atno 10764 bound_to 10752
  154.8493  135.3590  154.5981 H   0  0  0  0  0  0  0  0  0  0  0  0  # atno 10765 bound_to 10752
  139.8900  134.8476  156.2976 H   0  0  0  0  0  0  0  0  0  0  0  0  # atno 11005 bound_to 11000
  145.0381  139.3283  143.5990 LP  0  0  0  0  0  0  0  0  0  0  0  0  # atno 17320 bound_to 7965
  146.3489  139.9745  142.8702 LP  0  0  0  0  0  0  0  0  0  0  0  0  # atno 17321 bound_to 7965
  140.6892  143.2367  151.5176 LP  0  0  0  0  0  0  0  0  0  0  0  0  # atno 17342 bound_to 10162
  139.5588  144.2209  152.1657 LP  0  0  0  0  0  0  0  0  0  0  0  0  # atno 17343 bound_to 10162
  156.4926  130.8092  151.3101 LP  0  0  0  0  0  0  0  0  0  0  0  0  # atno 17370 bound_to 10713
  157.7458  130.9970  150.2802 LP  0  0  0  0  0  0  0  0  0  0  0  0  # atno 17371 bound_to 10713
  140.9935  133.7194  156.0849 LP  0  0  0  0  0  0  0  0  0  0  0  0  # atno 17394 bound_to 11000
  140.7594  134.3956  157.5528 LP  0  0  0  0  0  0  0  0  0  0  0  0  # atno 17395 bound_to 11000

$$$$
