AV-unprocessed.smi:1829|AV-procd|sdf|7429|dock4
  -GOLD-   22720 9113D 1   1.00000     0.00000
 Structure written by MMmdl.
 45 47  0  0  0  0  0  0  0  0  1 V2000
  151.2422  143.9544  157.9888 C   0  0  0  0  0  0  0  0  0  0  0  0
  151.5828  144.4694  159.3962 C   0  0  0  0  0  0  0  0  0  0  0  0
  151.9755  145.9551  159.3761 C   0  0  0  0  0  0  0  0  0  0  0  0
  152.6531  143.6163  160.0657 C   0  0  0  0  0  0  0  0  0  0  0  0
  153.0332  142.3827  159.4952 C   0  0  0  0  0  0  0  0  0  0  0  0
  154.0180  141.5862  160.1113 C   0  0  0  0  0  0  0  0  0  0  0  0
  154.6369  142.0149  161.3041 C   0  0  0  0  0  0  0  0  0  0  0  0
  155.6915  141.1449  161.9697 C   0  0  1  0  0  0  0  0  0  0  0  0
  155.7888  139.8689  161.3669 O   0  0  0  0  0  0  0  0  0  0  0  0
  157.0693  141.8366  161.9676 C   0  0  0  0  0  0  0  0  0  0  0  0
  157.5098  142.2137  163.3044 N   0  0  0  0  0  0  0  0  0  0  0  0
  157.8451  141.4066  164.3431 C   0  0  0  0  0  0  0  0  0  0  0  0
  157.7964  139.9097  164.2198 C   0  0  0  0  0  0  0  0  0  0  0  0
  156.9640  139.2799  165.1734 O   0  0  0  0  0  0  0  0  0  0  0  0
  158.2201  142.0337  165.4611 N   0  0  0  0  0  0  0  0  0  0  0  0
  158.1169  143.3665  165.1154 C   0  0  0  0  0  0  0  0  0  0  0  0
  158.3743  144.5345  165.8686 C   0  0  0  0  0  0  0  0  0  0  0  0
  158.1965  145.8093  165.2918 C   0  0  0  0  0  0  0  0  0  0  0  0
  157.7600  145.9344  163.9569 C   0  0  0  0  0  0  0  0  0  0  0  0
  157.4979  144.7834  163.1892 C   0  0  0  0  0  0  0  0  0  0  0  0
  157.6765  143.5136  163.7702 C   0  0  0  0  0  0  0  0  0  0  0  0
  154.2558  143.2474  161.8775 C   0  0  0  0  0  0  0  0  0  0  0  0
  153.2709  144.0431  161.2616 C   0  0  0  0  0  0  0  0  0  0  0  0
  150.9192  142.9133  158.0198 H   0  0  0  0  0  0  0  0  0  0  0  0
  152.0991  144.0182  157.3175 H   0  0  0  0  0  0  0  0  0  0  0  0
  150.4335  144.5362  157.5454 H   0  0  0  0  0  0  0  0  0  0  0  0
  150.6740  144.3878  159.9940 H   0  0  0  0  0  0  0  0  0  0  0  0
  152.1604  146.3247  160.3852 H   0  0  0  0  0  0  0  0  0  0  0  0
  151.1809  146.5637  158.9435 H   0  0  0  0  0  0  0  0  0  0  0  0
  152.8779  146.1257  158.7883 H   0  0  0  0  0  0  0  0  0  0  0  0
  152.5695  142.0387  158.5822 H   0  0  0  0  0  0  0  0  0  0  0  0
  154.2939  140.6424  159.6640 H   0  0  0  0  0  0  0  0  0  0  0  0
  155.3867  140.9741  163.0031 H   0  0  0  0  0  0  0  0  0  0  0  0
  156.4608  139.3776  161.8140 H   0  0  0  0  0  0  0  0  0  0  0  0
  157.8191  141.2002  161.4979 H   0  0  0  0  0  0  0  0  0  0  0  0
  157.0249  142.7438  161.3637 H   0  0  0  0  0  0  0  0  0  0  0  0
  157.4401  139.6405  163.2255 H   0  0  0  0  0  0  0  0  0  0  0  0
  158.8061  139.5124  164.3253 H   0  0  0  0  0  0  0  0  0  0  0  0
  156.0739  139.3044  164.8576 H   0  0  0  0  0  0  0  0  0  0  0  0
  158.7092  144.4488  166.8917 H   0  0  0  0  0  0  0  0  0  0  0  0
  158.3962  146.6952  165.8766 H   0  0  0  0  0  0  0  0  0  0  0  0
  157.6262  146.9145  163.5228 H   0  0  0  0  0  0  0  0  0  0  0  0
  157.1633  144.8748  162.1665 H   0  0  0  0  0  0  0  0  0  0  0  0
  154.7153  143.5850  162.7949 H   0  0  0  0  0  0  0  0  0  0  0  0
  152.9906  144.9831  161.7140 H   0  0  0  0  0  0  0  0  0  0  0  0
  1  2  1  0  0  0  0
  1 24  1  0  0  0  0
  1 25  1  0  0  0  0
  1 26  1  0  0  0  0
  2  3  1  0  0  0  0
  2  4  1  0  0  0  0
  2 27  1  0  0  0  0
  3 28  1  0  0  0  0
  3 29  1  0  0  0  0
  3 30  1  0  0  0  0
  4 23  1  0  0  0  0
  4  5  2  0  0  0  0
  5  6  1  0  0  0  0
  5 31  1  0  0  0  0
  6  7  2  0  0  0  0
  6 32  1  0  0  0  0
  7  8  1  0  0  0  0
  7 22  1  0  0  0  0
  8  9  1  0  0  0  0
  8 10  1  0  0  0  0
  8 33  1  0  0  0  0
  9 34  1  0  0  0  0
 10 11  1  0  0  0  0
 10 35  1  0  0  0  0
 10 36  1  0  0  0  0
 11 21  1  0  0  0  0
 11 12  1  0  0  0  0
 12 13  1  0  0  0  0
 12 15  2  0  0  0  0
 13 14  1  0  0  0  0
 13 37  1  0  0  0  0
 13 38  1  0  0  0  0
 14 39  1  0  0  0  0
 15 16  1  0  0  0  0
 16 21  2  0  0  0  0
 16 17  1  0  0  0  0
 17 18  2  0  0  0  0
 17 40  1  0  0  0  0
 18 19  1  0  0  0  0
 18 41  1  0  0  0  0
 19 20  2  0  0  0  0
 19 42  1  0  0  0  0
 20 21  1  0  0  0  0
 20 43  1  0  0  0  0
 22 23  2  0  0  0  0
 22 44  1  0  0  0  0
 23 45  1  0  0  0  0
M  END
> <s_m_source_file>
AV-unprocessed.smi

> <i_m_source_file_index>
1829

> <i_lp_mmshare_version>
43012

> <i_f3d_flags>
0

> <s_epik_input>
W0NIM11bQ0hdKFtDSDNdKWMxW2NIXVtjSF1jKFtjSF1bY0hdMSlbQ0BIXShbT0hdKVtDSDJdbihjKG4yKVtDSDJdW09IXSljKGMyMylbY0hdW2NIXVtjSF1bY0hdMw==

> <s_epik_cmdline>
J2VwaWtfcHl0aG9uJywgJy1waCcsICc3LjAnLCAnLXRuJywgJzgnLCAnLW1hJywgJzIwMCcsICctbWV0YWxfYmluZGluZycsICctaW1hZScsICc8aW5maWxlLm1hZT4nLCAnLW9tYWUnLCAnPG91dGZpbGUubWFlPic=

> <r_epik_Ionization_Penalty>
0.0634718

> <r_epik_Ionization_Penalty_Charging>
0

> <r_epik_Ionization_Penalty_Neutral>
0.0634718

> <r_epik_State_Penalty>
0.0551572

> <r_epik_Charging_Adjusted_Penalty>
0.0551572

> <i_epik_Tot_Q>
0

> <i_epik_Tot_abs_Q>
0

> <r_epik_Metal_State_Penalty>
5.78034e-05

> <b_epik_Metal_Only>
0

> <s_lp_Force_Field>
OPLS_2005

> <r_lp_Energy>
13.3672

> <b_lp_Chiralities_Consistent>
1

> <s_lp_Variant>
AV-unprocessed.smi:1829-2

> <Gold.Version>
5.8.1

> <Gold.Id.Protein>
6NUR|6NUR_protein|mol2

> <Gold.PLP.Fitness>
59.3035

> <Gold.PLP.PLP>
-61.5759

> <Gold.PLP.part.hbond>
-0.7545

> <Gold.PLP.part.metal>
0.0000

> <Gold.PLP.part.buried>
-2.4484

> <Gold.PLP.part.nonpolar>
-57.3141

> <Gold.PLP.part.repulsive>
0.0869

> <Gold.PLP.ligand.clash>
0.0000

> <Gold.PLP.ligand.torsion>
1.2051

> <Gold.PLP.Chemscore.Hbond>
0.0000

> <Gold.PLP.Chemscore.CHOScore>
0.0000

> <Gold.PLP.Chemscore.Metal>
0.0000

> <Gold.PLP.Chemscore.Internal.Correction>
0.1378

> <Gold.Rescore>
     Score         DG    S(hbond)    S(metal)    S(lipo)     H(rot)  DE(clash)    DE(int)     intcor
     15.22     -17.91       0.00        0.00     164.78       2.68       1.73       0.95       ----

> <Gold.Chemscore.Fitness>
15.2231

> <Gold.Chemscore.DG>
-17.9083

> <Gold.Chemscore.ZeroCoef>
-5.4800

> <Gold.Chemscore.Hbond>
0.0000

> <Gold.Chemscore.Metal>
0.0000

> <Gold.Chemscore.Lipo>
164.7780

> <Gold.Chemscore.Internal_Hbond>
0.0000

> <Gold.Chemscore.DEClash>
1.7346

> <Gold.Chemscore.DEInternal>
0.9506

> <Gold.Chemscore.Rot>
2.6761

> <Gold.Chemscore.Internal.Correction>
   9.000000E+99

> <Gold.Chemscore.Hbond.Weighted>
-0.0000

> <Gold.Chemscore.Metal.Weighted>
-0.0000

> <Gold.Chemscore.Lipo.Weighted>
-19.2790

> <Gold.Chemscore.Internal_Hbond.Weighted>
0.0000

> <Gold.Chemscore.DEClash.Weighted>
1.7346

> <Gold.Chemscore.DEInternal.Weighted>
0.9506

> <Gold.Chemscore.Rot.Weighted>
6.8507

> <Gold.Chemscore.Internal.Correction.Weighted>
   9.000000E+99

> <Gold.Protein.RotatedTorsions>
[ 6907 6896 6895 6894 ] final  -54.13 input  -60.11 | X-H torsion
[ 7974 7965 7964 7962 ] final  -64.70 input  175.53 | X-H torsion
[ 8008 7997 7996 7995 ] final -144.66 input   59.86 | X-H torsion
[ 10167 10162 10161 10158 ] final  -30.40 input  -65.29 | X-H torsion
[ 10718 10713 10712 10709 ] final -176.81 input   66.30 | X-H torsion
[ 10763 10752 10751 10750 ] final   -6.09 input  -60.55 | X-H torsion
[ 11005 11000 10999 10996 ] final  173.80 input  -57.11 | X-H torsion

> <Gold.Protein.ActiveResidues>
 VAL166  LYS551  ARG553  GLY616  TRP617  ASP618  TYR619  PRO620  LYS621  CYS622 
 ASP623  PHE694  ASN695  SER759  ASP760  ASP761  ALA762  ILE779  LEU786  VAL792 
 PHE793  MET794  SER795  GLU796  ALA797  LYS798  CYS799  TRP800  GLU811  SER814 

> <Gold.Protein.RotatedAtoms>
  150.8365  134.7640  159.6896 H   0  0  0  0  0  0  0  0  0  0  0  0  # atno 6907 bound_to 6896
  152.4461  134.5489  159.9871 H   0  0  0  0  0  0  0  0  0  0  0  0  # atno 6908 bound_to 6896
  151.5638  133.3361  159.3012 H   0  0  0  0  0  0  0  0  0  0  0  0  # atno 6909 bound_to 6896
  145.7635  140.8849  143.0417 H   0  0  0  0  0  0  0  0  0  0  0  0  # atno 7974 bound_to 7965
  155.5305  140.0599  157.2890 H   0  0  0  0  0  0  0  0  0  0  0  0  # atno 8008 bound_to 7997
  154.4486  140.1937  156.0534 H   0  0  0  0  0  0  0  0  0  0  0  0  # atno 8009 bound_to 7997
  156.0656  140.3267  155.7517 H   0  0  0  0  0  0  0  0  0  0  0  0  # atno 8010 bound_to 7997
  140.7250  143.3852  151.1529 H   0  0  0  0  0  0  0  0  0  0  0  0  # atno 10167 bound_to 10162
  156.8201  130.9617  151.3112 H   0  0  0  0  0  0  0  0  0  0  0  0  # atno 10718 bound_to 10713
  153.4075  135.7006  153.6382 H   0  0  0  0  0  0  0  0  0  0  0  0  # atno 10763 bound_to 10752
  153.4890  135.3677  155.2482 H   0  0  0  0  0  0  0  0  0  0  0  0  # atno 10764 bound_to 10752
  154.8715  135.4084  154.3421 H   0  0  0  0  0  0  0  0  0  0  0  0  # atno 10765 bound_to 10752
  140.3444  134.7249  157.4224 H   0  0  0  0  0  0  0  0  0  0  0  0  # atno 11005 bound_to 11000
  144.6826  139.9756  143.7483 LP  0  0  0  0  0  0  0  0  0  0  0  0  # atno 17320 bound_to 7965
  146.0241  139.3276  143.0795 LP  0  0  0  0  0  0  0  0  0  0  0  0  # atno 17321 bound_to 7965
  139.7448  143.8869  152.3060 LP  0  0  0  0  0  0  0  0  0  0  0  0  # atno 17342 bound_to 10162
  139.8703  144.7072  150.8996 LP  0  0  0  0  0  0  0  0  0  0  0  0  # atno 17343 bound_to 10162
  157.6461  130.8845  149.9541 LP  0  0  0  0  0  0  0  0  0  0  0  0  # atno 17370 bound_to 10713
  156.0994  130.3657  150.0247 LP  0  0  0  0  0  0  0  0  0  0  0  0  # atno 17371 bound_to 10713
  140.0754  134.5804  155.8596 LP  0  0  0  0  0  0  0  0  0  0  0  0  # atno 17394 bound_to 11000
  141.2030  133.6628  156.6036 LP  0  0  0  0  0  0  0  0  0  0  0  0  # atno 17395 bound_to 11000

$$$$
