AV-unprocessed.smi:2289|AV-procd|sdf|9208|dock8
  -GOLD-   2272012423D 1   1.00000     0.00000
 Structure written by MMmdl.
 40 41  0  0  0  0  0  0  0  0  1 V2000
  149.7041  135.4496  156.2709 C   0  0  0  0  0  0  0  0  0  0  0  0
  149.6938  136.9587  156.1032 C   0  0  0  0  0  0  0  0  0  0  0  0
  148.8817  137.6601  156.9985 N   0  0  0  0  0  0  0  0  0  0  0  0
  148.8074  138.9487  156.9271 C   0  0  0  0  0  0  0  0  0  0  0  0
  149.5230  139.6795  155.9641 N   0  0  0  0  0  0  0  0  0  0  0  0
  149.3438  141.1436  156.0097 C   0  0  0  0  0  0  0  0  0  0  0  0
  149.7587  141.8026  157.3512 C   0  0  2  0  0  0  0  0  0  0  0  0
  148.7318  142.6806  157.7687 O   0  0  0  0  0  0  0  0  0  0  0  0
  151.1240  142.5267  157.3594 C   0  0  0  0  0  0  0  0  0  0  0  0
  151.9639  142.1990  158.5879 C   0  0  0  0  0  0  0  0  0  0  0  0
  152.5672  140.9240  158.6522 C   0  0  0  0  0  0  0  0  0  0  0  0
  153.3563  140.5557  159.7560 C   0  0  0  0  0  0  0  0  0  0  0  0
  153.5459  141.4631  160.8115 C   0  0  0  0  0  0  0  0  0  0  0  0
  152.9467  142.7350  160.7604 C   0  0  0  0  0  0  0  0  0  0  0  0
  152.1530  143.1226  159.6545 C   0  0  0  0  0  0  0  0  0  0  0  0
  151.5124  144.5124  159.6478 C   0  0  0  0  0  0  0  0  0  0  0  0
  151.8113  145.1969  160.7527 F   0  0  0  0  0  0  0  0  0  0  0  0
  151.9366  145.2301  158.6080 F   0  0  0  0  0  0  0  0  0  0  0  0
  150.1857  144.3968  159.5872 F   0  0  0  0  0  0  0  0  0  0  0  0
  150.3489  139.0732  155.0609 C   0  0  0  0  0  0  0  0  0  0  0  0
  150.9822  139.7190  154.2234 O   0  0  0  0  0  0  0  0  0  0  0  0
  150.4203  137.6059  155.1516 C   0  0  0  0  0  0  0  0  0  0  0  0
  151.3217  136.8942  154.1502 C   0  0  0  0  0  0  0  0  0  0  0  0
  150.7090  135.0991  156.5077 H   0  0  0  0  0  0  0  0  0  0  0  0
  149.3696  134.9605  155.3558 H   0  0  0  0  0  0  0  0  0  0  0  0
  149.0410  135.1344  157.0776 H   0  0  0  0  0  0  0  0  0  0  0  0
  148.1897  139.5440  157.6017 H   0  0  0  0  0  0  0  0  0  0  0  0
  149.8640  141.6178  155.1747 H   0  0  0  0  0  0  0  0  0  0  0  0
  148.2968  141.3902  155.8273 H   0  0  0  0  0  0  0  0  0  0  0  0
  149.7851  141.0046  158.0940 H   0  0  0  0  0  0  0  0  0  0  0  0
  148.7688  143.4612  157.2372 H   0  0  0  0  0  0  0  0  0  0  0  0
  151.6925  142.2620  156.4719 H   0  0  0  0  0  0  0  0  0  0  0  0
  150.9808  143.6064  157.2934 H   0  0  0  0  0  0  0  0  0  0  0  0
  152.4271  140.2197  157.8449 H   0  0  0  0  0  0  0  0  0  0  0  0
  153.8139  139.5779  159.7923 H   0  0  0  0  0  0  0  0  0  0  0  0
  154.1495  141.1837  161.6623 H   0  0  0  0  0  0  0  0  0  0  0  0
  153.1047  143.4098  161.5882 H   0  0  0  0  0  0  0  0  0  0  0  0
  150.9924  137.1049  153.1323 H   0  0  0  0  0  0  0  0  0  0  0  0
  151.3315  135.8126  154.2742 H   0  0  0  0  0  0  0  0  0  0  0  0
  152.3490  137.2453  154.2530 H   0  0  0  0  0  0  0  0  0  0  0  0
  1  2  1  0  0  0  0
  1 24  1  0  0  0  0
  1 25  1  0  0  0  0
  1 26  1  0  0  0  0
  2 22  2  0  0  0  0
  2  3  1  0  0  0  0
  3  4  2  0  0  0  0
  4  5  1  0  0  0  0
  4 27  1  0  0  0  0
  5  6  1  0  0  0  0
  5 20  1  0  0  0  0
  6  7  1  0  0  0  0
  6 28  1  0  0  0  0
  6 29  1  0  0  0  0
  7  8  1  0  0  0  0
  7  9  1  0  0  0  0
  7 30  1  0  0  0  0
  8 31  1  0  0  0  0
  9 10  1  0  0  0  0
  9 32  1  0  0  0  0
  9 33  1  0  0  0  0
 10 15  1  0  0  0  0
 10 11  2  0  0  0  0
 11 12  1  0  0  0  0
 11 34  1  0  0  0  0
 12 13  2  0  0  0  0
 12 35  1  0  0  0  0
 13 14  1  0  0  0  0
 13 36  1  0  0  0  0
 14 15  2  0  0  0  0
 14 37  1  0  0  0  0
 15 16  1  0  0  0  0
 16 17  1  0  0  0  0
 16 18  1  0  0  0  0
 16 19  1  0  0  0  0
 20 21  2  0  0  0  0
 20 22  1  0  0  0  0
 22 23  1  0  0  0  0
 23 38  1  0  0  0  0
 23 39  1  0  0  0  0
 23 40  1  0  0  0  0
M  END
> <s_m_source_file>
AV-unprocessed.smi

> <i_m_source_file_index>
2289

> <i_lp_mmshare_version>
43012

> <i_f3d_flags>
0

> <s_epik_input>
W0NIM11jMW5bY0hdbihjKD1PKWMxW0NIM10pW0NIMl1bQ0BIXShbT0hdKVtDSDJdYzJbY0hdW2NIXVtjSF1bY0hdYzJDKEYpKEYpRg==

> <s_epik_cmdline>
J2VwaWtfcHl0aG9uJywgJy1waCcsICc3LjAnLCAnLXRuJywgJzgnLCAnLW1hJywgJzIwMCcsICctbWV0YWxfYmluZGluZycsICctaW1hZScsICc8aW5maWxlLm1hZT4nLCAnLW9tYWUnLCAnPG91dGZpbGUubWFlPic=

> <r_lp_tautomer_probability>
1

> <r_epik_Ionization_Penalty>
8.92636e-05

> <r_epik_Ionization_Penalty_Charging>
8.63033e-08

> <r_epik_Ionization_Penalty_Neutral>
8.91773e-05

> <r_epik_State_Penalty>
-0

> <r_epik_Charging_Adjusted_Penalty>
8.63033e-08

> <i_epik_Tot_Q>
0

> <i_epik_Tot_abs_Q>
0

> <r_epik_Metal_State_Penalty>
-0

> <b_epik_Metal_Only>
0

> <s_lp_Force_Field>
OPLS_2005

> <r_lp_Energy>
23.7682

> <b_lp_Chiralities_Consistent>
1

> <s_lp_Variant>
AV-unprocessed.smi:2289-1

> <Gold.Version>
5.8.1

> <Gold.Id.Protein>
6NUR|6NUR_protein|mol2

> <Gold.PLP.Fitness>
47.1808

> <Gold.PLP.PLP>
-43.9414

> <Gold.PLP.part.hbond>
-2.5247

> <Gold.PLP.part.metal>
0.0000

> <Gold.PLP.part.buried>
-5.2940

> <Gold.PLP.part.nonpolar>
-36.0585

> <Gold.PLP.part.repulsive>
0.1269

> <Gold.PLP.ligand.clash>
1.4058

> <Gold.PLP.ligand.torsion>
1.4122

> <Gold.PLP.Chemscore.Hbond>
2.0000

> <Gold.PLP.Chemscore.CHOScore>
0.0000

> <Gold.PLP.Chemscore.Metal>
0.0000

> <Gold.Chemscore.Hbonds>
donor molecule, donor type, donor heavy atom, donor atom, acceptor molecule, acceptor atom, score
      L1  H     8    31       P1  8028  1.00
      P1  H  7989  7998       L1    21  0.93

> <Gold.PLP.Chemscore.Internal.Correction>
1.4696

> <Gold.Rescore>
     Score         DG    S(hbond)    S(metal)    S(lipo)     H(rot)  DE(clash)    DE(int)     intcor
     13.23     -17.01       1.65        0.00     103.35       2.37       0.04       3.75       ----

> <Gold.Chemscore.Fitness>
13.2283

> <Gold.Chemscore.DG>
-17.0142

> <Gold.Chemscore.ZeroCoef>
-5.4800

> <Gold.Chemscore.Hbond>
1.6483

> <Gold.Chemscore.Metal>
0.0000

> <Gold.Chemscore.Lipo>
103.3455

> <Gold.Chemscore.Internal_Hbond>
0.0000

> <Gold.Chemscore.DEClash>
0.0351

> <Gold.Chemscore.DEInternal>
3.7507

> <Gold.Chemscore.Rot>
2.3681

> <Gold.Chemscore.Internal.Correction>
   9.000000E+99

> <Gold.Chemscore.Hbonds>
donor molecule, donor type, donor heavy atom, donor atom, acceptor molecule, acceptor atom, score
      L1  H     8    31       P1  8028  0.25
      P1  H  7989  7998       L1    21  0.89

> <Gold.Chemscore.Hbond.Weighted>
-5.5052

> <Gold.Chemscore.Metal.Weighted>
-0.0000

> <Gold.Chemscore.Lipo.Weighted>
-12.0914

> <Gold.Chemscore.Internal_Hbond.Weighted>
0.0000

> <Gold.Chemscore.DEClash.Weighted>
0.0351

> <Gold.Chemscore.DEInternal.Weighted>
3.7507

> <Gold.Chemscore.Rot.Weighted>
6.0624

> <Gold.Chemscore.Internal.Correction.Weighted>
   9.000000E+99

> <Gold.Protein.RotatedTorsions>
[ 6907 6896 6895 6894 ] final   13.25 input  -60.11 | X-H torsion
[ 7974 7965 7964 7962 ] final   15.32 input  175.53 | X-H torsion
[ 8008 7997 7996 7995 ] final   -0.19 input   59.86 | X-H torsion
[ 10167 10162 10161 10158 ] final  102.80 input  -65.29 | X-H torsion
[ 10718 10713 10712 10709 ] final  109.81 input   66.30 | X-H torsion
[ 10763 10752 10751 10750 ] final   79.71 input  -60.55 | X-H torsion
[ 11005 11000 10999 10996 ] final -167.21 input  -57.11 | X-H torsion

> <Gold.Protein.ActiveResidues>
 VAL166  LYS551  ARG553  GLY616  TRP617  ASP618  TYR619  PRO620  LYS621  CYS622 
 ASP623  PHE694  ASN695  SER759  ASP760  ASP761  ALA762  ILE779  LEU786  VAL792 
 PHE793  MET794  SER795  GLU796  ALA797  LYS798  CYS799  TRP800  GLU811  SER814 

> <Gold.Protein.RotatedAtoms>
  151.7832  135.0756  160.0376 H   0  0  0  0  0  0  0  0  0  0  0  0  # atno 6907 bound_to 6896
  152.3208  133.5847  159.5752 H   0  0  0  0  0  0  0  0  0  0  0  0  # atno 6908 bound_to 6896
  150.7369  133.9930  159.3655 H   0  0  0  0  0  0  0  0  0  0  0  0  # atno 6909 bound_to 6896
  146.2281  139.8912  142.8554 H   0  0  0  0  0  0  0  0  0  0  0  0  # atno 7974 bound_to 7965
  154.6609  140.2590  155.7110 H   0  0  0  0  0  0  0  0  0  0  0  0  # atno 8008 bound_to 7997
  156.2618  140.2849  156.1002 H   0  0  0  0  0  0  0  0  0  0  0  0  # atno 8009 bound_to 7997
  155.1310  140.0378  157.2765 H   0  0  0  0  0  0  0  0  0  0  0  0  # atno 8010 bound_to 7997
  139.7319  144.7034  151.0709 H   0  0  0  0  0  0  0  0  0  0  0  0  # atno 10167 bound_to 10162
  157.6524  131.0921  150.6509 H   0  0  0  0  0  0  0  0  0  0  0  0  # atno 10718 bound_to 10713
  153.0974  135.4830  154.8804 H   0  0  0  0  0  0  0  0  0  0  0  0  # atno 10763 bound_to 10752
  154.7340  135.3066  154.8845 H   0  0  0  0  0  0  0  0  0  0  0  0  # atno 10764 bound_to 10752
  153.9472  135.6827  153.4797 H   0  0  0  0  0  0  0  0  0  0  0  0  # atno 10765 bound_to 10752
  140.5558  134.5382  157.5132 H   0  0  0  0  0  0  0  0  0  0  0  0  # atno 11005 bound_to 11000
  145.2416  141.0011  143.3932 LP  0  0  0  0  0  0  0  0  0  0  0  0  # atno 17320 bound_to 7965
  144.9447  139.4149  143.6431 LP  0  0  0  0  0  0  0  0  0  0  0  0  # atno 17321 bound_to 7965
  140.7772  143.5033  150.9744 LP  0  0  0  0  0  0  0  0  0  0  0  0  # atno 17342 bound_to 10162
  139.8721  143.7179  152.3165 LP  0  0  0  0  0  0  0  0  0  0  0  0  # atno 17343 bound_to 10162
  156.6819  130.4569  149.5625 LP  0  0  0  0  0  0  0  0  0  0  0  0  # atno 17370 bound_to 10713
  156.1923  130.6568  151.1075 LP  0  0  0  0  0  0  0  0  0  0  0  0  # atno 17371 bound_to 10713
  139.9432  134.7749  156.0626 LP  0  0  0  0  0  0  0  0  0  0  0  0  # atno 17394 bound_to 11000
  141.1144  133.6632  156.3058 LP  0  0  0  0  0  0  0  0  0  0  0  0  # atno 17395 bound_to 11000

$$$$
