AV-unprocessed.smi:2664|AV-procd|sdf|10326|dock6
  -GOLD-   2272014343D 1   1.00000     0.00000
 Structure written by MMmdl.
 43 44  0  0  0  0  0  0  0  0  1 V2000
  144.6361  136.3303  152.7467 O   0  0  0  0  0  0  0  0  0  0  0  0
  145.8328  136.1870  152.4979 C   0  0  0  0  0  0  0  0  0  0  0  0
  146.3702  135.1504  151.8318 N   0  0  0  0  0  0  0  0  0  0  0  0
  145.7141  134.0464  151.2221 C   0  0  0  0  0  0  0  0  0  0  0  0
  146.4987  132.9258  150.8793 C   0  0  0  0  0  0  0  0  0  0  0  0
  145.8770  131.8251  150.2564 C   0  0  0  0  0  0  0  0  0  0  0  0
  144.5612  131.7873  149.9591 N   0  0  0  0  0  0  0  0  0  0  0  0
  143.8137  132.8660  150.2759 C   0  0  0  0  0  0  0  0  0  0  0  0
  144.3356  134.0168  150.8998 C   0  0  0  0  0  0  0  0  0  0  0  0
  146.7818  137.0539  152.8838 N   0  0  0  0  0  0  0  0  0  0  0  0
  146.5633  138.2982  153.6267 C   0  0  2  0  0  0  0  0  0  0  0  0
  146.1214  139.4038  152.6338 C   0  0  0  0  0  0  0  0  0  0  0  0
  146.9974  139.5417  151.3742 C   0  0  0  0  0  0  0  0  0  0  0  0
  146.8479  138.4131  150.5392 O   0  0  0  0  0  0  0  0  0  0  0  0
  147.8397  138.6641  154.4392 C   0  0  0  0  0  0  0  0  0  0  0  0
  147.5851  139.8179  155.4438 C   0  0  0  0  0  0  0  0  0  0  0  0
  148.8433  140.1883  156.2449 C   0  0  0  0  0  0  0  0  0  0  0  0
  150.0064  140.5543  155.3153 C   0  0  0  0  0  0  0  0  0  0  0  0
  150.2912  139.4137  154.3309 C   0  0  0  0  0  0  0  0  0  0  0  0
  149.0350  139.0380  153.5281 C   0  0  0  0  0  0  0  0  0  0  0  0
  147.3782  135.1312  151.7849 H   0  0  0  0  0  0  0  0  0  0  0  0
  147.5575  132.9032  151.0918 H   0  0  0  0  0  0  0  0  0  0  0  0
  146.4536  130.9525  149.9874 H   0  0  0  0  0  0  0  0  0  0  0  0
  142.7664  132.8139  150.0172 H   0  0  0  0  0  0  0  0  0  0  0  0
  143.6762  134.8463  151.1029 H   0  0  0  0  0  0  0  0  0  0  0  0
  147.7381  136.8420  152.6398 H   0  0  0  0  0  0  0  0  0  0  0  0
  145.7532  138.1596  154.3447 H   0  0  0  0  0  0  0  0  0  0  0  0
  145.0998  139.2280  152.3003 H   0  0  0  0  0  0  0  0  0  0  0  0
  146.1064  140.3622  153.1540 H   0  0  0  0  0  0  0  0  0  0  0  0
  146.6969  140.4253  150.8106 H   0  0  0  0  0  0  0  0  0  0  0  0
  148.0498  139.6739  151.6253 H   0  0  0  0  0  0  0  0  0  0  0  0
  146.0387  138.4987  150.0581 H   0  0  0  0  0  0  0  0  0  0  0  0
  148.1279  137.7849  155.0178 H   0  0  0  0  0  0  0  0  0  0  0  0
  147.2246  140.6967  154.9069 H   0  0  0  0  0  0  0  0  0  0  0  0
  146.8019  139.5507  156.1527 H   0  0  0  0  0  0  0  0  0  0  0  0
  148.6259  141.0228  156.9120 H   0  0  0  0  0  0  0  0  0  0  0  0
  149.1312  139.3509  156.8817 H   0  0  0  0  0  0  0  0  0  0  0  0
  149.7647  141.4638  154.7642 H   0  0  0  0  0  0  0  0  0  0  0  0
  150.8991  140.7735  155.9017 H   0  0  0  0  0  0  0  0  0  0  0  0
  151.0922  139.7038  153.6504 H   0  0  0  0  0  0  0  0  0  0  0  0
  150.6509  138.5401  154.8762 H   0  0  0  0  0  0  0  0  0  0  0  0
  149.2972  138.2096  152.8722 H   0  0  0  0  0  0  0  0  0  0  0  0
  148.7564  139.8702  152.8802 H   0  0  0  0  0  0  0  0  0  0  0  0
  1  2  2  0  0  0  0
  2  3  1  0  0  0  0
  2 10  1  0  0  0  0
  3  4  1  0  0  0  0
  3 21  1  0  0  0  0
  4  9  1  0  0  0  0
  4  5  2  0  0  0  0
  5  6  1  0  0  0  0
  5 22  1  0  0  0  0
  6  7  2  0  0  0  0
  6 23  1  0  0  0  0
  7  8  1  0  0  0  0
  8  9  2  0  0  0  0
  8 24  1  0  0  0  0
  9 25  1  0  0  0  0
 10 11  1  0  0  0  0
 10 26  1  0  0  0  0
 11 12  1  0  0  0  0
 11 15  1  0  0  0  0
 11 27  1  0  0  0  0
 12 13  1  0  0  0  0
 12 28  1  0  0  0  0
 12 29  1  0  0  0  0
 13 14  1  0  0  0  0
 13 30  1  0  0  0  0
 13 31  1  0  0  0  0
 14 32  1  0  0  0  0
 15 20  1  0  0  0  0
 15 16  1  0  0  0  0
 15 33  1  0  0  0  0
 16 17  1  0  0  0  0
 16 34  1  0  0  0  0
 16 35  1  0  0  0  0
 17 18  1  0  0  0  0
 17 36  1  0  0  0  0
 17 37  1  0  0  0  0
 18 19  1  0  0  0  0
 18 38  1  0  0  0  0
 18 39  1  0  0  0  0
 19 20  1  0  0  0  0
 19 40  1  0  0  0  0
 19 41  1  0  0  0  0
 20 42  1  0  0  0  0
 20 43  1  0  0  0  0
M  END
> <s_m_source_file>
AV-unprocessed.smi

> <i_m_source_file_index>
2664

> <i_lp_mmshare_version>
43012

> <i_f3d_flags>
0

> <s_epik_input>
W2NIXTFbY0hdbltjSF1bY0hdYzFbTkhdQyg9TylbTkhdW0NASF0oW0NIMl1bQ0gyXVtPSF0pW0NIXTJbQ0gyXVtDSDJdW0NIMl1bQ0gyXVtDSDJdMg==

> <s_epik_cmdline>
J2VwaWtfcHl0aG9uJywgJy1waCcsICc3LjAnLCAnLXRuJywgJzgnLCAnLW1hJywgJzIwMCcsICctbWV0YWxfYmluZGluZycsICctaW1hZScsICc8aW5maWxlLm1hZT4nLCAnLW9tYWUnLCAnPG91dGZpbGUubWFlPic=

> <r_epik_Ionization_Penalty>
0.119281

> <r_epik_Ionization_Penalty_Charging>
0

> <r_epik_Ionization_Penalty_Neutral>
0.119281

> <r_epik_State_Penalty>
0.108806

> <r_epik_Charging_Adjusted_Penalty>
0.108806

> <i_epik_Tot_Q>
0

> <i_epik_Tot_abs_Q>
0

> <r_epik_Metal_State_Penalty>
0.0904205

> <b_epik_Metal_Only>
0

> <s_lp_Force_Field>
OPLS_2005

> <r_lp_Energy>
21.6864

> <b_lp_Chiralities_Consistent>
1

> <s_lp_Variant>
AV-unprocessed.smi:2664-1

> <Gold.Version>
5.8.1

> <Gold.Id.Protein>
6NUR|6NUR_protein|mol2

> <Gold.PLP.Fitness>
45.1936

> <Gold.PLP.PLP>
-28.9344

> <Gold.PLP.part.hbond>
-4.8105

> <Gold.PLP.part.metal>
0.0000

> <Gold.PLP.part.buried>
3.8020

> <Gold.PLP.part.nonpolar>
-27.8901

> <Gold.PLP.part.repulsive>
0.3016

> <Gold.PLP.ligand.clash>
0.0000

> <Gold.PLP.ligand.torsion>
0.5503

> <Gold.PLP.Chemscore.Hbond>
3.9280

> <Gold.PLP.Chemscore.CHOScore>
1.8344

> <Gold.PLP.Chemscore.Metal>
0.0000

> <Gold.Chemscore.Hbonds>
donor molecule, donor type, donor heavy atom, donor atom, acceptor molecule, acceptor atom, score
      L1  H     3    21       P1  7948  0.90
      L1  H    10    26       P1  7948  1.00
      L1  H    14    32       P1 10171  0.68
      P1  H  7954  7966       L1    14  0.88
      L1  C     6    23       P1 10747  0.86
      L1  C     8    24       P1 10186  1.00

> <Gold.PLP.Chemscore.Internal.Correction>
0.0727

> <Gold.Rescore>
     Score         DG    S(hbond)    S(metal)    S(lipo)     H(rot)  DE(clash)    DE(int)     intcor
     17.31     -22.29       3.68        0.00      87.26       2.23       2.22       2.76       ----

> <Gold.Chemscore.Fitness>
17.3115

> <Gold.Chemscore.DG>
-22.2915

> <Gold.Chemscore.ZeroCoef>
-5.4800

> <Gold.Chemscore.Hbond>
3.6820

> <Gold.Chemscore.Metal>
0.0000

> <Gold.Chemscore.Lipo>
87.2628

> <Gold.Chemscore.Internal_Hbond>
0.0000

> <Gold.Chemscore.DEClash>
2.2221

> <Gold.Chemscore.DEInternal>
2.7579

> <Gold.Chemscore.Rot>
2.2251

> <Gold.Chemscore.Internal.Correction>
   9.000000E+99

> <Gold.Chemscore.Hbonds>
donor molecule, donor type, donor heavy atom, donor atom, acceptor molecule, acceptor atom, score
      L1  H     3    21       P1  7948  0.82
      L1  H    10    26       P1  7948  0.95
      L1  H    14    32       P1 10171  0.68
      P1  H  7954  7966       L1    14  0.76
      P1  H 10785 10796       L1     7  0.02

> <Gold.Chemscore.Hbond.Weighted>
-12.2979

> <Gold.Chemscore.Metal.Weighted>
-0.0000

> <Gold.Chemscore.Lipo.Weighted>
-10.2097

> <Gold.Chemscore.Internal_Hbond.Weighted>
0.0000

> <Gold.Chemscore.DEClash.Weighted>
2.2221

> <Gold.Chemscore.DEInternal.Weighted>
2.7579

> <Gold.Chemscore.Rot.Weighted>
5.6962

> <Gold.Chemscore.Internal.Correction.Weighted>
   9.000000E+99

> <Gold.Protein.RotatedTorsions>
[ 6907 6896 6895 6894 ] final   32.02 input  -60.11 | X-H torsion
[ 7974 7965 7964 7962 ] final  -15.87 input  175.53 | X-H torsion
[ 8008 7997 7996 7995 ] final  -50.77 input   59.86 | X-H torsion
[ 10167 10162 10161 10158 ] final -107.29 input  -65.29 | X-H torsion
[ 10718 10713 10712 10709 ] final  -66.83 input   66.30 | X-H torsion
[ 10763 10752 10751 10750 ] final   91.09 input  -60.55 | X-H torsion
[ 11005 11000 10999 10996 ] final  -32.87 input  -57.11 | X-H torsion

> <Gold.Protein.ActiveResidues>
 VAL166  LYS551  ARG553  GLY616  TRP617  ASP618  TYR619  PRO620  LYS621  CYS622 
 ASP623  PHE694  ASN695  SER759  ASP760  ASP761  ALA762  ILE779  LEU786  VAL792 
 PHE793  MET794  SER795  GLU796  ALA797  LYS798  CYS799  TRP800  GLU811  SER814 

> <Gold.Protein.RotatedAtoms>
  152.0686  134.9548  160.0574 H   0  0  0  0  0  0  0  0  0  0  0  0  # atno 6907 bound_to 6896
  152.0883  133.4182  159.4540 H   0  0  0  0  0  0  0  0  0  0  0  0  # atno 6908 bound_to 6896
  150.6836  134.2821  159.4675 H   0  0  0  0  0  0  0  0  0  0  0  0  # atno 6909 bound_to 6896
  146.2013  140.3555  142.8422 H   0  0  0  0  0  0  0  0  0  0  0  0  # atno 7974 bound_to 7965
  154.4069  140.1264  156.4720 H   0  0  0  0  0  0  0  0  0  0  0  0  # atno 8008 bound_to 7997
  155.7170  140.3493  155.4979 H   0  0  0  0  0  0  0  0  0  0  0  0  # atno 8009 bound_to 7997
  155.9249  140.1059  157.1168 H   0  0  0  0  0  0  0  0  0  0  0  0  # atno 8010 bound_to 7997
  140.1785  143.3985  152.1299 H   0  0  0  0  0  0  0  0  0  0  0  0  # atno 10167 bound_to 10162
  156.0591  130.4268  150.1766 H   0  0  0  0  0  0  0  0  0  0  0  0  # atno 10718 bound_to 10713
  153.2046  135.4410  155.0307 H   0  0  0  0  0  0  0  0  0  0  0  0  # atno 10763 bound_to 10752
  154.8166  135.3318  154.7161 H   0  0  0  0  0  0  0  0  0  0  0  0  # atno 10764 bound_to 10752
  153.7603  135.6992  153.4982 H   0  0  0  0  0  0  0  0  0  0  0  0  # atno 10765 bound_to 10752
  140.9588  133.7177  156.1336 H   0  0  0  0  0  0  0  0  0  0  0  0  # atno 11005 bound_to 11000
  144.8689  140.7245  143.6059 LP  0  0  0  0  0  0  0  0  0  0  0  0  # atno 17320 bound_to 7965
  145.3474  139.1715  143.4453 LP  0  0  0  0  0  0  0  0  0  0  0  0  # atno 17321 bound_to 7965
  139.5306  144.7155  151.5069 LP  0  0  0  0  0  0  0  0  0  0  0  0  # atno 17342 bound_to 10162
  140.6535  143.8647  150.6810 LP  0  0  0  0  0  0  0  0  0  0  0  0  # atno 17343 bound_to 10162
  156.9837  130.9872  151.3431 LP  0  0  0  0  0  0  0  0  0  0  0  0  # atno 17370 bound_to 10713
  157.5585  130.8230  149.8235 LP  0  0  0  0  0  0  0  0  0  0  0  0  # atno 17371 bound_to 10713
  140.7497  134.4058  157.5543 LP  0  0  0  0  0  0  0  0  0  0  0  0  # atno 17394 bound_to 11000
  139.8871  134.8892  156.2547 LP  0  0  0  0  0  0  0  0  0  0  0  0  # atno 17395 bound_to 11000

$$$$
