AV-unprocessed.smi:224|AV-procd|sdf|1712|dock7
  -GOLD-   2262020183D 1   1.00000     0.00000
 Structure written by MMmdl.
 56 59  0  0  0  0  0  0  0  0  2 V2000
  146.0196  132.8115  150.2608 C   0  0  0  0  0  0  0  0  0  0  0  0
  144.7663  133.6770  150.4440 C   0  0  1  0  0  0  0  0  0  0  0  0
  144.1416  133.8203  149.1845 O   0  0  0  0  0  0  0  0  0  0  0  0
  143.7644  133.0511  151.4303 C   0  0  0  0  0  0  0  0  0  0  0  0
  144.0202  133.5086  152.8251 N   0  3  2  0  0  0  0  0  0  0  0  0
  143.3447  134.8109  153.0877 C   0  0  0  0  0  0  0  0  0  0  0  0
  143.5709  135.3145  154.5233 C   0  0  0  0  0  0  0  0  0  0  0  0
  144.9912  135.3289  154.8568 N   0  0  0  0  0  0  0  0  0  0  0  0
  145.7439  136.4207  154.5504 C   0  0  0  0  0  0  0  0  0  0  0  0
  145.1698  137.4842  153.9264 N   0  0  0  0  0  0  0  0  0  0  0  0
  145.8998  138.5518  153.5923 C   0  0  0  0  0  0  0  0  0  0  0  0
  147.2020  138.7637  153.7851 N   0  0  0  0  0  0  0  0  0  0  0  0
  147.7843  137.7107  154.4259 C   0  0  0  0  0  0  0  0  0  0  0  0
  147.1345  136.5159  154.8482 C   0  0  0  0  0  0  0  0  0  0  0  0
  148.0485  135.6867  155.4889 N   0  0  0  0  0  0  0  0  0  0  0  0
  149.1747  136.3431  155.4305 C   0  0  0  0  0  0  0  0  0  0  0  0
  149.1097  137.5619  154.7950 N   0  0  0  0  0  0  0  0  0  0  0  0
  150.2072  138.4893  154.5697 C   0  0  0  0  0  0  0  0  0  0  0  0
  151.5898  137.8951  154.9274 C   0  0  2  0  0  0  0  0  0  0  0  0
  151.8210  136.7456  154.1314 O   0  0  0  0  0  0  0  0  0  0  0  0
  151.7386  137.5035  156.3955 C   0  0  0  0  0  0  0  0  0  0  0  0
  153.2141  137.7586  156.6679 C   0  0  0  0  0  0  0  0  0  0  0  0
  153.4547  138.9544  155.9468 O   0  0  0  0  0  0  0  0  0  0  0  0
  152.7540  138.8820  154.7092 C   0  0  0  0  0  0  0  0  0  0  0  0
  145.6292  134.0308  154.6764 C   0  0  0  0  0  0  0  0  0  0  0  0
  145.4604  133.4982  153.2349 C   0  0  1  0  0  0  0  0  0  0  0  0
  146.0841  132.0878  153.1763 C   0  0  0  0  0  0  0  0  0  0  0  0
  146.5531  132.6911  151.2041 H   0  0  0  0  0  0  0  0  0  0  0  0
  146.7100  133.2654  149.5489 H   0  0  0  0  0  0  0  0  0  0  0  0
  145.7675  131.8163  149.8927 H   0  0  0  0  0  0  0  0  0  0  0  0
  145.0705  134.6652  150.7896 H   0  0  0  0  0  0  0  0  0  0  0  0
  144.8055  133.9917  148.5337 H   0  0  0  0  0  0  0  0  0  0  0  0
  142.7561  133.2780  151.0928 H   0  0  0  0  0  0  0  0  0  0  0  0
  143.8280  131.9627  151.3870 H   0  0  0  0  0  0  0  0  0  0  0  0
  143.7127  135.5526  152.3778 H   0  0  0  0  0  0  0  0  0  0  0  0
  142.2742  134.7156  152.9060 H   0  0  0  0  0  0  0  0  0  0  0  0
  143.1260  136.3006  154.6633 H   0  0  0  0  0  0  0  0  0  0  0  0
  143.0638  134.6530  155.2268 H   0  0  0  0  0  0  0  0  0  0  0  0
  145.3655  139.3479  153.0950 H   0  0  0  0  0  0  0  0  0  0  0  0
  150.0911  135.9495  155.8459 H   0  0  0  0  0  0  0  0  0  0  0  0
  150.1887  138.8010  153.5244 H   0  0  0  0  0  0  0  0  0  0  0  0
  150.0194  139.3875  155.1595 H   0  0  0  0  0  0  0  0  0  0  0  0
  151.5485  136.9341  153.2465 H   0  0  0  0  0  0  0  0  0  0  0  0
  151.1486  138.1703  157.0252 H   0  0  0  0  0  0  0  0  0  0  0  0
  151.4295  136.4804  156.6140 H   0  0  0  0  0  0  0  0  0  0  0  0
  153.4350  137.8750  157.7291 H   0  0  0  0  0  0  0  0  0  0  0  0
  153.8339  136.9538  156.2696 H   0  0  0  0  0  0  0  0  0  0  0  0
  153.4353  138.5462  153.9257 H   0  0  0  0  0  0  0  0  0  0  0  0
  152.4088  139.8793  154.4350 H   0  0  0  0  0  0  0  0  0  0  0  0
  146.6868  134.0614  154.9322 H   0  0  0  0  0  0  0  0  0  0  0  0
  145.1730  133.3351  155.3819 H   0  0  0  0  0  0  0  0  0  0  0  0
  146.0092  134.1548  152.5574 H   0  0  0  0  0  0  0  0  0  0  0  0
  147.0852  132.0912  153.6083 H   0  0  0  0  0  0  0  0  0  0  0  0
  146.1964  131.7087  152.1623 H   0  0  0  0  0  0  0  0  0  0  0  0
  145.4889  131.3683  153.7399 H   0  0  0  0  0  0  0  0  0  0  0  0
  143.5727  132.8303  153.4255 H   0  0  0  0  0  0  0  0  0  0  0  0
  1  2  1  0  0  0  0
  1 28  1  0  0  0  0
  1 29  1  0  0  0  0
  1 30  1  0  0  0  0
  2  3  1  0  0  0  0
  2  4  1  0  0  0  0
  2 31  1  0  0  0  0
  3 32  1  0  0  0  0
  4  5  1  0  0  0  0
  4 33  1  0  0  0  0
  4 34  1  0  0  0  0
  5 26  1  0  0  0  0
  5  6  1  0  0  0  0
  5 56  1  0  0  0  0
  6  7  1  0  0  0  0
  6 35  1  0  0  0  0
  6 36  1  0  0  0  0
  7  8  1  0  0  0  0
  7 37  1  0  0  0  0
  7 38  1  0  0  0  0
  8  9  1  0  0  0  0
  8 25  1  0  0  0  0
  9 14  1  0  0  0  0
  9 10  2  0  0  0  0
 10 11  1  0  0  0  0
 11 12  2  0  0  0  0
 11 39  1  0  0  0  0
 12 13  1  0  0  0  0
 13 17  1  0  0  0  0
 13 14  2  0  0  0  0
 14 15  1  0  0  0  0
 15 16  2  0  0  0  0
 16 17  1  0  0  0  0
 16 40  1  0  0  0  0
 17 18  1  0  0  0  0
 18 19  1  0  0  0  0
 18 41  1  0  0  0  0
 18 42  1  0  0  0  0
 19 24  1  0  0  0  0
 19 20  1  0  0  0  0
 19 21  1  0  0  0  0
 20 43  1  0  0  0  0
 21 22  1  0  0  0  0
 21 44  1  0  0  0  0
 21 45  1  0  0  0  0
 22 23  1  0  0  0  0
 22 46  1  0  0  0  0
 22 47  1  0  0  0  0
 23 24  1  0  0  0  0
 24 48  1  0  0  0  0
 24 49  1  0  0  0  0
 25 26  1  0  0  0  0
 25 50  1  0  0  0  0
 25 51  1  0  0  0  0
 26 27  1  0  0  0  0
 26 52  1  0  0  0  0
 27 53  1  0  0  0  0
 27 54  1  0  0  0  0
 27 55  1  0  0  0  0
M  CHG  1   5   1
M  END
> <s_m_source_file>
AV-unprocessed.smi

> <i_m_source_file_index>
224

> <i_lp_mmshare_version>
43012

> <i_f3d_flags>
0

> <s_epik_input>
W0NIM11bQ0BIXShbT0hdKVtDSDJdTjFbQ0gyXVtDSDJdTihbQ0gyXVtDQEhdMVtDSDNdKWMobltjSF1uMiljKGMyMyluW2NIXW4zW0NIMl1bQ0BAXTQoW09IXSlbQ0gyXVtDSDJdT1tDSDJdNA==

> <s_epik_cmdline>
J2VwaWtfcHl0aG9uJywgJy1waCcsICc3LjAnLCAnLXRuJywgJzgnLCAnLW1hJywgJzIwMCcsICctbWV0YWxfYmluZGluZycsICctaW1hZScsICc8aW5maWxlLm1hZT4nLCAnLW9tYWUnLCAnPG91dGZpbGUubWFlPic=

> <r_lp_tautomer_probability>
1

> <r_epik_Ionization_Penalty>
0.00516958

> <r_epik_Ionization_Penalty_Charging>
0.00509693

> <r_epik_Ionization_Penalty_Neutral>
7.26542e-05

> <r_epik_State_Penalty>
-0

> <r_epik_Charging_Adjusted_Penalty>
0.00509693

> <i_epik_Tot_Q>
1

> <i_epik_Tot_abs_Q>
1

> <r_epik_Metal_State_Penalty>
-0

> <b_epik_Metal_Only>
0

> <s_lp_Force_Field>
OPLS_2005

> <r_lp_Energy>
47.1484

> <b_lp_Chiralities_Consistent>
1

> <s_lp_Variant>
AV-unprocessed.smi:224-6

> <Gold.Version>
5.8.1

> <Gold.Id.Protein>
6NUR|6NUR_protein|mol2

> <Gold.PLP.Fitness>
49.2738

> <Gold.PLP.PLP>
-32.2911

> <Gold.PLP.part.hbond>
-5.5358

> <Gold.PLP.part.metal>
0.0000

> <Gold.PLP.part.buried>
-5.0495

> <Gold.PLP.part.nonpolar>
-21.6892

> <Gold.PLP.part.repulsive>
0.3924

> <Gold.PLP.ligand.clash>
1.6458

> <Gold.PLP.ligand.torsion>
0.9557

> <Gold.PLP.Chemscore.Hbond>
5.6717

> <Gold.PLP.Chemscore.CHOScore>
1.0000

> <Gold.PLP.Chemscore.Metal>
0.0000

> <Gold.Chemscore.Hbonds>
donor molecule, donor type, donor heavy atom, donor atom, acceptor molecule, acceptor atom, score
      L1  H     3    32       P1  7921  1.00
      L1  H     5    56       P1 10957  2.00
      L1  H    20    43       P1  7949  0.80
      P1  H  7997  8008       L1    23  0.91
      P1  H 10752 10763       L1    20  1.00
      L1  C    11    39       P1 10175  1.00

> <Gold.PLP.Chemscore.Internal.Correction>
0.5245

> <Gold.Rescore>
     Score         DG    S(hbond)    S(metal)    S(lipo)     H(rot)  DE(clash)    DE(int)     intcor
     15.69     -19.82       4.28        0.00      73.80       3.36       0.29       3.84       ----

> <Gold.Chemscore.Fitness>
15.6900

> <Gold.Chemscore.DG>
-19.8185

> <Gold.Chemscore.ZeroCoef>
-5.4800

> <Gold.Chemscore.Hbond>
4.2839

> <Gold.Chemscore.Metal>
0.0000

> <Gold.Chemscore.Lipo>
73.8007

> <Gold.Chemscore.Internal_Hbond>
0.0000

> <Gold.Chemscore.DEClash>
0.2864

> <Gold.Chemscore.DEInternal>
3.8422

> <Gold.Chemscore.Rot>
3.3611

> <Gold.Chemscore.Internal.Correction>
   9.000000E+99

> <Gold.Chemscore.Hbonds>
donor molecule, donor type, donor heavy atom, donor atom, acceptor molecule, acceptor atom, score
      L1  H     3    32       P1  7921  1.00
      L1  H     5    56       P1 10957  0.65
      L1  H    20    43       P1  7949  0.69
      P1  H  7997  8008       L1    23  0.75
      P1  H 10752 10763       L1    20  0.91

> <Gold.Chemscore.Hbond.Weighted>
-14.3083

> <Gold.Chemscore.Metal.Weighted>
-0.0000

> <Gold.Chemscore.Lipo.Weighted>
-8.6347

> <Gold.Chemscore.Internal_Hbond.Weighted>
0.0000

> <Gold.Chemscore.DEClash.Weighted>
0.2864

> <Gold.Chemscore.DEInternal.Weighted>
3.8422

> <Gold.Chemscore.Rot.Weighted>
8.6045

> <Gold.Chemscore.Internal.Correction.Weighted>
   9.000000E+99

> <Gold.Protein.RotatedTorsions>
[ 6907 6896 6895 6894 ] final  122.51 input  -60.11 | X-H torsion
[ 7974 7965 7964 7962 ] final   40.55 input  175.53 | X-H torsion
[ 8008 7997 7996 7995 ] final  -28.01 input   59.86 | X-H torsion
[ 10167 10162 10161 10158 ] final   34.19 input  -65.29 | X-H torsion
[ 10718 10713 10712 10709 ] final   90.38 input   66.30 | X-H torsion
[ 10763 10752 10751 10750 ] final   44.29 input  -60.55 | X-H torsion
[ 11005 11000 10999 10996 ] final  137.80 input  -57.11 | X-H torsion

> <Gold.Protein.ActiveResidues>
 VAL166  LYS551  ARG553  GLY616  TRP617  ASP618  TYR619  PRO620  LYS621  CYS622 
 ASP623  PHE694  ASN695  SER759  ASP760  ASP761  ALA762  ILE779  LEU786  VAL792 
 PHE793  MET794  SER795  GLU796  ALA797  LYS798  CYS799  TRP800  GLU811  SER814 

> <Gold.Protein.RotatedAtoms>
  152.4237  133.7159  159.6504 H   0  0  0  0  0  0  0  0  0  0  0  0  # atno 6907 bound_to 6896
  150.8113  133.8406  159.3187 H   0  0  0  0  0  0  0  0  0  0  0  0  # atno 6908 bound_to 6896
  151.6115  135.1042  160.0134 H   0  0  0  0  0  0  0  0  0  0  0  0  # atno 6909 bound_to 6896
  146.0895  139.5519  142.9485 H   0  0  0  0  0  0  0  0  0  0  0  0  # atno 7974 bound_to 7965
  154.4351  140.1857  156.1022 H   0  0  0  0  0  0  0  0  0  0  0  0  # atno 8008 bound_to 7997
  156.0283  140.3333  155.7086 H   0  0  0  0  0  0  0  0  0  0  0  0  # atno 8009 bound_to 7997
  155.5876  140.0628  157.2758 H   0  0  0  0  0  0  0  0  0  0  0  0  # atno 8010 bound_to 7997
  140.4338  144.1287  150.6163 H   0  0  0  0  0  0  0  0  0  0  0  0  # atno 10167 bound_to 10162
  157.6959  131.0368  150.3569 H   0  0  0  0  0  0  0  0  0  0  0  0  # atno 10718 bound_to 10713
  152.9844  135.6075  154.3250 H   0  0  0  0  0  0  0  0  0  0  0  0  # atno 10763 bound_to 10752
  154.2957  135.2774  155.2636 H   0  0  0  0  0  0  0  0  0  0  0  0  # atno 10764 bound_to 10752
  154.4911  135.5892  153.6516 H   0  0  0  0  0  0  0  0  0  0  0  0  # atno 10765 bound_to 10752
  140.0139  134.9427  157.0336 H   0  0  0  0  0  0  0  0  0  0  0  0  # atno 11005 bound_to 11000
  145.6065  141.0347  143.1990 LP  0  0  0  0  0  0  0  0  0  0  0  0  # atno 17320 bound_to 7965
  144.7350  139.7612  143.7333 LP  0  0  0  0  0  0  0  0  0  0  0  0  # atno 17321 bound_to 7965
  140.4397  143.2532  151.9489 LP  0  0  0  0  0  0  0  0  0  0  0  0  # atno 17342 bound_to 10162
  139.4786  144.5666  151.8155 LP  0  0  0  0  0  0  0  0  0  0  0  0  # atno 17343 bound_to 10162
  156.4011  130.3916  149.6959 LP  0  0  0  0  0  0  0  0  0  0  0  0  # atno 17370 bound_to 10713
  156.4276  130.7799  151.2818 LP  0  0  0  0  0  0  0  0  0  0  0  0  # atno 17371 bound_to 10713
  140.4505  134.1587  155.7181 LP  0  0  0  0  0  0  0  0  0  0  0  0  # atno 17394 bound_to 11000
  141.1730  133.8571  157.1511 LP  0  0  0  0  0  0  0  0  0  0  0  0  # atno 17395 bound_to 11000

$$$$
