AV-unprocessed.smi:356|AV-procd|sdf|2415|dock6
  -GOLD-   2262022353D 1   1.00000     0.00000
 Structure written by MMmdl.
 43 45  0  0  0  0  0  0  0  0  3 V2000
  149.2309  141.4927  154.4116 C   0  0  0  0  0  0  0  0  0  0  0  0
  150.0738  141.3850  155.6377 C   0  0  0  0  0  0  0  0  0  0  0  0
  150.0622  142.2434  156.6959 N   0  3  0  0  0  0  0  0  0  0  0  0
  150.9819  141.8210  157.6566 C   0  0  0  0  0  0  0  0  0  0  0  0
  151.3230  142.3657  158.8908 C   0  0  0  0  0  0  0  0  0  0  0  0
  152.3116  141.6855  159.6314 C   0  0  0  0  0  0  0  0  0  0  0  0
  152.9186  140.5117  159.1397 C   0  0  0  0  0  0  0  0  0  0  0  0
  152.5629  139.9675  157.8879 C   0  0  0  0  0  0  0  0  0  0  0  0
  151.5850  140.6465  157.1602 C   0  0  0  0  0  0  0  0  0  0  0  0
  150.9946  140.4166  155.9104 N   0  0  0  0  0  0  0  0  0  0  0  0
  151.4052  139.2541  155.1058 C   0  0  0  0  0  0  0  0  0  0  0  0
  150.2390  138.2891  154.8116 C   0  0  1  0  0  0  0  0  0  0  0  0
  149.8431  138.4213  153.4599 O   0  0  0  0  0  0  0  0  0  0  0  0
  150.6284  136.8205  155.0730 C   0  0  0  0  0  0  0  0  0  0  0  0
  149.6483  135.8600  154.5035 N   0  3  0  0  0  0  0  0  0  0  0  0
  150.1034  134.4534  154.6094 C   0  0  0  0  0  0  0  0  0  0  0  0
  149.0870  133.5079  153.9469 C   0  0  0  0  0  0  0  0  0  0  0  0
  147.8102  133.6831  154.5481 O   0  0  0  0  0  0  0  0  0  0  0  0
  147.3206  135.0076  154.3811 C   0  0  0  0  0  0  0  0  0  0  0  0
  148.2791  136.0026  155.0581 C   0  0  0  0  0  0  0  0  0  0  0  0
  148.6171  142.3930  154.4459 H   0  0  0  0  0  0  0  0  0  0  0  0
  148.5730  140.6273  154.3311 H   0  0  0  0  0  0  0  0  0  0  0  0
  149.8603  141.5367  153.5228 H   0  0  0  0  0  0  0  0  0  0  0  0
  150.8588  143.2649  159.2693 H   0  0  0  0  0  0  0  0  0  0  0  0
  152.6106  142.0722  160.5951 H   0  0  0  0  0  0  0  0  0  0  0  0
  153.6736  140.0188  159.7352 H   0  0  0  0  0  0  0  0  0  0  0  0
  153.0380  139.0691  157.5243 H   0  0  0  0  0  0  0  0  0  0  0  0
  151.8795  139.5982  154.1865 H   0  0  0  0  0  0  0  0  0  0  0  0
  152.1816  138.7345  155.6685 H   0  0  0  0  0  0  0  0  0  0  0  0
  149.3938  138.5711  155.4384 H   0  0  0  0  0  0  0  0  0  0  0  0
  149.8484  137.5662  153.0572 H   0  0  0  0  0  0  0  0  0  0  0  0
  151.6132  136.6417  154.6379 H   0  0  0  0  0  0  0  0  0  0  0  0
  150.7327  136.6351  156.1433 H   0  0  0  0  0  0  0  0  0  0  0  0
  151.0748  134.3398  154.1268 H   0  0  0  0  0  0  0  0  0  0  0  0
  150.2323  134.1886  155.6603 H   0  0  0  0  0  0  0  0  0  0  0  0
  149.0262  133.6904  152.8727 H   0  0  0  0  0  0  0  0  0  0  0  0
  149.3989  132.4714  154.0764 H   0  0  0  0  0  0  0  0  0  0  0  0
  147.2057  135.2359  153.3203 H   0  0  0  0  0  0  0  0  0  0  0  0
  146.3297  135.0760  154.8302 H   0  0  0  0  0  0  0  0  0  0  0  0
  148.2989  135.8244  156.1345 H   0  0  0  0  0  0  0  0  0  0  0  0
  147.9076  137.0157  154.9096 H   0  0  0  0  0  0  0  0  0  0  0  0
  149.5907  136.0639  153.5155 H   0  0  0  0  0  0  0  0  0  0  0  0
  149.4674  143.0601  156.7545 H   0  0  0  0  0  0  0  0  0  0  0  0
  1  2  1  0  0  0  0
  1 21  1  0  0  0  0
  1 22  1  0  0  0  0
  1 23  1  0  0  0  0
  2 10  1  0  0  0  0
  2  3  2  0  0  0  0
  3  4  1  0  0  0  0
  3 43  1  0  0  0  0
  4  9  2  0  0  0  0
  4  5  1  0  0  0  0
  5  6  2  0  0  0  0
  5 24  1  0  0  0  0
  6  7  1  0  0  0  0
  6 25  1  0  0  0  0
  7  8  2  0  0  0  0
  7 26  1  0  0  0  0
  8  9  1  0  0  0  0
  8 27  1  0  0  0  0
  9 10  1  0  0  0  0
 10 11  1  0  0  0  0
 11 12  1  0  0  0  0
 11 28  1  0  0  0  0
 11 29  1  0  0  0  0
 12 13  1  0  0  0  0
 12 14  1  0  0  0  0
 12 30  1  0  0  0  0
 13 31  1  0  0  0  0
 14 15  1  0  0  0  0
 14 32  1  0  0  0  0
 14 33  1  0  0  0  0
 15 20  1  0  0  0  0
 15 16  1  0  0  0  0
 15 42  1  0  0  0  0
 16 17  1  0  0  0  0
 16 34  1  0  0  0  0
 16 35  1  0  0  0  0
 17 18  1  0  0  0  0
 17 36  1  0  0  0  0
 17 37  1  0  0  0  0
 18 19  1  0  0  0  0
 19 20  1  0  0  0  0
 19 38  1  0  0  0  0
 19 39  1  0  0  0  0
 20 40  1  0  0  0  0
 20 41  1  0  0  0  0
M  CHG  1   3   1
M  CHG  1  15   1
M  END
> <s_m_source_file>
AV-unprocessed.smi

> <i_m_source_file_index>
356

> <i_lp_mmshare_version>
43012

> <i_f3d_flags>
0

> <s_epik_input>
W2NIXTFbY0hdW2NIXVtjSF1jKGMxMiluKGMobjIpW0NIM10pW0NIMl1bQ0BIXShbT0hdKVtDSDJdTjNbQ0gyXVtDSDJdT1tDSDJdW0NIMl0z

> <s_epik_cmdline>
J2VwaWtfcHl0aG9uJywgJy1waCcsICc3LjAnLCAnLXRuJywgJzgnLCAnLW1hJywgJzIwMCcsICctbWV0YWxfYmluZGluZycsICctaW1hZScsICc8aW5maWxlLm1hZT4nLCAnLW9tYWUnLCAnPG91dGZpbGUubWFlPic=

> <r_epik_Ionization_Penalty>
1.81899

> <r_epik_Ionization_Penalty_Charging>
1.81898

> <r_epik_Ionization_Penalty_Neutral>
1.42224e-05

> <r_epik_State_Penalty>
1.87399

> <r_epik_Charging_Adjusted_Penalty>
3.69296

> <i_epik_Tot_Q>
2

> <i_epik_Tot_abs_Q>
2

> <r_epik_Metal_State_Penalty>
5.87601

> <b_epik_Metal_Only>
0

> <s_lp_Force_Field>
OPLS_2005

> <r_lp_Energy>
27.965

> <b_lp_Chiralities_Consistent>
1

> <s_lp_Variant>
AV-unprocessed.smi:356-8

> <Gold.Version>
5.8.1

> <Gold.Id.Protein>
6NUR|6NUR_protein|mol2

> <Gold.PLP.Fitness>
50.6860

> <Gold.PLP.PLP>
-37.7255

> <Gold.PLP.part.hbond>
-4.0000

> <Gold.PLP.part.metal>
0.0000

> <Gold.PLP.part.buried>
-2.2363

> <Gold.PLP.part.nonpolar>
-30.7914

> <Gold.PLP.part.repulsive>
0.1376

> <Gold.PLP.ligand.clash>
0.0000

> <Gold.PLP.ligand.torsion>
0.7685

> <Gold.PLP.Chemscore.Hbond>
4.8240

> <Gold.PLP.Chemscore.CHOScore>
0.0000

> <Gold.PLP.Chemscore.Metal>
0.0000

> <Gold.Chemscore.Hbonds>
donor molecule, donor type, donor heavy atom, donor atom, acceptor molecule, acceptor atom, score
      L1  H     3    43       P1  8028  1.51
      L1  H    13    31       P1  7948  0.99
      L1  H    15    42       P1  7948  2.00

> <Gold.PLP.Chemscore.Internal.Correction>
0.0255

> <Gold.Rescore>
     Score         DG    S(hbond)    S(metal)    S(lipo)     H(rot)  DE(clash)    DE(int)     intcor
     18.40     -19.54       2.85        0.00      85.37       2.13       0.38       0.75       ----

> <Gold.Chemscore.Fitness>
18.4041

> <Gold.Chemscore.DG>
-19.5375

> <Gold.Chemscore.ZeroCoef>
-5.4800

> <Gold.Chemscore.Hbond>
2.8529

> <Gold.Chemscore.Metal>
0.0000

> <Gold.Chemscore.Lipo>
85.3722

> <Gold.Chemscore.Internal_Hbond>
0.0000

> <Gold.Chemscore.DEClash>
0.3832

> <Gold.Chemscore.DEInternal>
0.7501

> <Gold.Chemscore.Rot>
2.1327

> <Gold.Chemscore.Internal.Correction>
   9.000000E+99

> <Gold.Chemscore.Hbonds>
donor molecule, donor type, donor heavy atom, donor atom, acceptor molecule, acceptor atom, score
      L1  H     3    43       P1  8028  0.72
      L1  H    13    31       P1  7948  0.42
      L1  H    15    42       P1  7948  0.35

> <Gold.Chemscore.Hbond.Weighted>
-9.5285

> <Gold.Chemscore.Metal.Weighted>
-0.0000

> <Gold.Chemscore.Lipo.Weighted>
-9.9885

> <Gold.Chemscore.Internal_Hbond.Weighted>
0.0000

> <Gold.Chemscore.DEClash.Weighted>
0.3832

> <Gold.Chemscore.DEInternal.Weighted>
0.7501

> <Gold.Chemscore.Rot.Weighted>
5.4596

> <Gold.Chemscore.Internal.Correction.Weighted>
   9.000000E+99

> <Gold.Protein.RotatedTorsions>
[ 6907 6896 6895 6894 ] final  117.53 input  -60.11 | X-H torsion
[ 7974 7965 7964 7962 ] final  102.91 input  175.53 | X-H torsion
[ 8008 7997 7996 7995 ] final   31.45 input   59.86 | X-H torsion
[ 10167 10162 10161 10158 ] final   81.76 input  -65.29 | X-H torsion
[ 10718 10713 10712 10709 ] final -105.35 input   66.30 | X-H torsion
[ 10763 10752 10751 10750 ] final  -33.88 input  -60.55 | X-H torsion
[ 11005 11000 10999 10996 ] final -138.70 input  -57.11 | X-H torsion

> <Gold.Protein.ActiveResidues>
 VAL166  LYS551  ARG553  GLY616  TRP617  ASP618  TYR619  PRO620  LYS621  CYS622 
 ASP623  PHE694  ASN695  SER759  ASP760  ASP761  ALA762  ILE779  LEU786  VAL792 
 PHE793  MET794  SER795  GLU796  ALA797  LYS798  CYS799  TRP800  GLU811  SER814 

> <Gold.Protein.RotatedAtoms>
  152.4605  133.7813  159.6851 H   0  0  0  0  0  0  0  0  0  0  0  0  # atno 6907 bound_to 6896
  150.8547  133.7723  159.3019 H   0  0  0  0  0  0  0  0  0  0  0  0  # atno 6908 bound_to 6896
  151.5307  135.1071  159.9954 H   0  0  0  0  0  0  0  0  0  0  0  0  # atno 6909 bound_to 6896
  145.3528  139.2435  143.3549 H   0  0  0  0  0  0  0  0  0  0  0  0  # atno 7974 bound_to 7965
  155.1066  140.3235  155.4533 H   0  0  0  0  0  0  0  0  0  0  0  0  # atno 8008 bound_to 7997
  156.2702  140.2051  156.6138 H   0  0  0  0  0  0  0  0  0  0  0  0  # atno 8009 bound_to 7997
  154.6788  140.0528  157.0231 H   0  0  0  0  0  0  0  0  0  0  0  0  # atno 8010 bound_to 7997
  139.9359  144.6122  150.8299 H   0  0  0  0  0  0  0  0  0  0  0  0  # atno 10167 bound_to 10162
  156.0342  130.5559  150.7526 H   0  0  0  0  0  0  0  0  0  0  0  0  # atno 10718 bound_to 10713
  153.8375  135.6860  153.4807 H   0  0  0  0  0  0  0  0  0  0  0  0  # atno 10763 bound_to 10752
  153.1474  135.4632  154.9584 H   0  0  0  0  0  0  0  0  0  0  0  0  # atno 10764 bound_to 10752
  154.7860  135.3285  154.7832 H   0  0  0  0  0  0  0  0  0  0  0  0  # atno 10765 bound_to 10752
  140.8590  134.2192  157.4718 H   0  0  0  0  0  0  0  0  0  0  0  0  # atno 11005 bound_to 11000
  146.2960  140.4148  142.8721 LP  0  0  0  0  0  0  0  0  0  0  0  0  # atno 17320 bound_to 7965
  144.8704  140.7265  143.6050 LP  0  0  0  0  0  0  0  0  0  0  0  0  # atno 17321 bound_to 7965
  140.7625  143.3199  151.2647 LP  0  0  0  0  0  0  0  0  0  0  0  0  # atno 17342 bound_to 10162
  139.6744  143.9963  152.2772 LP  0  0  0  0  0  0  0  0  0  0  0  0  # atno 17343 bound_to 10162
  157.5067  131.0922  151.0249 LP  0  0  0  0  0  0  0  0  0  0  0  0  # atno 17370 bound_to 10713
  157.0615  130.5827  149.5386 LP  0  0  0  0  0  0  0  0  0  0  0  0  # atno 17371 bound_to 10713
  139.8706  134.9720  156.4758 LP  0  0  0  0  0  0  0  0  0  0  0  0  # atno 17394 bound_to 11000
  140.8704  133.7992  155.9358 LP  0  0  0  0  0  0  0  0  0  0  0  0  # atno 17395 bound_to 11000

$$$$
