AV-unprocessed.smi:3025|AV-procd|sdf|11510|dock3
  -GOLD-   2272016443D 1   1.00000     0.00000
 Structure written by MMmdl.
 42 43  0  0  0  0  0  0  0  0  2 V2000
  144.4047  133.4943  150.2933 C   0  0  0  0  0  0  0  0  0  0  0  0
  144.5920  135.0017  150.4965 C   0  0  0  0  0  0  0  0  0  0  0  0
  145.1284  135.3434  151.8969 C   0  0  0  0  0  0  0  0  0  0  0  0
  145.3474  136.8511  152.1404 C   0  0  2  0  0  0  0  0  0  0  0  0
  146.2850  137.4921  151.0948 C   0  0  0  0  0  0  0  0  0  0  0  0
  146.5069  138.9899  151.3677 C   0  0  0  0  0  0  0  0  0  0  0  0
  147.0397  139.2564  152.7916 C   0  0  2  0  0  0  0  0  0  0  0  0
  148.4370  138.7960  152.9691 N   0  3  0  0  0  0  0  0  0  0  0  0
  148.9102  138.7256  154.3674 C   0  0  0  0  0  0  0  0  0  0  0  0
  149.6797  139.9959  154.7527 C   0  0  0  0  0  0  0  0  0  0  0  0
  150.9458  139.6929  155.4850 C   0  0  0  0  0  0  0  0  0  0  0  0
  152.1738  139.8995  154.9949 N   0  0  0  0  0  0  0  0  0  0  0  0
  153.0458  139.5044  155.9971 N   0  0  0  0  0  0  0  0  0  0  0  0
  152.2589  139.0996  156.9951 C   0  0  0  0  0  0  0  0  0  0  0  0
  150.9503  139.1974  156.7319 N   0  0  0  0  0  0  0  0  0  0  0  0
  146.1208  138.5970  153.8367 C   0  0  0  0  0  0  0  0  0  0  0  0
  145.8974  137.0999  153.5591 C   0  0  0  0  0  0  0  0  0  0  0  0
  150.1687  138.9566  157.3242 H   0  0  0  0  0  0  0  0  0  0  0  0
  144.0287  133.2811  149.2924 H   0  0  0  0  0  0  0  0  0  0  0  0
  143.6922  133.0847  151.0100 H   0  0  0  0  0  0  0  0  0  0  0  0
  145.3474  132.9602  150.4151 H   0  0  0  0  0  0  0  0  0  0  0  0
  145.2716  135.3742  149.7305 H   0  0  0  0  0  0  0  0  0  0  0  0
  143.6379  135.5048  150.3361 H   0  0  0  0  0  0  0  0  0  0  0  0
  144.4154  134.9693  152.6331 H   0  0  0  0  0  0  0  0  0  0  0  0
  146.0576  134.8015  152.0774 H   0  0  0  0  0  0  0  0  0  0  0  0
  144.3762  137.3444  152.0740 H   0  0  0  0  0  0  0  0  0  0  0  0
  147.2441  136.9729  151.0885 H   0  0  0  0  0  0  0  0  0  0  0  0
  145.8704  137.3799  150.0934 H   0  0  0  0  0  0  0  0  0  0  0  0
  147.1680  139.4139  150.6125 H   0  0  0  0  0  0  0  0  0  0  0  0
  145.5553  139.5097  151.2469 H   0  0  0  0  0  0  0  0  0  0  0  0
  147.0270  140.3317  152.9748 H   0  0  0  0  0  0  0  0  0  0  0  0
  148.4998  137.8644  152.5840 H   0  0  0  0  0  0  0  0  0  0  0  0
  148.0606  138.5955  155.0378 H   0  0  0  0  0  0  0  0  0  0  0  0
  149.5552  137.8544  154.4891 H   0  0  0  0  0  0  0  0  0  0  0  0
  149.9167  140.5779  153.8608 H   0  0  0  0  0  0  0  0  0  0  0  0
  149.0601  140.6332  155.3852 H   0  0  0  0  0  0  0  0  0  0  0  0
  152.6448  138.7283  157.9332 H   0  0  0  0  0  0  0  0  0  0  0  0
  146.5277  138.7347  154.8392 H   0  0  0  0  0  0  0  0  0  0  0  0
  145.1547  139.1035  153.8318 H   0  0  0  0  0  0  0  0  0  0  0  0
  145.2061  136.6982  154.3009 H   0  0  0  0  0  0  0  0  0  0  0  0
  146.8341  136.5569  153.6924 H   0  0  0  0  0  0  0  0  0  0  0  0
  149.0487  139.4017  152.4405 H   0  0  0  0  0  0  0  0  0  0  0  0
  1  2  1  0  0  0  0
  1 19  1  0  0  0  0
  1 20  1  0  0  0  0
  1 21  1  0  0  0  0
  2  3  1  0  0  0  0
  2 22  1  0  0  0  0
  2 23  1  0  0  0  0
  3  4  1  0  0  0  0
  3 24  1  0  0  0  0
  3 25  1  0  0  0  0
  4 17  1  0  0  0  0
  4  5  1  0  0  0  0
  4 26  1  0  0  0  0
  5  6  1  0  0  0  0
  5 27  1  0  0  0  0
  5 28  1  0  0  0  0
  6  7  1  0  0  0  0
  6 29  1  0  0  0  0
  6 30  1  0  0  0  0
  7  8  1  0  0  0  0
  7 16  1  0  0  0  0
  7 31  1  0  0  0  0
  8  9  1  0  0  0  0
  8 32  1  0  0  0  0
  8 42  1  0  0  0  0
  9 10  1  0  0  0  0
  9 33  1  0  0  0  0
  9 34  1  0  0  0  0
 10 11  1  0  0  0  0
 10 35  1  0  0  0  0
 10 36  1  0  0  0  0
 11 15  1  0  0  0  0
 11 12  2  0  0  0  0
 12 13  1  0  0  0  0
 13 14  2  0  0  0  0
 14 15  1  0  0  0  0
 14 37  1  0  0  0  0
 15 18  1  0  0  0  0
 16 17  1  0  0  0  0
 16 38  1  0  0  0  0
 16 39  1  0  0  0  0
 17 40  1  0  0  0  0
 17 41  1  0  0  0  0
M  CHG  1   8   1
M  END
> <s_m_source_file>
AV-unprocessed.smi

> <i_m_source_file_index>
3025

> <i_lp_mmshare_version>
43012

> <i_f3d_flags>
0

> <s_epik_input>
W0NIM11bQ0gyXVtDSDJdW0NAQEhdMVtDSDJdW0NIMl1bQ0BIXShbQ0gyXVtDSDJdMSlbTkhdW0NIMl1bQ0gyXWMybm5bY0hdW25IXTI=

> <s_epik_cmdline>
J2VwaWtfcHl0aG9uJywgJy1waCcsICc3LjAnLCAnLXRuJywgJzgnLCAnLW1hJywgJzIwMCcsICctbWV0YWxfYmluZGluZycsICctaW1hZScsICc8aW5maWxlLm1hZT4nLCAnLW9tYWUnLCAnPG91dGZpbGUubWFlPic=

> <r_lp_tautomer_probability>
0.0517155

> <r_epik_Ionization_Penalty>
0.0349397

> <r_epik_Ionization_Penalty_Charging>
0.000546397

> <r_epik_Ionization_Penalty_Neutral>
0.0343933

> <r_epik_State_Penalty>
2.24019

> <r_epik_Charging_Adjusted_Penalty>
2.24074

> <i_epik_Tot_Q>
1

> <i_epik_Tot_abs_Q>
1

> <r_epik_Metal_State_Penalty>
2.47389

> <b_epik_Metal_Only>
0

> <s_lp_Force_Field>
OPLS_2005

> <r_lp_Energy>
17.8014

> <b_lp_Chiralities_Consistent>
1

> <s_lp_Variant>
AV-unprocessed.smi:3025-6

> <Gold.Version>
5.8.1

> <Gold.Id.Protein>
6NUR|6NUR_protein|mol2

> <Gold.PLP.Fitness>
42.5963

> <Gold.PLP.PLP>
-29.9252

> <Gold.PLP.part.hbond>
-3.6235

> <Gold.PLP.part.metal>
0.0000

> <Gold.PLP.part.buried>
2.3896

> <Gold.PLP.part.nonpolar>
-28.9950

> <Gold.PLP.part.repulsive>
0.1504

> <Gold.PLP.ligand.clash>
0.0000

> <Gold.PLP.ligand.torsion>
0.7686

> <Gold.PLP.Chemscore.Hbond>
4.6912

> <Gold.PLP.Chemscore.CHOScore>
0.0000

> <Gold.PLP.Chemscore.Metal>
0.0000

> <Gold.Chemscore.Hbonds>
donor molecule, donor type, donor heavy atom, donor atom, acceptor molecule, acceptor atom, score
      L1  H     8    32       P1  7948  2.00
      L1  H     8    42       P1  7957  0.99
      P1  H  7989  7998       L1    12  0.69
      P1  H  7997  8009       L1    13  1.00

> <Gold.PLP.Chemscore.Internal.Correction>
0.1347

> <Gold.Rescore>
     Score         DG    S(hbond)    S(metal)    S(lipo)     H(rot)  DE(clash)    DE(int)     intcor
     16.42     -19.39       3.61        0.00      71.74       2.56       2.20       0.76       ----

> <Gold.Chemscore.Fitness>
16.4241

> <Gold.Chemscore.DG>
-19.3850

> <Gold.Chemscore.ZeroCoef>
-5.4800

> <Gold.Chemscore.Hbond>
3.6126

> <Gold.Chemscore.Metal>
0.0000

> <Gold.Chemscore.Lipo>
71.7379

> <Gold.Chemscore.Internal_Hbond>
0.0000

> <Gold.Chemscore.DEClash>
2.1968

> <Gold.Chemscore.DEInternal>
0.7641

> <Gold.Chemscore.Rot>
2.5602

> <Gold.Chemscore.Internal.Correction>
   9.000000E+99

> <Gold.Chemscore.Hbonds>
donor molecule, donor type, donor heavy atom, donor atom, acceptor molecule, acceptor atom, score
      L1  H     8    32       P1  7948  1.00
      L1  H     8    42       P1  7957  0.90
      P1  H  7989  7998       L1    12  0.14
      P1  H  7997  8009       L1    13  0.71

> <Gold.Chemscore.Hbond.Weighted>
-12.0659

> <Gold.Chemscore.Metal.Weighted>
-0.0000

> <Gold.Chemscore.Lipo.Weighted>
-8.3933

> <Gold.Chemscore.Internal_Hbond.Weighted>
0.0000

> <Gold.Chemscore.DEClash.Weighted>
2.1968

> <Gold.Chemscore.DEInternal.Weighted>
0.7641

> <Gold.Chemscore.Rot.Weighted>
6.5542

> <Gold.Chemscore.Internal.Correction.Weighted>
   9.000000E+99

> <Gold.Protein.RotatedTorsions>
[ 6907 6896 6895 6894 ] final  113.60 input  -60.11 | X-H torsion
[ 7974 7965 7964 7962 ] final -129.99 input  175.53 | X-H torsion
[ 8008 7997 7996 7995 ] final -175.43 input   59.86 | X-H torsion
[ 10167 10162 10161 10158 ] final  -35.91 input  -65.29 | X-H torsion
[ 10718 10713 10712 10709 ] final -154.71 input   66.30 | X-H torsion
[ 10763 10752 10751 10750 ] final   77.22 input  -60.55 | X-H torsion
[ 11005 11000 10999 10996 ] final -179.43 input  -57.11 | X-H torsion

> <Gold.Protein.ActiveResidues>
 VAL166  LYS551  ARG553  GLY616  TRP617  ASP618  TYR619  PRO620  LYS621  CYS622 
 ASP623  PHE694  ASN695  SER759  ASP760  ASP761  ALA762  ILE779  LEU786  VAL792 
 PHE793  MET794  SER795  GLU796  ALA797  LYS798  CYS799  TRP800  GLU811  SER814 

> <Gold.Protein.RotatedAtoms>
  152.4851  133.8353  159.7123 H   0  0  0  0  0  0  0  0  0  0  0  0  # atno 6907 bound_to 6896
  150.8931  133.7207  159.2905 H   0  0  0  0  0  0  0  0  0  0  0  0  # atno 6908 bound_to 6896
  151.4673  135.1047  159.9794 H   0  0  0  0  0  0  0  0  0  0  0  0  # atno 6909 bound_to 6896
  144.9518  140.7353  143.4783 H   0  0  0  0  0  0  0  0  0  0  0  0  # atno 7974 bound_to 7965
  155.9824  140.1184  157.0714 H   0  0  0  0  0  0  0  0  0  0  0  0  # atno 8008 bound_to 7997
  154.4187  140.1142  156.5522 H   0  0  0  0  0  0  0  0  0  0  0  0  # atno 8009 bound_to 7997
  155.6452  140.3473  155.4731 H   0  0  0  0  0  0  0  0  0  0  0  0  # atno 8010 bound_to 7997
  140.7154  143.3445  151.2286 H   0  0  0  0  0  0  0  0  0  0  0  0  # atno 10167 bound_to 10162
  156.5029  130.8400  151.2616 H   0  0  0  0  0  0  0  0  0  0  0  0  # atno 10718 bound_to 10713
  153.0783  135.4922  154.8450 H   0  0  0  0  0  0  0  0  0  0  0  0  # atno 10763 bound_to 10752
  154.7117  135.3021  154.9190 H   0  0  0  0  0  0  0  0  0  0  0  0  # atno 10764 bound_to 10752
  153.9881  135.6781  153.4806 H   0  0  0  0  0  0  0  0  0  0  0  0  # atno 10765 bound_to 10752
  140.4188  134.6625  157.4653 H   0  0  0  0  0  0  0  0  0  0  0  0  # atno 11005 bound_to 11000
  145.2832  139.1910  143.4779 LP  0  0  0  0  0  0  0  0  0  0  0  0  # atno 17320 bound_to 7965
  146.3323  140.2798  142.8610 LP  0  0  0  0  0  0  0  0  0  0  0  0  # atno 17321 bound_to 7965
  139.6960  143.9611  152.2883 LP  0  0  0  0  0  0  0  0  0  0  0  0  # atno 17342 bound_to 10162
  139.9289  144.6754  150.8384 LP  0  0  0  0  0  0  0  0  0  0  0  0  # atno 17343 bound_to 10162
  157.7460  130.9975  150.2820 LP  0  0  0  0  0  0  0  0  0  0  0  0  # atno 17370 bound_to 10713
  156.3315  130.3801  149.7487 LP  0  0  0  0  0  0  0  0  0  0  0  0  # atno 17371 bound_to 10713
  140.0215  134.6540  155.9233 LP  0  0  0  0  0  0  0  0  0  0  0  0  # atno 17394 bound_to 11000
  141.1792  133.6544  156.4952 LP  0  0  0  0  0  0  0  0  0  0  0  0  # atno 17395 bound_to 11000

$$$$
