AV-unprocessed.smi:183|AV-procd|sdf|1459|dock8
  -GOLD-   2262019263D 1   1.00000     0.00000
 Structure written by MMmdl.
 55 57  0  0  0  0  0  0  0  0  1 V2000
  147.6358  135.0127  162.2069 C   0  0  0  0  0  0  0  0  0  0  0  0
  147.6823  135.8195  160.9141 C   0  0  0  0  0  0  0  0  0  0  0  0
  147.7262  137.0488  160.9538 O   0  0  0  0  0  0  0  0  0  0  0  0
  147.6733  135.1135  159.7736 N   0  0  0  0  0  0  0  0  0  0  0  0
  147.7066  135.6896  158.4362 C   0  0  0  0  0  0  0  0  0  0  0  0
  149.1318  136.1378  158.0555 C   0  0  0  0  0  0  0  0  0  0  0  0
  149.2927  136.4280  156.6278 N   0  0  0  0  0  0  0  0  0  0  0  0
  149.0744  135.3245  155.8710 C   0  0  0  0  0  0  0  0  0  0  0  0
  150.1519  134.5547  155.5759 N   0  0  0  0  0  0  0  0  0  0  0  0
  150.0075  133.4593  154.8243 C   0  0  0  0  0  0  0  0  0  0  0  0
  148.8977  132.9665  154.2711 N   0  0  0  0  0  0  0  0  0  0  0  0
  147.8138  133.7432  154.5572 C   0  0  0  0  0  0  0  0  0  0  0  0
  147.8114  134.9309  155.3415 C   0  0  0  0  0  0  0  0  0  0  0  0
  146.5252  135.4554  155.3996 N   0  0  0  0  0  0  0  0  0  0  0  0
  145.8091  134.6242  154.6938 C   0  0  0  0  0  0  0  0  0  0  0  0
  146.5012  133.5619  154.1582 N   0  0  0  0  0  0  0  0  0  0  0  0
  145.9564  132.4908  153.3390 C   0  0  0  0  0  0  0  0  0  0  0  0
  146.1987  132.6917  151.8242 C   0  0  1  0  0  0  0  0  0  0  0  0
  147.5679  133.0034  151.6218 O   0  0  0  0  0  0  0  0  0  0  0  0
  145.8539  131.4765  150.9750 C   0  0  0  0  0  0  0  0  0  0  0  0
  145.5794  132.0947  149.6104 C   0  0  0  0  0  0  0  0  0  0  0  0
  144.9310  133.3254  149.9002 O   0  0  0  0  0  0  0  0  0  0  0  0
  145.2888  133.7775  151.2058 C   0  0  2  0  0  0  0  0  0  0  0  0
  145.8586  135.2041  151.1514 C   0  0  0  0  0  0  0  0  0  0  0  0
  150.3279  137.3749  156.1779 C   0  0  0  0  0  0  0  0  0  0  0  0
  150.3848  138.6281  157.0721 C   0  0  0  0  0  0  0  0  0  0  0  0
  150.1245  137.8201  154.7132 C   0  0  0  0  0  0  0  0  0  0  0  0
  148.5742  134.4770  162.3523 H   0  0  0  0  0  0  0  0  0  0  0  0
  146.8229  134.2866  162.1771 H   0  0  0  0  0  0  0  0  0  0  0  0
  147.4774  135.6653  163.0659 H   0  0  0  0  0  0  0  0  0  0  0  0
  147.6364  134.1065  159.8371 H   0  0  0  0  0  0  0  0  0  0  0  0
  147.3459  134.9330  157.7400 H   0  0  0  0  0  0  0  0  0  0  0  0
  147.0056  136.5231  158.3798 H   0  0  0  0  0  0  0  0  0  0  0  0
  149.4020  137.0205  158.6376 H   0  0  0  0  0  0  0  0  0  0  0  0
  149.8529  135.3751  158.3479 H   0  0  0  0  0  0  0  0  0  0  0  0
  150.9113  132.8986  154.6377 H   0  0  0  0  0  0  0  0  0  0  0  0
  144.7480  134.7624  154.5466 H   0  0  0  0  0  0  0  0  0  0  0  0
  146.4045  131.5539  153.6728 H   0  0  0  0  0  0  0  0  0  0  0  0
  144.8881  132.4062  153.5426 H   0  0  0  0  0  0  0  0  0  0  0  0
  147.9847  132.2647  151.2056 H   0  0  0  0  0  0  0  0  0  0  0  0
  146.6375  130.7179  150.9521 H   0  0  0  0  0  0  0  0  0  0  0  0
  144.9419  131.0056  151.3442 H   0  0  0  0  0  0  0  0  0  0  0  0
  146.5136  132.2998  149.0858 H   0  0  0  0  0  0  0  0  0  0  0  0
  144.9648  131.4574  148.9745 H   0  0  0  0  0  0  0  0  0  0  0  0
  144.3533  133.8091  151.7661 H   0  0  0  0  0  0  0  0  0  0  0  0
  146.1488  135.5481  152.1442 H   0  0  0  0  0  0  0  0  0  0  0  0
  145.1156  135.9008  150.7630 H   0  0  0  0  0  0  0  0  0  0  0  0
  146.7328  135.2645  150.5030 H   0  0  0  0  0  0  0  0  0  0  0  0
  151.2971  136.8814  156.2481 H   0  0  0  0  0  0  0  0  0  0  0  0
  151.1177  139.3432  156.6977 H   0  0  0  0  0  0  0  0  0  0  0  0
  150.6792  138.3864  158.0933 H   0  0  0  0  0  0  0  0  0  0  0  0
  149.4192  139.1335  157.1097 H   0  0  0  0  0  0  0  0  0  0  0  0
  150.8789  138.5504  154.4192 H   0  0  0  0  0  0  0  0  0  0  0  0
  149.1469  138.2829  154.5743 H   0  0  0  0  0  0  0  0  0  0  0  0
  150.2032  136.9921  154.0095 H   0  0  0  0  0  0  0  0  0  0  0  0
  1  2  1  0  0  0  0
  1 28  1  0  0  0  0
  1 29  1  0  0  0  0
  1 30  1  0  0  0  0
  2  3  2  0  0  0  0
  2  4  1  0  0  0  0
  4  5  1  0  0  0  0
  4 31  1  0  0  0  0
  5  6  1  0  0  0  0
  5 32  1  0  0  0  0
  5 33  1  0  0  0  0
  6  7  1  0  0  0  0
  6 34  1  0  0  0  0
  6 35  1  0  0  0  0
  7  8  1  0  0  0  0
  7 25  1  0  0  0  0
  8 13  1  0  0  0  0
  8  9  2  0  0  0  0
  9 10  1  0  0  0  0
 10 11  2  0  0  0  0
 10 36  1  0  0  0  0
 11 12  1  0  0  0  0
 12 16  1  0  0  0  0
 12 13  2  0  0  0  0
 13 14  1  0  0  0  0
 14 15  2  0  0  0  0
 15 16  1  0  0  0  0
 15 37  1  0  0  0  0
 16 17  1  0  0  0  0
 17 18  1  0  0  0  0
 17 38  1  0  0  0  0
 17 39  1  0  0  0  0
 18 23  1  0  0  0  0
 18 19  1  0  0  0  0
 18 20  1  0  0  0  0
 19 40  1  0  0  0  0
 20 21  1  0  0  0  0
 20 41  1  0  0  0  0
 20 42  1  0  0  0  0
 21 22  1  0  0  0  0
 21 43  1  0  0  0  0
 21 44  1  0  0  0  0
 22 23  1  0  0  0  0
 23 24  1  0  0  0  0
 23 45  1  0  0  0  0
 24 46  1  0  0  0  0
 24 47  1  0  0  0  0
 24 48  1  0  0  0  0
 25 26  1  0  0  0  0
 25 27  1  0  0  0  0
 25 49  1  0  0  0  0
 26 50  1  0  0  0  0
 26 51  1  0  0  0  0
 26 52  1  0  0  0  0
 27 53  1  0  0  0  0
 27 54  1  0  0  0  0
 27 55  1  0  0  0  0
M  END
> <s_m_source_file>
AV-unprocessed.smi

> <i_m_source_file_index>
183

> <i_lp_mmshare_version>
43012

> <i_f3d_flags>
0

> <s_epik_input>
W0NIM11DKD1PKVtOSF1bQ0gyXVtDSDJdTihbQ0hdKFtDSDNdKVtDSDNdKWMobltjSF1uMSljKGMxMiluW2NIXW4yW0NIMl1bQ0BAXTMoW09IXSlbQ0gyXVtDSDJdT1tDQEhdM1tDSDNd

> <s_epik_cmdline>
J2VwaWtfcHl0aG9uJywgJy1waCcsICc3LjAnLCAnLXRuJywgJzgnLCAnLW1hJywgJzIwMCcsICctbWV0YWxfYmluZGluZycsICctaW1hZScsICc8aW5maWxlLm1hZT4nLCAnLW9tYWUnLCAnPG91dGZpbGUubWFlPic=

> <r_lp_tautomer_probability>
1

> <r_epik_Ionization_Penalty>
0.00156158

> <r_epik_Ionization_Penalty_Charging>
0

> <r_epik_Ionization_Penalty_Neutral>
0.00156158

> <r_epik_State_Penalty>
0.000865808

> <r_epik_Charging_Adjusted_Penalty>
0.000865808

> <i_epik_Tot_Q>
0

> <i_epik_Tot_abs_Q>
0

> <r_epik_Metal_State_Penalty>
-0

> <b_epik_Metal_Only>
0

> <s_lp_Force_Field>
OPLS_2005

> <r_lp_Energy>
29.9876

> <b_lp_Chiralities_Consistent>
1

> <s_lp_Variant>
AV-unprocessed.smi:183-3

> <Gold.Version>
5.8.1

> <Gold.Id.Protein>
6NUR|6NUR_protein|mol2

> <Gold.PLP.Fitness>
40.3751

> <Gold.PLP.PLP>
-33.3318

> <Gold.PLP.part.hbond>
-3.0000

> <Gold.PLP.part.metal>
0.0000

> <Gold.PLP.part.buried>
-7.5593

> <Gold.PLP.part.nonpolar>
-23.3601

> <Gold.PLP.part.repulsive>
1.4272

> <Gold.PLP.ligand.clash>
0.0000

> <Gold.PLP.ligand.torsion>
1.2614

> <Gold.PLP.Chemscore.Hbond>
2.8400

> <Gold.PLP.Chemscore.CHOScore>
0.0000

> <Gold.PLP.Chemscore.Metal>
0.0000

> <Gold.Chemscore.Hbonds>
donor molecule, donor type, donor heavy atom, donor atom, acceptor molecule, acceptor atom, score
      L1  H    19    40       P1 10747  1.00
      P1  H  6931  6943       L1     3  0.94
      P1  H  6934  6947       L1     3  0.86

> <Gold.PLP.Chemscore.Internal.Correction>
1.0461

> <Gold.Rescore>
     Score         DG    S(hbond)    S(metal)    S(lipo)     H(rot)  DE(clash)    DE(int)     intcor
     12.85     -14.09       2.73        0.00      71.13       3.45       0.01       1.23       ----

> <Gold.Chemscore.Fitness>
12.8462

> <Gold.Chemscore.DG>
-14.0866

> <Gold.Chemscore.ZeroCoef>
-5.4800

> <Gold.Chemscore.Hbond>
2.7257

> <Gold.Chemscore.Metal>
0.0000

> <Gold.Chemscore.Lipo>
71.1311

> <Gold.Chemscore.Internal_Hbond>
0.0000

> <Gold.Chemscore.DEClash>
0.0073

> <Gold.Chemscore.DEInternal>
1.2331

> <Gold.Chemscore.Rot>
3.4451

> <Gold.Chemscore.Internal.Correction>
   9.000000E+99

> <Gold.Chemscore.Hbonds>
donor molecule, donor type, donor heavy atom, donor atom, acceptor molecule, acceptor atom, score
      L1  H    19    40       P1 10747  0.99
      P1  H  6931  6943       L1     3  0.87
      P1  H  6934  6947       L1     3  0.80

> <Gold.Chemscore.Hbond.Weighted>
-9.1037

> <Gold.Chemscore.Metal.Weighted>
-0.0000

> <Gold.Chemscore.Lipo.Weighted>
-8.3223

> <Gold.Chemscore.Internal_Hbond.Weighted>
0.0000

> <Gold.Chemscore.DEClash.Weighted>
0.0073

> <Gold.Chemscore.DEInternal.Weighted>
1.2331

> <Gold.Chemscore.Rot.Weighted>
8.8194

> <Gold.Chemscore.Internal.Correction.Weighted>
   9.000000E+99

> <Gold.Protein.RotatedTorsions>
[ 6907 6896 6895 6894 ] final  171.71 input  -60.11 | X-H torsion
[ 7974 7965 7964 7962 ] final  142.45 input  175.53 | X-H torsion
[ 8008 7997 7996 7995 ] final  -79.04 input   59.86 | X-H torsion
[ 10167 10162 10161 10158 ] final  174.61 input  -65.29 | X-H torsion
[ 10718 10713 10712 10709 ] final  107.81 input   66.30 | X-H torsion
[ 10763 10752 10751 10750 ] final  -67.78 input  -60.55 | X-H torsion
[ 11005 11000 10999 10996 ] final -104.93 input  -57.11 | X-H torsion

> <Gold.Protein.ActiveResidues>
 VAL166  LYS551  ARG553  GLY616  TRP617  ASP618  TYR619  PRO620  LYS621  CYS622 
 ASP623  PHE694  ASN695  SER759  ASP760  ASP761  ALA762  ILE779  LEU786  VAL792 
 PHE793  MET794  SER795  GLU796  ALA797  LYS798  CYS799  TRP800  GLU811  SER814 

> <Gold.Protein.RotatedAtoms>
  151.7959  133.3364  159.3512 H   0  0  0  0  0  0  0  0  0  0  0  0  # atno 6907 bound_to 6896
  150.7375  134.5799  159.5943 H   0  0  0  0  0  0  0  0  0  0  0  0  # atno 6908 bound_to 6896
  152.3177  134.7420  160.0372 H   0  0  0  0  0  0  0  0  0  0  0  0  # atno 6909 bound_to 6896
  144.9007  139.5427  143.5755 H   0  0  0  0  0  0  0  0  0  0  0  0  # atno 7974 bound_to 7965
  154.5746  140.0685  156.9016 H   0  0  0  0  0  0  0  0  0  0  0  0  # atno 8008 bound_to 7997
  155.2571  140.3356  155.4258 H   0  0  0  0  0  0  0  0  0  0  0  0  # atno 8009 bound_to 7997
  156.2144  140.1772  156.7606 H   0  0  0  0  0  0  0  0  0  0  0  0  # atno 8010 bound_to 7997
  139.5148  144.3127  152.0277 H   0  0  0  0  0  0  0  0  0  0  0  0  # atno 10167 bound_to 10162
  157.6613  131.0880  150.6212 H   0  0  0  0  0  0  0  0  0  0  0  0  # atno 10718 bound_to 10713
  154.3795  135.6077  153.5783 H   0  0  0  0  0  0  0  0  0  0  0  0  # atno 10763 bound_to 10752
  152.9788  135.5857  154.4427 H   0  0  0  0  0  0  0  0  0  0  0  0  # atno 10764 bound_to 10752
  154.4194  135.2845  155.1963 H   0  0  0  0  0  0  0  0  0  0  0  0  # atno 10765 bound_to 10752
  141.1077  133.8765  157.1672 H   0  0  0  0  0  0  0  0  0  0  0  0  # atno 11005 bound_to 11000
  146.3106  139.7734  142.9022 LP  0  0  0  0  0  0  0  0  0  0  0  0  # atno 17320 bound_to 7965
  145.3622  141.0328  143.3278 LP  0  0  0  0  0  0  0  0  0  0  0  0  # atno 17321 bound_to 7965
  140.2571  144.4107  150.6200 LP  0  0  0  0  0  0  0  0  0  0  0  0  # atno 17342 bound_to 10162
  140.6184  143.2174  151.6745 LP  0  0  0  0  0  0  0  0  0  0  0  0  # atno 17343 bound_to 10162
  156.6515  130.4486  149.5718 LP  0  0  0  0  0  0  0  0  0  0  0  0  # atno 17370 bound_to 10713
  156.2134  130.6693  151.1293 LP  0  0  0  0  0  0  0  0  0  0  0  0  # atno 17371 bound_to 10713
  139.9955  135.0048  157.0073 LP  0  0  0  0  0  0  0  0  0  0  0  0  # atno 17394 bound_to 11000
  140.4858  134.1243  155.7224 LP  0  0  0  0  0  0  0  0  0  0  0  0  # atno 17395 bound_to 11000

$$$$
