AV-unprocessed.smi:1824|AV-procd|sdf|7396|dock3
  -GOLD-   22720 9 63D 1   1.00000     0.00000
 Structure written by MMmdl.
 44 46  0  0  0  0  0  0  0  0  1 V2000
  144.2854  144.0768  154.5280 C   0  0  0  0  0  0  0  0  0  0  0  0
  145.4694  143.4994  155.3103 C   0  0  2  0  0  0  0  0  0  0  0  0
  146.3207  142.5402  154.4566 C   0  0  0  0  0  0  0  0  0  0  0  0
  147.3992  141.9346  155.2284 N   0  0  0  0  0  0  0  0  0  0  0  0
  148.2102  141.0454  154.3951 C   0  0  0  0  0  0  0  0  0  0  0  0
  149.5289  140.5678  155.0344 C   0  0  1  0  0  0  0  0  0  0  0  0
  150.4028  140.1669  153.9987 O   0  0  0  0  0  0  0  0  0  0  0  0
  150.2135  141.6631  155.8759 C   0  0  0  0  0  0  0  0  0  0  0  0
  151.1787  141.1129  156.8084 N   0  0  0  0  0  0  0  0  0  0  0  0
  151.8944  139.9797  156.6751 C   0  0  0  0  0  0  0  0  0  0  0  0
  152.7265  139.6670  157.6647 N   0  0  0  0  0  0  0  0  0  0  0  0
  152.5317  140.7223  158.5396 C   0  0  0  0  0  0  0  0  0  0  0  0
  153.1205  140.9964  159.7948 C   0  0  0  0  0  0  0  0  0  0  0  0
  152.7599  142.1537  160.5165 C   0  0  0  0  0  0  0  0  0  0  0  0
  153.3341  142.4014  161.7175 F   0  0  0  0  0  0  0  0  0  0  0  0
  151.8061  143.0533  159.9949 C   0  0  0  0  0  0  0  0  0  0  0  0
  151.4651  144.1616  160.6941 F   0  0  0  0  0  0  0  0  0  0  0  0
  151.2062  142.8013  158.7464 C   0  0  0  0  0  0  0  0  0  0  0  0
  151.5694  141.6454  158.0313 C   0  0  0  0  0  0  0  0  0  0  0  0
  146.8278  141.2592  156.3910 C   0  0  0  0  0  0  0  0  0  0  0  0
  145.9780  142.2149  157.2494 C   0  0  2  0  0  0  0  0  0  0  0  0
  145.3108  141.4971  158.4269 C   0  0  0  0  0  0  0  0  0  0  0  0
  144.9592  142.7910  156.4368 O   0  0  0  0  0  0  0  0  0  0  0  0
  144.6263  144.6392  153.6584 H   0  0  0  0  0  0  0  0  0  0  0  0
  143.6991  144.7520  155.1516 H   0  0  0  0  0  0  0  0  0  0  0  0
  143.6213  143.2865  154.1766 H   0  0  0  0  0  0  0  0  0  0  0  0
  146.0913  144.3237  155.6635 H   0  0  0  0  0  0  0  0  0  0  0  0
  145.6819  141.7592  154.0406 H   0  0  0  0  0  0  0  0  0  0  0  0
  146.7362  143.0862  153.6089 H   0  0  0  0  0  0  0  0  0  0  0  0
  147.6130  140.1782  154.1085 H   0  0  0  0  0  0  0  0  0  0  0  0
  148.4556  141.5583  153.4639 H   0  0  0  0  0  0  0  0  0  0  0  0
  149.3487  139.6860  155.6485 H   0  0  0  0  0  0  0  0  0  0  0  0
  149.8984  140.0556  153.2074 H   0  0  0  0  0  0  0  0  0  0  0  0
  150.7114  142.3911  155.2337 H   0  0  0  0  0  0  0  0  0  0  0  0
  149.4735  142.2159  156.4559 H   0  0  0  0  0  0  0  0  0  0  0  0
  151.7964  139.3478  155.8044 H   0  0  0  0  0  0  0  0  0  0  0  0
  153.8516  140.3151  160.2039 H   0  0  0  0  0  0  0  0  0  0  0  0
  150.4763  143.4877  158.3435 H   0  0  0  0  0  0  0  0  0  0  0  0
  146.2151  140.4173  156.0649 H   0  0  0  0  0  0  0  0  0  0  0  0
  147.6179  140.8475  157.0171 H   0  0  0  0  0  0  0  0  0  0  0  0
  146.6117  143.0129  157.6403 H   0  0  0  0  0  0  0  0  0  0  0  0
  146.0550  141.0448  159.0831 H   0  0  0  0  0  0  0  0  0  0  0  0
  144.6440  140.7066  158.0812 H   0  0  0  0  0  0  0  0  0  0  0  0
  144.7210  142.1932  159.0239 H   0  0  0  0  0  0  0  0  0  0  0  0
  1  2  1  0  0  0  0
  1 24  1  0  0  0  0
  1 25  1  0  0  0  0
  1 26  1  0  0  0  0
  2 23  1  0  0  0  0
  2  3  1  0  0  0  0
  2 27  1  0  0  0  0
  3  4  1  0  0  0  0
  3 28  1  0  0  0  0
  3 29  1  0  0  0  0
  4  5  1  0  0  0  0
  4 20  1  0  0  0  0
  5  6  1  0  0  0  0
  5 30  1  0  0  0  0
  5 31  1  0  0  0  0
  6  7  1  0  0  0  0
  6  8  1  0  0  0  0
  6 32  1  0  0  0  0
  7 33  1  0  0  0  0
  8  9  1  0  0  0  0
  8 34  1  0  0  0  0
  8 35  1  0  0  0  0
  9 19  1  0  0  0  0
  9 10  1  0  0  0  0
 10 11  2  0  0  0  0
 10 36  1  0  0  0  0
 11 12  1  0  0  0  0
 12 19  2  0  0  0  0
 12 13  1  0  0  0  0
 13 14  2  0  0  0  0
 13 37  1  0  0  0  0
 14 15  1  0  0  0  0
 14 16  1  0  0  0  0
 16 17  1  0  0  0  0
 16 18  2  0  0  0  0
 18 19  1  0  0  0  0
 18 38  1  0  0  0  0
 20 21  1  0  0  0  0
 20 39  1  0  0  0  0
 20 40  1  0  0  0  0
 21 22  1  0  0  0  0
 21 23  1  0  0  0  0
 21 41  1  0  0  0  0
 22 42  1  0  0  0  0
 22 43  1  0  0  0  0
 22 44  1  0  0  0  0
M  END
> <s_m_source_file>
AV-unprocessed.smi

> <i_m_source_file_index>
1824

> <i_lp_mmshare_version>
43012

> <i_f3d_flags>
0

> <s_epik_input>
W0NIM11bQ0BASF0xW0NIMl1OKFtDSDJdW0NASF0oTzEpW0NIM10pW0NIMl1bQ0BIXShbT0hdKVtDSDJdbihbY0hdbjIpYyhjMjMpW2NIXWMoRiljKEYpW2NIXTM=

> <s_epik_cmdline>
J2VwaWtfcHl0aG9uJywgJy1waCcsICc3LjAnLCAnLXRuJywgJzgnLCAnLW1hJywgJzIwMCcsICctbWV0YWxfYmluZGluZycsICctaW1hZScsICc8aW5maWxlLm1hZT4nLCAnLW9tYWUnLCAnPG91dGZpbGUubWFlPic=

> <r_epik_Ionization_Penalty>
0.273778

> <r_epik_Ionization_Penalty_Charging>
0

> <r_epik_Ionization_Penalty_Neutral>
0.273778

> <r_epik_State_Penalty>
0.246794

> <r_epik_Charging_Adjusted_Penalty>
0.246794

> <i_epik_Tot_Q>
0

> <i_epik_Tot_abs_Q>
0

> <r_epik_Metal_State_Penalty>
0.238234

> <b_epik_Metal_Only>
0

> <s_lp_Force_Field>
OPLS_2005

> <r_lp_Energy>
23.1411

> <b_lp_Chiralities_Consistent>
1

> <s_lp_Variant>
AV-unprocessed.smi:1824-4

> <Gold.Version>
5.8.1

> <Gold.Id.Protein>
6NUR|6NUR_protein|mol2

> <Gold.PLP.Fitness>
53.3384

> <Gold.PLP.PLP>
-46.0207

> <Gold.PLP.part.hbond>
-2.6978

> <Gold.PLP.part.metal>
0.0000

> <Gold.PLP.part.buried>
-7.1045

> <Gold.PLP.part.nonpolar>
-37.3174

> <Gold.PLP.part.repulsive>
0.2134

> <Gold.PLP.ligand.clash>
0.0000

> <Gold.PLP.ligand.torsion>
0.8131

> <Gold.PLP.Chemscore.Hbond>
2.9440

> <Gold.PLP.Chemscore.CHOScore>
0.0000

> <Gold.PLP.Chemscore.Metal>
0.0000

> <Gold.Chemscore.Hbonds>
donor molecule, donor type, donor heavy atom, donor atom, acceptor molecule, acceptor atom, score
      L1  H     7    33       P1  7957  0.91
      P1  H  7989  7998       L1     7  0.90
      P1  H  7997  8009       L1    11  1.00

> <Gold.PLP.Chemscore.Internal.Correction>
0.1119

> <Gold.Rescore>
     Score         DG    S(hbond)    S(metal)    S(lipo)     H(rot)  DE(clash)    DE(int)     intcor
     16.36     -17.27       1.96        0.00      94.19       2.26       0.03       0.89       ----

> <Gold.Chemscore.Fitness>
16.3551

> <Gold.Chemscore.DG>
-17.2663

> <Gold.Chemscore.ZeroCoef>
-5.4800

> <Gold.Chemscore.Hbond>
1.9629

> <Gold.Chemscore.Metal>
0.0000

> <Gold.Chemscore.Lipo>
94.1930

> <Gold.Chemscore.Internal_Hbond>
0.0000

> <Gold.Chemscore.DEClash>
0.0252

> <Gold.Chemscore.DEInternal>
0.8860

> <Gold.Chemscore.Rot>
2.2619

> <Gold.Chemscore.Internal.Correction>
   9.000000E+99

> <Gold.Chemscore.Hbonds>
donor molecule, donor type, donor heavy atom, donor atom, acceptor molecule, acceptor atom, score
      L1  H     7    33       P1  7957  0.86
      P1  H  7989  7998       L1     7  0.25
      P1  H  7997  8009       L1    11  0.17

> <Gold.Chemscore.Hbond.Weighted>
-6.5562

> <Gold.Chemscore.Metal.Weighted>
-0.0000

> <Gold.Chemscore.Lipo.Weighted>
-11.0206

> <Gold.Chemscore.Internal_Hbond.Weighted>
0.0000

> <Gold.Chemscore.DEClash.Weighted>
0.0252

> <Gold.Chemscore.DEInternal.Weighted>
0.8860

> <Gold.Chemscore.Rot.Weighted>
5.7904

> <Gold.Chemscore.Internal.Correction.Weighted>
   9.000000E+99

> <Gold.Protein.RotatedTorsions>
[ 6907 6896 6895 6894 ] final   50.28 input  -60.11 | X-H torsion
[ 7974 7965 7964 7962 ] final  133.87 input  175.53 | X-H torsion
[ 8008 7997 7996 7995 ] final  153.98 input   59.86 | X-H torsion
[ 10167 10162 10161 10158 ] final   98.22 input  -65.29 | X-H torsion
[ 10718 10713 10712 10709 ] final  144.12 input   66.30 | X-H torsion
[ 10763 10752 10751 10750 ] final -114.02 input  -60.55 | X-H torsion
[ 11005 11000 10999 10996 ] final   94.33 input  -57.11 | X-H torsion

> <Gold.Protein.ActiveResidues>
 VAL166  LYS551  ARG553  GLY616  TRP617  ASP618  TYR619  PRO620  LYS621  CYS622 
 ASP623  PHE694  ASN695  SER759  ASP760  ASP761  ALA762  ILE779  LEU786  VAL792 
 PHE793  MET794  SER795  GLU796  ALA797  LYS798  CYS799  TRP800  GLU811  SER814 

> <Gold.Protein.RotatedAtoms>
  152.3001  134.7621  160.0359 H   0  0  0  0  0  0  0  0  0  0  0  0  # atno 6907 bound_to 6896
  151.8137  133.3380  159.3571 H   0  0  0  0  0  0  0  0  0  0  0  0  # atno 6908 bound_to 6896
  150.7270  134.5569  159.5867 H   0  0  0  0  0  0  0  0  0  0  0  0  # atno 6909 bound_to 6896
  144.9821  139.4493  143.5381 H   0  0  0  0  0  0  0  0  0  0  0  0  # atno 7974 bound_to 7965
  156.2554  140.1979  156.6575 H   0  0  0  0  0  0  0  0  0  0  0  0  # atno 8008 bound_to 7997
  154.6490  140.0574  156.9958 H   0  0  0  0  0  0  0  0  0  0  0  0  # atno 8009 bound_to 7997
  155.1447  140.3246  155.4447 H   0  0  0  0  0  0  0  0  0  0  0  0  # atno 8010 bound_to 7997
  139.7729  144.6916  151.0131 H   0  0  0  0  0  0  0  0  0  0  0  0  # atno 10167 bound_to 10162
  157.3609  131.0965  151.0916 H   0  0  0  0  0  0  0  0  0  0  0  0  # atno 10718 bound_to 10713
  154.8422  135.4433  154.1440 H   0  0  0  0  0  0  0  0  0  0  0  0  # atno 10763 bound_to 10752
  153.2618  135.6937  153.7577 H   0  0  0  0  0  0  0  0  0  0  0  0  # atno 10764 bound_to 10752
  153.6851  135.3396  155.3163 H   0  0  0  0  0  0  0  0  0  0  0  0  # atno 10765 bound_to 10752
  139.8800  134.8839  156.3848 H   0  0  0  0  0  0  0  0  0  0  0  0  # atno 11005 bound_to 11000
  146.3411  139.9101  142.8781 LP  0  0  0  0  0  0  0  0  0  0  0  0  # atno 17320 bound_to 7965
  145.2405  141.0007  143.3938 LP  0  0  0  0  0  0  0  0  0  0  0  0  # atno 17321 bound_to 7965
  140.7815  143.4569  151.0333 LP  0  0  0  0  0  0  0  0  0  0  0  0  # atno 17342 bound_to 10162
  139.8252  143.7766  152.3178 LP  0  0  0  0  0  0  0  0  0  0  0  0  # atno 17343 bound_to 10162
  157.2057  130.6415  149.5755 LP  0  0  0  0  0  0  0  0  0  0  0  0  # atno 17370 bound_to 10713
  155.9737  130.4676  150.6332 LP  0  0  0  0  0  0  0  0  0  0  0  0  # atno 17371 bound_to 10713
  140.9373  133.7538  156.0101 LP  0  0  0  0  0  0  0  0  0  0  0  0  # atno 17394 bound_to 11000
  140.8260  134.3234  157.5365 LP  0  0  0  0  0  0  0  0  0  0  0  0  # atno 17395 bound_to 11000

$$$$
