AV-unprocessed.smi:2744|AV-procd|sdf|10569|dock6
  -GOLD-   2272015 23D 1   1.00000     0.00000
 Structure written by MMmdl.
 40 41  0  0  0  0  0  0  0  0  1 V2000
  145.5090  138.0279  155.8216 C   0  0  0  0  0  0  0  0  0  0  0  0
  147.0267  138.2741  155.7992 C   0  0  0  0  0  0  0  0  0  0  0  0
  147.7255  138.0296  154.4363 C   0  0  2  0  0  0  0  0  0  0  0  0
  147.0775  138.8350  153.2943 C   0  0  0  0  0  0  0  0  0  0  0  0
  147.5839  136.6581  154.1171 O   0  0  0  0  0  0  0  0  0  0  0  0
  149.2404  138.3576  154.4935 C   0  0  0  0  0  0  0  0  0  0  0  0
  149.5493  139.6971  154.9709 N   0  0  0  0  0  0  0  0  0  0  0  0
  149.2733  140.8851  154.3307 C   0  0  0  0  0  0  0  0  0  0  0  0
  149.6503  141.9620  154.9648 N   0  0  0  0  0  0  0  0  0  0  0  0
  150.2414  141.4780  156.1247 C   0  0  0  0  0  0  0  0  0  0  0  0
  150.8575  142.0933  157.2451 C   0  0  0  0  0  0  0  0  0  0  0  0
  150.9576  143.4387  157.3316 N   0  0  0  0  0  0  0  0  0  0  0  0
  151.6812  144.0804  158.4258 C   0  0  0  0  0  0  0  0  0  0  0  0
  150.7763  145.0572  159.1950 C   0  0  0  0  0  0  0  0  0  0  0  0
  152.9239  144.7965  157.8811 C   0  0  0  0  0  0  0  0  0  0  0  0
  151.3467  141.2835  158.2209 N   0  0  0  0  0  0  0  0  0  0  0  0
  151.2366  139.9561  158.1082 C   0  0  0  0  0  0  0  0  0  0  0  0
  150.6855  139.2444  157.1221 N   0  0  0  0  0  0  0  0  0  0  0  0
  150.1930  140.0559  156.1425 C   0  0  0  0  0  0  0  0  0  0  0  0
  145.1165  138.1579  156.8303 H   0  0  0  0  0  0  0  0  0  0  0  0
  145.2626  137.0149  155.5026 H   0  0  0  0  0  0  0  0  0  0  0  0
  144.9761  138.7264  155.1769 H   0  0  0  0  0  0  0  0  0  0  0  0
  147.2149  139.2994  156.1200 H   0  0  0  0  0  0  0  0  0  0  0  0
  147.4752  137.6363  156.5614 H   0  0  0  0  0  0  0  0  0  0  0  0
  147.0923  139.9037  153.5100 H   0  0  0  0  0  0  0  0  0  0  0  0
  146.0405  138.5447  153.1250 H   0  0  0  0  0  0  0  0  0  0  0  0
  147.6072  138.6831  152.3532 H   0  0  0  0  0  0  0  0  0  0  0  0
  147.7467  136.5449  153.1931 H   0  0  0  0  0  0  0  0  0  0  0  0
  149.7611  137.6425  155.1321 H   0  0  0  0  0  0  0  0  0  0  0  0
  149.6789  138.2474  153.5008 H   0  0  0  0  0  0  0  0  0  0  0  0
  148.7720  140.9275  153.3746 H   0  0  0  0  0  0  0  0  0  0  0  0
  150.4807  144.0631  156.6970 H   0  0  0  0  0  0  0  0  0  0  0  0
  152.0306  143.3123  159.1168 H   0  0  0  0  0  0  0  0  0  0  0  0
  151.3173  145.5242  160.0183 H   0  0  0  0  0  0  0  0  0  0  0  0
  149.9101  144.5515  159.6219 H   0  0  0  0  0  0  0  0  0  0  0  0
  150.4092  145.8521  158.5449 H   0  0  0  0  0  0  0  0  0  0  0  0
  153.4958  145.2575  158.6870 H   0  0  0  0  0  0  0  0  0  0  0  0
  152.6533  145.5813  157.1735 H   0  0  0  0  0  0  0  0  0  0  0  0
  153.5853  144.0980  157.3675 H   0  0  0  0  0  0  0  0  0  0  0  0
  151.6491  139.3823  158.9248 H   0  0  0  0  0  0  0  0  0  0  0  0
  1  2  1  0  0  0  0
  1 20  1  0  0  0  0
  1 21  1  0  0  0  0
  1 22  1  0  0  0  0
  2  3  1  0  0  0  0
  2 23  1  0  0  0  0
  2 24  1  0  0  0  0
  3  4  1  0  0  0  0
  3  5  1  0  0  0  0
  3  6  1  0  0  0  0
  4 25  1  0  0  0  0
  4 26  1  0  0  0  0
  4 27  1  0  0  0  0
  5 28  1  0  0  0  0
  6  7  1  0  0  0  0
  6 29  1  0  0  0  0
  6 30  1  0  0  0  0
  7 19  1  0  0  0  0
  7  8  1  0  0  0  0
  8  9  2  0  0  0  0
  8 31  1  0  0  0  0
  9 10  1  0  0  0  0
 10 19  2  0  0  0  0
 10 11  1  0  0  0  0
 11 12  1  0  0  0  0
 11 16  2  0  0  0  0
 12 13  1  0  0  0  0
 12 32  1  0  0  0  0
 13 14  1  0  0  0  0
 13 15  1  0  0  0  0
 13 33  1  0  0  0  0
 14 34  1  0  0  0  0
 14 35  1  0  0  0  0
 14 36  1  0  0  0  0
 15 37  1  0  0  0  0
 15 38  1  0  0  0  0
 15 39  1  0  0  0  0
 16 17  1  0  0  0  0
 17 18  2  0  0  0  0
 17 40  1  0  0  0  0
 18 19  1  0  0  0  0
M  END
> <s_m_source_file>
AV-unprocessed.smi

> <i_m_source_file_index>
2744

> <i_lp_mmshare_version>
43012

> <i_f3d_flags>
0

> <s_epik_input>
W0NIM11bQ0gyXVtDQEBdKFtDSDNdKShbT0hdKVtDSDJdbihbY0hdbjEpYyhjMTIpbltjSF1uYzJbTkhdW0NIXShbQ0gzXSlbQ0gzXQ==

> <s_epik_cmdline>
J2VwaWtfcHl0aG9uJywgJy1waCcsICc3LjAnLCAnLXRuJywgJzgnLCAnLW1hJywgJzIwMCcsICctbWV0YWxfYmluZGluZycsICctaW1hZScsICc8aW5maWxlLm1hZT4nLCAnLW9tYWUnLCAnPG91dGZpbGUubWFlPic=

> <r_lp_tautomer_probability>
1

> <r_epik_Ionization_Penalty>
0.00217876

> <r_epik_Ionization_Penalty_Charging>
0

> <r_epik_Ionization_Penalty_Neutral>
0.00217876

> <r_epik_State_Penalty>
-0

> <r_epik_Charging_Adjusted_Penalty>
0

> <i_epik_Tot_Q>
0

> <i_epik_Tot_abs_Q>
0

> <r_epik_Metal_State_Penalty>
-0

> <b_epik_Metal_Only>
0

> <s_lp_Force_Field>
OPLS_2005

> <r_lp_Energy>
9.28896

> <b_lp_Chiralities_Consistent>
1

> <s_lp_Variant>
AV-unprocessed.smi:2744-2

> <Gold.Version>
5.8.1

> <Gold.Id.Protein>
6NUR|6NUR_protein|mol2

> <Gold.PLP.Fitness>
38.5251

> <Gold.PLP.PLP>
-29.8659

> <Gold.PLP.part.hbond>
-2.6173

> <Gold.PLP.part.metal>
0.0000

> <Gold.PLP.part.buried>
-4.0019

> <Gold.PLP.part.nonpolar>
-25.9489

> <Gold.PLP.part.repulsive>
1.6481

> <Gold.PLP.ligand.clash>
0.0000

> <Gold.PLP.ligand.torsion>
0.1378

> <Gold.PLP.Chemscore.Hbond>
2.0000

> <Gold.PLP.Chemscore.CHOScore>
0.9610

> <Gold.PLP.Chemscore.Metal>
0.0000

> <Gold.Chemscore.Hbonds>
donor molecule, donor type, donor heavy atom, donor atom, acceptor molecule, acceptor atom, score
      L1  H     5    28       P1  7948  0.96
      L1  H    12    32       P1  8028  1.00
      L1  C     8    31       P1  7957  0.96

> <Gold.PLP.Chemscore.Internal.Correction>
0.0518

> <Gold.Rescore>
     Score         DG    S(hbond)    S(metal)    S(lipo)     H(rot)  DE(clash)    DE(int)     intcor
     12.48     -13.01       1.99        0.00      59.65       2.38       0.36       0.17       ----

> <Gold.Chemscore.Fitness>
12.4806

> <Gold.Chemscore.DG>
-13.0073

> <Gold.Chemscore.ZeroCoef>
-5.4800

> <Gold.Chemscore.Hbond>
1.9884

> <Gold.Chemscore.Metal>
0.0000

> <Gold.Chemscore.Lipo>
59.6535

> <Gold.Chemscore.Internal_Hbond>
0.0000

> <Gold.Chemscore.DEClash>
0.3613

> <Gold.Chemscore.DEInternal>
0.1654

> <Gold.Chemscore.Rot>
2.3802

> <Gold.Chemscore.Internal.Correction>
   9.000000E+99

> <Gold.Chemscore.Hbonds>
donor molecule, donor type, donor heavy atom, donor atom, acceptor molecule, acceptor atom, score
      L1  H     5    28       P1  7948  0.92
      L1  H    12    32       P1  8028  0.95

> <Gold.Chemscore.Hbond.Weighted>
-6.6412

> <Gold.Chemscore.Metal.Weighted>
-0.0000

> <Gold.Chemscore.Lipo.Weighted>
-6.9795

> <Gold.Chemscore.Internal_Hbond.Weighted>
0.0000

> <Gold.Chemscore.DEClash.Weighted>
0.3613

> <Gold.Chemscore.DEInternal.Weighted>
0.1654

> <Gold.Chemscore.Rot.Weighted>
6.0933

> <Gold.Chemscore.Internal.Correction.Weighted>
   9.000000E+99

> <Gold.Protein.RotatedTorsions>
[ 6907 6896 6895 6894 ] final  103.47 input  -60.11 | X-H torsion
[ 7974 7965 7964 7962 ] final  -51.30 input  175.53 | X-H torsion
[ 8008 7997 7996 7995 ] final  -12.11 input   59.86 | X-H torsion
[ 10167 10162 10161 10158 ] final   18.15 input  -65.29 | X-H torsion
[ 10718 10713 10712 10709 ] final -130.58 input   66.30 | X-H torsion
[ 10763 10752 10751 10750 ] final -152.98 input  -60.55 | X-H torsion
[ 11005 11000 10999 10996 ] final  -86.95 input  -57.11 | X-H torsion

> <Gold.Protein.ActiveResidues>
 VAL166  LYS551  ARG553  GLY616  TRP617  ASP618  TYR619  PRO620  LYS621  CYS622 
 ASP623  PHE694  ASN695  SER759  ASP760  ASP761  ALA762  ILE779  LEU786  VAL792 
 PHE793  MET794  SER795  GLU796  ALA797  LYS798  CYS799  TRP800  GLU811  SER814 

> <Gold.Protein.RotatedAtoms>
  152.5294  133.9821  159.7811 H   0  0  0  0  0  0  0  0  0  0  0  0  # atno 6907 bound_to 6896
  151.0073  133.5991  159.2694 H   0  0  0  0  0  0  0  0  0  0  0  0  # atno 6908 bound_to 6896
  151.3078  135.0792  159.9315 H   0  0  0  0  0  0  0  0  0  0  0  0  # atno 6909 bound_to 6896
  145.9205  140.7838  142.9650 H   0  0  0  0  0  0  0  0  0  0  0  0  # atno 7974 bound_to 7965
  154.5405  140.2284  155.8649 H   0  0  0  0  0  0  0  0  0  0  0  0  # atno 8008 bound_to 7997
  156.1854  140.3090  155.9190 H   0  0  0  0  0  0  0  0  0  0  0  0  # atno 8009 bound_to 7997
  155.3267  140.0443  157.3032 H   0  0  0  0  0  0  0  0  0  0  0  0  # atno 8010 bound_to 7997
  140.5674  143.9225  150.6687 H   0  0  0  0  0  0  0  0  0  0  0  0  # atno 10167 bound_to 10162
  156.2158  130.6947  151.0701 H   0  0  0  0  0  0  0  0  0  0  0  0  # atno 10718 bound_to 10713
  154.7958  135.3223  154.7669 H   0  0  0  0  0  0  0  0  0  0  0  0  # atno 10763 bound_to 10752
  153.8347  135.6876  153.4814 H   0  0  0  0  0  0  0  0  0  0  0  0  # atno 10764 bound_to 10752
  153.1649  135.4646  154.9766 H   0  0  0  0  0  0  0  0  0  0  0  0  # atno 10765 bound_to 10752
  141.1623  133.7483  156.9235 H   0  0  0  0  0  0  0  0  0  0  0  0  # atno 11005 bound_to 11000
  144.6752  140.1968  143.7391 LP  0  0  0  0  0  0  0  0  0  0  0  0  # atno 17320 bound_to 7965
  145.8556  139.2197  143.1746 LP  0  0  0  0  0  0  0  0  0  0  0  0  # atno 17321 bound_to 7965
  140.2692  143.3468  152.1254 LP  0  0  0  0  0  0  0  0  0  0  0  0  # atno 17342 bound_to 10162
  139.5100  144.6876  151.5845 LP  0  0  0  0  0  0  0  0  0  0  0  0  # atno 17343 bound_to 10162
  157.7062  131.0755  150.6657 LP  0  0  0  0  0  0  0  0  0  0  0  0  # atno 17370 bound_to 10713
  156.6718  130.4542  149.5655 LP  0  0  0  0  0  0  0  0  0  0  0  0  # atno 17371 bound_to 10713
  140.1435  134.9278  157.2498 LP  0  0  0  0  0  0  0  0  0  0  0  0  # atno 17394 bound_to 11000
  140.2808  134.3352  155.7344 LP  0  0  0  0  0  0  0  0  0  0  0  0  # atno 17395 bound_to 11000

$$$$
