AV-unprocessed.smi:1362|AV-procd|sdf|5562|dock10
  -GOLD-   22720 5153D 1   1.00000     0.00000
 Structure written by MMmdl.
 38 38  0  0  0  0  0  0  0  0  2 V2000
  151.2447  134.6687  155.8590 C   0  0  0  0  0  0  0  0  0  0  0  0
  151.1987  136.1537  156.1482 C   0  0  0  0  0  0  0  0  0  0  0  0
  150.2952  136.6106  156.9292 N   0  0  0  0  0  0  0  0  0  0  0  0
  150.2472  137.9887  157.1992 C   0  0  0  0  0  0  0  0  0  0  0  0
  149.1400  138.4446  158.1336 C   0  0  0  0  0  0  0  0  0  0  0  0
  151.1482  138.8486  156.6435 C   0  0  0  0  0  0  0  0  0  0  0  0
  151.1350  140.3557  156.9014 C   0  0  0  0  0  0  0  0  0  0  0  0
  151.7042  140.8217  158.2441 C   0  0  0  0  0  0  0  0  0  0  0  0
  151.6220  140.1104  159.2459 O   0  0  0  0  0  0  0  0  0  0  0  0
  152.2792  142.0342  158.2456 N   0  0  0  0  0  0  0  0  0  0  0  0
  152.8917  142.6859  159.4027 C   0  0  2  0  0  0  0  0  0  0  0  0
  153.7073  141.6399  160.1871 C   0  0  0  0  0  0  0  0  0  0  0  0
  151.8032  143.3850  160.2600 C   0  0  0  0  0  0  0  0  0  0  0  0
  151.1697  144.5876  159.5327 C   0  0  0  0  0  0  0  0  0  0  0  0
  152.3366  143.8390  161.6309 C   0  0  0  0  0  0  0  0  0  0  0  0
  152.1777  138.2812  155.7547 C   0  0  0  0  0  0  0  0  0  0  0  0
  153.0246  139.0108  155.2402 O   0  0  0  0  0  0  0  0  0  0  0  0
  152.1523  136.9355  155.5354 N   0  5  0  0  0  0  0  0  0  0  0  0
  150.5800  134.1182  156.5259 H   0  0  0  0  0  0  0  0  0  0  0  0
  152.2563  134.2845  155.9946 H   0  0  0  0  0  0  0  0  0  0  0  0
  150.9361  134.4765  154.8312 H   0  0  0  0  0  0  0  0  0  0  0  0
  148.4372  139.0882  157.6046 H   0  0  0  0  0  0  0  0  0  0  0  0
  149.5522  138.9982  158.9774 H   0  0  0  0  0  0  0  0  0  0  0  0
  148.5835  137.5954  158.5318 H   0  0  0  0  0  0  0  0  0  0  0  0
  151.6560  140.8849  156.1031 H   0  0  0  0  0  0  0  0  0  0  0  0
  150.1043  140.7048  156.8361 H   0  0  0  0  0  0  0  0  0  0  0  0
  152.2990  142.5450  157.3751 H   0  0  0  0  0  0  0  0  0  0  0  0
  153.5792  143.4555  159.0463 H   0  0  0  0  0  0  0  0  0  0  0  0
  154.2879  142.0966  160.9879 H   0  0  0  0  0  0  0  0  0  0  0  0
  154.4185  141.1274  159.5385 H   0  0  0  0  0  0  0  0  0  0  0  0
  153.0599  140.8826  160.6302 H   0  0  0  0  0  0  0  0  0  0  0  0
  151.0055  142.6642  160.4455 H   0  0  0  0  0  0  0  0  0  0  0  0
  151.9216  145.3345  159.2764 H   0  0  0  0  0  0  0  0  0  0  0  0
  150.4202  145.0745  160.1573 H   0  0  0  0  0  0  0  0  0  0  0  0
  150.6687  144.2904  158.6115 H   0  0  0  0  0  0  0  0  0  0  0  0
  153.1865  144.5136  161.5224 H   0  0  0  0  0  0  0  0  0  0  0  0
  152.6528  142.9952  162.2432 H   0  0  0  0  0  0  0  0  0  0  0  0
  151.5670  144.3653  162.1960 H   0  0  0  0  0  0  0  0  0  0  0  0
  1  2  1  0  0  0  0
  1 19  1  0  0  0  0
  1 20  1  0  0  0  0
  1 21  1  0  0  0  0
  2 18  1  0  0  0  0
  2  3  2  0  0  0  0
  3  4  1  0  0  0  0
  4  5  1  0  0  0  0
  4  6  2  0  0  0  0
  5 22  1  0  0  0  0
  5 23  1  0  0  0  0
  5 24  1  0  0  0  0
  6  7  1  0  0  0  0
  6 16  1  0  0  0  0
  7  8  1  0  0  0  0
  7 25  1  0  0  0  0
  7 26  1  0  0  0  0
  8  9  2  0  0  0  0
  8 10  1  0  0  0  0
 10 11  1  0  0  0  0
 10 27  1  0  0  0  0
 11 12  1  0  0  0  0
 11 13  1  0  0  0  0
 11 28  1  0  0  0  0
 12 29  1  0  0  0  0
 12 30  1  0  0  0  0
 12 31  1  0  0  0  0
 13 14  1  0  0  0  0
 13 15  1  0  0  0  0
 13 32  1  0  0  0  0
 14 33  1  0  0  0  0
 14 34  1  0  0  0  0
 14 35  1  0  0  0  0
 15 36  1  0  0  0  0
 15 37  1  0  0  0  0
 15 38  1  0  0  0  0
 16 17  2  0  0  0  0
 16 18  1  0  0  0  0
M  CHG  1  18  -1
M  END
> <s_m_source_file>
AV-unprocessed.smi

> <i_m_source_file_index>
1362

> <i_lp_mmshare_version>
43012

> <i_f3d_flags>
0

> <s_epik_input>
W0NIM11jMW5jKFtDSDNdKWMoYyg9TylbbkhdMSlbQ0gyXUMoPU8pW05IXVtDQEhdKFtDSDNdKVtDSF0oW0NIM10pW0NIM10=

> <s_epik_cmdline>
J2VwaWtfcHl0aG9uJywgJy1waCcsICc3LjAnLCAnLXRuJywgJzgnLCAnLW1hJywgJzIwMCcsICctbWV0YWxfYmluZGluZycsICctaW1hZScsICc8aW5maWxlLm1hZT4nLCAnLW9tYWUnLCAnPG91dGZpbGUubWFlPic=

> <r_lp_tautomer_probability>
0.839158

> <r_epik_Ionization_Penalty>
6.62204

> <r_epik_Ionization_Penalty_Charging>
7.30593e-08

> <r_epik_Ionization_Penalty_Neutral>
6.62204

> <r_epik_State_Penalty>
4.44062

> <r_epik_Charging_Adjusted_Penalty>
4.44062

> <i_epik_Tot_Q>
-1

> <i_epik_Tot_abs_Q>
1

> <r_epik_Metal_State_Penalty>
0.802984

> <b_epik_Metal_Only>
1

> <s_lp_Force_Field>
OPLS_2005

> <r_lp_Energy>
10.6651

> <b_lp_Chiralities_Consistent>
1

> <s_lp_Variant>
AV-unprocessed.smi:1362-5

> <Gold.Version>
5.8.1

> <Gold.Id.Protein>
6NUR|6NUR_protein|mol2

> <Gold.PLP.Fitness>
39.2220

> <Gold.PLP.PLP>
-32.2858

> <Gold.PLP.part.hbond>
-2.0000

> <Gold.PLP.part.metal>
0.0000

> <Gold.PLP.part.buried>
-4.1323

> <Gold.PLP.part.nonpolar>
-27.0110

> <Gold.PLP.part.repulsive>
0.1533

> <Gold.PLP.ligand.clash>
0.0000

> <Gold.PLP.ligand.torsion>
1.0222

> <Gold.PLP.Chemscore.Hbond>
2.9840

> <Gold.PLP.Chemscore.CHOScore>
0.0000

> <Gold.PLP.Chemscore.Metal>
0.0000

> <Gold.Chemscore.Hbonds>
donor molecule, donor type, donor heavy atom, donor atom, acceptor molecule, acceptor atom, score
      P1  H  7997  8009       L1    17  1.00
      P1  H 10752 10765       L1    18  1.53

> <Gold.PLP.Chemscore.Internal.Correction>
0.0286

> <Gold.Rescore>
     Score         DG    S(hbond)    S(metal)    S(lipo)     H(rot)  DE(clash)    DE(int)     intcor
     14.13     -15.90       1.82        0.00      73.05       1.64       0.07       1.70       ----

> <Gold.Chemscore.Fitness>
14.1283

> <Gold.Chemscore.DG>
-15.9037

> <Gold.Chemscore.ZeroCoef>
-5.4800

> <Gold.Chemscore.Hbond>
1.8215

> <Gold.Chemscore.Metal>
0.0000

> <Gold.Chemscore.Lipo>
73.0510

> <Gold.Chemscore.Internal_Hbond>
0.0000

> <Gold.Chemscore.DEClash>
0.0724

> <Gold.Chemscore.DEInternal>
1.7030

> <Gold.Chemscore.Rot>
1.6433

> <Gold.Chemscore.Internal.Correction>
   9.000000E+99

> <Gold.Chemscore.Hbonds>
donor molecule, donor type, donor heavy atom, donor atom, acceptor molecule, acceptor atom, score
      P1  H  7997  8009       L1    17  0.98
      P1  H 10752 10765       L1    18  0.15

> <Gold.Chemscore.Hbond.Weighted>
-6.0837

> <Gold.Chemscore.Metal.Weighted>
-0.0000

> <Gold.Chemscore.Lipo.Weighted>
-8.5470

> <Gold.Chemscore.Internal_Hbond.Weighted>
0.0000

> <Gold.Chemscore.DEClash.Weighted>
0.0724

> <Gold.Chemscore.DEInternal.Weighted>
1.7030

> <Gold.Chemscore.Rot.Weighted>
4.2069

> <Gold.Chemscore.Internal.Correction.Weighted>
   9.000000E+99

> <Gold.Protein.RotatedTorsions>
[ 6907 6896 6895 6894 ] final -134.64 input  -60.11 | X-H torsion
[ 7974 7965 7964 7962 ] final  -74.57 input  175.53 | X-H torsion
[ 8008 7997 7996 7995 ] final -150.91 input   59.86 | X-H torsion
[ 10167 10162 10161 10158 ] final   32.46 input  -65.29 | X-H torsion
[ 10718 10713 10712 10709 ] final  145.58 input   66.30 | X-H torsion
[ 10763 10752 10751 10750 ] final  177.26 input  -60.55 | X-H torsion
[ 11005 11000 10999 10996 ] final -165.01 input  -57.11 | X-H torsion

> <Gold.Protein.ActiveResidues>
 VAL166  LYS551  ARG553  GLY616  TRP617  ASP618  TYR619  PRO620  LYS621  CYS622 
 ASP623  PHE694  ASN695  SER759  ASP760  ASP761  ALA762  ILE779  LEU786  VAL792 
 PHE793  MET794  SER795  GLU796  ALA797  LYS798  CYS799  TRP800  GLU811  SER814 

> <Gold.Protein.RotatedAtoms>
  150.9883  133.6175  159.2711 H   0  0  0  0  0  0  0  0  0  0  0  0  # atno 6907 bound_to 6896
  151.3406  135.0861  159.9379 H   0  0  0  0  0  0  0  0  0  0  0  0  # atno 6908 bound_to 6896
  152.5238  133.9495  159.7719 H   0  0  0  0  0  0  0  0  0  0  0  0  # atno 6909 bound_to 6896
  145.6374  140.9321  143.1054 H   0  0  0  0  0  0  0  0  0  0  0  0  # atno 7974 bound_to 7965
  155.6310  140.0691  157.2649 H   0  0  0  0  0  0  0  0  0  0  0  0  # atno 8008 bound_to 7997
  154.4206  140.1767  156.1521 H   0  0  0  0  0  0  0  0  0  0  0  0  # atno 8009 bound_to 7997
  155.9933  140.3343  155.6777 H   0  0  0  0  0  0  0  0  0  0  0  0  # atno 8010 bound_to 7997
  140.4496  144.1068  150.6189 H   0  0  0  0  0  0  0  0  0  0  0  0  # atno 10167 bound_to 10162
  157.3435  131.0939  151.1062 H   0  0  0  0  0  0  0  0  0  0  0  0  # atno 10718 bound_to 10713
  154.4921  135.2779  155.1488 H   0  0  0  0  0  0  0  0  0  0  0  0  # atno 10763 bound_to 10752
  154.3156  135.6220  153.5488 H   0  0  0  0  0  0  0  0  0  0  0  0  # atno 10764 bound_to 10752
  152.9889  135.5730  154.5345 H   0  0  0  0  0  0  0  0  0  0  0  0  # atno 10765 bound_to 10752
  140.5805  134.5146  157.5177 H   0  0  0  0  0  0  0  0  0  0  0  0  # atno 11005 bound_to 11000
  144.7170  139.8161  143.7395 LP  0  0  0  0  0  0  0  0  0  0  0  0  # atno 17320 bound_to 7965
  146.1308  139.4343  143.0170 LP  0  0  0  0  0  0  0  0  0  0  0  0  # atno 17321 bound_to 7965
  140.4223  143.2606  151.9700 LP  0  0  0  0  0  0  0  0  0  0  0  0  # atno 17342 bound_to 10162
  139.4795  144.5820  151.7917 LP  0  0  0  0  0  0  0  0  0  0  0  0  # atno 17343 bound_to 10162
  157.2265  130.6505  149.5832 LP  0  0  0  0  0  0  0  0  0  0  0  0  # atno 17370 bound_to 10713
  155.9711  130.4612  150.6102 LP  0  0  0  0  0  0  0  0  0  0  0  0  # atno 17371 bound_to 10713
  139.9319  134.7947  156.0907 LP  0  0  0  0  0  0  0  0  0  0  0  0  # atno 17394 bound_to 11000
  141.0999  133.6681  156.2730 LP  0  0  0  0  0  0  0  0  0  0  0  0  # atno 17395 bound_to 11000

$$$$
