AV-unprocessed.smi:3001|AV-procd|sdf|11432|dock2
  -GOLD-   2272016363D 1   1.00000     0.00000
 Structure written by MMmdl.
 42 43  0  0  0  0  0  0  0  0  2 V2000
  154.5875  134.3857  164.6529 C   0  0  0  0  0  0  0  0  0  0  0  0
  154.3197  135.4769  164.1749 C   0  0  0  0  0  0  0  0  0  0  0  0
  153.9980  136.7979  163.6100 C   0  0  0  0  0  0  0  0  0  0  0  0
  153.5875  136.7262  162.2122 N   0  0  0  0  0  0  0  0  0  0  0  0
  154.0150  137.5374  161.2321 C   0  0  0  0  0  0  0  0  0  0  0  0
  154.8091  138.4613  161.4154 O   0  0  0  0  0  0  0  0  0  0  0  0
  153.4341  137.2711  159.8380 C   0  0  0  0  0  0  0  0  0  0  0  0
  152.5290  138.3269  159.3898 N   0  0  0  0  0  0  0  0  0  0  0  0
  152.9022  139.5750  159.0717 C   0  0  0  0  0  0  0  0  0  0  0  0
  154.0702  139.9637  159.0924 O   0  0  0  0  0  0  0  0  0  0  0  0
  151.8424  140.3374  158.7554 N   0  0  0  0  0  0  0  0  0  0  0  0
  151.8372  141.7268  158.4480 C   0  0  0  0  0  0  0  0  0  0  0  0
  152.7153  142.6218  159.1111 C   0  0  0  0  0  0  0  0  0  0  0  0
  152.7438  143.9801  158.7438 C   0  0  0  0  0  0  0  0  0  0  0  0
  151.9054  144.4210  157.7060 C   0  0  0  0  0  0  0  0  0  0  0  0
  151.0907  143.5429  157.0857 N   0  3  0  0  0  0  0  0  0  0  0  0
  151.0057  142.2265  157.4038 C   0  0  0  0  0  0  0  0  0  0  0  0
  150.0946  141.4295  156.6734 N   0  0  0  0  0  0  0  0  0  0  0  0
  150.4115  141.0019  155.3157 C   0  0  0  0  0  0  0  0  0  0  0  0
  149.0932  140.4869  154.7447 C   0  0  0  0  0  0  0  0  0  0  0  0
  148.0705  141.4163  155.3913 C   0  0  0  0  0  0  0  0  0  0  0  0
  148.6647  141.7057  156.7737 C   0  0  0  0  0  0  0  0  0  0  0  0
  154.8217  133.4333  165.0731 H   0  0  0  0  0  0  0  0  0  0  0  0
  153.2308  137.2656  164.2288 H   0  0  0  0  0  0  0  0  0  0  0  0
  154.8902  137.4197  163.6827 H   0  0  0  0  0  0  0  0  0  0  0  0
  152.9288  136.0001  161.9704 H   0  0  0  0  0  0  0  0  0  0  0  0
  154.2393  137.1363  159.1133 H   0  0  0  0  0  0  0  0  0  0  0  0
  152.8794  136.3331  159.8682 H   0  0  0  0  0  0  0  0  0  0  0  0
  151.5475  138.0949  159.3510 H   0  0  0  0  0  0  0  0  0  0  0  0
  150.9351  139.9107  158.8730 H   0  0  0  0  0  0  0  0  0  0  0  0
  153.3860  142.2806  159.8850 H   0  0  0  0  0  0  0  0  0  0  0  0
  153.4089  144.6693  159.2434 H   0  0  0  0  0  0  0  0  0  0  0  0
  151.8638  145.4410  157.3522 H   0  0  0  0  0  0  0  0  0  0  0  0
  150.7618  141.8472  154.7222 H   0  0  0  0  0  0  0  0  0  0  0  0
  151.1835  140.2321  155.3096 H   0  0  0  0  0  0  0  0  0  0  0  0
  149.0643  140.5091  153.6550 H   0  0  0  0  0  0  0  0  0  0  0  0
  148.9206  139.4596  155.0686 H   0  0  0  0  0  0  0  0  0  0  0  0
  148.0052  142.3423  154.8184 H   0  0  0  0  0  0  0  0  0  0  0  0
  147.0718  140.9821  155.4423 H   0  0  0  0  0  0  0  0  0  0  0  0
  148.2294  141.0329  157.5129 H   0  0  0  0  0  0  0  0  0  0  0  0
  148.4629  142.7314  157.0854 H   0  0  0  0  0  0  0  0  0  0  0  0
  150.4948  143.8938  156.3359 H   0  0  0  0  0  0  0  0  0  0  0  0
  1  2  3  0  0  0  0
  1 23  1  0  0  0  0
  2  3  1  0  0  0  0
  3  4  1  0  0  0  0
  3 24  1  0  0  0  0
  3 25  1  0  0  0  0
  4  5  1  0  0  0  0
  4 26  1  0  0  0  0
  5  6  2  0  0  0  0
  5  7  1  0  0  0  0
  7  8  1  0  0  0  0
  7 27  1  0  0  0  0
  7 28  1  0  0  0  0
  8  9  1  0  0  0  0
  8 29  1  0  0  0  0
  9 10  2  0  0  0  0
  9 11  1  0  0  0  0
 11 12  1  0  0  0  0
 11 30  1  0  0  0  0
 12 17  1  0  0  0  0
 12 13  2  0  0  0  0
 13 14  1  0  0  0  0
 13 31  1  0  0  0  0
 14 15  2  0  0  0  0
 14 32  1  0  0  0  0
 15 16  1  0  0  0  0
 15 33  1  0  0  0  0
 16 17  2  0  0  0  0
 16 42  1  0  0  0  0
 17 18  1  0  0  0  0
 18 22  1  0  0  0  0
 18 19  1  0  0  0  0
 19 20  1  0  0  0  0
 19 34  1  0  0  0  0
 19 35  1  0  0  0  0
 20 21  1  0  0  0  0
 20 36  1  0  0  0  0
 20 37  1  0  0  0  0
 21 22  1  0  0  0  0
 21 38  1  0  0  0  0
 21 39  1  0  0  0  0
 22 40  1  0  0  0  0
 22 41  1  0  0  0  0
M  CHG  1  16   1
M  END
> <s_m_source_file>
AV-unprocessed.smi

> <i_m_source_file_index>
3001

> <i_lp_mmshare_version>
43012

> <i_f3d_flags>
0

> <s_epik_input>
W0NIXSNDW0NIMl1bTkhdQyg9TylbQ0gyXVtOSF1DKD1PKVtOSF1jMVtjSF1bY0hdW2NIXW5jMU4yW0NIMl1bQ0gyXVtDSDJdW0NIMl0y

> <s_epik_cmdline>
J2VwaWtfcHl0aG9uJywgJy1waCcsICc3LjAnLCAnLXRuJywgJzgnLCAnLW1hJywgJzIwMCcsICctbWV0YWxfYmluZGluZycsICctaW1hZScsICc8aW5maWxlLm1hZT4nLCAnLW9tYWUnLCAnPG91dGZpbGUubWFlPic=

> <r_lp_tautomer_probability>
0.999994

> <r_epik_Ionization_Penalty>
0.644915

> <r_epik_Ionization_Penalty_Charging>
0.644896

> <r_epik_Ionization_Penalty_Neutral>
1.90142e-05

> <r_epik_State_Penalty>
0.662902

> <r_epik_Charging_Adjusted_Penalty>
1.3078

> <i_epik_Tot_Q>
1

> <i_epik_Tot_abs_Q>
1

> <r_epik_Metal_State_Penalty>
0.837036

> <b_epik_Metal_Only>
0

> <s_lp_Force_Field>
OPLS_2005

> <r_lp_Energy>
32.9475

> <b_lp_Chiralities_Consistent>
1

> <s_lp_Variant>
AV-unprocessed.smi:3001-2

> <Gold.Version>
5.8.1

> <Gold.Id.Protein>
6NUR|6NUR_protein|mol2

> <Gold.PLP.Fitness>
49.3329

> <Gold.PLP.PLP>
-41.3531

> <Gold.PLP.part.hbond>
-2.0000

> <Gold.PLP.part.metal>
0.0000

> <Gold.PLP.part.buried>
-3.8184

> <Gold.PLP.part.nonpolar>
-35.8204

> <Gold.PLP.part.repulsive>
0.3794

> <Gold.PLP.ligand.clash>
0.0000

> <Gold.PLP.ligand.torsion>
0.7095

> <Gold.PLP.Chemscore.Hbond>
3.0000

> <Gold.PLP.Chemscore.CHOScore>
0.0000

> <Gold.PLP.Chemscore.Metal>
0.0000

> <Gold.Chemscore.Hbonds>
donor molecule, donor type, donor heavy atom, donor atom, acceptor molecule, acceptor atom, score
      L1  H    16    42       P1  8028  2.00
      P1  H  7997  8009       L1    10  1.00

> <Gold.PLP.Chemscore.Internal.Correction>
0.3988

> <Gold.Rescore>
     Score         DG    S(hbond)    S(metal)    S(lipo)     H(rot)  DE(clash)    DE(int)     intcor
     16.07     -19.09       1.94        0.00     101.37       1.85       0.02       3.00       ----

> <Gold.Chemscore.Fitness>
16.0706

> <Gold.Chemscore.DG>
-19.0875

> <Gold.Chemscore.ZeroCoef>
-5.4800

> <Gold.Chemscore.Hbond>
1.9445

> <Gold.Chemscore.Metal>
0.0000

> <Gold.Chemscore.Lipo>
101.3738

> <Gold.Chemscore.Internal_Hbond>
0.0000

> <Gold.Chemscore.DEClash>
0.0163

> <Gold.Chemscore.DEInternal>
3.0006

> <Gold.Chemscore.Rot>
1.8547

> <Gold.Chemscore.Internal.Correction>
   9.000000E+99

> <Gold.Chemscore.Hbonds>
donor molecule, donor type, donor heavy atom, donor atom, acceptor molecule, acceptor atom, score
      L1  H    16    42       P1  8028  0.97
      P1  H  7997  8009       L1    10  0.85

> <Gold.Chemscore.Hbond.Weighted>
-6.4948

> <Gold.Chemscore.Metal.Weighted>
-0.0000

> <Gold.Chemscore.Lipo.Weighted>
-11.8607

> <Gold.Chemscore.Internal_Hbond.Weighted>
0.0000

> <Gold.Chemscore.DEClash.Weighted>
0.0163

> <Gold.Chemscore.DEInternal.Weighted>
3.0006

> <Gold.Chemscore.Rot.Weighted>
4.7479

> <Gold.Chemscore.Internal.Correction.Weighted>
   9.000000E+99

> <Gold.Protein.RotatedTorsions>
[ 6907 6896 6895 6894 ] final  126.70 input  -60.11 | X-H torsion
[ 7974 7965 7964 7962 ] final  -90.35 input  175.53 | X-H torsion
[ 8008 7997 7996 7995 ] final  125.04 input   59.86 | X-H torsion
[ 10167 10162 10161 10158 ] final  174.74 input  -65.29 | X-H torsion
[ 10718 10713 10712 10709 ] final   90.89 input   66.30 | X-H torsion
[ 10763 10752 10751 10750 ] final    5.37 input  -60.55 | X-H torsion
[ 11005 11000 10999 10996 ] final -108.98 input  -57.11 | X-H torsion

> <Gold.Protein.ActiveResidues>
 VAL166  LYS551  ARG553  GLY616  TRP617  ASP618  TYR619  PRO620  LYS621  CYS622 
 ASP623  PHE694  ASN695  SER759  ASP760  ASP761  ALA762  ILE779  LEU786  VAL792 
 PHE793  MET794  SER795  GLU796  ALA797  LYS798  CYS799  TRP800  GLU811  SER814 

> <Gold.Protein.RotatedAtoms>
  152.3879  133.6637  159.6213 H   0  0  0  0  0  0  0  0  0  0  0  0  # atno 6907 bound_to 6896
  150.7794  133.9004  159.3348 H   0  0  0  0  0  0  0  0  0  0  0  0  # atno 6908 bound_to 6896
  151.6796  135.0965  160.0265 H   0  0  0  0  0  0  0  0  0  0  0  0  # atno 6909 bound_to 6896
  145.4276  140.9554  143.2146 H   0  0  0  0  0  0  0  0  0  0  0  0  # atno 7974 bound_to 7965
  156.2821  140.2725  156.1885 H   0  0  0  0  0  0  0  0  0  0  0  0  # atno 8008 bound_to 7997
  155.0483  140.0386  157.2552 H   0  0  0  0  0  0  0  0  0  0  0  0  # atno 8009 bound_to 7997
  154.7216  140.2689  155.6541 H   0  0  0  0  0  0  0  0  0  0  0  0  # atno 8010 bound_to 7997
  139.5152  144.3112  152.0290 H   0  0  0  0  0  0  0  0  0  0  0  0  # atno 10167 bound_to 10162
  157.6960  131.0387  150.3647 H   0  0  0  0  0  0  0  0  0  0  0  0  # atno 10718 bound_to 10713
  153.2602  135.6922  153.7587 H   0  0  0  0  0  0  0  0  0  0  0  0  # atno 10763 bound_to 10752
  153.6649  135.3354  155.3138 H   0  0  0  0  0  0  0  0  0  0  0  0  # atno 10764 bound_to 10752
  154.8427  135.4486  154.1589 H   0  0  0  0  0  0  0  0  0  0  0  0  # atno 10765 bound_to 10752
  141.0872  133.9118  157.2158 H   0  0  0  0  0  0  0  0  0  0  0  0  # atno 11005 bound_to 11000
  144.8204  139.5802  143.6989 LP  0  0  0  0  0  0  0  0  0  0  0  0  # atno 17320 bound_to 7965
  146.2624  139.6440  142.9353 LP  0  0  0  0  0  0  0  0  0  0  0  0  # atno 17321 bound_to 7965
  140.2556  144.4122  150.6205 LP  0  0  0  0  0  0  0  0  0  0  0  0  # atno 17342 bound_to 10162
  140.6194  143.2175  151.6726 LP  0  0  0  0  0  0  0  0  0  0  0  0  # atno 17343 bound_to 10162
  156.4079  130.3928  149.6912 LP  0  0  0  0  0  0  0  0  0  0  0  0  # atno 17370 bound_to 10713
  156.4207  130.7767  151.2784 LP  0  0  0  0  0  0  0  0  0  0  0  0  # atno 17371 bound_to 10713
  139.9692  135.0133  156.9468 LP  0  0  0  0  0  0  0  0  0  0  0  0  # atno 17394 bound_to 11000
  140.5335  134.0790  155.7322 LP  0  0  0  0  0  0  0  0  0  0  0  0  # atno 17395 bound_to 11000

$$$$
