AV-unprocessed.smi:36|AV-procd|sdf|282|dock9
  -GOLD-   2262016 63D 1   1.00000     0.00000
 Structure written by MMmdl.
 64 67  0  0  0  0  0  0  0  0  1 V2000
  152.6944  129.7930  155.4112 C   0  0  0  0  0  0  0  0  0  0  0  0
  153.3391  130.1068  156.7721 C   0  0  0  0  0  0  0  0  0  0  0  0
  154.2157  128.9192  157.2050 C   0  0  0  0  0  0  0  0  0  0  0  0
  154.2052  131.3724  156.6583 C   0  0  0  0  0  0  0  0  0  0  0  0
  151.9556  130.4129  158.0621 Si  0  0  0  0  0  0  0  0  0  0  0  0
  150.7771  128.9242  158.1250 C   0  0  0  0  0  0  0  0  0  0  0  0
  152.6823  130.7307  159.7896 C   0  0  0  0  0  0  0  0  0  0  0  0
  151.0400  131.7594  157.5959 O   0  0  0  0  0  0  0  0  0  0  0  0
  150.2454  131.8124  156.4284 C   0  0  0  0  0  0  0  0  0  0  0  0
  149.8112  133.2633  156.1728 C   0  0  1  0  0  0  0  0  0  0  0  0
  150.9316  134.0915  155.8809 O   0  0  0  0  0  0  0  0  0  0  0  0
  150.5436  135.1599  155.0678 C   0  0  2  0  0  0  0  0  0  0  0  0
  150.7271  136.4266  155.8353 N   0  0  0  0  0  0  0  0  0  0  0  0
  150.0630  136.8629  156.9616 C   0  0  0  0  0  0  0  0  0  0  0  0
  150.4416  138.0281  157.4158 N   0  0  0  0  0  0  0  0  0  0  0  0
  151.4391  138.4254  156.5339 C   0  0  0  0  0  0  0  0  0  0  0  0
  152.2708  139.5719  156.4387 C   0  0  0  0  0  0  0  0  0  0  0  0
  152.1614  140.5706  157.3459 N   0  0  0  0  0  0  0  0  0  0  0  0
  152.5865  140.5699  158.7348 C   0  0  0  0  0  0  0  0  0  0  0  0
  153.1755  139.6131  159.2388 O   0  0  0  0  0  0  0  0  0  0  0  0
  152.3316  141.8328  159.5057 C   0  0  0  0  0  0  0  0  0  0  0  0
  151.6516  142.9091  158.8921 C   0  0  0  0  0  0  0  0  0  0  0  0
  151.4234  144.1055  159.5994 C   0  0  0  0  0  0  0  0  0  0  0  0
  151.8791  144.2388  160.9246 C   0  0  0  0  0  0  0  0  0  0  0  0
  152.5666  143.1762  161.5404 C   0  0  0  0  0  0  0  0  0  0  0  0
  152.7960  141.9793  160.8338 C   0  0  0  0  0  0  0  0  0  0  0  0
  153.1538  139.6190  155.4062 N   0  0  0  0  0  0  0  0  0  0  0  0
  153.2213  138.6118  154.5305 C   0  0  0  0  0  0  0  0  0  0  0  0
  152.5106  137.4822  154.5018 N   0  0  0  0  0  0  0  0  0  0  0  0
  151.6220  137.4291  155.5354 C   0  0  0  0  0  0  0  0  0  0  0  0
  149.0635  134.9689  154.7171 C   0  0  0  0  0  0  0  0  0  0  0  0
  148.8497  133.4960  155.0010 C   0  0  1  0  0  0  0  0  0  0  0  0
  149.1780  132.7114  153.8702 O   0  0  0  0  0  0  0  0  0  0  0  0
  153.4505  129.6135  154.6462 H   0  0  0  0  0  0  0  0  0  0  0  0
  152.0707  130.6176  155.0653 H   0  0  0  0  0  0  0  0  0  0  0  0
  152.0650  128.9043  155.4658 H   0  0  0  0  0  0  0  0  0  0  0  0
  153.6228  128.0155  157.3464 H   0  0  0  0  0  0  0  0  0  0  0  0
  154.7380  129.1239  158.1378 H   0  0  0  0  0  0  0  0  0  0  0  0
  154.9755  128.6966  156.4549 H   0  0  0  0  0  0  0  0  0  0  0  0
  155.0123  131.2374  155.9374 H   0  0  0  0  0  0  0  0  0  0  0  0
  154.6588  131.6291  157.6161 H   0  0  0  0  0  0  0  0  0  0  0  0
  153.6159  132.2304  156.3339 H   0  0  0  0  0  0  0  0  0  0  0  0
  151.2902  128.0181  158.4464 H   0  0  0  0  0  0  0  0  0  0  0  0
  150.3352  128.7202  157.1499 H   0  0  0  0  0  0  0  0  0  0  0  0
  149.9573  129.0956  158.8222 H   0  0  0  0  0  0  0  0  0  0  0  0
  153.2711  129.8826  160.1381 H   0  0  0  0  0  0  0  0  0  0  0  0
  151.8976  130.9050  160.5257 H   0  0  0  0  0  0  0  0  0  0  0  0
  153.3339  131.6041  159.7992 H   0  0  0  0  0  0  0  0  0  0  0  0
  150.8352  131.4498  155.5862 H   0  0  0  0  0  0  0  0  0  0  0  0
  149.3837  131.1520  156.5151 H   0  0  0  0  0  0  0  0  0  0  0  0
  149.3499  133.6590  157.0792 H   0  0  0  0  0  0  0  0  0  0  0  0
  151.2012  135.2380  154.2012 H   0  0  0  0  0  0  0  0  0  0  0  0
  149.2856  136.2867  157.4413 H   0  0  0  0  0  0  0  0  0  0  0  0
  151.7006  141.4101  157.0261 H   0  0  0  0  0  0  0  0  0  0  0  0
  151.2972  142.8239  157.8749 H   0  0  0  0  0  0  0  0  0  0  0  0
  150.8996  144.9216  159.1240 H   0  0  0  0  0  0  0  0  0  0  0  0
  151.7047  145.1565  161.4665 H   0  0  0  0  0  0  0  0  0  0  0  0
  152.9213  143.2802  162.5552 H   0  0  0  0  0  0  0  0  0  0  0  0
  153.3343  141.1809  161.3236 H   0  0  0  0  0  0  0  0  0  0  0  0
  153.9490  138.7278  153.7411 H   0  0  0  0  0  0  0  0  0  0  0  0
  148.4445  135.5694  155.3860 H   0  0  0  0  0  0  0  0  0  0  0  0
  148.8565  135.2657  153.6883 H   0  0  0  0  0  0  0  0  0  0  0  0
  147.8170  133.2826  155.2786 H   0  0  0  0  0  0  0  0  0  0  0  0
  148.8723  131.8295  154.0192 H   0  0  0  0  0  0  0  0  0  0  0  0
  1  2  1  0  0  0  0
  1 34  1  0  0  0  0
  1 35  1  0  0  0  0
  1 36  1  0  0  0  0
  2  3  1  0  0  0  0
  2  4  1  0  0  0  0
  2  5  1  0  0  0  0
  3 37  1  0  0  0  0
  3 38  1  0  0  0  0
  3 39  1  0  0  0  0
  4 40  1  0  0  0  0
  4 41  1  0  0  0  0
  4 42  1  0  0  0  0
  5  6  1  0  0  0  0
  5  7  1  0  0  0  0
  5  8  1  0  0  0  0
  6 43  1  0  0  0  0
  6 44  1  0  0  0  0
  6 45  1  0  0  0  0
  7 46  1  0  0  0  0
  7 47  1  0  0  0  0
  7 48  1  0  0  0  0
  8  9  1  0  0  0  0
  9 10  1  0  0  0  0
  9 49  1  0  0  0  0
  9 50  1  0  0  0  0
 10 32  1  0  0  0  0
 10 11  1  0  0  0  0
 10 51  1  0  0  0  0
 11 12  1  0  0  0  0
 12 13  1  0  0  0  0
 12 31  1  0  0  0  0
 12 52  1  0  0  0  0
 13 30  1  0  0  0  0
 13 14  1  0  0  0  0
 14 15  2  0  0  0  0
 14 53  1  0  0  0  0
 15 16  1  0  0  0  0
 16 30  2  0  0  0  0
 16 17  1  0  0  0  0
 17 18  1  0  0  0  0
 17 27  2  0  0  0  0
 18 19  1  0  0  0  0
 18 54  1  0  0  0  0
 19 20  2  0  0  0  0
 19 21  1  0  0  0  0
 21 26  1  0  0  0  0
 21 22  2  0  0  0  0
 22 23  1  0  0  0  0
 22 55  1  0  0  0  0
 23 24  2  0  0  0  0
 23 56  1  0  0  0  0
 24 25  1  0  0  0  0
 24 57  1  0  0  0  0
 25 26  2  0  0  0  0
 25 58  1  0  0  0  0
 26 59  1  0  0  0  0
 27 28  1  0  0  0  0
 28 29  2  0  0  0  0
 28 60  1  0  0  0  0
 29 30  1  0  0  0  0
 31 32  1  0  0  0  0
 31 61  1  0  0  0  0
 31 62  1  0  0  0  0
 32 33  1  0  0  0  0
 32 63  1  0  0  0  0
 33 64  1  0  0  0  0
M  END
> <s_m_source_file>
AV-unprocessed.smi

> <i_m_source_file_index>
36

> <i_lp_mmshare_version>
43012

> <i_f3d_flags>
0

> <s_epik_input>
W0NIM11DKFtDSDNdKShbQ0gzXSlbU2ldKFtDSDNdKShbQ0gzXSlPW0NIMl1bQ0BASF0xT1tDQEhdKFtDSDJdW0NASF0xW09IXSluKFtjSF1uMiljKGMyMyluW2NIXW5jM1tOSF1DKD1PKWM0W2NIXVtjSF1bY0hdW2NIXVtjSF00

> <s_epik_cmdline>
J2VwaWtfcHl0aG9uJywgJy1waCcsICc3LjAnLCAnLXRuJywgJzgnLCAnLW1hJywgJzIwMCcsICctbWV0YWxfYmluZGluZycsICctaW1hZScsICc8aW5maWxlLm1hZT4nLCAnLW9tYWUnLCAnPG91dGZpbGUubWFlPic=

> <r_lp_tautomer_probability>
1

> <r_epik_Ionization_Penalty>
0.00150433

> <r_epik_Ionization_Penalty_Charging>
0

> <r_epik_Ionization_Penalty_Neutral>
0.00150433

> <r_epik_State_Penalty>
0.00724046

> <r_epik_Charging_Adjusted_Penalty>
0.00724046

> <i_epik_Tot_Q>
0

> <i_epik_Tot_abs_Q>
0

> <r_epik_Metal_State_Penalty>
0.323355

> <b_epik_Metal_Only>
0

> <s_epik_Chemistry_Notes>
This compound contains an acetal/aminal-like group ( X-CH(R)-Y where X, Y are N, S, or O) that may be acid/base labile, releasing an aldehyde.

> <s_lp_Force_Field>
OPLS_2005

> <r_lp_Energy>
37.9666

> <b_lp_Chiralities_Consistent>
1

> <s_lp_Variant>
AV-unprocessed.smi:36-4

> <Gold.Version>
5.8.1

> <Gold.Id.Protein>
6NUR|6NUR_protein|mol2

> <Gold.PLP.Fitness>
50.0033

> <Gold.PLP.PLP>
-47.1702

> <Gold.PLP.part.hbond>
-2.6037

> <Gold.PLP.part.metal>
0.0000

> <Gold.PLP.part.buried>
-5.7983

> <Gold.PLP.part.nonpolar>
-38.5685

> <Gold.PLP.part.repulsive>
0.2259

> <Gold.PLP.ligand.clash>
0.0000

> <Gold.PLP.ligand.torsion>
0.8827

> <Gold.PLP.Chemscore.Hbond>
1.4960

> <Gold.PLP.Chemscore.CHOScore>
0.0000

> <Gold.PLP.Chemscore.Metal>
0.0000

> <Gold.Chemscore.Hbonds>
donor molecule, donor type, donor heavy atom, donor atom, acceptor molecule, acceptor atom, score
      P1  H  7997  8010       L1    27  0.91
      P1  H 10752 10763       L1    29  0.43

> <Gold.PLP.Chemscore.Internal.Correction>
0.1106

> <Gold.Rescore>
     Score         DG    S(hbond)    S(metal)    S(lipo)     H(rot)  DE(clash)    DE(int)     intcor
     13.59     -14.59       1.10        0.00     105.58       2.70       0.08       0.93       ----

> <Gold.Chemscore.Fitness>
13.5874

> <Gold.Chemscore.DG>
-14.5915

> <Gold.Chemscore.ZeroCoef>
-5.4800

> <Gold.Chemscore.Hbond>
1.1022

> <Gold.Chemscore.Metal>
0.0000

> <Gold.Chemscore.Lipo>
105.5790

> <Gold.Chemscore.Internal_Hbond>
0.0000

> <Gold.Chemscore.DEClash>
0.0775

> <Gold.Chemscore.DEInternal>
0.9266

> <Gold.Chemscore.Rot>
2.7041

> <Gold.Chemscore.Internal.Correction>
   9.000000E+99

> <Gold.Chemscore.Hbonds>
donor molecule, donor type, donor heavy atom, donor atom, acceptor molecule, acceptor atom, score
      P1  H  7997  8010       L1    27  0.34
      P1  H 10752 10763       L1    29  0.38

> <Gold.Chemscore.Hbond.Weighted>
-3.6813

> <Gold.Chemscore.Metal.Weighted>
-0.0000

> <Gold.Chemscore.Lipo.Weighted>
-12.3527

> <Gold.Chemscore.Internal_Hbond.Weighted>
0.0000

> <Gold.Chemscore.DEClash.Weighted>
0.0775

> <Gold.Chemscore.DEInternal.Weighted>
0.9266

> <Gold.Chemscore.Rot.Weighted>
6.9225

> <Gold.Chemscore.Internal.Correction.Weighted>
   9.000000E+99

> <Gold.Protein.RotatedTorsions>
[ 6907 6896 6895 6894 ] final  177.51 input  -60.11 | X-H torsion
[ 7974 7965 7964 7962 ] final  109.30 input  175.53 | X-H torsion
[ 8008 7997 7996 7995 ] final   93.37 input   59.86 | X-H torsion
[ 10167 10162 10161 10158 ] final  -99.06 input  -65.29 | X-H torsion
[ 10718 10713 10712 10709 ] final -162.82 input   66.30 | X-H torsion
[ 10763 10752 10751 10750 ] final   11.46 input  -60.55 | X-H torsion
[ 11005 11000 10999 10996 ] final  175.29 input  -57.11 | X-H torsion

> <Gold.Protein.ActiveResidues>
 VAL166  LYS551  ARG553  GLY616  TRP617  ASP618  TYR619  PRO620  LYS621  CYS622 
 ASP623  PHE694  ASN695  SER759  ASP760  ASP761  ALA762  ILE779  LEU786  VAL792 
 PHE793  MET794  SER795  GLU796  ALA797  LYS798  CYS799  TRP800  GLU811  SER814 

> <Gold.Protein.RotatedAtoms>
  151.7028  133.3311  159.3270 H   0  0  0  0  0  0  0  0  0  0  0  0  # atno 6907 bound_to 6896
  150.7728  134.6601  159.6344 H   0  0  0  0  0  0  0  0  0  0  0  0  # atno 6908 bound_to 6896
  152.3759  134.6667  160.0212 H   0  0  0  0  0  0  0  0  0  0  0  0  # atno 6909 bound_to 6896
  145.2696  139.2671  143.3973 H   0  0  0  0  0  0  0  0  0  0  0  0  # atno 7974 bound_to 7965
  156.0460  140.3314  155.7297 H   0  0  0  0  0  0  0  0  0  0  0  0  # atno 8008 bound_to 7997
  155.5673  140.0624  157.2832 H   0  0  0  0  0  0  0  0  0  0  0  0  # atno 8009 bound_to 7997
  154.4414  140.1867  156.0832 H   0  0  0  0  0  0  0  0  0  0  0  0  # atno 8010 bound_to 7997
  140.2664  143.3373  152.0576 H   0  0  0  0  0  0  0  0  0  0  0  0  # atno 10167 bound_to 10162
  156.6159  130.8870  151.2947 H   0  0  0  0  0  0  0  0  0  0  0  0  # atno 10718 bound_to 10713
  153.1924  135.6844  153.8336 H   0  0  0  0  0  0  0  0  0  0  0  0  # atno 10763 bound_to 10752
  153.7631  135.3207  155.3341 H   0  0  0  0  0  0  0  0  0  0  0  0  # atno 10764 bound_to 10752
  154.8125  135.4708  154.0652 H   0  0  0  0  0  0  0  0  0  0  0  0  # atno 10765 bound_to 10752
  140.3606  134.7116  157.4329 H   0  0  0  0  0  0  0  0  0  0  0  0  # atno 11005 bound_to 11000
  146.3250  140.3135  142.8628 LP  0  0  0  0  0  0  0  0  0  0  0  0  # atno 17320 bound_to 7965
  144.9346  140.8013  143.5668 LP  0  0  0  0  0  0  0  0  0  0  0  0  # atno 17321 bound_to 7965
  139.5001  144.6685  151.6299 LP  0  0  0  0  0  0  0  0  0  0  0  0  # atno 17342 bound_to 10162
  140.5924  143.9755  150.6333 LP  0  0  0  0  0  0  0  0  0  0  0  0  # atno 17343 bound_to 10162
  157.7241  130.9599  150.1561 LP  0  0  0  0  0  0  0  0  0  0  0  0  # atno 17370 bound_to 10713
  156.2352  130.3685  149.8400 LP  0  0  0  0  0  0  0  0  0  0  0  0  # atno 17371 bound_to 10713
  140.0629  134.5970  155.8728 LP  0  0  0  0  0  0  0  0  0  0  0  0  # atno 17394 bound_to 11000
  141.1985  133.6602  156.5796 LP  0  0  0  0  0  0  0  0  0  0  0  0  # atno 17395 bound_to 11000

$$$$
