AV-unprocessed.smi:906|AV-procd|sdf|4101|dock3
  -GOLD-   22720 1593D 1   1.00000     0.00000
 Structure written by MMmdl.
 47 48  0  0  0  0  0  0  0  0  1 V2000
  149.9069  130.3453  154.4678 C   0  0  0  0  0  0  0  0  0  0  0  0
  149.9654  131.7942  154.9046 C   0  0  0  0  0  0  0  0  0  0  0  0
  150.7357  132.1802  156.0218 C   0  0  0  0  0  0  0  0  0  0  0  0
  150.7603  133.5416  156.3811 C   0  0  0  0  0  0  0  0  0  0  0  0
  150.0179  134.4612  155.6125 C   0  0  0  0  0  0  0  0  0  0  0  0
  150.0163  135.9384  155.9526 C   0  0  0  0  0  0  0  0  0  0  0  0
  150.3215  136.8136  154.7263 C   0  0  0  0  0  0  0  0  0  0  0  0
  150.8054  138.1320  155.1177 N   0  0  0  0  0  0  0  0  0  0  0  0
  150.1491  139.2888  154.9240 C   0  0  0  0  0  0  0  0  0  0  0  0
  149.0406  139.3304  154.3880 O   0  0  0  0  0  0  0  0  0  0  0  0
  150.7845  140.3877  155.4018 N   0  0  0  0  0  0  0  0  0  0  0  0
  150.1745  141.6828  155.7367 C   0  0  0  0  0  0  0  0  0  0  0  0
  150.1824  141.8527  157.2682 C   0  0  0  0  0  0  0  0  0  0  0  0
  151.5566  141.7828  157.7804 N   0  0  0  0  0  0  0  0  0  0  0  0
  151.6218  142.1069  159.2160 C   0  0  1  0  0  0  0  0  0  0  0  0
  152.7551  141.3774  159.9707 C   0  0  0  0  0  0  0  0  0  0  0  0
  151.6390  143.6344  159.4641 C   0  0  0  0  0  0  0  0  0  0  0  0
  150.4533  144.1653  159.1634 F   0  0  0  0  0  0  0  0  0  0  0  0
  151.8763  143.8622  160.7558 F   0  0  0  0  0  0  0  0  0  0  0  0
  152.5836  144.2510  158.7539 F   0  0  0  0  0  0  0  0  0  0  0  0
  152.1952  140.5157  157.3980 C   0  0  0  0  0  0  0  0  0  0  0  0
  152.1744  140.3560  155.8655 C   0  0  0  0  0  0  0  0  0  0  0  0
  149.2812  133.9719  154.5132 C   0  0  0  0  0  0  0  0  0  0  0  0
  149.2516  132.6685  154.1613 N   0  0  0  0  0  0  0  0  0  0  0  0
  150.1757  129.6786  155.2877 H   0  0  0  0  0  0  0  0  0  0  0  0
  150.6005  130.1732  153.6443 H   0  0  0  0  0  0  0  0  0  0  0  0
  148.9031  130.0812  154.1334 H   0  0  0  0  0  0  0  0  0  0  0  0
  151.2964  131.4525  156.5899 H   0  0  0  0  0  0  0  0  0  0  0  0
  151.3414  133.8723  157.2296 H   0  0  0  0  0  0  0  0  0  0  0  0
  149.0448  136.2011  156.3736 H   0  0  0  0  0  0  0  0  0  0  0  0
  150.7512  136.1233  156.7374 H   0  0  0  0  0  0  0  0  0  0  0  0
  151.0898  136.3407  154.1138 H   0  0  0  0  0  0  0  0  0  0  0  0
  149.4370  136.9108  154.0944 H   0  0  0  0  0  0  0  0  0  0  0  0
  151.7037  138.1704  155.5767 H   0  0  0  0  0  0  0  0  0  0  0  0
  150.7487  142.4831  155.2670 H   0  0  0  0  0  0  0  0  0  0  0  0
  149.1564  141.8007  155.3666 H   0  0  0  0  0  0  0  0  0  0  0  0
  149.7423  142.8170  157.5242 H   0  0  0  0  0  0  0  0  0  0  0  0
  149.5622  141.0827  157.7276 H   0  0  0  0  0  0  0  0  0  0  0  0
  150.6799  141.7582  159.6419 H   0  0  0  0  0  0  0  0  0  0  0  0
  152.6848  141.5685  161.0414 H   0  0  0  0  0  0  0  0  0  0  0  0
  153.7413  141.7137  159.6511 H   0  0  0  0  0  0  0  0  0  0  0  0
  152.7093  140.2972  159.8386 H   0  0  0  0  0  0  0  0  0  0  0  0
  153.2292  140.4910  157.7356 H   0  0  0  0  0  0  0  0  0  0  0  0
  151.6817  139.6723  157.8609 H   0  0  0  0  0  0  0  0  0  0  0  0
  152.6894  139.4363  155.5850 H   0  0  0  0  0  0  0  0  0  0  0  0
  152.7345  141.1644  155.3928 H   0  0  0  0  0  0  0  0  0  0  0  0
  148.7024  134.6441  153.8968 H   0  0  0  0  0  0  0  0  0  0  0  0
  1  2  1  0  0  0  0
  1 25  1  0  0  0  0
  1 26  1  0  0  0  0
  1 27  1  0  0  0  0
  2 24  1  0  0  0  0
  2  3  2  0  0  0  0
  3  4  1  0  0  0  0
  3 28  1  0  0  0  0
  4  5  2  0  0  0  0
  4 29  1  0  0  0  0
  5  6  1  0  0  0  0
  5 23  1  0  0  0  0
  6  7  1  0  0  0  0
  6 30  1  0  0  0  0
  6 31  1  0  0  0  0
  7  8  1  0  0  0  0
  7 32  1  0  0  0  0
  7 33  1  0  0  0  0
  8  9  1  0  0  0  0
  8 34  1  0  0  0  0
  9 10  2  0  0  0  0
  9 11  1  0  0  0  0
 11 22  1  0  0  0  0
 11 12  1  0  0  0  0
 12 13  1  0  0  0  0
 12 35  1  0  0  0  0
 12 36  1  0  0  0  0
 13 14  1  0  0  0  0
 13 37  1  0  0  0  0
 13 38  1  0  0  0  0
 14 15  1  0  0  0  0
 14 21  1  0  0  0  0
 15 16  1  0  0  0  0
 15 17  1  0  0  0  0
 15 39  1  0  0  0  0
 16 40  1  0  0  0  0
 16 41  1  0  0  0  0
 16 42  1  0  0  0  0
 17 18  1  0  0  0  0
 17 19  1  0  0  0  0
 17 20  1  0  0  0  0
 21 22  1  0  0  0  0
 21 43  1  0  0  0  0
 21 44  1  0  0  0  0
 22 45  1  0  0  0  0
 22 46  1  0  0  0  0
 23 24  2  0  0  0  0
 23 47  1  0  0  0  0
M  END
> <s_m_source_file>
AV-unprocessed.smi

> <i_m_source_file_index>
906

> <i_lp_mmshare_version>
43012

> <i_f3d_flags>
0

> <s_epik_input>
W0NIM11jMVtjSF1bY0hdYyhbY0hdbjEpW0NIMl1bQ0gyXVtOSF1DKD1PKU4yW0NIMl1bQ0gyXU4oW0NASF0oW0NIM10pQyhGKShGKUYpW0NIMl1bQ0gyXTI=

> <s_epik_cmdline>
J2VwaWtfcHl0aG9uJywgJy1waCcsICc3LjAnLCAnLXRuJywgJzgnLCAnLW1hJywgJzIwMCcsICctbWV0YWxfYmluZGluZycsICctaW1hZScsICc8aW5maWxlLm1hZT4nLCAnLW9tYWUnLCAnPG91dGZpbGUubWFlPic=

> <r_epik_Ionization_Penalty>
0.0782886

> <r_epik_Ionization_Penalty_Charging>
0

> <r_epik_Ionization_Penalty_Neutral>
0.0782886

> <r_epik_State_Penalty>
0.0661423

> <r_epik_Charging_Adjusted_Penalty>
0.0661423

> <i_epik_Tot_Q>
0

> <i_epik_Tot_abs_Q>
0

> <r_epik_Metal_State_Penalty>
0.060629

> <b_epik_Metal_Only>
0

> <s_lp_Force_Field>
OPLS_2005

> <r_lp_Energy>
47.1211

> <b_lp_Chiralities_Consistent>
1

> <s_lp_Variant>
AV-unprocessed.smi:906-2

> <Gold.Version>
5.8.1

> <Gold.Id.Protein>
6NUR|6NUR_protein|mol2

> <Gold.PLP.Fitness>
44.8795

> <Gold.PLP.PLP>
-45.1717

> <Gold.PLP.part.hbond>
0.0000

> <Gold.PLP.part.metal>
0.0000

> <Gold.PLP.part.buried>
-2.6900

> <Gold.PLP.part.nonpolar>
-41.0000

> <Gold.PLP.part.repulsive>
0.3459

> <Gold.PLP.ligand.clash>
1.2085

> <Gold.PLP.ligand.torsion>
1.3874

> <Gold.PLP.Chemscore.Hbond>
0.0000

> <Gold.PLP.Chemscore.CHOScore>
0.9965

> <Gold.PLP.Chemscore.Metal>
0.0000

> <Gold.Chemscore.Hbonds>
donor molecule, donor type, donor heavy atom, donor atom, acceptor molecule, acceptor atom, score
      L1  C    23    47       P1  7948  0.93

> <Gold.PLP.Chemscore.Internal.Correction>
0.7016

> <Gold.Rescore>
     Score         DG    S(hbond)    S(metal)    S(lipo)     H(rot)  DE(clash)    DE(int)     intcor
     10.86     -12.66       0.00        0.00      96.03       1.58       0.03       1.77       ----

> <Gold.Chemscore.Fitness>
10.8567

> <Gold.Chemscore.DG>
-12.6606

> <Gold.Chemscore.ZeroCoef>
-5.4800

> <Gold.Chemscore.Hbond>
0.0000

> <Gold.Chemscore.Metal>
0.0000

> <Gold.Chemscore.Lipo>
96.0345

> <Gold.Chemscore.Internal_Hbond>
0.0000

> <Gold.Chemscore.DEClash>
0.0333

> <Gold.Chemscore.DEInternal>
1.7706

> <Gold.Chemscore.Rot>
1.5841

> <Gold.Chemscore.Internal.Correction>
   9.000000E+99

> <Gold.Chemscore.Hbond.Weighted>
-0.0000

> <Gold.Chemscore.Metal.Weighted>
-0.0000

> <Gold.Chemscore.Lipo.Weighted>
-11.2360

> <Gold.Chemscore.Internal_Hbond.Weighted>
0.0000

> <Gold.Chemscore.DEClash.Weighted>
0.0333

> <Gold.Chemscore.DEInternal.Weighted>
1.7706

> <Gold.Chemscore.Rot.Weighted>
4.0554

> <Gold.Chemscore.Internal.Correction.Weighted>
   9.000000E+99

> <Gold.Protein.RotatedTorsions>
[ 6907 6896 6895 6894 ] final -154.99 input  -60.11 | X-H torsion
[ 7974 7965 7964 7962 ] final    5.71 input  175.53 | X-H torsion
[ 8008 7997 7996 7995 ] final -151.51 input   59.86 | X-H torsion
[ 10167 10162 10161 10158 ] final  -37.03 input  -65.29 | X-H torsion
[ 10718 10713 10712 10709 ] final -171.77 input   66.30 | X-H torsion
[ 10763 10752 10751 10750 ] final   82.54 input  -60.55 | X-H torsion
[ 11005 11000 10999 10996 ] final  -42.94 input  -57.11 | X-H torsion

> <Gold.Protein.ActiveResidues>
 VAL166  LYS551  ARG553  GLY616  TRP617  ASP618  TYR619  PRO620  LYS621  CYS622 
 ASP623  PHE694  ASN695  SER759  ASP760  ASP761  ALA762  ILE779  LEU786  VAL792 
 PHE793  MET794  SER795  GLU796  ALA797  LYS798  CYS799  TRP800  GLU811  SER814 

> <Gold.Protein.RotatedAtoms>
  151.2657  133.4280  159.2618 H   0  0  0  0  0  0  0  0  0  0  0  0  # atno 6907 bound_to 6896
  151.0490  134.9660  159.8212 H   0  0  0  0  0  0  0  0  0  0  0  0  # atno 6908 bound_to 6896
  152.5379  134.2612  159.8989 H   0  0  0  0  0  0  0  0  0  0  0  0  # atno 6909 bound_to 6896
  146.2439  140.0343  142.8387 H   0  0  0  0  0  0  0  0  0  0  0  0  # atno 7974 bound_to 7965
  155.6405  140.0701  157.2620 H   0  0  0  0  0  0  0  0  0  0  0  0  # atno 8008 bound_to 7997
  154.4185  140.1751  156.1618 H   0  0  0  0  0  0  0  0  0  0  0  0  # atno 8009 bound_to 7997
  155.9859  140.3349  155.6710 H   0  0  0  0  0  0  0  0  0  0  0  0  # atno 8010 bound_to 7997
  140.7128  143.3369  151.2443 H   0  0  0  0  0  0  0  0  0  0  0  0  # atno 10167 bound_to 10162
  156.7457  130.9359  151.3112 H   0  0  0  0  0  0  0  0  0  0  0  0  # atno 10718 bound_to 10713
  153.1211  135.4724  154.9198 H   0  0  0  0  0  0  0  0  0  0  0  0  # atno 10763 bound_to 10752
  154.7577  135.3123  154.8441 H   0  0  0  0  0  0  0  0  0  0  0  0  # atno 10764 bound_to 10752
  153.9005  135.6875  153.4809 H   0  0  0  0  0  0  0  0  0  0  0  0  # atno 10765 bound_to 10752
  141.0350  133.6804  156.2664 H   0  0  0  0  0  0  0  0  0  0  0  0  # atno 11005 bound_to 11000
  145.1126  140.9414  143.4647 LP  0  0  0  0  0  0  0  0  0  0  0  0  # atno 17320 bound_to 7965
  145.0560  139.3143  143.5904 LP  0  0  0  0  0  0  0  0  0  0  0  0  # atno 17321 bound_to 7965
  139.6866  143.9763  152.2837 LP  0  0  0  0  0  0  0  0  0  0  0  0  # atno 17342 bound_to 10162
  139.9410  144.6681  150.8266 LP  0  0  0  0  0  0  0  0  0  0  0  0  # atno 17343 bound_to 10162
  157.6799  130.9130  150.0241 LP  0  0  0  0  0  0  0  0  0  0  0  0  # atno 17370 bound_to 10713
  156.1434  130.3642  149.9547 LP  0  0  0  0  0  0  0  0  0  0  0  0  # atno 17371 bound_to 10713
  140.6338  134.5236  157.5562 LP  0  0  0  0  0  0  0  0  0  0  0  0  # atno 17394 bound_to 11000
  139.9234  134.8103  156.1141 LP  0  0  0  0  0  0  0  0  0  0  0  0  # atno 17395 bound_to 11000

$$$$
