AV-unprocessed.smi:927|AV-procd|sdf|4187|dock7
  -GOLD-   22720 2 93D 1   1.00000     0.00000
 Structure written by MMmdl.
 21 21  0  0  0  0  0  0  0  0  2 V2000
  146.1347  137.0876  152.5338 N   0  3  0  0  0  0  0  0  0  0  0  0
  145.2502  135.9563  152.2030 C   0  0  0  0  0  0  0  0  0  0  0  0
  145.5303  135.4039  150.7939 C   0  0  2  0  0  0  0  0  0  0  0  0
  144.8158  136.1792  149.8509 O   0  0  0  0  0  0  0  0  0  0  0  0
  145.1694  133.9297  150.6989 C   0  0  0  0  0  0  0  0  0  0  0  0
  146.1642  132.9651  150.4342 C   0  0  0  0  0  0  0  0  0  0  0  0
  145.7859  131.6093  150.3600 C   0  0  0  0  0  0  0  0  0  0  0  0
  144.5165  131.1834  150.5321 N   0  0  0  0  0  0  0  0  0  0  0  0
  143.5682  132.1099  150.7871 C   0  0  0  0  0  0  0  0  0  0  0  0
  143.8404  133.4893  150.8821 C   0  0  0  0  0  0  0  0  0  0  0  0
  145.8427  137.9072  152.0208 H   0  0  0  0  0  0  0  0  0  0  0  0
  147.0836  136.8510  152.2804 H   0  0  0  0  0  0  0  0  0  0  0  0
  145.4087  135.1763  152.9486 H   0  0  0  0  0  0  0  0  0  0  0  0
  144.2118  136.2778  152.2940 H   0  0  0  0  0  0  0  0  0  0  0  0
  146.5920  135.5142  150.5674 H   0  0  0  0  0  0  0  0  0  0  0  0
  144.9089  135.7769  149.0001 H   0  0  0  0  0  0  0  0  0  0  0  0
  147.1958  133.2512  150.2900 H   0  0  0  0  0  0  0  0  0  0  0  0
  146.5236  130.8467  150.1585 H   0  0  0  0  0  0  0  0  0  0  0  0
  142.5620  131.7411  150.9214 H   0  0  0  0  0  0  0  0  0  0  0  0
  143.0442  134.1886  151.0914 H   0  0  0  0  0  0  0  0  0  0  0  0
  146.0889  137.2747  153.5252 H   0  0  0  0  0  0  0  0  0  0  0  0
  1  2  1  0  0  0  0
  1 11  1  0  0  0  0
  1 12  1  0  0  0  0
  1 21  1  0  0  0  0
  2  3  1  0  0  0  0
  2 13  1  0  0  0  0
  2 14  1  0  0  0  0
  3  4  1  0  0  0  0
  3  5  1  0  0  0  0
  3 15  1  0  0  0  0
  4 16  1  0  0  0  0
  5 10  1  0  0  0  0
  5  6  2  0  0  0  0
  6  7  1  0  0  0  0
  6 17  1  0  0  0  0
  7  8  2  0  0  0  0
  7 18  1  0  0  0  0
  8  9  1  0  0  0  0
  9 10  2  0  0  0  0
  9 19  1  0  0  0  0
 10 20  1  0  0  0  0
M  CHG  1   1   1
M  END
> <s_m_source_file>
AV-unprocessed.smi

> <i_m_source_file_index>
927

> <i_lp_mmshare_version>
43012

> <i_f3d_flags>
0

> <s_epik_input>
W05IMl1bQ0gyXVtDQEhdKFtPSF0pYzFbY0hdW2NIXW5bY0hdW2NIXTE=

> <s_epik_cmdline>
J2VwaWtfcHl0aG9uJywgJy1waCcsICc3LjAnLCAnLXRuJywgJzgnLCAnLW1hJywgJzIwMCcsICctbWV0YWxfYmluZGluZycsICctaW1hZScsICc8aW5maWxlLm1hZT4nLCAnLW9tYWUnLCAnPG91dGZpbGUubWFlPic=

> <r_epik_Ionization_Penalty>
0.0159363

> <r_epik_Ionization_Penalty_Charging>
0.0140431

> <r_epik_Ionization_Penalty_Neutral>
0.00189321

> <r_epik_State_Penalty>
0.0109628

> <r_epik_Charging_Adjusted_Penalty>
0.0250059

> <i_epik_Tot_Q>
1

> <i_epik_Tot_abs_Q>
1

> <r_epik_Metal_State_Penalty>
0.0113463

> <b_epik_Metal_Only>
0

> <s_lp_Force_Field>
OPLS_2005

> <r_lp_Energy>
4.52457

> <b_lp_Chiralities_Consistent>
1

> <s_lp_Variant>
AV-unprocessed.smi:927-1

> <Gold.Version>
5.8.1

> <Gold.Id.Protein>
6NUR|6NUR_protein|mol2

> <Gold.PLP.Fitness>
36.3202

> <Gold.PLP.PLP>
-21.8078

> <Gold.PLP.part.hbond>
-4.0000

> <Gold.PLP.part.metal>
0.0000

> <Gold.PLP.part.buried>
-2.9627

> <Gold.PLP.part.nonpolar>
-16.1360

> <Gold.PLP.part.repulsive>
0.1498

> <Gold.PLP.ligand.clash>
0.0000

> <Gold.PLP.ligand.torsion>
0.3075

> <Gold.PLP.Chemscore.Hbond>
3.0474

> <Gold.PLP.Chemscore.CHOScore>
1.9928

> <Gold.PLP.Chemscore.Metal>
0.0000

> <Gold.Chemscore.Hbonds>
donor molecule, donor type, donor heavy atom, donor atom, acceptor molecule, acceptor atom, score
      L1  H     1    12       P1  7948  2.00
      L1  H     4    16       P1  7921  0.89
      L1  C     7    18       P1 10747  1.00
      L1  C     9    19       P1 10952  0.74

> <Gold.PLP.Chemscore.Internal.Correction>
0.0066

> <Gold.Rescore>
     Score         DG    S(hbond)    S(metal)    S(lipo)     H(rot)  DE(clash)    DE(int)     intcor
     14.88     -15.19       2.46        0.00      54.21       1.90       0.08       0.22       ----

> <Gold.Chemscore.Fitness>
14.8833

> <Gold.Chemscore.DG>
-15.1902

> <Gold.Chemscore.ZeroCoef>
-5.4800

> <Gold.Chemscore.Hbond>
2.4632

> <Gold.Chemscore.Metal>
0.0000

> <Gold.Chemscore.Lipo>
54.2067

> <Gold.Chemscore.Internal_Hbond>
0.0000

> <Gold.Chemscore.DEClash>
0.0841

> <Gold.Chemscore.DEInternal>
0.2227

> <Gold.Chemscore.Rot>
1.8981

> <Gold.Chemscore.Internal.Correction>
   9.000000E+99

> <Gold.Chemscore.Hbonds>
donor molecule, donor type, donor heavy atom, donor atom, acceptor molecule, acceptor atom, score
      L1  H     1    12       P1  7948  0.96
      L1  H     4    16       P1  7921  0.82

> <Gold.Chemscore.Hbond.Weighted>
-8.2272

> <Gold.Chemscore.Metal.Weighted>
-0.0000

> <Gold.Chemscore.Lipo.Weighted>
-6.3422

> <Gold.Chemscore.Internal_Hbond.Weighted>
0.0000

> <Gold.Chemscore.DEClash.Weighted>
0.0841

> <Gold.Chemscore.DEInternal.Weighted>
0.2227

> <Gold.Chemscore.Rot.Weighted>
4.8592

> <Gold.Chemscore.Internal.Correction.Weighted>
   9.000000E+99

> <Gold.Protein.RotatedTorsions>
[ 6907 6896 6895 6894 ] final  149.32 input  -60.11 | X-H torsion
[ 7974 7965 7964 7962 ] final   65.92 input  175.53 | X-H torsion
[ 8008 7997 7996 7995 ] final   76.04 input   59.86 | X-H torsion
[ 10167 10162 10161 10158 ] final  133.03 input  -65.29 | X-H torsion
[ 10718 10713 10712 10709 ] final  123.38 input   66.30 | X-H torsion
[ 10763 10752 10751 10750 ] final  -93.67 input  -60.55 | X-H torsion
[ 11005 11000 10999 10996 ] final  103.74 input  -57.11 | X-H torsion

> <Gold.Protein.ActiveResidues>
 VAL166  LYS551  ARG553  GLY616  TRP617  ASP618  TYR619  PRO620  LYS621  CYS622 
 ASP623  PHE694  ASN695  SER759  ASP760  ASP761  ALA762  ILE779  LEU786  VAL792 
 PHE793  MET794  SER795  GLU796  ALA797  LYS798  CYS799  TRP800  GLU811  SER814 

> <Gold.Protein.RotatedAtoms>
  152.1296  133.4400  159.4714 H   0  0  0  0  0  0  0  0  0  0  0  0  # atno 6907 bound_to 6896
  150.6877  134.2436  159.4491 H   0  0  0  0  0  0  0  0  0  0  0  0  # atno 6908 bound_to 6896
  152.0319  134.9762  160.0623 H   0  0  0  0  0  0  0  0  0  0  0  0  # atno 6909 bound_to 6896
  145.8328  139.3149  143.0977 H   0  0  0  0  0  0  0  0  0  0  0  0  # atno 7974 bound_to 7965
  155.8215  140.3469  155.5517 H   0  0  0  0  0  0  0  0  0  0  0  0  # atno 8008 bound_to 7997
  155.8336  140.0931  157.1797 H   0  0  0  0  0  0  0  0  0  0  0  0  # atno 8009 bound_to 7997
  154.4004  140.1407  156.3631 H   0  0  0  0  0  0  0  0  0  0  0  0  # atno 8010 bound_to 7997
  139.5314  144.6635  151.4936 H   0  0  0  0  0  0  0  0  0  0  0  0  # atno 10167 bound_to 10162
  157.5669  131.1086  150.8438 H   0  0  0  0  0  0  0  0  0  0  0  0  # atno 10718 bound_to 10713
  154.6981  135.5186  153.8488 H   0  0  0  0  0  0  0  0  0  0  0  0  # atno 10763 bound_to 10752
  153.0683  135.6592  154.0314 H   0  0  0  0  0  0  0  0  0  0  0  0  # atno 10764 bound_to 10752
  154.0177  135.2996  155.3364 H   0  0  0  0  0  0  0  0  0  0  0  0  # atno 10765 bound_to 10752
  139.8786  134.9274  156.5255 H   0  0  0  0  0  0  0  0  0  0  0  0  # atno 11005 bound_to 11000
  145.9552  140.8878  143.0239 LP  0  0  0  0  0  0  0  0  0  0  0  0  # atno 17320 bound_to 7965
  144.6738  140.1736  143.7412 LP  0  0  0  0  0  0  0  0  0  0  0  0  # atno 17321 bound_to 7965
  140.6495  143.8726  150.6771 LP  0  0  0  0  0  0  0  0  0  0  0  0  # atno 17342 bound_to 10162
  140.2086  143.3901  152.1736 LP  0  0  0  0  0  0  0  0  0  0  0  0  # atno 17343 bound_to 10162
  156.8920  130.5216  149.5286 LP  0  0  0  0  0  0  0  0  0  0  0  0  # atno 17370 bound_to 10713
  156.0717  130.5748  150.9395 LP  0  0  0  0  0  0  0  0  0  0  0  0  # atno 17371 bound_to 10713
  140.8419  133.8199  155.9083 LP  0  0  0  0  0  0  0  0  0  0  0  0  # atno 17394 bound_to 11000
  140.9229  134.2119  157.4915 LP  0  0  0  0  0  0  0  0  0  0  0  0  # atno 17395 bound_to 11000

$$$$
