AV-unprocessed.smi:218|AV-procd|sdf|1665|dock9
  -GOLD-   2262020 73D 1   1.00000     0.00000
 Structure written by MMmdl.
 54 57  0  0  0  0  0  0  0  0  1 V2000
  151.5843  142.1990  156.3025 C   0  0  0  0  0  0  0  0  0  0  0  0
  151.1393  141.2754  157.4430 C   0  0  0  0  0  0  0  0  0  0  0  0
  151.5129  141.8647  158.8141 C   0  0  0  0  0  0  0  0  0  0  0  0
  151.7978  140.0229  157.2442 O   0  0  0  0  0  0  0  0  0  0  0  0
  151.3653  139.1598  156.2556 C   0  0  0  0  0  0  0  0  0  0  0  0
  150.1752  138.4363  156.4746 C   0  0  0  0  0  0  0  0  0  0  0  0
  149.7269  137.5454  155.4789 C   0  0  0  0  0  0  0  0  0  0  0  0
  148.4502  136.7561  155.6706 C   0  0  0  0  0  0  0  0  0  0  0  0
  148.6742  135.3179  155.6507 N   0  0  0  0  0  0  0  0  0  0  0  0
  148.0720  134.5524  154.7158 C   0  0  0  0  0  0  0  0  0  0  0  0
  147.8167  133.2379  154.9459 N   0  0  0  0  0  0  0  0  0  0  0  0
  147.2206  132.5003  154.0047 C   0  0  0  0  0  0  0  0  0  0  0  0
  146.8096  132.8720  152.7909 N   0  0  0  0  0  0  0  0  0  0  0  0
  147.0616  134.1919  152.5527 C   0  0  0  0  0  0  0  0  0  0  0  0
  147.6856  135.0923  153.4617 C   0  0  0  0  0  0  0  0  0  0  0  0
  147.7801  136.3527  152.8875 N   0  0  0  0  0  0  0  0  0  0  0  0
  147.2413  136.2020  151.7077 C   0  0  0  0  0  0  0  0  0  0  0  0
  146.7834  134.9352  151.4212 N   0  0  0  0  0  0  0  0  0  0  0  0
  146.1238  134.4842  150.1537 C   0  0  1  0  0  0  0  0  0  0  0  0
  146.0426  135.5431  149.2458 O   0  0  0  0  0  0  0  0  0  0  0  0
  146.3166  135.1043  147.9103 C   0  0  1  0  0  0  0  0  0  0  0  0
  147.6073  135.7998  147.4299 C   0  0  0  0  0  0  0  0  0  0  0  0
  147.9777  135.2959  146.1649 O   0  0  0  0  0  0  0  0  0  0  0  0
  146.4087  133.5718  148.0294 C   0  0  1  0  0  0  0  0  0  0  0  0
  147.2118  132.9198  147.0626 O   0  0  0  0  0  0  0  0  0  0  0  0
  146.8716  133.3433  149.4577 C   0  0  1  0  0  0  0  0  0  0  0  0
  148.2797  133.4194  149.6072 O   0  0  0  0  0  0  0  0  0  0  0  0
  150.4818  137.4169  154.2961 C   0  0  0  0  0  0  0  0  0  0  0  0
  151.6574  138.1815  154.1674 C   0  0  0  0  0  0  0  0  0  0  0  0
  152.0958  139.0319  155.1199 N   0  0  0  0  0  0  0  0  0  0  0  0
  145.1139  134.1987  150.4519 H   0  0  0  0  0  0  0  0  0  0  0  0
  145.4894  135.3685  147.2501 H   0  0  0  0  0  0  0  0  0  0  0  0
  145.3993  133.1681  147.9357 H   0  0  0  0  0  0  0  0  0  0  0  0
  146.5326  132.3843  149.8506 H   0  0  0  0  0  0  0  0  0  0  0  0
  151.1066  143.1761  156.3791 H   0  0  0  0  0  0  0  0  0  0  0  0
  151.3192  141.7766  155.3329 H   0  0  0  0  0  0  0  0  0  0  0  0
  152.6638  142.3525  156.3150 H   0  0  0  0  0  0  0  0  0  0  0  0
  150.0565  141.1671  157.3655 H   0  0  0  0  0  0  0  0  0  0  0  0
  151.0470  142.8395  158.9594 H   0  0  0  0  0  0  0  0  0  0  0  0
  152.5914  141.9943  158.9051 H   0  0  0  0  0  0  0  0  0  0  0  0
  151.1876  141.2236  159.6331 H   0  0  0  0  0  0  0  0  0  0  0  0
  149.6180  138.5643  157.3912 H   0  0  0  0  0  0  0  0  0  0  0  0
  147.9934  137.0411  156.6194 H   0  0  0  0  0  0  0  0  0  0  0  0
  147.7479  137.0273  154.8811 H   0  0  0  0  0  0  0  0  0  0  0  0
  149.2751  134.9492  156.3737 H   0  0  0  0  0  0  0  0  0  0  0  0
  147.0495  131.4645  154.2585 H   0  0  0  0  0  0  0  0  0  0  0  0
  147.1603  137.0196  151.0063 H   0  0  0  0  0  0  0  0  0  0  0  0
  147.4994  136.8826  147.3882 H   0  0  0  0  0  0  0  0  0  0  0  0
  148.4354  135.5877  148.1056 H   0  0  0  0  0  0  0  0  0  0  0  0
  148.8162  134.8676  146.2508 H   0  0  0  0  0  0  0  0  0  0  0  0
  147.9833  133.4443  146.9099 H   0  0  0  0  0  0  0  0  0  0  0  0
  148.5912  132.5808  149.9121 H   0  0  0  0  0  0  0  0  0  0  0  0
  150.1695  136.7506  153.5054 H   0  0  0  0  0  0  0  0  0  0  0  0
  152.2619  138.1086  153.2755 H   0  0  0  0  0  0  0  0  0  0  0  0
  1  2  1  0  0  0  0
  1 35  1  0  0  0  0
  1 36  1  0  0  0  0
  1 37  1  0  0  0  0
  2  3  1  0  0  0  0
  2  4  1  0  0  0  0
  2 38  1  0  0  0  0
  3 39  1  0  0  0  0
  3 40  1  0  0  0  0
  3 41  1  0  0  0  0
  4  5  1  0  0  0  0
  5 30  1  0  0  0  0
  5  6  2  0  0  0  0
  6  7  1  0  0  0  0
  6 42  1  0  0  0  0
  7  8  1  0  0  0  0
  7 28  2  0  0  0  0
  8  9  1  0  0  0  0
  8 43  1  0  0  0  0
  8 44  1  0  0  0  0
  9 10  1  0  0  0  0
  9 45  1  0  0  0  0
 10 15  1  0  0  0  0
 10 11  2  0  0  0  0
 11 12  1  0  0  0  0
 12 13  2  0  0  0  0
 12 46  1  0  0  0  0
 13 14  1  0  0  0  0
 14 18  1  0  0  0  0
 14 15  2  0  0  0  0
 15 16  1  0  0  0  0
 16 17  2  0  0  0  0
 17 18  1  0  0  0  0
 17 47  1  0  0  0  0
 18 19  1  0  0  0  0
 19 31  1  0  0  0  0
 19 26  1  0  0  0  0
 19 20  1  0  0  0  0
 20 21  1  0  0  0  0
 21 32  1  0  0  0  0
 21 22  1  0  0  0  0
 21 24  1  0  0  0  0
 22 23  1  0  0  0  0
 22 48  1  0  0  0  0
 22 49  1  0  0  0  0
 23 50  1  0  0  0  0
 24 33  1  0  0  0  0
 24 25  1  0  0  0  0
 24 26  1  0  0  0  0
 25 51  1  0  0  0  0
 26 34  1  0  0  0  0
 26 27  1  0  0  0  0
 27 52  1  0  0  0  0
 28 29  1  0  0  0  0
 28 53  1  0  0  0  0
 29 30  2  0  0  0  0
 29 54  1  0  0  0  0
M  END
> <s_m_source_file>
AV-unprocessed.smi

> <i_m_source_file_index>
218

> <i_lp_mmshare_version>
43012

> <i_f3d_flags>
0

> <s_epik_input>
W0NIM11bQ0hdKFtDSDNdKU9jMVtjSF1jKFtjSF1bY0hdbjEpW0NIMl1bTkhdYyhuW2NIXW4yKWMoYzIzKW5bY0hdbjNbQ0BASF00T1tDQEhdKFtDSDJdW09IXSlbQ0BASF0oW09IXSlbQ0BIXTRbT0hd

> <s_epik_cmdline>
J2VwaWtfcHl0aG9uJywgJy1waCcsICc3LjAnLCAnLXRuJywgJzgnLCAnLW1hJywgJzIwMCcsICctbWV0YWxfYmluZGluZycsICctaW1hZScsICc8aW5maWxlLm1hZT4nLCAnLW9tYWUnLCAnPG91dGZpbGUubWFlPic=

> <r_lp_tautomer_probability>
1

> <r_epik_Ionization_Penalty>
0.00457014

> <r_epik_Ionization_Penalty_Charging>
0

> <r_epik_Ionization_Penalty_Neutral>
0.00457014

> <r_epik_State_Penalty>
-0

> <r_epik_Charging_Adjusted_Penalty>
0

> <i_epik_Tot_Q>
0

> <i_epik_Tot_abs_Q>
0

> <r_epik_Metal_State_Penalty>
-0

> <b_epik_Metal_Only>
0

> <s_epik_Chemistry_Notes>
This compound contains an acetal/aminal-like group ( X-CH(R)-Y where X, Y are N, S, or O) that may be acid/base labile, releasing an aldehyde.

> <s_lp_Force_Field>
OPLS_2005

> <r_lp_Energy>
50.2222

> <b_lp_Chiralities_Consistent>
1

> <s_lp_Variant>
AV-unprocessed.smi:218-4

> <Gold.Version>
5.8.1

> <Gold.Id.Protein>
6NUR|6NUR_protein|mol2

> <Gold.PLP.Fitness>
58.9794

> <Gold.PLP.PLP>
-44.0986

> <Gold.PLP.part.hbond>
-5.0274

> <Gold.PLP.part.metal>
0.0000

> <Gold.PLP.part.buried>
-5.1460

> <Gold.PLP.part.nonpolar>
-32.2424

> <Gold.PLP.part.repulsive>
1.3516

> <Gold.PLP.ligand.clash>
0.0000

> <Gold.PLP.ligand.torsion>
0.4563

> <Gold.PLP.Chemscore.Hbond>
4.3087

> <Gold.PLP.Chemscore.CHOScore>
0.9004

> <Gold.PLP.Chemscore.Metal>
0.0000

> <Gold.Chemscore.Hbonds>
donor molecule, donor type, donor heavy atom, donor atom, acceptor molecule, acceptor atom, score
      L1  H    27    52       P1 10747  1.00

> <Gold.PLP.Chemscore.Internal.Correction>
0.1658

> <Gold.Rescore>
     Score         DG    S(hbond)    S(metal)    S(lipo)     H(rot)  DE(clash)    DE(int)     intcor
      7.66     -11.44       2.66        0.00      82.27       4.90       0.88       2.90       ----

> <Gold.Chemscore.Fitness>
7.6649

> <Gold.Chemscore.DG>
-11.4425

> <Gold.Chemscore.ZeroCoef>
-5.4800

> <Gold.Chemscore.Hbond>
2.6610

> <Gold.Chemscore.Metal>
0.0000

> <Gold.Chemscore.Lipo>
82.2749

> <Gold.Chemscore.Internal_Hbond>
0.0000

> <Gold.Chemscore.DEClash>
0.8790

> <Gold.Chemscore.DEInternal>
2.8987

> <Gold.Chemscore.Rot>
4.9029

> <Gold.Chemscore.Internal.Correction>
   9.000000E+99

> <Gold.Chemscore.Hbonds>
donor molecule, donor type, donor heavy atom, donor atom, acceptor molecule, acceptor atom, score
      L1  H    27    52       P1 10747  0.99

> <Gold.Chemscore.Hbond.Weighted>
-8.8879

> <Gold.Chemscore.Metal.Weighted>
-0.0000

> <Gold.Chemscore.Lipo.Weighted>
-9.6262

> <Gold.Chemscore.Internal_Hbond.Weighted>
0.0000

> <Gold.Chemscore.DEClash.Weighted>
0.8790

> <Gold.Chemscore.DEInternal.Weighted>
2.8987

> <Gold.Chemscore.Rot.Weighted>
12.5515

> <Gold.Chemscore.Internal.Correction.Weighted>
   9.000000E+99

> <Gold.Protein.RotatedTorsions>
[ 6907 6896 6895 6894 ] final  -25.41 input  -60.11 | X-H torsion
[ 7974 7965 7964 7962 ] final  -65.08 input  175.53 | X-H torsion
[ 8008 7997 7996 7995 ] final   49.99 input   59.86 | X-H torsion
[ 10167 10162 10161 10158 ] final  -80.60 input  -65.29 | X-H torsion
[ 10718 10713 10712 10709 ] final  177.59 input   66.30 | X-H torsion
[ 10763 10752 10751 10750 ] final   74.04 input  -60.55 | X-H torsion
[ 11005 11000 10999 10996 ] final -139.66 input  -57.11 | X-H torsion

> <Gold.Protein.ActiveResidues>
 VAL166  LYS551  ARG553  GLY616  TRP617  ASP618  TYR619  PRO620  LYS621  CYS622 
 ASP623  PHE694  ASN695  SER759  ASP760  ASP761  ALA762  ILE779  LEU786  VAL792 
 PHE793  MET794  SER795  GLU796  ALA797  LYS798  CYS799  TRP800  GLU811  SER814 

> <Gold.Protein.RotatedAtoms>
  151.1756  135.0338  159.8770 H   0  0  0  0  0  0  0  0  0  0  0  0  # atno 6907 bound_to 6896
  152.5447  134.1121  159.8373 H   0  0  0  0  0  0  0  0  0  0  0  0  # atno 6908 bound_to 6896
  151.1232  133.5042  159.2634 H   0  0  0  0  0  0  0  0  0  0  0  0  # atno 6909 bound_to 6896
  145.7588  140.8872  143.0441 H   0  0  0  0  0  0  0  0  0  0  0  0  # atno 7974 bound_to 7965
  155.4113  140.3442  155.4264 H   0  0  0  0  0  0  0  0  0  0  0  0  # atno 8008 bound_to 7997
  156.1447  140.1552  156.8897 H   0  0  0  0  0  0  0  0  0  0  0  0  # atno 8009 bound_to 7997
  154.5000  140.0817  156.7759 H   0  0  0  0  0  0  0  0  0  0  0  0  # atno 8010 bound_to 7997
  140.4489  143.2490  151.8518 H   0  0  0  0  0  0  0  0  0  0  0  0  # atno 10167 bound_to 10162
  156.9032  130.9885  151.3032 H   0  0  0  0  0  0  0  0  0  0  0  0  # atno 10718 bound_to 10713
  153.0560  135.5040  154.7983 H   0  0  0  0  0  0  0  0  0  0  0  0  # atno 10763 bound_to 10752
  154.6808  135.2968  154.9618 H   0  0  0  0  0  0  0  0  0  0  0  0  # atno 10764 bound_to 10752
  154.0404  135.6717  153.4842 H   0  0  0  0  0  0  0  0  0  0  0  0  # atno 10765 bound_to 10752
  140.8498  134.2300  157.4766 H   0  0  0  0  0  0  0  0  0  0  0  0  # atno 11005 bound_to 11000
  144.6835  139.9693  143.7482 LP  0  0  0  0  0  0  0  0  0  0  0  0  # atno 17320 bound_to 7965
  146.0285  139.3313  143.0770 LP  0  0  0  0  0  0  0  0  0  0  0  0  # atno 17321 bound_to 7965
  139.4795  144.5144  151.8889 LP  0  0  0  0  0  0  0  0  0  0  0  0  # atno 17342 bound_to 10162
  140.4231  144.2216  150.5887 LP  0  0  0  0  0  0  0  0  0  0  0  0  # atno 17343 bound_to 10162
  157.6013  130.8515  149.8807 LP  0  0  0  0  0  0  0  0  0  0  0  0  # atno 17370 bound_to 10713
  156.0572  130.3706  150.1064 LP  0  0  0  0  0  0  0  0  0  0  0  0  # atno 17371 bound_to 10713
  139.8704  134.9677  156.4607 LP  0  0  0  0  0  0  0  0  0  0  0  0  # atno 17394 bound_to 11000
  140.8803  133.7923  155.9459 LP  0  0  0  0  0  0  0  0  0  0  0  0  # atno 17395 bound_to 11000

$$$$
