AV-unprocessed.smi:1967|AV-procd|sdf|7954|dock4
  -GOLD-   2272010123D 1   1.00000     0.00000
 Structure written by MMmdl.
 37 38  0  0  0  0  0  0  0  0  1 V2000
  153.2254  136.5957  158.4912 O   0  0  0  0  0  0  0  0  0  0  0  0
  152.0361  137.4511  158.6232 S   0  0  0  0  0  0  0  0  0  0  0  0
  150.7853  136.9253  159.1917 O   0  0  0  0  0  0  0  0  0  0  0  0
  152.4690  138.8612  159.5117 N   0  0  0  0  0  0  0  0  0  0  0  0
  152.0827  140.1668  158.9791 C   0  0  0  0  0  0  0  0  0  0  0  0
  153.1711  141.2160  159.2565 C   0  0  0  0  0  0  0  0  0  0  0  0
  152.6708  142.6445  159.1277 C   0  0  0  0  0  0  0  0  0  0  0  0
  152.7431  143.5358  160.2200 C   0  0  0  0  0  0  0  0  0  0  0  0
  152.2732  144.8519  160.0447 C   0  0  0  0  0  0  0  0  0  0  0  0
  151.7515  145.2241  158.7908 C   0  0  0  0  0  0  0  0  0  0  0  0
  151.7238  144.2601  157.7633 C   0  0  0  0  0  0  0  0  0  0  0  0
  152.1731  142.9962  157.9207 N   0  0  0  0  0  0  0  0  0  0  0  0
  151.6982  138.1729  157.0843 N   0  0  0  0  0  0  0  0  0  0  0  0
  152.5162  137.7287  155.9347 C   0  0  0  0  0  0  0  0  0  0  0  0
  152.3634  138.6717  154.7299 C   0  0  0  0  0  0  0  0  0  0  0  0
  150.8925  138.8403  154.3417 C   0  0  0  0  0  0  0  0  0  0  0  0
  150.1077  139.3411  155.5569 C   0  0  0  0  0  0  0  0  0  0  0  0
  150.2750  138.3950  156.7577 C   0  0  0  0  0  0  0  0  0  0  0  0
  153.4418  138.8339  159.8168 H   0  0  0  0  0  0  0  0  0  0  0  0
  151.8962  140.0788  157.9082 H   0  0  0  0  0  0  0  0  0  0  0  0
  151.1454  140.4731  159.4443 H   0  0  0  0  0  0  0  0  0  0  0  0
  153.5629  141.0739  160.2645 H   0  0  0  0  0  0  0  0  0  0  0  0
  154.0149  141.0638  158.5820 H   0  0  0  0  0  0  0  0  0  0  0  0
  153.1520  143.2206  161.1690 H   0  0  0  0  0  0  0  0  0  0  0  0
  152.3131  145.5628  160.8568 H   0  0  0  0  0  0  0  0  0  0  0  0
  151.3810  146.2240  158.6195 H   0  0  0  0  0  0  0  0  0  0  0  0
  151.3303  144.5110  156.7895 H   0  0  0  0  0  0  0  0  0  0  0  0
  153.5662  137.6779  156.2204 H   0  0  0  0  0  0  0  0  0  0  0  0
  152.2174  136.7161  155.6606 H   0  0  0  0  0  0  0  0  0  0  0  0
  152.7943  139.6448  154.9699 H   0  0  0  0  0  0  0  0  0  0  0  0
  152.9292  138.2839  153.8823 H   0  0  0  0  0  0  0  0  0  0  0  0
  150.7974  139.5425  153.5131 H   0  0  0  0  0  0  0  0  0  0  0  0
  150.4847  137.8885  153.9986 H   0  0  0  0  0  0  0  0  0  0  0  0
  150.4512  140.3401  155.8292 H   0  0  0  0  0  0  0  0  0  0  0  0
  149.0514  139.4361  155.3041 H   0  0  0  0  0  0  0  0  0  0  0  0
  149.8053  137.4322  156.5516 H   0  0  0  0  0  0  0  0  0  0  0  0
  149.7622  138.8175  157.6217 H   0  0  0  0  0  0  0  0  0  0  0  0
  1  2  2  0  0  0  0
  2  3  2  0  0  0  0
  2  4  1  0  0  0  0
  2 13  1  0  0  0  0
  4  5  1  0  0  0  0
  4 19  1  0  0  0  0
  5  6  1  0  0  0  0
  5 20  1  0  0  0  0
  5 21  1  0  0  0  0
  6  7  1  0  0  0  0
  6 22  1  0  0  0  0
  6 23  1  0  0  0  0
  7 12  1  0  0  0  0
  7  8  2  0  0  0  0
  8  9  1  0  0  0  0
  8 24  1  0  0  0  0
  9 10  2  0  0  0  0
  9 25  1  0  0  0  0
 10 11  1  0  0  0  0
 10 26  1  0  0  0  0
 11 12  2  0  0  0  0
 11 27  1  0  0  0  0
 13 18  1  0  0  0  0
 13 14  1  0  0  0  0
 14 15  1  0  0  0  0
 14 28  1  0  0  0  0
 14 29  1  0  0  0  0
 15 16  1  0  0  0  0
 15 30  1  0  0  0  0
 15 31  1  0  0  0  0
 16 17  1  0  0  0  0
 16 32  1  0  0  0  0
 16 33  1  0  0  0  0
 17 18  1  0  0  0  0
 17 34  1  0  0  0  0
 17 35  1  0  0  0  0
 18 36  1  0  0  0  0
 18 37  1  0  0  0  0
M  END
> <s_m_source_file>
AV-unprocessed.smi

> <i_m_source_file_index>
1967

> <i_lp_mmshare_version>
43012

> <i_f3d_flags>
0

> <s_epik_input>
W0NIMl0xW0NIMl1bQ0gyXVtDSDJdW0NIMl1OMVMoPU8pKD1PKVtOSF1bQ0gyXVtDSDJdYzJbY0hdW2NIXVtjSF1bY0hdbjI=

> <s_epik_cmdline>
J2VwaWtfcHl0aG9uJywgJy1waCcsICc3LjAnLCAnLXRuJywgJzgnLCAnLW1hJywgJzIwMCcsICctbWV0YWxfYmluZGluZycsICctaW1hZScsICc8aW5maWxlLm1hZT4nLCAnLW9tYWUnLCAnPG91dGZpbGUubWFlPic=

> <r_epik_Ionization_Penalty>
0.0252758

> <r_epik_Ionization_Penalty_Charging>
0

> <r_epik_Ionization_Penalty_Neutral>
0.0252758

> <r_epik_State_Penalty>
0.0138562

> <r_epik_Charging_Adjusted_Penalty>
0.0138562

> <i_epik_Tot_Q>
0

> <i_epik_Tot_abs_Q>
0

> <r_epik_Metal_State_Penalty>
0.204365

> <b_epik_Metal_Only>
0

> <s_lp_Force_Field>
OPLS_2005

> <r_lp_Energy>
9.86341

> <b_lp_Chiralities_Consistent>
1

> <s_lp_Variant>
AV-unprocessed.smi:1967-1

> <Gold.Version>
5.8.1

> <Gold.Id.Protein>
6NUR|6NUR_protein|mol2

> <Gold.PLP.Fitness>
41.4799

> <Gold.PLP.PLP>
-36.8714

> <Gold.PLP.part.hbond>
-1.0000

> <Gold.PLP.part.metal>
0.0000

> <Gold.PLP.part.buried>
-3.9700

> <Gold.PLP.part.nonpolar>
-32.0510

> <Gold.PLP.part.repulsive>
0.0380

> <Gold.PLP.ligand.clash>
0.0000

> <Gold.PLP.ligand.torsion>
1.1034

> <Gold.PLP.Chemscore.Hbond>
1.0000

> <Gold.PLP.Chemscore.CHOScore>
1.0000

> <Gold.PLP.Chemscore.Metal>
0.0000

> <Gold.Chemscore.Hbonds>
donor molecule, donor type, donor heavy atom, donor atom, acceptor molecule, acceptor atom, score
      P1  H  6896  6908       L1     3  1.00
      L1  C    11    27       P1  8028  0.66

> <Gold.PLP.Chemscore.Internal.Correction>
0.8153

> <Gold.Rescore>
     Score         DG    S(hbond)    S(metal)    S(lipo)     H(rot)  DE(clash)    DE(int)     intcor
     14.96     -15.97       0.97        0.00      98.84       1.69       0.06       0.95       ----

> <Gold.Chemscore.Fitness>
14.9625

> <Gold.Chemscore.DG>
-15.9749

> <Gold.Chemscore.ZeroCoef>
-5.4800

> <Gold.Chemscore.Hbond>
0.9743

> <Gold.Chemscore.Metal>
0.0000

> <Gold.Chemscore.Lipo>
98.8444

> <Gold.Chemscore.Internal_Hbond>
0.0000

> <Gold.Chemscore.DEClash>
0.0620

> <Gold.Chemscore.DEInternal>
0.9504

> <Gold.Chemscore.Rot>
1.6891

> <Gold.Chemscore.Internal.Correction>
   9.000000E+99

> <Gold.Chemscore.Hbonds>
donor molecule, donor type, donor heavy atom, donor atom, acceptor molecule, acceptor atom, score
      P1  H  6896  6908       L1     3  0.54

> <Gold.Chemscore.Hbond.Weighted>
-3.2543

> <Gold.Chemscore.Metal.Weighted>
-0.0000

> <Gold.Chemscore.Lipo.Weighted>
-11.5648

> <Gold.Chemscore.Internal_Hbond.Weighted>
0.0000

> <Gold.Chemscore.DEClash.Weighted>
0.0620

> <Gold.Chemscore.DEInternal.Weighted>
0.9504

> <Gold.Chemscore.Rot.Weighted>
4.3241

> <Gold.Chemscore.Internal.Correction.Weighted>
   9.000000E+99

> <Gold.Protein.RotatedTorsions>
[ 6907 6896 6895 6894 ] final -141.16 input  -60.11 | X-H torsion
[ 7974 7965 7964 7962 ] final   -3.32 input  175.53 | X-H torsion
[ 8008 7997 7996 7995 ] final -147.90 input   59.86 | X-H torsion
[ 10167 10162 10161 10158 ] final  -32.73 input  -65.29 | X-H torsion
[ 10718 10713 10712 10709 ] final  117.08 input   66.30 | X-H torsion
[ 10763 10752 10751 10750 ] final  -68.77 input  -60.55 | X-H torsion
[ 11005 11000 10999 10996 ] final  108.11 input  -57.11 | X-H torsion

> <Gold.Protein.ActiveResidues>
 VAL166  LYS551  ARG553  GLY616  TRP617  ASP618  TYR619  PRO620  LYS621  CYS622 
 ASP623  PHE694  ASN695  SER759  ASP760  ASP761  ALA762  ILE779  LEU786  VAL792 
 PHE793  MET794  SER795  GLU796  ALA797  LYS798  CYS799  TRP800  GLU811  SER814 

> <Gold.Protein.RotatedAtoms>
  151.0702  133.5472  159.2627 H   0  0  0  0  0  0  0  0  0  0  0  0  # atno 6907 bound_to 6896
  151.2414  135.0589  159.9036 H   0  0  0  0  0  0  0  0  0  0  0  0  # atno 6908 bound_to 6896
  152.5410  134.0476  159.8149 H   0  0  0  0  0  0  0  0  0  0  0  0  # atno 6909 bound_to 6896
  146.2391  140.1704  142.8332 H   0  0  0  0  0  0  0  0  0  0  0  0  # atno 7974 bound_to 7965
  155.5830  140.0645  157.2778 H   0  0  0  0  0  0  0  0  0  0  0  0  # atno 8008 bound_to 7997
  154.4327  140.1848  156.1043 H   0  0  0  0  0  0  0  0  0  0  0  0  # atno 8009 bound_to 7997
  156.0290  140.3308  155.7123 H   0  0  0  0  0  0  0  0  0  0  0  0  # atno 8010 bound_to 7997
  140.7216  143.3672  151.1847 H   0  0  0  0  0  0  0  0  0  0  0  0  # atno 10167 bound_to 10162
  157.6119  131.1033  150.7564 H   0  0  0  0  0  0  0  0  0  0  0  0  # atno 10718 bound_to 10713
  154.3937  135.6047  153.5858 H   0  0  0  0  0  0  0  0  0  0  0  0  # atno 10763 bound_to 10752
  152.9787  135.5890  154.4266 H   0  0  0  0  0  0  0  0  0  0  0  0  # atno 10764 bound_to 10752
  154.4055  135.2843  155.2048 H   0  0  0  0  0  0  0  0  0  0  0  0  # atno 10765 bound_to 10752
  139.8839  134.9421  156.5922 H   0  0  0  0  0  0  0  0  0  0  0  0  # atno 11005 bound_to 11000
  145.0016  140.8637  143.5278 LP  0  0  0  0  0  0  0  0  0  0  0  0  # atno 17320 bound_to 7965
  145.1724  139.2397  143.5335 LP  0  0  0  0  0  0  0  0  0  0  0  0  # atno 17321 bound_to 7965
  139.7237  143.9183  152.2995 LP  0  0  0  0  0  0  0  0  0  0  0  0  # atno 17342 bound_to 10162
  139.8948  144.6945  150.8730 LP  0  0  0  0  0  0  0  0  0  0  0  0  # atno 17343 bound_to 10162
  156.7940  130.4899  149.5380 LP  0  0  0  0  0  0  0  0  0  0  0  0  # atno 17370 bound_to 10713
  156.1225  130.6120  151.0215 LP  0  0  0  0  0  0  0  0  0  0  0  0  # atno 17371 bound_to 10713
  140.7946  133.8554  155.8675 LP  0  0  0  0  0  0  0  0  0  0  0  0  # atno 17394 bound_to 11000
  140.9646  134.1610  157.4626 LP  0  0  0  0  0  0  0  0  0  0  0  0  # atno 17395 bound_to 11000

$$$$
