AV-unprocessed.smi:3112|AV-procd|sdf|11843|dock7
  -GOLD-   2272017223D 1   1.00000     0.00000
 Structure written by MMmdl.
 37 37  0  0  0  0  0  0  0  0  2 V2000
  148.8428  138.9358  154.1038 C   0  0  0  0  0  0  0  0  0  0  0  0
  148.2556  140.3539  154.1156 C   0  0  0  0  0  0  0  0  0  0  0  0
  149.2238  141.4140  154.6712 C   0  0  1  0  0  0  0  0  0  0  0  0
  148.8039  142.6915  154.2325 O   0  0  0  0  0  0  0  0  0  0  0  0
  149.2514  141.4175  156.2085 C   0  0  0  0  0  0  0  0  0  0  0  0
  150.2653  142.3620  156.7227 N   0  3  0  0  0  0  0  0  0  0  0  0
  150.7456  142.0827  158.0946 C   0  0  1  0  0  0  0  0  0  0  0  0
  150.9606  140.5651  158.2405 C   0  0  0  0  0  0  0  0  0  0  0  0
  152.0217  142.9117  158.4022 C   0  0  1  0  0  0  0  0  0  0  0  0
  151.8224  144.4257  158.2058 C   0  0  0  0  0  0  0  0  0  0  0  0
  152.5262  142.6528  159.7451 N   0  0  0  0  0  0  0  0  0  0  0  0
  153.6884  142.0096  160.1233 C   0  0  0  0  0  0  0  0  0  0  0  0
  153.7341  142.0165  161.4877 C   0  0  0  0  0  0  0  0  0  0  0  0
  152.5422  142.6970  161.8619 C   0  0  0  0  0  0  0  0  0  0  0  0
  151.8237  143.0779  160.8181 N   0  0  0  0  0  0  0  0  0  0  0  0
  148.1121  138.2188  153.7290 H   0  0  0  0  0  0  0  0  0  0  0  0
  149.1330  138.6204  155.1065 H   0  0  0  0  0  0  0  0  0  0  0  0
  149.7229  138.8728  153.4636 H   0  0  0  0  0  0  0  0  0  0  0  0
  147.9399  140.6276  153.1080 H   0  0  0  0  0  0  0  0  0  0  0  0
  147.3499  140.3423  154.7232 H   0  0  0  0  0  0  0  0  0  0  0  0
  150.2271  141.2219  154.2883 H   0  0  0  0  0  0  0  0  0  0  0  0
  148.7319  143.2599  154.9848 H   0  0  0  0  0  0  0  0  0  0  0  0
  148.2661  141.6672  156.6045 H   0  0  0  0  0  0  0  0  0  0  0  0
  149.4979  140.4208  156.5770 H   0  0  0  0  0  0  0  0  0  0  0  0
  151.0581  142.3364  156.0977 H   0  0  0  0  0  0  0  0  0  0  0  0
  149.9691  142.3622  158.8090 H   0  0  0  0  0  0  0  0  0  0  0  0
  151.2184  140.2863  159.2625 H   0  0  0  0  0  0  0  0  0  0  0  0
  151.7607  140.2139  157.5882 H   0  0  0  0  0  0  0  0  0  0  0  0
  150.0551  140.0158  157.9800 H   0  0  0  0  0  0  0  0  0  0  0  0
  152.7976  142.5968  157.7014 H   0  0  0  0  0  0  0  0  0  0  0  0
  151.5900  144.6678  157.1688 H   0  0  0  0  0  0  0  0  0  0  0  0
  152.7274  144.9754  158.4667 H   0  0  0  0  0  0  0  0  0  0  0  0
  151.0116  144.8070  158.8272 H   0  0  0  0  0  0  0  0  0  0  0  0
  154.3786  141.6043  159.3981 H   0  0  0  0  0  0  0  0  0  0  0  0
  154.5017  141.5991  162.1226 H   0  0  0  0  0  0  0  0  0  0  0  0
  152.1805  142.9248  162.8537 H   0  0  0  0  0  0  0  0  0  0  0  0
  149.8749  143.2937  156.7040 H   0  0  0  0  0  0  0  0  0  0  0  0
  1  2  1  0  0  0  0
  1 16  1  0  0  0  0
  1 17  1  0  0  0  0
  1 18  1  0  0  0  0
  2  3  1  0  0  0  0
  2 19  1  0  0  0  0
  2 20  1  0  0  0  0
  3  4  1  0  0  0  0
  3  5  1  0  0  0  0
  3 21  1  0  0  0  0
  4 22  1  0  0  0  0
  5  6  1  0  0  0  0
  5 23  1  0  0  0  0
  5 24  1  0  0  0  0
  6  7  1  0  0  0  0
  6 25  1  0  0  0  0
  6 37  1  0  0  0  0
  7  8  1  0  0  0  0
  7  9  1  0  0  0  0
  7 26  1  0  0  0  0
  8 27  1  0  0  0  0
  8 28  1  0  0  0  0
  8 29  1  0  0  0  0
  9 10  1  0  0  0  0
  9 11  1  0  0  0  0
  9 30  1  0  0  0  0
 10 31  1  0  0  0  0
 10 32  1  0  0  0  0
 10 33  1  0  0  0  0
 11 15  1  0  0  0  0
 11 12  1  0  0  0  0
 12 13  2  0  0  0  0
 12 34  1  0  0  0  0
 13 14  1  0  0  0  0
 13 35  1  0  0  0  0
 14 15  2  0  0  0  0
 14 36  1  0  0  0  0
M  CHG  1   6   1
M  END
> <s_m_source_file>
AV-unprocessed.smi

> <i_m_source_file_index>
3112

> <i_lp_mmshare_version>
43012

> <i_f3d_flags>
0

> <s_epik_input>
W0NIM11bQ0gyXVtDQEhdKFtPSF0pW0NIMl1bTkhdW0NASF0oW0NIM10pW0NASF0oW0NIM10pbjFbY0hdW2NIXVtjSF1uMQ==

> <s_epik_cmdline>
J2VwaWtfcHl0aG9uJywgJy1waCcsICc3LjAnLCAnLXRuJywgJzgnLCAnLW1hJywgJzIwMCcsICctbWV0YWxfYmluZGluZycsICctaW1hZScsICc8aW5maWxlLm1hZT4nLCAnLW9tYWUnLCAnPG91dGZpbGUubWFlPic=

> <r_lp_tautomer_probability>
1

> <r_epik_Ionization_Penalty>
0.0154842

> <r_epik_Ionization_Penalty_Charging>
0.0154724

> <r_epik_Ionization_Penalty_Neutral>
1.17979e-05

> <r_epik_State_Penalty>
0.0121607

> <r_epik_Charging_Adjusted_Penalty>
0.0276331

> <i_epik_Tot_Q>
1

> <i_epik_Tot_abs_Q>
1

> <r_epik_Metal_State_Penalty>
0.0121863

> <b_epik_Metal_Only>
0

> <s_lp_Force_Field>
OPLS_2005

> <r_lp_Energy>
13.9739

> <b_lp_Chiralities_Consistent>
1

> <s_lp_Variant>
AV-unprocessed.smi:3112-8

> <Gold.Version>
5.8.1

> <Gold.Id.Protein>
6NUR|6NUR_protein|mol2

> <Gold.PLP.Fitness>
48.7879

> <Gold.PLP.PLP>
-40.6300

> <Gold.PLP.part.hbond>
-3.8190

> <Gold.PLP.part.metal>
0.0000

> <Gold.PLP.part.buried>
-3.2876

> <Gold.PLP.part.nonpolar>
-32.9443

> <Gold.PLP.part.repulsive>
0.1321

> <Gold.PLP.ligand.clash>
0.0000

> <Gold.PLP.ligand.torsion>
0.5233

> <Gold.PLP.Chemscore.Hbond>
3.0289

> <Gold.PLP.Chemscore.CHOScore>
0.0000

> <Gold.PLP.Chemscore.Metal>
0.0000

> <Gold.Chemscore.Hbonds>
donor molecule, donor type, donor heavy atom, donor atom, acceptor molecule, acceptor atom, score
      L1  H     4    22       P1  8028  0.98
      L1  H     6    37       P1  8028  1.95
      P1  H  8011  8017       L1     4  0.01

> <Gold.PLP.Chemscore.Internal.Correction>
0.1176

> <Gold.Rescore>
     Score         DG    S(hbond)    S(metal)    S(lipo)     H(rot)  DE(clash)    DE(int)     intcor
     16.70     -17.20       2.02        0.00      95.26       2.41       0.05       0.46       ----

> <Gold.Chemscore.Fitness>
16.6969

> <Gold.Chemscore.DG>
-17.1976

> <Gold.Chemscore.ZeroCoef>
-5.4800

> <Gold.Chemscore.Hbond>
2.0175

> <Gold.Chemscore.Metal>
0.0000

> <Gold.Chemscore.Lipo>
95.2632

> <Gold.Chemscore.Internal_Hbond>
0.0000

> <Gold.Chemscore.DEClash>
0.0452

> <Gold.Chemscore.DEInternal>
0.4555

> <Gold.Chemscore.Rot>
2.4089

> <Gold.Chemscore.Internal.Correction>
   9.000000E+99

> <Gold.Chemscore.Hbonds>
donor molecule, donor type, donor heavy atom, donor atom, acceptor molecule, acceptor atom, score
      L1  H     4    22       P1  8028  0.92
      L1  H     6    37       P1  8028  0.88

> <Gold.Chemscore.Hbond.Weighted>
-6.7385

> <Gold.Chemscore.Metal.Weighted>
-0.0000

> <Gold.Chemscore.Lipo.Weighted>
-11.1458

> <Gold.Chemscore.Internal_Hbond.Weighted>
0.0000

> <Gold.Chemscore.DEClash.Weighted>
0.0452

> <Gold.Chemscore.DEInternal.Weighted>
0.4555

> <Gold.Chemscore.Rot.Weighted>
6.1667

> <Gold.Chemscore.Internal.Correction.Weighted>
   9.000000E+99

> <Gold.Protein.RotatedTorsions>
[ 6907 6896 6895 6894 ] final   31.65 input  -60.11 | X-H torsion
[ 7974 7965 7964 7962 ] final  -47.81 input  175.53 | X-H torsion
[ 8008 7997 7996 7995 ] final -130.59 input   59.86 | X-H torsion
[ 10167 10162 10161 10158 ] final   -2.67 input  -65.29 | X-H torsion
[ 10718 10713 10712 10709 ] final  -75.82 input   66.30 | X-H torsion
[ 10763 10752 10751 10750 ] final   63.85 input  -60.55 | X-H torsion
[ 11005 11000 10999 10996 ] final  -95.63 input  -57.11 | X-H torsion

> <Gold.Protein.ActiveResidues>
 VAL166  LYS551  ARG553  GLY616  TRP617  ASP618  TYR619  PRO620  LYS621  CYS622 
 ASP623  PHE694  ASN695  SER759  ASP760  ASP761  ALA762  ILE779  LEU786  VAL792 
 PHE793  MET794  SER795  GLU796  ALA797  LYS798  CYS799  TRP800  GLU811  SER814 

> <Gold.Protein.RotatedAtoms>
  152.0633  134.9580  160.0574 H   0  0  0  0  0  0  0  0  0  0  0  0  # atno 6907 bound_to 6896
  152.0935  133.4208  159.4563 H   0  0  0  0  0  0  0  0  0  0  0  0  # atno 6908 bound_to 6896
  150.6837  134.2763  159.4652 H   0  0  0  0  0  0  0  0  0  0  0  0  # atno 6909 bound_to 6896
  145.9577  140.7510  142.9473 H   0  0  0  0  0  0  0  0  0  0  0  0  # atno 7974 bound_to 7965
  155.2983  140.0451  157.3028 H   0  0  0  0  0  0  0  0  0  0  0  0  # atno 8008 bound_to 7997
  154.5501  140.2315  155.8465 H   0  0  0  0  0  0  0  0  0  0  0  0  # atno 8009 bound_to 7997
  156.1959  140.3038  155.9434 H   0  0  0  0  0  0  0  0  0  0  0  0  # atno 8010 bound_to 7997
  140.6860  143.6629  150.8251 H   0  0  0  0  0  0  0  0  0  0  0  0  # atno 10167 bound_to 10162
  156.0195  130.4450  150.3101 H   0  0  0  0  0  0  0  0  0  0  0  0  # atno 10718 bound_to 10713
  153.0033  135.5414  154.6417 H   0  0  0  0  0  0  0  0  0  0  0  0  # atno 10763 bound_to 10752
  154.5670  135.2838  155.0866 H   0  0  0  0  0  0  0  0  0  0  0  0  # atno 10764 bound_to 10752
  154.2046  135.6478  153.5150 H   0  0  0  0  0  0  0  0  0  0  0  0  # atno 10765 bound_to 10752
  141.1436  133.8039  157.0461 H   0  0  0  0  0  0  0  0  0  0  0  0  # atno 11005 bound_to 11000
  144.6808  140.2539  143.7328 LP  0  0  0  0  0  0  0  0  0  0  0  0  # atno 17320 bound_to 7965
  145.8083  139.1993  143.2007 LP  0  0  0  0  0  0  0  0  0  0  0  0  # atno 17321 bound_to 7965
  140.0336  143.5418  152.2749 LP  0  0  0  0  0  0  0  0  0  0  0  0  # atno 17342 bound_to 10162
  139.6219  144.7630  151.2721 LP  0  0  0  0  0  0  0  0  0  0  0  0  # atno 17343 bound_to 10162
  157.1203  131.0245  151.3012 LP  0  0  0  0  0  0  0  0  0  0  0  0  # atno 17370 bound_to 10713
  157.4633  130.7666  149.7256 LP  0  0  0  0  0  0  0  0  0  0  0  0  # atno 17371 bound_to 10713
  140.0662  134.9728  157.1389 LP  0  0  0  0  0  0  0  0  0  0  0  0  # atno 17394 bound_to 11000
  140.3777  134.2321  155.7173 LP  0  0  0  0  0  0  0  0  0  0  0  0  # atno 17395 bound_to 11000

$$$$
