AV-unprocessed.smi:1265|AV-procd|sdf|5318|dock10
  -GOLD-   22720 4443D 1   1.00000     0.00000
 Structure written by MMmdl.
 45 47  0  0  0  0  0  0  0  0  2 V2000
  145.3506  137.6927  155.8691 O   0  0  0  0  0  0  0  0  0  0  0  0
  146.1791  137.3322  155.0332 C   0  0  0  0  0  0  0  0  0  0  0  0
  146.2449  136.0870  154.5416 N   0  0  0  0  0  0  0  0  0  0  0  0
  145.3638  134.9765  154.9027 C   0  0  0  0  0  0  0  0  0  0  0  0
  144.2757  134.6891  153.8153 C   0  0  2  0  0  0  0  0  0  0  0  0
  144.8573  133.8765  152.7022 N   0  0  0  0  0  0  0  0  0  0  0  0
  145.9383  134.5114  151.9344 C   0  0  0  0  0  0  0  0  0  0  0  0
  146.5281  133.5750  150.8657 C   0  0  0  0  0  0  0  0  0  0  0  0
  145.4980  133.1269  149.9954 O   0  0  0  0  0  0  0  0  0  0  0  0
  144.4706  132.4363  150.6929 C   0  0  0  0  0  0  0  0  0  0  0  0
  143.8567  133.3601  151.7579 C   0  0  0  0  0  0  0  0  0  0  0  0
  143.6912  136.0531  153.3456 C   0  0  0  0  0  0  0  0  0  0  0  0
  142.8471  136.6567  154.4734 C   0  0  0  0  0  0  0  0  0  0  0  0
  142.0962  135.2821  155.3764 S   0  0  0  0  0  0  0  0  0  0  0  0
  143.0643  134.0155  154.5098 C   0  0  0  0  0  0  0  0  0  0  0  0
  147.1110  138.1236  154.4745 N   0  0  0  0  0  0  0  0  0  0  0  0
  147.3793  139.4945  154.7365 C   0  0  0  0  0  0  0  0  0  0  0  0
  148.6945  139.9583  154.5117 C   0  0  0  0  0  0  0  0  0  0  0  0
  149.0113  141.3067  154.7745 C   0  0  0  0  0  0  0  0  0  0  0  0
  148.0611  142.1406  155.2485 N   0  3  0  0  0  0  0  0  0  0  0  0
  146.7950  141.7402  155.4939 C   0  0  0  0  0  0  0  0  0  0  0  0
  146.4188  140.4036  155.2492 C   0  0  0  0  0  0  0  0  0  0  0  0
  146.9493  135.8883  153.8462 H   0  0  0  0  0  0  0  0  0  0  0  0
  145.9919  134.1021  155.0665 H   0  0  0  0  0  0  0  0  0  0  0  0
  144.9213  135.1510  155.8832 H   0  0  0  0  0  0  0  0  0  0  0  0
  145.5825  135.4180  151.4465 H   0  0  0  0  0  0  0  0  0  0  0  0
  146.7636  134.7959  152.5825 H   0  0  0  0  0  0  0  0  0  0  0  0
  147.2850  134.0983  150.2814 H   0  0  0  0  0  0  0  0  0  0  0  0
  147.0193  132.7191  151.3311 H   0  0  0  0  0  0  0  0  0  0  0  0
  143.7080  132.1211  149.9808 H   0  0  0  0  0  0  0  0  0  0  0  0
  144.8739  131.5321  151.1515 H   0  0  0  0  0  0  0  0  0  0  0  0
  143.0881  132.7888  152.2733 H   0  0  0  0  0  0  0  0  0  0  0  0
  143.3516  134.1883  151.2595 H   0  0  0  0  0  0  0  0  0  0  0  0
  144.4553  136.7468  152.9963 H   0  0  0  0  0  0  0  0  0  0  0  0
  142.9993  135.9205  152.5170 H   0  0  0  0  0  0  0  0  0  0  0  0
  143.4685  137.2322  155.1597 H   0  0  0  0  0  0  0  0  0  0  0  0
  142.0804  137.3299  154.0892 H   0  0  0  0  0  0  0  0  0  0  0  0
  142.3918  133.5598  153.7851 H   0  0  0  0  0  0  0  0  0  0  0  0
  143.3617  133.2286  155.2037 H   0  0  0  0  0  0  0  0  0  0  0  0
  147.6588  137.7077  153.7354 H   0  0  0  0  0  0  0  0  0  0  0  0
  149.4562  139.2904  154.1356 H   0  0  0  0  0  0  0  0  0  0  0  0
  149.9899  141.7385  154.6234 H   0  0  0  0  0  0  0  0  0  0  0  0
  146.1261  142.4940  155.8832 H   0  0  0  0  0  0  0  0  0  0  0  0
  145.4072  140.1002  155.4720 H   0  0  0  0  0  0  0  0  0  0  0  0
  148.3112  143.1124  155.4338 H   0  0  0  0  0  0  0  0  0  0  0  0
  1  2  2  0  0  0  0
  2  3  1  0  0  0  0
  2 16  1  0  0  0  0
  3  4  1  0  0  0  0
  3 23  1  0  0  0  0
  4  5  1  0  0  0  0
  4 24  1  0  0  0  0
  4 25  1  0  0  0  0
  5 15  1  0  0  0  0
  5  6  1  0  0  0  0
  5 12  1  0  0  0  0
  6 11  1  0  0  0  0
  6  7  1  0  0  0  0
  7  8  1  0  0  0  0
  7 26  1  0  0  0  0
  7 27  1  0  0  0  0
  8  9  1  0  0  0  0
  8 28  1  0  0  0  0
  8 29  1  0  0  0  0
  9 10  1  0  0  0  0
 10 11  1  0  0  0  0
 10 30  1  0  0  0  0
 10 31  1  0  0  0  0
 11 32  1  0  0  0  0
 11 33  1  0  0  0  0
 12 13  1  0  0  0  0
 12 34  1  0  0  0  0
 12 35  1  0  0  0  0
 13 14  1  0  0  0  0
 13 36  1  0  0  0  0
 13 37  1  0  0  0  0
 14 15  1  0  0  0  0
 15 38  1  0  0  0  0
 15 39  1  0  0  0  0
 16 17  1  0  0  0  0
 16 40  1  0  0  0  0
 17 22  1  0  0  0  0
 17 18  2  0  0  0  0
 18 19  1  0  0  0  0
 18 41  1  0  0  0  0
 19 20  2  0  0  0  0
 19 42  1  0  0  0  0
 20 21  1  0  0  0  0
 20 45  1  0  0  0  0
 21 22  2  0  0  0  0
 21 43  1  0  0  0  0
 22 44  1  0  0  0  0
M  CHG  1  20   1
M  END
> <s_m_source_file>
AV-unprocessed.smi

> <i_m_source_file_index>
1265

> <i_lp_mmshare_version>
43012

> <i_f3d_flags>
0

> <s_epik_input>
W2NIXTFbY0hdbltjSF1bY0hdYzFbTkhdQyg9TylbTkhdW0NIMl1bQ0BdMihbQ0gyXVtDSDJdU1tDSDJdMilOM1tDSDJdW0NIMl1PW0NIMl1bQ0gyXTM=

> <s_epik_cmdline>
J2VwaWtfcHl0aG9uJywgJy1waCcsICc3LjAnLCAnLXRuJywgJzgnLCAnLW1hJywgJzIwMCcsICctbWV0YWxfYmluZGluZycsICctaW1hZScsICc8aW5maWxlLm1hZT4nLCAnLW9tYWUnLCAnPG91dGZpbGUubWFlPic=

> <r_epik_Ionization_Penalty>
1.06168

> <r_epik_Ionization_Penalty_Charging>
1.04215

> <r_epik_Ionization_Penalty_Neutral>
0.019527

> <r_epik_State_Penalty>
1.12733

> <r_epik_Charging_Adjusted_Penalty>
2.16948

> <i_epik_Tot_Q>
1

> <i_epik_Tot_abs_Q>
1

> <r_epik_Metal_State_Penalty>
1.22116

> <b_epik_Metal_Only>
0

> <s_lp_Force_Field>
OPLS_2005

> <r_lp_Energy>
64.854

> <b_lp_Chiralities_Consistent>
1

> <s_lp_Variant>
AV-unprocessed.smi:1265-4

> <Gold.Version>
5.8.1

> <Gold.Id.Protein>
6NUR|6NUR_protein|mol2

> <Gold.PLP.Fitness>
37.7676

> <Gold.PLP.PLP>
-33.0137

> <Gold.PLP.part.hbond>
-1.0000

> <Gold.PLP.part.metal>
0.0000

> <Gold.PLP.part.buried>
-6.0617

> <Gold.PLP.part.nonpolar>
-27.7976

> <Gold.PLP.part.repulsive>
0.5530

> <Gold.PLP.ligand.clash>
0.0000

> <Gold.PLP.ligand.torsion>
0.6623

> <Gold.PLP.Chemscore.Hbond>
2.0000

> <Gold.PLP.Chemscore.CHOScore>
0.0000

> <Gold.PLP.Chemscore.Metal>
0.0000

> <Gold.Chemscore.Hbonds>
donor molecule, donor type, donor heavy atom, donor atom, acceptor molecule, acceptor atom, score
      L1  H    20    45       P1  8028  2.00

> <Gold.PLP.Chemscore.Internal.Correction>
0.0785

> <Gold.Rescore>
     Score         DG    S(hbond)    S(metal)    S(lipo)     H(rot)  DE(clash)    DE(int)     intcor
     12.50     -14.31       1.00        0.00      79.24       1.47       0.01       1.80       ----

> <Gold.Chemscore.Fitness>
12.4969

> <Gold.Chemscore.DG>
-14.3065

> <Gold.Chemscore.ZeroCoef>
-5.4800

> <Gold.Chemscore.Hbond>
0.9968

> <Gold.Chemscore.Metal>
0.0000

> <Gold.Chemscore.Lipo>
79.2423

> <Gold.Chemscore.Internal_Hbond>
0.0000

> <Gold.Chemscore.DEClash>
0.0069

> <Gold.Chemscore.DEInternal>
1.8027

> <Gold.Chemscore.Rot>
1.4743

> <Gold.Chemscore.Internal.Correction>
   9.000000E+99

> <Gold.Chemscore.Hbonds>
donor molecule, donor type, donor heavy atom, donor atom, acceptor molecule, acceptor atom, score
      L1  H    20    45       P1  8028  0.98

> <Gold.Chemscore.Hbond.Weighted>
-3.3294

> <Gold.Chemscore.Metal.Weighted>
-0.0000

> <Gold.Chemscore.Lipo.Weighted>
-9.2714

> <Gold.Chemscore.Internal_Hbond.Weighted>
0.0000

> <Gold.Chemscore.DEClash.Weighted>
0.0069

> <Gold.Chemscore.DEInternal.Weighted>
1.8027

> <Gold.Chemscore.Rot.Weighted>
3.7742

> <Gold.Chemscore.Internal.Correction.Weighted>
   9.000000E+99

> <Gold.Protein.RotatedTorsions>
[ 6907 6896 6895 6894 ] final   47.00 input  -60.11 | X-H torsion
[ 7974 7965 7964 7962 ] final  -38.79 input  175.53 | X-H torsion
[ 8008 7997 7996 7995 ] final  -48.55 input   59.86 | X-H torsion
[ 10167 10162 10161 10158 ] final  -16.21 input  -65.29 | X-H torsion
[ 10718 10713 10712 10709 ] final  -19.73 input   66.30 | X-H torsion
[ 10763 10752 10751 10750 ] final   58.33 input  -60.55 | X-H torsion
[ 11005 11000 10999 10996 ] final   11.64 input  -57.11 | X-H torsion

> <Gold.Protein.ActiveResidues>
 VAL166  LYS551  ARG553  GLY616  TRP617  ASP618  TYR619  PRO620  LYS621  CYS622 
 ASP623  PHE694  ASN695  SER759  ASP760  ASP761  ALA762  ILE779  LEU786  VAL792 
 PHE793  MET794  SER795  GLU796  ALA797  LYS798  CYS799  TRP800  GLU811  SER814 

> <Gold.Protein.RotatedAtoms>
  152.2630  134.8014  160.0427 H   0  0  0  0  0  0  0  0  0  0  0  0  # atno 6907 bound_to 6896
  151.8654  133.3460  159.3725 H   0  0  0  0  0  0  0  0  0  0  0  0  # atno 6908 bound_to 6896
  150.7123  134.5093  159.5643 H   0  0  0  0  0  0  0  0  0  0  0  0  # atno 6909 bound_to 6896
  146.0454  140.6552  142.9067 H   0  0  0  0  0  0  0  0  0  0  0  0  # atno 7974 bound_to 7965
  154.4030  140.1319  156.4357 H   0  0  0  0  0  0  0  0  0  0  0  0  # atno 8008 bound_to 7997
  155.7508  140.3488  155.5129 H   0  0  0  0  0  0  0  0  0  0  0  0  # atno 8009 bound_to 7997
  155.8951  140.1010  157.1381 H   0  0  0  0  0  0  0  0  0  0  0  0  # atno 8010 bound_to 7997
  140.7230  143.5139  150.9716 H   0  0  0  0  0  0  0  0  0  0  0  0  # atno 10167 bound_to 10162
  156.5417  130.4680  149.6496 H   0  0  0  0  0  0  0  0  0  0  0  0  # atno 10718 bound_to 10713
  152.9868  135.5610  154.5535 H   0  0  0  0  0  0  0  0  0  0  0  0  # atno 10763 bound_to 10752
  154.4967  135.2795  155.1455 H   0  0  0  0  0  0  0  0  0  0  0  0  # atno 10764 bound_to 10752
  154.2902  135.6327  153.5435 H   0  0  0  0  0  0  0  0  0  0  0  0  # atno 10765 bound_to 10752
  140.5010  134.0746  155.7793 H   0  0  0  0  0  0  0  0  0  0  0  0  # atno 11005 bound_to 11000
  144.7095  140.3985  143.7091 LP  0  0  0  0  0  0  0  0  0  0  0  0  # atno 17320 bound_to 7965
  145.6814  139.1619  143.2699 LP  0  0  0  0  0  0  0  0  0  0  0  0  # atno 17321 bound_to 7965
  139.8854  143.7020  152.3152 LP  0  0  0  0  0  0  0  0  0  0  0  0  # atno 17342 bound_to 10162
  139.7317  144.7581  151.0792 LP  0  0  0  0  0  0  0  0  0  0  0  0  # atno 17343 bound_to 10162
  156.2966  130.7153  151.2015 LP  0  0  0  0  0  0  0  0  0  0  0  0  # atno 17370 bound_to 10713
  157.7404  131.0517  150.5168 LP  0  0  0  0  0  0  0  0  0  0  0  0  # atno 17371 bound_to 10713
  141.1435  133.9095  157.2269 LP  0  0  0  0  0  0  0  0  0  0  0  0  # atno 17394 bound_to 11000
  139.9713  135.0127  156.9520 LP  0  0  0  0  0  0  0  0  0  0  0  0  # atno 17395 bound_to 11000

$$$$
