AV-unprocessed.smi:2367|AV-procd|sdf|9424|dock9
  -GOLD-   2272013 63D 1   1.00000     0.00000
 Structure written by MMmdl.
 34 35  0  0  0  0  0  0  0  0  1 V2000
  144.9776  138.6143  155.1256 C   0  0  0  0  0  0  0  0  0  0  0  0
  146.3840  138.5019  154.9498 O   0  0  0  0  0  0  0  0  0  0  0  0
  146.9613  139.3525  153.9587 C   0  0  0  0  0  0  0  0  0  0  0  0
  146.4712  139.0010  152.5462 C   0  0  0  0  0  0  0  0  0  0  0  0
  146.7907  137.6162  152.2131 N   0  0  0  0  0  0  0  0  0  0  0  0
  145.8978  136.6500  151.9582 C   0  0  0  0  0  0  0  0  0  0  0  0
  144.6782  136.8139  151.9968 O   0  0  0  0  0  0  0  0  0  0  0  0
  146.5046  135.4967  151.6332 N   0  0  0  0  0  0  0  0  0  0  0  0
  145.8707  134.2773  151.2827 C   0  0  0  0  0  0  0  0  0  0  0  0
  144.6904  134.3316  150.5131 C   0  0  0  0  0  0  0  0  0  0  0  0
  144.0664  133.1224  150.1464 C   0  0  0  0  0  0  0  0  0  0  0  0
  144.5493  131.9068  150.4805 N   0  0  0  0  0  0  0  0  0  0  0  0
  145.6941  131.8578  151.1951 C   0  0  0  0  0  0  0  0  0  0  0  0
  146.3985  133.0051  151.6129 C   0  0  0  0  0  0  0  0  0  0  0  0
  147.5656  132.8706  152.2876 F   0  0  0  0  0  0  0  0  0  0  0  0
  146.8016  140.8102  154.4316 C   0  0  0  0  0  0  0  0  0  0  0  0
  148.2653  141.0518  154.0583 C   0  0  0  0  0  0  0  0  0  0  0  0
  148.4737  139.5426  154.1931 C   0  0  0  0  0  0  0  0  0  0  0  0
  144.6434  137.8496  155.8263 H   0  0  0  0  0  0  0  0  0  0  0  0
  144.4353  138.4651  154.1918 H   0  0  0  0  0  0  0  0  0  0  0  0
  144.6960  139.5805  155.5427 H   0  0  0  0  0  0  0  0  0  0  0  0
  145.3876  139.1057  152.4884 H   0  0  0  0  0  0  0  0  0  0  0  0
  146.8651  139.7008  151.8085 H   0  0  0  0  0  0  0  0  0  0  0  0
  147.7709  137.3845  152.1472 H   0  0  0  0  0  0  0  0  0  0  0  0
  147.5057  135.5287  151.5097 H   0  0  0  0  0  0  0  0  0  0  0  0
  144.2619  135.2784  150.2179 H   0  0  0  0  0  0  0  0  0  0  0  0
  143.1550  133.1325  149.5669 H   0  0  0  0  0  0  0  0  0  0  0  0
  146.0682  130.8725  151.4306 H   0  0  0  0  0  0  0  0  0  0  0  0
  146.0882  141.4057  153.8612 H   0  0  0  0  0  0  0  0  0  0  0  0
  146.6253  140.8981  155.5052 H   0  0  0  0  0  0  0  0  0  0  0  0
  148.3898  141.4086  153.0348 H   0  0  0  0  0  0  0  0  0  0  0  0
  148.8258  141.6568  154.7714 H   0  0  0  0  0  0  0  0  0  0  0  0
  148.7966  139.2582  155.1962 H   0  0  0  0  0  0  0  0  0  0  0  0
  149.1143  139.1043  153.4273 H   0  0  0  0  0  0  0  0  0  0  0  0
  1  2  1  0  0  0  0
  1 19  1  0  0  0  0
  1 20  1  0  0  0  0
  1 21  1  0  0  0  0
  2  3  1  0  0  0  0
  3 18  1  0  0  0  0
  3  4  1  0  0  0  0
  3 16  1  0  0  0  0
  4  5  1  0  0  0  0
  4 22  1  0  0  0  0
  4 23  1  0  0  0  0
  5  6  1  0  0  0  0
  5 24  1  0  0  0  0
  6  7  2  0  0  0  0
  6  8  1  0  0  0  0
  8  9  1  0  0  0  0
  8 25  1  0  0  0  0
  9 14  1  0  0  0  0
  9 10  2  0  0  0  0
 10 11  1  0  0  0  0
 10 26  1  0  0  0  0
 11 12  2  0  0  0  0
 11 27  1  0  0  0  0
 12 13  1  0  0  0  0
 13 14  2  0  0  0  0
 13 28  1  0  0  0  0
 14 15  1  0  0  0  0
 16 17  1  0  0  0  0
 16 29  1  0  0  0  0
 16 30  1  0  0  0  0
 17 18  1  0  0  0  0
 17 31  1  0  0  0  0
 17 32  1  0  0  0  0
 18 33  1  0  0  0  0
 18 34  1  0  0  0  0
M  END
> <s_m_source_file>
AV-unprocessed.smi

> <i_m_source_file_index>
2367

> <i_lp_mmshare_version>
43012

> <i_f3d_flags>
0

> <s_epik_input>
W0NIMl0xW0NIMl1bQ0gyXUMxKE9bQ0gzXSlbQ0gyXVtOSF1DKD1PKVtOSF1jMltjSF1bY0hdbltjSF1jMkY=

> <s_epik_cmdline>
J2VwaWtfcHl0aG9uJywgJy1waCcsICc3LjAnLCAnLXRuJywgJzgnLCAnLW1hJywgJzIwMCcsICctbWV0YWxfYmluZGluZycsICctaW1hZScsICc8aW5maWxlLm1hZT4nLCAnLW9tYWUnLCAnPG91dGZpbGUubWFlPic=

> <r_epik_Ionization_Penalty>
0.00342397

> <r_epik_Ionization_Penalty_Charging>
0

> <r_epik_Ionization_Penalty_Neutral>
0.00342397

> <r_epik_State_Penalty>
0.00239946

> <r_epik_Charging_Adjusted_Penalty>
0.00239946

> <i_epik_Tot_Q>
0

> <i_epik_Tot_abs_Q>
0

> <r_epik_Metal_State_Penalty>
-0

> <b_epik_Metal_Only>
0

> <s_lp_Force_Field>
OPLS_2005

> <r_lp_Energy>
23.3759

> <b_lp_Chiralities_Consistent>
1

> <s_lp_Variant>
AV-unprocessed.smi:2367-1

> <Gold.Version>
5.8.1

> <Gold.Id.Protein>
6NUR|6NUR_protein|mol2

> <Gold.PLP.Fitness>
36.6030

> <Gold.PLP.PLP>
-28.0506

> <Gold.PLP.part.hbond>
-2.0000

> <Gold.PLP.part.metal>
0.0000

> <Gold.PLP.part.buried>
-2.2469

> <Gold.PLP.part.nonpolar>
-25.7696

> <Gold.PLP.part.repulsive>
1.8228

> <Gold.PLP.ligand.clash>
0.0000

> <Gold.PLP.ligand.torsion>
0.4253

> <Gold.PLP.Chemscore.Hbond>
1.9920

> <Gold.PLP.Chemscore.CHOScore>
0.9999

> <Gold.PLP.Chemscore.Metal>
0.0000

> <Gold.Chemscore.Hbonds>
donor molecule, donor type, donor heavy atom, donor atom, acceptor molecule, acceptor atom, score
      L1  H     5    24       P1  7948  0.98
      L1  H     8    25       P1  7948  1.00
      L1  C    11    27       P1 10186  1.00

> <Gold.PLP.Chemscore.Internal.Correction>
0.4274

> <Gold.Rescore>
     Score         DG    S(hbond)    S(metal)    S(lipo)     H(rot)  DE(clash)    DE(int)     intcor
     13.63     -15.39       1.91        0.00      63.03       1.51       0.04       1.72       ----

> <Gold.Chemscore.Fitness>
13.6301

> <Gold.Chemscore.DG>
-15.3918

> <Gold.Chemscore.ZeroCoef>
-5.4800

> <Gold.Chemscore.Hbond>
1.9144

> <Gold.Chemscore.Metal>
0.0000

> <Gold.Chemscore.Lipo>
63.0272

> <Gold.Chemscore.Internal_Hbond>
0.0000

> <Gold.Chemscore.DEClash>
0.0405

> <Gold.Chemscore.DEInternal>
1.7213

> <Gold.Chemscore.Rot>
1.5064

> <Gold.Chemscore.Internal.Correction>
   9.000000E+99

> <Gold.Chemscore.Hbonds>
donor molecule, donor type, donor heavy atom, donor atom, acceptor molecule, acceptor atom, score
      L1  H     5    24       P1  7948  0.93
      L1  H     8    25       P1  7948  0.89

> <Gold.Chemscore.Hbond.Weighted>
-6.3939

> <Gold.Chemscore.Metal.Weighted>
-0.0000

> <Gold.Chemscore.Lipo.Weighted>
-7.3742

> <Gold.Chemscore.Internal_Hbond.Weighted>
0.0000

> <Gold.Chemscore.DEClash.Weighted>
0.0405

> <Gold.Chemscore.DEInternal.Weighted>
1.7213

> <Gold.Chemscore.Rot.Weighted>
3.8563

> <Gold.Chemscore.Internal.Correction.Weighted>
   9.000000E+99

> <Gold.Protein.RotatedTorsions>
[ 6907 6896 6895 6894 ] final  127.72 input  -60.11 | X-H torsion
[ 7974 7965 7964 7962 ] final   15.96 input  175.53 | X-H torsion
[ 8008 7997 7996 7995 ] final -113.23 input   59.86 | X-H torsion
[ 10167 10162 10161 10158 ] final   18.79 input  -65.29 | X-H torsion
[ 10718 10713 10712 10709 ] final  -68.56 input   66.30 | X-H torsion
[ 10763 10752 10751 10750 ] final -104.91 input  -60.55 | X-H torsion
[ 11005 11000 10999 10996 ] final  -85.42 input  -57.11 | X-H torsion

> <Gold.Protein.ActiveResidues>
 VAL166  LYS551  ARG553  GLY616  TRP617  ASP618  TYR619  PRO620  LYS621  CYS622 
 ASP623  PHE694  ASN695  SER759  ASP760  ASP761  ALA762  ILE779  LEU786  VAL792 
 PHE793  MET794  SER795  GLU796  ALA797  LYS798  CYS799  TRP800  GLU811  SER814 

> <Gold.Protein.RotatedAtoms>
  152.3786  133.6515  159.6143 H   0  0  0  0  0  0  0  0  0  0  0  0  # atno 6907 bound_to 6896
  150.7723  133.9151  159.3390 H   0  0  0  0  0  0  0  0  0  0  0  0  # atno 6908 bound_to 6896
  151.6961  135.0939  160.0294 H   0  0  0  0  0  0  0  0  0  0  0  0  # atno 6909 bound_to 6896
  146.2263  139.8818  142.8569 H   0  0  0  0  0  0  0  0  0  0  0  0  # atno 7974 bound_to 7965
  155.0175  140.0393  157.2424 H   0  0  0  0  0  0  0  0  0  0  0  0  # atno 8008 bound_to 7997
  154.7406  140.2748  155.6353 H   0  0  0  0  0  0  0  0  0  0  0  0  # atno 8009 bound_to 7997
  156.2863  140.2666  156.2133 H   0  0  0  0  0  0  0  0  0  0  0  0  # atno 8010 bound_to 7997
  140.5627  143.9307  150.6654 H   0  0  0  0  0  0  0  0  0  0  0  0  # atno 10167 bound_to 10162
  156.0499  130.4297  150.2018 H   0  0  0  0  0  0  0  0  0  0  0  0  # atno 10718 bound_to 10713
  154.7910  135.4769  154.0054 H   0  0  0  0  0  0  0  0  0  0  0  0  # atno 10763 bound_to 10752
  153.1632  135.6812  153.8720 H   0  0  0  0  0  0  0  0  0  0  0  0  # atno 10764 bound_to 10752
  153.8327  135.3189  155.3398 H   0  0  0  0  0  0  0  0  0  0  0  0  # atno 10765 bound_to 10752
  141.1641  133.7398  156.9012 H   0  0  0  0  0  0  0  0  0  0  0  0  # atno 11005 bound_to 11000
  145.2505  141.0042  143.3884 LP  0  0  0  0  0  0  0  0  0  0  0  0  # atno 17320 bound_to 7965
  144.9378  139.4223  143.6463 LP  0  0  0  0  0  0  0  0  0  0  0  0  # atno 17321 bound_to 7965
  140.2762  143.3421  152.1193 LP  0  0  0  0  0  0  0  0  0  0  0  0  # atno 17342 bound_to 10162
  139.5078  144.6838  151.5939 LP  0  0  0  0  0  0  0  0  0  0  0  0  # atno 17343 bound_to 10162
  157.0103  130.9949  151.3367 LP  0  0  0  0  0  0  0  0  0  0  0  0  # atno 17370 bound_to 10713
  157.5415  130.8123  149.8034 LP  0  0  0  0  0  0  0  0  0  0  0  0  # atno 17371 bound_to 10713
  140.1581  134.9184  157.2679 LP  0  0  0  0  0  0  0  0  0  0  0  0  # atno 17394 bound_to 11000
  140.2643  134.3534  155.7395 LP  0  0  0  0  0  0  0  0  0  0  0  0  # atno 17395 bound_to 11000

$$$$
