AV-unprocessed.smi:1224|AV-procd|sdf|5130|dock7
  -GOLD-   22720 4193D 1   1.00000     0.00000
 Structure written by MMmdl.
 45 47  0  0  0  0  0  0  0  0  3 V2000
  152.6356  143.9992  160.6401 C   0  0  0  0  0  0  0  0  0  0  0  0
  152.3315  143.0634  159.4824 C   0  0  0  0  0  0  0  0  0  0  0  0
  151.4357  143.5002  158.4804 C   0  0  0  0  0  0  0  0  0  0  0  0
  151.1770  142.6224  157.4346 C   0  0  0  0  0  0  0  0  0  0  0  0
  150.3535  142.7509  156.3140 N   0  3  0  0  0  0  0  0  0  0  0  0
  150.4244  141.6159  155.5650 C   0  0  0  0  0  0  0  0  0  0  0  0
  151.2864  140.7666  156.1885 N   0  0  0  0  0  0  0  0  0  0  0  0
  151.7181  139.4142  155.8096 C   0  0  0  0  0  0  0  0  0  0  0  0
  150.5751  138.3797  155.8487 C   0  0  2  0  0  0  0  0  0  0  0  0
  150.3636  137.9685  157.1858 O   0  0  0  0  0  0  0  0  0  0  0  0
  150.9000  137.1404  154.9988 C   0  0  0  0  0  0  0  0  0  0  0  0
  149.6955  136.3144  154.7663 N   0  3  0  0  0  0  0  0  0  0  0  0
  149.8646  134.8729  155.0433 C   0  0  0  0  0  0  0  0  0  0  0  0
  148.8186  134.0372  154.3793 C   0  0  0  0  0  0  0  0  0  0  0  0
  147.4559  134.1376  154.5070 C   0  0  0  0  0  0  0  0  0  0  0  0
  146.7470  133.1859  153.7167 C   0  0  0  0  0  0  0  0  0  0  0  0
  147.5782  132.3704  152.9961 C   0  0  0  0  0  0  0  0  0  0  0  0
  149.2541  132.7566  153.2753 S   0  0  0  0  0  0  0  0  0  0  0  0
  151.7759  141.3497  157.3620 C   0  0  0  0  0  0  0  0  0  0  0  0
  152.6597  140.9026  158.3410 C   0  0  0  0  0  0  0  0  0  0  0  0
  152.9346  141.7805  159.4141 C   0  0  0  0  0  0  0  0  0  0  0  0
  153.8930  141.3205  160.4996 C   0  0  0  0  0  0  0  0  0  0  0  0
  152.1246  144.9556  160.5248 H   0  0  0  0  0  0  0  0  0  0  0  0
  153.7053  144.1999  160.7012 H   0  0  0  0  0  0  0  0  0  0  0  0
  152.3107  143.5590  161.5830 H   0  0  0  0  0  0  0  0  0  0  0  0
  150.9711  144.4746  158.5270 H   0  0  0  0  0  0  0  0  0  0  0  0
  149.8943  141.4253  154.6427 H   0  0  0  0  0  0  0  0  0  0  0  0
  152.1706  139.4609  154.8181 H   0  0  0  0  0  0  0  0  0  0  0  0
  152.5132  139.1242  156.4983 H   0  0  0  0  0  0  0  0  0  0  0  0
  149.6568  138.8423  155.4846 H   0  0  0  0  0  0  0  0  0  0  0  0
  149.7164  137.2794  157.1895 H   0  0  0  0  0  0  0  0  0  0  0  0
  151.2963  137.4502  154.0308 H   0  0  0  0  0  0  0  0  0  0  0  0
  151.6764  136.5490  155.4859 H   0  0  0  0  0  0  0  0  0  0  0  0
  148.9496  136.6665  155.3499 H   0  0  0  0  0  0  0  0  0  0  0  0
  150.8497  134.5716  154.6861 H   0  0  0  0  0  0  0  0  0  0  0  0
  149.8617  134.7048  156.1209 H   0  0  0  0  0  0  0  0  0  0  0  0
  146.9468  134.8564  155.1321 H   0  0  0  0  0  0  0  0  0  0  0  0
  145.6682  133.1336  153.7045 H   0  0  0  0  0  0  0  0  0  0  0  0
  147.3098  131.5701  152.3220 H   0  0  0  0  0  0  0  0  0  0  0  0
  153.1176  139.9259  158.2897 H   0  0  0  0  0  0  0  0  0  0  0  0
  154.2484  140.3063  160.3154 H   0  0  0  0  0  0  0  0  0  0  0  0
  153.4021  141.3291  161.4730 H   0  0  0  0  0  0  0  0  0  0  0  0
  154.7634  141.9756  160.5443 H   0  0  0  0  0  0  0  0  0  0  0  0
  149.4234  136.4205  153.7997 H   0  0  0  0  0  0  0  0  0  0  0  0
  149.7814  143.5518  156.0773 H   0  0  0  0  0  0  0  0  0  0  0  0
  1  2  1  0  0  0  0
  1 23  1  0  0  0  0
  1 24  1  0  0  0  0
  1 25  1  0  0  0  0
  2 21  1  0  0  0  0
  2  3  2  0  0  0  0
  3  4  1  0  0  0  0
  3 26  1  0  0  0  0
  4 19  2  0  0  0  0
  4  5  1  0  0  0  0
  5  6  2  0  0  0  0
  5 45  1  0  0  0  0
  6  7  1  0  0  0  0
  6 27  1  0  0  0  0
  7  8  1  0  0  0  0
  7 19  1  0  0  0  0
  8  9  1  0  0  0  0
  8 28  1  0  0  0  0
  8 29  1  0  0  0  0
  9 10  1  0  0  0  0
  9 11  1  0  0  0  0
  9 30  1  0  0  0  0
 10 31  1  0  0  0  0
 11 12  1  0  0  0  0
 11 32  1  0  0  0  0
 11 33  1  0  0  0  0
 12 13  1  0  0  0  0
 12 34  1  0  0  0  0
 12 44  1  0  0  0  0
 13 14  1  0  0  0  0
 13 35  1  0  0  0  0
 13 36  1  0  0  0  0
 14 18  1  0  0  0  0
 14 15  2  0  0  0  0
 15 16  1  0  0  0  0
 15 37  1  0  0  0  0
 16 17  2  0  0  0  0
 16 38  1  0  0  0  0
 17 18  1  0  0  0  0
 17 39  1  0  0  0  0
 19 20  1  0  0  0  0
 20 21  2  0  0  0  0
 20 40  1  0  0  0  0
 21 22  1  0  0  0  0
 22 41  1  0  0  0  0
 22 42  1  0  0  0  0
 22 43  1  0  0  0  0
M  CHG  1   5   1
M  CHG  1  12   1
M  END
> <s_m_source_file>
AV-unprocessed.smi

> <i_m_source_file_index>
1224

> <i_lp_mmshare_version>
43012

> <i_f3d_flags>
0

> <s_epik_input>
W0NIM11jKFtjSF0xKWMoW0NIM10pW2NIXWMoYzEyKW4oW2NIXW4yKVtDSDJdW0NASF0oW09IXSlbQ0gyXVtOSF1bQ0gyXWMzW2NIXVtjSF1bY0hdczM=

> <s_epik_cmdline>
J2VwaWtfcHl0aG9uJywgJy1waCcsICc3LjAnLCAnLXRuJywgJzgnLCAnLW1hJywgJzIwMCcsICctbWV0YWxfYmluZGluZycsICctaW1hZScsICc8aW5maWxlLm1hZT4nLCAnLW9tYWUnLCAnPG91dGZpbGUubWFlPic=

> <r_epik_Ionization_Penalty>
1.2222

> <r_epik_Ionization_Penalty_Charging>
1.2222

> <r_epik_Ionization_Penalty_Neutral>
3.40394e-06

> <r_epik_State_Penalty>
1.23781

> <r_epik_Charging_Adjusted_Penalty>
2.46001

> <i_epik_Tot_Q>
2

> <i_epik_Tot_abs_Q>
2

> <r_epik_Metal_State_Penalty>
5.24642

> <b_epik_Metal_Only>
0

> <s_lp_Force_Field>
OPLS_2005

> <r_lp_Energy>
16.8702

> <b_lp_Chiralities_Consistent>
1

> <s_lp_Variant>
AV-unprocessed.smi:1224-3

> <Gold.Version>
5.8.1

> <Gold.Id.Protein>
6NUR|6NUR_protein|mol2

> <Gold.PLP.Fitness>
56.7390

> <Gold.PLP.PLP>
-43.5806

> <Gold.PLP.part.hbond>
-2.0000

> <Gold.PLP.part.metal>
0.0000

> <Gold.PLP.part.buried>
-4.9964

> <Gold.PLP.part.nonpolar>
-35.7899

> <Gold.PLP.part.repulsive>
0.1280

> <Gold.PLP.ligand.clash>
0.0000

> <Gold.PLP.ligand.torsion>
0.7587

> <Gold.PLP.Chemscore.Hbond>
4.0000

> <Gold.PLP.Chemscore.CHOScore>
0.8579

> <Gold.PLP.Chemscore.Metal>
0.0000

> <Gold.Chemscore.Hbonds>
donor molecule, donor type, donor heavy atom, donor atom, acceptor molecule, acceptor atom, score
      L1  H     5    45       P1  8028  1.98
      L1  H    12    44       P1  7948  2.00
      L1  C    17    39       P1 10747  0.40

> <Gold.PLP.Chemscore.Internal.Correction>
0.1022

> <Gold.Rescore>
     Score         DG    S(hbond)    S(metal)    S(lipo)     H(rot)  DE(clash)    DE(int)     intcor
     19.19     -20.10       1.93        0.00     124.64       2.50       0.09       0.82       ----

> <Gold.Chemscore.Fitness>
19.1901

> <Gold.Chemscore.DG>
-20.1040

> <Gold.Chemscore.ZeroCoef>
-5.4800

> <Gold.Chemscore.Hbond>
1.9316

> <Gold.Chemscore.Metal>
0.0000

> <Gold.Chemscore.Lipo>
124.6432

> <Gold.Chemscore.Internal_Hbond>
0.0000

> <Gold.Chemscore.DEClash>
0.0933

> <Gold.Chemscore.DEInternal>
0.8205

> <Gold.Chemscore.Rot>
2.5042

> <Gold.Chemscore.Internal.Correction>
   9.000000E+99

> <Gold.Chemscore.Hbonds>
donor molecule, donor type, donor heavy atom, donor atom, acceptor molecule, acceptor atom, score
      L1  H     5    45       P1  8028  0.92
      L1  H    12    44       P1  7948  0.80

> <Gold.Chemscore.Hbond.Weighted>
-6.4515

> <Gold.Chemscore.Metal.Weighted>
-0.0000

> <Gold.Chemscore.Lipo.Weighted>
-14.5833

> <Gold.Chemscore.Internal_Hbond.Weighted>
0.0000

> <Gold.Chemscore.DEClash.Weighted>
0.0933

> <Gold.Chemscore.DEInternal.Weighted>
0.8205

> <Gold.Chemscore.Rot.Weighted>
6.4108

> <Gold.Chemscore.Internal.Correction.Weighted>
   9.000000E+99

> <Gold.Protein.RotatedTorsions>
[ 6907 6896 6895 6894 ] final   12.89 input  -60.11 | X-H torsion
[ 7974 7965 7964 7962 ] final  106.43 input  175.53 | X-H torsion
[ 8008 7997 7996 7995 ] final  168.18 input   59.86 | X-H torsion
[ 10167 10162 10161 10158 ] final  118.03 input  -65.29 | X-H torsion
[ 10718 10713 10712 10709 ] final  171.93 input   66.30 | X-H torsion
[ 10763 10752 10751 10750 ] final  -45.64 input  -60.55 | X-H torsion
[ 11005 11000 10999 10996 ] final  -83.78 input  -57.11 | X-H torsion

> <Gold.Protein.ActiveResidues>
 VAL166  LYS551  ARG553  GLY616  TRP617  ASP618  TYR619  PRO620  LYS621  CYS622 
 ASP623  PHE694  ASN695  SER759  ASP760  ASP761  ALA762  ILE779  LEU786  VAL792 
 PHE793  MET794  SER795  GLU796  ALA797  LYS798  CYS799  TRP800  GLU811  SER814 

> <Gold.Protein.RotatedAtoms>
  151.7775  135.0770  160.0368 H   0  0  0  0  0  0  0  0  0  0  0  0  # atno 6907 bound_to 6896
  152.3246  133.5886  159.5776 H   0  0  0  0  0  0  0  0  0  0  0  0  # atno 6908 bound_to 6896
  150.7388  133.9876  159.3638 H   0  0  0  0  0  0  0  0  0  0  0  0  # atno 6909 bound_to 6896
  145.3068  139.2552  143.3784 H   0  0  0  0  0  0  0  0  0  0  0  0  # atno 7974 bound_to 7965
  156.1569  140.1597  156.8678 H   0  0  0  0  0  0  0  0  0  0  0  0  # atno 8008 bound_to 7997
  154.5123  140.0798  156.8050 H   0  0  0  0  0  0  0  0  0  0  0  0  # atno 8009 bound_to 7997
  155.3785  140.3404  155.4248 H   0  0  0  0  0  0  0  0  0  0  0  0  # atno 8010 bound_to 7997
  139.6139  144.7088  151.2783 H   0  0  0  0  0  0  0  0  0  0  0  0  # atno 10167 bound_to 10162
  156.9863  131.0134  151.2868 H   0  0  0  0  0  0  0  0  0  0  0  0  # atno 10718 bound_to 10713
  154.0319  135.6655  153.4781 H   0  0  0  0  0  0  0  0  0  0  0  0  # atno 10763 bound_to 10752
  153.0537  135.5069  154.7925 H   0  0  0  0  0  0  0  0  0  0  0  0  # atno 10764 bound_to 10752
  154.6873  135.3055  154.9495 H   0  0  0  0  0  0  0  0  0  0  0  0  # atno 10765 bound_to 10752
  141.1655  133.7312  156.8770 H   0  0  0  0  0  0  0  0  0  0  0  0  # atno 11005 bound_to 11000
  146.3132  140.3594  142.8663 LP  0  0  0  0  0  0  0  0  0  0  0  0  # atno 17320 bound_to 7965
  144.9049  140.7687  143.5844 LP  0  0  0  0  0  0  0  0  0  0  0  0  # atno 17321 bound_to 7965
  140.7338  143.6785  150.8021 LP  0  0  0  0  0  0  0  0  0  0  0  0  # atno 17342 bound_to 10162
  140.0385  143.5371  152.2729 LP  0  0  0  0  0  0  0  0  0  0  0  0  # atno 17343 bound_to 10162
  157.5490  130.8170  149.8122 LP  0  0  0  0  0  0  0  0  0  0  0  0  # atno 17370 bound_to 10713
  156.0224  130.3791  150.1921 LP  0  0  0  0  0  0  0  0  0  0  0  0  # atno 17371 bound_to 10713
  140.1741  134.9079  157.2869 LP  0  0  0  0  0  0  0  0  0  0  0  0  # atno 17394 bound_to 11000
  140.2468  134.3730  155.7458 LP  0  0  0  0  0  0  0  0  0  0  0  0  # atno 17395 bound_to 11000

$$$$
