AV-unprocessed.smi:671|AV-procd|sdf|3282|dock1
  -GOLD-   22720 0243D 1   1.00000     0.00000
 Structure written by MMmdl.
 50 51  0  0  0  0  0  0  0  0  2 V2000
  146.5954  142.6795  154.0852 C   0  0  0  0  0  0  0  0  0  0  0  0
  147.1476  141.3021  153.9314 C   0  0  0  0  0  0  0  0  0  0  0  0
  146.4650  140.2596  153.3865 N   0  3  0  0  0  0  0  0  0  0  0  0
  147.2222  139.1530  153.3976 N   0  0  0  0  0  0  0  0  0  0  0  0
  146.6749  137.9078  152.8586 C   0  0  0  0  0  0  0  0  0  0  0  0
  148.4392  139.4207  153.9490 C   0  0  0  0  0  0  0  0  0  0  0  0
  149.5266  138.4117  154.1279 C   0  0  0  0  0  0  0  0  0  0  0  0
  148.3981  140.7803  154.2841 C   0  0  0  0  0  0  0  0  0  0  0  0
  149.5147  141.5520  154.9294 C   0  0  0  0  0  0  0  0  0  0  0  0
  149.2598  141.8682  156.4211 C   0  0  1  0  0  0  0  0  0  0  0  0
  148.2006  140.9496  157.0501 C   0  0  0  0  0  0  0  0  0  0  0  0
  150.5042  141.7451  157.1841 N   0  0  0  0  0  0  0  0  0  0  0  0
  151.0669  142.6450  158.0118 C   0  0  0  0  0  0  0  0  0  0  0  0
  150.5523  143.7405  158.2254 O   0  0  0  0  0  0  0  0  0  0  0  0
  152.2194  142.2436  158.5733 N   0  0  0  0  0  0  0  0  0  0  0  0
  153.0050  143.0038  159.5402 C   0  0  2  0  0  0  0  0  0  0  0  0
  154.0308  142.0836  160.2281 C   0  0  0  0  0  0  0  0  0  0  0  0
  153.5388  141.8998  161.6633 C   0  0  0  0  0  0  0  0  0  0  0  0
  152.8195  143.2072  161.9757 C   0  0  0  0  0  0  0  0  0  0  0  0
  152.1094  143.5702  160.6671 C   0  0  1  0  0  0  0  0  0  0  0  0
  151.8174  145.0714  160.5333 C   0  0  0  0  0  0  0  0  0  0  0  0
  146.5145  142.9352  155.1420 H   0  0  0  0  0  0  0  0  0  0  0  0
  145.6053  142.7500  153.6339 H   0  0  0  0  0  0  0  0  0  0  0  0
  147.2480  143.4052  153.6005 H   0  0  0  0  0  0  0  0  0  0  0  0
  146.8087  137.1122  153.5923 H   0  0  0  0  0  0  0  0  0  0  0  0
  147.2077  137.6530  151.9422 H   0  0  0  0  0  0  0  0  0  0  0  0
  145.6120  138.0243  152.6420 H   0  0  0  0  0  0  0  0  0  0  0  0
  150.4820  138.8982  154.3196 H   0  0  0  0  0  0  0  0  0  0  0  0
  149.6286  137.7999  153.2315 H   0  0  0  0  0  0  0  0  0  0  0  0
  149.2969  137.7598  154.9707 H   0  0  0  0  0  0  0  0  0  0  0  0
  150.4550  141.0081  154.8311 H   0  0  0  0  0  0  0  0  0  0  0  0
  149.6652  142.4796  154.3763 H   0  0  0  0  0  0  0  0  0  0  0  0
  148.8896  142.8902  156.5145 H   0  0  0  0  0  0  0  0  0  0  0  0
  147.2344  141.0587  156.5577 H   0  0  0  0  0  0  0  0  0  0  0  0
  148.0535  141.1871  158.1042 H   0  0  0  0  0  0  0  0  0  0  0  0
  148.4934  139.9014  156.9839 H   0  0  0  0  0  0  0  0  0  0  0  0
  151.0142  140.8833  157.0513 H   0  0  0  0  0  0  0  0  0  0  0  0
  152.5688  141.3294  158.3276 H   0  0  0  0  0  0  0  0  0  0  0  0
  153.5465  143.8039  159.0318 H   0  0  0  0  0  0  0  0  0  0  0  0
  154.1710  141.1294  159.7179 H   0  0  0  0  0  0  0  0  0  0  0  0
  155.0016  142.5809  160.2443 H   0  0  0  0  0  0  0  0  0  0  0  0
  152.8323  141.0705  161.7100 H   0  0  0  0  0  0  0  0  0  0  0  0
  154.3492  141.6879  162.3612 H   0  0  0  0  0  0  0  0  0  0  0  0
  152.1293  143.1156  162.8149 H   0  0  0  0  0  0  0  0  0  0  0  0
  153.5541  143.9720  162.2320 H   0  0  0  0  0  0  0  0  0  0  0  0
  151.1563  143.0375  160.6638 H   0  0  0  0  0  0  0  0  0  0  0  0
  152.7366  145.6578  160.5454 H   0  0  0  0  0  0  0  0  0  0  0  0
  151.1875  145.4212  161.3515 H   0  0  0  0  0  0  0  0  0  0  0  0
  151.2970  145.2872  159.6002 H   0  0  0  0  0  0  0  0  0  0  0  0
  145.5241  140.2463  153.0136 H   0  0  0  0  0  0  0  0  0  0  0  0
  1  2  1  0  0  0  0
  1 22  1  0  0  0  0
  1 23  1  0  0  0  0
  1 24  1  0  0  0  0
  2  8  1  0  0  0  0
  2  3  2  0  0  0  0
  3  4  1  0  0  0  0
  3 50  1  0  0  0  0
  4  5  1  0  0  0  0
  4  6  1  0  0  0  0
  5 25  1  0  0  0  0
  5 26  1  0  0  0  0
  5 27  1  0  0  0  0
  6  7  1  0  0  0  0
  6  8  2  0  0  0  0
  7 28  1  0  0  0  0
  7 29  1  0  0  0  0
  7 30  1  0  0  0  0
  8  9  1  0  0  0  0
  9 10  1  0  0  0  0
  9 31  1  0  0  0  0
  9 32  1  0  0  0  0
 10 11  1  0  0  0  0
 10 12  1  0  0  0  0
 10 33  1  0  0  0  0
 11 34  1  0  0  0  0
 11 35  1  0  0  0  0
 11 36  1  0  0  0  0
 12 13  1  0  0  0  0
 12 37  1  0  0  0  0
 13 14  2  0  0  0  0
 13 15  1  0  0  0  0
 15 16  1  0  0  0  0
 15 38  1  0  0  0  0
 16 20  1  0  0  0  0
 16 17  1  0  0  0  0
 16 39  1  0  0  0  0
 17 18  1  0  0  0  0
 17 40  1  0  0  0  0
 17 41  1  0  0  0  0
 18 19  1  0  0  0  0
 18 42  1  0  0  0  0
 18 43  1  0  0  0  0
 19 20  1  0  0  0  0
 19 44  1  0  0  0  0
 19 45  1  0  0  0  0
 20 21  1  0  0  0  0
 20 46  1  0  0  0  0
 21 47  1  0  0  0  0
 21 48  1  0  0  0  0
 21 49  1  0  0  0  0
M  CHG  1   3   1
M  END
> <s_m_source_file>
AV-unprocessed.smi

> <i_m_source_file_index>
671

> <i_lp_mmshare_version>
43012

> <i_f3d_flags>
0

> <s_epik_input>
W0NIM11jMW5uKFtDSDNdKWMoW0NIM10pYzFbQ0gyXVtDQEhdKFtDSDNdKVtOSF1DKD1PKVtOSF1bQ0BASF0yW0NIMl1bQ0gyXVtDSDJdW0NASF0yW0NIM10=

> <s_epik_cmdline>
J2VwaWtfcHl0aG9uJywgJy1waCcsICc3LjAnLCAnLXRuJywgJzgnLCAnLW1hJywgJzIwMCcsICctbWV0YWxfYmluZGluZycsICctaW1hZScsICc8aW5maWxlLm1hZT4nLCAnLW9tYWUnLCAnPG91dGZpbGUubWFlPic=

> <r_lp_tautomer_probability>
1

> <r_epik_Ionization_Penalty>
2.28705

> <r_epik_Ionization_Penalty_Charging>
2.28698

> <r_epik_Ionization_Penalty_Neutral>
6.23157e-05

> <r_epik_State_Penalty>
2.43671

> <r_epik_Charging_Adjusted_Penalty>
4.72369

> <i_epik_Tot_Q>
1

> <i_epik_Tot_abs_Q>
1

> <r_epik_Metal_State_Penalty>
2.44911

> <b_epik_Metal_Only>
0

> <s_lp_Force_Field>
OPLS_2005

> <r_lp_Energy>
34.579

> <b_lp_Chiralities_Consistent>
1

> <s_lp_Variant>
AV-unprocessed.smi:671-10

> <Gold.Version>
5.8.1

> <Gold.Id.Protein>
6NUR|6NUR_protein|mol2

> <Gold.PLP.Fitness>
50.5416

> <Gold.PLP.PLP>
-46.3928

> <Gold.PLP.part.hbond>
-1.0000

> <Gold.PLP.part.metal>
0.0000

> <Gold.PLP.part.buried>
-1.8134

> <Gold.PLP.part.nonpolar>
-43.9851

> <Gold.PLP.part.repulsive>
0.2787

> <Gold.PLP.ligand.clash>
0.0000

> <Gold.PLP.ligand.torsion>
0.9691

> <Gold.PLP.Chemscore.Hbond>
2.0000

> <Gold.PLP.Chemscore.CHOScore>
0.0000

> <Gold.PLP.Chemscore.Metal>
0.0000

> <Gold.Chemscore.Hbonds>
donor molecule, donor type, donor heavy atom, donor atom, acceptor molecule, acceptor atom, score
      L1  H     3    50       P1 10175  2.00

> <Gold.PLP.Chemscore.Internal.Correction>
0.0870

> <Gold.Rescore>
     Score         DG    S(hbond)    S(metal)    S(lipo)     H(rot)  DE(clash)    DE(int)     intcor
     15.03     -19.05       1.00        0.00     120.46       1.51       0.56       3.47       ----

> <Gold.Chemscore.Fitness>
15.0317

> <Gold.Chemscore.DG>
-19.0546

> <Gold.Chemscore.ZeroCoef>
-5.4800

> <Gold.Chemscore.Hbond>
0.9987

> <Gold.Chemscore.Metal>
0.0000

> <Gold.Chemscore.Lipo>
120.4576

> <Gold.Chemscore.Internal_Hbond>
0.0000

> <Gold.Chemscore.DEClash>
0.5563

> <Gold.Chemscore.DEInternal>
3.4665

> <Gold.Chemscore.Rot>
1.5057

> <Gold.Chemscore.Internal.Correction>
   9.000000E+99

> <Gold.Chemscore.Hbonds>
donor molecule, donor type, donor heavy atom, donor atom, acceptor molecule, acceptor atom, score
      L1  H     3    50       P1 10175  0.97

> <Gold.Chemscore.Hbond.Weighted>
-3.3357

> <Gold.Chemscore.Metal.Weighted>
-0.0000

> <Gold.Chemscore.Lipo.Weighted>
-14.0935

> <Gold.Chemscore.Internal_Hbond.Weighted>
0.0000

> <Gold.Chemscore.DEClash.Weighted>
0.5563

> <Gold.Chemscore.DEInternal.Weighted>
3.4665

> <Gold.Chemscore.Rot.Weighted>
3.8547

> <Gold.Chemscore.Internal.Correction.Weighted>
   9.000000E+99

> <Gold.Protein.RotatedTorsions>
[ 6907 6896 6895 6894 ] final  -50.72 input  -60.11 | X-H torsion
[ 7974 7965 7964 7962 ] final -102.30 input  175.53 | X-H torsion
[ 8008 7997 7996 7995 ] final -149.50 input   59.86 | X-H torsion
[ 10167 10162 10161 10158 ] final    4.14 input  -65.29 | X-H torsion
[ 10718 10713 10712 10709 ] final    4.21 input   66.30 | X-H torsion
[ 10763 10752 10751 10750 ] final  -19.59 input  -60.55 | X-H torsion
[ 11005 11000 10999 10996 ] final -137.55 input  -57.11 | X-H torsion

> <Gold.Protein.ActiveResidues>
 VAL166  LYS551  ARG553  GLY616  TRP617  ASP618  TYR619  PRO620  LYS621  CYS622 
 ASP623  PHE694  ASN695  SER759  ASP760  ASP761  ALA762  ILE779  LEU786  VAL792 
 PHE793  MET794  SER795  GLU796  ALA797  LYS798  CYS799  TRP800  GLU811  SER814 

> <Gold.Protein.RotatedAtoms>
  150.8680  134.8048  159.7133 H   0  0  0  0  0  0  0  0  0  0  0  0  # atno 6907 bound_to 6896
  152.4695  134.4992  159.9729 H   0  0  0  0  0  0  0  0  0  0  0  0  # atno 6908 bound_to 6896
  151.5085  133.3451  159.2916 H   0  0  0  0  0  0  0  0  0  0  0  0  # atno 6909 bound_to 6896
  145.2705  140.9297  143.2989 H   0  0  0  0  0  0  0  0  0  0  0  0  # atno 7974 bound_to 7965
  155.6087  140.0669  157.2712 H   0  0  0  0  0  0  0  0  0  0  0  0  # atno 8008 bound_to 7997
  154.4259  140.1805  156.1297 H   0  0  0  0  0  0  0  0  0  0  0  0  # atno 8009 bound_to 7997
  156.0102  140.3327  155.6936 H   0  0  0  0  0  0  0  0  0  0  0  0  # atno 8010 bound_to 7997
  140.6550  143.7450  150.7638 H   0  0  0  0  0  0  0  0  0  0  0  0  # atno 10167 bound_to 10162
  156.8892  130.5681  149.5650 H   0  0  0  0  0  0  0  0  0  0  0  0  # atno 10718 bound_to 10713
  153.6073  135.6997  153.5361 H   0  0  0  0  0  0  0  0  0  0  0  0  # atno 10763 bound_to 10752
  153.3047  135.4119  155.1283 H   0  0  0  0  0  0  0  0  0  0  0  0  # atno 10764 bound_to 10752
  154.8570  135.3657  154.5610 H   0  0  0  0  0  0  0  0  0  0  0  0  # atno 10765 bound_to 10752
  140.8700  134.2062  157.4656 H   0  0  0  0  0  0  0  0  0  0  0  0  # atno 11005 bound_to 11000
  144.9340  139.4266  143.6481 LP  0  0  0  0  0  0  0  0  0  0  0  0  # atno 17320 bound_to 7965
  146.3248  139.8265  142.8916 LP  0  0  0  0  0  0  0  0  0  0  0  0  # atno 17321 bound_to 7965
  140.1108  143.4701  152.2371 LP  0  0  0  0  0  0  0  0  0  0  0  0  # atno 17342 bound_to 10162
  139.5771  144.7493  151.3736 LP  0  0  0  0  0  0  0  0  0  0  0  0  # atno 17343 bound_to 10162
  156.0638  130.5685  150.9246 LP  0  0  0  0  0  0  0  0  0  0  0  0  # atno 17370 bound_to 10713
  157.6094  131.0937  150.8822 LP  0  0  0  0  0  0  0  0  0  0  0  0  # atno 17371 bound_to 10713
  139.8711  134.9770  156.4941 LP  0  0  0  0  0  0  0  0  0  0  0  0  # atno 17394 bound_to 11000
  140.8584  133.8078  155.9240 LP  0  0  0  0  0  0  0  0  0  0  0  0  # atno 17395 bound_to 11000

$$$$
