AV-unprocessed.smi:895|AV-procd|sdf|4073|dock5
  -GOLD-   22720 1563D 1   1.00000     0.00000
 Structure written by MMmdl.
 44 45  0  0  0  0  0  0  0  0  1 V2000
  147.6228  140.3274  154.2320 C   0  0  0  0  0  0  0  0  0  0  0  0
  148.6631  139.2115  154.0358 C   0  0  0  0  0  0  0  0  0  0  0  0
  148.3368  138.0095  154.9441 C   0  0  0  0  0  0  0  0  0  0  0  0
  148.5311  138.8057  152.6879 O   0  0  0  0  0  0  0  0  0  0  0  0
  150.0918  139.7809  154.2332 C   0  0  0  0  0  0  0  0  0  0  0  0
  150.4926  139.9018  155.6323 N   0  0  0  0  0  0  0  0  0  0  0  0
  151.7433  140.1187  156.0600 C   0  0  0  0  0  0  0  0  0  0  0  0
  152.7148  140.2394  155.3143 O   0  0  0  0  0  0  0  0  0  0  0  0
  151.8026  140.1910  157.3974 N   0  0  0  0  0  0  0  0  0  0  0  0
  153.0096  140.4309  158.1888 C   0  0  2  0  0  0  0  0  0  0  0  0
  153.5337  139.0737  158.6992 C   0  0  0  0  0  0  0  0  0  0  0  0
  154.7476  139.2367  159.6256 C   0  0  0  0  0  0  0  0  0  0  0  0
  154.4194  140.1621  160.8049 C   0  0  0  0  0  0  0  0  0  0  0  0
  153.9328  141.5299  160.3059 C   0  0  0  0  0  0  0  0  0  0  0  0
  152.7117  141.3943  159.3694 C   0  0  1  0  0  0  0  0  0  0  0  0
  152.2580  142.7015  158.9084 N   0  0  0  0  0  0  0  0  0  0  0  0
  152.7688  143.9413  159.2330 C   0  0  0  0  0  0  0  0  0  0  0  0
  152.0064  144.8782  158.5967 C   0  0  0  0  0  0  0  0  0  0  0  0
  151.0365  144.1065  157.8987 C   0  0  0  0  0  0  0  0  0  0  0  0
  151.1883  142.8065  158.0873 N   0  0  0  0  0  0  0  0  0  0  0  0
  147.6371  140.7037  155.2553 H   0  0  0  0  0  0  0  0  0  0  0  0
  146.6119  139.9720  154.0282 H   0  0  0  0  0  0  0  0  0  0  0  0
  147.8150  141.1718  153.5688 H   0  0  0  0  0  0  0  0  0  0  0  0
  148.4577  138.2696  155.9962 H   0  0  0  0  0  0  0  0  0  0  0  0
  148.9794  137.1532  154.7367 H   0  0  0  0  0  0  0  0  0  0  0  0
  147.3075  137.6774  154.8046 H   0  0  0  0  0  0  0  0  0  0  0  0
  149.0417  138.0201  152.5599 H   0  0  0  0  0  0  0  0  0  0  0  0
  150.8286  139.2101  153.6643 H   0  0  0  0  0  0  0  0  0  0  0  0
  150.1288  140.7933  153.8296 H   0  0  0  0  0  0  0  0  0  0  0  0
  149.7615  139.8152  156.3228 H   0  0  0  0  0  0  0  0  0  0  0  0
  150.9427  140.0758  157.9130 H   0  0  0  0  0  0  0  0  0  0  0  0
  153.7881  140.8691  157.5612 H   0  0  0  0  0  0  0  0  0  0  0  0
  152.7418  138.5513  159.2384 H   0  0  0  0  0  0  0  0  0  0  0  0
  153.8021  138.4373  157.8551 H   0  0  0  0  0  0  0  0  0  0  0  0
  155.0659  138.2617  159.9957 H   0  0  0  0  0  0  0  0  0  0  0  0
  155.5877  139.6442  159.0620 H   0  0  0  0  0  0  0  0  0  0  0  0
  153.6526  139.7039  161.4309 H   0  0  0  0  0  0  0  0  0  0  0  0
  155.3004  140.2881  161.4350 H   0  0  0  0  0  0  0  0  0  0  0  0
  153.6797  142.1619  161.1578 H   0  0  0  0  0  0  0  0  0  0  0  0
  154.7528  142.0271  159.7863 H   0  0  0  0  0  0  0  0  0  0  0  0
  151.8982  140.9652  159.9570 H   0  0  0  0  0  0  0  0  0  0  0  0
  153.6202  144.0530  159.8880 H   0  0  0  0  0  0  0  0  0  0  0  0
  152.1209  145.9514  158.6284 H   0  0  0  0  0  0  0  0  0  0  0  0
  150.2309  144.4499  157.2667 H   0  0  0  0  0  0  0  0  0  0  0  0
  1  2  1  0  0  0  0
  1 21  1  0  0  0  0
  1 22  1  0  0  0  0
  1 23  1  0  0  0  0
  2  3  1  0  0  0  0
  2  4  1  0  0  0  0
  2  5  1  0  0  0  0
  3 24  1  0  0  0  0
  3 25  1  0  0  0  0
  3 26  1  0  0  0  0
  4 27  1  0  0  0  0
  5  6  1  0  0  0  0
  5 28  1  0  0  0  0
  5 29  1  0  0  0  0
  6  7  1  0  0  0  0
  6 30  1  0  0  0  0
  7  8  2  0  0  0  0
  7  9  1  0  0  0  0
  9 10  1  0  0  0  0
  9 31  1  0  0  0  0
 10 15  1  0  0  0  0
 10 11  1  0  0  0  0
 10 32  1  0  0  0  0
 11 12  1  0  0  0  0
 11 33  1  0  0  0  0
 11 34  1  0  0  0  0
 12 13  1  0  0  0  0
 12 35  1  0  0  0  0
 12 36  1  0  0  0  0
 13 14  1  0  0  0  0
 13 37  1  0  0  0  0
 13 38  1  0  0  0  0
 14 15  1  0  0  0  0
 14 39  1  0  0  0  0
 14 40  1  0  0  0  0
 15 16  1  0  0  0  0
 15 41  1  0  0  0  0
 16 20  1  0  0  0  0
 16 17  1  0  0  0  0
 17 18  2  0  0  0  0
 17 42  1  0  0  0  0
 18 19  1  0  0  0  0
 18 43  1  0  0  0  0
 19 20  2  0  0  0  0
 19 44  1  0  0  0  0
M  END
> <s_m_source_file>
AV-unprocessed.smi

> <i_m_source_file_index>
895

> <i_lp_mmshare_version>
43012

> <i_f3d_flags>
0

> <s_epik_input>
W0NIM11DKFtDSDNdKShbT0hdKVtDSDJdW05IXUMoPU8pW05IXVtDQEBIXTFbQ0gyXVtDSDJdW0NIMl1bQ0gyXVtDQEhdMW4yW2NIXVtjSF1bY0hdbjI=

> <s_epik_cmdline>
J2VwaWtfcHl0aG9uJywgJy1waCcsICc3LjAnLCAnLXRuJywgJzgnLCAnLW1hJywgJzIwMCcsICctbWV0YWxfYmluZGluZycsICctaW1hZScsICc8aW5maWxlLm1hZT4nLCAnLW9tYWUnLCAnPG91dGZpbGUubWFlPic=

> <r_lp_tautomer_probability>
1

> <r_epik_Ionization_Penalty>
0.000440451

> <r_epik_Ionization_Penalty_Charging>
0

> <r_epik_Ionization_Penalty_Neutral>
0.000440451

> <r_epik_State_Penalty>
-0

> <r_epik_Charging_Adjusted_Penalty>
0

> <i_epik_Tot_Q>
0

> <i_epik_Tot_abs_Q>
0

> <r_epik_Metal_State_Penalty>
-0

> <b_epik_Metal_Only>
0

> <s_lp_Force_Field>
OPLS_2005

> <r_lp_Energy>
10.7008

> <b_lp_Chiralities_Consistent>
1

> <s_lp_Variant>
AV-unprocessed.smi:895-1

> <Gold.Version>
5.8.1

> <Gold.Id.Protein>
6NUR|6NUR_protein|mol2

> <Gold.PLP.Fitness>
48.2690

> <Gold.PLP.PLP>
-40.0762

> <Gold.PLP.part.hbond>
-3.4900

> <Gold.PLP.part.metal>
0.0000

> <Gold.PLP.part.buried>
-1.9686

> <Gold.PLP.part.nonpolar>
-33.4357

> <Gold.PLP.part.repulsive>
0.2090

> <Gold.PLP.ligand.clash>
0.0000

> <Gold.PLP.ligand.torsion>
0.6288

> <Gold.PLP.Chemscore.Hbond>
2.1352

> <Gold.PLP.Chemscore.CHOScore>
1.0000

> <Gold.PLP.Chemscore.Metal>
0.0000

> <Gold.Chemscore.Hbonds>
donor molecule, donor type, donor heavy atom, donor atom, acceptor molecule, acceptor atom, score
      L1  H     4    27       P1  7948  0.88
      P1  H  7989  7998       L1     8  0.27
      P1  H  7997  8010       L1     8  1.00
      L1  C    19    44       P1  8028  1.00

> <Gold.PLP.Chemscore.Internal.Correction>
0.0449

> <Gold.Rescore>
     Score         DG    S(hbond)    S(metal)    S(lipo)     H(rot)  DE(clash)    DE(int)     intcor
     16.73     -18.98       1.96        0.00     107.44       2.19       0.20       2.05       ----

> <Gold.Chemscore.Fitness>
16.7317

> <Gold.Chemscore.DG>
-18.9758

> <Gold.Chemscore.ZeroCoef>
-5.4800

> <Gold.Chemscore.Hbond>
1.9572

> <Gold.Chemscore.Metal>
0.0000

> <Gold.Chemscore.Lipo>
107.4366

> <Gold.Chemscore.Internal_Hbond>
0.0000

> <Gold.Chemscore.DEClash>
0.1988

> <Gold.Chemscore.DEInternal>
2.0453

> <Gold.Chemscore.Rot>
2.1919

> <Gold.Chemscore.Internal.Correction>
   9.000000E+99

> <Gold.Chemscore.Hbonds>
donor molecule, donor type, donor heavy atom, donor atom, acceptor molecule, acceptor atom, score
      L1  H     4    27       P1  7948  0.85
      P1  H  7989  7998       L1     8  0.06
      P1  H  7997  8010       L1     8  0.97

> <Gold.Chemscore.Hbond.Weighted>
-6.5371

> <Gold.Chemscore.Metal.Weighted>
-0.0000

> <Gold.Chemscore.Lipo.Weighted>
-12.5701

> <Gold.Chemscore.Internal_Hbond.Weighted>
0.0000

> <Gold.Chemscore.DEClash.Weighted>
0.1988

> <Gold.Chemscore.DEInternal.Weighted>
2.0453

> <Gold.Chemscore.Rot.Weighted>
5.6113

> <Gold.Chemscore.Internal.Correction.Weighted>
   9.000000E+99

> <Gold.Protein.RotatedTorsions>
[ 6907 6896 6895 6894 ] final   -2.20 input  -60.11 | X-H torsion
[ 7974 7965 7964 7962 ] final -160.90 input  175.53 | X-H torsion
[ 8008 7997 7996 7995 ] final   96.19 input   59.86 | X-H torsion
[ 10167 10162 10161 10158 ] final  -45.51 input  -65.29 | X-H torsion
[ 10718 10713 10712 10709 ] final   52.05 input   66.30 | X-H torsion
[ 10763 10752 10751 10750 ] final  157.13 input  -60.55 | X-H torsion
[ 11005 11000 10999 10996 ] final -166.04 input  -57.11 | X-H torsion

> <Gold.Protein.ActiveResidues>
 VAL166  LYS551  ARG553  GLY616  TRP617  ASP618  TYR619  PRO620  LYS621  CYS622 
 ASP623  PHE694  ASN695  SER759  ASP760  ASP761  ALA762  ILE779  LEU786  VAL792 
 PHE793  MET794  SER795  GLU796  ALA797  LYS798  CYS799  TRP800  GLU811  SER814 

> <Gold.Protein.RotatedAtoms>
  151.5338  135.1068  159.9908 H   0  0  0  0  0  0  0  0  0  0  0  0  # atno 6907 bound_to 6896
  152.4566  133.7732  159.6821 H   0  0  0  0  0  0  0  0  0  0  0  0  # atno 6908 bound_to 6896
  150.8512  133.7718  159.3049 H   0  0  0  0  0  0  0  0  0  0  0  0  # atno 6909 bound_to 6896
  144.7410  140.3475  143.6122 H   0  0  0  0  0  0  0  0  0  0  0  0  # atno 7974 bound_to 7965
  156.0770  140.3276  155.7646 H   0  0  0  0  0  0  0  0  0  0  0  0  # atno 8008 bound_to 7997
  155.5214  140.0585  157.2923 H   0  0  0  0  0  0  0  0  0  0  0  0  # atno 8009 bound_to 7997
  154.4561  140.1943  156.0393 H   0  0  0  0  0  0  0  0  0  0  0  0  # atno 8010 bound_to 7997
  140.6855  143.2876  151.3649 H   0  0  0  0  0  0  0  0  0  0  0  0  # atno 10167 bound_to 10162
  157.5039  130.8456  149.8350 H   0  0  0  0  0  0  0  0  0  0  0  0  # atno 10718 bound_to 10713
  154.1954  135.2793  155.3008 H   0  0  0  0  0  0  0  0  0  0  0  0  # atno 10763 bound_to 10752
  154.5896  135.5564  153.7269 H   0  0  0  0  0  0  0  0  0  0  0  0  # atno 10764 bound_to 10752
  153.0101  135.6365  154.2092 H   0  0  0  0  0  0  0  0  0  0  0  0  # atno 10765 bound_to 10752
  140.5690  134.5257  157.5158 H   0  0  0  0  0  0  0  0  0  0  0  0  # atno 11005 bound_to 11000
  145.7311  139.1736  143.2430 LP  0  0  0  0  0  0  0  0  0  0  0  0  # atno 17320 bound_to 7965
  146.1205  140.7314  142.9460 LP  0  0  0  0  0  0  0  0  0  0  0  0  # atno 17321 bound_to 7965
  139.6210  144.0907  152.2391 LP  0  0  0  0  0  0  0  0  0  0  0  0  # atno 17342 bound_to 10162
  140.0351  144.6051  150.7456 LP  0  0  0  0  0  0  0  0  0  0  0  0  # atno 17343 bound_to 10162
  156.0246  130.3784  150.1861 LP  0  0  0  0  0  0  0  0  0  0  0  0  # atno 17370 bound_to 10713
  157.0051  130.9934  151.3381 LP  0  0  0  0  0  0  0  0  0  0  0  0  # atno 17371 bound_to 10713
  139.9371  134.7855  156.0775 LP  0  0  0  0  0  0  0  0  0  0  0  0  # atno 17394 bound_to 11000
  141.1068  133.6657  156.2883 LP  0  0  0  0  0  0  0  0  0  0  0  0  # atno 17395 bound_to 11000

$$$$
