AV-unprocessed.smi:2212|AV-procd|sdf|8953|dock4
  -GOLD-   2272012173D 1   1.00000     0.00000
 Structure written by MMmdl.
 31 32  0  0  0  0  0  0  0  0  1 V2000
  151.7824  138.2502  155.9915 C   0  0  0  0  0  0  0  0  0  0  0  0
  151.4583  139.6335  155.9434 O   0  0  0  0  0  0  0  0  0  0  0  0
  150.0710  139.9558  156.0495 C   0  0  0  0  0  0  0  0  0  0  0  0
  149.5137  139.6455  157.4460 C   0  0  0  0  0  0  0  0  0  0  0  0
  150.0900  140.5390  158.4426 N   0  0  0  0  0  0  0  0  0  0  0  0
  151.2871  140.3723  159.0208 C   0  0  0  0  0  0  0  0  0  0  0  0
  152.0040  139.4019  158.7564 O   0  0  0  0  0  0  0  0  0  0  0  0
  151.5333  141.3974  159.9207 N   0  0  0  0  0  0  0  0  0  0  0  0
  151.5471  142.6207  159.4903 C   0  0  0  0  0  0  0  0  0  0  0  0
  151.7462  143.7764  160.2282 N   0  0  0  0  0  0  0  0  0  0  0  0
  151.6930  144.8418  159.3725 C   0  0  0  0  0  0  0  0  0  0  0  0
  151.4712  144.3772  158.1462 C   0  0  0  0  0  0  0  0  0  0  0  0
  151.3774  143.0189  158.1839 O   0  0  0  0  0  0  0  0  0  0  0  0
  149.8703  141.3808  155.4998 C   0  0  0  0  0  0  0  0  0  0  0  0
  148.6685  140.8645  154.7062 C   0  0  0  0  0  0  0  0  0  0  0  0
  149.2873  139.4700  154.8139 C   0  0  0  0  0  0  0  0  0  0  0  0
  152.8471  138.1260  155.7955 H   0  0  0  0  0  0  0  0  0  0  0  0
  151.2388  137.6776  155.2399 H   0  0  0  0  0  0  0  0  0  0  0  0
  151.5821  137.8213  156.9731 H   0  0  0  0  0  0  0  0  0  0  0  0
  148.4291  139.7640  157.4523 H   0  0  0  0  0  0  0  0  0  0  0  0
  149.7046  138.6098  157.7282 H   0  0  0  0  0  0  0  0  0  0  0  0
  149.5425  141.3472  158.7012 H   0  0  0  0  0  0  0  0  0  0  0  0
  151.9064  143.8642  161.2215 H   0  0  0  0  0  0  0  0  0  0  0  0
  151.8233  145.8478  159.7435 H   0  0  0  0  0  0  0  0  0  0  0  0
  151.3605  144.8606  157.1867 H   0  0  0  0  0  0  0  0  0  0  0  0
  149.6248  142.1333  156.2497 H   0  0  0  0  0  0  0  0  0  0  0  0
  150.6851  141.7134  154.8539 H   0  0  0  0  0  0  0  0  0  0  0  0
  147.7277  140.9555  155.2517 H   0  0  0  0  0  0  0  0  0  0  0  0
  148.5898  141.2533  153.6907 H   0  0  0  0  0  0  0  0  0  0  0  0
  149.9258  139.2334  153.9609 H   0  0  0  0  0  0  0  0  0  0  0  0
  148.5708  138.6721  155.0112 H   0  0  0  0  0  0  0  0  0  0  0  0
  1  2  1  0  0  0  0
  1 17  1  0  0  0  0
  1 18  1  0  0  0  0
  1 19  1  0  0  0  0
  2  3  1  0  0  0  0
  3 16  1  0  0  0  0
  3  4  1  0  0  0  0
  3 14  1  0  0  0  0
  4  5  1  0  0  0  0
  4 20  1  0  0  0  0
  4 21  1  0  0  0  0
  5 22  1  0  0  0  0
  5  6  1  0  0  0  0
  6  8  1  0  0  0  0
  6  7  2  0  0  0  0
  8  9  2  0  0  0  0
  9 13  1  0  0  0  0
  9 10  1  0  0  0  0
 10 23  1  0  0  0  0
 10 11  1  0  0  0  0
 11 24  1  0  0  0  0
 11 12  2  0  0  0  0
 12 25  1  0  0  0  0
 12 13  1  0  0  0  0
 14 15  1  0  0  0  0
 14 26  1  0  0  0  0
 14 27  1  0  0  0  0
 15 16  1  0  0  0  0
 15 28  1  0  0  0  0
 15 29  1  0  0  0  0
 16 30  1  0  0  0  0
 16 31  1  0  0  0  0
M  END
> <s_m_source_file>
AV-unprocessed.smi

> <i_m_source_file_index>
2212

> <i_lp_mmshare_version>
43012

> <i_f3d_flags>
0

> <s_epik_input>
W0NIMl0xW0NIMl1bQ0gyXUMxKE9bQ0gzXSlbQ0gyXVtOSF1DKD1PKVtOSF1jMm5bY0hdW2NIXW8y

> <s_epik_cmdline>
J2VwaWtfcHl0aG9uJywgJy1waCcsICc3LjAnLCAnLXRuJywgJzgnLCAnLW1hJywgJzIwMCcsICctbWV0YWxfYmluZGluZycsICctaW1hZScsICc8aW5maWxlLm1hZT4nLCAnLW9tYWUnLCAnPG91dGZpbGUubWFlPic=

> <r_lp_tautomer_probability>
0.107061

> <r_epik_Ionization_Penalty>
1.29244

> <r_epik_Ionization_Penalty_Charging>
1.29208

> <r_epik_Ionization_Penalty_Neutral>
0.000357989

> <r_epik_State_Penalty>
2.59896

> <r_epik_Charging_Adjusted_Penalty>
3.89105

> <i_epik_Tot_Q>
0

> <i_epik_Tot_abs_Q>
0

> <r_epik_Metal_State_Penalty>
3.62496

> <b_epik_Metal_Only>
0

> <s_lp_Force_Field>
OPLS_2005

> <r_lp_Energy>
40.2308

> <b_lp_Chiralities_Consistent>
1

> <s_lp_Variant>
AV-unprocessed.smi:2212-3

> <Gold.Version>
5.8.1

> <Gold.Id.Protein>
6NUR|6NUR_protein|mol2

> <Gold.PLP.Fitness>
38.6639

> <Gold.PLP.PLP>
-31.4402

> <Gold.PLP.part.hbond>
-2.0000

> <Gold.PLP.part.metal>
0.0000

> <Gold.PLP.part.buried>
-5.2032

> <Gold.PLP.part.nonpolar>
-25.1728

> <Gold.PLP.part.repulsive>
0.2399

> <Gold.PLP.ligand.clash>
0.0514

> <Gold.PLP.ligand.torsion>
0.9300

> <Gold.PLP.Chemscore.Hbond>
1.9680

> <Gold.PLP.Chemscore.CHOScore>
0.9873

> <Gold.PLP.Chemscore.Metal>
0.0000

> <Gold.Chemscore.Hbonds>
donor molecule, donor type, donor heavy atom, donor atom, acceptor molecule, acceptor atom, score
      L1  C    12    25       P1  8028  0.13

> <Gold.PLP.Chemscore.Internal.Correction>
0.2692

> <Gold.Rescore>
     Score         DG    S(hbond)    S(metal)    S(lipo)     H(rot)  DE(clash)    DE(int)     intcor
     10.15     -13.85       1.70        0.00      59.08       1.64       0.01       3.69       ----

> <Gold.Chemscore.Fitness>
10.1516

> <Gold.Chemscore.DG>
-13.8547

> <Gold.Chemscore.ZeroCoef>
-5.4800

> <Gold.Chemscore.Hbond>
1.6955

> <Gold.Chemscore.Metal>
0.0000

> <Gold.Chemscore.Lipo>
59.0840

> <Gold.Chemscore.Internal_Hbond>
0.0000

> <Gold.Chemscore.DEClash>
0.0149

> <Gold.Chemscore.DEInternal>
3.6883

> <Gold.Chemscore.Rot>
1.6411

> <Gold.Chemscore.Internal.Correction>
   9.000000E+99

> <Gold.Chemscore.Hbond.Weighted>
-5.6630

> <Gold.Chemscore.Metal.Weighted>
-0.0000

> <Gold.Chemscore.Lipo.Weighted>
-6.9128

> <Gold.Chemscore.Internal_Hbond.Weighted>
0.0000

> <Gold.Chemscore.DEClash.Weighted>
0.0149

> <Gold.Chemscore.DEInternal.Weighted>
3.6883

> <Gold.Chemscore.Rot.Weighted>
4.2011

> <Gold.Chemscore.Internal.Correction.Weighted>
   9.000000E+99

> <Gold.Protein.RotatedTorsions>
[ 6907 6896 6895 6894 ] final  -96.07 input  -60.11 | X-H torsion
[ 7974 7965 7964 7962 ] final  -70.00 input  175.53 | X-H torsion
[ 8008 7997 7996 7995 ] final  -51.81 input   59.86 | X-H torsion
[ 10167 10162 10161 10158 ] final   90.15 input  -65.29 | X-H torsion
[ 10718 10713 10712 10709 ] final   65.99 input   66.30 | X-H torsion
[ 10763 10752 10751 10750 ] final   71.24 input  -60.55 | X-H torsion
[ 11005 11000 10999 10996 ] final   76.73 input  -57.11 | X-H torsion

> <Gold.Protein.ActiveResidues>
 VAL166  LYS551  ARG553  GLY616  TRP617  ASP618  TYR619  PRO620  LYS621  CYS622 
 ASP623  PHE694  ASN695  SER759  ASP760  ASP761  ALA762  ILE779  LEU786  VAL792 
 PHE793  MET794  SER795  GLU796  ALA797  LYS798  CYS799  TRP800  GLU811  SER814 

> <Gold.Protein.RotatedAtoms>
  150.6979  134.1560  159.4158 H   0  0  0  0  0  0  0  0  0  0  0  0  # atno 6907 bound_to 6896
  151.9542  135.0152  160.0553 H   0  0  0  0  0  0  0  0  0  0  0  0  # atno 6908 bound_to 6896
  152.1984  133.4788  159.5082 H   0  0  0  0  0  0  0  0  0  0  0  0  # atno 6909 bound_to 6896
  145.6965  140.9133  143.0754 H   0  0  0  0  0  0  0  0  0  0  0  0  # atno 7974 bound_to 7965
  154.4091  140.1239  156.4890 H   0  0  0  0  0  0  0  0  0  0  0  0  # atno 8008 bound_to 7997
  155.7010  140.3495  155.4913 H   0  0  0  0  0  0  0  0  0  0  0  0  # atno 8009 bound_to 7997
  155.9385  140.1083  157.1064 H   0  0  0  0  0  0  0  0  0  0  0  0  # atno 8010 bound_to 7997
  139.8502  144.6597  150.9178 H   0  0  0  0  0  0  0  0  0  0  0  0  # atno 10167 bound_to 10162
  157.6141  130.9244  150.0050 H   0  0  0  0  0  0  0  0  0  0  0  0  # atno 10718 bound_to 10713
  153.0387  135.5144  154.7563 H   0  0  0  0  0  0  0  0  0  0  0  0  # atno 10763 bound_to 10752
  154.6518  135.2926  154.9980 H   0  0  0  0  0  0  0  0  0  0  0  0  # atno 10764 bound_to 10752
  154.0861  135.6657  153.4898 H   0  0  0  0  0  0  0  0  0  0  0  0  # atno 10765 bound_to 10752
  139.9285  134.7625  156.1433 H   0  0  0  0  0  0  0  0  0  0  0  0  # atno 11005 bound_to 11000
  144.6981  139.8891  143.7452 LP  0  0  0  0  0  0  0  0  0  0  0  0  # atno 17320 bound_to 7965
  146.0836  139.3824  143.0449 LP  0  0  0  0  0  0  0  0  0  0  0  0  # atno 17321 bound_to 7965
  140.7788  143.3834  151.1437 LP  0  0  0  0  0  0  0  0  0  0  0  0  # atno 17342 bound_to 10162
  139.7473  143.8833  152.3067 LP  0  0  0  0  0  0  0  0  0  0  0  0  # atno 17343 bound_to 10162
  156.1255  130.3644  149.9816 LP  0  0  0  0  0  0  0  0  0  0  0  0  # atno 17370 bound_to 10713
  156.7888  130.9248  151.3646 LP  0  0  0  0  0  0  0  0  0  0  0  0  # atno 17371 bound_to 10713
  141.0859  133.6734  156.2435 LP  0  0  0  0  0  0  0  0  0  0  0  0  # atno 17394 bound_to 11000
  140.6268  134.5305  157.5554 LP  0  0  0  0  0  0  0  0  0  0  0  0  # atno 17395 bound_to 11000

$$$$
