AV-unprocessed.smi:2252|AV-procd|sdf|9106|dock2
  -GOLD-   2272012303D 1   1.00000     0.00000
 Structure written by MMmdl.
 45 47  0  0  0  0  0  0  0  0  2 V2000
  146.0393  132.1501  150.7294 C   0  0  0  0  0  0  0  0  0  0  0  0
  144.8719  132.6216  151.4492 N   0  0  0  0  0  0  0  0  0  0  0  0
  143.6218  132.0168  151.4521 C   0  0  0  0  0  0  0  0  0  0  0  0
  142.8124  132.7874  152.2507 C   0  0  0  0  0  0  0  0  0  0  0  0
  143.5426  133.8622  152.7455 N   0  0  0  0  0  0  0  0  0  0  0  0
  144.7614  133.7105  152.2364 C   0  0  0  0  0  0  0  0  0  0  0  0
  145.8896  134.6654  152.4983 C   0  0  0  0  0  0  0  0  0  0  0  0
  145.4482  136.1380  152.5399 C   0  0  0  0  0  0  0  0  0  0  0  0
  146.5871  137.0343  152.7016 N   0  0  0  0  0  0  0  0  0  0  0  0
  146.6209  138.0897  153.5278 C   0  0  0  0  0  0  0  0  0  0  0  0
  145.6855  138.3992  154.2669 O   0  0  0  0  0  0  0  0  0  0  0  0
  147.8991  138.9426  153.4978 C   0  0  1  0  0  0  0  0  0  0  0  0
  147.7113  140.1396  154.4561 C   0  0  0  0  0  0  0  0  0  0  0  0
  147.1448  141.4525  153.9570 C   0  0  0  0  0  0  0  0  0  0  0  0
  148.5910  141.3686  154.3692 C   0  0  0  0  0  0  0  0  0  0  0  0
  149.1091  138.1467  153.8533 N   0  3  0  0  0  0  0  0  0  0  0  0
  150.3703  138.9139  153.9503 C   0  0  0  0  0  0  0  0  0  0  0  0
  151.3213  138.0010  154.7152 C   0  0  0  0  0  0  0  0  0  0  0  0
  150.4121  137.3020  155.7224 C   0  0  0  0  0  0  0  0  0  0  0  0
  149.0070  137.3556  155.1040 C   0  0  0  0  0  0  0  0  0  0  0  0
  145.7792  131.2863  150.1166 H   0  0  0  0  0  0  0  0  0  0  0  0
  146.8159  131.8589  151.4369 H   0  0  0  0  0  0  0  0  0  0  0  0
  146.4195  132.9380  150.0794 H   0  0  0  0  0  0  0  0  0  0  0  0
  143.4151  131.1122  150.8990 H   0  0  0  0  0  0  0  0  0  0  0  0
  141.7713  132.6528  152.5051 H   0  0  0  0  0  0  0  0  0  0  0  0
  146.3492  134.3991  153.4507 H   0  0  0  0  0  0  0  0  0  0  0  0
  146.6680  134.5341  151.7468 H   0  0  0  0  0  0  0  0  0  0  0  0
  144.9207  136.3772  151.6146 H   0  0  0  0  0  0  0  0  0  0  0  0
  144.7440  136.2968  153.3572 H   0  0  0  0  0  0  0  0  0  0  0  0
  147.3934  136.8560  152.1204 H   0  0  0  0  0  0  0  0  0  0  0  0
  148.0347  139.3201  152.4822 H   0  0  0  0  0  0  0  0  0  0  0  0
  147.3925  139.8510  155.4566 H   0  0  0  0  0  0  0  0  0  0  0  0
  146.9397  141.5499  152.8937 H   0  0  0  0  0  0  0  0  0  0  0  0
  146.4617  141.9872  154.6137 H   0  0  0  0  0  0  0  0  0  0  0  0
  148.8768  141.8477  155.3034 H   0  0  0  0  0  0  0  0  0  0  0  0
  149.3362  141.4103  153.5773 H   0  0  0  0  0  0  0  0  0  0  0  0
  150.7666  139.1866  152.9717 H   0  0  0  0  0  0  0  0  0  0  0  0
  150.2018  139.8313  154.5168 H   0  0  0  0  0  0  0  0  0  0  0  0
  151.7526  137.2653  154.0350 H   0  0  0  0  0  0  0  0  0  0  0  0
  152.1414  138.5427  155.1874 H   0  0  0  0  0  0  0  0  0  0  0  0
  150.7379  136.2813  155.9253 H   0  0  0  0  0  0  0  0  0  0  0  0
  150.4194  137.8440  156.6690 H   0  0  0  0  0  0  0  0  0  0  0  0
  148.3239  137.8281  155.8109 H   0  0  0  0  0  0  0  0  0  0  0  0
  148.6230  136.3592  154.8825 H   0  0  0  0  0  0  0  0  0  0  0  0
  149.2488  137.4772  153.1096 H   0  0  0  0  0  0  0  0  0  0  0  0
  1  2  1  0  0  0  0
  1 21  1  0  0  0  0
  1 22  1  0  0  0  0
  1 23  1  0  0  0  0
  2  6  1  0  0  0  0
  2  3  1  0  0  0  0
  3  4  2  0  0  0  0
  3 24  1  0  0  0  0
  4  5  1  0  0  0  0
  4 25  1  0  0  0  0
  5  6  2  0  0  0  0
  6  7  1  0  0  0  0
  7  8  1  0  0  0  0
  7 26  1  0  0  0  0
  7 27  1  0  0  0  0
  8  9  1  0  0  0  0
  8 28  1  0  0  0  0
  8 29  1  0  0  0  0
  9 10  1  0  0  0  0
  9 30  1  0  0  0  0
 10 11  2  0  0  0  0
 10 12  1  0  0  0  0
 12 13  1  0  0  0  0
 12 16  1  0  0  0  0
 12 31  1  0  0  0  0
 13 15  1  0  0  0  0
 13 14  1  0  0  0  0
 13 32  1  0  0  0  0
 14 15  1  0  0  0  0
 14 33  1  0  0  0  0
 14 34  1  0  0  0  0
 15 35  1  0  0  0  0
 15 36  1  0  0  0  0
 16 20  1  0  0  0  0
 16 17  1  0  0  0  0
 16 45  1  0  0  0  0
 17 18  1  0  0  0  0
 17 37  1  0  0  0  0
 17 38  1  0  0  0  0
 18 19  1  0  0  0  0
 18 39  1  0  0  0  0
 18 40  1  0  0  0  0
 19 20  1  0  0  0  0
 19 41  1  0  0  0  0
 19 42  1  0  0  0  0
 20 43  1  0  0  0  0
 20 44  1  0  0  0  0
M  CHG  1  16   1
M  END
> <s_m_source_file>
AV-unprocessed.smi

> <i_m_source_file_index>
2252

> <i_lp_mmshare_version>
43012

> <i_f3d_flags>
0

> <s_epik_input>
W0NIM11uMVtjSF1bY0hdbmMxW0NIMl1bQ0gyXVtOSF1DKD1PKVtDQEhdKFtDSF0yW0NIMl1bQ0gyXTIpTjNbQ0gyXVtDSDJdW0NIMl1bQ0gyXTM=

> <s_epik_cmdline>
J2VwaWtfcHl0aG9uJywgJy1waCcsICc3LjAnLCAnLXRuJywgJzgnLCAnLW1hJywgJzIwMCcsICctbWV0YWxfYmluZGluZycsICctaW1hZScsICc8aW5maWxlLm1hZT4nLCAnLW9tYWUnLCAnPG91dGZpbGUubWFlPic=

> <r_lp_tautomer_probability>
1

> <r_epik_Ionization_Penalty>
1.07437

> <r_epik_Ionization_Penalty_Charging>
1.07435

> <r_epik_Ionization_Penalty_Neutral>
2.35578e-05

> <r_epik_State_Penalty>
1.18204

> <r_epik_Charging_Adjusted_Penalty>
2.25639

> <i_epik_Tot_Q>
1

> <i_epik_Tot_abs_Q>
1

> <r_epik_Metal_State_Penalty>
0.433434

> <b_epik_Metal_Only>
0

> <s_lp_Force_Field>
OPLS_2005

> <r_lp_Energy>
34.9186

> <b_lp_Chiralities_Consistent>
1

> <s_lp_Variant>
AV-unprocessed.smi:2252-4

> <Gold.Version>
5.8.1

> <Gold.Id.Protein>
6NUR|6NUR_protein|mol2

> <Gold.PLP.Fitness>
43.0836

> <Gold.PLP.PLP>
-33.2783

> <Gold.PLP.part.hbond>
-2.0000

> <Gold.PLP.part.metal>
0.0000

> <Gold.PLP.part.buried>
-2.8480

> <Gold.PLP.part.nonpolar>
-30.3586

> <Gold.PLP.part.repulsive>
0.3911

> <Gold.PLP.ligand.clash>
0.0000

> <Gold.PLP.ligand.torsion>
1.0435

> <Gold.PLP.Chemscore.Hbond>
2.9920

> <Gold.PLP.Chemscore.CHOScore>
0.5844

> <Gold.PLP.Chemscore.Metal>
0.0000

> <Gold.Chemscore.Hbonds>
donor molecule, donor type, donor heavy atom, donor atom, acceptor molecule, acceptor atom, score
      L1  H     9    30       P1  7948  1.00
      L1  H    16    45       P1  7948  2.00
      L1  C     4    25       P1 10957  0.06

> <Gold.PLP.Chemscore.Internal.Correction>
1.1632

> <Gold.Rescore>
     Score         DG    S(hbond)    S(metal)    S(lipo)     H(rot)  DE(clash)    DE(int)     intcor
     14.84     -16.43       1.92        0.00      81.57       1.95       0.52       1.07       ----

> <Gold.Chemscore.Fitness>
14.8449

> <Gold.Chemscore.DG>
-16.4320

> <Gold.Chemscore.ZeroCoef>
-5.4800

> <Gold.Chemscore.Hbond>
1.9150

> <Gold.Chemscore.Metal>
0.0000

> <Gold.Chemscore.Lipo>
81.5726

> <Gold.Chemscore.Internal_Hbond>
0.0000

> <Gold.Chemscore.DEClash>
0.5161

> <Gold.Chemscore.DEInternal>
1.0710

> <Gold.Chemscore.Rot>
1.9485

> <Gold.Chemscore.Internal.Correction>
   9.000000E+99

> <Gold.Chemscore.Hbonds>
donor molecule, donor type, donor heavy atom, donor atom, acceptor molecule, acceptor atom, score
      L1  H     9    30       P1  7948  0.98
      L1  H    16    45       P1  7948  0.98

> <Gold.Chemscore.Hbond.Weighted>
-6.3961

> <Gold.Chemscore.Metal.Weighted>
-0.0000

> <Gold.Chemscore.Lipo.Weighted>
-9.5440

> <Gold.Chemscore.Internal_Hbond.Weighted>
0.0000

> <Gold.Chemscore.DEClash.Weighted>
0.5161

> <Gold.Chemscore.DEInternal.Weighted>
1.0710

> <Gold.Chemscore.Rot.Weighted>
4.9881

> <Gold.Chemscore.Internal.Correction.Weighted>
   9.000000E+99

> <Gold.Protein.RotatedTorsions>
[ 6907 6896 6895 6894 ] final  -80.07 input  -60.11 | X-H torsion
[ 7974 7965 7964 7962 ] final  -97.72 input  175.53 | X-H torsion
[ 8008 7997 7996 7995 ] final   85.58 input   59.86 | X-H torsion
[ 10167 10162 10161 10158 ] final  115.73 input  -65.29 | X-H torsion
[ 10718 10713 10712 10709 ] final  126.62 input   66.30 | X-H torsion
[ 10763 10752 10751 10750 ] final  -14.84 input  -60.55 | X-H torsion
[ 11005 11000 10999 10996 ] final   96.17 input  -57.11 | X-H torsion

> <Gold.Protein.ActiveResidues>
 VAL166  LYS551  ARG553  GLY616  TRP617  ASP618  TYR619  PRO620  LYS621  CYS622 
 ASP623  PHE694  ASN695  SER759  ASP760  ASP761  ALA762  ILE779  LEU786  VAL792 
 PHE793  MET794  SER795  GLU796  ALA797  LYS798  CYS799  TRP800  GLU811  SER814 

> <Gold.Protein.RotatedAtoms>
  150.6937  134.4026  159.5125 H   0  0  0  0  0  0  0  0  0  0  0  0  # atno 6907 bound_to 6896
  152.1797  134.8762  160.0536 H   0  0  0  0  0  0  0  0  0  0  0  0  # atno 6908 bound_to 6896
  151.9757  133.3706  159.4125 H   0  0  0  0  0  0  0  0  0  0  0  0  # atno 6909 bound_to 6896
  145.3300  140.9439  143.2667 H   0  0  0  0  0  0  0  0  0  0  0  0  # atno 7974 bound_to 7965
  155.9519  140.3400  155.6415 H   0  0  0  0  0  0  0  0  0  0  0  0  # atno 8008 bound_to 7997
  155.6909  140.0749  157.2466 H   0  0  0  0  0  0  0  0  0  0  0  0  # atno 8009 bound_to 7997
  154.4123  140.1657  156.2073 H   0  0  0  0  0  0  0  0  0  0  0  0  # atno 8010 bound_to 7997
  139.6297  144.7113  151.2459 H   0  0  0  0  0  0  0  0  0  0  0  0  # atno 10167 bound_to 10162
  157.5403  131.1097  150.8869 H   0  0  0  0  0  0  0  0  0  0  0  0  # atno 10718 bound_to 10713
  153.5343  135.7014  153.5668 H   0  0  0  0  0  0  0  0  0  0  0  0  # atno 10763 bound_to 10752
  153.3662  135.3957  155.1755 H   0  0  0  0  0  0  0  0  0  0  0  0  # atno 10764 bound_to 10752
  154.8681  135.3800  154.4842 H   0  0  0  0  0  0  0  0  0  0  0  0  # atno 10765 bound_to 10752
  139.8783  134.8937  156.4120 H   0  0  0  0  0  0  0  0  0  0  0  0  # atno 11005 bound_to 11000
  144.8871  139.4824  143.6695 LP  0  0  0  0  0  0  0  0  0  0  0  0  # atno 17320 bound_to 7965
  146.3049  139.7547  142.9064 LP  0  0  0  0  0  0  0  0  0  0  0  0  # atno 17321 bound_to 7965
  140.7432  143.6503  150.8254 LP  0  0  0  0  0  0  0  0  0  0  0  0  # atno 17342 bound_to 10162
  140.0126  143.5626  152.2833 LP  0  0  0  0  0  0  0  0  0  0  0  0  # atno 17343 bound_to 10162
  156.9424  130.5389  149.5280 LP  0  0  0  0  0  0  0  0  0  0  0  0  # atno 17370 bound_to 10713
  156.0491  130.5563  150.8949 LP  0  0  0  0  0  0  0  0  0  0  0  0  # atno 17371 bound_to 10713
  140.9194  133.7655  155.9888 LP  0  0  0  0  0  0  0  0  0  0  0  0  # atno 17394 bound_to 11000
  140.8457  134.3014  157.5296 LP  0  0  0  0  0  0  0  0  0  0  0  0  # atno 17395 bound_to 11000

$$$$
