AV-unprocessed.smi:3262|AV-procd|sdf|12485|dock5
  -GOLD-   2272018383D 1   1.00000     0.00000
 Structure written by MMmdl.
 40 41  0  0  0  0  0  0  0  0  2 V2000
  149.0325  142.1811  154.5209 O   0  0  0  0  0  0  0  0  0  0  0  0
  148.2998  141.6985  155.3865 C   0  0  0  0  0  0  0  0  0  0  0  0
  148.7982  141.1324  156.5004 N   0  0  0  0  0  0  0  0  0  0  0  0
  150.2142  141.0432  156.8386 C   0  0  0  0  0  0  0  0  0  0  0  0
  150.9333  142.3877  156.6138 C   0  0  0  0  0  0  0  0  0  0  0  0
  151.3416  143.1311  157.8789 C   0  0  0  0  0  0  0  0  0  0  0  0
  152.2607  142.6336  158.8336 C   0  0  0  0  0  0  0  0  0  0  0  0
  152.5682  143.4121  159.9691 C   0  0  0  0  0  0  0  0  0  0  0  0
  151.9553  144.6709  160.1318 C   0  0  0  0  0  0  0  0  0  0  0  0
  151.0477  145.1205  159.1522 C   0  0  0  0  0  0  0  0  0  0  0  0
  150.7789  144.3456  158.0785 N   0  3  0  0  0  0  0  0  0  0  0  0
  146.9458  141.6445  155.2712 N   0  0  0  0  0  0  0  0  0  0  0  0
  146.0368  141.2408  156.3663 C   0  0  0  0  0  0  0  0  0  0  0  0
  144.6867  141.9885  156.4102 C   0  0  0  0  0  0  0  0  0  0  0  0
  144.7892  143.5139  156.2255 C   0  0  0  0  0  0  0  0  0  0  0  0
  144.7738  143.9460  154.7496 C   0  0  0  0  0  0  0  0  0  0  0  0
  146.0147  143.5300  153.9443 C   0  0  0  0  0  0  0  0  0  0  0  0
  146.3085  142.0200  153.9995 C   0  0  0  0  0  0  0  0  0  0  0  0
  148.1444  140.7331  157.1584 H   0  0  0  0  0  0  0  0  0  0  0  0
  150.2872  140.7489  157.8860 H   0  0  0  0  0  0  0  0  0  0  0  0
  150.6812  140.2495  156.2528 H   0  0  0  0  0  0  0  0  0  0  0  0
  151.8336  142.2271  156.0194 H   0  0  0  0  0  0  0  0  0  0  0  0
  150.2908  143.0457  156.0268 H   0  0  0  0  0  0  0  0  0  0  0  0
  152.7341  141.6709  158.7128 H   0  0  0  0  0  0  0  0  0  0  0  0
  153.2678  143.0474  160.7070 H   0  0  0  0  0  0  0  0  0  0  0  0
  152.1784  145.2822  160.9941 H   0  0  0  0  0  0  0  0  0  0  0  0
  150.5328  146.0691  159.1939 H   0  0  0  0  0  0  0  0  0  0  0  0
  145.8614  140.1664  156.2998 H   0  0  0  0  0  0  0  0  0  0  0  0
  146.5005  141.4136  157.3384 H   0  0  0  0  0  0  0  0  0  0  0  0
  143.9941  141.5713  155.6782 H   0  0  0  0  0  0  0  0  0  0  0  0
  144.2275  141.7852  157.3785 H   0  0  0  0  0  0  0  0  0  0  0  0
  143.9295  143.9743  156.7137 H   0  0  0  0  0  0  0  0  0  0  0  0
  145.6689  143.9071  156.7366 H   0  0  0  0  0  0  0  0  0  0  0  0
  143.8804  143.5474  154.2677 H   0  0  0  0  0  0  0  0  0  0  0  0
  144.6763  145.0310  154.7001 H   0  0  0  0  0  0  0  0  0  0  0  0
  145.8582  143.8193  152.9047 H   0  0  0  0  0  0  0  0  0  0  0  0
  146.8837  144.0968  154.2812 H   0  0  0  0  0  0  0  0  0  0  0  0
  146.9543  141.7496  153.1620 H   0  0  0  0  0  0  0  0  0  0  0  0
  145.3988  141.4417  153.8347 H   0  0  0  0  0  0  0  0  0  0  0  0
  150.1194  144.6942  157.3824 H   0  0  0  0  0  0  0  0  0  0  0  0
  1  2  2  0  0  0  0
  2  3  1  0  0  0  0
  2 12  1  0  0  0  0
  3  4  1  0  0  0  0
  3 19  1  0  0  0  0
  4  5  1  0  0  0  0
  4 20  1  0  0  0  0
  4 21  1  0  0  0  0
  5  6  1  0  0  0  0
  5 22  1  0  0  0  0
  5 23  1  0  0  0  0
  6 11  1  0  0  0  0
  6  7  2  0  0  0  0
  7  8  1  0  0  0  0
  7 24  1  0  0  0  0
  8  9  2  0  0  0  0
  8 25  1  0  0  0  0
  9 10  1  0  0  0  0
  9 26  1  0  0  0  0
 10 11  2  0  0  0  0
 10 27  1  0  0  0  0
 11 40  1  0  0  0  0
 12 18  1  0  0  0  0
 12 13  1  0  0  0  0
 13 14  1  0  0  0  0
 13 28  1  0  0  0  0
 13 29  1  0  0  0  0
 14 15  1  0  0  0  0
 14 30  1  0  0  0  0
 14 31  1  0  0  0  0
 15 16  1  0  0  0  0
 15 32  1  0  0  0  0
 15 33  1  0  0  0  0
 16 17  1  0  0  0  0
 16 34  1  0  0  0  0
 16 35  1  0  0  0  0
 17 18  1  0  0  0  0
 17 36  1  0  0  0  0
 17 37  1  0  0  0  0
 18 38  1  0  0  0  0
 18 39  1  0  0  0  0
M  CHG  1  11   1
M  END
> <s_m_source_file>
AV-unprocessed.smi

> <i_m_source_file_index>
3262

> <i_lp_mmshare_version>
43012

> <i_f3d_flags>
0

> <s_epik_input>
W0NIMl0xW0NIMl1bQ0gyXVtDSDJdW0NIMl1bQ0gyXU4xQyg9TylbTkhdW0NIMl1bQ0gyXWMyW2NIXVtjSF1bY0hdW2NIXW4y

> <s_epik_cmdline>
J2VwaWtfcHl0aG9uJywgJy1waCcsICc3LjAnLCAnLXRuJywgJzgnLCAnLW1hJywgJzIwMCcsICctbWV0YWxfYmluZGluZycsICctaW1hZScsICc8aW5maWxlLm1hZT4nLCAnLW9tYWUnLCAnPG91dGZpbGUubWFlPic=

> <r_epik_Ionization_Penalty>
1.55113

> <r_epik_Ionization_Penalty_Charging>
1.55107

> <r_epik_Ionization_Penalty_Neutral>
5.98909e-05

> <r_epik_State_Penalty>
1.64529

> <r_epik_Charging_Adjusted_Penalty>
3.19637

> <i_epik_Tot_Q>
1

> <i_epik_Tot_abs_Q>
1

> <r_epik_Metal_State_Penalty>
1.68744

> <b_epik_Metal_Only>
0

> <s_lp_Force_Field>
OPLS_2005

> <r_lp_Energy>
39.791

> <b_lp_Chiralities_Consistent>
1

> <s_lp_Variant>
AV-unprocessed.smi:3262-2

> <Gold.Version>
5.8.1

> <Gold.Id.Protein>
6NUR|6NUR_protein|mol2

> <Gold.PLP.Fitness>
44.5678

> <Gold.PLP.PLP>
-38.6979

> <Gold.PLP.part.hbond>
-2.2550

> <Gold.PLP.part.metal>
0.0000

> <Gold.PLP.part.buried>
-4.3545

> <Gold.PLP.part.nonpolar>
-31.6800

> <Gold.PLP.part.repulsive>
0.8937

> <Gold.PLP.ligand.clash>
0.0000

> <Gold.PLP.ligand.torsion>
0.4715

> <Gold.PLP.Chemscore.Hbond>
2.2683

> <Gold.PLP.Chemscore.CHOScore>
0.0000

> <Gold.PLP.Chemscore.Metal>
0.0000

> <Gold.Chemscore.Hbonds>
donor molecule, donor type, donor heavy atom, donor atom, acceptor molecule, acceptor atom, score
      L1  H    11    40       P1  8028  1.67
      P1  H  8011  8017       L1     1  0.08

> <Gold.PLP.Chemscore.Internal.Correction>
0.0079

> <Gold.Rescore>
     Score         DG    S(hbond)    S(metal)    S(lipo)     H(rot)  DE(clash)    DE(int)     intcor
     14.36     -16.24       0.76        0.00      99.75       1.34       0.10       1.78       ----

> <Gold.Chemscore.Fitness>
14.3584

> <Gold.Chemscore.DG>
-16.2381

> <Gold.Chemscore.ZeroCoef>
-5.4800

> <Gold.Chemscore.Hbond>
0.7551

> <Gold.Chemscore.Metal>
0.0000

> <Gold.Chemscore.Lipo>
99.7469

> <Gold.Chemscore.Internal_Hbond>
0.0000

> <Gold.Chemscore.DEClash>
0.1028

> <Gold.Chemscore.DEInternal>
1.7768

> <Gold.Chemscore.Rot>
1.3415

> <Gold.Chemscore.Internal.Correction>
   9.000000E+99

> <Gold.Chemscore.Hbonds>
donor molecule, donor type, donor heavy atom, donor atom, acceptor molecule, acceptor atom, score
      L1  H    11    40       P1  8028  0.18
      P1  H  8011  8017       L1     1  0.08

> <Gold.Chemscore.Hbond.Weighted>
-2.5219

> <Gold.Chemscore.Metal.Weighted>
-0.0000

> <Gold.Chemscore.Lipo.Weighted>
-11.6704

> <Gold.Chemscore.Internal_Hbond.Weighted>
0.0000

> <Gold.Chemscore.DEClash.Weighted>
0.1028

> <Gold.Chemscore.DEInternal.Weighted>
1.7768

> <Gold.Chemscore.Rot.Weighted>
3.4342

> <Gold.Chemscore.Internal.Correction.Weighted>
   9.000000E+99

> <Gold.Protein.RotatedTorsions>
[ 6907 6896 6895 6894 ] final   23.83 input  -60.11 | X-H torsion
[ 7974 7965 7964 7962 ] final  140.34 input  175.53 | X-H torsion
[ 8008 7997 7996 7995 ] final  117.39 input   59.86 | X-H torsion
[ 10167 10162 10161 10158 ] final -176.17 input  -65.29 | X-H torsion
[ 10718 10713 10712 10709 ] final  -43.57 input   66.30 | X-H torsion
[ 10763 10752 10751 10750 ] final -107.11 input  -60.55 | X-H torsion
[ 11005 11000 10999 10996 ] final  150.22 input  -57.11 | X-H torsion

> <Gold.Protein.ActiveResidues>
 VAL166  LYS551  ARG553  GLY616  TRP617  ASP618  TYR619  PRO620  LYS621  CYS622 
 ASP623  PHE694  ASN695  SER759  ASP760  ASP761  ALA762  ILE779  LEU786  VAL792 
 PHE793  MET794  SER795  GLU796  ALA797  LYS798  CYS799  TRP800  GLU811  SER814 

> <Gold.Protein.RotatedAtoms>
  151.9483  135.0181  160.0540 H   0  0  0  0  0  0  0  0  0  0  0  0  # atno 6907 bound_to 6896
  152.1975  133.4812  159.5049 H   0  0  0  0  0  0  0  0  0  0  0  0  # atno 6908 bound_to 6896
  150.6947  134.1550  159.4197 H   0  0  0  0  0  0  0  0  0  0  0  0  # atno 6909 bound_to 6896
  144.9195  139.5186  143.5670 H   0  0  0  0  0  0  0  0  0  0  0  0  # atno 7974 bound_to 7965
  156.2491  140.2897  156.0671 H   0  0  0  0  0  0  0  0  0  0  0  0  # atno 8008 bound_to 7997
  155.1711  140.0402  157.2880 H   0  0  0  0  0  0  0  0  0  0  0  0  # atno 8009 bound_to 7997
  154.6325  140.2503  155.7424 H   0  0  0  0  0  0  0  0  0  0  0  0  # atno 8010 bound_to 7997
  139.5543  144.2029  152.1132 H   0  0  0  0  0  0  0  0  0  0  0  0  # atno 10167 bound_to 10162
  156.2476  130.4185  149.8687 H   0  0  0  0  0  0  0  0  0  0  0  0  # atno 10718 bound_to 10713
  154.8055  135.4687  154.0381 H   0  0  0  0  0  0  0  0  0  0  0  0  # atno 10763 bound_to 10752
  153.1853  135.6847  153.8430 H   0  0  0  0  0  0  0  0  0  0  0  0  # atno 10764 bound_to 10752
  153.7966  135.3235  155.3362 H   0  0  0  0  0  0  0  0  0  0  0  0  # atno 10765 bound_to 10752
  140.1112  134.8923  157.1939 H   0  0  0  0  0  0  0  0  0  0  0  0  # atno 11005 bound_to 11000
  146.3198  139.8064  142.8955 LP  0  0  0  0  0  0  0  0  0  0  0  0  # atno 17320 bound_to 7965
  145.3319  141.0268  143.3441 LP  0  0  0  0  0  0  0  0  0  0  0  0  # atno 17321 bound_to 7965
  140.1530  144.5097  150.6676 LP  0  0  0  0  0  0  0  0  0  0  0  0  # atno 17342 bound_to 10162
  140.6813  143.2328  151.5378 LP  0  0  0  0  0  0  0  0  0  0  0  0  # atno 17343 bound_to 10162
  156.6247  130.8641  151.3483 LP  0  0  0  0  0  0  0  0  0  0  0  0  # atno 17370 bound_to 10713
  157.7201  130.9547  150.1406 LP  0  0  0  0  0  0  0  0  0  0  0  0  # atno 17371 bound_to 10713
  140.3088  134.3047  155.7272 LP  0  0  0  0  0  0  0  0  0  0  0  0  # atno 17394 bound_to 11000
  141.2130  133.7637  156.9747 LP  0  0  0  0  0  0  0  0  0  0  0  0  # atno 17395 bound_to 11000

$$$$
