AV-unprocessed.smi:148|AV-procd|sdf|1213|dock3
  -GOLD-   2262018393D 1   1.00000     0.00000
 Structure written by MMmdl.
 63 67  0  0  0  0  0  0  0  0  1 V2000
  145.9922  132.4018  160.5629 O   0  0  0  0  0  0  0  0  0  0  0  0
  147.3550  132.4802  160.2011 C   0  0  0  0  0  0  0  0  0  0  0  0
  147.6944  133.8663  159.6036 C   0  0  1  0  0  0  0  0  0  0  0  0
  146.6103  134.3618  158.6066 C   0  0  0  0  0  0  0  0  0  0  0  0
  146.4695  133.5394  157.4132 N   0  0  0  0  0  0  0  0  0  0  0  0
  145.6662  132.4303  157.2619 C   0  0  0  0  0  0  0  0  0  0  0  0
  145.7183  131.8578  156.0907 N   0  0  0  0  0  0  0  0  0  0  0  0
  146.6109  132.6422  155.3717 C   0  0  0  0  0  0  0  0  0  0  0  0
  147.1242  132.6024  154.0444 C   0  0  0  0  0  0  0  0  0  0  0  0
  146.8082  131.6631  153.1265 N   0  0  0  0  0  0  0  0  0  0  0  0
  146.9200  130.3416  153.7495 C   0  0  0  0  0  0  0  0  0  0  0  0
  146.8327  129.2191  152.7123 C   0  0  0  0  0  0  0  0  0  0  0  0
  145.5350  129.3556  151.9164 C   0  0  0  0  0  0  0  0  0  0  0  0
  145.4691  130.7453  151.2721 C   0  0  0  0  0  0  0  0  0  0  0  0
  145.5986  131.8967  152.3077 C   0  0  2  0  0  0  0  0  0  0  0  0
  145.5863  133.2832  151.5737 C   0  0  2  0  0  0  0  0  0  0  0  0
  145.3817  134.5426  152.4442 C   0  0  0  0  0  0  0  0  0  0  0  0
  144.8164  135.6375  151.5281 C   0  0  0  0  0  0  0  0  0  0  0  0
  144.5106  134.9594  150.1901 C   0  0  0  0  0  0  0  0  0  0  0  0
  144.4991  133.4605  150.4919 C   0  0  2  0  0  0  0  0  0  0  0  0
  143.2172  133.1099  150.9837 O   0  0  0  0  0  0  0  0  0  0  0  0
  148.0142  133.5564  153.6754 N   0  0  0  0  0  0  0  0  0  0  0  0
  148.3651  134.5108  154.5427 C   0  0  0  0  0  0  0  0  0  0  0  0
  147.9615  134.6828  155.8037 N   0  0  0  0  0  0  0  0  0  0  0  0
  147.0830  133.7108  156.1836 C   0  0  0  0  0  0  0  0  0  0  0  0
  147.9898  134.8995  160.7229 C   0  0  2  0  0  0  0  0  0  0  0  0
  146.9508  134.9485  161.8309 C   0  0  0  0  0  0  0  0  0  0  0  0
  147.2346  136.2968  162.4831 C   0  0  0  0  0  0  0  0  0  0  0  0
  147.6924  137.1404  161.4330 O   0  0  0  0  0  0  0  0  0  0  0  0
  147.9676  136.3645  160.2711 C   0  0  0  0  0  0  0  0  0  0  0  0
  145.7005  133.2640  160.8190 H   0  0  0  0  0  0  0  0  0  0  0  0
  147.9781  132.2544  161.0665 H   0  0  0  0  0  0  0  0  0  0  0  0
  147.5319  131.6892  159.4733 H   0  0  0  0  0  0  0  0  0  0  0  0
  148.6157  133.7475  159.0309 H   0  0  0  0  0  0  0  0  0  0  0  0
  145.6385  134.4177  159.0970 H   0  0  0  0  0  0  0  0  0  0  0  0
  146.8307  135.3820  158.2910 H   0  0  0  0  0  0  0  0  0  0  0  0
  145.0389  132.0484  158.0531 H   0  0  0  0  0  0  0  0  0  0  0  0
  147.8659  130.2599  154.2882 H   0  0  0  0  0  0  0  0  0  0  0  0
  146.1246  130.2155  154.4853 H   0  0  0  0  0  0  0  0  0  0  0  0
  147.6901  129.2664  152.0396 H   0  0  0  0  0  0  0  0  0  0  0  0
  146.8733  128.2474  153.2053 H   0  0  0  0  0  0  0  0  0  0  0  0
  145.4790  128.5806  151.1515 H   0  0  0  0  0  0  0  0  0  0  0  0
  144.6770  129.2120  152.5747 H   0  0  0  0  0  0  0  0  0  0  0  0
  146.2629  130.8329  150.5286 H   0  0  0  0  0  0  0  0  0  0  0  0
  144.5294  130.8113  150.7258 H   0  0  0  0  0  0  0  0  0  0  0  0
  144.7321  131.8457  152.9680 H   0  0  0  0  0  0  0  0  0  0  0  0
  146.5470  133.3931  151.0670 H   0  0  0  0  0  0  0  0  0  0  0  0
  144.6643  134.3367  153.2394 H   0  0  0  0  0  0  0  0  0  0  0  0
  146.3041  134.8824  152.9126 H   0  0  0  0  0  0  0  0  0  0  0  0
  143.9094  136.0580  151.9642 H   0  0  0  0  0  0  0  0  0  0  0  0
  145.5246  136.4561  151.3952 H   0  0  0  0  0  0  0  0  0  0  0  0
  143.5837  135.3145  149.7373 H   0  0  0  0  0  0  0  0  0  0  0  0
  145.3167  135.1758  149.4877 H   0  0  0  0  0  0  0  0  0  0  0  0
  144.7084  132.8802  149.5927 H   0  0  0  0  0  0  0  0  0  0  0  0
  142.5665  133.4135  150.3693 H   0  0  0  0  0  0  0  0  0  0  0  0
  149.0699  135.2414  154.1739 H   0  0  0  0  0  0  0  0  0  0  0  0
  148.9668  134.6986  161.1650 H   0  0  0  0  0  0  0  0  0  0  0  0
  145.9443  134.9435  161.4098 H   0  0  0  0  0  0  0  0  0  0  0  0
  147.0243  134.1235  162.5384 H   0  0  0  0  0  0  0  0  0  0  0  0
  146.3574  136.7144  162.9778 H   0  0  0  0  0  0  0  0  0  0  0  0
  148.0298  136.2019  163.2238 H   0  0  0  0  0  0  0  0  0  0  0  0
  148.9072  136.6747  159.8133 H   0  0  0  0  0  0  0  0  0  0  0  0
  147.1677  136.5359  159.5493 H   0  0  0  0  0  0  0  0  0  0  0  0
  1  2  1  0  0  0  0
  1 31  1  0  0  0  0
  2  3  1  0  0  0  0
  2 32  1  0  0  0  0
  2 33  1  0  0  0  0
  3  4  1  0  0  0  0
  3 26  1  0  0  0  0
  3 34  1  0  0  0  0
  4  5  1  0  0  0  0
  4 35  1  0  0  0  0
  4 36  1  0  0  0  0
  5 25  1  0  0  0  0
  5  6  1  0  0  0  0
  6  7  2  0  0  0  0
  6 37  1  0  0  0  0
  7  8  1  0  0  0  0
  8 25  2  0  0  0  0
  8  9  1  0  0  0  0
  9 10  1  0  0  0  0
  9 22  2  0  0  0  0
 10 15  1  0  0  0  0
 10 11  1  0  0  0  0
 11 12  1  0  0  0  0
 11 38  1  0  0  0  0
 11 39  1  0  0  0  0
 12 13  1  0  0  0  0
 12 40  1  0  0  0  0
 12 41  1  0  0  0  0
 13 14  1  0  0  0  0
 13 42  1  0  0  0  0
 13 43  1  0  0  0  0
 14 15  1  0  0  0  0
 14 44  1  0  0  0  0
 14 45  1  0  0  0  0
 15 16  1  0  0  0  0
 15 46  1  0  0  0  0
 16 20  1  0  0  0  0
 16 17  1  0  0  0  0
 16 47  1  0  0  0  0
 17 18  1  0  0  0  0
 17 48  1  0  0  0  0
 17 49  1  0  0  0  0
 18 19  1  0  0  0  0
 18 50  1  0  0  0  0
 18 51  1  0  0  0  0
 19 20  1  0  0  0  0
 19 52  1  0  0  0  0
 19 53  1  0  0  0  0
 20 21  1  0  0  0  0
 20 54  1  0  0  0  0
 21 55  1  0  0  0  0
 22 23  1  0  0  0  0
 23 24  2  0  0  0  0
 23 56  1  0  0  0  0
 24 25  1  0  0  0  0
 26 30  1  0  0  0  0
 26 27  1  0  0  0  0
 26 57  1  0  0  0  0
 27 28  1  0  0  0  0
 27 58  1  0  0  0  0
 27 59  1  0  0  0  0
 28 29  1  0  0  0  0
 28 60  1  0  0  0  0
 28 61  1  0  0  0  0
 29 30  1  0  0  0  0
 30 62  1  0  0  0  0
 30 63  1  0  0  0  0
M  END
> <s_m_source_file>
AV-unprocessed.smi

> <i_m_source_file_index>
148

> <i_lp_mmshare_version>
43012

> <i_f3d_flags>
0

> <s_epik_input>
W0NIMl0xT1tDSDJdW0NIMl1bQ0BIXTFbQ0BIXShbQ0gyXVtPSF0pW0NIMl1uKFtjSF1uMiljKGMyMyluW2NIXW5jM040W0NIMl1bQ0gyXVtDSDJdW0NIMl1bQ0BIXTRbQ0BASF01W0NIMl1bQ0gyXVtDSDJdW0NASF01W09IXQ==

> <s_epik_cmdline>
J2VwaWtfcHl0aG9uJywgJy1waCcsICc3LjAnLCAnLXRuJywgJzgnLCAnLW1hJywgJzIwMCcsICctbWV0YWxfYmluZGluZycsICctaW1hZScsICc8aW5maWxlLm1hZT4nLCAnLW9tYWUnLCAnPG91dGZpbGUubWFlPic=

> <r_lp_tautomer_probability>
1

> <r_epik_Ionization_Penalty>
0.00556303

> <r_epik_Ionization_Penalty_Charging>
0

> <r_epik_Ionization_Penalty_Neutral>
0.00556303

> <r_epik_State_Penalty>
0.00401767

> <r_epik_Charging_Adjusted_Penalty>
0.00401767

> <i_epik_Tot_Q>
0

> <i_epik_Tot_abs_Q>
0

> <r_epik_Metal_State_Penalty>
-0

> <b_epik_Metal_Only>
0

> <s_lp_Force_Field>
OPLS_2005

> <r_lp_Energy>
69.1671

> <b_lp_Chiralities_Consistent>
1

> <s_lp_Variant>
AV-unprocessed.smi:148-12

> <Gold.Version>
5.8.1

> <Gold.Id.Protein>
6NUR|6NUR_protein|mol2

> <Gold.PLP.Fitness>
50.3622

> <Gold.PLP.PLP>
-41.5683

> <Gold.PLP.part.hbond>
-3.0000

> <Gold.PLP.part.metal>
0.0000

> <Gold.PLP.part.buried>
-6.6241

> <Gold.PLP.part.nonpolar>
-31.8934

> <Gold.PLP.part.repulsive>
0.4626

> <Gold.PLP.ligand.clash>
0.0000

> <Gold.PLP.ligand.torsion>
1.5144

> <Gold.PLP.Chemscore.Hbond>
2.8160

> <Gold.PLP.Chemscore.CHOScore>
0.8948

> <Gold.PLP.Chemscore.Metal>
0.0000

> <Gold.Chemscore.Hbonds>
donor molecule, donor type, donor heavy atom, donor atom, acceptor molecule, acceptor atom, score
      L1  H    21    55       P1 10186  1.00
      P1  H  6931  6943       L1    29  1.00
      P1  H  6934  6947       L1    29  0.80
      L1  C    23    56       P1  7948  0.87

> <Gold.PLP.Chemscore.Internal.Correction>
0.6904

> <Gold.Rescore>
     Score         DG    S(hbond)    S(metal)    S(lipo)     H(rot)  DE(clash)    DE(int)     intcor
     15.68     -17.16       2.36        0.00     105.02       3.32       0.01       1.47       ----

> <Gold.Chemscore.Fitness>
15.6786

> <Gold.Chemscore.DG>
-17.1609

> <Gold.Chemscore.ZeroCoef>
-5.4800

> <Gold.Chemscore.Hbond>
2.3635

> <Gold.Chemscore.Metal>
0.0000

> <Gold.Chemscore.Lipo>
105.0152

> <Gold.Chemscore.Internal_Hbond>
0.0000

> <Gold.Chemscore.DEClash>
0.0098

> <Gold.Chemscore.DEInternal>
1.4726

> <Gold.Chemscore.Rot>
3.3203

> <Gold.Chemscore.Internal.Correction>
   9.000000E+99

> <Gold.Chemscore.Hbonds>
donor molecule, donor type, donor heavy atom, donor atom, acceptor molecule, acceptor atom, score
      L1  H    21    55       P1 10186  0.93
      P1  H  6931  6943       L1    29  0.74
      P1  H  6934  6947       L1    29  0.59

> <Gold.Chemscore.Hbond.Weighted>
-7.8941

> <Gold.Chemscore.Metal.Weighted>
-0.0000

> <Gold.Chemscore.Lipo.Weighted>
-12.2868

> <Gold.Chemscore.Internal_Hbond.Weighted>
0.0000

> <Gold.Chemscore.DEClash.Weighted>
0.0098

> <Gold.Chemscore.DEInternal.Weighted>
1.4726

> <Gold.Chemscore.Rot.Weighted>
8.5000

> <Gold.Chemscore.Internal.Correction.Weighted>
   9.000000E+99

> <Gold.Protein.RotatedTorsions>
[ 6907 6896 6895 6894 ] final  -80.12 input  -60.11 | X-H torsion
[ 7974 7965 7964 7962 ] final  -87.93 input  175.53 | X-H torsion
[ 8008 7997 7996 7995 ] final   69.50 input   59.86 | X-H torsion
[ 10167 10162 10161 10158 ] final -140.81 input  -65.29 | X-H torsion
[ 10718 10713 10712 10709 ] final  155.04 input   66.30 | X-H torsion
[ 10763 10752 10751 10750 ] final  -91.66 input  -60.55 | X-H torsion
[ 11005 11000 10999 10996 ] final   86.99 input  -57.11 | X-H torsion

> <Gold.Protein.ActiveResidues>
 VAL166  LYS551  ARG553  GLY616  TRP617  ASP618  TYR619  PRO620  LYS621  CYS622 
 ASP623  PHE694  ASN695  SER759  ASP760  ASP761  ALA762  ILE779  LEU786  VAL792 
 PHE793  MET794  SER795  GLU796  ALA797  LYS798  CYS799  TRP800  GLU811  SER814 

> <Gold.Protein.RotatedAtoms>
  150.6936  134.4018  159.5122 H   0  0  0  0  0  0  0  0  0  0  0  0  # atno 6907 bound_to 6896
  152.1791  134.8767  160.0537 H   0  0  0  0  0  0  0  0  0  0  0  0  # atno 6908 bound_to 6896
  151.9764  133.3708  159.4128 H   0  0  0  0  0  0  0  0  0  0  0  0  # atno 6909 bound_to 6896
  145.4599  140.9561  143.1975 H   0  0  0  0  0  0  0  0  0  0  0  0  # atno 7974 bound_to 7965
  155.7245  140.3493  155.5031 H   0  0  0  0  0  0  0  0  0  0  0  0  # atno 8008 bound_to 7997
  155.9239  140.1072  157.1207 H   0  0  0  0  0  0  0  0  0  0  0  0  # atno 8009 bound_to 7997
  154.4074  140.1244  156.4701 H   0  0  0  0  0  0  0  0  0  0  0  0  # atno 8010 bound_to 7997
  139.8245  143.7529  152.2666 H   0  0  0  0  0  0  0  0  0  0  0  0  # atno 10167 bound_to 10162
  157.2237  131.0724  151.1896 H   0  0  0  0  0  0  0  0  0  0  0  0  # atno 10718 bound_to 10713
  154.6783  135.5260  153.8228 H   0  0  0  0  0  0  0  0  0  0  0  0  # atno 10763 bound_to 10752
  153.0547  135.6546  154.0617 H   0  0  0  0  0  0  0  0  0  0  0  0  # atno 10764 bound_to 10752
  154.0507  135.2969  155.3320 H   0  0  0  0  0  0  0  0  0  0  0  0  # atno 10765 bound_to 10752
  139.8930  134.8392  156.2798 H   0  0  0  0  0  0  0  0  0  0  0  0  # atno 11005 bound_to 11000
  144.8009  139.6142  143.7072 LP  0  0  0  0  0  0  0  0  0  0  0  0  # atno 17320 bound_to 7965
  146.2457  139.6093  142.9461 LP  0  0  0  0  0  0  0  0  0  0  0  0  # atno 17321 bound_to 7965
  139.7717  144.7474  151.0214 LP  0  0  0  0  0  0  0  0  0  0  0  0  # atno 17342 bound_to 10162
  140.7811  143.4637  151.0242 LP  0  0  0  0  0  0  0  0  0  0  0  0  # atno 17343 bound_to 10162
  157.3550  130.7102  149.6465 LP  0  0  0  0  0  0  0  0  0  0  0  0  # atno 17370 bound_to 10713
  155.9680  130.4242  150.4596 LP  0  0  0  0  0  0  0  0  0  0  0  0  # atno 17371 bound_to 10713
  141.0046  133.7131  156.1014 LP  0  0  0  0  0  0  0  0  0  0  0  0  # atno 17394 bound_to 11000
  140.7451  134.4107  157.5549 LP  0  0  0  0  0  0  0  0  0  0  0  0  # atno 17395 bound_to 11000

$$$$
