AV-unprocessed.smi:3303|AV-procd|sdf|12685|dock4
  -GOLD-   2272019 23D 1   1.00000     0.00000
 Structure written by MMmdl.
 44 45  0  0  0  0  0  0  0  0  2 V2000
  147.8661  137.3631  156.2441 C   0  0  0  0  0  0  0  0  0  0  0  0
  148.5422  136.4455  155.2098 C   0  0  2  0  0  0  0  0  0  0  0  0
  147.5642  135.3366  154.7675 C   0  0  0  0  0  0  0  0  0  0  0  0
  148.1836  134.4209  153.7768 N   0  3  2  0  0  0  0  0  0  0  0  0
  147.2107  133.4813  153.1747 C   0  0  0  0  0  0  0  0  0  0  0  0
  149.4316  133.7735  154.2708 C   0  0  2  0  0  0  0  0  0  0  0  0
  149.1928  132.7281  155.3819 C   0  0  0  0  0  0  0  0  0  0  0  0
  150.4448  134.8541  154.6922 C   0  0  0  0  0  0  0  0  0  0  0  0
  149.8624  135.8290  155.7330 C   0  0  1  0  0  0  0  0  0  0  0  0
  150.8495  136.8802  155.9432 N   0  0  0  0  0  0  0  0  0  0  0  0
  151.2427  137.5086  154.6898 C   0  0  0  0  0  0  0  0  0  0  0  0
  152.3325  138.5685  154.9232 C   0  0  0  0  0  0  0  0  0  0  0  0
  151.8793  139.7005  155.8312 C   0  0  0  0  0  0  0  0  0  0  0  0
  152.3279  139.7677  157.1676 C   0  0  0  0  0  0  0  0  0  0  0  0
  151.8655  140.8215  157.9793 C   0  0  0  0  0  0  0  0  0  0  0  0
  150.9742  141.7618  157.4278 C   0  0  0  0  0  0  0  0  0  0  0  0
  150.5850  141.6067  156.0825 C   0  0  0  0  0  0  0  0  0  0  0  0
  151.0232  140.6006  155.2954 N   0  0  0  0  0  0  0  0  0  0  0  0
  147.6473  136.8264  157.1677 H   0  0  0  0  0  0  0  0  0  0  0  0
  146.9263  137.7613  155.8606 H   0  0  0  0  0  0  0  0  0  0  0  0
  148.4957  138.2171  156.4956 H   0  0  0  0  0  0  0  0  0  0  0  0
  148.7704  137.0510  154.3308 H   0  0  0  0  0  0  0  0  0  0  0  0
  147.2096  134.7700  155.6290 H   0  0  0  0  0  0  0  0  0  0  0  0
  146.6823  135.7955  154.3181 H   0  0  0  0  0  0  0  0  0  0  0  0
  146.7410  132.8515  153.9306 H   0  0  0  0  0  0  0  0  0  0  0  0
  147.6958  132.8375  152.4404 H   0  0  0  0  0  0  0  0  0  0  0  0
  146.4215  134.0316  152.6618 H   0  0  0  0  0  0  0  0  0  0  0  0
  149.8690  133.2422  153.4244 H   0  0  0  0  0  0  0  0  0  0  0  0
  150.1371  132.2858  155.7008 H   0  0  0  0  0  0  0  0  0  0  0  0
  148.5623  131.9081  155.0387 H   0  0  0  0  0  0  0  0  0  0  0  0
  148.7252  133.1592  156.2665 H   0  0  0  0  0  0  0  0  0  0  0  0
  151.3508  134.3857  155.0794 H   0  0  0  0  0  0  0  0  0  0  0  0
  150.7493  135.4104  153.8038 H   0  0  0  0  0  0  0  0  0  0  0  0
  149.6738  135.2848  156.6599 H   0  0  0  0  0  0  0  0  0  0  0  0
  150.4890  137.5822  156.5738 H   0  0  0  0  0  0  0  0  0  0  0  0
  151.6066  136.7589  153.9863 H   0  0  0  0  0  0  0  0  0  0  0  0
  150.3641  137.9732  154.2408 H   0  0  0  0  0  0  0  0  0  0  0  0
  153.2057  138.0934  155.3716 H   0  0  0  0  0  0  0  0  0  0  0  0
  152.6714  138.9782  153.9702 H   0  0  0  0  0  0  0  0  0  0  0  0
  153.0068  139.0271  157.5643 H   0  0  0  0  0  0  0  0  0  0  0  0
  152.1869  140.9056  159.0069 H   0  0  0  0  0  0  0  0  0  0  0  0
  150.5978  142.5818  158.0210 H   0  0  0  0  0  0  0  0  0  0  0  0
  149.9022  142.3083  155.6269 H   0  0  0  0  0  0  0  0  0  0  0  0
  148.4812  135.0152  153.0160 H   0  0  0  0  0  0  0  0  0  0  0  0
  1  2  1  0  0  0  0
  1 19  1  0  0  0  0
  1 20  1  0  0  0  0
  1 21  1  0  0  0  0
  2  9  1  0  0  0  0
  2  3  1  0  0  0  0
  2 22  1  0  0  0  0
  3  4  1  0  0  0  0
  3 23  1  0  0  0  0
  3 24  1  0  0  0  0
  4  5  1  0  0  0  0
  4  6  1  0  0  0  0
  4 44  1  0  0  0  0
  5 25  1  0  0  0  0
  5 26  1  0  0  0  0
  5 27  1  0  0  0  0
  6  7  1  0  0  0  0
  6  8  1  0  0  0  0
  6 28  1  0  0  0  0
  7 29  1  0  0  0  0
  7 30  1  0  0  0  0
  7 31  1  0  0  0  0
  8  9  1  0  0  0  0
  8 32  1  0  0  0  0
  8 33  1  0  0  0  0
  9 10  1  0  0  0  0
  9 34  1  0  0  0  0
 10 11  1  0  0  0  0
 10 35  1  0  0  0  0
 11 12  1  0  0  0  0
 11 36  1  0  0  0  0
 11 37  1  0  0  0  0
 12 13  1  0  0  0  0
 12 38  1  0  0  0  0
 12 39  1  0  0  0  0
 13 18  1  0  0  0  0
 13 14  2  0  0  0  0
 14 15  1  0  0  0  0
 14 40  1  0  0  0  0
 15 16  2  0  0  0  0
 15 41  1  0  0  0  0
 16 17  1  0  0  0  0
 16 42  1  0  0  0  0
 17 18  2  0  0  0  0
 17 43  1  0  0  0  0
M  CHG  1   4   1
M  END
> <s_m_source_file>
AV-unprocessed.smi

> <i_m_source_file_index>
3303

> <i_lp_mmshare_version>
43012

> <i_f3d_flags>
0

> <s_epik_input>
W0NIM11bQ0BASF0xW0NIMl1OKFtDSDNdKVtDQEBIXShbQ0gzXSlbQ0gyXVtDQEhdMVtOSF1bQ0gyXVtDSDJdYzJbY0hdW2NIXVtjSF1bY0hdbjI=

> <s_epik_cmdline>
J2VwaWtfcHl0aG9uJywgJy1waCcsICc3LjAnLCAnLXRuJywgJzgnLCAnLW1hJywgJzIwMCcsICctbWV0YWxfYmluZGluZycsICctaW1hZScsICc8aW5maWxlLm1hZT4nLCAnLW9tYWUnLCAnPG91dGZpbGUubWFlPic=

> <r_epik_Ionization_Penalty>
2.31085

> <r_epik_Ionization_Penalty_Charging>
0.000313057

> <r_epik_Ionization_Penalty_Neutral>
2.31054

> <r_epik_State_Penalty>
2.4087

> <r_epik_Charging_Adjusted_Penalty>
2.40902

> <i_epik_Tot_Q>
1

> <i_epik_Tot_abs_Q>
1

> <r_epik_Metal_State_Penalty>
2.30979

> <b_epik_Metal_Only>
0

> <s_lp_Force_Field>
OPLS_2005

> <r_lp_Energy>
26.7889

> <b_lp_Chiralities_Consistent>
1

> <s_lp_Variant>
AV-unprocessed.smi:3303-29

> <Gold.Version>
5.8.1

> <Gold.Id.Protein>
6NUR|6NUR_protein|mol2

> <Gold.PLP.Fitness>
41.5676

> <Gold.PLP.PLP>
-30.2753

> <Gold.PLP.part.hbond>
-2.0000

> <Gold.PLP.part.metal>
0.0000

> <Gold.PLP.part.buried>
-2.8584

> <Gold.PLP.part.nonpolar>
-25.1200

> <Gold.PLP.part.repulsive>
0.0603

> <Gold.PLP.ligand.clash>
0.0000

> <Gold.PLP.ligand.torsion>
0.2015

> <Gold.PLP.Chemscore.Hbond>
2.8960

> <Gold.PLP.Chemscore.CHOScore>
1.0000

> <Gold.PLP.Chemscore.Metal>
0.0000

> <Gold.Chemscore.Hbonds>
donor molecule, donor type, donor heavy atom, donor atom, acceptor molecule, acceptor atom, score
      L1  H     4    44       P1  7948  2.00
      P1  H  7989  7998       L1    18  0.91
      L1  C    17    43       P1  8028  0.79

> <Gold.PLP.Chemscore.Internal.Correction>
0.0074

> <Gold.Rescore>
     Score         DG    S(hbond)    S(metal)    S(lipo)     H(rot)  DE(clash)    DE(int)     intcor
     16.44     -16.89       1.73        0.00      77.08       1.33       0.11       0.34       ----

> <Gold.Chemscore.Fitness>
16.4441

> <Gold.Chemscore.DG>
-16.8918

> <Gold.Chemscore.ZeroCoef>
-5.4800

> <Gold.Chemscore.Hbond>
1.7339

> <Gold.Chemscore.Metal>
0.0000

> <Gold.Chemscore.Lipo>
77.0793

> <Gold.Chemscore.Internal_Hbond>
0.0000

> <Gold.Chemscore.DEClash>
0.1068

> <Gold.Chemscore.DEInternal>
0.3409

> <Gold.Chemscore.Rot>
1.3272

> <Gold.Chemscore.Internal.Correction>
   9.000000E+99

> <Gold.Chemscore.Hbonds>
donor molecule, donor type, donor heavy atom, donor atom, acceptor molecule, acceptor atom, score
      L1  H     4    44       P1  7948  0.70
      P1  H  7989  7998       L1    18  0.43

> <Gold.Chemscore.Hbond.Weighted>
-5.7912

> <Gold.Chemscore.Metal.Weighted>
-0.0000

> <Gold.Chemscore.Lipo.Weighted>
-9.0183

> <Gold.Chemscore.Internal_Hbond.Weighted>
0.0000

> <Gold.Chemscore.DEClash.Weighted>
0.1068

> <Gold.Chemscore.DEInternal.Weighted>
0.3409

> <Gold.Chemscore.Rot.Weighted>
3.3976

> <Gold.Chemscore.Internal.Correction.Weighted>
   9.000000E+99

> <Gold.Protein.RotatedTorsions>
[ 6907 6896 6895 6894 ] final -111.60 input  -60.11 | X-H torsion
[ 7974 7965 7964 7962 ] final   26.78 input  175.53 | X-H torsion
[ 8008 7997 7996 7995 ] final   67.11 input   59.86 | X-H torsion
[ 10167 10162 10161 10158 ] final -171.99 input  -65.29 | X-H torsion
[ 10718 10713 10712 10709 ] final  144.95 input   66.30 | X-H torsion
[ 10763 10752 10751 10750 ] final   21.42 input  -60.55 | X-H torsion
[ 11005 11000 10999 10996 ] final  179.68 input  -57.11 | X-H torsion

> <Gold.Protein.ActiveResidues>
 VAL166  LYS551  ARG553  GLY616  TRP617  ASP618  TYR619  PRO620  LYS621  CYS622 
 ASP623  PHE694  ASN695  SER759  ASP760  ASP761  ALA762  ILE779  LEU786  VAL792 
 PHE793  MET794  SER795  GLU796  ALA797  LYS798  CYS799  TRP800  GLU811  SER814 

> <Gold.Protein.RotatedAtoms>
  150.7701  133.9212  159.3398 H   0  0  0  0  0  0  0  0  0  0  0  0  # atno 6907 bound_to 6896
  151.7101  135.0912  160.0275 H   0  0  0  0  0  0  0  0  0  0  0  0  # atno 6908 bound_to 6896
  152.3715  133.6387  159.6126 H   0  0  0  0  0  0  0  0  0  0  0  0  # atno 6909 bound_to 6896
  146.1819  139.7281  142.8894 H   0  0  0  0  0  0  0  0  0  0  0  0  # atno 7974 bound_to 7965
  155.6878  140.3496  155.4881 H   0  0  0  0  0  0  0  0  0  0  0  0  # atno 8008 bound_to 7997
  155.9551  140.1126  157.0966 H   0  0  0  0  0  0  0  0  0  0  0  0  # atno 8009 bound_to 7997
  154.4130  140.1186  156.5090 H   0  0  0  0  0  0  0  0  0  0  0  0  # atno 8010 bound_to 7997
  139.5770  144.1510  152.1464 H   0  0  0  0  0  0  0  0  0  0  0  0  # atno 10167 bound_to 10162
  157.3511  131.0951  151.0999 H   0  0  0  0  0  0  0  0  0  0  0  0  # atno 10718 bound_to 10713
  153.0996  135.6669  153.9697 H   0  0  0  0  0  0  0  0  0  0  0  0  # atno 10763 bound_to 10752
  153.9271  135.3008  155.3448 H   0  0  0  0  0  0  0  0  0  0  0  0  # atno 10764 bound_to 10752
  154.7417  135.5076  153.9208 H   0  0  0  0  0  0  0  0  0  0  0  0  # atno 10765 bound_to 10752
  140.4089  134.6710  157.4603 H   0  0  0  0  0  0  0  0  0  0  0  0  # atno 11005 bound_to 11000
  145.4051  141.0390  143.3048 LP  0  0  0  0  0  0  0  0  0  0  0  0  # atno 17320 bound_to 7965
  144.8330  139.5597  143.6935 LP  0  0  0  0  0  0  0  0  0  0  0  0  # atno 17321 bound_to 7965
  140.1055  144.5503  150.6960 LP  0  0  0  0  0  0  0  0  0  0  0  0  # atno 17342 bound_to 10162
  140.7052  143.2463  151.4748 LP  0  0  0  0  0  0  0  0  0  0  0  0  # atno 17343 bound_to 10162
  157.2174  130.6466  149.5798 LP  0  0  0  0  0  0  0  0  0  0  0  0  # atno 17370 bound_to 10713
  155.9722  130.4640  150.6202 LP  0  0  0  0  0  0  0  0  0  0  0  0  # atno 17371 bound_to 10713
  140.0282  134.6446  155.9143 LP  0  0  0  0  0  0  0  0  0  0  0  0  # atno 17394 bound_to 11000
  141.1829  133.6550  156.5093 LP  0  0  0  0  0  0  0  0  0  0  0  0  # atno 17395 bound_to 11000

$$$$
