AV-unprocessed.smi:1066|AV-procd|sdf|4669|dock9
  -GOLD-   22720 3183D 1   1.00000     0.00000
 Structure written by MMmdl.
 38 40  0  0  0  0  0  0  0  0  2 V2000
  150.2875  130.2825  154.4461 C   0  0  0  0  0  0  0  0  0  0  0  0
  150.5116  131.4352  155.3825 C   0  0  0  0  0  0  0  0  0  0  0  0
  150.8977  131.1886  156.6273 N   0  0  0  0  0  0  0  0  0  0  0  0
  151.0150  132.4322  157.2587 O   0  0  0  0  0  0  0  0  0  0  0  0
  150.6887  133.3726  156.3433 C   0  0  0  0  0  0  0  0  0  0  0  0
  150.6797  135.0518  156.7126 Cl  0  0  0  0  0  0  0  0  0  0  0  0
  150.3587  132.8316  155.1341 C   0  0  0  0  0  0  0  0  0  0  0  0
  149.9305  133.5203  153.8626 C   0  0  0  0  0  0  0  0  0  0  0  0
  148.4415  133.2728  153.6237 C   0  0  0  0  0  0  0  0  0  0  0  0
  147.8831  132.3120  154.1519 O   0  0  0  0  0  0  0  0  0  0  0  0
  147.8069  134.1537  152.8351 N   0  0  0  0  0  0  0  0  0  0  0  0
  146.3809  134.1220  152.5333 C   0  0  1  0  0  0  0  0  0  0  0  0
  145.9358  135.1485  151.4878 C   0  0  0  0  0  0  0  0  0  0  0  0
  144.7384  134.4895  150.7828 C   0  0  0  0  0  0  0  0  0  0  0  0
  144.6672  133.0925  151.2711 N   0  3  1  0  0  0  0  0  0  0  0  0
  144.2535  132.1120  150.2452 C   0  0  0  0  0  0  0  0  0  0  0  0
  145.0703  132.1853  148.9773 C   0  0  0  0  0  0  0  0  0  0  0  0
  143.6643  132.7440  149.0071 C   0  0  0  0  0  0  0  0  0  0  0  0
  145.9678  132.7979  151.8979 C   0  0  0  0  0  0  0  0  0  0  0  0
  149.9082  130.6177  153.4810 H   0  0  0  0  0  0  0  0  0  0  0  0
  149.5625  129.5792  154.8564 H   0  0  0  0  0  0  0  0  0  0  0  0
  151.2149  129.7385  154.2660 H   0  0  0  0  0  0  0  0  0  0  0  0
  150.1097  134.5952  153.9070 H   0  0  0  0  0  0  0  0  0  0  0  0
  150.4979  133.1571  153.0050 H   0  0  0  0  0  0  0  0  0  0  0  0
  148.3464  134.9108  152.4401 H   0  0  0  0  0  0  0  0  0  0  0  0
  145.8069  134.2663  153.4510 H   0  0  0  0  0  0  0  0  0  0  0  0
  145.6795  136.1091  151.9359 H   0  0  0  0  0  0  0  0  0  0  0  0
  146.7324  135.3247  150.7630 H   0  0  0  0  0  0  0  0  0  0  0  0
  143.8036  135.0006  151.0149 H   0  0  0  0  0  0  0  0  0  0  0  0
  144.8759  134.5243  149.7009 H   0  0  0  0  0  0  0  0  0  0  0  0
  143.8836  131.1548  150.6087 H   0  0  0  0  0  0  0  0  0  0  0  0
  145.8932  132.8967  148.9344 H   0  0  0  0  0  0  0  0  0  0  0  0
  145.2270  131.2600  148.4265 H   0  0  0  0  0  0  0  0  0  0  0  0
  142.8958  132.1861  148.4758 H   0  0  0  0  0  0  0  0  0  0  0  0
  143.5533  133.8270  148.9833 H   0  0  0  0  0  0  0  0  0  0  0  0
  146.6869  132.4989  151.1324 H   0  0  0  0  0  0  0  0  0  0  0  0
  145.8883  131.9897  152.6259 H   0  0  0  0  0  0  0  0  0  0  0  0
  143.9801  133.0791  152.0114 H   0  0  0  0  0  0  0  0  0  0  0  0
  1  2  1  0  0  0  0
  1 20  1  0  0  0  0
  1 21  1  0  0  0  0
  1 22  1  0  0  0  0
  2  7  1  0  0  0  0
  2  3  2  0  0  0  0
  3  4  1  0  0  0  0
  4  5  1  0  0  0  0
  5  6  1  0  0  0  0
  5  7  2  0  0  0  0
  7  8  1  0  0  0  0
  8  9  1  0  0  0  0
  8 23  1  0  0  0  0
  8 24  1  0  0  0  0
  9 10  2  0  0  0  0
  9 11  1  0  0  0  0
 11 12  1  0  0  0  0
 11 25  1  0  0  0  0
 12 19  1  0  0  0  0
 12 13  1  0  0  0  0
 12 26  1  0  0  0  0
 13 14  1  0  0  0  0
 13 27  1  0  0  0  0
 13 28  1  0  0  0  0
 14 15  1  0  0  0  0
 14 29  1  0  0  0  0
 14 30  1  0  0  0  0
 15 16  1  0  0  0  0
 15 19  1  0  0  0  0
 15 38  1  0  0  0  0
 16 18  1  0  0  0  0
 16 17  1  0  0  0  0
 16 31  1  0  0  0  0
 17 18  1  0  0  0  0
 17 32  1  0  0  0  0
 17 33  1  0  0  0  0
 18 34  1  0  0  0  0
 18 35  1  0  0  0  0
 19 36  1  0  0  0  0
 19 37  1  0  0  0  0
M  CHG  1  15   1
M  END
> <s_m_source_file>
AV-unprocessed.smi

> <i_m_source_file_index>
1066

> <i_lp_mmshare_version>
43012

> <i_f3d_flags>
0

> <s_epik_input>
W0NIM11jMW5vYyhDbCljMVtDSDJdQyg9TylbTkhdW0NAQEhdMltDSDJdW0NIMl1OKFtDSDJdMilbQ0hdM1tDSDJdW0NIMl0z

> <s_epik_cmdline>
J2VwaWtfcHl0aG9uJywgJy1waCcsICc3LjAnLCAnLXRuJywgJzgnLCAnLW1hJywgJzIwMCcsICctbWV0YWxfYmluZGluZycsICctaW1hZScsICc8aW5maWxlLm1hZT4nLCAnLW9tYWUnLCAnPG91dGZpbGUubWFlPic=

> <r_epik_Ionization_Penalty>
0.00108138

> <r_epik_Ionization_Penalty_Charging>
0.00108128

> <r_epik_Ionization_Penalty_Neutral>
9.66632e-08

> <r_epik_State_Penalty>
0.000708577

> <r_epik_Charging_Adjusted_Penalty>
0.00178986

> <i_epik_Tot_Q>
1

> <i_epik_Tot_abs_Q>
1

> <r_epik_Metal_State_Penalty>
-0

> <b_epik_Metal_Only>
0

> <s_lp_Force_Field>
OPLS_2005

> <r_lp_Energy>
30.6816

> <b_lp_Chiralities_Consistent>
1

> <s_lp_Variant>
AV-unprocessed.smi:1066-2

> <Gold.Version>
5.8.1

> <Gold.Id.Protein>
6NUR|6NUR_protein|mol2

> <Gold.PLP.Fitness>
38.2645

> <Gold.PLP.PLP>
-34.6447

> <Gold.PLP.part.hbond>
-2.0000

> <Gold.PLP.part.metal>
0.0000

> <Gold.PLP.part.buried>
-2.7439

> <Gold.PLP.part.nonpolar>
-29.1521

> <Gold.PLP.part.repulsive>
0.0459

> <Gold.PLP.ligand.clash>
1.3817

> <Gold.PLP.ligand.torsion>
1.1326

> <Gold.PLP.Chemscore.Hbond>
2.0000

> <Gold.PLP.Chemscore.CHOScore>
0.0000

> <Gold.PLP.Chemscore.Metal>
0.0000

> <Gold.Chemscore.Hbonds>
donor molecule, donor type, donor heavy atom, donor atom, acceptor molecule, acceptor atom, score
      L1  H    11    25       P1  7948  0.98
      P1  H  6896  6908       L1     4  0.59

> <Gold.PLP.Chemscore.Internal.Correction>
1.2667

> <Gold.Rescore>
     Score         DG    S(hbond)    S(metal)    S(lipo)     H(rot)  DE(clash)    DE(int)     intcor
     15.79     -18.10       1.92        0.00      87.41       1.57       0.08       2.24       ----

> <Gold.Chemscore.Fitness>
15.7876

> <Gold.Chemscore.DG>
-18.1015

> <Gold.Chemscore.ZeroCoef>
-5.4800

> <Gold.Chemscore.Hbond>
1.9211

> <Gold.Chemscore.Metal>
0.0000

> <Gold.Chemscore.Lipo>
87.4120

> <Gold.Chemscore.Internal_Hbond>
0.0000

> <Gold.Chemscore.DEClash>
0.0770

> <Gold.Chemscore.DEInternal>
2.2370

> <Gold.Chemscore.Rot>
1.5711

> <Gold.Chemscore.Internal.Correction>
   9.000000E+99

> <Gold.Chemscore.Hbonds>
donor molecule, donor type, donor heavy atom, donor atom, acceptor molecule, acceptor atom, score
      L1  H    11    25       P1  7948  0.36
      P1  H  6896  6908       L1     4  0.45

> <Gold.Chemscore.Hbond.Weighted>
-6.4164

> <Gold.Chemscore.Metal.Weighted>
-0.0000

> <Gold.Chemscore.Lipo.Weighted>
-10.2272

> <Gold.Chemscore.Internal_Hbond.Weighted>
0.0000

> <Gold.Chemscore.DEClash.Weighted>
0.0770

> <Gold.Chemscore.DEInternal.Weighted>
2.2370

> <Gold.Chemscore.Rot.Weighted>
4.0221

> <Gold.Chemscore.Internal.Correction.Weighted>
   9.000000E+99

> <Gold.Protein.RotatedTorsions>
[ 6907 6896 6895 6894 ] final   73.63 input  -60.11 | X-H torsion
[ 7974 7965 7964 7962 ] final    2.46 input  175.53 | X-H torsion
[ 8008 7997 7996 7995 ] final  105.97 input   59.86 | X-H torsion
[ 10167 10162 10161 10158 ] final  -96.41 input  -65.29 | X-H torsion
[ 10718 10713 10712 10709 ] final  -54.15 input   66.30 | X-H torsion
[ 10763 10752 10751 10750 ] final  111.99 input  -60.55 | X-H torsion
[ 11005 11000 10999 10996 ] final    4.43 input  -57.11 | X-H torsion

> <Gold.Protein.ActiveResidues>
 VAL166  LYS551  ARG553  GLY616  TRP617  ASP618  TYR619  PRO620  LYS621  CYS622 
 ASP623  PHE694  ASN695  SER759  ASP760  ASP761  ALA762  ILE779  LEU786  VAL792 
 PHE793  MET794  SER795  GLU796  ALA797  LYS798  CYS799  TRP800  GLU811  SER814 

> <Gold.Protein.RotatedAtoms>
  152.4933  134.4393  159.9538 H   0  0  0  0  0  0  0  0  0  0  0  0  # atno 6907 bound_to 6896
  151.4377  133.3646  159.2785 H   0  0  0  0  0  0  0  0  0  0  0  0  # atno 6908 bound_to 6896
  150.9110  134.8550  159.7485 H   0  0  0  0  0  0  0  0  0  0  0  0  # atno 6909 bound_to 6896
  146.2444  140.0833  142.8356 H   0  0  0  0  0  0  0  0  0  0  0  0  # atno 7974 bound_to 7965
  156.1704  140.3121  155.8964 H   0  0  0  0  0  0  0  0  0  0  0  0  # atno 8008 bound_to 7997
  155.3598  140.0476  157.3063 H   0  0  0  0  0  0  0  0  0  0  0  0  # atno 8009 bound_to 7997
  154.5235  140.2206  155.8943 H   0  0  0  0  0  0  0  0  0  0  0  0  # atno 8010 bound_to 7997
  140.2941  143.3203  152.0316 H   0  0  0  0  0  0  0  0  0  0  0  0  # atno 10167 bound_to 10162
  156.1475  130.4152  150.0000 H   0  0  0  0  0  0  0  0  0  0  0  0  # atno 10718 bound_to 10713
  153.4714  135.3700  155.2392 H   0  0  0  0  0  0  0  0  0  0  0  0  # atno 10763 bound_to 10752
  154.8757  135.3932  154.3808 H   0  0  0  0  0  0  0  0  0  0  0  0  # atno 10764 bound_to 10752
  153.4397  135.7084  153.6242 H   0  0  0  0  0  0  0  0  0  0  0  0  # atno 10765 bound_to 10752
  140.5820  134.0004  155.8052 H   0  0  0  0  0  0  0  0  0  0  0  0  # atno 11005 bound_to 11000
  145.0714  140.9158  143.4880 LP  0  0  0  0  0  0  0  0  0  0  0  0  # atno 17320 bound_to 7965
  145.0968  139.2851  143.5707 LP  0  0  0  0  0  0  0  0  0  0  0  0  # atno 17321 bound_to 7965
  139.4931  144.6503  151.6689 LP  0  0  0  0  0  0  0  0  0  0  0  0  # atno 17342 bound_to 10162
  140.5707  144.0114  150.6215 LP  0  0  0  0  0  0  0  0  0  0  0  0  # atno 17343 bound_to 10162
  156.7868  130.9241  151.3646 LP  0  0  0  0  0  0  0  0  0  0  0  0  # atno 17370 bound_to 10713
  157.6629  130.8981  149.9868 LP  0  0  0  0  0  0  0  0  0  0  0  0  # atno 17371 bound_to 10713
  141.0990  133.9798  157.3111 LP  0  0  0  0  0  0  0  0  0  0  0  0  # atno 17394 bound_to 11000
  139.9313  135.0199  156.8409 LP  0  0  0  0  0  0  0  0  0  0  0  0  # atno 17395 bound_to 11000

$$$$
