AV-unprocessed.smi:1672|AV-procd|sdf|6708|dock4
  -GOLD-   22720 7453D 1   1.00000     0.00000
 Structure written by MMmdl.
 49 51  0  0  0  0  0  0  0  0  3 V2000
  146.9130  133.1430  155.4543 C   0  0  0  0  0  0  0  0  0  0  0  0
  147.2889  133.9159  154.1780 C   0  0  2  0  0  0  0  0  0  0  0  0
  148.7671  133.7378  153.7864 C   0  0  0  0  0  0  0  0  0  0  0  0
  149.7134  134.5269  154.7086 C   0  0  0  0  0  0  0  0  0  0  0  0
  149.3538  135.9695  154.7392 N   0  3  2  0  0  0  0  0  0  0  0  0
  150.3112  136.7982  155.5162 C   0  0  0  0  0  0  0  0  0  0  0  0
  149.8933  138.2824  155.5924 C   0  0  1  0  0  0  0  0  0  0  0  0
  149.1387  138.4858  156.7692 O   0  0  0  0  0  0  0  0  0  0  0  0
  151.0867  139.2602  155.6305 C   0  0  0  0  0  0  0  0  0  0  0  0
  150.7208  140.6149  156.0745 N   0  0  0  0  0  0  0  0  0  0  0  0
  149.8600  141.5296  155.5364 C   0  0  0  0  0  0  0  0  0  0  0  0
  149.0308  141.3798  154.3023 C   0  0  0  0  0  0  0  0  0  0  0  0
  149.7765  140.9070  153.2026 O   0  0  0  0  0  0  0  0  0  0  0  0
  149.8858  142.6287  156.3419 N   0  3  0  0  0  0  0  0  0  0  0  0
  150.7824  142.4267  157.3916 C   0  0  0  0  0  0  0  0  0  0  0  0
  151.1501  143.2543  158.4483 C   0  0  0  0  0  0  0  0  0  0  0  0
  152.1075  142.7430  159.3489 C   0  0  0  0  0  0  0  0  0  0  0  0
  152.6609  141.4572  159.1803 C   0  0  0  0  0  0  0  0  0  0  0  0
  152.2786  140.6267  158.1059 C   0  0  0  0  0  0  0  0  0  0  0  0
  151.3288  141.1384  157.2218 C   0  0  0  0  0  0  0  0  0  0  0  0
  147.9502  136.1725  155.1813 C   0  0  0  0  0  0  0  0  0  0  0  0
  146.9633  135.4176  154.2726 C   0  0  0  0  0  0  0  0  0  0  0  0
  147.4600  133.4967  156.3277 H   0  0  0  0  0  0  0  0  0  0  0  0
  147.1237  132.0790  155.3423 H   0  0  0  0  0  0  0  0  0  0  0  0
  145.8491  133.2428  155.6705 H   0  0  0  0  0  0  0  0  0  0  0  0
  146.6825  133.4962  153.3741 H   0  0  0  0  0  0  0  0  0  0  0  0
  149.0343  132.6804  153.7902 H   0  0  0  0  0  0  0  0  0  0  0  0
  148.9079  134.0800  152.7599 H   0  0  0  0  0  0  0  0  0  0  0  0
  149.6855  134.1203  155.7203 H   0  0  0  0  0  0  0  0  0  0  0  0
  150.7339  134.3969  154.3514 H   0  0  0  0  0  0  0  0  0  0  0  0
  150.3899  136.4138  156.5344 H   0  0  0  0  0  0  0  0  0  0  0  0
  151.3018  136.6922  155.0727 H   0  0  0  0  0  0  0  0  0  0  0  0
  149.2588  138.5393  154.7458 H   0  0  0  0  0  0  0  0  0  0  0  0
  149.5730  138.0525  157.4884 H   0  0  0  0  0  0  0  0  0  0  0  0
  151.8731  138.8888  156.2893 H   0  0  0  0  0  0  0  0  0  0  0  0
  151.5341  139.3439  154.6399 H   0  0  0  0  0  0  0  0  0  0  0  0
  148.2160  140.6821  154.4983 H   0  0  0  0  0  0  0  0  0  0  0  0
  148.5742  142.3356  154.0457 H   0  0  0  0  0  0  0  0  0  0  0  0
  149.1977  140.4188  152.6362 H   0  0  0  0  0  0  0  0  0  0  0  0
  150.7310  144.2416  158.5774 H   0  0  0  0  0  0  0  0  0  0  0  0
  152.4262  143.3502  160.1840 H   0  0  0  0  0  0  0  0  0  0  0  0
  153.3952  141.1013  159.8887 H   0  0  0  0  0  0  0  0  0  0  0  0
  152.7128  139.6452  157.9848 H   0  0  0  0  0  0  0  0  0  0  0  0
  147.8420  135.8512  156.2181 H   0  0  0  0  0  0  0  0  0  0  0  0
  147.7084  137.2358  155.1565 H   0  0  0  0  0  0  0  0  0  0  0  0
  147.0002  135.8541  153.2735 H   0  0  0  0  0  0  0  0  0  0  0  0
  145.9420  135.5620  154.6266 H   0  0  0  0  0  0  0  0  0  0  0  0
  149.3987  136.3057  153.7874 H   0  0  0  0  0  0  0  0  0  0  0  0
  149.3322  143.4600  156.1784 H   0  0  0  0  0  0  0  0  0  0  0  0
  1  2  1  0  0  0  0
  1 23  1  0  0  0  0
  1 24  1  0  0  0  0
  1 25  1  0  0  0  0
  2 22  1  0  0  0  0
  2  3  1  0  0  0  0
  2 26  1  0  0  0  0
  3  4  1  0  0  0  0
  3 27  1  0  0  0  0
  3 28  1  0  0  0  0
  4  5  1  0  0  0  0
  4 29  1  0  0  0  0
  4 30  1  0  0  0  0
  5  6  1  0  0  0  0
  5 21  1  0  0  0  0
  5 48  1  0  0  0  0
  6  7  1  0  0  0  0
  6 31  1  0  0  0  0
  6 32  1  0  0  0  0
  7  8  1  0  0  0  0
  7  9  1  0  0  0  0
  7 33  1  0  0  0  0
  8 34  1  0  0  0  0
  9 10  1  0  0  0  0
  9 35  1  0  0  0  0
  9 36  1  0  0  0  0
 10 20  1  0  0  0  0
 10 11  1  0  0  0  0
 11 12  1  0  0  0  0
 11 14  2  0  0  0  0
 12 13  1  0  0  0  0
 12 37  1  0  0  0  0
 12 38  1  0  0  0  0
 13 39  1  0  0  0  0
 14 15  1  0  0  0  0
 14 49  1  0  0  0  0
 15 20  2  0  0  0  0
 15 16  1  0  0  0  0
 16 17  2  0  0  0  0
 16 40  1  0  0  0  0
 17 18  1  0  0  0  0
 17 41  1  0  0  0  0
 18 19  2  0  0  0  0
 18 42  1  0  0  0  0
 19 20  1  0  0  0  0
 19 43  1  0  0  0  0
 21 22  1  0  0  0  0
 21 44  1  0  0  0  0
 21 45  1  0  0  0  0
 22 46  1  0  0  0  0
 22 47  1  0  0  0  0
M  CHG  1   5   1
M  CHG  1  14   1
M  END
> <s_m_source_file>
AV-unprocessed.smi

> <i_m_source_file_index>
1672

> <i_lp_mmshare_version>
43012

> <i_f3d_flags>
0

> <s_epik_input>
W0NIM11bQ0hdMVtDSDJdW0NIMl1OKFtDSDJdW0NIMl0xKVtDSDJdW0NASF0oW09IXSlbQ0gyXW4oYyhuMilbQ0gyXVtPSF0pYyhjMjMpW2NIXVtjSF1bY0hdW2NIXTM=

> <s_epik_cmdline>
J2VwaWtfcHl0aG9uJywgJy1waCcsICc3LjAnLCAnLXRuJywgJzgnLCAnLW1hJywgJzIwMCcsICctbWV0YWxfYmluZGluZycsICctaW1hZScsICc8aW5maWxlLm1hZT4nLCAnLW9tYWUnLCAnPG91dGZpbGUubWFlPic=

> <r_epik_Ionization_Penalty>
1.51642

> <r_epik_Ionization_Penalty_Charging>
1.51557

> <r_epik_Ionization_Penalty_Neutral>
0.000856474

> <r_epik_State_Penalty>
1.6048

> <r_epik_Charging_Adjusted_Penalty>
3.12037

> <i_epik_Tot_Q>
2

> <i_epik_Tot_abs_Q>
2

> <r_epik_Metal_State_Penalty>
5.65673

> <b_epik_Metal_Only>
0

> <s_lp_Force_Field>
OPLS_2005

> <r_lp_Energy>
31.8272

> <b_lp_Chiralities_Consistent>
1

> <s_lp_Variant>
AV-unprocessed.smi:1672-8

> <Gold.Version>
5.8.1

> <Gold.Id.Protein>
6NUR|6NUR_protein|mol2

> <Gold.PLP.Fitness>
53.3520

> <Gold.PLP.PLP>
-37.9987

> <Gold.PLP.part.hbond>
-3.8736

> <Gold.PLP.part.metal>
0.0000

> <Gold.PLP.part.buried>
-3.2112

> <Gold.PLP.part.nonpolar>
-29.7239

> <Gold.PLP.part.repulsive>
0.1113

> <Gold.PLP.ligand.clash>
0.0000

> <Gold.PLP.ligand.torsion>
0.7067

> <Gold.PLP.Chemscore.Hbond>
5.5760

> <Gold.PLP.Chemscore.CHOScore>
0.0000

> <Gold.PLP.Chemscore.Metal>
0.0000

> <Gold.Chemscore.Hbonds>
donor molecule, donor type, donor heavy atom, donor atom, acceptor molecule, acceptor atom, score
      L1  H     5    48       P1  7948  2.00
      L1  H    13    39       P1  7957  0.43
      L1  H    14    49       P1  8028  1.53
      P1  H  7989  7998       L1    13  0.18
      P1  H  8011  8017       L1    13  0.81

> <Gold.PLP.Chemscore.Internal.Correction>
0.0387

> <Gold.Rescore>
     Score         DG    S(hbond)    S(metal)    S(lipo)     H(rot)  DE(clash)    DE(int)     intcor
     16.62     -17.27       2.53        0.00      93.38       2.96       0.00       0.65       ----

> <Gold.Chemscore.Fitness>
16.6224

> <Gold.Chemscore.DG>
-17.2728

> <Gold.Chemscore.ZeroCoef>
-5.4800

> <Gold.Chemscore.Hbond>
2.5251

> <Gold.Chemscore.Metal>
0.0000

> <Gold.Chemscore.Lipo>
93.3757

> <Gold.Chemscore.Internal_Hbond>
0.0000

> <Gold.Chemscore.DEClash>
0.0015

> <Gold.Chemscore.DEInternal>
0.6489

> <Gold.Chemscore.Rot>
2.9555

> <Gold.Chemscore.Internal.Correction>
   9.000000E+99

> <Gold.Chemscore.Hbonds>
donor molecule, donor type, donor heavy atom, donor atom, acceptor molecule, acceptor atom, score
      L1  H     5    48       P1  7948  0.79
      L1  H    13    39       P1  7957  0.41
      L1  H    14    49       P1  8028  0.75
      P1  H  7989  7998       L1    13  0.17
      P1  H  8011  8017       L1    13  0.03

> <Gold.Chemscore.Hbond.Weighted>
-8.4339

> <Gold.Chemscore.Metal.Weighted>
-0.0000

> <Gold.Chemscore.Lipo.Weighted>
-10.9250

> <Gold.Chemscore.Internal_Hbond.Weighted>
0.0000

> <Gold.Chemscore.DEClash.Weighted>
0.0015

> <Gold.Chemscore.DEInternal.Weighted>
0.6489

> <Gold.Chemscore.Rot.Weighted>
7.5660

> <Gold.Chemscore.Internal.Correction.Weighted>
   9.000000E+99

> <Gold.Protein.RotatedTorsions>
[ 6907 6896 6895 6894 ] final   63.34 input  -60.11 | X-H torsion
[ 7974 7965 7964 7962 ] final -139.92 input  175.53 | X-H torsion
[ 8008 7997 7996 7995 ] final    3.68 input   59.86 | X-H torsion
[ 10167 10162 10161 10158 ] final -120.01 input  -65.29 | X-H torsion
[ 10718 10713 10712 10709 ] final  143.05 input   66.30 | X-H torsion
[ 10763 10752 10751 10750 ] final  -94.09 input  -60.55 | X-H torsion
[ 11005 11000 10999 10996 ] final  -90.97 input  -57.11 | X-H torsion

> <Gold.Protein.ActiveResidues>
 VAL166  LYS551  ARG553  GLY616  TRP617  ASP618  TYR619  PRO620  LYS621  CYS622 
 ASP623  PHE694  ASN695  SER759  ASP760  ASP761  ALA762  ILE779  LEU786  VAL792 
 PHE793  MET794  SER795  GLU796  ALA797  LYS798  CYS799  TRP800  GLU811  SER814 

> <Gold.Protein.RotatedAtoms>
  152.4245  134.5894  159.9969 H   0  0  0  0  0  0  0  0  0  0  0  0  # atno 6907 bound_to 6896
  151.6034  133.3348  159.3060 H   0  0  0  0  0  0  0  0  0  0  0  0  # atno 6908 bound_to 6896
  150.8134  134.7339  159.6773 H   0  0  0  0  0  0  0  0  0  0  0  0  # atno 6909 bound_to 6896
  144.8638  140.6262  143.5311 H   0  0  0  0  0  0  0  0  0  0  0  0  # atno 7974 bound_to 7965
  154.7067  140.2684  155.6668 H   0  0  0  0  0  0  0  0  0  0  0  0  # atno 8008 bound_to 7997
  156.2782  140.2761  156.1619 H   0  0  0  0  0  0  0  0  0  0  0  0  # atno 8009 bound_to 7997
  155.0691  140.0372  157.2592 H   0  0  0  0  0  0  0  0  0  0  0  0  # atno 8010 bound_to 7997
  140.0405  143.5158  152.2132 H   0  0  0  0  0  0  0  0  0  0  0  0  # atno 10167 bound_to 10162
  157.3734  131.0982  151.0806 H   0  0  0  0  0  0  0  0  0  0  0  0  # atno 10718 bound_to 10713
  154.7022  135.5170  153.8543 H   0  0  0  0  0  0  0  0  0  0  0  0  # atno 10763 bound_to 10752
  153.0713  135.6602  154.0251 H   0  0  0  0  0  0  0  0  0  0  0  0  # atno 10764 bound_to 10752
  154.0108  135.3002  155.3372 H   0  0  0  0  0  0  0  0  0  0  0  0  # atno 10765 bound_to 10752
  141.1555  133.7725  156.9813 H   0  0  0  0  0  0  0  0  0  0  0  0  # atno 11005 bound_to 11000
  145.4260  139.1556  143.4048 LP  0  0  0  0  0  0  0  0  0  0  0  0  # atno 17320 bound_to 7965
  146.2881  140.4373  142.8750 LP  0  0  0  0  0  0  0  0  0  0  0  0  # atno 17321 bound_to 7965
  139.6017  144.7584  151.3156 LP  0  0  0  0  0  0  0  0  0  0  0  0  # atno 17342 bound_to 10162
  140.7262  143.6996  150.7855 LP  0  0  0  0  0  0  0  0  0  0  0  0  # atno 17343 bound_to 10162
  157.1902  130.6348  149.5702 LP  0  0  0  0  0  0  0  0  0  0  0  0  # atno 17370 bound_to 10713
  155.9760  130.4724  150.6500 LP  0  0  0  0  0  0  0  0  0  0  0  0  # atno 17371 bound_to 10713
  140.1064  134.9504  157.2000 LP  0  0  0  0  0  0  0  0  0  0  0  0  # atno 17394 bound_to 11000
  140.3251  134.2873  155.7238 LP  0  0  0  0  0  0  0  0  0  0  0  0  # atno 17395 bound_to 11000

$$$$
