AV-unprocessed.smi:992|AV-procd|sdf|4330|dock3
  -GOLD-   22720 2233D 1   1.00000     0.00000
 Structure written by MMmdl.
 32 33  0  0  0  0  0  0  0  0  1 V2000
  151.2203  145.3003  159.3149 C   0  0  0  0  0  0  0  0  0  0  0  0
  151.8849  144.0556  158.7174 C   0  0  2  0  0  0  0  0  0  0  0  0
  150.9198  143.2581  157.8196 C   0  0  0  0  0  0  0  0  0  0  0  0
  151.5647  142.0379  157.3517 N   0  0  0  0  0  0  0  0  0  0  0  0
  150.7906  141.3173  156.4313 C   0  0  0  0  0  0  0  0  0  0  0  0
  151.3277  140.1475  155.8531 C   0  0  0  0  0  0  0  0  0  0  0  0
  150.5462  139.4286  154.9281 C   0  0  0  0  0  0  0  0  0  0  0  0
  149.2580  139.9044  154.6143 C   0  0  0  0  0  0  0  0  0  0  0  0
  148.4479  139.2269  153.7044 N   0  0  0  0  0  0  0  0  0  0  0  0
  148.8088  141.0831  155.2436 C   0  0  0  0  0  0  0  0  0  0  0  0
  149.5518  141.7775  156.1315 N   0  0  0  0  0  0  0  0  0  0  0  0
  152.0734  141.2247  158.4489 C   0  0  0  0  0  0  0  0  0  0  0  0
  153.0174  142.0616  159.3329 C   0  0  2  0  0  0  0  0  0  0  0  0
  153.5064  141.2791  160.5564 C   0  0  0  0  0  0  0  0  0  0  0  0
  152.3225  143.2211  159.7883 O   0  0  0  0  0  0  0  0  0  0  0  0
  150.8775  145.9757  158.5306 H   0  0  0  0  0  0  0  0  0  0  0  0
  151.9186  145.8510  159.9455 H   0  0  0  0  0  0  0  0  0  0  0  0
  150.3583  145.0326  159.9266 H   0  0  0  0  0  0  0  0  0  0  0  0
  152.7521  144.3713  158.1344 H   0  0  0  0  0  0  0  0  0  0  0  0
  150.0156  143.0055  158.3759 H   0  0  0  0  0  0  0  0  0  0  0  0
  150.6143  143.8633  156.9651 H   0  0  0  0  0  0  0  0  0  0  0  0
  152.3193  139.8060  156.1123 H   0  0  0  0  0  0  0  0  0  0  0  0
  150.9321  138.5294  154.4702 H   0  0  0  0  0  0  0  0  0  0  0  0
  148.7596  138.3816  153.2477 H   0  0  0  0  0  0  0  0  0  0  0  0
  147.5246  139.5609  153.4674 H   0  0  0  0  0  0  0  0  0  0  0  0
  147.8276  141.4823  155.0309 H   0  0  0  0  0  0  0  0  0  0  0  0
  151.2405  140.8485  159.0453 H   0  0  0  0  0  0  0  0  0  0  0  0
  152.6017  140.3582  158.0494 H   0  0  0  0  0  0  0  0  0  0  0  0
  153.8864  142.3726  158.7503 H   0  0  0  0  0  0  0  0  0  0  0  0
  154.0548  140.3860  160.2564 H   0  0  0  0  0  0  0  0  0  0  0  0
  152.6715  140.9645  161.1836 H   0  0  0  0  0  0  0  0  0  0  0  0
  154.1723  141.8879  161.1684 H   0  0  0  0  0  0  0  0  0  0  0  0
  1  2  1  0  0  0  0
  1 16  1  0  0  0  0
  1 17  1  0  0  0  0
  1 18  1  0  0  0  0
  2 15  1  0  0  0  0
  2  3  1  0  0  0  0
  2 19  1  0  0  0  0
  3  4  1  0  0  0  0
  3 20  1  0  0  0  0
  3 21  1  0  0  0  0
  4  5  1  0  0  0  0
  4 12  1  0  0  0  0
  5 11  1  0  0  0  0
  5  6  2  0  0  0  0
  6  7  1  0  0  0  0
  6 22  1  0  0  0  0
  7  8  2  0  0  0  0
  7 23  1  0  0  0  0
  8  9  1  0  0  0  0
  8 10  1  0  0  0  0
  9 24  1  0  0  0  0
  9 25  1  0  0  0  0
 10 11  2  0  0  0  0
 10 26  1  0  0  0  0
 12 13  1  0  0  0  0
 12 27  1  0  0  0  0
 12 28  1  0  0  0  0
 13 14  1  0  0  0  0
 13 15  1  0  0  0  0
 13 29  1  0  0  0  0
 14 30  1  0  0  0  0
 14 31  1  0  0  0  0
 14 32  1  0  0  0  0
M  END
> <s_m_source_file>
AV-unprocessed.smi

> <i_m_source_file_index>
992

> <i_lp_mmshare_version>
43012

> <i_f3d_flags>
0

> <s_epik_input>
W0NIM11bQ0BASF0xW0NIMl1OKFtDSDJdW0NASF0oTzEpW0NIM10pYzJbY0hdW2NIXWMoW05IMl0pW2NIXW4y

> <s_epik_cmdline>
J2VwaWtfcHl0aG9uJywgJy1waCcsICc3LjAnLCAnLXRuJywgJzgnLCAnLW1hJywgJzIwMCcsICctbWV0YWxfYmluZGluZycsICctaW1hZScsICc8aW5maWxlLm1hZT4nLCAnLW9tYWUnLCAnPG91dGZpbGUubWFlPic=

> <r_lp_tautomer_probability>
1

> <r_epik_Ionization_Penalty>
0.0126232

> <r_epik_Ionization_Penalty_Charging>
0

> <r_epik_Ionization_Penalty_Neutral>
0.0126232

> <r_epik_State_Penalty>
0.00976577

> <r_epik_Charging_Adjusted_Penalty>
0.00976577

> <i_epik_Tot_Q>
0

> <i_epik_Tot_abs_Q>
0

> <r_epik_Metal_State_Penalty>
9.84661e-06

> <b_epik_Metal_Only>
0

> <s_lp_Force_Field>
OPLS_2005

> <r_lp_Energy>
20.2951

> <b_lp_Chiralities_Consistent>
1

> <s_lp_Variant>
AV-unprocessed.smi:992-2

> <Gold.Version>
5.8.1

> <Gold.Id.Protein>
6NUR|6NUR_protein|mol2

> <Gold.PLP.Fitness>
38.0136

> <Gold.PLP.PLP>
-35.0275

> <Gold.PLP.part.hbond>
-2.0000

> <Gold.PLP.part.metal>
0.0000

> <Gold.PLP.part.buried>
-2.2237

> <Gold.PLP.part.nonpolar>
-31.5737

> <Gold.PLP.part.repulsive>
0.2066

> <Gold.PLP.ligand.clash>
0.0000

> <Gold.PLP.ligand.torsion>
0.0554

> <Gold.PLP.Chemscore.Hbond>
1.0000

> <Gold.PLP.Chemscore.CHOScore>
0.0000

> <Gold.PLP.Chemscore.Metal>
0.0000

> <Gold.PLP.Chemscore.Internal.Correction>
0.0969

> <Gold.Rescore>
     Score         DG    S(hbond)    S(metal)    S(lipo)     H(rot)  DE(clash)    DE(int)     intcor
     16.09     -16.19       0.99        0.00      85.22       1.00       0.04       0.07       ----

> <Gold.Chemscore.Fitness>
16.0890

> <Gold.Chemscore.DG>
-16.1945

> <Gold.Chemscore.ZeroCoef>
-5.4800

> <Gold.Chemscore.Hbond>
0.9893

> <Gold.Chemscore.Metal>
0.0000

> <Gold.Chemscore.Lipo>
85.2170

> <Gold.Chemscore.Internal_Hbond>
0.0000

> <Gold.Chemscore.DEClash>
0.0402

> <Gold.Chemscore.DEInternal>
0.0653

> <Gold.Chemscore.Rot>
1.0000

> <Gold.Chemscore.Internal.Correction>
   9.000000E+99

> <Gold.Chemscore.Hbond.Weighted>
-3.3041

> <Gold.Chemscore.Metal.Weighted>
-0.0000

> <Gold.Chemscore.Lipo.Weighted>
-9.9704

> <Gold.Chemscore.Internal_Hbond.Weighted>
0.0000

> <Gold.Chemscore.DEClash.Weighted>
0.0402

> <Gold.Chemscore.DEInternal.Weighted>
0.0653

> <Gold.Chemscore.Rot.Weighted>
2.5600

> <Gold.Chemscore.Internal.Correction.Weighted>
   9.000000E+99

> <Gold.Protein.RotatedTorsions>
[ 6907 6896 6895 6894 ] final   -0.39 input  -60.11 | X-H torsion
[ 7974 7965 7964 7962 ] final   11.77 input  175.53 | X-H torsion
[ 8008 7997 7996 7995 ] final   62.82 input   59.86 | X-H torsion
[ 10167 10162 10161 10158 ] final   75.22 input  -65.29 | X-H torsion
[ 10718 10713 10712 10709 ] final  122.13 input   66.30 | X-H torsion
[ 10763 10752 10751 10750 ] final -113.36 input  -60.55 | X-H torsion
[ 11005 11000 10999 10996 ] final  140.79 input  -57.11 | X-H torsion

> <Gold.Protein.ActiveResidues>
 VAL166  LYS551  ARG553  GLY616  TRP617  ASP618  TYR619  PRO620  LYS621  CYS622 
 ASP623  PHE694  ASN695  SER759  ASP760  ASP761  ALA762  ILE779  LEU786  VAL792 
 PHE793  MET794  SER795  GLU796  ALA797  LYS798  CYS799  TRP800  GLU811  SER814 

> <Gold.Protein.RotatedAtoms>
  151.5631  135.1065  159.9977 H   0  0  0  0  0  0  0  0  0  0  0  0  # atno 6907 bound_to 6896
  152.4437  133.7492  159.6695 H   0  0  0  0  0  0  0  0  0  0  0  0  # atno 6908 bound_to 6896
  150.8348  133.7963  159.3108 H   0  0  0  0  0  0  0  0  0  0  0  0  # atno 6909 bound_to 6896
  146.2365  139.9436  142.8480 H   0  0  0  0  0  0  0  0  0  0  0  0  # atno 7974 bound_to 7965
  155.6205  140.3495  155.4650 H   0  0  0  0  0  0  0  0  0  0  0  0  # atno 8008 bound_to 7997
  156.0083  140.1228  157.0503 H   0  0  0  0  0  0  0  0  0  0  0  0  # atno 8009 bound_to 7997
  154.4272  140.1086  156.5780 H   0  0  0  0  0  0  0  0  0  0  0  0  # atno 8010 bound_to 7997
  140.0053  144.5655  150.7703 H   0  0  0  0  0  0  0  0  0  0  0  0  # atno 10167 bound_to 10162
  157.5766  131.1079  150.8268 H   0  0  0  0  0  0  0  0  0  0  0  0  # atno 10718 bound_to 10713
  154.8392  135.4457  154.1337 H   0  0  0  0  0  0  0  0  0  0  0  0  # atno 10763 bound_to 10752
  153.2540  135.6929  153.7654 H   0  0  0  0  0  0  0  0  0  0  0  0  # atno 10764 bound_to 10752
  153.6956  135.3380  155.3188 H   0  0  0  0  0  0  0  0  0  0  0  0  # atno 10765 bound_to 10752
  140.0353  134.9332  157.0740 H   0  0  0  0  0  0  0  0  0  0  0  0  # atno 11005 bound_to 11000
  145.1928  140.9819  143.4201 LP  0  0  0  0  0  0  0  0  0  0  0  0  # atno 17320 bound_to 7965
  144.9842  139.3753  143.6247 LP  0  0  0  0  0  0  0  0  0  0  0  0  # atno 17321 bound_to 7965
  140.7403  143.2802  151.3620 LP  0  0  0  0  0  0  0  0  0  0  0  0  # atno 17342 bound_to 10162
  139.6243  144.0845  152.2420 LP  0  0  0  0  0  0  0  0  0  0  0  0  # atno 17343 bound_to 10162
  156.8725  130.5151  149.5296 LP  0  0  0  0  0  0  0  0  0  0  0  0  # atno 17370 bound_to 10713
  156.0810  130.5821  150.9563 LP  0  0  0  0  0  0  0  0  0  0  0  0  # atno 17371 bound_to 10713
  140.4158  134.1933  155.7163 LP  0  0  0  0  0  0  0  0  0  0  0  0  # atno 17394 bound_to 11000
  141.1854  133.8324  157.1107 LP  0  0  0  0  0  0  0  0  0  0  0  0  # atno 17395 bound_to 11000

$$$$
