AV-unprocessed.smi:2906|AV-procd|sdf|11162|dock5
  -GOLD-   2272016 53D 1   1.00000     0.00000
 Structure written by MMmdl.
 40 41  0  0  0  0  0  0  0  0  1 V2000
  151.0534  140.4959  158.0071 C   0  0  0  0  0  0  0  0  0  0  0  0
  151.0038  140.7185  156.4869 C   0  0  0  0  0  0  0  0  0  0  0  0
  151.6165  139.5672  155.6713 C   0  0  0  0  0  0  0  0  0  0  0  0
  152.6118  139.7720  154.9745 O   0  0  0  0  0  0  0  0  0  0  0  0
  151.0362  138.3511  155.7489 N   0  0  0  0  0  0  0  0  0  0  0  0
  149.8458  138.0807  156.5480 C   0  0  0  0  0  0  0  0  0  0  0  0
  149.7076  136.5610  156.6211 C   0  0  0  0  0  0  0  0  0  0  0  0
  150.5672  136.0013  155.4875 C   0  0  1  0  0  0  0  0  0  0  0  0
  149.7462  135.4808  154.3973 N   0  0  0  0  0  0  0  0  0  0  0  0
  149.1036  134.3040  154.4120 C   0  0  0  0  0  0  0  0  0  0  0  0
  149.1465  133.5202  155.3610 O   0  0  0  0  0  0  0  0  0  0  0  0
  148.4221  134.1073  153.2698 N   0  0  0  0  0  0  0  0  0  0  0  0
  147.6359  132.9847  152.9010 C   0  0  0  0  0  0  0  0  0  0  0  0
  147.6425  131.8149  153.5495 N   0  0  0  0  0  0  0  0  0  0  0  0
  146.7739  130.8841  152.9713 C   0  0  0  0  0  0  0  0  0  0  0  0
  146.6443  129.5152  153.5671 C   0  0  0  0  0  0  0  0  0  0  0  0
  145.9018  128.5457  152.6407 C   0  0  0  0  0  0  0  0  0  0  0  0
  146.1115  131.3714  151.8708 C   0  0  0  0  0  0  0  0  0  0  0  0
  146.5531  133.0206  151.5183 S   0  0  0  0  0  0  0  0  0  0  0  0
  151.4721  137.1571  155.0286 C   0  0  0  0  0  0  0  0  0  0  0  0
  150.6092  141.3406  158.5339 H   0  0  0  0  0  0  0  0  0  0  0  0
  152.0791  140.3906  158.3621 H   0  0  0  0  0  0  0  0  0  0  0  0
  150.5010  139.6012  158.2970 H   0  0  0  0  0  0  0  0  0  0  0  0
  149.9656  140.8548  156.1831 H   0  0  0  0  0  0  0  0  0  0  0  0
  151.5310  141.6420  156.2454 H   0  0  0  0  0  0  0  0  0  0  0  0
  149.9130  138.5168  157.5459 H   0  0  0  0  0  0  0  0  0  0  0  0
  148.9807  138.5180  156.0476 H   0  0  0  0  0  0  0  0  0  0  0  0
  150.1055  136.2131  157.5753 H   0  0  0  0  0  0  0  0  0  0  0  0
  148.6662  136.2396  156.5742 H   0  0  0  0  0  0  0  0  0  0  0  0
  151.1767  135.1837  155.8774 H   0  0  0  0  0  0  0  0  0  0  0  0
  149.6597  136.0616  153.5763 H   0  0  0  0  0  0  0  0  0  0  0  0
  148.4716  134.8459  152.5837 H   0  0  0  0  0  0  0  0  0  0  0  0
  147.6314  129.1101  153.7920 H   0  0  0  0  0  0  0  0  0  0  0  0
  146.1206  129.5724  154.5219 H   0  0  0  0  0  0  0  0  0  0  0  0
  145.8245  127.5577  153.0942 H   0  0  0  0  0  0  0  0  0  0  0  0
  146.4215  128.4360  151.6884 H   0  0  0  0  0  0  0  0  0  0  0  0
  144.8903  128.8962  152.4329 H   0  0  0  0  0  0  0  0  0  0  0  0
  145.3916  130.8610  151.2486 H   0  0  0  0  0  0  0  0  0  0  0  0
  151.4152  137.3219  153.9513 H   0  0  0  0  0  0  0  0  0  0  0  0
  152.5110  136.9327  155.2740 H   0  0  0  0  0  0  0  0  0  0  0  0
  1  2  1  0  0  0  0
  1 21  1  0  0  0  0
  1 22  1  0  0  0  0
  1 23  1  0  0  0  0
  2  3  1  0  0  0  0
  2 24  1  0  0  0  0
  2 25  1  0  0  0  0
  3  4  2  0  0  0  0
  3  5  1  0  0  0  0
  5 20  1  0  0  0  0
  5  6  1  0  0  0  0
  6  7  1  0  0  0  0
  6 26  1  0  0  0  0
  6 27  1  0  0  0  0
  7  8  1  0  0  0  0
  7 28  1  0  0  0  0
  7 29  1  0  0  0  0
  8  9  1  0  0  0  0
  8 20  1  0  0  0  0
  8 30  1  0  0  0  0
  9 10  1  0  0  0  0
  9 31  1  0  0  0  0
 10 11  2  0  0  0  0
 10 12  1  0  0  0  0
 12 13  1  0  0  0  0
 12 32  1  0  0  0  0
 13 19  1  0  0  0  0
 13 14  2  0  0  0  0
 14 15  1  0  0  0  0
 15 16  1  0  0  0  0
 15 18  2  0  0  0  0
 16 17  1  0  0  0  0
 16 33  1  0  0  0  0
 16 34  1  0  0  0  0
 17 35  1  0  0  0  0
 17 36  1  0  0  0  0
 17 37  1  0  0  0  0
 18 19  1  0  0  0  0
 18 38  1  0  0  0  0
 20 39  1  0  0  0  0
 20 40  1  0  0  0  0
M  END
> <s_m_source_file>
AV-unprocessed.smi

> <i_m_source_file_index>
2906

> <i_lp_mmshare_version>
43012

> <i_f3d_flags>
0

> <s_epik_input>
W0NIM11bQ0gyXUMoPU8pTjFbQ0gyXVtDSDJdW0NASF0oW0NIMl0xKVtOSF1DKD1PKVtOSF1jMm5jKFtjSF1zMilbQ0gyXVtDSDNd

> <s_epik_cmdline>
J2VwaWtfcHl0aG9uJywgJy1waCcsICc3LjAnLCAnLXRuJywgJzgnLCAnLW1hJywgJzIwMCcsICctbWV0YWxfYmluZGluZycsICctaW1hZScsICc8aW5maWxlLm1hZT4nLCAnLW9tYWUnLCAnPG91dGZpbGUubWFlPic=

> <r_lp_tautomer_probability>
1

> <r_epik_Ionization_Penalty>
0.000174744

> <r_epik_Ionization_Penalty_Charging>
0

> <r_epik_Ionization_Penalty_Neutral>
0.000174744

> <r_epik_State_Penalty>
-0

> <r_epik_Charging_Adjusted_Penalty>
0

> <i_epik_Tot_Q>
0

> <i_epik_Tot_abs_Q>
0

> <r_epik_Metal_State_Penalty>
0.0273865

> <b_epik_Metal_Only>
0

> <s_lp_Force_Field>
OPLS_2005

> <r_lp_Energy>
22.1367

> <b_lp_Chiralities_Consistent>
1

> <s_lp_Variant>
AV-unprocessed.smi:2906-1

> <Gold.Version>
5.8.1

> <Gold.Id.Protein>
6NUR|6NUR_protein|mol2

> <Gold.PLP.Fitness>
39.0804

> <Gold.PLP.PLP>
-30.1399

> <Gold.PLP.part.hbond>
-3.8632

> <Gold.PLP.part.metal>
0.0000

> <Gold.PLP.part.buried>
-1.8990

> <Gold.PLP.part.nonpolar>
-24.4280

> <Gold.PLP.part.repulsive>
0.1736

> <Gold.PLP.ligand.clash>
0.0000

> <Gold.PLP.ligand.torsion>
0.4105

> <Gold.PLP.Chemscore.Hbond>
3.2518

> <Gold.PLP.Chemscore.CHOScore>
0.0000

> <Gold.PLP.Chemscore.Metal>
0.0000

> <Gold.Chemscore.Hbonds>
donor molecule, donor type, donor heavy atom, donor atom, acceptor molecule, acceptor atom, score
      L1  H     9    31       P1  7948  0.93
      L1  H    12    32       P1  7948  1.00
      P1  H  7989  7998       L1     4  0.49
      P1  H  7997  8009       L1     4  0.80

> <Gold.PLP.Chemscore.Internal.Correction>
0.0060

> <Gold.Rescore>
     Score         DG    S(hbond)    S(metal)    S(lipo)     H(rot)  DE(clash)    DE(int)     intcor
     15.56     -17.17       2.64        0.00      55.33       1.41       0.02       1.59       ----

> <Gold.Chemscore.Fitness>
15.5571

> <Gold.Chemscore.DG>
-17.1695

> <Gold.Chemscore.ZeroCoef>
-5.4800

> <Gold.Chemscore.Hbond>
2.6427

> <Gold.Chemscore.Metal>
0.0000

> <Gold.Chemscore.Lipo>
55.3255

> <Gold.Chemscore.Internal_Hbond>
0.0000

> <Gold.Chemscore.DEClash>
0.0202

> <Gold.Chemscore.DEInternal>
1.5922

> <Gold.Chemscore.Rot>
1.4102

> <Gold.Chemscore.Internal.Correction>
   9.000000E+99

> <Gold.Chemscore.Hbonds>
donor molecule, donor type, donor heavy atom, donor atom, acceptor molecule, acceptor atom, score
      L1  H     9    31       P1  7948  0.27
      L1  H    12    32       P1  7948  0.29
      P1  H  7989  7998       L1     4  0.09
      P1  H  7997  8009       L1     4  0.69

> <Gold.Chemscore.Hbond.Weighted>
-8.8265

> <Gold.Chemscore.Metal.Weighted>
-0.0000

> <Gold.Chemscore.Lipo.Weighted>
-6.4731

> <Gold.Chemscore.Internal_Hbond.Weighted>
0.0000

> <Gold.Chemscore.DEClash.Weighted>
0.0202

> <Gold.Chemscore.DEInternal.Weighted>
1.5922

> <Gold.Chemscore.Rot.Weighted>
3.6101

> <Gold.Chemscore.Internal.Correction.Weighted>
   9.000000E+99

> <Gold.Protein.RotatedTorsions>
[ 6907 6896 6895 6894 ] final -146.06 input  -60.11 | X-H torsion
[ 7974 7965 7964 7962 ] final  -95.22 input  175.53 | X-H torsion
[ 8008 7997 7996 7995 ] final -147.68 input   59.86 | X-H torsion
[ 10167 10162 10161 10158 ] final  -59.94 input  -65.29 | X-H torsion
[ 10718 10713 10712 10709 ] final  -33.71 input   66.30 | X-H torsion
[ 10763 10752 10751 10750 ] final   -2.77 input  -60.55 | X-H torsion
[ 11005 11000 10999 10996 ] final  116.49 input  -57.11 | X-H torsion

> <Gold.Protein.ActiveResidues>
 VAL166  LYS551  ARG553  GLY616  TRP617  ASP618  TYR619  PRO620  LYS621  CYS622 
 ASP623  PHE694  ASN695  SER759  ASP760  ASP761  ALA762  ILE779  LEU786  VAL792 
 PHE793  MET794  SER795  GLU796  ALA797  LYS798  CYS799  TRP800  GLU811  SER814 

> <Gold.Protein.RotatedAtoms>
  151.1363  133.5002  159.2597 H   0  0  0  0  0  0  0  0  0  0  0  0  # atno 6907 bound_to 6896
  151.1702  135.0314  159.8758 H   0  0  0  0  0  0  0  0  0  0  0  0  # atno 6908 bound_to 6896
  152.5461  134.1227  159.8459 H   0  0  0  0  0  0  0  0  0  0  0  0  # atno 6909 bound_to 6896
  145.3630  140.9494  143.2490 H   0  0  0  0  0  0  0  0  0  0  0  0  # atno 7974 bound_to 7965
  155.5794  140.0642  157.2787 H   0  0  0  0  0  0  0  0  0  0  0  0  # atno 8008 bound_to 7997
  154.4337  140.1855  156.1007 H   0  0  0  0  0  0  0  0  0  0  0  0  # atno 8009 bound_to 7997
  156.0317  140.3305  155.7150 H   0  0  0  0  0  0  0  0  0  0  0  0  # atno 8010 bound_to 7997
  140.6103  143.2385  151.5725 H   0  0  0  0  0  0  0  0  0  0  0  0  # atno 10167 bound_to 10162
  156.3594  130.4321  149.7637 H   0  0  0  0  0  0  0  0  0  0  0  0  # atno 10718 bound_to 10713
  153.3625  135.6991  153.6701 H   0  0  0  0  0  0  0  0  0  0  0  0  # atno 10763 bound_to 10752
  153.5384  135.3578  155.2708 H   0  0  0  0  0  0  0  0  0  0  0  0  # atno 10764 bound_to 10752
  154.8670  135.4197  154.2885 H   0  0  0  0  0  0  0  0  0  0  0  0  # atno 10765 bound_to 10752
  139.9043  134.9598  156.7206 H   0  0  0  0  0  0  0  0  0  0  0  0  # atno 11005 bound_to 11000
  144.8632  139.5146  143.6802 LP  0  0  0  0  0  0  0  0  0  0  0  0  # atno 17320 bound_to 7965
  146.2919  139.7164  142.9155 LP  0  0  0  0  0  0  0  0  0  0  0  0  # atno 17321 bound_to 7965
  139.5356  144.2791  152.1244 LP  0  0  0  0  0  0  0  0  0  0  0  0  # atno 17342 bound_to 10162
  140.1989  144.4678  150.6441 LP  0  0  0  0  0  0  0  0  0  0  0  0  # atno 17343 bound_to 10162
  156.4807  130.8039  151.3054 LP  0  0  0  0  0  0  0  0  0  0  0  0  # atno 17370 bound_to 10713
  157.7471  131.0007  150.2934 LP  0  0  0  0  0  0  0  0  0  0  0  0  # atno 17371 bound_to 10713
  140.7004  133.9312  155.8020 LP  0  0  0  0  0  0  0  0  0  0  0  0  # atno 17394 bound_to 11000
  141.0376  134.0667  157.3941 LP  0  0  0  0  0  0  0  0  0  0  0  0  # atno 17395 bound_to 11000

$$$$
