AV-unprocessed.smi:2440|AV-procd|sdf|9617|dock3
  -GOLD-   2272013253D 1   1.00000     0.00000
 Structure written by MMmdl.
 53 55  0  0  0  0  0  0  0  0  3 V2000
  145.5322  136.1892  151.6717 C   0  0  0  0  0  0  0  0  0  0  0  0
  145.1169  135.9213  153.1078 C   0  0  0  0  0  0  0  0  0  0  0  0
  143.8656  135.3219  153.3702 C   0  0  0  0  0  0  0  0  0  0  0  0
  143.4845  135.0757  154.6414 N   0  3  0  0  0  0  0  0  0  0  0  0
  144.2571  135.3752  155.7059 C   0  0  0  0  0  0  0  0  0  0  0  0
  145.5165  135.9764  155.5127 C   0  0  0  0  0  0  0  0  0  0  0  0
  145.9561  136.2705  154.1967 C   0  0  0  0  0  0  0  0  0  0  0  0
  147.2242  136.8563  153.9253 N   0  0  0  0  0  0  0  0  0  0  0  0
  147.8775  137.7866  154.6421 C   0  0  0  0  0  0  0  0  0  0  0  0
  147.4525  138.3190  155.6674 O   0  0  0  0  0  0  0  0  0  0  0  0
  149.0597  138.0896  154.0871 N   0  0  0  0  0  0  0  0  0  0  0  0
  150.0095  139.0636  154.6173 C   0  0  2  0  0  0  0  0  0  0  0  0
  150.5650  138.6085  155.9758 C   0  0  0  0  0  0  0  0  0  0  0  0
  151.4985  139.6743  156.5713 C   0  0  0  0  0  0  0  0  0  0  0  0
  150.8127  140.9895  156.7286 N   0  3  1  0  0  0  0  0  0  0  0  0
  151.6589  141.9764  157.4772 C   0  0  0  0  0  0  0  0  0  0  0  0
  151.4691  141.7943  159.0038 C   0  0  0  0  0  0  0  0  0  0  0  0
  152.3446  142.7588  159.8200 C   0  0  0  0  0  0  0  0  0  0  0  0
  152.0739  144.2186  159.4352 C   0  0  0  0  0  0  0  0  0  0  0  0
  152.2683  144.4264  157.9281 C   0  0  0  0  0  0  0  0  0  0  0  0
  151.3932  143.4616  157.1117 C   0  0  0  0  0  0  0  0  0  0  0  0
  150.2708  141.4593  155.4198 C   0  0  0  0  0  0  0  0  0  0  0  0
  149.3229  140.4244  154.7890 C   0  0  0  0  0  0  0  0  0  0  0  0
  144.7802  135.8305  150.9683 H   0  0  0  0  0  0  0  0  0  0  0  0
  146.4718  135.6854  151.4442 H   0  0  0  0  0  0  0  0  0  0  0  0
  145.6645  137.2590  151.5080 H   0  0  0  0  0  0  0  0  0  0  0  0
  143.1601  135.0312  152.6052 H   0  0  0  0  0  0  0  0  0  0  0  0
  143.8507  135.1212  156.6741 H   0  0  0  0  0  0  0  0  0  0  0  0
  146.1289  136.1897  156.3759 H   0  0  0  0  0  0  0  0  0  0  0  0
  147.6486  136.5869  153.0498 H   0  0  0  0  0  0  0  0  0  0  0  0
  149.3272  137.6060  153.2419 H   0  0  0  0  0  0  0  0  0  0  0  0
  150.8354  139.1817  153.9129 H   0  0  0  0  0  0  0  0  0  0  0  0
  149.7462  138.4115  156.6696 H   0  0  0  0  0  0  0  0  0  0  0  0
  151.1085  137.6693  155.8646 H   0  0  0  0  0  0  0  0  0  0  0  0
  151.8666  139.3110  157.5293 H   0  0  0  0  0  0  0  0  0  0  0  0
  152.3738  139.7970  155.9311 H   0  0  0  0  0  0  0  0  0  0  0  0
  152.7021  141.7734  157.2281 H   0  0  0  0  0  0  0  0  0  0  0  0
  150.4211  141.9531  159.2628 H   0  0  0  0  0  0  0  0  0  0  0  0
  151.7054  140.7776  159.3141 H   0  0  0  0  0  0  0  0  0  0  0  0
  152.1597  142.6171  160.8853 H   0  0  0  0  0  0  0  0  0  0  0  0
  153.3972  142.5254  159.6555 H   0  0  0  0  0  0  0  0  0  0  0  0
  151.0558  144.4915  159.7160 H   0  0  0  0  0  0  0  0  0  0  0  0
  152.7373  144.8812  159.9921 H   0  0  0  0  0  0  0  0  0  0  0  0
  152.0306  145.4571  157.6634 H   0  0  0  0  0  0  0  0  0  0  0  0
  153.3174  144.2759  157.6700 H   0  0  0  0  0  0  0  0  0  0  0  0
  151.6015  143.6450  156.0574 H   0  0  0  0  0  0  0  0  0  0  0  0
  150.3427  143.7050  157.2771 H   0  0  0  0  0  0  0  0  0  0  0  0
  149.6947  142.3753  155.5450 H   0  0  0  0  0  0  0  0  0  0  0  0
  151.0947  141.6821  154.7399 H   0  0  0  0  0  0  0  0  0  0  0  0
  148.9726  140.7904  153.8231 H   0  0  0  0  0  0  0  0  0  0  0  0
  148.4375  140.3169  155.4177 H   0  0  0  0  0  0  0  0  0  0  0  0
  150.0033  140.8274  157.3105 H   0  0  0  0  0  0  0  0  0  0  0  0
  142.5761  134.6400  154.8038 H   0  0  0  0  0  0  0  0  0  0  0  0
  1  2  1  0  0  0  0
  1 24  1  0  0  0  0
  1 25  1  0  0  0  0
  1 26  1  0  0  0  0
  2  7  1  0  0  0  0
  2  3  2  0  0  0  0
  3  4  1  0  0  0  0
  3 27  1  0  0  0  0
  4  5  2  0  0  0  0
  4 53  1  0  0  0  0
  5  6  1  0  0  0  0
  5 28  1  0  0  0  0
  6  7  2  0  0  0  0
  6 29  1  0  0  0  0
  7  8  1  0  0  0  0
  8  9  1  0  0  0  0
  8 30  1  0  0  0  0
  9 10  2  0  0  0  0
  9 11  1  0  0  0  0
 11 12  1  0  0  0  0
 11 31  1  0  0  0  0
 12 23  1  0  0  0  0
 12 13  1  0  0  0  0
 12 32  1  0  0  0  0
 13 14  1  0  0  0  0
 13 33  1  0  0  0  0
 13 34  1  0  0  0  0
 14 15  1  0  0  0  0
 14 35  1  0  0  0  0
 14 36  1  0  0  0  0
 15 16  1  0  0  0  0
 15 22  1  0  0  0  0
 15 52  1  0  0  0  0
 16 21  1  0  0  0  0
 16 17  1  0  0  0  0
 16 37  1  0  0  0  0
 17 18  1  0  0  0  0
 17 38  1  0  0  0  0
 17 39  1  0  0  0  0
 18 19  1  0  0  0  0
 18 40  1  0  0  0  0
 18 41  1  0  0  0  0
 19 20  1  0  0  0  0
 19 42  1  0  0  0  0
 19 43  1  0  0  0  0
 20 21  1  0  0  0  0
 20 44  1  0  0  0  0
 20 45  1  0  0  0  0
 21 46  1  0  0  0  0
 21 47  1  0  0  0  0
 22 23  1  0  0  0  0
 22 48  1  0  0  0  0
 22 49  1  0  0  0  0
 23 50  1  0  0  0  0
 23 51  1  0  0  0  0
M  CHG  1   4   1
M  CHG  1  15   1
M  END
> <s_m_source_file>
AV-unprocessed.smi

> <i_m_source_file_index>
2440

> <i_lp_mmshare_version>
43012

> <i_f3d_flags>
0

> <s_epik_input>
W0NIM11jMVtjSF1uW2NIXVtjSF1jMVtOSF1DKD1PKVtOSF1bQ0hdMltDSDJdW0NIMl1OKFtDSDJdW0NIMl0yKVtDSF0zW0NIMl1bQ0gyXVtDSDJdW0NIMl1bQ0gyXTM=

> <s_epik_cmdline>
J2VwaWtfcHl0aG9uJywgJy1waCcsICc3LjAnLCAnLXRuJywgJzgnLCAnLW1hJywgJzIwMCcsICctbWV0YWxfYmluZGluZycsICctaW1hZScsICc8aW5maWxlLm1hZT4nLCAnLW9tYWUnLCAnPG91dGZpbGUubWFlPic=

> <r_epik_Ionization_Penalty>
0.799454

> <r_epik_Ionization_Penalty_Charging>
0.799436

> <r_epik_Ionization_Penalty_Neutral>
1.84398e-05

> <r_epik_State_Penalty>
0.81805

> <r_epik_Charging_Adjusted_Penalty>
1.61749

> <i_epik_Tot_Q>
2

> <i_epik_Tot_abs_Q>
2

> <r_epik_Metal_State_Penalty>
0.955144

> <b_epik_Metal_Only>
0

> <s_lp_Force_Field>
OPLS_2005

> <r_lp_Energy>
40.0513

> <b_lp_Chiralities_Consistent>
1

> <s_lp_Variant>
AV-unprocessed.smi:2440-3

> <Gold.Version>
5.8.1

> <Gold.Id.Protein>
6NUR|6NUR_protein|mol2

> <Gold.PLP.Fitness>
45.9415

> <Gold.PLP.PLP>
-37.2626

> <Gold.PLP.part.hbond>
-2.8488

> <Gold.PLP.part.metal>
0.0000

> <Gold.PLP.part.buried>
-4.1247

> <Gold.PLP.part.nonpolar>
-31.5863

> <Gold.PLP.part.repulsive>
0.1459

> <Gold.PLP.ligand.clash>
0.0000

> <Gold.PLP.ligand.torsion>
1.0576

> <Gold.PLP.Chemscore.Hbond>
3.5840

> <Gold.PLP.Chemscore.CHOScore>
0.0000

> <Gold.PLP.Chemscore.Metal>
0.0000

> <Gold.Chemscore.Hbonds>
donor molecule, donor type, donor heavy atom, donor atom, acceptor molecule, acceptor atom, score
      L1  H     8    30       P1  7948  1.00
      L1  H    11    31       P1  7948  1.00

> <Gold.PLP.Chemscore.Internal.Correction>
0.0421

> <Gold.Rescore>
     Score         DG    S(hbond)    S(metal)    S(lipo)     H(rot)  DE(clash)    DE(int)     intcor
     19.90     -23.39       2.63        0.00     103.82       1.18       0.13       3.36       ----

> <Gold.Chemscore.Fitness>
19.8981

> <Gold.Chemscore.DG>
-23.3882

> <Gold.Chemscore.ZeroCoef>
-5.4800

> <Gold.Chemscore.Hbond>
2.6330

> <Gold.Chemscore.Metal>
0.0000

> <Gold.Chemscore.Lipo>
103.8158

> <Gold.Chemscore.Internal_Hbond>
0.0000

> <Gold.Chemscore.DEClash>
0.1255

> <Gold.Chemscore.DEInternal>
3.3646

> <Gold.Chemscore.Rot>
1.1846

> <Gold.Chemscore.Internal.Correction>
   9.000000E+99

> <Gold.Chemscore.Hbonds>
donor molecule, donor type, donor heavy atom, donor atom, acceptor molecule, acceptor atom, score
      L1  H     8    30       P1  7948  0.99
      L1  H    11    31       P1  7948  0.91

> <Gold.Chemscore.Hbond.Weighted>
-8.7943

> <Gold.Chemscore.Metal.Weighted>
-0.0000

> <Gold.Chemscore.Lipo.Weighted>
-12.1464

> <Gold.Chemscore.Internal_Hbond.Weighted>
0.0000

> <Gold.Chemscore.DEClash.Weighted>
0.1255

> <Gold.Chemscore.DEInternal.Weighted>
3.3646

> <Gold.Chemscore.Rot.Weighted>
3.0326

> <Gold.Chemscore.Internal.Correction.Weighted>
   9.000000E+99

> <Gold.Protein.RotatedTorsions>
[ 6907 6896 6895 6894 ] final   20.83 input  -60.11 | X-H torsion
[ 7974 7965 7964 7962 ] final  -76.23 input  175.53 | X-H torsion
[ 8008 7997 7996 7995 ] final  179.20 input   59.86 | X-H torsion
[ 10167 10162 10161 10158 ] final   27.27 input  -65.29 | X-H torsion
[ 10718 10713 10712 10709 ] final  159.66 input   66.30 | X-H torsion
[ 10763 10752 10751 10750 ] final   12.41 input  -60.55 | X-H torsion
[ 11005 11000 10999 10996 ] final  145.33 input  -57.11 | X-H torsion

> <Gold.Protein.ActiveResidues>
 VAL166  LYS551  ARG553  GLY616  TRP617  ASP618  TYR619  PRO620  LYS621  CYS622 
 ASP623  PHE694  ASN695  SER759  ASP760  ASP761  ALA762  ILE779  LEU786  VAL792 
 PHE793  MET794  SER795  GLU796  ALA797  LYS798  CYS799  TRP800  GLU811  SER814 

> <Gold.Protein.RotatedAtoms>
  151.9024  135.0373  160.0507 H   0  0  0  0  0  0  0  0  0  0  0  0  # atno 6907 bound_to 6896
  152.2347  133.5082  159.5244 H   0  0  0  0  0  0  0  0  0  0  0  0  # atno 6908 bound_to 6896
  150.7036  134.1085  159.4034 H   0  0  0  0  0  0  0  0  0  0  0  0  # atno 6909 bound_to 6896
  145.6156  140.9376  143.1166 H   0  0  0  0  0  0  0  0  0  0  0  0  # atno 7974 bound_to 7965
  156.0461  140.1314  157.0102 H   0  0  0  0  0  0  0  0  0  0  0  0  # atno 8008 bound_to 7997
  154.4413  140.1020  156.6378 H   0  0  0  0  0  0  0  0  0  0  0  0  # atno 8009 bound_to 7997
  155.5594  140.3464  155.4490 H   0  0  0  0  0  0  0  0  0  0  0  0  # atno 8010 bound_to 7997
  140.4953  144.0402  150.6312 H   0  0  0  0  0  0  0  0  0  0  0  0  # atno 10167 bound_to 10162
  157.1611  131.0587  151.2231 H   0  0  0  0  0  0  0  0  0  0  0  0  # atno 10718 bound_to 10713
  153.1826  135.6830  153.8458 H   0  0  0  0  0  0  0  0  0  0  0  0  # atno 10763 bound_to 10752
  153.7785  135.3186  155.3363 H   0  0  0  0  0  0  0  0  0  0  0  0  # atno 10764 bound_to 10752
  154.8069  135.4743  154.0510 H   0  0  0  0  0  0  0  0  0  0  0  0  # atno 10765 bound_to 10752
  140.0703  134.9155  157.1334 H   0  0  0  0  0  0  0  0  0  0  0  0  # atno 11005 bound_to 11000
  144.7252  139.7899  143.7367 LP  0  0  0  0  0  0  0  0  0  0  0  0  # atno 17320 bound_to 7965
  146.1471  139.4543  143.0072 LP  0  0  0  0  0  0  0  0  0  0  0  0  # atno 17321 bound_to 7965
  140.3683  143.2869  152.0307 LP  0  0  0  0  0  0  0  0  0  0  0  0  # atno 17342 bound_to 10162
  139.4860  144.6250  151.7182 LP  0  0  0  0  0  0  0  0  0  0  0  0  # atno 17343 bound_to 10162
  157.4131  130.7396  149.6854 LP  0  0  0  0  0  0  0  0  0  0  0  0  # atno 17370 bound_to 10713
  155.9753  130.4090  150.3855 LP  0  0  0  0  0  0  0  0  0  0  0  0  # atno 17371 bound_to 10713
  140.3636  134.2466  155.7184 LP  0  0  0  0  0  0  0  0  0  0  0  0  # atno 17394 bound_to 11000
  141.2009  133.7975  157.0466 LP  0  0  0  0  0  0  0  0  0  0  0  0  # atno 17395 bound_to 11000

$$$$
