AV-unprocessed.smi:713|AV-procd|sdf|3481|dock5
  -GOLD-   22720 0473D 1   1.00000     0.00000
 Structure written by MMmdl.
 41 42  0  0  0  0  0  0  0  0  1 V2000
  150.9526  137.3772  154.8787 C   0  0  0  0  0  0  0  0  0  0  0  0
  150.5712  138.5662  155.7844 C   0  0  1  0  0  0  0  0  0  0  0  0
  151.7834  139.2055  156.4860 C   0  0  0  0  0  0  0  0  0  0  0  0
  152.7995  139.4958  155.8531 O   0  0  0  0  0  0  0  0  0  0  0  0
  151.6669  139.4042  157.8091 N   0  0  0  0  0  0  0  0  0  0  0  0
  152.6852  139.9954  158.6701 C   0  0  1  0  0  0  0  0  0  0  0  0
  152.3689  141.4870  158.8795 C   0  0  0  0  0  0  0  0  0  0  0  0
  153.3744  142.1553  159.8297 C   0  0  0  0  0  0  0  0  0  0  0  0
  153.4745  141.4035  161.1693 C   0  0  0  0  0  0  0  0  0  0  0  0
  153.7390  139.8884  161.0125 C   0  0  2  0  0  0  0  0  0  0  0  0
  155.4938  139.4823  160.5448 S   0  0  0  0  0  0  0  0  0  0  0  0
  155.5440  137.6527  160.7409 C   0  0  0  0  0  0  0  0  0  0  0  0
  155.6685  139.7943  159.1182 O   0  0  0  0  0  0  0  0  0  0  0  0
  156.4238  140.0595  161.5262 O   0  0  0  0  0  0  0  0  0  0  0  0
  152.7387  139.2567  160.0237 C   0  0  0  0  0  0  0  0  0  0  0  0
  149.7966  139.5709  155.0623 N   0  0  0  0  0  0  0  0  0  0  0  0
  148.5980  139.4024  154.3989 C   0  0  0  0  0  0  0  0  0  0  0  0
  148.2262  140.6201  153.9064 C   0  0  0  0  0  0  0  0  0  0  0  0
  149.2700  141.4887  154.3298 C   0  0  0  0  0  0  0  0  0  0  0  0
  150.2037  140.8612  155.0256 N   0  0  0  0  0  0  0  0  0  0  0  0
  151.4607  136.5960  155.4454 H   0  0  0  0  0  0  0  0  0  0  0  0
  151.6138  137.6796  154.0656 H   0  0  0  0  0  0  0  0  0  0  0  0
  150.0642  136.9292  154.4326 H   0  0  0  0  0  0  0  0  0  0  0  0
  149.9288  138.1751  156.5749 H   0  0  0  0  0  0  0  0  0  0  0  0
  150.7989  139.1383  158.2504 H   0  0  0  0  0  0  0  0  0  0  0  0
  153.6520  139.9171  158.1713 H   0  0  0  0  0  0  0  0  0  0  0  0
  152.3701  142.0075  157.9209 H   0  0  0  0  0  0  0  0  0  0  0  0
  151.3633  141.5964  159.2885 H   0  0  0  0  0  0  0  0  0  0  0  0
  154.3493  142.2187  159.3501 H   0  0  0  0  0  0  0  0  0  0  0  0
  153.0711  143.1861  160.0138 H   0  0  0  0  0  0  0  0  0  0  0  0
  154.2313  141.8668  161.8005 H   0  0  0  0  0  0  0  0  0  0  0  0
  152.5315  141.5319  161.7018 H   0  0  0  0  0  0  0  0  0  0  0  0
  153.5876  139.4156  161.9833 H   0  0  0  0  0  0  0  0  0  0  0  0
  156.5018  137.2802  160.3780 H   0  0  0  0  0  0  0  0  0  0  0  0
  154.7400  137.1995  160.1620 H   0  0  0  0  0  0  0  0  0  0  0  0
  155.4363  137.3860  161.7914 H   0  0  0  0  0  0  0  0  0  0  0  0
  151.7458  139.2700  160.4754 H   0  0  0  0  0  0  0  0  0  0  0  0
  152.9828  138.2047  159.8711 H   0  0  0  0  0  0  0  0  0  0  0  0
  148.1131  138.4394  154.3344 H   0  0  0  0  0  0  0  0  0  0  0  0
  147.3415  140.8554  153.3337 H   0  0  0  0  0  0  0  0  0  0  0  0
  149.3742  142.5497  154.1574 H   0  0  0  0  0  0  0  0  0  0  0  0
  1  2  1  0  0  0  0
  1 21  1  0  0  0  0
  1 22  1  0  0  0  0
  1 23  1  0  0  0  0
  2  3  1  0  0  0  0
  2 16  1  0  0  0  0
  2 24  1  0  0  0  0
  3  4  2  0  0  0  0
  3  5  1  0  0  0  0
  5  6  1  0  0  0  0
  5 25  1  0  0  0  0
  6 15  1  0  0  0  0
  6  7  1  0  0  0  0
  6 26  1  0  0  0  0
  7  8  1  0  0  0  0
  7 27  1  0  0  0  0
  7 28  1  0  0  0  0
  8  9  1  0  0  0  0
  8 29  1  0  0  0  0
  8 30  1  0  0  0  0
  9 10  1  0  0  0  0
  9 31  1  0  0  0  0
  9 32  1  0  0  0  0
 10 11  1  0  0  0  0
 10 15  1  0  0  0  0
 10 33  1  0  0  0  0
 11 12  1  0  0  0  0
 11 13  2  0  0  0  0
 11 14  2  0  0  0  0
 12 34  1  0  0  0  0
 12 35  1  0  0  0  0
 12 36  1  0  0  0  0
 15 37  1  0  0  0  0
 15 38  1  0  0  0  0
 16 20  1  0  0  0  0
 16 17  1  0  0  0  0
 17 18  2  0  0  0  0
 17 39  1  0  0  0  0
 18 19  1  0  0  0  0
 18 40  1  0  0  0  0
 19 20  2  0  0  0  0
 19 41  1  0  0  0  0
M  END
> <s_m_source_file>
AV-unprocessed.smi

> <i_m_source_file_index>
713

> <i_lp_mmshare_version>
43012

> <i_f3d_flags>
0

> <s_epik_input>
bjFbY0hdW2NIXVtjSF1uMVtDQEhdKFtDSDNdKUMoPU8pW05IXVtDQEBIXTJbQ0gyXVtDSDJdW0NIMl1bQ0BIXShbQ0gyXTIpUyg9TykoPU8pW0NIM10=

> <s_epik_cmdline>
J2VwaWtfcHl0aG9uJywgJy1waCcsICc3LjAnLCAnLXRuJywgJzgnLCAnLW1hJywgJzIwMCcsICctbWV0YWxfYmluZGluZycsICctaW1hZScsICc8aW5maWxlLm1hZT4nLCAnLW9tYWUnLCAnPG91dGZpbGUubWFlPic=

> <r_lp_tautomer_probability>
1

> <r_epik_Ionization_Penalty>
4.07816e-05

> <r_epik_Ionization_Penalty_Charging>
0

> <r_epik_Ionization_Penalty_Neutral>
4.07816e-05

> <r_epik_State_Penalty>
-0

> <r_epik_Charging_Adjusted_Penalty>
0

> <i_epik_Tot_Q>
0

> <i_epik_Tot_abs_Q>
0

> <r_epik_Metal_State_Penalty>
-0

> <b_epik_Metal_Only>
0

> <s_lp_Force_Field>
OPLS_2005

> <r_lp_Energy>
4.31355

> <b_lp_Chiralities_Consistent>
1

> <s_lp_Variant>
AV-unprocessed.smi:713-8

> <Gold.Version>
5.8.1

> <Gold.Id.Protein>
6NUR|6NUR_protein|mol2

> <Gold.PLP.Fitness>
41.6399

> <Gold.PLP.PLP>
-32.4802

> <Gold.PLP.part.hbond>
-3.9696

> <Gold.PLP.part.metal>
0.0000

> <Gold.PLP.part.buried>
0.6390

> <Gold.PLP.part.nonpolar>
-28.3058

> <Gold.PLP.part.repulsive>
0.1825

> <Gold.PLP.ligand.clash>
0.0000

> <Gold.PLP.ligand.torsion>
0.9074

> <Gold.PLP.Chemscore.Hbond>
2.5655

> <Gold.PLP.Chemscore.CHOScore>
0.9920

> <Gold.PLP.Chemscore.Metal>
0.0000

> <Gold.Chemscore.Hbonds>
donor molecule, donor type, donor heavy atom, donor atom, acceptor molecule, acceptor atom, score
      P1  H  7989  7998       L1    20  0.52
      P1  H  7997  8008       L1    13  1.00
      P1  H  7997  8009       L1     4  1.00
      L1  C    19    41       P1  8028  0.67

> <Gold.PLP.Chemscore.Internal.Correction>
0.3020

> <Gold.Rescore>
     Score         DG    S(hbond)    S(metal)    S(lipo)     H(rot)  DE(clash)    DE(int)     intcor
     16.44     -17.54       2.01        0.00      83.50       1.72       0.08       1.02       ----

> <Gold.Chemscore.Fitness>
16.4371

> <Gold.Chemscore.DG>
-17.5440

> <Gold.Chemscore.ZeroCoef>
-5.4800

> <Gold.Chemscore.Hbond>
2.0091

> <Gold.Chemscore.Metal>
0.0000

> <Gold.Chemscore.Lipo>
83.4978

> <Gold.Chemscore.Internal_Hbond>
0.0000

> <Gold.Chemscore.DEClash>
0.0822

> <Gold.Chemscore.DEInternal>
1.0247

> <Gold.Chemscore.Rot>
1.7249

> <Gold.Chemscore.Internal.Correction>
   9.000000E+99

> <Gold.Chemscore.Hbonds>
donor molecule, donor type, donor heavy atom, donor atom, acceptor molecule, acceptor atom, score
      P1  H  7989  7998       L1    20  0.03
      P1  H  7997  8008       L1    13  0.95
      P1  H  7997  8009       L1     4  1.00

> <Gold.Chemscore.Hbond.Weighted>
-6.7105

> <Gold.Chemscore.Metal.Weighted>
-0.0000

> <Gold.Chemscore.Lipo.Weighted>
-9.7692

> <Gold.Chemscore.Internal_Hbond.Weighted>
0.0000

> <Gold.Chemscore.DEClash.Weighted>
0.0822

> <Gold.Chemscore.DEInternal.Weighted>
1.0247

> <Gold.Chemscore.Rot.Weighted>
4.4157

> <Gold.Chemscore.Internal.Correction.Weighted>
   9.000000E+99

> <Gold.Protein.RotatedTorsions>
[ 6907 6896 6895 6894 ] final  -31.76 input  -60.11 | X-H torsion
[ 7974 7965 7964 7962 ] final  -38.22 input  175.53 | X-H torsion
[ 8008 7997 7996 7995 ] final -154.53 input   59.86 | X-H torsion
[ 10167 10162 10161 10158 ] final  151.25 input  -65.29 | X-H torsion
[ 10718 10713 10712 10709 ] final  170.49 input   66.30 | X-H torsion
[ 10763 10752 10751 10750 ] final   36.24 input  -60.55 | X-H torsion
[ 11005 11000 10999 10996 ] final  -11.37 input  -57.11 | X-H torsion

> <Gold.Protein.ActiveResidues>
 VAL166  LYS551  ARG553  GLY616  TRP617  ASP618  TYR619  PRO620  LYS621  CYS622 
 ASP623  PHE694  ASN695  SER759  ASP760  ASP761  ALA762  ILE779  LEU786  VAL792 
 PHE793  MET794  SER795  GLU796  ALA797  LYS798  CYS799  TRP800  GLU811  SER814 

> <Gold.Protein.RotatedAtoms>
  151.0877  134.9897  159.8387 H   0  0  0  0  0  0  0  0  0  0  0  0  # atno 6907 bound_to 6896
  152.5426  134.2103  159.8757 H   0  0  0  0  0  0  0  0  0  0  0  0  # atno 6908 bound_to 6896
  151.2137  133.4497  159.2632 H   0  0  0  0  0  0  0  0  0  0  0  0  # atno 6909 bound_to 6896
  146.0506  140.6486  142.9044 H   0  0  0  0  0  0  0  0  0  0  0  0  # atno 7974 bound_to 7965
  155.6879  140.0752  157.2460 H   0  0  0  0  0  0  0  0  0  0  0  0  # atno 8008 bound_to 7997
  154.4094  140.1670  156.2106 H   0  0  0  0  0  0  0  0  0  0  0  0  # atno 8009 bound_to 7997
  155.9478  140.3379  155.6385 H   0  0  0  0  0  0  0  0  0  0  0  0  # atno 8010 bound_to 7997
  139.4842  144.5456  151.7490 H   0  0  0  0  0  0  0  0  0  0  0  0  # atno 10167 bound_to 10162
  157.0073  131.0194  151.2813 H   0  0  0  0  0  0  0  0  0  0  0  0  # atno 10718 bound_to 10713
  153.0085  135.6311  154.1955 H   0  0  0  0  0  0  0  0  0  0  0  0  # atno 10763 bound_to 10752
  154.1698  135.2819  155.3086 H   0  0  0  0  0  0  0  0  0  0  0  0  # atno 10764 bound_to 10752
  154.5918  135.5615  153.7346 H   0  0  0  0  0  0  0  0  0  0  0  0  # atno 10765 bound_to 10752
  140.7545  133.8565  155.9072 H   0  0  0  0  0  0  0  0  0  0  0  0  # atno 11005 bound_to 11000
  144.7120  140.4075  143.7073 LP  0  0  0  0  0  0  0  0  0  0  0  0  # atno 17320 bound_to 7965
  145.6731  139.1603  143.2743 LP  0  0  0  0  0  0  0  0  0  0  0  0  # atno 17321 bound_to 7965
  140.5002  144.1181  150.5969 LP  0  0  0  0  0  0  0  0  0  0  0  0  # atno 17342 bound_to 10162
  140.4071  143.2675  151.9878 LP  0  0  0  0  0  0  0  0  0  0  0  0  # atno 17343 bound_to 10162
  157.5346  130.8080  149.7957 LP  0  0  0  0  0  0  0  0  0  0  0  0  # atno 17370 bound_to 10713
  156.0149  130.3818  150.2144 LP  0  0  0  0  0  0  0  0  0  0  0  0  # atno 17371 bound_to 10713
  140.9720  134.1518  157.4568 LP  0  0  0  0  0  0  0  0  0  0  0  0  # atno 17394 bound_to 11000
  139.8781  134.9982  156.5886 LP  0  0  0  0  0  0  0  0  0  0  0  0  # atno 17395 bound_to 11000

$$$$
