AV-unprocessed.smi:2883|AV-procd|sdf|11077|dock10
  -GOLD-   2272015553D 1   1.00000     0.00000
 Structure written by MMmdl.
 40 42  0  0  0  0  0  0  0  0  2 V2000
  153.0663  138.6221  154.7172 C   0  0  0  0  0  0  0  0  0  0  0  0
  151.6430  138.3753  155.2697 C   0  0  0  0  0  0  0  0  0  0  0  0
  151.0606  137.1967  154.4566 C   0  0  0  0  0  0  0  0  0  0  0  0
  151.7213  137.9875  156.7576 C   0  0  0  0  0  0  0  0  0  0  0  0
  150.7718  139.6297  155.1138 C   0  0  0  0  0  0  0  0  0  0  0  0
  149.6799  139.5795  154.3296 N   0  3  0  0  0  0  0  0  0  0  0  0
  148.8399  140.6408  154.2631 C   0  0  0  0  0  0  0  0  0  0  0  0
  149.0817  141.7899  155.0374 C   0  0  0  0  0  0  0  0  0  0  0  0
  150.2108  141.7657  155.8720 C   0  0  0  0  0  0  0  0  0  0  0  0
  150.4971  142.8727  156.6825 N   0  0  0  0  0  0  0  0  0  0  0  0
  151.7646  142.9687  157.4012 C   0  0  2  0  0  0  0  0  0  0  0  0
  151.7818  142.1599  158.7005 C   0  0  0  0  0  0  0  0  0  0  0  0
  152.2176  143.2179  159.7242 C   0  0  2  0  0  0  0  0  0  0  0  0
  151.0757  144.1886  160.0507 C   0  0  0  0  0  0  0  0  0  0  0  0
  150.9995  145.0191  158.7709 C   0  0  0  0  0  0  0  0  0  0  0  0
  152.1062  144.3835  157.9115 C   0  0  1  0  0  0  0  0  0  0  0  0
  153.0413  144.0487  158.9227 O   0  0  0  0  0  0  0  0  0  0  0  0
  151.0171  140.6829  155.9087 N   0  0  0  0  0  0  0  0  0  0  0  0
  153.6793  137.7225  154.7838 H   0  0  0  0  0  0  0  0  0  0  0  0
  153.5907  139.4021  155.2706 H   0  0  0  0  0  0  0  0  0  0  0  0
  153.0398  138.9229  153.6689 H   0  0  0  0  0  0  0  0  0  0  0  0
  150.9685  137.4502  153.3996 H   0  0  0  0  0  0  0  0  0  0  0  0
  150.0740  136.9008  154.8146 H   0  0  0  0  0  0  0  0  0  0  0  0
  151.6980  136.3144  154.5261 H   0  0  0  0  0  0  0  0  0  0  0  0
  152.3329  137.0967  156.9056 H   0  0  0  0  0  0  0  0  0  0  0  0
  150.7316  137.7784  157.1657 H   0  0  0  0  0  0  0  0  0  0  0  0
  152.1594  138.7894  157.3533 H   0  0  0  0  0  0  0  0  0  0  0  0
  147.9958  140.5319  153.5981 H   0  0  0  0  0  0  0  0  0  0  0  0
  148.4209  142.6437  154.9966 H   0  0  0  0  0  0  0  0  0  0  0  0
  149.9318  143.7054  156.5994 H   0  0  0  0  0  0  0  0  0  0  0  0
  152.5717  142.6090  156.7608 H   0  0  0  0  0  0  0  0  0  0  0  0
  150.8186  141.7164  158.9578 H   0  0  0  0  0  0  0  0  0  0  0  0
  152.5159  141.3561  158.6344 H   0  0  0  0  0  0  0  0  0  0  0  0
  152.7126  142.8060  160.6040 H   0  0  0  0  0  0  0  0  0  0  0  0
  150.1426  143.6720  160.2781 H   0  0  0  0  0  0  0  0  0  0  0  0
  151.3336  144.8201  160.9017 H   0  0  0  0  0  0  0  0  0  0  0  0
  150.0171  144.9866  158.2993 H   0  0  0  0  0  0  0  0  0  0  0  0
  151.2341  146.0625  158.9843 H   0  0  0  0  0  0  0  0  0  0  0  0
  152.5042  145.0484  157.1445 H   0  0  0  0  0  0  0  0  0  0  0  0
  149.4805  138.7465  153.7752 H   0  0  0  0  0  0  0  0  0  0  0  0
  1  2  1  0  0  0  0
  1 19  1  0  0  0  0
  1 20  1  0  0  0  0
  1 21  1  0  0  0  0
  2  3  1  0  0  0  0
  2  4  1  0  0  0  0
  2  5  1  0  0  0  0
  3 22  1  0  0  0  0
  3 23  1  0  0  0  0
  3 24  1  0  0  0  0
  4 25  1  0  0  0  0
  4 26  1  0  0  0  0
  4 27  1  0  0  0  0
  5 18  1  0  0  0  0
  5  6  2  0  0  0  0
  6  7  1  0  0  0  0
  6 40  1  0  0  0  0
  7  8  2  0  0  0  0
  7 28  1  0  0  0  0
  8  9  1  0  0  0  0
  8 29  1  0  0  0  0
  9 10  1  0  0  0  0
  9 18  2  0  0  0  0
 10 11  1  0  0  0  0
 10 30  1  0  0  0  0
 11 16  1  0  0  0  0
 11 12  1  0  0  0  0
 11 31  1  0  0  0  0
 12 13  1  0  0  0  0
 12 32  1  0  0  0  0
 12 33  1  0  0  0  0
 13 17  1  0  0  0  0
 13 14  1  0  0  0  0
 13 34  1  0  0  0  0
 14 15  1  0  0  0  0
 14 35  1  0  0  0  0
 14 36  1  0  0  0  0
 15 16  1  0  0  0  0
 15 37  1  0  0  0  0
 15 38  1  0  0  0  0
 16 17  1  0  0  0  0
 16 39  1  0  0  0  0
M  CHG  1   6   1
M  END
> <s_m_source_file>
AV-unprocessed.smi

> <i_m_source_file_index>
2883

> <i_lp_mmshare_version>
43012

> <i_f3d_flags>
0

> <s_epik_input>
W0NIM11DKFtDSDNdKShbQ0gzXSljMW5bY0hdW2NIXWMobjEpW05IXVtDQEhdKFtDSDJdW0NAQEhdMjMpW0NAQEhdKE8zKVtDSDJdW0NIMl0y

> <s_epik_cmdline>
J2VwaWtfcHl0aG9uJywgJy1waCcsICc3LjAnLCAnLXRuJywgJzgnLCAnLW1hJywgJzIwMCcsICctbWV0YWxfYmluZGluZycsICctaW1hZScsICc8aW5maWxlLm1hZT4nLCAnLW9tYWUnLCAnPG91dGZpbGUubWFlPic=

> <r_lp_tautomer_probability>
0.999336

> <r_epik_Ionization_Penalty>
0.371831

> <r_epik_Ionization_Penalty_Charging>
0.371821

> <r_epik_Ionization_Penalty_Neutral>
1.06897e-05

> <r_epik_State_Penalty>
0.369311

> <r_epik_Charging_Adjusted_Penalty>
0.741132

> <i_epik_Tot_Q>
1

> <i_epik_Tot_abs_Q>
1

> <r_epik_Metal_State_Penalty>
0.621338

> <b_epik_Metal_Only>
0

> <s_lp_Force_Field>
OPLS_2005

> <r_lp_Energy>
39.227

> <b_lp_Chiralities_Consistent>
1

> <s_lp_Variant>
AV-unprocessed.smi:2883-3

> <Gold.Version>
5.8.1

> <Gold.Id.Protein>
6NUR|6NUR_protein|mol2

> <Gold.PLP.Fitness>
41.3694

> <Gold.PLP.PLP>
-39.1265

> <Gold.PLP.part.hbond>
-1.6464

> <Gold.PLP.part.metal>
0.0000

> <Gold.PLP.part.buried>
-2.9387

> <Gold.PLP.part.nonpolar>
-35.0660

> <Gold.PLP.part.repulsive>
0.1898

> <Gold.PLP.ligand.clash>
0.0000

> <Gold.PLP.ligand.torsion>
0.4504

> <Gold.PLP.Chemscore.Hbond>
1.0000

> <Gold.PLP.Chemscore.CHOScore>
0.0000

> <Gold.PLP.Chemscore.Metal>
0.0000

> <Gold.Chemscore.Hbonds>
donor molecule, donor type, donor heavy atom, donor atom, acceptor molecule, acceptor atom, score
      L1  H    10    30       P1  8028  1.00

> <Gold.PLP.Chemscore.Internal.Correction>
0.1438

> <Gold.Rescore>
     Score         DG    S(hbond)    S(metal)    S(lipo)     H(rot)  DE(clash)    DE(int)     intcor
     17.45     -18.55       0.98        0.00     109.16       1.16       0.55       0.54       ----

> <Gold.Chemscore.Fitness>
17.4510

> <Gold.Chemscore.DG>
-18.5470

> <Gold.Chemscore.ZeroCoef>
-5.4800

> <Gold.Chemscore.Hbond>
0.9795

> <Gold.Chemscore.Metal>
0.0000

> <Gold.Chemscore.Lipo>
109.1596

> <Gold.Chemscore.Internal_Hbond>
0.0000

> <Gold.Chemscore.DEClash>
0.5541

> <Gold.Chemscore.DEInternal>
0.5419

> <Gold.Chemscore.Rot>
1.1626

> <Gold.Chemscore.Internal.Correction>
   9.000000E+99

> <Gold.Chemscore.Hbonds>
donor molecule, donor type, donor heavy atom, donor atom, acceptor molecule, acceptor atom, score
      L1  H    10    30       P1  8028  0.95

> <Gold.Chemscore.Hbond.Weighted>
-3.2717

> <Gold.Chemscore.Metal.Weighted>
-0.0000

> <Gold.Chemscore.Lipo.Weighted>
-12.7717

> <Gold.Chemscore.Internal_Hbond.Weighted>
0.0000

> <Gold.Chemscore.DEClash.Weighted>
0.5541

> <Gold.Chemscore.DEInternal.Weighted>
0.5419

> <Gold.Chemscore.Rot.Weighted>
2.9763

> <Gold.Chemscore.Internal.Correction.Weighted>
   9.000000E+99

> <Gold.Protein.RotatedTorsions>
[ 6907 6896 6895 6894 ] final   48.99 input  -60.11 | X-H torsion
[ 7974 7965 7964 7962 ] final  105.85 input  175.53 | X-H torsion
[ 8008 7997 7996 7995 ] final   87.98 input   59.86 | X-H torsion
[ 10167 10162 10161 10158 ] final -122.47 input  -65.29 | X-H torsion
[ 10718 10713 10712 10709 ] final -173.19 input   66.30 | X-H torsion
[ 10763 10752 10751 10750 ] final -106.14 input  -60.55 | X-H torsion
[ 11005 11000 10999 10996 ] final   53.89 input  -57.11 | X-H torsion

> <Gold.Protein.ActiveResidues>
 VAL166  LYS551  ARG553  GLY616  TRP617  ASP618  TYR619  PRO620  LYS621  CYS622 
 ASP623  PHE694  ASN695  SER759  ASP760  ASP761  ALA762  ILE779  LEU786  VAL792 
 PHE793  MET794  SER795  GLU796  ALA797  LYS798  CYS799  TRP800  GLU811  SER814 

> <Gold.Protein.RotatedAtoms>
  152.2858  134.7778  160.0387 H   0  0  0  0  0  0  0  0  0  0  0  0  # atno 6907 bound_to 6896
  151.8341  133.3408  159.3631 H   0  0  0  0  0  0  0  0  0  0  0  0  # atno 6908 bound_to 6896
  150.7209  134.5383  159.5779 H   0  0  0  0  0  0  0  0  0  0  0  0  # atno 6909 bound_to 6896
  145.3142  139.2531  143.3746 H   0  0  0  0  0  0  0  0  0  0  0  0  # atno 7974 bound_to 7965
  155.9821  140.3376  155.6673 H   0  0  0  0  0  0  0  0  0  0  0  0  # atno 8008 bound_to 7997
  155.6535  140.0708  157.2597 H   0  0  0  0  0  0  0  0  0  0  0  0  # atno 8009 bound_to 7997
  154.4195  140.1721  156.1687 H   0  0  0  0  0  0  0  0  0  0  0  0  # atno 8010 bound_to 7997
  140.0139  143.5413  152.2251 H   0  0  0  0  0  0  0  0  0  0  0  0  # atno 10167 bound_to 10162
  156.7666  130.9433  151.3119 H   0  0  0  0  0  0  0  0  0  0  0  0  # atno 10718 bound_to 10713
  154.7993  135.4723  154.0236 H   0  0  0  0  0  0  0  0  0  0  0  0  # atno 10763 bound_to 10752
  153.1754  135.6832  153.8557 H   0  0  0  0  0  0  0  0  0  0  0  0  # atno 10764 bound_to 10752
  153.8125  135.3215  155.3380 H   0  0  0  0  0  0  0  0  0  0  0  0  # atno 10765 bound_to 10752
  140.0730  134.5443  155.9026 H   0  0  0  0  0  0  0  0  0  0  0  0  # atno 11005 bound_to 11000
  146.3106  140.3685  142.8672 LP  0  0  0  0  0  0  0  0  0  0  0  0  # atno 17320 bound_to 7965
  144.8991  140.7620  143.5878 LP  0  0  0  0  0  0  0  0  0  0  0  0  # atno 17321 bound_to 7965
  139.6186  144.7624  151.2791 LP  0  0  0  0  0  0  0  0  0  0  0  0  # atno 17342 bound_to 10162
  140.7370  143.6691  150.8097 LP  0  0  0  0  0  0  0  0  0  0  0  0  # atno 17343 bound_to 10162
  157.6710  130.9051  150.0041 LP  0  0  0  0  0  0  0  0  0  0  0  0  # atno 17370 bound_to 10713
  156.1305  130.3643  149.9740 LP  0  0  0  0  0  0  0  0  0  0  0  0  # atno 17371 bound_to 10713
  141.2019  133.6621  156.5976 LP  0  0  0  0  0  0  0  0  0  0  0  0  # atno 17394 bound_to 11000
  140.3599  134.7696  157.4526 LP  0  0  0  0  0  0  0  0  0  0  0  0  # atno 17395 bound_to 11000

$$$$
