AV-unprocessed.smi:232|AV-procd|sdf|1776|dock7
  -GOLD-   2262020323D 1   1.00000     0.00000
 Structure written by MMmdl.
 52 55  0  0  0  0  0  0  0  0  1 V2000
  146.0905  129.7270  152.1098 C   0  0  0  0  0  0  0  0  0  0  0  0
  145.1770  130.9356  152.3471 C   0  0  0  0  0  0  0  0  0  0  0  0
  145.4965  132.1304  151.4232 C   0  0  1  0  0  0  0  0  0  0  0  0
  144.3586  132.4878  150.4539 C   0  0  0  0  0  0  0  0  0  0  0  0
  144.4351  134.0112  150.2960 C   0  0  0  0  0  0  0  0  0  0  0  0
  145.6336  134.4282  151.1545 C   0  0  1  0  0  0  0  0  0  0  0  0
  145.4843  135.8242  151.7805 C   0  0  0  0  0  0  0  0  0  0  0  0
  145.7601  133.3684  152.1484 N   0  0  0  0  0  0  0  0  0  0  0  0
  146.8963  133.3631  152.8856 C   0  0  0  0  0  0  0  0  0  0  0  0
  147.8356  132.3968  152.7047 N   0  0  0  0  0  0  0  0  0  0  0  0
  148.9436  132.3947  153.4525 C   0  0  0  0  0  0  0  0  0  0  0  0
  149.2999  133.2425  154.4208 N   0  0  0  0  0  0  0  0  0  0  0  0
  148.3553  134.2096  154.6043 C   0  0  0  0  0  0  0  0  0  0  0  0
  147.1369  134.3434  153.8831 C   0  0  0  0  0  0  0  0  0  0  0  0
  146.4266  135.4455  154.3418 N   0  0  0  0  0  0  0  0  0  0  0  0
  147.1827  135.9360  155.2860 C   0  0  0  0  0  0  0  0  0  0  0  0
  148.3571  135.2540  155.5116 N   0  0  0  0  0  0  0  0  0  0  0  0
  149.3686  135.5777  156.5014 C   0  0  0  0  0  0  0  0  0  0  0  0
  150.7709  135.7322  155.8809 C   0  0  2  0  0  0  0  0  0  0  0  0
  151.6439  136.2978  156.8400 O   0  0  0  0  0  0  0  0  0  0  0  0
  150.7581  136.6265  154.6276 C   0  0  1  0  0  0  0  0  0  0  0  0
  150.0505  137.9696  154.8163 C   0  0  0  0  0  0  0  0  0  0  0  0
  150.6866  138.8046  153.7293 C   0  0  0  0  0  0  0  0  0  0  0  0
  152.1332  138.3219  153.7725 C   0  0  0  0  0  0  0  0  0  0  0  0
  152.0883  136.9809  154.2543 O   0  0  0  0  0  0  0  0  0  0  0  0
  145.8549  128.9218  152.8060 H   0  0  0  0  0  0  0  0  0  0  0  0
  147.1380  129.9933  152.2531 H   0  0  0  0  0  0  0  0  0  0  0  0
  145.9781  129.3326  151.0999 H   0  0  0  0  0  0  0  0  0  0  0  0
  144.1352  130.6376  152.2221 H   0  0  0  0  0  0  0  0  0  0  0  0
  145.2833  131.2349  153.3901 H   0  0  0  0  0  0  0  0  0  0  0  0
  146.3853  131.8916  150.8358 H   0  0  0  0  0  0  0  0  0  0  0  0
  144.4692  131.9680  149.5020 H   0  0  0  0  0  0  0  0  0  0  0  0
  143.3880  132.2136  150.8693 H   0  0  0  0  0  0  0  0  0  0  0  0
  144.5589  134.3173  149.2567 H   0  0  0  0  0  0  0  0  0  0  0  0
  143.5142  134.4630  150.6674 H   0  0  0  0  0  0  0  0  0  0  0  0
  146.5180  134.4232  150.5153 H   0  0  0  0  0  0  0  0  0  0  0  0
  145.3489  136.5828  151.0095 H   0  0  0  0  0  0  0  0  0  0  0  0
  146.3677  136.0974  152.3582 H   0  0  0  0  0  0  0  0  0  0  0  0
  144.6236  135.8681  152.4487 H   0  0  0  0  0  0  0  0  0  0  0  0
  149.6429  131.5973  153.2486 H   0  0  0  0  0  0  0  0  0  0  0  0
  146.9025  136.8142  155.8492 H   0  0  0  0  0  0  0  0  0  0  0  0
  149.0690  136.5022  156.9960 H   0  0  0  0  0  0  0  0  0  0  0  0
  149.3718  134.8032  157.2693 H   0  0  0  0  0  0  0  0  0  0  0  0
  151.1569  134.7474  155.6146 H   0  0  0  0  0  0  0  0  0  0  0  0
  152.4840  136.4430  156.4319 H   0  0  0  0  0  0  0  0  0  0  0  0
  150.3066  136.0971  153.7868 H   0  0  0  0  0  0  0  0  0  0  0  0
  148.9666  137.8983  154.7205 H   0  0  0  0  0  0  0  0  0  0  0  0
  150.2809  138.3932  155.7950 H   0  0  0  0  0  0  0  0  0  0  0  0
  150.2382  138.5651  152.7640 H   0  0  0  0  0  0  0  0  0  0  0  0
  150.5890  139.8776  153.8963 H   0  0  0  0  0  0  0  0  0  0  0  0
  152.6163  138.3780  152.7969 H   0  0  0  0  0  0  0  0  0  0  0  0
  152.7160  138.9209  154.4731 H   0  0  0  0  0  0  0  0  0  0  0  0
  1  2  1  0  0  0  0
  1 26  1  0  0  0  0
  1 27  1  0  0  0  0
  1 28  1  0  0  0  0
  2  3  1  0  0  0  0
  2 29  1  0  0  0  0
  2 30  1  0  0  0  0
  3  8  1  0  0  0  0
  3  4  1  0  0  0  0
  3 31  1  0  0  0  0
  4  5  1  0  0  0  0
  4 32  1  0  0  0  0
  4 33  1  0  0  0  0
  5  6  1  0  0  0  0
  5 34  1  0  0  0  0
  5 35  1  0  0  0  0
  6  7  1  0  0  0  0
  6  8  1  0  0  0  0
  6 36  1  0  0  0  0
  7 37  1  0  0  0  0
  7 38  1  0  0  0  0
  7 39  1  0  0  0  0
  8  9  1  0  0  0  0
  9 14  1  0  0  0  0
  9 10  2  0  0  0  0
 10 11  1  0  0  0  0
 11 12  2  0  0  0  0
 11 40  1  0  0  0  0
 12 13  1  0  0  0  0
 13 17  1  0  0  0  0
 13 14  2  0  0  0  0
 14 15  1  0  0  0  0
 15 16  2  0  0  0  0
 16 17  1  0  0  0  0
 16 41  1  0  0  0  0
 17 18  1  0  0  0  0
 18 19  1  0  0  0  0
 18 42  1  0  0  0  0
 18 43  1  0  0  0  0
 19 20  1  0  0  0  0
 19 21  1  0  0  0  0
 19 44  1  0  0  0  0
 20 45  1  0  0  0  0
 21 25  1  0  0  0  0
 21 22  1  0  0  0  0
 21 46  1  0  0  0  0
 22 23  1  0  0  0  0
 22 47  1  0  0  0  0
 22 48  1  0  0  0  0
 23 24  1  0  0  0  0
 23 49  1  0  0  0  0
 23 50  1  0  0  0  0
 24 25  1  0  0  0  0
 24 51  1  0  0  0  0
 24 52  1  0  0  0  0
M  END
> <s_m_source_file>
AV-unprocessed.smi

> <i_m_source_file_index>
232

> <i_lp_mmshare_version>
43012

> <i_f3d_flags>
0

> <s_epik_input>
W0NIM11bQ0gyXVtDQEBIXTFbQ0gyXVtDSDJdW0NAQEhdKFtDSDNdKU4xYyhuW2NIXW4yKWMoYzIzKW5bY0hdbjNbQ0gyXVtDQEhdKFtPSF0pW0NAQEhdNFtDSDJdW0NIMl1bQ0gyXU80

> <s_epik_cmdline>
J2VwaWtfcHl0aG9uJywgJy1waCcsICc3LjAnLCAnLXRuJywgJzgnLCAnLW1hJywgJzIwMCcsICctbWV0YWxfYmluZGluZycsICctaW1hZScsICc8aW5maWxlLm1hZT4nLCAnLW9tYWUnLCAnPG91dGZpbGUubWFlPic=

> <r_lp_tautomer_probability>
1

> <r_epik_Ionization_Penalty>
0.00258048

> <r_epik_Ionization_Penalty_Charging>
0

> <r_epik_Ionization_Penalty_Neutral>
0.00258048

> <r_epik_State_Penalty>
0.00168551

> <r_epik_Charging_Adjusted_Penalty>
0.00168551

> <i_epik_Tot_Q>
0

> <i_epik_Tot_abs_Q>
0

> <r_epik_Metal_State_Penalty>
-0

> <b_epik_Metal_Only>
0

> <s_lp_Force_Field>
OPLS_2005

> <r_lp_Energy>
51.3027

> <b_lp_Chiralities_Consistent>
1

> <s_lp_Variant>
AV-unprocessed.smi:232-10

> <Gold.Version>
5.8.1

> <Gold.Id.Protein>
6NUR|6NUR_protein|mol2

> <Gold.PLP.Fitness>
38.2644

> <Gold.PLP.PLP>
-37.6797

> <Gold.PLP.part.hbond>
-1.1904

> <Gold.PLP.part.metal>
0.0000

> <Gold.PLP.part.buried>
-7.8112

> <Gold.PLP.part.nonpolar>
-29.4797

> <Gold.PLP.part.repulsive>
1.2523

> <Gold.PLP.ligand.clash>
0.0000

> <Gold.PLP.ligand.torsion>
1.2745

> <Gold.PLP.Chemscore.Hbond>
1.0000

> <Gold.PLP.Chemscore.CHOScore>
0.0000

> <Gold.PLP.Chemscore.Metal>
0.0000

> <Gold.Chemscore.Hbonds>
donor molecule, donor type, donor heavy atom, donor atom, acceptor molecule, acceptor atom, score
      P1  H 10752 10764       L1    25  0.90

> <Gold.PLP.Chemscore.Internal.Correction>
0.1337

> <Gold.Rescore>
     Score         DG    S(hbond)    S(metal)    S(lipo)     H(rot)  DE(clash)    DE(int)     intcor
     10.40     -13.40       1.26        0.00      84.91       2.43       1.48       1.51       ----

> <Gold.Chemscore.Fitness>
10.4027

> <Gold.Chemscore.DG>
-13.3997

> <Gold.Chemscore.ZeroCoef>
-5.4800

> <Gold.Chemscore.Hbond>
1.2563

> <Gold.Chemscore.Metal>
0.0000

> <Gold.Chemscore.Lipo>
84.9095

> <Gold.Chemscore.Internal_Hbond>
0.0000

> <Gold.Chemscore.DEClash>
1.4844

> <Gold.Chemscore.DEInternal>
1.5127

> <Gold.Chemscore.Rot>
2.4260

> <Gold.Chemscore.Internal.Correction>
   9.000000E+99

> <Gold.Chemscore.Hbonds>
donor molecule, donor type, donor heavy atom, donor atom, acceptor molecule, acceptor atom, score
      P1  H 10752 10764       L1    25  0.43

> <Gold.Chemscore.Hbond.Weighted>
-4.1960

> <Gold.Chemscore.Metal.Weighted>
-0.0000

> <Gold.Chemscore.Lipo.Weighted>
-9.9344

> <Gold.Chemscore.Internal_Hbond.Weighted>
0.0000

> <Gold.Chemscore.DEClash.Weighted>
1.4844

> <Gold.Chemscore.DEInternal.Weighted>
1.5127

> <Gold.Chemscore.Rot.Weighted>
6.2107

> <Gold.Chemscore.Internal.Correction.Weighted>
   9.000000E+99

> <Gold.Protein.RotatedTorsions>
[ 6907 6896 6895 6894 ] final   41.13 input  -60.11 | X-H torsion
[ 7974 7965 7964 7962 ] final  -59.45 input  175.53 | X-H torsion
[ 8008 7997 7996 7995 ] final  171.26 input   59.86 | X-H torsion
[ 10167 10162 10161 10158 ] final  -45.30 input  -65.29 | X-H torsion
[ 10718 10713 10712 10709 ] final  -19.75 input   66.30 | X-H torsion
[ 10763 10752 10751 10750 ] final  -67.16 input  -60.55 | X-H torsion
[ 11005 11000 10999 10996 ] final -122.05 input  -57.11 | X-H torsion

> <Gold.Protein.ActiveResidues>
 VAL166  LYS551  ARG553  GLY616  TRP617  ASP618  TYR619  PRO620  LYS621  CYS622 
 ASP623  PHE694  ASN695  SER759  ASP760  ASP761  ALA762  ILE779  LEU786  VAL792 
 PHE793  MET794  SER795  GLU796  ALA797  LYS798  CYS799  TRP800  GLU811  SER814 

> <Gold.Protein.RotatedAtoms>
  152.1913  134.8669  160.0516 H   0  0  0  0  0  0  0  0  0  0  0  0  # atno 6907 bound_to 6896
  151.9557  133.3674  159.4024 H   0  0  0  0  0  0  0  0  0  0  0  0  # atno 6908 bound_to 6896
  150.6936  134.4217  159.5252 H   0  0  0  0  0  0  0  0  0  0  0  0  # atno 6909 bound_to 6896
  145.8274  140.8502  143.0101 H   0  0  0  0  0  0  0  0  0  0  0  0  # atno 7974 bound_to 7965
  156.1288  140.1516  156.9097 H   0  0  0  0  0  0  0  0  0  0  0  0  # atno 8008 bound_to 7997
  154.4892  140.0856  156.7597 H   0  0  0  0  0  0  0  0  0  0  0  0  # atno 8009 bound_to 7997
  155.4295  140.3426  155.4281 H   0  0  0  0  0  0  0  0  0  0  0  0  # atno 8010 bound_to 7997
  140.6863  143.2886  151.3619 H   0  0  0  0  0  0  0  0  0  0  0  0  # atno 10167 bound_to 10162
  156.5413  130.4679  149.6497 H   0  0  0  0  0  0  0  0  0  0  0  0  # atno 10718 bound_to 10713
  154.3705  135.6096  153.5737 H   0  0  0  0  0  0  0  0  0  0  0  0  # atno 10763 bound_to 10752
  152.9790  135.5837  154.4528 H   0  0  0  0  0  0  0  0  0  0  0  0  # atno 10764 bound_to 10752
  154.4281  135.2847  155.1908 H   0  0  0  0  0  0  0  0  0  0  0  0  # atno 10765 bound_to 10752
  141.0024  134.0383  157.3520 H   0  0  0  0  0  0  0  0  0  0  0  0  # atno 11005 bound_to 11000
  144.6742  140.0622  143.7475 LP  0  0  0  0  0  0  0  0  0  0  0  0  # atno 17320 bound_to 7965
  145.9609  139.2800  143.1156 LP  0  0  0  0  0  0  0  0  0  0  0  0  # atno 17321 bound_to 7965
  139.6225  144.0878  152.2404 LP  0  0  0  0  0  0  0  0  0  0  0  0  # atno 17342 bound_to 10162
  140.0327  144.6068  150.7474 LP  0  0  0  0  0  0  0  0  0  0  0  0  # atno 17343 bound_to 10162
  156.2969  130.7155  151.2017 LP  0  0  0  0  0  0  0  0  0  0  0  0  # atno 17370 bound_to 10713
  157.7405  131.0516  150.5164 LP  0  0  0  0  0  0  0  0  0  0  0  0  # atno 17371 bound_to 10713
  139.9046  135.0175  156.7426 LP  0  0  0  0  0  0  0  0  0  0  0  0  # atno 17394 bound_to 11000
  140.6867  133.9426  155.7942 LP  0  0  0  0  0  0  0  0  0  0  0  0  # atno 17395 bound_to 11000

$$$$
