AV-unprocessed.smi:657|AV-procd|sdf|3227|dock9
  -GOLD-   22720 0163D 1   1.00000     0.00000
 Structure written by MMmdl.
 46 47  0  0  0  0  0  0  0  0  3 V2000
  151.6068  137.7503  154.1997 C   0  0  0  0  0  0  0  0  0  0  0  0
  150.4211  137.2217  155.0357 C   0  0  0  0  0  0  0  0  0  0  0  0
  150.6085  135.7024  155.2303 C   0  0  0  0  0  0  0  0  0  0  0  0
  149.0874  137.5610  154.4298 N   0  3  1  0  0  0  0  0  0  0  0  0
  147.9169  137.0074  155.1824 C   0  0  0  0  0  0  0  0  0  0  0  0
  146.5792  137.2508  154.4622 C   0  0  0  0  0  0  0  0  0  0  0  0
  146.3709  138.7314  154.1424 C   0  0  0  0  0  0  0  0  0  0  0  0
  147.5602  139.2283  153.3155 C   0  0  0  0  0  0  0  0  0  0  0  0
  148.9100  139.0023  154.0345 C   0  0  1  0  0  0  0  0  0  0  0  0
  149.1181  140.0294  155.1758 C   0  0  0  0  0  0  0  0  0  0  0  0
  148.2485  140.1556  156.0444 O   0  0  0  0  0  0  0  0  0  0  0  0
  150.2946  140.6983  155.0179 N   0  5  0  0  0  0  0  0  0  0  0  0
  150.7001  141.8409  155.8392 C   0  0  0  0  0  0  0  0  0  0  0  0
  150.9154  141.4118  157.3093 C   0  0  0  0  0  0  0  0  0  0  0  0
  151.5111  142.4924  158.1853 C   0  0  0  0  0  0  0  0  0  0  0  0
  152.5617  142.3831  159.1440 C   0  0  0  0  0  0  0  0  0  0  0  0
  152.8194  143.5253  159.7607 N   0  0  0  0  0  0  0  0  0  0  0  0
  151.9534  144.4031  159.2152 N   0  0  0  0  0  0  0  0  0  0  0  0
  151.9462  145.7767  159.6694 C   0  0  0  0  0  0  0  0  0  0  0  0
  151.1642  143.8133  158.2528 C   0  0  0  0  0  0  0  0  0  0  0  0
  152.5579  137.4084  154.6088 H   0  0  0  0  0  0  0  0  0  0  0  0
  151.6575  138.8388  154.1934 H   0  0  0  0  0  0  0  0  0  0  0  0
  151.5509  137.4059  153.1666 H   0  0  0  0  0  0  0  0  0  0  0  0
  150.4801  137.6824  156.0225 H   0  0  0  0  0  0  0  0  0  0  0  0
  151.6262  135.4700  155.5453 H   0  0  0  0  0  0  0  0  0  0  0  0
  150.4193  135.1555  154.3061 H   0  0  0  0  0  0  0  0  0  0  0  0
  149.9577  135.3012  156.0064 H   0  0  0  0  0  0  0  0  0  0  0  0
  148.0114  135.9293  155.2942 H   0  0  0  0  0  0  0  0  0  0  0  0
  147.8824  137.4130  156.1927 H   0  0  0  0  0  0  0  0  0  0  0  0
  146.5526  136.6718  153.5382 H   0  0  0  0  0  0  0  0  0  0  0  0
  145.7560  136.8859  155.0772 H   0  0  0  0  0  0  0  0  0  0  0  0
  145.4426  138.8718  153.5883 H   0  0  0  0  0  0  0  0  0  0  0  0
  146.2739  139.3077  155.0631 H   0  0  0  0  0  0  0  0  0  0  0  0
  147.5731  138.7062  152.3579 H   0  0  0  0  0  0  0  0  0  0  0  0
  147.4277  140.2833  153.0733 H   0  0  0  0  0  0  0  0  0  0  0  0
  149.6591  139.1978  153.2660 H   0  0  0  0  0  0  0  0  0  0  0  0
  151.6070  142.3225  155.4706 H   0  0  0  0  0  0  0  0  0  0  0  0
  149.9366  142.6185  155.8163 H   0  0  0  0  0  0  0  0  0  0  0  0
  149.9555  141.0936  157.7164 H   0  0  0  0  0  0  0  0  0  0  0  0
  151.5421  140.5192  157.3281 H   0  0  0  0  0  0  0  0  0  0  0  0
  153.1303  141.5065  159.4178 H   0  0  0  0  0  0  0  0  0  0  0  0
  151.0789  146.2987  159.2638 H   0  0  0  0  0  0  0  0  0  0  0  0
  152.8540  146.2794  159.3348 H   0  0  0  0  0  0  0  0  0  0  0  0
  151.8978  145.8072  160.7584 H   0  0  0  0  0  0  0  0  0  0  0  0
  150.4139  144.3702  157.7113 H   0  0  0  0  0  0  0  0  0  0  0  0
  149.0750  137.0659  153.5502 H   0  0  0  0  0  0  0  0  0  0  0  0
  1  2  1  0  0  0  0
  1 21  1  0  0  0  0
  1 22  1  0  0  0  0
  1 23  1  0  0  0  0
  2  3  1  0  0  0  0
  2  4  1  0  0  0  0
  2 24  1  0  0  0  0
  3 25  1  0  0  0  0
  3 26  1  0  0  0  0
  3 27  1  0  0  0  0
  4  9  1  0  0  0  0
  4  5  1  0  0  0  0
  4 46  1  0  0  0  0
  5  6  1  0  0  0  0
  5 28  1  0  0  0  0
  5 29  1  0  0  0  0
  6  7  1  0  0  0  0
  6 30  1  0  0  0  0
  6 31  1  0  0  0  0
  7  8  1  0  0  0  0
  7 32  1  0  0  0  0
  7 33  1  0  0  0  0
  8  9  1  0  0  0  0
  8 34  1  0  0  0  0
  8 35  1  0  0  0  0
  9 10  1  0  0  0  0
  9 36  1  0  0  0  0
 10 11  2  0  0  0  0
 10 12  1  0  0  0  0
 12 13  1  0  0  0  0
 13 14  1  0  0  0  0
 13 37  1  0  0  0  0
 13 38  1  0  0  0  0
 14 15  1  0  0  0  0
 14 39  1  0  0  0  0
 14 40  1  0  0  0  0
 15 20  2  0  0  0  0
 15 16  1  0  0  0  0
 16 17  2  0  0  0  0
 16 41  1  0  0  0  0
 17 18  1  0  0  0  0
 18 19  1  0  0  0  0
 18 20  1  0  0  0  0
 19 42  1  0  0  0  0
 19 43  1  0  0  0  0
 19 44  1  0  0  0  0
 20 45  1  0  0  0  0
M  CHG  1   4   1
M  CHG  1  12  -1
M  END
> <s_m_source_file>
AV-unprocessed.smi

> <i_m_source_file_index>
657

> <i_lp_mmshare_version>
43012

> <i_f3d_flags>
0

> <s_epik_input>
W0NIM11bQ0hdKFtDSDNdKU4xW0NIMl1bQ0gyXVtDSDJdW0NIMl1bQ0BIXTFDKD1PKVtOSF1bQ0gyXVtDSDJdYzJbY0hdbm4oW0NIM10pW2NIXTI=

> <s_epik_cmdline>
J2VwaWtfcHl0aG9uJywgJy1waCcsICc3LjAnLCAnLXRuJywgJzgnLCAnLW1hJywgJzIwMCcsICctbWV0YWxfYmluZGluZycsICctaW1hZScsICc8aW5maWxlLm1hZT4nLCAnLW9tYWUnLCAnPG91dGZpbGUubWFlPic=

> <r_lp_tautomer_probability>
1

> <r_epik_Ionization_Penalty>
6.1622

> <r_epik_Ionization_Penalty_Charging>
6.16146

> <r_epik_Ionization_Penalty_Neutral>
0.00073675

> <r_epik_State_Penalty>
6.18018

> <r_epik_Charging_Adjusted_Penalty>
12.3416

> <i_epik_Tot_Q>
0

> <i_epik_Tot_abs_Q>
2

> <r_epik_Metal_State_Penalty>
2.12232

> <b_epik_Metal_Only>
1

> <s_lp_Force_Field>
OPLS_2005

> <r_lp_Energy>
12.187

> <b_lp_Chiralities_Consistent>
1

> <s_lp_Variant>
AV-unprocessed.smi:657-8

> <Gold.Version>
5.8.1

> <Gold.Id.Protein>
6NUR|6NUR_protein|mol2

> <Gold.PLP.Fitness>
46.7940

> <Gold.PLP.PLP>
-36.0233

> <Gold.PLP.part.hbond>
-2.0000

> <Gold.PLP.part.metal>
0.0000

> <Gold.PLP.part.buried>
-2.4322

> <Gold.PLP.part.nonpolar>
-30.7964

> <Gold.PLP.part.repulsive>
0.1064

> <Gold.PLP.ligand.clash>
0.0000

> <Gold.PLP.ligand.torsion>
0.4833

> <Gold.PLP.Chemscore.Hbond>
2.8640

> <Gold.PLP.Chemscore.CHOScore>
0.9736

> <Gold.PLP.Chemscore.Metal>
0.0000

> <Gold.Chemscore.Hbonds>
donor molecule, donor type, donor heavy atom, donor atom, acceptor molecule, acceptor atom, score
      L1  H     4    46       P1  7948  2.00
      P1  H  7989  7998       L1    12  0.84
      L1  C    20    45       P1  8028  0.95

> <Gold.PLP.Chemscore.Internal.Correction>
0.2243

> <Gold.Rescore>
     Score         DG    S(hbond)    S(metal)    S(lipo)     H(rot)  DE(clash)    DE(int)     intcor
     16.41     -17.05       1.38        0.00      93.82       1.57       0.33       0.31       ----

> <Gold.Chemscore.Fitness>
16.4106

> <Gold.Chemscore.DG>
-17.0506

> <Gold.Chemscore.ZeroCoef>
-5.4800

> <Gold.Chemscore.Hbond>
1.3842

> <Gold.Chemscore.Metal>
0.0000

> <Gold.Chemscore.Lipo>
93.8205

> <Gold.Chemscore.Internal_Hbond>
0.0000

> <Gold.Chemscore.DEClash>
0.3293

> <Gold.Chemscore.DEInternal>
0.3107

> <Gold.Chemscore.Rot>
1.5741

> <Gold.Chemscore.Internal.Correction>
   9.000000E+99

> <Gold.Chemscore.Hbonds>
donor molecule, donor type, donor heavy atom, donor atom, acceptor molecule, acceptor atom, score
      L1  H     4    46       P1  7948  1.00
      P1  H  7989  7998       L1    12  0.17

> <Gold.Chemscore.Hbond.Weighted>
-4.6232

> <Gold.Chemscore.Metal.Weighted>
-0.0000

> <Gold.Chemscore.Lipo.Weighted>
-10.9770

> <Gold.Chemscore.Internal_Hbond.Weighted>
0.0000

> <Gold.Chemscore.DEClash.Weighted>
0.3293

> <Gold.Chemscore.DEInternal.Weighted>
0.3107

> <Gold.Chemscore.Rot.Weighted>
4.0297

> <Gold.Chemscore.Internal.Correction.Weighted>
   9.000000E+99

> <Gold.Protein.RotatedTorsions>
[ 6907 6896 6895 6894 ] final   -6.98 input  -60.11 | X-H torsion
[ 7974 7965 7964 7962 ] final   85.12 input  175.53 | X-H torsion
[ 8008 7997 7996 7995 ] final  -12.87 input   59.86 | X-H torsion
[ 10167 10162 10161 10158 ] final  125.85 input  -65.29 | X-H torsion
[ 10718 10713 10712 10709 ] final  -91.34 input   66.30 | X-H torsion
[ 10763 10752 10751 10750 ] final  -49.83 input  -60.55 | X-H torsion
[ 11005 11000 10999 10996 ] final  139.47 input  -57.11 | X-H torsion

> <Gold.Protein.ActiveResidues>
 VAL166  LYS551  ARG553  GLY616  TRP617  ASP618  TYR619  PRO620  LYS621  CYS622 
 ASP623  PHE694  ASN695  SER759  ASP760  ASP761  ALA762  ILE779  LEU786  VAL792 
 PHE793  MET794  SER795  GLU796  ALA797  LYS798  CYS799  TRP800  GLU811  SER814 

> <Gold.Protein.RotatedAtoms>
  151.4568  135.1035  159.9713 H   0  0  0  0  0  0  0  0  0  0  0  0  # atno 6907 bound_to 6896
  152.4868  133.8389  159.7153 H   0  0  0  0  0  0  0  0  0  0  0  0  # atno 6908 bound_to 6896
  150.8984  133.7091  159.2912 H   0  0  0  0  0  0  0  0  0  0  0  0  # atno 6909 bound_to 6896
  145.5897  139.2336  143.2306 H   0  0  0  0  0  0  0  0  0  0  0  0  # atno 7974 bound_to 7965
  154.5340  140.2264  155.8755 H   0  0  0  0  0  0  0  0  0  0  0  0  # atno 8008 bound_to 7997
  156.1793  140.3104  155.9081 H   0  0  0  0  0  0  0  0  0  0  0  0  # atno 8009 bound_to 7997
  155.3393  140.0449  157.3035 H   0  0  0  0  0  0  0  0  0  0  0  0  # atno 8010 bound_to 7997
  139.5663  144.6913  151.3901 H   0  0  0  0  0  0  0  0  0  0  0  0  # atno 10167 bound_to 10162
  155.9993  130.4944  150.5460 H   0  0  0  0  0  0  0  0  0  0  0  0  # atno 10718 bound_to 10713
  154.1004  135.6564  153.4867 H   0  0  0  0  0  0  0  0  0  0  0  0  # atno 10763 bound_to 10752
  153.0290  135.5224  154.7292 H   0  0  0  0  0  0  0  0  0  0  0  0  # atno 10764 bound_to 10752
  154.6442  135.2992  155.0035 H   0  0  0  0  0  0  0  0  0  0  0  0  # atno 10765 bound_to 10752
  140.0257  134.9376  157.0564 H   0  0  0  0  0  0  0  0  0  0  0  0  # atno 11005 bound_to 11000
  146.1656  140.6723  142.9257 LP  0  0  0  0  0  0  0  0  0  0  0  0  # atno 17320 bound_to 7965
  144.7357  140.4801  143.6905 LP  0  0  0  0  0  0  0  0  0  0  0  0  # atno 17321 bound_to 7965
  140.6947  143.7778  150.7308 LP  0  0  0  0  0  0  0  0  0  0  0  0  # atno 17342 bound_to 10162
  140.1271  143.4559  152.2277 LP  0  0  0  0  0  0  0  0  0  0  0  0  # atno 17343 bound_to 10162
  157.3390  131.0713  151.1803 LP  0  0  0  0  0  0  0  0  0  0  0  0  # atno 17370 bound_to 10713
  157.2658  130.6680  149.5996 LP  0  0  0  0  0  0  0  0  0  0  0  0  # atno 17371 bound_to 10713
  140.4310  134.1780  155.7168 LP  0  0  0  0  0  0  0  0  0  0  0  0  # atno 17394 bound_to 11000
  141.1801  133.8431  157.1287 LP  0  0  0  0  0  0  0  0  0  0  0  0  # atno 17395 bound_to 11000

$$$$
