AV-unprocessed.smi:2813|AV-procd|sdf|10838|dock1
  -GOLD-   2272015273D 1   1.00000     0.00000
 Structure written by MMmdl.
 41 42  0  0  0  0  0  0  0  0  1 V2000
  145.6516  138.3417  155.7113 C   0  0  0  0  0  0  0  0  0  0  0  0
  147.0920  138.6110  155.3131 C   0  0  0  0  0  0  0  0  0  0  0  0
  147.9527  137.5117  155.3815 N   0  0  0  0  0  0  0  0  0  0  0  0
  149.1980  137.6467  155.0615 C   0  0  0  0  0  0  0  0  0  0  0  0
  149.7215  138.8788  154.6360 N   0  0  0  0  0  0  0  0  0  0  0  0
  151.1551  138.8973  154.2988 C   0  0  0  0  0  0  0  0  0  0  0  0
  152.0502  138.7795  155.5536 C   0  0  1  0  0  0  0  0  0  0  0  0
  153.3817  139.0548  155.1636 O   0  0  0  0  0  0  0  0  0  0  0  0
  151.6707  139.8112  156.6298 C   0  0  0  0  0  0  0  0  0  0  0  0
  152.4800  139.5946  157.7785 O   0  0  0  0  0  0  0  0  0  0  0  0
  152.4979  140.5624  158.7599 C   0  0  0  0  0  0  0  0  0  0  0  0
  153.3106  140.3154  159.8846 C   0  0  0  0  0  0  0  0  0  0  0  0
  153.3870  141.2478  160.9356 C   0  0  0  0  0  0  0  0  0  0  0  0
  152.6508  142.4448  160.8700 C   0  0  0  0  0  0  0  0  0  0  0  0
  151.8356  142.7154  159.7505 C   0  0  0  0  0  0  0  0  0  0  0  0
  151.0295  144.0039  159.6741 C   0  0  0  0  0  0  0  0  0  0  0  0
  151.5092  144.8023  158.7198 F   0  0  0  0  0  0  0  0  0  0  0  0
  149.7608  143.7113  159.3911 F   0  0  0  0  0  0  0  0  0  0  0  0
  151.0683  144.6677  160.8299 F   0  0  0  0  0  0  0  0  0  0  0  0
  151.7571  141.7703  158.7042 C   0  0  0  0  0  0  0  0  0  0  0  0
  148.9535  140.0034  154.5498 C   0  0  0  0  0  0  0  0  0  0  0  0
  149.4264  141.0830  154.1894 O   0  0  0  0  0  0  0  0  0  0  0  0
  147.5379  139.8342  154.9160 C   0  0  0  0  0  0  0  0  0  0  0  0
  146.6476  141.0673  154.8241 C   0  0  0  0  0  0  0  0  0  0  0  0
  144.9771  138.5678  154.8849 H   0  0  0  0  0  0  0  0  0  0  0  0
  145.3723  138.9549  156.5686 H   0  0  0  0  0  0  0  0  0  0  0  0
  145.5039  137.2963  155.9854 H   0  0  0  0  0  0  0  0  0  0  0  0
  149.9120  136.8224  155.1048 H   0  0  0  0  0  0  0  0  0  0  0  0
  151.4160  138.1298  153.5668 H   0  0  0  0  0  0  0  0  0  0  0  0
  151.3684  139.8358  153.7843 H   0  0  0  0  0  0  0  0  0  0  0  0
  151.9854  137.7756  155.9753 H   0  0  0  0  0  0  0  0  0  0  0  0
  153.9496  138.9069  155.9042 H   0  0  0  0  0  0  0  0  0  0  0  0
  151.7746  140.8279  156.2464 H   0  0  0  0  0  0  0  0  0  0  0  0
  150.6287  139.6688  156.9205 H   0  0  0  0  0  0  0  0  0  0  0  0
  153.8802  139.3993  159.9433 H   0  0  0  0  0  0  0  0  0  0  0  0
  154.0109  141.0434  161.7933 H   0  0  0  0  0  0  0  0  0  0  0  0
  152.7145  143.1510  161.6846 H   0  0  0  0  0  0  0  0  0  0  0  0
  151.1172  141.9927  157.8642 H   0  0  0  0  0  0  0  0  0  0  0  0
  147.0228  141.8515  155.4824 H   0  0  0  0  0  0  0  0  0  0  0  0
  145.6133  140.8725  155.1024 H   0  0  0  0  0  0  0  0  0  0  0  0
  146.6447  141.4535  153.8042 H   0  0  0  0  0  0  0  0  0  0  0  0
  1  2  1  0  0  0  0
  1 25  1  0  0  0  0
  1 26  1  0  0  0  0
  1 27  1  0  0  0  0
  2 23  2  0  0  0  0
  2  3  1  0  0  0  0
  3  4  2  0  0  0  0
  4  5  1  0  0  0  0
  4 28  1  0  0  0  0
  5  6  1  0  0  0  0
  5 21  1  0  0  0  0
  6  7  1  0  0  0  0
  6 29  1  0  0  0  0
  6 30  1  0  0  0  0
  7  8  1  0  0  0  0
  7  9  1  0  0  0  0
  7 31  1  0  0  0  0
  8 32  1  0  0  0  0
  9 10  1  0  0  0  0
  9 33  1  0  0  0  0
  9 34  1  0  0  0  0
 10 11  1  0  0  0  0
 11 20  1  0  0  0  0
 11 12  2  0  0  0  0
 12 13  1  0  0  0  0
 12 35  1  0  0  0  0
 13 14  2  0  0  0  0
 13 36  1  0  0  0  0
 14 15  1  0  0  0  0
 14 37  1  0  0  0  0
 15 16  1  0  0  0  0
 15 20  2  0  0  0  0
 16 17  1  0  0  0  0
 16 18  1  0  0  0  0
 16 19  1  0  0  0  0
 20 38  1  0  0  0  0
 21 22  2  0  0  0  0
 21 23  1  0  0  0  0
 23 24  1  0  0  0  0
 24 39  1  0  0  0  0
 24 40  1  0  0  0  0
 24 41  1  0  0  0  0
M  END
> <s_m_source_file>
AV-unprocessed.smi

> <i_m_source_file_index>
2813

> <i_lp_mmshare_version>
43012

> <i_f3d_flags>
0

> <s_epik_input>
W0NIM11jMW5bY0hdbihjKD1PKWMxW0NIM10pW0NIMl1bQ0BIXShbT0hdKVtDSDJdT2MyW2NIXVtjSF1bY0hdYyhDKEYpKEYpRilbY0hdMg==

> <s_epik_cmdline>
J2VwaWtfcHl0aG9uJywgJy1waCcsICc3LjAnLCAnLXRuJywgJzgnLCAnLW1hJywgJzIwMCcsICctbWV0YWxfYmluZGluZycsICctaW1hZScsICc8aW5maWxlLm1hZT4nLCAnLW9tYWUnLCAnPG91dGZpbGUubWFlPic=

> <r_lp_tautomer_probability>
1

> <r_epik_Ionization_Penalty>
3.72236e-05

> <r_epik_Ionization_Penalty_Charging>
8.38864e-08

> <r_epik_Ionization_Penalty_Neutral>
3.71397e-05

> <r_epik_State_Penalty>
-0

> <r_epik_Charging_Adjusted_Penalty>
8.38864e-08

> <i_epik_Tot_Q>
0

> <i_epik_Tot_abs_Q>
0

> <r_epik_Metal_State_Penalty>
-0

> <b_epik_Metal_Only>
0

> <s_lp_Force_Field>
OPLS_2005

> <r_lp_Energy>
24.625

> <b_lp_Chiralities_Consistent>
1

> <s_lp_Variant>
AV-unprocessed.smi:2813-2

> <Gold.Version>
5.8.1

> <Gold.Id.Protein>
6NUR|6NUR_protein|mol2

> <Gold.PLP.Fitness>
55.2802

> <Gold.PLP.PLP>
-51.2230

> <Gold.PLP.part.hbond>
-3.9236

> <Gold.PLP.part.metal>
0.0000

> <Gold.PLP.part.buried>
-5.1649

> <Gold.PLP.part.nonpolar>
-42.6840

> <Gold.PLP.part.repulsive>
0.8033

> <Gold.PLP.ligand.clash>
0.7623

> <Gold.PLP.ligand.torsion>
0.4624

> <Gold.PLP.Chemscore.Hbond>
1.4976

> <Gold.PLP.Chemscore.CHOScore>
0.0000

> <Gold.PLP.Chemscore.Metal>
0.0000

> <Gold.Chemscore.Hbonds>
donor molecule, donor type, donor heavy atom, donor atom, acceptor molecule, acceptor atom, score
      P1  H  7989  7998       L1    22  0.15
      P1  H  7997  8008       L1    10  0.29
      P1  H  8011  8017       L1    22  0.23

> <Gold.PLP.Chemscore.Internal.Correction>
1.2514

> <Gold.Rescore>
     Score         DG    S(hbond)    S(metal)    S(lipo)     H(rot)  DE(clash)    DE(int)     intcor
     13.00     -14.77       1.29        0.00     102.33       2.73       1.63       0.13       ----

> <Gold.Chemscore.Fitness>
13.0037

> <Gold.Chemscore.DG>
-14.7698

> <Gold.Chemscore.ZeroCoef>
-5.4800

> <Gold.Chemscore.Hbond>
1.2891

> <Gold.Chemscore.Metal>
0.0000

> <Gold.Chemscore.Lipo>
102.3326

> <Gold.Chemscore.Internal_Hbond>
0.0000

> <Gold.Chemscore.DEClash>
1.6329

> <Gold.Chemscore.DEInternal>
0.1331

> <Gold.Chemscore.Rot>
2.7300

> <Gold.Chemscore.Internal.Correction>
   9.000000E+99

> <Gold.Chemscore.Hbonds>
donor molecule, donor type, donor heavy atom, donor atom, acceptor molecule, acceptor atom, score
      P1  H  7989  7998       L1    22  0.12
      P1  H  7997  8008       L1    10  0.01
      P1  H  8011  8017       L1    22  0.23

> <Gold.Chemscore.Hbond.Weighted>
-4.3056

> <Gold.Chemscore.Metal.Weighted>
-0.0000

> <Gold.Chemscore.Lipo.Weighted>
-11.9729

> <Gold.Chemscore.Internal_Hbond.Weighted>
0.0000

> <Gold.Chemscore.DEClash.Weighted>
1.6329

> <Gold.Chemscore.DEInternal.Weighted>
0.1331

> <Gold.Chemscore.Rot.Weighted>
6.9888

> <Gold.Chemscore.Internal.Correction.Weighted>
   9.000000E+99

> <Gold.Protein.RotatedTorsions>
[ 6907 6896 6895 6894 ] final -150.44 input  -60.11 | X-H torsion
[ 7974 7965 7964 7962 ] final  -39.97 input  175.53 | X-H torsion
[ 8008 7997 7996 7995 ] final  -62.12 input   59.86 | X-H torsion
[ 10167 10162 10161 10158 ] final  131.00 input  -65.29 | X-H torsion
[ 10718 10713 10712 10709 ] final  176.60 input   66.30 | X-H torsion
[ 10763 10752 10751 10750 ] final  166.09 input  -60.55 | X-H torsion
[ 11005 11000 10999 10996 ] final -179.08 input  -57.11 | X-H torsion

> <Gold.Protein.ActiveResidues>
 VAL166  LYS551  ARG553  GLY616  TRP617  ASP618  TYR619  PRO620  LYS621  CYS622 
 ASP623  PHE694  ASN695  SER759  ASP760  ASP761  ALA762  ILE779  LEU786  VAL792 
 PHE793  MET794  SER795  GLU796  ALA797  LYS798  CYS799  TRP800  GLU811  SER814 

> <Gold.Protein.RotatedAtoms>
  151.1986  133.4624  159.2595 H   0  0  0  0  0  0  0  0  0  0  0  0  # atno 6907 bound_to 6896
  151.1092  135.0017  159.8496 H   0  0  0  0  0  0  0  0  0  0  0  0  # atno 6908 bound_to 6896
  152.5449  134.1906  159.8725 H   0  0  0  0  0  0  0  0  0  0  0  0  # atno 6909 bound_to 6896
  146.0347  140.6686  142.9115 H   0  0  0  0  0  0  0  0  0  0  0  0  # atno 7974 bound_to 7965
  154.4483  140.1003  156.6538 H   0  0  0  0  0  0  0  0  0  0  0  0  # atno 8008 bound_to 7997
  155.5368  140.3482  155.4419 H   0  0  0  0  0  0  0  0  0  0  0  0  # atno 8009 bound_to 7997
  156.0625  140.1330  156.9913 H   0  0  0  0  0  0  0  0  0  0  0  0  # atno 8010 bound_to 7997
  139.5404  144.6724  151.4645 H   0  0  0  0  0  0  0  0  0  0  0  0  # atno 10167 bound_to 10162
  156.9177  130.9930  151.3010 H   0  0  0  0  0  0  0  0  0  0  0  0  # atno 10718 bound_to 10713
  154.3338  135.2754  155.2458 H   0  0  0  0  0  0  0  0  0  0  0  0  # atno 10763 bound_to 10752
  154.4758  135.5871  153.6357 H   0  0  0  0  0  0  0  0  0  0  0  0  # atno 10764 bound_to 10752
  152.9864  135.6099  154.3533 H   0  0  0  0  0  0  0  0  0  0  0  0  # atno 10765 bound_to 10752
  140.4226  134.6591  157.4672 H   0  0  0  0  0  0  0  0  0  0  0  0  # atno 11005 bound_to 11000
  144.7046  140.3800  143.7128 LP  0  0  0  0  0  0  0  0  0  0  0  0  # atno 17320 bound_to 7965
  145.6983  139.1655  143.2607 LP  0  0  0  0  0  0  0  0  0  0  0  0  # atno 17321 bound_to 7965
  140.6631  143.8456  150.6910 LP  0  0  0  0  0  0  0  0  0  0  0  0  # atno 17342 bound_to 10162
  140.1857  143.4078  152.1900 LP  0  0  0  0  0  0  0  0  0  0  0  0  # atno 17343 bound_to 10162
  157.5927  130.8455  149.8683 LP  0  0  0  0  0  0  0  0  0  0  0  0  # atno 17370 bound_to 10713
  156.0505  130.3718  150.1212 LP  0  0  0  0  0  0  0  0  0  0  0  0  # atno 17371 bound_to 10713
  140.0189  134.6577  155.9268 LP  0  0  0  0  0  0  0  0  0  0  0  0  # atno 17394 bound_to 11000
  141.1778  133.6542  156.4897 LP  0  0  0  0  0  0  0  0  0  0  0  0  # atno 17395 bound_to 11000

$$$$
