AV-unprocessed.smi:2439|AV-procd|sdf|9603|dock4
  -GOLD-   2272013233D 1   1.00000     0.00000
 Structure written by MMmdl.
 41 43  0  0  0  0  0  0  0  0  2 V2000
  145.6263  132.4049  158.5030 N   0  0  0  0  0  0  0  0  0  0  0  0
  146.3121  133.2645  158.8627 C   0  0  0  0  0  0  0  0  0  0  0  0
  147.1771  134.3477  159.3147 C   0  0  0  0  0  0  0  0  0  0  0  0
  146.8701  135.0079  160.5228 C   0  0  0  0  0  0  0  0  0  0  0  0
  147.7040  136.0508  160.9653 C   0  0  0  0  0  0  0  0  0  0  0  0
  148.8164  136.3942  160.1763 C   0  0  0  0  0  0  0  0  0  0  0  0
  149.1218  135.7710  159.0190 N   0  0  0  0  0  0  0  0  0  0  0  0
  148.3234  134.7645  158.5855 C   0  0  0  0  0  0  0  0  0  0  0  0
  148.6639  134.1348  157.3735 N   0  0  0  0  0  0  0  0  0  0  0  0
  149.6126  134.7219  156.4347 C   0  0  0  0  0  0  0  0  0  0  0  0
  149.1630  134.5696  154.9718 C   0  0  2  0  0  0  0  0  0  0  0  0
  147.7467  135.1311  154.7540 C   0  0  0  0  0  0  0  0  0  0  0  0
  147.3095  134.9107  153.3562 N   0  3  2  0  0  0  0  0  0  0  0  0
  145.9637  135.4777  153.0881 C   0  0  0  0  0  0  0  0  0  0  0  0
  145.5811  135.3165  151.6082 C   0  0  0  0  0  0  0  0  0  0  0  0
  145.6548  133.8445  151.1829 C   0  0  0  0  0  0  0  0  0  0  0  0
  147.0453  133.2757  151.4959 C   0  0  0  0  0  0  0  0  0  0  0  0
  147.4097  133.4741  152.9807 C   0  0  1  0  0  0  0  0  0  0  0  0
  148.8268  132.9495  153.2852 C   0  0  0  0  0  0  0  0  0  0  0  0
  149.1462  133.1827  154.6510 O   0  0  0  0  0  0  0  0  0  0  0  0
  146.0073  134.7224  161.1077 H   0  0  0  0  0  0  0  0  0  0  0  0
  147.4954  136.5749  161.8862 H   0  0  0  0  0  0  0  0  0  0  0  0
  149.4801  137.1892  160.4824 H   0  0  0  0  0  0  0  0  0  0  0  0
  148.3266  133.2002  157.1914 H   0  0  0  0  0  0  0  0  0  0  0  0
  149.7302  135.7783  156.6775 H   0  0  0  0  0  0  0  0  0  0  0  0
  150.5935  134.2681  156.5812 H   0  0  0  0  0  0  0  0  0  0  0  0
  149.8605  135.0915  154.3145 H   0  0  0  0  0  0  0  0  0  0  0  0
  147.0425  134.6537  155.4376 H   0  0  0  0  0  0  0  0  0  0  0  0
  147.7343  136.1994  154.9742 H   0  0  0  0  0  0  0  0  0  0  0  0
  145.2254  134.9843  153.7225 H   0  0  0  0  0  0  0  0  0  0  0  0
  145.9543  136.5356  153.3539 H   0  0  0  0  0  0  0  0  0  0  0  0
  144.5761  135.7038  151.4386 H   0  0  0  0  0  0  0  0  0  0  0  0
  146.2522  135.9126  150.9884 H   0  0  0  0  0  0  0  0  0  0  0  0
  144.8929  133.2688  151.7101 H   0  0  0  0  0  0  0  0  0  0  0  0
  145.4391  133.7484  150.1183 H   0  0  0  0  0  0  0  0  0  0  0  0
  147.0744  132.2157  151.2413 H   0  0  0  0  0  0  0  0  0  0  0  0
  147.7878  133.7652  150.8639 H   0  0  0  0  0  0  0  0  0  0  0  0
  146.6991  132.9146  153.5922 H   0  0  0  0  0  0  0  0  0  0  0  0
  148.8809  131.8776  153.0937 H   0  0  0  0  0  0  0  0  0  0  0  0
  149.5701  133.4240  152.6422 H   0  0  0  0  0  0  0  0  0  0  0  0
  147.9591  135.4110  152.7663 H   0  0  0  0  0  0  0  0  0  0  0  0
  1  2  3  0  0  0  0
  2  3  1  0  0  0  0
  3  8  1  0  0  0  0
  3  4  2  0  0  0  0
  4  5  1  0  0  0  0
  4 21  1  0  0  0  0
  5  6  2  0  0  0  0
  5 22  1  0  0  0  0
  6  7  1  0  0  0  0
  6 23  1  0  0  0  0
  7  8  2  0  0  0  0
  8  9  1  0  0  0  0
  9 10  1  0  0  0  0
  9 24  1  0  0  0  0
 10 11  1  0  0  0  0
 10 25  1  0  0  0  0
 10 26  1  0  0  0  0
 11 20  1  0  0  0  0
 11 12  1  0  0  0  0
 11 27  1  0  0  0  0
 12 13  1  0  0  0  0
 12 28  1  0  0  0  0
 12 29  1  0  0  0  0
 13 18  1  0  0  0  0
 13 14  1  0  0  0  0
 13 41  1  0  0  0  0
 14 15  1  0  0  0  0
 14 30  1  0  0  0  0
 14 31  1  0  0  0  0
 15 16  1  0  0  0  0
 15 32  1  0  0  0  0
 15 33  1  0  0  0  0
 16 17  1  0  0  0  0
 16 34  1  0  0  0  0
 16 35  1  0  0  0  0
 17 18  1  0  0  0  0
 17 36  1  0  0  0  0
 17 37  1  0  0  0  0
 18 19  1  0  0  0  0
 18 38  1  0  0  0  0
 19 20  1  0  0  0  0
 19 39  1  0  0  0  0
 19 40  1  0  0  0  0
M  CHG  1  13   1
M  END
> <s_m_source_file>
AV-unprocessed.smi

> <i_m_source_file_index>
2439

> <i_lp_mmshare_version>
43012

> <i_f3d_flags>
0

> <s_epik_input>
TiNDYzFbY0hdW2NIXVtjSF1uYzFbTkhdW0NIMl1bQ0BIXShbQ0gyXTIpT1tDSDJdW0NAQEhdKE4yMylbQ0gyXVtDSDJdW0NIMl1bQ0gyXTM=

> <s_epik_cmdline>
J2VwaWtfcHl0aG9uJywgJy1waCcsICc3LjAnLCAnLXRuJywgJzgnLCAnLW1hJywgJzIwMCcsICctbWV0YWxfYmluZGluZycsICctaW1hZScsICc8aW5maWxlLm1hZT4nLCAnLW9tYWUnLCAnPG91dGZpbGUubWFlPic=

> <r_epik_Ionization_Penalty>
0.0803594

> <r_epik_Ionization_Penalty_Charging>
0.0803403

> <r_epik_Ionization_Penalty_Neutral>
1.90988e-05

> <r_epik_State_Penalty>
0.0711481

> <r_epik_Charging_Adjusted_Penalty>
0.151488

> <i_epik_Tot_Q>
1

> <i_epik_Tot_abs_Q>
1

> <r_epik_Metal_State_Penalty>
0.0711482

> <b_epik_Metal_Only>
0

> <s_lp_Force_Field>
OPLS_2005

> <r_lp_Energy>
27.3027

> <b_lp_Chiralities_Consistent>
1

> <s_lp_Variant>
AV-unprocessed.smi:2439-1

> <Gold.Version>
5.8.1

> <Gold.Id.Protein>
6NUR|6NUR_protein|mol2

> <Gold.PLP.Fitness>
34.2219

> <Gold.PLP.PLP>
-25.6106

> <Gold.PLP.part.hbond>
-2.0000

> <Gold.PLP.part.metal>
0.0000

> <Gold.PLP.part.buried>
-3.9319

> <Gold.PLP.part.nonpolar>
-20.9572

> <Gold.PLP.part.repulsive>
0.1360

> <Gold.PLP.ligand.clash>
0.0000

> <Gold.PLP.ligand.torsion>
0.1962

> <Gold.PLP.Chemscore.Hbond>
3.0000

> <Gold.PLP.Chemscore.CHOScore>
0.0000

> <Gold.PLP.Chemscore.Metal>
0.0000

> <Gold.Chemscore.Hbonds>
donor molecule, donor type, donor heavy atom, donor atom, acceptor molecule, acceptor atom, score
      L1  H    13    41       P1  7948  2.00
      P1  H  6896  6908       L1     7  1.00

> <Gold.PLP.Chemscore.Internal.Correction>
0.0037

> <Gold.Rescore>
     Score         DG    S(hbond)    S(metal)    S(lipo)     H(rot)  DE(clash)    DE(int)     intcor
     12.89     -13.11       1.02        0.00      63.80       1.27       0.00       0.22       ----

> <Gold.Chemscore.Fitness>
12.8896

> <Gold.Chemscore.DG>
-13.1095

> <Gold.Chemscore.ZeroCoef>
-5.4800

> <Gold.Chemscore.Hbond>
1.0195

> <Gold.Chemscore.Metal>
0.0000

> <Gold.Chemscore.Lipo>
63.8041

> <Gold.Chemscore.Internal_Hbond>
0.0000

> <Gold.Chemscore.DEClash>
0.0048

> <Gold.Chemscore.DEInternal>
0.2151

> <Gold.Chemscore.Rot>
1.2659

> <Gold.Chemscore.Internal.Correction>
   9.000000E+99

> <Gold.Chemscore.Hbonds>
donor molecule, donor type, donor heavy atom, donor atom, acceptor molecule, acceptor atom, score
      L1  H    13    41       P1  7948  0.95
      P1  H  6896  6908       L1     7  0.06

> <Gold.Chemscore.Hbond.Weighted>
-3.4052

> <Gold.Chemscore.Metal.Weighted>
-0.0000

> <Gold.Chemscore.Lipo.Weighted>
-7.4651

> <Gold.Chemscore.Internal_Hbond.Weighted>
0.0000

> <Gold.Chemscore.DEClash.Weighted>
0.0048

> <Gold.Chemscore.DEInternal.Weighted>
0.2151

> <Gold.Chemscore.Rot.Weighted>
3.2408

> <Gold.Chemscore.Internal.Correction.Weighted>
   9.000000E+99

> <Gold.Protein.RotatedTorsions>
[ 6907 6896 6895 6894 ] final  178.54 input  -60.11 | X-H torsion
[ 7974 7965 7964 7962 ] final -133.90 input  175.53 | X-H torsion
[ 8008 7997 7996 7995 ] final   69.60 input   59.86 | X-H torsion
[ 10167 10162 10161 10158 ] final   59.17 input  -65.29 | X-H torsion
[ 10718 10713 10712 10709 ] final -132.72 input   66.30 | X-H torsion
[ 10763 10752 10751 10750 ] final  146.72 input  -60.55 | X-H torsion
[ 11005 11000 10999 10996 ] final  117.69 input  -57.11 | X-H torsion

> <Gold.Protein.ActiveResidues>
 VAL166  LYS551  ARG553  GLY616  TRP617  ASP618  TYR619  PRO620  LYS621  CYS622 
 ASP623  PHE694  ASN695  SER759  ASP760  ASP761  ALA762  ILE779  LEU786  VAL792 
 PHE793  MET794  SER795  GLU796  ALA797  LYS798  CYS799  TRP800  GLU811  SER814 

> <Gold.Protein.RotatedAtoms>
  151.6862  133.3311  159.3231 H   0  0  0  0  0  0  0  0  0  0  0  0  # atno 6907 bound_to 6896
  150.7800  134.6738  159.6416 H   0  0  0  0  0  0  0  0  0  0  0  0  # atno 6908 bound_to 6896
  152.3854  134.6528  160.0179 H   0  0  0  0  0  0  0  0  0  0  0  0  # atno 6909 bound_to 6896
  144.9151  140.6944  143.5000 H   0  0  0  0  0  0  0  0  0  0  0  0  # atno 7974 bound_to 7965
  155.7260  140.3492  155.5037 H   0  0  0  0  0  0  0  0  0  0  0  0  # atno 8008 bound_to 7997
  155.9226  140.1070  157.1217 H   0  0  0  0  0  0  0  0  0  0  0  0  # atno 8009 bound_to 7997
  154.4072  140.1246  156.4686 H   0  0  0  0  0  0  0  0  0  0  0  0  # atno 8010 bound_to 7997
  140.1793  144.4198  150.6623 H   0  0  0  0  0  0  0  0  0  0  0  0  # atno 10167 bound_to 10162
  156.2375  130.7075  151.0923 H   0  0  0  0  0  0  0  0  0  0  0  0  # atno 10718 bound_to 10713
  154.0265  135.2901  155.3374 H   0  0  0  0  0  0  0  0  0  0  0  0  # atno 10763 bound_to 10752
  154.7014  135.5187  153.8535 H   0  0  0  0  0  0  0  0  0  0  0  0  # atno 10764 bound_to 10752
  153.0658  135.6630  154.0482 H   0  0  0  0  0  0  0  0  0  0  0  0  # atno 10765 bound_to 10752
  139.9083  134.9613  156.7389 H   0  0  0  0  0  0  0  0  0  0  0  0  # atno 11005 bound_to 11000
  145.3389  139.1738  143.4496 LP  0  0  0  0  0  0  0  0  0  0  0  0  # atno 17320 bound_to 7965
  146.3178  140.3427  142.8649 LP  0  0  0  0  0  0  0  0  0  0  0  0  # atno 17321 bound_to 7965
  140.6530  143.2230  151.6033 LP  0  0  0  0  0  0  0  0  0  0  0  0  # atno 17342 bound_to 10162
  139.5303  144.2936  152.1132 LP  0  0  0  0  0  0  0  0  0  0  0  0  # atno 17343 bound_to 10162
  157.7161  131.0709  150.6322 LP  0  0  0  0  0  0  0  0  0  0  0  0  # atno 17370 bound_to 10713
  156.6393  130.4454  149.5758 LP  0  0  0  0  0  0  0  0  0  0  0  0  # atno 17371 bound_to 10713
  140.6865  133.9428  155.7941 LP  0  0  0  0  0  0  0  0  0  0  0  0  # atno 17394 bound_to 11000
  141.0472  134.0536  157.3829 LP  0  0  0  0  0  0  0  0  0  0  0  0  # atno 17395 bound_to 11000

$$$$
