AV-unprocessed.smi:3191|AV-procd|sdf|12199|dock4
  -GOLD-   2272018 33D 1   1.00000     0.00000
 Structure written by MMmdl.
 35 36  0  0  0  0  0  0  0  0  1 V2000
  152.9781  142.7327  160.8246 C   0  0  0  0  0  0  0  0  0  0  0  0
  152.0425  143.5673  160.0979 N   0  0  0  0  0  0  0  0  0  0  0  0
  151.8291  144.8783  160.2745 C   0  0  0  0  0  0  0  0  0  0  0  0
  150.9123  145.3990  159.4706 N   0  0  0  0  0  0  0  0  0  0  0  0
  150.4946  144.3166  158.7013 C   0  0  0  0  0  0  0  0  0  0  0  0
  151.1804  143.1801  159.0755 C   0  0  0  0  0  0  0  0  0  0  0  0
  151.1022  141.7740  158.5644 C   0  0  0  0  0  0  0  0  0  0  0  0
  150.9229  141.6648  157.0399 C   0  0  0  0  0  0  0  0  0  0  0  0
  150.9379  140.2759  156.5955 N   0  0  0  0  0  0  0  0  0  0  0  0
  151.8583  139.7362  155.7820 C   0  0  0  0  0  0  0  0  0  0  0  0
  152.8037  140.3803  155.3259 O   0  0  0  0  0  0  0  0  0  0  0  0
  151.6294  138.2843  155.4950 C   0  0  2  0  0  0  0  0  0  0  0  0
  151.7833  137.8093  154.0648 C   0  0  0  0  0  0  0  0  0  0  0  0
  150.4079  137.8380  154.6936 C   0  0  0  0  0  0  0  0  0  0  0  0
  149.7365  136.5347  155.0899 C   0  0  0  0  0  0  0  0  0  0  0  0
  149.3643  138.8124  154.1610 C   0  0  0  0  0  0  0  0  0  0  0  0
  151.9617  137.5990  156.2737 H   0  0  0  0  0  0  0  0  0  0  0  0
  153.5339  143.3294  161.5486 H   0  0  0  0  0  0  0  0  0  0  0  0
  153.6821  142.2763  160.1282 H   0  0  0  0  0  0  0  0  0  0  0  0
  152.4368  141.9480  161.3535 H   0  0  0  0  0  0  0  0  0  0  0  0
  152.3583  145.4665  161.0101 H   0  0  0  0  0  0  0  0  0  0  0  0
  149.7363  144.4389  157.9418 H   0  0  0  0  0  0  0  0  0  0  0  0
  152.0069  141.2423  158.8616 H   0  0  0  0  0  0  0  0  0  0  0  0
  150.2751  141.2629  159.0586 H   0  0  0  0  0  0  0  0  0  0  0  0
  149.9679  142.1006  156.7446 H   0  0  0  0  0  0  0  0  0  0  0  0
  151.6984  142.2299  156.5198 H   0  0  0  0  0  0  0  0  0  0  0  0
  150.1928  139.6818  156.9296 H   0  0  0  0  0  0  0  0  0  0  0  0
  152.0006  138.5439  153.2911 H   0  0  0  0  0  0  0  0  0  0  0  0
  152.2609  136.8427  153.9174 H   0  0  0  0  0  0  0  0  0  0  0  0
  149.2427  136.0826  154.2291 H   0  0  0  0  0  0  0  0  0  0  0  0
  148.9917  136.7128  155.8661 H   0  0  0  0  0  0  0  0  0  0  0  0
  150.4679  135.8227  155.4739 H   0  0  0  0  0  0  0  0  0  0  0  0
  148.7216  138.3201  153.4307 H   0  0  0  0  0  0  0  0  0  0  0  0
  149.8256  139.6644  153.6634 H   0  0  0  0  0  0  0  0  0  0  0  0
  148.7411  139.1811  154.9763 H   0  0  0  0  0  0  0  0  0  0  0  0
  1  2  1  0  0  0  0
  1 18  1  0  0  0  0
  1 19  1  0  0  0  0
  1 20  1  0  0  0  0
  2  6  1  0  0  0  0
  2  3  1  0  0  0  0
  3  4  2  0  0  0  0
  3 21  1  0  0  0  0
  4  5  1  0  0  0  0
  5  6  2  0  0  0  0
  5 22  1  0  0  0  0
  6  7  1  0  0  0  0
  7  8  1  0  0  0  0
  7 23  1  0  0  0  0
  7 24  1  0  0  0  0
  8  9  1  0  0  0  0
  8 25  1  0  0  0  0
  8 26  1  0  0  0  0
  9 10  1  0  0  0  0
  9 27  1  0  0  0  0
 10 11  2  0  0  0  0
 10 12  1  0  0  0  0
 12 17  1  0  0  0  0
 12 14  1  0  0  0  0
 12 13  1  0  0  0  0
 13 14  1  0  0  0  0
 13 28  1  0  0  0  0
 13 29  1  0  0  0  0
 14 15  1  0  0  0  0
 14 16  1  0  0  0  0
 15 30  1  0  0  0  0
 15 31  1  0  0  0  0
 15 32  1  0  0  0  0
 16 33  1  0  0  0  0
 16 34  1  0  0  0  0
 16 35  1  0  0  0  0
M  END
> <s_m_source_file>
AV-unprocessed.smi

> <i_m_source_file_index>
3191

> <i_lp_mmshare_version>
43012

> <i_f3d_flags>
0

> <s_epik_input>
W0NIM11uMVtjSF1uW2NIXWMxW0NIMl1bQ0gyXVtOSF1DKD1PKVtDQEBIXShbQ0gyXTIpQzIoW0NIM10pW0NIM10=

> <s_epik_cmdline>
J2VwaWtfcHl0aG9uJywgJy1waCcsICc3LjAnLCAnLXRuJywgJzgnLCAnLW1hJywgJzIwMCcsICctbWV0YWxfYmluZGluZycsICctaW1hZScsICc8aW5maWxlLm1hZT4nLCAnLW9tYWUnLCAnPG91dGZpbGUubWFlPic=

> <r_lp_tautomer_probability>
1

> <r_epik_Ionization_Penalty>
0.874249

> <r_epik_Ionization_Penalty_Charging>
0.874249

> <r_epik_Ionization_Penalty_Neutral>
1.97773e-08

> <r_epik_State_Penalty>
0.911868

> <r_epik_Charging_Adjusted_Penalty>
1.78612

> <i_epik_Tot_Q>
0

> <i_epik_Tot_abs_Q>
0

> <r_epik_Metal_State_Penalty>
0.361186

> <b_epik_Metal_Only>
0

> <s_lp_Force_Field>
OPLS_2005

> <r_lp_Energy>
11.6999

> <b_lp_Chiralities_Consistent>
1

> <s_lp_Variant>
AV-unprocessed.smi:3191-4

> <Gold.Version>
5.8.1

> <Gold.Id.Protein>
6NUR|6NUR_protein|mol2

> <Gold.PLP.Fitness>
39.5164

> <Gold.PLP.PLP>
-32.6138

> <Gold.PLP.part.hbond>
-2.2715

> <Gold.PLP.part.metal>
0.0000

> <Gold.PLP.part.buried>
-2.7082

> <Gold.PLP.part.nonpolar>
-28.7670

> <Gold.PLP.part.repulsive>
0.2313

> <Gold.PLP.ligand.clash>
0.0000

> <Gold.PLP.ligand.torsion>
0.5455

> <Gold.PLP.Chemscore.Hbond>
1.4719

> <Gold.PLP.Chemscore.CHOScore>
1.1625

> <Gold.PLP.Chemscore.Metal>
0.0000

> <Gold.Chemscore.Hbonds>
donor molecule, donor type, donor heavy atom, donor atom, acceptor molecule, acceptor atom, score
      P1  H  7989  7998       L1    11  0.13
      P1  H  7997  8009       L1    11  1.00
      L1  C     5    22       P1  8028  0.60
      L1  C     5    22       P1  8029  0.51

> <Gold.PLP.Chemscore.Internal.Correction>
0.0904

> <Gold.Rescore>
     Score         DG    S(hbond)    S(metal)    S(lipo)     H(rot)  DE(clash)    DE(int)     intcor
     12.57     -13.17       1.00        0.00      74.21       1.69       0.15       0.45       ----

> <Gold.Chemscore.Fitness>
12.5680

> <Gold.Chemscore.DG>
-13.1710

> <Gold.Chemscore.ZeroCoef>
-5.4800

> <Gold.Chemscore.Hbond>
0.9998

> <Gold.Chemscore.Metal>
0.0000

> <Gold.Chemscore.Lipo>
74.2134

> <Gold.Chemscore.Internal_Hbond>
0.0000

> <Gold.Chemscore.DEClash>
0.1534

> <Gold.Chemscore.DEInternal>
0.4496

> <Gold.Chemscore.Rot>
1.6919

> <Gold.Chemscore.Internal.Correction>
   9.000000E+99

> <Gold.Chemscore.Hbonds>
donor molecule, donor type, donor heavy atom, donor atom, acceptor molecule, acceptor atom, score
      P1  H  7989  7998       L1    11  0.01
      P1  H  7997  8009       L1    11  0.88

> <Gold.Chemscore.Hbond.Weighted>
-3.3392

> <Gold.Chemscore.Metal.Weighted>
-0.0000

> <Gold.Chemscore.Lipo.Weighted>
-8.6830

> <Gold.Chemscore.Internal_Hbond.Weighted>
0.0000

> <Gold.Chemscore.DEClash.Weighted>
0.1534

> <Gold.Chemscore.DEInternal.Weighted>
0.4496

> <Gold.Chemscore.Rot.Weighted>
4.3312

> <Gold.Chemscore.Internal.Correction.Weighted>
   9.000000E+99

> <Gold.Protein.RotatedTorsions>
[ 6907 6896 6895 6894 ] final   42.90 input  -60.11 | X-H torsion
[ 7974 7965 7964 7962 ] final -125.55 input  175.53 | X-H torsion
[ 8008 7997 7996 7995 ] final -152.43 input   59.86 | X-H torsion
[ 10167 10162 10161 10158 ] final -144.11 input  -65.29 | X-H torsion
[ 10718 10713 10712 10709 ] final  107.21 input   66.30 | X-H torsion
[ 10763 10752 10751 10750 ] final -157.07 input  -60.55 | X-H torsion
[ 11005 11000 10999 10996 ] final  161.41 input  -57.11 | X-H torsion

> <Gold.Protein.ActiveResidues>
 VAL166  LYS551  ARG553  GLY616  TRP617  ASP618  TYR619  PRO620  LYS621  CYS622 
 ASP623  PHE694  ASN695  SER759  ASP760  ASP761  ALA762  ILE779  LEU786  VAL792 
 PHE793  MET794  SER795  GLU796  ALA797  LYS798  CYS799  TRP800  GLU811  SER814 

> <Gold.Protein.RotatedAtoms>
  152.2136  134.8478  160.0494 H   0  0  0  0  0  0  0  0  0  0  0  0  # atno 6907 bound_to 6896
  151.9288  133.3600  159.3931 H   0  0  0  0  0  0  0  0  0  0  0  0  # atno 6908 bound_to 6896
  150.6982  134.4484  159.5369 H   0  0  0  0  0  0  0  0  0  0  0  0  # atno 6909 bound_to 6896
  144.9964  140.7780  143.4522 H   0  0  0  0  0  0  0  0  0  0  0  0  # atno 7974 bound_to 7965
  155.6551  140.0716  157.2573 H   0  0  0  0  0  0  0  0  0  0  0  0  # atno 8008 bound_to 7997
  154.4154  140.1726  156.1766 H   0  0  0  0  0  0  0  0  0  0  0  0  # atno 8009 bound_to 7997
  155.9744  140.3359  155.6608 H   0  0  0  0  0  0  0  0  0  0  0  0  # atno 8010 bound_to 7997
  139.7930  143.7939  152.2651 H   0  0  0  0  0  0  0  0  0  0  0  0  # atno 10167 bound_to 10162
  157.6638  131.0867  150.6122 H   0  0  0  0  0  0  0  0  0  0  0  0  # atno 10718 bound_to 10713
  154.7665  135.3132  154.8276 H   0  0  0  0  0  0  0  0  0  0  0  0  # atno 10763 bound_to 10752
  153.9023  135.6814  153.4759 H   0  0  0  0  0  0  0  0  0  0  0  0  # atno 10764 bound_to 10752
  153.1271  135.4796  154.9223 H   0  0  0  0  0  0  0  0  0  0  0  0  # atno 10765 bound_to 10752
  140.2156  134.8235  157.3166 H   0  0  0  0  0  0  0  0  0  0  0  0  # atno 11005 bound_to 11000
  145.2213  139.2157  143.5091 LP  0  0  0  0  0  0  0  0  0  0  0  0  # atno 17320 bound_to 7965
  146.3443  140.2072  142.8589 LP  0  0  0  0  0  0  0  0  0  0  0  0  # atno 17321 bound_to 7965
  139.8036  144.7364  150.9791 LP  0  0  0  0  0  0  0  0  0  0  0  0  # atno 17342 bound_to 10162
  140.7820  143.4320  151.0680 LP  0  0  0  0  0  0  0  0  0  0  0  0  # atno 17343 bound_to 10162
  156.6423  130.4462  149.5748 LP  0  0  0  0  0  0  0  0  0  0  0  0  # atno 17370 bound_to 10713
  156.2200  130.6731  151.1358 LP  0  0  0  0  0  0  0  0  0  0  0  0  # atno 17371 bound_to 10713
  140.1905  134.4378  155.7719 LP  0  0  0  0  0  0  0  0  0  0  0  0  # atno 17394 bound_to 11000
  141.2225  133.7025  156.8018 LP  0  0  0  0  0  0  0  0  0  0  0  0  # atno 17395 bound_to 11000

$$$$
