AV-unprocessed.smi:1525|AV-procd|sdf|6141|dock5
  -GOLD-   22720 6283D 1   1.00000     0.00000
 Structure written by MMmdl.
 48 50  0  0  0  0  0  0  0  0  1 V2000
  145.5119  138.2659  153.7933 O   0  0  0  0  0  0  0  0  0  0  0  0
  146.4891  137.6996  153.3043 C   0  0  0  0  0  0  0  0  0  0  0  0
  146.4656  136.4388  152.8489 N   0  0  0  0  0  0  0  0  0  0  0  0
  145.3134  135.5441  152.9005 C   0  0  0  0  0  0  0  0  0  0  0  0
  145.7163  134.0837  152.6148 C   0  0  0  0  0  0  0  0  0  0  0  0
  145.2112  133.5235  151.3612 N   0  0  0  0  0  0  0  0  0  0  0  0
  145.9981  132.3844  150.8939 C   0  0  0  0  0  0  0  0  0  0  0  0
  145.4471  131.8137  149.5758 C   0  0  0  0  0  0  0  0  0  0  0  0
  144.0808  131.4502  149.7466 O   0  0  0  0  0  0  0  0  0  0  0  0
  143.2698  132.5432  150.1655 C   0  0  0  0  0  0  0  0  0  0  0  0
  143.8169  133.1151  151.4851 C   0  0  0  0  0  0  0  0  0  0  0  0
  147.7134  138.2372  153.1716 N   0  0  0  0  0  0  0  0  0  0  0  0
  148.1798  139.5103  153.6090 C   0  0  0  0  0  0  0  0  0  0  0  0
  147.3349  140.6473  153.6486 C   0  0  0  0  0  0  0  0  0  0  0  0
  147.8446  141.8707  154.1158 C   0  0  0  0  0  0  0  0  0  0  0  0
  149.1871  141.9182  154.5250 C   0  0  0  0  0  0  0  0  0  0  0  0
  150.0106  140.8525  154.4731 N   0  0  0  0  0  0  0  0  0  0  0  0
  149.5377  139.6687  154.0110 C   0  0  0  0  0  0  0  0  0  0  0  0
  150.4546  138.5936  153.9569 N   0  0  0  0  0  0  0  0  0  0  0  0
  151.8765  138.9004  154.0799 C   0  0  0  0  0  0  0  0  0  0  0  0
  152.4988  137.7565  154.8878 C   0  0  0  0  0  0  0  0  0  0  0  0
  151.5084  136.6101  154.7107 C   0  0  0  0  0  0  0  0  0  0  0  0
  150.1712  137.3424  154.6525 C   0  0  0  0  0  0  0  0  0  0  0  0
  147.3177  136.0575  152.4653 H   0  0  0  0  0  0  0  0  0  0  0  0
  144.7748  135.6417  153.8434 H   0  0  0  0  0  0  0  0  0  0  0  0
  144.6162  135.8731  152.1298 H   0  0  0  0  0  0  0  0  0  0  0  0
  146.8040  134.0030  152.6340 H   0  0  0  0  0  0  0  0  0  0  0  0
  145.3612  133.4737  153.4468 H   0  0  0  0  0  0  0  0  0  0  0  0
  147.0365  132.6744  150.7397 H   0  0  0  0  0  0  0  0  0  0  0  0
  146.0030  131.6006  151.6529 H   0  0  0  0  0  0  0  0  0  0  0  0
  145.5391  132.5452  148.7712 H   0  0  0  0  0  0  0  0  0  0  0  0
  146.0163  130.9338  149.2757 H   0  0  0  0  0  0  0  0  0  0  0  0
  143.2526  133.3108  149.3902 H   0  0  0  0  0  0  0  0  0  0  0  0
  142.2446  132.1971  150.2974 H   0  0  0  0  0  0  0  0  0  0  0  0
  143.7186  132.3658  152.2721 H   0  0  0  0  0  0  0  0  0  0  0  0
  143.2066  133.9672  151.7867 H   0  0  0  0  0  0  0  0  0  0  0  0
  148.4294  137.6174  152.8223 H   0  0  0  0  0  0  0  0  0  0  0  0
  146.3072  140.6069  153.3230 H   0  0  0  0  0  0  0  0  0  0  0  0
  147.2195  142.7504  154.1616 H   0  0  0  0  0  0  0  0  0  0  0  0
  149.6146  142.8375  154.8963 H   0  0  0  0  0  0  0  0  0  0  0  0
  152.3159  138.9305  153.0827 H   0  0  0  0  0  0  0  0  0  0  0  0
  152.0503  139.8660  154.5567 H   0  0  0  0  0  0  0  0  0  0  0  0
  153.5067  137.5042  154.5581 H   0  0  0  0  0  0  0  0  0  0  0  0
  152.5490  138.0358  155.9411 H   0  0  0  0  0  0  0  0  0  0  0  0
  151.6960  136.0979  153.7661 H   0  0  0  0  0  0  0  0  0  0  0  0
  151.5559  135.8737  155.5134 H   0  0  0  0  0  0  0  0  0  0  0  0
  149.8193  137.5317  155.6675 H   0  0  0  0  0  0  0  0  0  0  0  0
  149.4131  136.7599  154.1285 H   0  0  0  0  0  0  0  0  0  0  0  0
  1  2  2  0  0  0  0
  2  3  1  0  0  0  0
  2 12  1  0  0  0  0
  3  4  1  0  0  0  0
  3 24  1  0  0  0  0
  4  5  1  0  0  0  0
  4 25  1  0  0  0  0
  4 26  1  0  0  0  0
  5  6  1  0  0  0  0
  5 27  1  0  0  0  0
  5 28  1  0  0  0  0
  6 11  1  0  0  0  0
  6  7  1  0  0  0  0
  7  8  1  0  0  0  0
  7 29  1  0  0  0  0
  7 30  1  0  0  0  0
  8  9  1  0  0  0  0
  8 31  1  0  0  0  0
  8 32  1  0  0  0  0
  9 10  1  0  0  0  0
 10 11  1  0  0  0  0
 10 33  1  0  0  0  0
 10 34  1  0  0  0  0
 11 35  1  0  0  0  0
 11 36  1  0  0  0  0
 12 13  1  0  0  0  0
 12 37  1  0  0  0  0
 13 18  1  0  0  0  0
 13 14  2  0  0  0  0
 14 15  1  0  0  0  0
 14 38  1  0  0  0  0
 15 16  2  0  0  0  0
 15 39  1  0  0  0  0
 16 17  1  0  0  0  0
 16 40  1  0  0  0  0
 17 18  2  0  0  0  0
 18 19  1  0  0  0  0
 19 23  1  0  0  0  0
 19 20  1  0  0  0  0
 20 21  1  0  0  0  0
 20 41  1  0  0  0  0
 20 42  1  0  0  0  0
 21 22  1  0  0  0  0
 21 43  1  0  0  0  0
 21 44  1  0  0  0  0
 22 23  1  0  0  0  0
 22 45  1  0  0  0  0
 22 46  1  0  0  0  0
 23 47  1  0  0  0  0
 23 48  1  0  0  0  0
M  END
> <s_m_source_file>
AV-unprocessed.smi

> <i_m_source_file_index>
1525

> <i_lp_mmshare_version>
43012

> <i_f3d_flags>
0

> <s_epik_input>
W0NIMl0xW0NIMl1PW0NIMl1bQ0gyXU4xW0NIMl1bQ0gyXVtOSF1DKD1PKVtOSF1jMltjSF1bY0hdW2NIXW5jMk4zW0NIMl1bQ0gyXVtDSDJdW0NIMl0z

> <s_epik_cmdline>
J2VwaWtfcHl0aG9uJywgJy1waCcsICc3LjAnLCAnLXRuJywgJzgnLCAnLW1hJywgJzIwMCcsICctbWV0YWxfYmluZGluZycsICctaW1hZScsICc8aW5maWxlLm1hZT4nLCAnLW9tYWUnLCAnPG91dGZpbGUubWFlPic=

> <r_lp_tautomer_probability>
1

> <r_epik_Ionization_Penalty>
0.363951

> <r_epik_Ionization_Penalty_Charging>
0

> <r_epik_Ionization_Penalty_Neutral>
0.363951

> <r_epik_State_Penalty>
0.349372

> <r_epik_Charging_Adjusted_Penalty>
0.349372

> <i_epik_Tot_Q>
0

> <i_epik_Tot_abs_Q>
0

> <r_epik_Metal_State_Penalty>
0.33306

> <b_epik_Metal_Only>
0

> <s_lp_Force_Field>
OPLS_2005

> <r_lp_Energy>
53.9404

> <b_lp_Chiralities_Consistent>
1

> <s_lp_Variant>
AV-unprocessed.smi:1525-1

> <Gold.Version>
5.8.1

> <Gold.Id.Protein>
6NUR|6NUR_protein|mol2

> <Gold.PLP.Fitness>
43.5641

> <Gold.PLP.PLP>
-34.2569

> <Gold.PLP.part.hbond>
-4.2304

> <Gold.PLP.part.metal>
0.0000

> <Gold.PLP.part.buried>
3.6767

> <Gold.PLP.part.nonpolar>
-35.2413

> <Gold.PLP.part.repulsive>
2.0760

> <Gold.PLP.ligand.clash>
0.0000

> <Gold.PLP.ligand.torsion>
1.0479

> <Gold.PLP.Chemscore.Hbond>
2.6696

> <Gold.PLP.Chemscore.CHOScore>
1.0000

> <Gold.PLP.Chemscore.Metal>
0.0000

> <Gold.Chemscore.Hbonds>
donor molecule, donor type, donor heavy atom, donor atom, acceptor molecule, acceptor atom, score
      L1  H     3    24       P1  7948  1.00
      L1  H    12    37       P1  7948  1.00
      P1  H  7989  7998       L1    17  0.62
      P1  H 10785 10796       L1     9  0.62
      L1  C    16    40       P1  8028  1.00

> <Gold.PLP.Chemscore.Internal.Correction>
0.3942

> <Gold.Rescore>
     Score         DG    S(hbond)    S(metal)    S(lipo)     H(rot)  DE(clash)    DE(int)     intcor
     15.31     -19.82       2.23        0.00      94.00       1.60       1.31       3.21       ----

> <Gold.Chemscore.Fitness>
15.3136

> <Gold.Chemscore.DG>
-19.8245

> <Gold.Chemscore.ZeroCoef>
-5.4800

> <Gold.Chemscore.Hbond>
2.2281

> <Gold.Chemscore.Metal>
0.0000

> <Gold.Chemscore.Lipo>
94.0009

> <Gold.Chemscore.Internal_Hbond>
0.0000

> <Gold.Chemscore.DEClash>
1.3055

> <Gold.Chemscore.DEInternal>
3.2054

> <Gold.Chemscore.Rot>
1.5998

> <Gold.Chemscore.Internal.Correction>
   9.000000E+99

> <Gold.Chemscore.Hbonds>
donor molecule, donor type, donor heavy atom, donor atom, acceptor molecule, acceptor atom, score
      L1  H     3    24       P1  7948  0.97
      L1  H    12    37       P1  7948  0.96
      P1  H  7989  7998       L1    17  0.12
      P1  H 10785 10796       L1     9  0.59

> <Gold.Chemscore.Hbond.Weighted>
-7.4420

> <Gold.Chemscore.Metal.Weighted>
-0.0000

> <Gold.Chemscore.Lipo.Weighted>
-10.9981

> <Gold.Chemscore.Internal_Hbond.Weighted>
0.0000

> <Gold.Chemscore.DEClash.Weighted>
1.3055

> <Gold.Chemscore.DEInternal.Weighted>
3.2054

> <Gold.Chemscore.Rot.Weighted>
4.0956

> <Gold.Chemscore.Internal.Correction.Weighted>
   9.000000E+99

> <Gold.Protein.RotatedTorsions>
[ 6907 6896 6895 6894 ] final  107.46 input  -60.11 | X-H torsion
[ 7974 7965 7964 7962 ] final   23.97 input  175.53 | X-H torsion
[ 8008 7997 7996 7995 ] final  171.90 input   59.86 | X-H torsion
[ 10167 10162 10161 10158 ] final  151.22 input  -65.29 | X-H torsion
[ 10718 10713 10712 10709 ] final  147.13 input   66.30 | X-H torsion
[ 10763 10752 10751 10750 ] final   18.51 input  -60.55 | X-H torsion
[ 11005 11000 10999 10996 ] final   63.53 input  -57.11 | X-H torsion

> <Gold.Protein.ActiveResidues>
 VAL166  LYS551  ARG553  GLY616  TRP617  ASP618  TYR619  PRO620  LYS621  CYS622 
 ASP623  PHE694  ASN695  SER759  ASP760  ASP761  ALA762  ILE779  LEU786  VAL792 
 PHE793  MET794  SER795  GLU796  ALA797  LYS798  CYS799  TRP800  GLU811  SER814 

> <Gold.Protein.RotatedAtoms>
  152.5153  133.9231  159.7543 H   0  0  0  0  0  0  0  0  0  0  0  0  # atno 6907 bound_to 6896
  150.9598  133.6449  159.2763 H   0  0  0  0  0  0  0  0  0  0  0  0  # atno 6908 bound_to 6896
  151.3697  135.0925  159.9514 H   0  0  0  0  0  0  0  0  0  0  0  0  # atno 6909 bound_to 6896
  146.1960  139.7670  142.8797 H   0  0  0  0  0  0  0  0  0  0  0  0  # atno 7974 bound_to 7965
  156.1226  140.1500  156.9182 H   0  0  0  0  0  0  0  0  0  0  0  0  # atno 8008 bound_to 7997
  154.4847  140.0869  156.7501 H   0  0  0  0  0  0  0  0  0  0  0  0  # atno 8009 bound_to 7997
  155.4401  140.3430  155.4291 H   0  0  0  0  0  0  0  0  0  0  0  0  # atno 8010 bound_to 7997
  139.4842  144.5458  151.7486 H   0  0  0  0  0  0  0  0  0  0  0  0  # atno 10167 bound_to 10162
  157.3247  131.0910  151.1212 H   0  0  0  0  0  0  0  0  0  0  0  0  # atno 10718 bound_to 10713
  153.1242  135.6726  153.9284 H   0  0  0  0  0  0  0  0  0  0  0  0  # atno 10763 bound_to 10752
  153.8790  135.3060  155.3446 H   0  0  0  0  0  0  0  0  0  0  0  0  # atno 10764 bound_to 10752
  154.7650  135.4969  153.9616 H   0  0  0  0  0  0  0  0  0  0  0  0  # atno 10765 bound_to 10752
  140.0018  134.6430  155.9918 H   0  0  0  0  0  0  0  0  0  0  0  0  # atno 11005 bound_to 11000
  145.3643  141.0331  143.3267 LP  0  0  0  0  0  0  0  0  0  0  0  0  # atno 17320 bound_to 7965
  144.8581  139.5219  143.6825 LP  0  0  0  0  0  0  0  0  0  0  0  0  # atno 17321 bound_to 7965
  140.5004  144.1177  150.5970 LP  0  0  0  0  0  0  0  0  0  0  0  0  # atno 17342 bound_to 10162
  140.4068  143.2676  151.9881 LP  0  0  0  0  0  0  0  0  0  0  0  0  # atno 17343 bound_to 10162
  157.2483  130.6602  149.5920 LP  0  0  0  0  0  0  0  0  0  0  0  0  # atno 17370 bound_to 10713
  155.9689  130.4546  150.5857 LP  0  0  0  0  0  0  0  0  0  0  0  0  # atno 17371 bound_to 10713
  141.1648  133.6537  156.4441 LP  0  0  0  0  0  0  0  0  0  0  0  0  # atno 17394 bound_to 11000
  140.4713  134.6750  157.5130 LP  0  0  0  0  0  0  0  0  0  0  0  0  # atno 17395 bound_to 11000

$$$$
