AV-unprocessed.smi:1194|AV-procd|sdf|4991|dock9
  -GOLD-   22720 3593D 1   1.00000     0.00000
 Structure written by MMmdl.
 47 48  0  0  0  0  0  0  0  0  1 V2000
  152.4246  139.2516  163.6023 C   0  0  0  0  0  0  0  0  0  0  0  0
  152.7774  140.6861  164.0109 C   0  0  0  0  0  0  0  0  0  0  0  0
  152.0973  141.7372  163.1123 C   0  0  0  0  0  0  0  0  0  0  0  0
  152.5471  141.6911  161.6399 C   0  0  0  0  0  0  0  0  0  0  0  0
  153.3826  140.8487  161.3075 O   0  0  0  0  0  0  0  0  0  0  0  0
  152.0035  142.5631  160.7496 N   0  0  0  0  0  0  0  0  0  0  0  0
  151.0499  143.6316  161.1156 C   0  0  0  0  0  0  0  0  0  0  0  0
  151.7047  145.0065  160.8962 C   0  0  0  0  0  0  0  0  0  0  0  0
  152.2209  145.1503  159.4547 C   0  0  0  0  0  0  0  0  0  0  0  0
  153.1278  143.9644  159.0810 C   0  0  0  0  0  0  0  0  0  0  0  0
  152.4378  142.6005  159.3319 C   0  0  2  0  0  0  0  0  0  0  0  0
  151.3198  142.2547  158.3240 C   0  0  0  0  0  0  0  0  0  0  0  0
  151.0124  143.0526  157.4382 O   0  0  0  0  0  0  0  0  0  0  0  0
  150.7221  141.0604  158.4583 N   0  0  0  0  0  0  0  0  0  0  0  0
  149.6507  140.5715  157.6037 C   0  0  0  0  0  0  0  0  0  0  0  0
  150.1715  140.3145  156.1840 C   0  0  0  0  0  0  0  0  0  0  0  0
  149.0862  140.4846  155.1399 C   0  0  0  0  0  0  0  0  0  0  0  0
  148.2775  139.3959  154.7543 C   0  0  0  0  0  0  0  0  0  0  0  0
  147.2862  139.6006  153.7756 C   0  0  0  0  0  0  0  0  0  0  0  0
  147.1459  140.8892  153.2227 C   0  0  0  0  0  0  0  0  0  0  0  0
  147.9151  141.9390  153.5838 N   0  0  0  0  0  0  0  0  0  0  0  0
  148.8637  141.7340  154.5229 C   0  0  0  0  0  0  0  0  0  0  0  0
  152.9125  138.5303  164.2581 H   0  0  0  0  0  0  0  0  0  0  0  0
  152.7454  139.0429  162.5814 H   0  0  0  0  0  0  0  0  0  0  0  0
  151.3496  139.0785  163.6589 H   0  0  0  0  0  0  0  0  0  0  0  0
  152.4845  140.8403  165.0503 H   0  0  0  0  0  0  0  0  0  0  0  0
  153.8609  140.8078  163.9716 H   0  0  0  0  0  0  0  0  0  0  0  0
  151.0177  141.5872  163.1525 H   0  0  0  0  0  0  0  0  0  0  0  0
  152.3055  142.7308  163.5113 H   0  0  0  0  0  0  0  0  0  0  0  0
  150.1556  143.5526  160.4976 H   0  0  0  0  0  0  0  0  0  0  0  0
  150.6825  143.5747  162.1379 H   0  0  0  0  0  0  0  0  0  0  0  0
  150.9919  145.8012  161.1176 H   0  0  0  0  0  0  0  0  0  0  0  0
  152.5334  145.1297  161.5947 H   0  0  0  0  0  0  0  0  0  0  0  0
  151.3759  145.2015  158.7670 H   0  0  0  0  0  0  0  0  0  0  0  0
  152.7655  146.0881  159.3430 H   0  0  0  0  0  0  0  0  0  0  0  0
  153.4496  144.0536  158.0427 H   0  0  0  0  0  0  0  0  0  0  0  0
  154.0400  144.0146  159.6770 H   0  0  0  0  0  0  0  0  0  0  0  0
  153.1993  141.8455  159.1335 H   0  0  0  0  0  0  0  0  0  0  0  0
  151.0318  140.4528  159.2031 H   0  0  0  0  0  0  0  0  0  0  0  0
  149.2439  139.6524  158.0282 H   0  0  0  0  0  0  0  0  0  0  0  0
  148.8421  141.3040  157.5787 H   0  0  0  0  0  0  0  0  0  0  0  0
  150.9908  140.9982  155.9565 H   0  0  0  0  0  0  0  0  0  0  0  0
  150.5818  139.3065  156.1110 H   0  0  0  0  0  0  0  0  0  0  0  0
  148.4151  138.4207  155.1981 H   0  0  0  0  0  0  0  0  0  0  0  0
  146.6492  138.7895  153.4554 H   0  0  0  0  0  0  0  0  0  0  0  0
  146.3959  141.0814  152.4699 H   0  0  0  0  0  0  0  0  0  0  0  0
  149.4634  142.5924  154.7877 H   0  0  0  0  0  0  0  0  0  0  0  0
  1  2  1  0  0  0  0
  1 23  1  0  0  0  0
  1 24  1  0  0  0  0
  1 25  1  0  0  0  0
  2  3  1  0  0  0  0
  2 26  1  0  0  0  0
  2 27  1  0  0  0  0
  3  4  1  0  0  0  0
  3 28  1  0  0  0  0
  3 29  1  0  0  0  0
  4  5  2  0  0  0  0
  4  6  1  0  0  0  0
  6 11  1  0  0  0  0
  6  7  1  0  0  0  0
  7  8  1  0  0  0  0
  7 30  1  0  0  0  0
  7 31  1  0  0  0  0
  8  9  1  0  0  0  0
  8 32  1  0  0  0  0
  8 33  1  0  0  0  0
  9 10  1  0  0  0  0
  9 34  1  0  0  0  0
  9 35  1  0  0  0  0
 10 11  1  0  0  0  0
 10 36  1  0  0  0  0
 10 37  1  0  0  0  0
 11 12  1  0  0  0  0
 11 38  1  0  0  0  0
 12 13  2  0  0  0  0
 12 14  1  0  0  0  0
 14 15  1  0  0  0  0
 14 39  1  0  0  0  0
 15 16  1  0  0  0  0
 15 40  1  0  0  0  0
 15 41  1  0  0  0  0
 16 17  1  0  0  0  0
 16 42  1  0  0  0  0
 16 43  1  0  0  0  0
 17 22  1  0  0  0  0
 17 18  2  0  0  0  0
 18 19  1  0  0  0  0
 18 44  1  0  0  0  0
 19 20  2  0  0  0  0
 19 45  1  0  0  0  0
 20 21  1  0  0  0  0
 20 46  1  0  0  0  0
 21 22  2  0  0  0  0
 22 47  1  0  0  0  0
M  END
> <s_m_source_file>
AV-unprocessed.smi

> <i_m_source_file_index>
1194

> <i_lp_mmshare_version>
43012

> <i_f3d_flags>
0

> <s_epik_input>
W0NIM11bQ0gyXVtDSDJdQyg9TylOMVtDSDJdW0NIMl1bQ0gyXVtDSDJdW0NASF0xQyg9TylbTkhdW0NIMl1bQ0gyXWMyW2NIXVtjSF1bY0hdbltjSF0y

> <s_epik_cmdline>
J2VwaWtfcHl0aG9uJywgJy1waCcsICc3LjAnLCAnLXRuJywgJzgnLCAnLW1hJywgJzIwMCcsICctbWV0YWxfYmluZGluZycsICctaW1hZScsICc8aW5maWxlLm1hZT4nLCAnLW9tYWUnLCAnPG91dGZpbGUubWFlPic=

> <r_epik_Ionization_Penalty>
0.0130932

> <r_epik_Ionization_Penalty_Charging>
0

> <r_epik_Ionization_Penalty_Neutral>
0.0130932

> <r_epik_State_Penalty>
0.0101714

> <r_epik_Charging_Adjusted_Penalty>
0.0101714

> <i_epik_Tot_Q>
0

> <i_epik_Tot_abs_Q>
0

> <r_epik_Metal_State_Penalty>
0.00995056

> <b_epik_Metal_Only>
0

> <s_lp_Force_Field>
OPLS_2005

> <r_lp_Energy>
25.0478

> <b_lp_Chiralities_Consistent>
1

> <s_lp_Variant>
AV-unprocessed.smi:1194-2

> <Gold.Version>
5.8.1

> <Gold.Id.Protein>
6NUR|6NUR_protein|mol2

> <Gold.PLP.Fitness>
51.7677

> <Gold.PLP.PLP>
-46.8857

> <Gold.PLP.part.hbond>
0.0000

> <Gold.PLP.part.metal>
0.0000

> <Gold.PLP.part.buried>
-0.6031

> <Gold.PLP.part.nonpolar>
-47.3706

> <Gold.PLP.part.repulsive>
1.9471

> <Gold.PLP.ligand.clash>
0.0000

> <Gold.PLP.ligand.torsion>
0.5963

> <Gold.PLP.Chemscore.Hbond>
0.0000

> <Gold.PLP.Chemscore.CHOScore>
2.0000

> <Gold.PLP.Chemscore.Metal>
0.0000

> <Gold.Chemscore.Hbonds>
donor molecule, donor type, donor heavy atom, donor atom, acceptor molecule, acceptor atom, score
      P1  H  8011  8017       L1    21  0.01
      L1  C    20    46       P1 10175  0.31
      L1  C    22    47       P1  8028  1.00

> <Gold.PLP.Chemscore.Internal.Correction>
0.0745

> <Gold.Rescore>
     Score         DG    S(hbond)    S(metal)    S(lipo)     H(rot)  DE(clash)    DE(int)     intcor
     12.23     -15.99       0.00        0.00     126.66       1.68       1.64       2.12       ----

> <Gold.Chemscore.Fitness>
12.2331

> <Gold.Chemscore.DG>
-15.9929

> <Gold.Chemscore.ZeroCoef>
-5.4800

> <Gold.Chemscore.Hbond>
0.0000

> <Gold.Chemscore.Metal>
0.0000

> <Gold.Chemscore.Lipo>
126.6633

> <Gold.Chemscore.Internal_Hbond>
0.0000

> <Gold.Chemscore.DEClash>
1.6430

> <Gold.Chemscore.DEInternal>
2.1168

> <Gold.Chemscore.Rot>
1.6823

> <Gold.Chemscore.Internal.Correction>
   9.000000E+99

> <Gold.Chemscore.Hbond.Weighted>
-0.0001

> <Gold.Chemscore.Metal.Weighted>
-0.0000

> <Gold.Chemscore.Lipo.Weighted>
-14.8196

> <Gold.Chemscore.Internal_Hbond.Weighted>
0.0000

> <Gold.Chemscore.DEClash.Weighted>
1.6430

> <Gold.Chemscore.DEInternal.Weighted>
2.1168

> <Gold.Chemscore.Rot.Weighted>
4.3068

> <Gold.Chemscore.Internal.Correction.Weighted>
   9.000000E+99

> <Gold.Protein.RotatedTorsions>
[ 6907 6896 6895 6894 ] final  -34.24 input  -60.11 | X-H torsion
[ 7974 7965 7964 7962 ] final -153.47 input  175.53 | X-H torsion
[ 8008 7997 7996 7995 ] final  122.96 input   59.86 | X-H torsion
[ 10167 10162 10161 10158 ] final  -59.91 input  -65.29 | X-H torsion
[ 10718 10713 10712 10709 ] final  -63.94 input   66.30 | X-H torsion
[ 10763 10752 10751 10750 ] final  -36.14 input  -60.55 | X-H torsion
[ 11005 11000 10999 10996 ] final   64.17 input  -57.11 | X-H torsion

> <Gold.Protein.ActiveResidues>
 VAL166  LYS551  ARG553  GLY616  TRP617  ASP618  TYR619  PRO620  LYS621  CYS622 
 ASP623  PHE694  ASN695  SER759  ASP760  ASP761  ALA762  ILE779  LEU786  VAL792 
 PHE793  MET794  SER795  GLU796  ALA797  LYS798  CYS799  TRP800  GLU811  SER814 

> <Gold.Protein.RotatedAtoms>
  151.0552  134.9700  159.8231 H   0  0  0  0  0  0  0  0  0  0  0  0  # atno 6907 bound_to 6896
  152.5387  134.2486  159.8900 H   0  0  0  0  0  0  0  0  0  0  0  0  # atno 6908 bound_to 6896
  151.2504  133.4310  159.2645 H   0  0  0  0  0  0  0  0  0  0  0  0  # atno 6909 bound_to 6896
  144.7739  140.4522  143.5887 H   0  0  0  0  0  0  0  0  0  0  0  0  # atno 7974 bound_to 7965
  156.2748  140.2774  156.1551 H   0  0  0  0  0  0  0  0  0  0  0  0  # atno 8008 bound_to 7997
  155.0812  140.0388  157.2657 H   0  0  0  0  0  0  0  0  0  0  0  0  # atno 8009 bound_to 7997
  154.6963  140.2639  155.6769 H   0  0  0  0  0  0  0  0  0  0  0  0  # atno 8010 bound_to 7997
  140.6105  143.2386  151.5721 H   0  0  0  0  0  0  0  0  0  0  0  0  # atno 10167 bound_to 10162
  156.0760  130.4227  150.1349 H   0  0  0  0  0  0  0  0  0  0  0  0  # atno 10718 bound_to 10713
  153.8748  135.6827  153.4771 H   0  0  0  0  0  0  0  0  0  0  0  0  # atno 10763 bound_to 10752
  153.1267  135.4716  154.9281 H   0  0  0  0  0  0  0  0  0  0  0  0  # atno 10764 bound_to 10752
  154.7697  135.3235  154.8166 H   0  0  0  0  0  0  0  0  0  0  0  0  # atno 10765 bound_to 10752
  139.9976  134.6492  155.9983 H   0  0  0  0  0  0  0  0  0  0  0  0  # atno 11005 bound_to 11000
  145.6242  139.1528  143.3005 LP  0  0  0  0  0  0  0  0  0  0  0  0  # atno 17320 bound_to 7965
  146.1905  140.6350  142.9147 LP  0  0  0  0  0  0  0  0  0  0  0  0  # atno 17321 bound_to 7965
  139.5357  144.2787  152.1246 LP  0  0  0  0  0  0  0  0  0  0  0  0  # atno 17342 bound_to 10162
  140.1985  144.4681  150.6443 LP  0  0  0  0  0  0  0  0  0  0  0  0  # atno 17343 bound_to 10162
  156.9390  130.9738  151.3519 LP  0  0  0  0  0  0  0  0  0  0  0  0  # atno 17370 bound_to 10713
  157.5855  130.8406  149.8583 LP  0  0  0  0  0  0  0  0  0  0  0  0  # atno 17371 bound_to 10713
  141.1617  133.6538  156.4341 LP  0  0  0  0  0  0  0  0  0  0  0  0  # atno 17394 bound_to 11000
  140.4788  134.6684  157.5162 LP  0  0  0  0  0  0  0  0  0  0  0  0  # atno 17395 bound_to 11000

$$$$
