AV-unprocessed.smi:326|AV-procd|sdf|2345|dock8
  -GOLD-   2262022253D 1   1.00000     0.00000
 Structure written by MMmdl.
 44 45  0  0  0  0  0  0  0  0  1 V2000
  148.0847  145.0471  161.3518 C   0  0  0  0  0  0  0  0  0  0  0  0
  149.1979  144.2924  160.9072 O   0  0  0  0  0  0  0  0  0  0  0  0
  149.2601  144.1961  159.4931 C   0  0  0  0  0  0  0  0  0  0  0  0
  150.6983  144.4699  159.0253 C   0  0  0  0  0  0  0  0  0  0  0  0
  151.6419  143.4795  159.5554 N   0  0  0  0  0  0  0  0  0  0  0  0
  151.7217  142.3207  158.8022 N   0  0  0  0  0  0  0  0  0  0  0  0
  152.5141  141.3635  159.1624 C   0  0  0  0  0  0  0  0  0  0  0  0
  152.6275  140.1035  158.3779 C   0  0  0  0  0  0  0  0  0  0  0  0
  153.5507  139.3067  158.5537 O   0  0  0  0  0  0  0  0  0  0  0  0
  151.6585  139.9110  157.4655 N   0  0  0  0  0  0  0  0  0  0  0  0
  151.5664  138.7877  156.5359 C   0  0  2  0  0  0  0  0  0  0  0  0
  151.8343  139.2486  155.0885 C   0  0  0  0  0  0  0  0  0  0  0  0
  150.7033  140.1407  154.5450 C   0  0  0  0  0  0  0  0  0  0  0  0
  149.3312  139.4472  154.6503 C   0  0  2  0  0  0  0  0  0  0  0  0
  148.2057  140.3423  154.1130 C   0  0  0  0  0  0  0  0  0  0  0  0
  149.0567  139.0108  156.1021 C   0  0  0  0  0  0  0  0  0  0  0  0
  150.1842  138.1171  156.6492 C   0  0  0  0  0  0  0  0  0  0  0  0
  153.3342  141.4858  160.3558 C   0  0  0  0  0  0  0  0  0  0  0  0
  153.2405  142.6196  161.0846 C   0  0  0  0  0  0  0  0  0  0  0  0
  152.3460  143.7140  160.7035 C   0  0  0  0  0  0  0  0  0  0  0  0
  152.2344  144.7509  161.3570 O   0  0  0  0  0  0  0  0  0  0  0  0
  148.0835  145.0902  162.4411 H   0  0  0  0  0  0  0  0  0  0  0  0
  147.1466  144.5922  161.0313 H   0  0  0  0  0  0  0  0  0  0  0  0
  148.1252  146.0699  160.9746 H   0  0  0  0  0  0  0  0  0  0  0  0
  148.9624  143.1931  159.1843 H   0  0  0  0  0  0  0  0  0  0  0  0
  148.5638  144.8973  159.0300 H   0  0  0  0  0  0  0  0  0  0  0  0
  150.7326  144.4808  157.9342 H   0  0  0  0  0  0  0  0  0  0  0  0
  150.9996  145.4730  159.3318 H   0  0  0  0  0  0  0  0  0  0  0  0
  150.9381  140.6152  157.3942 H   0  0  0  0  0  0  0  0  0  0  0  0
  152.3189  138.0466  156.8114 H   0  0  0  0  0  0  0  0  0  0  0  0
  152.7874  139.7755  155.0276 H   0  0  0  0  0  0  0  0  0  0  0  0
  151.9339  138.3716  154.4478 H   0  0  0  0  0  0  0  0  0  0  0  0
  150.6843  141.0832  155.0941 H   0  0  0  0  0  0  0  0  0  0  0  0
  150.9117  140.3972  153.5058 H   0  0  0  0  0  0  0  0  0  0  0  0
  149.3608  138.5500  154.0301 H   0  0  0  0  0  0  0  0  0  0  0  0
  148.1196  141.2621  154.6922 H   0  0  0  0  0  0  0  0  0  0  0  0
  147.2438  139.8308  154.1557 H   0  0  0  0  0  0  0  0  0  0  0  0
  148.3854  140.6184  153.0736 H   0  0  0  0  0  0  0  0  0  0  0  0
  148.9439  139.8905  156.7373 H   0  0  0  0  0  0  0  0  0  0  0  0
  148.1097  138.4728  156.1555 H   0  0  0  0  0  0  0  0  0  0  0  0
  150.1959  137.1798  156.0916 H   0  0  0  0  0  0  0  0  0  0  0  0
  149.9786  137.8491  157.6864 H   0  0  0  0  0  0  0  0  0  0  0  0
  154.0024  140.6932  160.6606 H   0  0  0  0  0  0  0  0  0  0  0  0
  153.8425  142.7232  161.9753 H   0  0  0  0  0  0  0  0  0  0  0  0
  1  2  1  0  0  0  0
  1 22  1  0  0  0  0
  1 23  1  0  0  0  0
  1 24  1  0  0  0  0
  2  3  1  0  0  0  0
  3  4  1  0  0  0  0
  3 25  1  0  0  0  0
  3 26  1  0  0  0  0
  4  5  1  0  0  0  0
  4 27  1  0  0  0  0
  4 28  1  0  0  0  0
  5 20  1  0  0  0  0
  5  6  1  0  0  0  0
  6  7  2  0  0  0  0
  7  8  1  0  0  0  0
  7 18  1  0  0  0  0
  8  9  2  0  0  0  0
  8 10  1  0  0  0  0
 10 11  1  0  0  0  0
 10 29  1  0  0  0  0
 11 17  1  0  0  0  0
 11 12  1  0  0  0  0
 11 30  1  0  0  0  0
 12 13  1  0  0  0  0
 12 31  1  0  0  0  0
 12 32  1  0  0  0  0
 13 14  1  0  0  0  0
 13 33  1  0  0  0  0
 13 34  1  0  0  0  0
 14 15  1  0  0  0  0
 14 16  1  0  0  0  0
 14 35  1  0  0  0  0
 15 36  1  0  0  0  0
 15 37  1  0  0  0  0
 15 38  1  0  0  0  0
 16 17  1  0  0  0  0
 16 39  1  0  0  0  0
 16 40  1  0  0  0  0
 17 41  1  0  0  0  0
 17 42  1  0  0  0  0
 18 19  2  0  0  0  0
 18 43  1  0  0  0  0
 19 20  1  0  0  0  0
 19 44  1  0  0  0  0
 20 21  2  0  0  0  0
M  END
> <s_m_source_file>
AV-unprocessed.smi

> <i_m_source_file_index>
326

> <i_lp_mmshare_version>
43012

> <i_f3d_flags>
0

> <s_epik_input>
W0NIM11PW0NIMl1bQ0gyXW4xbmMoW2NIXVtjSF1jMT1PKUMoPU8pW05IXVtDQEBIXTJbQ0gyXVtDSDJdW0NAQEhdKFtDSDNdKVtDSDJdW0NIMl0y

> <s_epik_cmdline>
J2VwaWtfcHl0aG9uJywgJy1waCcsICc3LjAnLCAnLXRuJywgJzgnLCAnLW1hJywgJzIwMCcsICctbWV0YWxfYmluZGluZycsICctaW1hZScsICc8aW5maWxlLm1hZT4nLCAnLW9tYWUnLCAnPG91dGZpbGUubWFlPic=

> <r_lp_tautomer_probability>
1

> <r_epik_Ionization_Penalty>
6.47102e-07

> <r_epik_Ionization_Penalty_Charging>
6.8576e-09

> <r_epik_Ionization_Penalty_Neutral>
6.40245e-07

> <r_epik_State_Penalty>
-0

> <r_epik_Charging_Adjusted_Penalty>
6.8576e-09

> <i_epik_Tot_Q>
0

> <i_epik_Tot_abs_Q>
0

> <r_epik_Metal_State_Penalty>
-0

> <b_epik_Metal_Only>
0

> <s_lp_Force_Field>
OPLS_2005

> <r_lp_Energy>
28.5252

> <b_lp_Chiralities_Consistent>
1

> <s_lp_Variant>
AV-unprocessed.smi:326-2

> <Gold.Version>
5.8.1

> <Gold.Id.Protein>
6NUR|6NUR_protein|mol2

> <Gold.PLP.Fitness>
38.8994

> <Gold.PLP.PLP>
-35.8224

> <Gold.PLP.part.hbond>
-2.0000

> <Gold.PLP.part.metal>
0.0000

> <Gold.PLP.part.buried>
-0.2243

> <Gold.PLP.part.nonpolar>
-34.2914

> <Gold.PLP.part.repulsive>
1.0215

> <Gold.PLP.ligand.clash>
0.0000

> <Gold.PLP.ligand.torsion>
0.8334

> <Gold.PLP.Chemscore.Hbond>
1.5760

> <Gold.PLP.Chemscore.CHOScore>
0.0000

> <Gold.PLP.Chemscore.Metal>
0.0000

> <Gold.Chemscore.Hbonds>
donor molecule, donor type, donor heavy atom, donor atom, acceptor molecule, acceptor atom, score
      P1  H  6933  6944       L1     2  0.47
      P1  H  7997  8009       L1     9  0.95

> <Gold.PLP.Chemscore.Internal.Correction>
0.0157

> <Gold.Rescore>
     Score         DG    S(hbond)    S(metal)    S(lipo)     H(rot)  DE(clash)    DE(int)     intcor
     12.05     -14.97       0.99        0.00      86.72       1.55       2.15       0.77       ----

> <Gold.Chemscore.Fitness>
12.0521

> <Gold.Chemscore.DG>
-14.9660

> <Gold.Chemscore.ZeroCoef>
-5.4800

> <Gold.Chemscore.Hbond>
0.9885

> <Gold.Chemscore.Metal>
0.0000

> <Gold.Chemscore.Lipo>
86.7228

> <Gold.Chemscore.Internal_Hbond>
0.0000

> <Gold.Chemscore.DEClash>
2.1451

> <Gold.Chemscore.DEInternal>
0.7688

> <Gold.Chemscore.Rot>
1.5478

> <Gold.Chemscore.Internal.Correction>
   9.000000E+99

> <Gold.Chemscore.Hbonds>
donor molecule, donor type, donor heavy atom, donor atom, acceptor molecule, acceptor atom, score
      P1  H  6933  6944       L1     2  0.04
      P1  H  7997  8009       L1     9  0.21

> <Gold.Chemscore.Hbond.Weighted>
-3.3017

> <Gold.Chemscore.Metal.Weighted>
-0.0000

> <Gold.Chemscore.Lipo.Weighted>
-10.1466

> <Gold.Chemscore.Internal_Hbond.Weighted>
0.0000

> <Gold.Chemscore.DEClash.Weighted>
2.1451

> <Gold.Chemscore.DEInternal.Weighted>
0.7688

> <Gold.Chemscore.Rot.Weighted>
3.9623

> <Gold.Chemscore.Internal.Correction.Weighted>
   9.000000E+99

> <Gold.Protein.RotatedTorsions>
[ 6907 6896 6895 6894 ] final    4.79 input  -60.11 | X-H torsion
[ 7974 7965 7964 7962 ] final   29.76 input  175.53 | X-H torsion
[ 8008 7997 7996 7995 ] final  135.48 input   59.86 | X-H torsion
[ 10167 10162 10161 10158 ] final   81.62 input  -65.29 | X-H torsion
[ 10718 10713 10712 10709 ] final -109.32 input   66.30 | X-H torsion
[ 10763 10752 10751 10750 ] final -108.80 input  -60.55 | X-H torsion
[ 11005 11000 10999 10996 ] final  120.81 input  -57.11 | X-H torsion

> <Gold.Protein.ActiveResidues>
 VAL166  LYS551  ARG553  GLY616  TRP617  ASP618  TYR619  PRO620  LYS621  CYS622 
 ASP623  PHE694  ASN695  SER759  ASP760  ASP761  ALA762  ILE779  LEU786  VAL792 
 PHE793  MET794  SER795  GLU796  ALA797  LYS798  CYS799  TRP800  GLU811  SER814 

> <Gold.Protein.RotatedAtoms>
  151.6469  135.1006  160.0152 H   0  0  0  0  0  0  0  0  0  0  0  0  # atno 6907 bound_to 6896
  152.4022  133.6831  159.6335 H   0  0  0  0  0  0  0  0  0  0  0  0  # atno 6908 bound_to 6896
  150.7921  133.8687  159.3293 H   0  0  0  0  0  0  0  0  0  0  0  0  # atno 6909 bound_to 6896
  146.1652  139.6879  142.9006 H   0  0  0  0  0  0  0  0  0  0  0  0  # atno 7974 bound_to 7965
  156.3003  140.2469  156.3588 H   0  0  0  0  0  0  0  0  0  0  0  0  # atno 8008 bound_to 7997
  154.8897  140.0409  157.1850 H   0  0  0  0  0  0  0  0  0  0  0  0  # atno 8009 bound_to 7997
  154.8611  140.2920  155.5543 H   0  0  0  0  0  0  0  0  0  0  0  0  # atno 8010 bound_to 7997
  139.9374  144.6112  150.8285 H   0  0  0  0  0  0  0  0  0  0  0  0  # atno 10167 bound_to 10162
  156.0531  130.5758  150.8083 H   0  0  0  0  0  0  0  0  0  0  0  0  # atno 10718 bound_to 10713
  154.8156  135.4624  154.0635 H   0  0  0  0  0  0  0  0  0  0  0  0  # atno 10763 bound_to 10752
  153.2030  135.6871  153.8214 H   0  0  0  0  0  0  0  0  0  0  0  0  # atno 10764 bound_to 10752
  153.7691  135.3273  155.3326 H   0  0  0  0  0  0  0  0  0  0  0  0  # atno 10765 bound_to 10752
  139.9200  134.9636  156.7863 H   0  0  0  0  0  0  0  0  0  0  0  0  # atno 11005 bound_to 11000
  145.4485  141.0427  143.2818 LP  0  0  0  0  0  0  0  0  0  0  0  0  # atno 17320 bound_to 7965
  144.8083  139.6010  143.7041 LP  0  0  0  0  0  0  0  0  0  0  0  0  # atno 17321 bound_to 7965
  140.7620  143.3189  151.2668 LP  0  0  0  0  0  0  0  0  0  0  0  0  # atno 17342 bound_to 10162
  139.6732  143.9983  152.2766 LP  0  0  0  0  0  0  0  0  0  0  0  0  # atno 17343 bound_to 10162
  157.5476  131.0943  150.9741 LP  0  0  0  0  0  0  0  0  0  0  0  0  # atno 17370 bound_to 10713
  157.0009  130.5599  149.5311 LP  0  0  0  0  0  0  0  0  0  0  0  0  # atno 17371 bound_to 10713
  140.6503  133.9737  155.7752 LP  0  0  0  0  0  0  0  0  0  0  0  0  # atno 17394 bound_to 11000
  141.0712  134.0202  157.3523 LP  0  0  0  0  0  0  0  0  0  0  0  0  # atno 17395 bound_to 11000

$$$$
