AV-unprocessed.smi:1238|AV-procd|sdf|5184|dock7
  -GOLD-   22720 4263D 1   1.00000     0.00000
 Structure written by MMmdl.
 42 43  0  0  0  0  0  0  0  0  2 V2000
  152.5367  143.3100  160.0135 C   0  0  0  0  0  0  0  0  0  0  0  0
  151.9602  142.0207  160.1256 O   0  0  0  0  0  0  0  0  0  0  0  0
  152.2762  141.1887  159.0222 C   0  0  0  0  0  0  0  0  0  0  0  0
  151.5358  139.8496  159.1780 C   0  0  0  0  0  0  0  0  0  0  0  0
  151.6169  139.0324  157.9446 N   0  0  0  0  0  0  0  0  0  0  0  0
  150.4308  138.6864  157.2276 C   0  0  0  0  0  0  0  0  0  0  0  0
  148.8583  139.2337  157.9967 S   0  0  0  0  0  0  0  0  0  0  0  0
  147.8714  137.7111  157.9366 C   0  0  0  0  0  0  0  0  0  0  0  0
  148.3636  136.6625  158.9292 C   0  0  0  0  0  0  0  0  0  0  0  0
  149.5155  136.2347  158.8559 O   0  0  0  0  0  0  0  0  0  0  0  0
  147.4811  136.2556  159.8547 N   0  0  0  0  0  0  0  0  0  0  0  0
  147.7478  135.2547  160.8835 C   0  0  0  0  0  0  0  0  0  0  0  0
  146.8817  133.9925  160.6907 C   0  0  0  0  0  0  0  0  0  0  0  0
  146.2596  133.6925  162.0554 C   0  0  0  0  0  0  0  0  0  0  0  0
  146.1374  135.0593  162.7212 C   0  0  0  0  0  0  0  0  0  0  0  0
  147.3974  135.8041  162.2787 C   0  0  0  0  0  0  0  0  0  0  0  0
  150.4983  138.0143  156.1204 N   0  0  0  0  0  0  0  0  0  0  0  0
  151.7088  137.5817  155.5807 C   0  0  0  0  0  0  0  0  0  0  0  0
  151.5675  136.9665  154.5015 O   0  5  0  0  0  0  0  0  0  0  0  0
  152.8691  137.8664  156.2815 C   0  0  0  0  0  0  0  0  0  0  0  0
  152.8520  138.6085  157.5358 C   0  0  0  0  0  0  0  0  0  0  0  0
  153.8843  138.8355  158.1693 O   0  0  0  0  0  0  0  0  0  0  0  0
  152.2663  143.9094  160.8825 H   0  0  0  0  0  0  0  0  0  0  0  0
  152.1759  143.8268  159.1232 H   0  0  0  0  0  0  0  0  0  0  0  0
  153.6249  143.2533  159.9684 H   0  0  0  0  0  0  0  0  0  0  0  0
  151.9778  141.6765  158.0929 H   0  0  0  0  0  0  0  0  0  0  0  0
  153.3542  141.0293  158.9757 H   0  0  0  0  0  0  0  0  0  0  0  0
  151.8803  139.3149  160.0619 H   0  0  0  0  0  0  0  0  0  0  0  0
  150.4948  140.0584  159.4310 H   0  0  0  0  0  0  0  0  0  0  0  0
  147.9068  137.2961  156.9285 H   0  0  0  0  0  0  0  0  0  0  0  0
  146.8289  137.9517  158.1489 H   0  0  0  0  0  0  0  0  0  0  0  0
  146.5561  136.6605  159.8378 H   0  0  0  0  0  0  0  0  0  0  0  0
  148.8070  134.9912  160.8654 H   0  0  0  0  0  0  0  0  0  0  0  0
  146.0825  134.1805  159.9715 H   0  0  0  0  0  0  0  0  0  0  0  0
  147.4620  133.1502  160.3128 H   0  0  0  0  0  0  0  0  0  0  0  0
  145.3030  133.1753  161.9757 H   0  0  0  0  0  0  0  0  0  0  0  0
  146.9330  133.0608  162.6363 H   0  0  0  0  0  0  0  0  0  0  0  0
  145.2532  135.5741  162.3432 H   0  0  0  0  0  0  0  0  0  0  0  0
  146.0478  134.9927  163.8058 H   0  0  0  0  0  0  0  0  0  0  0  0
  148.2101  135.5732  162.9688 H   0  0  0  0  0  0  0  0  0  0  0  0
  147.2605  136.8862  162.2978 H   0  0  0  0  0  0  0  0  0  0  0  0
  153.8208  137.5382  155.8899 H   0  0  0  0  0  0  0  0  0  0  0  0
  1  2  1  0  0  0  0
  1 23  1  0  0  0  0
  1 24  1  0  0  0  0
  1 25  1  0  0  0  0
  2  3  1  0  0  0  0
  3  4  1  0  0  0  0
  3 26  1  0  0  0  0
  3 27  1  0  0  0  0
  4 28  1  0  0  0  0
  4 29  1  0  0  0  0
  4  5  1  0  0  0  0
  5  6  1  0  0  0  0
  5 21  1  0  0  0  0
  6 17  2  0  0  0  0
  6  7  1  0  0  0  0
  7  8  1  0  0  0  0
  8  9  1  0  0  0  0
  8 30  1  0  0  0  0
  8 31  1  0  0  0  0
  9 10  2  0  0  0  0
  9 11  1  0  0  0  0
 11 12  1  0  0  0  0
 11 32  1  0  0  0  0
 12 16  1  0  0  0  0
 12 13  1  0  0  0  0
 12 33  1  0  0  0  0
 13 14  1  0  0  0  0
 13 34  1  0  0  0  0
 13 35  1  0  0  0  0
 14 15  1  0  0  0  0
 14 36  1  0  0  0  0
 14 37  1  0  0  0  0
 15 16  1  0  0  0  0
 15 38  1  0  0  0  0
 15 39  1  0  0  0  0
 16 40  1  0  0  0  0
 16 41  1  0  0  0  0
 17 18  1  0  0  0  0
 18 20  2  0  0  0  0
 18 19  1  0  0  0  0
 20 21  1  0  0  0  0
 20 42  1  0  0  0  0
 21 22  2  0  0  0  0
M  CHG  1  19  -1
M  END
> <s_m_source_file>
AV-unprocessed.smi

> <i_m_source_file_index>
1238

> <i_lp_mmshare_version>
43012

> <i_f3d_flags>
0

> <s_epik_input>
W0NIM11PW0NIMl1bQ0gyXW4xYyhuYyhbT0hdKVtjSF1jMT1PKVNbQ0gyXUMoPU8pW05IXVtDSF0yW0NIMl1bQ0gyXVtDSDJdW0NIMl0y

> <s_epik_cmdline>
J2VwaWtfcHl0aG9uJywgJy1waCcsICc3LjAnLCAnLXRuJywgJzgnLCAnLW1hJywgJzIwMCcsICctbWV0YWxfYmluZGluZycsICctaW1hZScsICc8aW5maWxlLm1hZT4nLCAnLW9tYWUnLCAnPG91dGZpbGUubWFlPic=

> <r_lp_tautomer_probability>
1

> <r_epik_Ionization_Penalty>
0.0116372

> <r_epik_Ionization_Penalty_Charging>
3.186e-07

> <r_epik_Ionization_Penalty_Neutral>
0.0116369

> <r_epik_State_Penalty>
0.000414464

> <r_epik_Charging_Adjusted_Penalty>
0.000414782

> <i_epik_Tot_Q>
-1

> <i_epik_Tot_abs_Q>
1

> <r_epik_Metal_State_Penalty>
-0

> <b_epik_Metal_Only>
0

> <s_lp_Force_Field>
OPLS_2005

> <r_lp_Energy>
27.578

> <b_lp_Chiralities_Consistent>
1

> <s_lp_Variant>
AV-unprocessed.smi:1238-1

> <Gold.Version>
5.8.1

> <Gold.Id.Protein>
6NUR|6NUR_protein|mol2

> <Gold.PLP.Fitness>
45.9120

> <Gold.PLP.PLP>
-34.2949

> <Gold.PLP.part.hbond>
-3.0000

> <Gold.PLP.part.metal>
0.0000

> <Gold.PLP.part.buried>
-5.0868

> <Gold.PLP.part.nonpolar>
-26.9643

> <Gold.PLP.part.repulsive>
0.3158

> <Gold.PLP.ligand.clash>
0.0000

> <Gold.PLP.ligand.torsion>
0.2404

> <Gold.PLP.Chemscore.Hbond>
4.0000

> <Gold.PLP.Chemscore.CHOScore>
0.0000

> <Gold.PLP.Chemscore.Metal>
0.0000

> <Gold.Chemscore.Hbonds>
donor molecule, donor type, donor heavy atom, donor atom, acceptor molecule, acceptor atom, score
      P1  H  6896  6908       L1    10  0.88
      P1  H  7997  8010       L1    22  1.00
      P1  H 10752 10763       L1    19  2.00

> <Gold.PLP.Chemscore.Internal.Correction>
0.0977

> <Gold.Rescore>
     Score         DG    S(hbond)    S(metal)    S(lipo)     H(rot)  DE(clash)    DE(int)     intcor
     15.59     -17.35       2.88        0.00      74.21       2.51       0.01       1.75       ----

> <Gold.Chemscore.Fitness>
15.5933

> <Gold.Chemscore.DG>
-17.3523

> <Gold.Chemscore.ZeroCoef>
-5.4800

> <Gold.Chemscore.Hbond>
2.8806

> <Gold.Chemscore.Metal>
0.0000

> <Gold.Chemscore.Lipo>
74.2117

> <Gold.Chemscore.Internal_Hbond>
0.0000

> <Gold.Chemscore.DEClash>
0.0073

> <Gold.Chemscore.DEInternal>
1.7517

> <Gold.Chemscore.Rot>
2.5124

> <Gold.Chemscore.Internal.Correction>
   9.000000E+99

> <Gold.Chemscore.Hbonds>
donor molecule, donor type, donor heavy atom, donor atom, acceptor molecule, acceptor atom, score
      P1  H  6896  6908       L1    10  0.84
      P1  H  7997  8010       L1    22  0.45
      P1  H 10752 10763       L1    19  0.83

> <Gold.Chemscore.Hbond.Weighted>
-9.6213

> <Gold.Chemscore.Metal.Weighted>
-0.0000

> <Gold.Chemscore.Lipo.Weighted>
-8.6828

> <Gold.Chemscore.Internal_Hbond.Weighted>
0.0000

> <Gold.Chemscore.DEClash.Weighted>
0.0073

> <Gold.Chemscore.DEInternal.Weighted>
1.7517

> <Gold.Chemscore.Rot.Weighted>
6.4318

> <Gold.Chemscore.Internal.Correction.Weighted>
   9.000000E+99

> <Gold.Protein.RotatedTorsions>
[ 6907 6896 6895 6894 ] final -168.12 input  -60.11 | X-H torsion
[ 7974 7965 7964 7962 ] final  179.85 input  175.53 | X-H torsion
[ 8008 7997 7996 7995 ] final   21.85 input   59.86 | X-H torsion
[ 10167 10162 10161 10158 ] final  175.58 input  -65.29 | X-H torsion
[ 10718 10713 10712 10709 ] final  -46.50 input   66.30 | X-H torsion
[ 10763 10752 10751 10750 ] final   33.07 input  -60.55 | X-H torsion
[ 11005 11000 10999 10996 ] final  158.95 input  -57.11 | X-H torsion

> <Gold.Protein.ActiveResidues>
 VAL166  LYS551  ARG553  GLY616  TRP617  ASP618  TYR619  PRO620  LYS621  CYS622 
 ASP623  PHE694  ASN695  SER759  ASP760  ASP761  ALA762  ILE779  LEU786  VAL792 
 PHE793  MET794  SER795  GLU796  ALA797  LYS798  CYS799  TRP800  GLU811  SER814 

> <Gold.Protein.RotatedAtoms>
  151.4704  133.3570  159.2822 H   0  0  0  0  0  0  0  0  0  0  0  0  # atno 6907 bound_to 6896
  150.8964  134.8375  159.7340 H   0  0  0  0  0  0  0  0  0  0  0  0  # atno 6908 bound_to 6896
  152.4854  134.4620  159.9660 H   0  0  0  0  0  0  0  0  0  0  0  0  # atno 6909 bound_to 6896
  144.7142  140.0610  143.6432 H   0  0  0  0  0  0  0  0  0  0  0  0  # atno 7974 bound_to 7965
  154.9568  140.3073  155.5049 H   0  0  0  0  0  0  0  0  0  0  0  0  # atno 8008 bound_to 7997
  156.2981  140.2309  156.4588 H   0  0  0  0  0  0  0  0  0  0  0  0  # atno 8009 bound_to 7997
  154.8003  140.0434  157.1256 H   0  0  0  0  0  0  0  0  0  0  0  0  # atno 8010 bound_to 7997
  139.5182  144.3015  152.0374 H   0  0  0  0  0  0  0  0  0  0  0  0  # atno 10167 bound_to 10162
  156.2177  130.4164  149.9033 H   0  0  0  0  0  0  0  0  0  0  0  0  # atno 10718 bound_to 10713
  153.0230  135.6396  154.1454 H   0  0  0  0  0  0  0  0  0  0  0  0  # atno 10763 bound_to 10752
  154.1187  135.2848  155.3215 H   0  0  0  0  0  0  0  0  0  0  0  0  # atno 10764 bound_to 10752
  154.6279  135.5502  153.7710 H   0  0  0  0  0  0  0  0  0  0  0  0  # atno 10765 bound_to 10752
  140.1914  134.8404  157.2917 H   0  0  0  0  0  0  0  0  0  0  0  0  # atno 11005 bound_to 11000
  145.9864  139.2980  143.1011 LP  0  0  0  0  0  0  0  0  0  0  0  0  # atno 17320 bound_to 7965
  145.8953  140.9278  143.0531 LP  0  0  0  0  0  0  0  0  0  0  0  0  # atno 17321 bound_to 7965
  140.2463  144.4216  150.6239 LP  0  0  0  0  0  0  0  0  0  0  0  0  # atno 17342 bound_to 10162
  140.6256  143.2181  151.6604 LP  0  0  0  0  0  0  0  0  0  0  0  0  # atno 17343 bound_to 10162
  156.6690  130.8812  151.3559 LP  0  0  0  0  0  0  0  0  0  0  0  0  # atno 17370 bound_to 10713
  157.7071  130.9398  150.0967 LP  0  0  0  0  0  0  0  0  0  0  0  0  # atno 17371 bound_to 10713
  140.2155  134.4087  155.7591 LP  0  0  0  0  0  0  0  0  0  0  0  0  # atno 17394 bound_to 11000
  141.2226  133.7139  156.8407 LP  0  0  0  0  0  0  0  0  0  0  0  0  # atno 17395 bound_to 11000

$$$$
