AV-unprocessed.smi:265|AV-procd|sdf|2023|dock4
  -GOLD-   2262021223D 1   1.00000     0.00000
 Structure written by MMmdl.
 52 56  0  0  0  0  0  0  0  0  1 V2000
  151.3979  139.8608  157.8786 C   0  0  0  0  0  0  0  0  0  0  0  0
  151.8390  138.8476  156.8106 C   0  0  2  0  0  0  0  0  0  0  0  0
  152.5480  139.5662  155.8039 O   0  0  0  0  0  0  0  0  0  0  0  0
  152.3495  138.9261  154.5560 C   0  0  0  0  0  0  0  0  0  0  0  0
  150.8808  138.5363  154.6207 C   0  0  0  0  0  0  0  0  0  0  0  0
  150.7099  138.0788  156.0665 C   0  0  1  0  0  0  0  0  0  0  0  0
  151.0217  136.6963  156.1235 O   0  0  0  0  0  0  0  0  0  0  0  0
  149.2705  138.2676  156.6145 C   0  0  0  0  0  0  0  0  0  0  0  0
  148.2529  137.5835  155.8294 N   0  0  0  0  0  0  0  0  0  0  0  0
  147.6254  136.4011  156.1516 C   0  0  0  0  0  0  0  0  0  0  0  0
  146.7450  135.9829  155.2838 N   0  0  0  0  0  0  0  0  0  0  0  0
  146.7536  136.9587  154.2939 C   0  0  0  0  0  0  0  0  0  0  0  0
  146.0483  137.1340  153.0697 C   0  0  0  0  0  0  0  0  0  0  0  0
  145.1115  136.2549  152.6322 N   0  0  0  0  0  0  0  0  0  0  0  0
  144.4265  135.4387  153.6342 C   0  0  0  0  0  0  0  0  0  0  0  0
  143.1547  134.8096  153.0451 C   0  0  0  0  0  0  0  0  0  0  0  0
  143.4500  134.0291  151.7541 C   0  0  2  0  0  0  0  0  0  0  0  0
  144.2203  132.8707  152.0469 O   0  0  0  0  0  0  0  0  0  0  0  0
  144.3872  131.9929  150.9324 C   0  0  0  0  0  0  0  0  0  0  0  0
  144.8519  132.7364  149.6665 C   0  0  0  0  0  0  0  0  0  0  0  0
  145.3215  132.1049  148.7227 O   0  0  0  0  0  0  0  0  0  0  0  0
  144.6871  134.0681  149.6184 N   0  0  0  0  0  0  0  0  0  0  0  0
  144.2521  134.8836  150.7477 C   0  0  2  0  0  0  0  0  0  0  0  0
  145.4799  135.5407  151.4114 C   0  0  0  0  0  0  0  0  0  0  0  0
  146.3425  138.2383  152.3321 N   0  0  0  0  0  0  0  0  0  0  0  0
  147.2526  139.1162  152.7638 C   0  0  0  0  0  0  0  0  0  0  0  0
  147.9780  139.0834  153.8831 N   0  0  0  0  0  0  0  0  0  0  0  0
  147.6975  137.9728  154.6226 C   0  0  0  0  0  0  0  0  0  0  0  0
  142.5012  133.7175  151.3125 H   0  0  0  0  0  0  0  0  0  0  0  0
  143.6029  135.6710  150.3624 H   0  0  0  0  0  0  0  0  0  0  0  0
  150.8641  139.3744  158.6951 H   0  0  0  0  0  0  0  0  0  0  0  0
  150.7512  140.6308  157.4575 H   0  0  0  0  0  0  0  0  0  0  0  0
  152.2638  140.3633  158.3103 H   0  0  0  0  0  0  0  0  0  0  0  0
  152.5383  138.1464  157.2701 H   0  0  0  0  0  0  0  0  0  0  0  0
  152.5745  139.5907  153.7217 H   0  0  0  0  0  0  0  0  0  0  0  0
  152.9903  138.0459  154.4838 H   0  0  0  0  0  0  0  0  0  0  0  0
  150.2799  139.4272  154.4355 H   0  0  0  0  0  0  0  0  0  0  0  0
  150.5998  137.7854  153.8809 H   0  0  0  0  0  0  0  0  0  0  0  0
  150.2186  136.2057  156.0382 H   0  0  0  0  0  0  0  0  0  0  0  0
  149.2057  137.8990  157.6389 H   0  0  0  0  0  0  0  0  0  0  0  0
  149.0097  139.3259  156.6499 H   0  0  0  0  0  0  0  0  0  0  0  0
  147.8483  135.8507  157.0545 H   0  0  0  0  0  0  0  0  0  0  0  0
  145.1008  134.6563  153.9853 H   0  0  0  0  0  0  0  0  0  0  0  0
  144.1608  136.0478  154.4992 H   0  0  0  0  0  0  0  0  0  0  0  0
  142.6829  134.1570  153.7801 H   0  0  0  0  0  0  0  0  0  0  0  0
  142.4350  135.5998  152.8277 H   0  0  0  0  0  0  0  0  0  0  0  0
  145.1105  131.2202  151.1940 H   0  0  0  0  0  0  0  0  0  0  0  0
  143.4416  131.4923  150.7204 H   0  0  0  0  0  0  0  0  0  0  0  0
  144.9556  134.5522  148.7740 H   0  0  0  0  0  0  0  0  0  0  0  0
  145.9649  136.2033  150.6950 H   0  0  0  0  0  0  0  0  0  0  0  0
  146.2159  134.7785  151.6729 H   0  0  0  0  0  0  0  0  0  0  0  0
  147.4241  139.9667  152.1204 H   0  0  0  0  0  0  0  0  0  0  0  0
  1  2  1  0  0  0  0
  1 31  1  0  0  0  0
  1 32  1  0  0  0  0
  1 33  1  0  0  0  0
  2  6  1  0  0  0  0
  2  3  1  0  0  0  0
  2 34  1  0  0  0  0
  3  4  1  0  0  0  0
  4  5  1  0  0  0  0
  4 35  1  0  0  0  0
  4 36  1  0  0  0  0
  5  6  1  0  0  0  0
  5 37  1  0  0  0  0
  5 38  1  0  0  0  0
  6  7  1  0  0  0  0
  6  8  1  0  0  0  0
  7 39  1  0  0  0  0
  8  9  1  0  0  0  0
  8 40  1  0  0  0  0
  8 41  1  0  0  0  0
  9 28  1  0  0  0  0
  9 10  1  0  0  0  0
 10 11  2  0  0  0  0
 10 42  1  0  0  0  0
 11 12  1  0  0  0  0
 12 28  2  0  0  0  0
 12 13  1  0  0  0  0
 13 14  1  0  0  0  0
 13 25  2  0  0  0  0
 14 24  1  0  0  0  0
 14 15  1  0  0  0  0
 15 16  1  0  0  0  0
 15 43  1  0  0  0  0
 15 44  1  0  0  0  0
 16 17  1  0  0  0  0
 16 45  1  0  0  0  0
 16 46  1  0  0  0  0
 17 29  1  0  0  0  0
 17 23  1  0  0  0  0
 17 18  1  0  0  0  0
 18 19  1  0  0  0  0
 19 20  1  0  0  0  0
 19 47  1  0  0  0  0
 19 48  1  0  0  0  0
 20 21  2  0  0  0  0
 20 22  1  0  0  0  0
 22 23  1  0  0  0  0
 22 49  1  0  0  0  0
 23 30  1  0  0  0  0
 23 24  1  0  0  0  0
 24 50  1  0  0  0  0
 24 51  1  0  0  0  0
 25 26  1  0  0  0  0
 26 27  2  0  0  0  0
 26 52  1  0  0  0  0
 27 28  1  0  0  0  0
M  END
> <s_m_source_file>
AV-unprocessed.smi

> <i_m_source_file_index>
265

> <i_lp_mmshare_version>
43012

> <i_f3d_flags>
0

> <s_epik_input>
W0NIMl0xW0NIMl1PW0NAQEhdKFtDSDNdKVtDQEBdMShbT0hdKVtDSDJdbihbY0hdbjIpYyhjMjMpbltjSF1uYzNOKFtDSDJdW0NIMl00KVtDSDJdW0NAQEhdKFtDQEhdNDUpW05IXUMoPU8pW0NIMl1PNQ==

> <s_epik_cmdline>
J2VwaWtfcHl0aG9uJywgJy1waCcsICc3LjAnLCAnLXRuJywgJzgnLCAnLW1hJywgJzIwMCcsICctbWV0YWxfYmluZGluZycsICctaW1hZScsICc8aW5maWxlLm1hZT4nLCAnLW9tYWUnLCAnPG91dGZpbGUubWFlPic=

> <r_lp_tautomer_probability>
1

> <r_epik_Ionization_Penalty>
0.00221504

> <r_epik_Ionization_Penalty_Charging>
0

> <r_epik_Ionization_Penalty_Neutral>
0.00221504

> <r_epik_State_Penalty>
-0

> <r_epik_Charging_Adjusted_Penalty>
0

> <i_epik_Tot_Q>
0

> <i_epik_Tot_abs_Q>
0

> <r_epik_Metal_State_Penalty>
-0

> <b_epik_Metal_Only>
0

> <s_lp_Force_Field>
OPLS_2005

> <r_lp_Energy>
44.3548

> <b_lp_Chiralities_Consistent>
1

> <s_lp_Variant>
AV-unprocessed.smi:265-9

> <Gold.Version>
5.8.1

> <Gold.Id.Protein>
6NUR|6NUR_protein|mol2

> <Gold.PLP.Fitness>
40.6855

> <Gold.PLP.PLP>
-33.3168

> <Gold.PLP.part.hbond>
-3.0938

> <Gold.PLP.part.metal>
0.0000

> <Gold.PLP.part.buried>
-4.9941

> <Gold.PLP.part.nonpolar>
-25.7129

> <Gold.PLP.part.repulsive>
1.9403

> <Gold.PLP.ligand.clash>
0.0000

> <Gold.PLP.ligand.torsion>
0.6336

> <Gold.PLP.Chemscore.Hbond>
1.9760

> <Gold.PLP.Chemscore.CHOScore>
0.7836

> <Gold.PLP.Chemscore.Metal>
0.0000

> <Gold.Chemscore.Hbonds>
donor molecule, donor type, donor heavy atom, donor atom, acceptor molecule, acceptor atom, score
      L1  H    22    49       P1  7921  0.94
      P1  H  7997  8008       L1     3  0.95
      L1  C    26    52       P1  7957  0.70

> <Gold.PLP.Chemscore.Internal.Correction>
0.3570

> <Gold.Rescore>
     Score         DG    S(hbond)    S(metal)    S(lipo)     H(rot)  DE(clash)    DE(int)     intcor
     10.13     -13.16       1.93        0.00      59.63       2.25       1.03       2.00       ----

> <Gold.Chemscore.Fitness>
10.1261

> <Gold.Chemscore.DG>
-13.1605

> <Gold.Chemscore.ZeroCoef>
-5.4800

> <Gold.Chemscore.Hbond>
1.9315

> <Gold.Chemscore.Metal>
0.0000

> <Gold.Chemscore.Lipo>
59.6336

> <Gold.Chemscore.Internal_Hbond>
0.0000

> <Gold.Chemscore.DEClash>
1.0333

> <Gold.Chemscore.DEInternal>
2.0011

> <Gold.Chemscore.Rot>
2.2453

> <Gold.Chemscore.Internal.Correction>
   9.000000E+99

> <Gold.Chemscore.Hbonds>
donor molecule, donor type, donor heavy atom, donor atom, acceptor molecule, acceptor atom, score
      L1  H    22    49       P1  7921  0.91
      P1  H  7997  8008       L1     3  0.55

> <Gold.Chemscore.Hbond.Weighted>
-6.4513

> <Gold.Chemscore.Metal.Weighted>
-0.0000

> <Gold.Chemscore.Lipo.Weighted>
-6.9771

> <Gold.Chemscore.Internal_Hbond.Weighted>
0.0000

> <Gold.Chemscore.DEClash.Weighted>
1.0333

> <Gold.Chemscore.DEInternal.Weighted>
2.0011

> <Gold.Chemscore.Rot.Weighted>
5.7479

> <Gold.Chemscore.Internal.Correction.Weighted>
   9.000000E+99

> <Gold.Protein.RotatedTorsions>
[ 6907 6896 6895 6894 ] final -164.18 input  -60.11 | X-H torsion
[ 7974 7965 7964 7962 ] final   87.92 input  175.53 | X-H torsion
[ 8008 7997 7996 7995 ] final  -57.39 input   59.86 | X-H torsion
[ 10167 10162 10161 10158 ] final  -31.20 input  -65.29 | X-H torsion
[ 10718 10713 10712 10709 ] final -101.82 input   66.30 | X-H torsion
[ 10763 10752 10751 10750 ] final  -16.08 input  -60.55 | X-H torsion
[ 11005 11000 10999 10996 ] final   23.94 input  -57.11 | X-H torsion

> <Gold.Protein.ActiveResidues>
 VAL166  LYS551  ARG553  GLY616  TRP617  ASP618  TYR619  PRO620  LYS621  CYS622 
 ASP623  PHE694  ASN695  SER759  ASP760  ASP761  ALA762  ILE779  LEU786  VAL792 
 PHE793  MET794  SER795  GLU796  ALA797  LYS798  CYS799  TRP800  GLU811  SER814 

> <Gold.Protein.RotatedAtoms>
  151.4077  133.3737  159.2739 H   0  0  0  0  0  0  0  0  0  0  0  0  # atno 6907 bound_to 6896
  150.9386  134.8798  159.7608 H   0  0  0  0  0  0  0  0  0  0  0  0  # atno 6908 bound_to 6896
  152.5061  134.4026  159.9474 H   0  0  0  0  0  0  0  0  0  0  0  0  # atno 6909 bound_to 6896
  145.5525  139.2297  143.2504 H   0  0  0  0  0  0  0  0  0  0  0  0  # atno 7974 bound_to 7965
  154.4266  140.1108  156.5790 H   0  0  0  0  0  0  0  0  0  0  0  0  # atno 8008 bound_to 7997
  155.6132  140.3494  155.4610 H   0  0  0  0  0  0  0  0  0  0  0  0  # atno 8009 bound_to 7997
  156.0082  140.1213  157.0469 H   0  0  0  0  0  0  0  0  0  0  0  0  # atno 8010 bound_to 7997
  140.7239  143.3789  151.1638 H   0  0  0  0  0  0  0  0  0  0  0  0  # atno 10167 bound_to 10162
  156.0207  130.5391  150.7018 H   0  0  0  0  0  0  0  0  0  0  0  0  # atno 10718 bound_to 10713
  153.5531  135.7011  153.5582 H   0  0  0  0  0  0  0  0  0  0  0  0  # atno 10763 bound_to 10752
  153.3497  135.3998  155.1636 H   0  0  0  0  0  0  0  0  0  0  0  0  # atno 10764 bound_to 10752
  154.8658  135.3762  154.5044 H   0  0  0  0  0  0  0  0  0  0  0  0  # atno 10765 bound_to 10752
  140.3641  134.2094  155.7670 H   0  0  0  0  0  0  0  0  0  0  0  0  # atno 11005 bound_to 11000
  146.1907  140.6348  142.9147 LP  0  0  0  0  0  0  0  0  0  0  0  0  # atno 17320 bound_to 7965
  144.7522  140.5220  143.6794 LP  0  0  0  0  0  0  0  0  0  0  0  0  # atno 17321 bound_to 7965
  139.7374  143.8977  152.3039 LP  0  0  0  0  0  0  0  0  0  0  0  0  # atno 17342 bound_to 10162
  139.8787  144.7029  150.8903 LP  0  0  0  0  0  0  0  0  0  0  0  0  # atno 17343 bound_to 10162
  157.4676  131.0890  151.0677 LP  0  0  0  0  0  0  0  0  0  0  0  0  # atno 17370 bound_to 10713
  157.1147  130.6036  149.5490 LP  0  0  0  0  0  0  0  0  0  0  0  0  # atno 17371 bound_to 10713
  141.1975  133.8057  157.0624 LP  0  0  0  0  0  0  0  0  0  0  0  0  # atno 17394 bound_to 11000
  140.0603  134.9758  157.1294 LP  0  0  0  0  0  0  0  0  0  0  0  0  # atno 17395 bound_to 11000

$$$$
