AV-unprocessed.smi:2243|AV-procd|sdf|9064|dock10
  -GOLD-   2272012273D 1   1.00000     0.00000
 Structure written by MMmdl.
 35 36  0  0  0  0  0  0  0  0  2 V2000
  146.7530  141.5976  153.7816 C   0  0  0  0  0  0  0  0  0  0  0  0
  147.6382  140.3599  153.5543 C   0  0  2  0  0  0  0  0  0  0  0  0
  146.7725  139.1796  153.5548 N   0  0  0  0  0  0  0  0  0  0  0  0
  146.6030  138.3263  152.5325 C   0  0  0  0  0  0  0  0  0  0  0  0
  147.1756  138.4306  151.4473 O   0  0  0  0  0  0  0  0  0  0  0  0
  145.7373  137.3498  152.8442 N   0  0  0  0  0  0  0  0  0  0  0  0
  145.3433  136.2937  151.9905 C   0  0  0  0  0  0  0  0  0  0  0  0
  146.1878  135.4133  151.4552 N   0  3  0  0  0  0  0  0  0  0  0  0
  145.4736  134.5304  150.6836 C   0  0  0  0  0  0  0  0  0  0  0  0
  144.1608  134.9248  150.7828 C   0  0  0  0  0  0  0  0  0  0  0  0
  144.0629  136.0323  151.6013 O   0  0  0  0  0  0  0  0  0  0  0  0
  148.7670  140.2097  154.6092 C   0  0  0  0  0  0  0  0  0  0  0  0
  149.5043  141.5375  154.8794 C   0  0  0  0  0  0  0  0  0  0  0  0
  150.6677  141.3436  155.8656 C   0  0  0  0  0  0  0  0  0  0  0  0
  151.5694  140.3626  155.3696 O   0  0  0  0  0  0  0  0  0  0  0  0
  150.9640  139.0837  155.2303 C   0  0  0  0  0  0  0  0  0  0  0  0
  149.8184  139.1526  154.2077 C   0  0  0  0  0  0  0  0  0  0  0  0
  147.3139  142.5238  153.6606 H   0  0  0  0  0  0  0  0  0  0  0  0
  146.3163  141.5976  154.7807 H   0  0  0  0  0  0  0  0  0  0  0  0
  145.9341  141.6301  153.0618 H   0  0  0  0  0  0  0  0  0  0  0  0
  148.1077  140.4727  152.5754 H   0  0  0  0  0  0  0  0  0  0  0  0
  146.2575  139.0068  154.4060 H   0  0  0  0  0  0  0  0  0  0  0  0
  147.1924  135.3670  151.5719 H   0  0  0  0  0  0  0  0  0  0  0  0
  145.9603  133.7256  150.1516 H   0  0  0  0  0  0  0  0  0  0  0  0
  143.2362  134.5540  150.3647 H   0  0  0  0  0  0  0  0  0  0  0  0
  148.3126  139.8841  155.5463 H   0  0  0  0  0  0  0  0  0  0  0  0
  149.8898  141.9436  153.9433 H   0  0  0  0  0  0  0  0  0  0  0  0
  148.8230  142.2835  155.2873 H   0  0  0  0  0  0  0  0  0  0  0  0
  151.2075  142.2819  155.9944 H   0  0  0  0  0  0  0  0  0  0  0  0
  150.2991  141.0514  156.8502 H   0  0  0  0  0  0  0  0  0  0  0  0
  151.7201  138.3723  154.8974 H   0  0  0  0  0  0  0  0  0  0  0  0
  150.6015  138.7326  156.1979 H   0  0  0  0  0  0  0  0  0  0  0  0
  149.3644  138.1655  154.1223 H   0  0  0  0  0  0  0  0  0  0  0  0
  150.2255  139.3938  153.2248 H   0  0  0  0  0  0  0  0  0  0  0  0
  145.3266  137.3630  153.7660 H   0  0  0  0  0  0  0  0  0  0  0  0
  1  2  1  0  0  0  0
  1 18  1  0  0  0  0
  1 19  1  0  0  0  0
  1 20  1  0  0  0  0
  2  3  1  0  0  0  0
  2 12  1  0  0  0  0
  2 21  1  0  0  0  0
  3 22  1  0  0  0  0
  3  4  1  0  0  0  0
  4  6  1  0  0  0  0
  4  5  2  0  0  0  0
  6  7  1  0  0  0  0
  6 35  1  0  0  0  0
  7 11  1  0  0  0  0
  7  8  2  0  0  0  0
  8 23  1  0  0  0  0
  8  9  1  0  0  0  0
  9 24  1  0  0  0  0
  9 10  2  0  0  0  0
 10 25  1  0  0  0  0
 10 11  1  0  0  0  0
 12 17  1  0  0  0  0
 12 13  1  0  0  0  0
 12 26  1  0  0  0  0
 13 14  1  0  0  0  0
 13 27  1  0  0  0  0
 13 28  1  0  0  0  0
 14 15  1  0  0  0  0
 14 29  1  0  0  0  0
 14 30  1  0  0  0  0
 15 16  1  0  0  0  0
 16 17  1  0  0  0  0
 16 31  1  0  0  0  0
 16 32  1  0  0  0  0
 17 33  1  0  0  0  0
 17 34  1  0  0  0  0
M  CHG  1   8   1
M  END
> <s_m_source_file>
AV-unprocessed.smi

> <i_m_source_file_index>
2243

> <i_lp_mmshare_version>
43012

> <i_f3d_flags>
0

> <s_epik_input>
W0NIMl0xW0NIMl1PW0NIMl1bQ0gyXVtDSF0xW0NASF0oW0NIM10pW05IXUMoPU8pW05IXWMybltjSF1bY0hdbzI=

> <s_epik_cmdline>
J2VwaWtfcHl0aG9uJywgJy1waCcsICc3LjAnLCAnLXRuJywgJzgnLCAnLW1hJywgJzIwMCcsICctbWV0YWxfYmluZGluZycsICctaW1hZScsICc8aW5maWxlLm1hZT4nLCAnLW9tYWUnLCAnPG91dGZpbGUubWFlPic=

> <r_epik_Ionization_Penalty>
6.61405

> <r_epik_Ionization_Penalty_Charging>
6.55981

> <r_epik_Ionization_Penalty_Neutral>
0.0542461

> <r_epik_State_Penalty>
1.79186

> <r_epik_Charging_Adjusted_Penalty>
8.35167

> <i_epik_Tot_Q>
1

> <i_epik_Tot_abs_Q>
1

> <r_epik_Metal_State_Penalty>
1.80655

> <b_epik_Metal_Only>
0

> <s_lp_Force_Field>
OPLS_2005

> <r_lp_Energy>
19.6033

> <b_lp_Chiralities_Consistent>
1

> <s_lp_Variant>
AV-unprocessed.smi:2243-3

> <Gold.Version>
5.8.1

> <Gold.Id.Protein>
6NUR|6NUR_protein|mol2

> <Gold.PLP.Fitness>
42.3264

> <Gold.PLP.PLP>
-29.1008

> <Gold.PLP.part.hbond>
-3.0000

> <Gold.PLP.part.metal>
0.0000

> <Gold.PLP.part.buried>
-2.5348

> <Gold.PLP.part.nonpolar>
-27.1169

> <Gold.PLP.part.repulsive>
3.7277

> <Gold.PLP.ligand.clash>
0.0000

> <Gold.PLP.ligand.torsion>
0.7151

> <Gold.PLP.Chemscore.Hbond>
3.8800

> <Gold.PLP.Chemscore.CHOScore>
1.0000

> <Gold.PLP.Chemscore.Metal>
0.0000

> <Gold.Chemscore.Hbonds>
donor molecule, donor type, donor heavy atom, donor atom, acceptor molecule, acceptor atom, score
      L1  H     8    23       P1  7948  2.00
      P1  H  7954  7966       L1     5  1.00
      P1  H  7989  7998       L1    15  0.88
      L1  C    10    25       P1 10186  1.00

> <Gold.PLP.Chemscore.Internal.Correction>
0.0157

> <Gold.Rescore>
     Score         DG    S(hbond)    S(metal)    S(lipo)     H(rot)  DE(clash)    DE(int)     intcor
     13.81     -16.19       2.07        0.00      61.53       1.33       1.67       0.71       ----

> <Gold.Chemscore.Fitness>
13.8081

> <Gold.Chemscore.DG>
-16.1877

> <Gold.Chemscore.ZeroCoef>
-5.4800

> <Gold.Chemscore.Hbond>
2.0717

> <Gold.Chemscore.Metal>
0.0000

> <Gold.Chemscore.Lipo>
61.5255

> <Gold.Chemscore.Internal_Hbond>
0.0000

> <Gold.Chemscore.DEClash>
1.6673

> <Gold.Chemscore.DEInternal>
0.7123

> <Gold.Chemscore.Rot>
1.3321

> <Gold.Chemscore.Internal.Correction>
   9.000000E+99

> <Gold.Chemscore.Hbonds>
donor molecule, donor type, donor heavy atom, donor atom, acceptor molecule, acceptor atom, score
      L1  H     8    23       P1  7948  0.92
      P1  H  7954  7966       L1     5  0.99
      P1  H  7989  7998       L1    15  0.06

> <Gold.Chemscore.Hbond.Weighted>
-6.9195

> <Gold.Chemscore.Metal.Weighted>
-0.0000

> <Gold.Chemscore.Lipo.Weighted>
-7.1985

> <Gold.Chemscore.Internal_Hbond.Weighted>
0.0000

> <Gold.Chemscore.DEClash.Weighted>
1.6673

> <Gold.Chemscore.DEInternal.Weighted>
0.7123

> <Gold.Chemscore.Rot.Weighted>
3.4103

> <Gold.Chemscore.Internal.Correction.Weighted>
   9.000000E+99

> <Gold.Protein.RotatedTorsions>
[ 6907 6896 6895 6894 ] final  134.04 input  -60.11 | X-H torsion
[ 7974 7965 7964 7962 ] final   12.05 input  175.53 | X-H torsion
[ 8008 7997 7996 7995 ] final  -57.52 input   59.86 | X-H torsion
[ 10167 10162 10161 10158 ] final   68.92 input  -65.29 | X-H torsion
[ 10718 10713 10712 10709 ] final   82.46 input   66.30 | X-H torsion
[ 10763 10752 10751 10750 ] final  139.98 input  -60.55 | X-H torsion
[ 11005 11000 10999 10996 ] final    7.68 input  -57.11 | X-H torsion

> <Gold.Protein.ActiveResidues>
 VAL166  LYS551  ARG553  GLY616  TRP617  ASP618  TYR619  PRO620  LYS621  CYS622 
 ASP623  PHE694  ASN695  SER759  ASP760  ASP761  ALA762  ILE779  LEU786  VAL792 
 PHE793  MET794  SER795  GLU796  ALA797  LYS798  CYS799  TRP800  GLU811  SER814 

> <Gold.Protein.RotatedAtoms>
  152.3156  133.5798  159.5709 H   0  0  0  0  0  0  0  0  0  0  0  0  # atno 6907 bound_to 6896
  150.7345  134.0088  159.3671 H   0  0  0  0  0  0  0  0  0  0  0  0  # atno 6908 bound_to 6896
  151.7977  135.0718  160.0447 H   0  0  0  0  0  0  0  0  0  0  0  0  # atno 6909 bound_to 6896
  146.2359  139.9394  142.8485 H   0  0  0  0  0  0  0  0  0  0  0  0  # atno 7974 bound_to 7965
  154.4271  140.1105  156.5811 H   0  0  0  0  0  0  0  0  0  0  0  0  # atno 8008 bound_to 7997
  155.6111  140.3494  155.4604 H   0  0  0  0  0  0  0  0  0  0  0  0  # atno 8009 bound_to 7997
  156.0098  140.1217  157.0454 H   0  0  0  0  0  0  0  0  0  0  0  0  # atno 8010 bound_to 7997
  140.0734  144.5133  150.7211 H   0  0  0  0  0  0  0  0  0  0  0  0  # atno 10167 bound_to 10162
  157.6857  131.0048  150.2378 H   0  0  0  0  0  0  0  0  0  0  0  0  # atno 10718 bound_to 10713
  153.9151  135.3007  155.3448 H   0  0  0  0  0  0  0  0  0  0  0  0  # atno 10763 bound_to 10752
  154.7604  135.4937  153.9456 H   0  0  0  0  0  0  0  0  0  0  0  0  # atno 10764 bound_to 10752
  153.1172  135.6773  153.9500 H   0  0  0  0  0  0  0  0  0  0  0  0  # atno 10765 bound_to 10752
  140.5455  134.0333  155.7919 H   0  0  0  0  0  0  0  0  0  0  0  0  # atno 11005 bound_to 11000
  145.1967  140.9836  143.4179 LP  0  0  0  0  0  0  0  0  0  0  0  0  # atno 17320 bound_to 7965
  144.9809  139.3784  143.6262 LP  0  0  0  0  0  0  0  0  0  0  0  0  # atno 17321 bound_to 7965
  140.7114  143.2508  151.4569 LP  0  0  0  0  0  0  0  0  0  0  0  0  # atno 17342 bound_to 10162
  139.5822  144.1684  152.1983 LP  0  0  0  0  0  0  0  0  0  0  0  0  # atno 17343 bound_to 10162
  156.2998  130.3757  149.7761 LP  0  0  0  0  0  0  0  0  0  0  0  0  # atno 17370 bound_to 10713
  156.5395  130.8293  151.3264 LP  0  0  0  0  0  0  0  0  0  0  0  0  # atno 17371 bound_to 10713
  141.1202  133.9474  157.2744 LP  0  0  0  0  0  0  0  0  0  0  0  0  # atno 17394 bound_to 11000
  139.9482  135.0180  156.8914 LP  0  0  0  0  0  0  0  0  0  0  0  0  # atno 17395 bound_to 11000

$$$$
