AV-unprocessed.smi:3147|AV-procd|sdf|11989|dock9
  -GOLD-   2272017393D 1   1.00000     0.00000
 Structure written by MMmdl.
 36 37  0  0  0  0  0  0  0  0  1 V2000
  152.5096  143.7573  162.1032 C   0  0  0  0  0  0  0  0  0  0  0  0
  151.9104  143.9822  160.7498 C   0  0  0  0  0  0  0  0  0  0  0  0
  150.8843  144.9040  160.5559 N   0  0  0  0  0  0  0  0  0  0  0  0
  150.6294  144.8248  159.2573 C   0  0  0  0  0  0  0  0  0  0  0  0
  151.3871  143.9406  158.5935 N   0  0  0  0  0  0  0  0  0  0  0  0
  151.3261  143.6433  157.1701 C   0  0  0  0  0  0  0  0  0  0  0  0
  150.8316  142.2217  156.8760 C   0  0  0  0  0  0  0  0  0  0  0  0
  151.3886  141.2386  157.3669 O   0  0  0  0  0  0  0  0  0  0  0  0
  149.7668  142.1343  156.0649 N   0  0  0  0  0  0  0  0  0  0  0  0
  149.0964  140.8950  155.6826 C   0  0  0  0  0  0  0  0  0  0  0  0
  147.6665  141.1313  155.1583 C   0  0  2  0  0  0  0  0  0  0  0  0
  147.5464  142.0584  153.9451 C   0  0  0  0  0  0  0  0  0  0  0  0
  146.1232  142.5490  154.0824 C   0  0  0  0  0  0  0  0  0  0  0  0
  145.9989  142.7098  155.5942 C   0  0  0  0  0  0  0  0  0  0  0  0
  146.8275  141.6991  156.1620 O   0  0  0  0  0  0  0  0  0  0  0  0
  152.2317  143.3813  159.5511 C   0  0  0  0  0  0  0  0  0  0  0  0
  153.2602  142.3437  159.2363 C   0  0  0  0  0  0  0  0  0  0  0  0
  152.4386  142.7092  162.3943 H   0  0  0  0  0  0  0  0  0  0  0  0
  152.0052  144.3467  162.8693 H   0  0  0  0  0  0  0  0  0  0  0  0
  153.5640  144.0339  162.1152 H   0  0  0  0  0  0  0  0  0  0  0  0
  149.8710  145.4254  158.7767 H   0  0  0  0  0  0  0  0  0  0  0  0
  150.6709  144.3699  156.6882 H   0  0  0  0  0  0  0  0  0  0  0  0
  152.3195  143.7738  156.7389 H   0  0  0  0  0  0  0  0  0  0  0  0
  149.3762  142.9920  155.7028 H   0  0  0  0  0  0  0  0  0  0  0  0
  149.6935  140.4228  154.9022 H   0  0  0  0  0  0  0  0  0  0  0  0
  149.0797  140.1928  156.5177 H   0  0  0  0  0  0  0  0  0  0  0  0
  147.2263  140.1679  154.8967 H   0  0  0  0  0  0  0  0  0  0  0  0
  148.2310  142.9043  154.0157 H   0  0  0  0  0  0  0  0  0  0  0  0
  147.7334  141.5471  153.0004 H   0  0  0  0  0  0  0  0  0  0  0  0
  145.9317  143.4739  153.5377 H   0  0  0  0  0  0  0  0  0  0  0  0
  145.4273  141.7888  153.7250 H   0  0  0  0  0  0  0  0  0  0  0  0
  146.3811  143.6833  155.9020 H   0  0  0  0  0  0  0  0  0  0  0  0
  144.9693  142.6244  155.9418 H   0  0  0  0  0  0  0  0  0  0  0  0
  153.7684  142.0056  160.1392 H   0  0  0  0  0  0  0  0  0  0  0  0
  154.0147  142.7437  158.5591 H   0  0  0  0  0  0  0  0  0  0  0  0
  152.8052  141.4736  158.7633 H   0  0  0  0  0  0  0  0  0  0  0  0
  1  2  1  0  0  0  0
  1 18  1  0  0  0  0
  1 19  1  0  0  0  0
  1 20  1  0  0  0  0
  2 16  2  0  0  0  0
  2  3  1  0  0  0  0
  3  4  2  0  0  0  0
  4  5  1  0  0  0  0
  4 21  1  0  0  0  0
  5  6  1  0  0  0  0
  5 16  1  0  0  0  0
  6  7  1  0  0  0  0
  6 22  1  0  0  0  0
  6 23  1  0  0  0  0
  7  8  2  0  0  0  0
  7  9  1  0  0  0  0
  9 10  1  0  0  0  0
  9 24  1  0  0  0  0
 10 11  1  0  0  0  0
 10 25  1  0  0  0  0
 10 26  1  0  0  0  0
 11 15  1  0  0  0  0
 11 12  1  0  0  0  0
 11 27  1  0  0  0  0
 12 13  1  0  0  0  0
 12 28  1  0  0  0  0
 12 29  1  0  0  0  0
 13 14  1  0  0  0  0
 13 30  1  0  0  0  0
 13 31  1  0  0  0  0
 14 15  1  0  0  0  0
 14 32  1  0  0  0  0
 14 33  1  0  0  0  0
 16 17  1  0  0  0  0
 17 34  1  0  0  0  0
 17 35  1  0  0  0  0
 17 36  1  0  0  0  0
M  END
> <s_m_source_file>
AV-unprocessed.smi

> <i_m_source_file_index>
3147

> <i_lp_mmshare_version>
43012

> <i_f3d_flags>
0

> <s_epik_input>
W0NIM11jMW5bY0hdbihjMVtDSDNdKVtDSDJdQyg9TylbTkhdW0NIMl1bQ0BASF0yW0NIMl1bQ0gyXVtDSDJdTzI=

> <s_epik_cmdline>
J2VwaWtfcHl0aG9uJywgJy1waCcsICc3LjAnLCAnLXRuJywgJzgnLCAnLW1hJywgJzIwMCcsICctbWV0YWxfYmluZGluZycsICctaW1hZScsICc8aW5maWxlLm1hZT4nLCAnLW9tYWUnLCAnPG91dGZpbGUubWFlPic=

> <r_lp_tautomer_probability>
1

> <r_epik_Ionization_Penalty>
0.957393

> <r_epik_Ionization_Penalty_Charging>
0.957393

> <r_epik_Ionization_Penalty_Neutral>
1.43432e-07

> <r_epik_State_Penalty>
1.0022

> <r_epik_Charging_Adjusted_Penalty>
1.9596

> <i_epik_Tot_Q>
0

> <i_epik_Tot_abs_Q>
0

> <r_epik_Metal_State_Penalty>
0.374967

> <b_epik_Metal_Only>
0

> <s_lp_Force_Field>
OPLS_2005

> <r_lp_Energy>
19.2408

> <b_lp_Chiralities_Consistent>
1

> <s_lp_Variant>
AV-unprocessed.smi:3147-3

> <Gold.Version>
5.8.1

> <Gold.Id.Protein>
6NUR|6NUR_protein|mol2

> <Gold.PLP.Fitness>
44.1876

> <Gold.PLP.PLP>
-38.6015

> <Gold.PLP.part.hbond>
-1.0000

> <Gold.PLP.part.metal>
0.0000

> <Gold.PLP.part.buried>
-5.3972

> <Gold.PLP.part.nonpolar>
-32.0350

> <Gold.PLP.part.repulsive>
0.4237

> <Gold.PLP.ligand.clash>
0.0000

> <Gold.PLP.ligand.torsion>
0.2073

> <Gold.PLP.Chemscore.Hbond>
1.0000

> <Gold.PLP.Chemscore.CHOScore>
1.0000

> <Gold.PLP.Chemscore.Metal>
0.0000

> <Gold.Chemscore.Hbonds>
donor molecule, donor type, donor heavy atom, donor atom, acceptor molecule, acceptor atom, score
      L1  H     9    24       P1  8028  1.00
      L1  C     4    21       P1  8029  1.00

> <Gold.PLP.Chemscore.Internal.Correction>
0.0006

> <Gold.Rescore>
     Score         DG    S(hbond)    S(metal)    S(lipo)     H(rot)  DE(clash)    DE(int)     intcor
     14.36     -14.81       0.99        0.00      88.61       1.70       0.08       0.37       ----

> <Gold.Chemscore.Fitness>
14.3606

> <Gold.Chemscore.DG>
-14.8093

> <Gold.Chemscore.ZeroCoef>
-5.4800

> <Gold.Chemscore.Hbond>
0.9947

> <Gold.Chemscore.Metal>
0.0000

> <Gold.Chemscore.Lipo>
88.6125

> <Gold.Chemscore.Internal_Hbond>
0.0000

> <Gold.Chemscore.DEClash>
0.0811

> <Gold.Chemscore.DEInternal>
0.3677

> <Gold.Chemscore.Rot>
1.7034

> <Gold.Chemscore.Internal.Correction>
   9.000000E+99

> <Gold.Chemscore.Hbonds>
donor molecule, donor type, donor heavy atom, donor atom, acceptor molecule, acceptor atom, score
      L1  H     9    24       P1  8028  0.99

> <Gold.Chemscore.Hbond.Weighted>
-3.3224

> <Gold.Chemscore.Metal.Weighted>
-0.0000

> <Gold.Chemscore.Lipo.Weighted>
-10.3677

> <Gold.Chemscore.Internal_Hbond.Weighted>
0.0000

> <Gold.Chemscore.DEClash.Weighted>
0.0811

> <Gold.Chemscore.DEInternal.Weighted>
0.3677

> <Gold.Chemscore.Rot.Weighted>
4.3607

> <Gold.Chemscore.Internal.Correction.Weighted>
   9.000000E+99

> <Gold.Protein.RotatedTorsions>
[ 6907 6896 6895 6894 ] final  129.97 input  -60.11 | X-H torsion
[ 7974 7965 7964 7962 ] final  117.03 input  175.53 | X-H torsion
[ 8008 7997 7996 7995 ] final -143.43 input   59.86 | X-H torsion
[ 10167 10162 10161 10158 ] final -153.59 input  -65.29 | X-H torsion
[ 10718 10713 10712 10709 ] final -176.84 input   66.30 | X-H torsion
[ 10763 10752 10751 10750 ] final   82.28 input  -60.55 | X-H torsion
[ 11005 11000 10999 10996 ] final    7.84 input  -57.11 | X-H torsion

> <Gold.Protein.ActiveResidues>
 VAL166  LYS551  ARG553  GLY616  TRP617  ASP618  TYR619  PRO620  LYS621  CYS622 
 ASP623  PHE694  ASN695  SER759  ASP760  ASP761  ALA762  ILE779  LEU786  VAL792 
 PHE793  MET794  SER795  GLU796  ALA797  LYS798  CYS799  TRP800  GLU811  SER814 

> <Gold.Protein.RotatedAtoms>
  152.3572  133.6251  159.5987 H   0  0  0  0  0  0  0  0  0  0  0  0  # atno 6907 bound_to 6896
  150.7576  133.9481  159.3486 H   0  0  0  0  0  0  0  0  0  0  0  0  # atno 6908 bound_to 6896
  151.7325  135.0873  160.0353 H   0  0  0  0  0  0  0  0  0  0  0  0  # atno 6909 bound_to 6896
  145.1724  139.3094  143.4460 H   0  0  0  0  0  0  0  0  0  0  0  0  # atno 7974 bound_to 7965
  155.5105  140.0583  157.2924 H   0  0  0  0  0  0  0  0  0  0  0  0  # atno 8008 bound_to 7997
  154.4553  140.1970  156.0345 H   0  0  0  0  0  0  0  0  0  0  0  0  # atno 8009 bound_to 7997
  156.0787  140.3250  155.7671 H   0  0  0  0  0  0  0  0  0  0  0  0  # atno 8010 bound_to 7997
  139.7084  143.9148  152.2458 H   0  0  0  0  0  0  0  0  0  0  0  0  # atno 10167 bound_to 10162
  156.8206  130.9618  151.3112 H   0  0  0  0  0  0  0  0  0  0  0  0  # atno 10718 bound_to 10713
  153.1189  135.4734  154.9162 H   0  0  0  0  0  0  0  0  0  0  0  0  # atno 10763 bound_to 10752
  154.7556  135.3117  154.8479 H   0  0  0  0  0  0  0  0  0  0  0  0  # atno 10764 bound_to 10752
  153.9048  135.6871  153.4807 H   0  0  0  0  0  0  0  0  0  0  0  0  # atno 10765 bound_to 10752
  140.5437  134.0349  155.7913 H   0  0  0  0  0  0  0  0  0  0  0  0  # atno 11005 bound_to 11000
  146.3466  140.1874  142.8589 LP  0  0  0  0  0  0  0  0  0  0  0  0  # atno 17320 bound_to 7965
  145.0219  140.8800  143.5161 LP  0  0  0  0  0  0  0  0  0  0  0  0  # atno 17321 bound_to 7965
  139.9010  144.6911  150.8665 LP  0  0  0  0  0  0  0  0  0  0  0  0  # atno 17342 bound_to 10162
  140.7727  143.3513  151.2008 LP  0  0  0  0  0  0  0  0  0  0  0  0  # atno 17343 bound_to 10162
  157.6459  130.8843  149.9537 LP  0  0  0  0  0  0  0  0  0  0  0  0  # atno 17370 bound_to 10713
  156.0991  130.3657  150.0251 LP  0  0  0  0  0  0  0  0  0  0  0  0  # atno 17371 bound_to 10713
  141.1212  133.9458  157.2726 LP  0  0  0  0  0  0  0  0  0  0  0  0  # atno 17394 bound_to 11000
  139.9490  135.0179  156.8939 LP  0  0  0  0  0  0  0  0  0  0  0  0  # atno 17395 bound_to 11000

$$$$
