AV-unprocessed.smi:3248|AV-procd|sdf|12416|dock2
  -GOLD-   2272018303D 1   1.00000     0.00000
 Structure written by MMmdl.
 38 39  0  0  0  0  0  0  0  0  1 V2000
  149.8144  140.3403  158.0641 C   0  0  0  0  0  0  0  0  0  0  0  0
  151.0394  140.7982  157.2616 C   0  0  1  0  0  0  0  0  0  0  0  0
  150.6296  141.6435  156.0376 C   0  0  0  0  0  0  0  0  0  0  0  0
  149.6169  140.9919  155.2251 N   0  0  0  0  0  0  0  0  0  0  0  0
  148.3614  141.4526  154.8899 C   0  0  0  0  0  0  0  0  0  0  0  0
  147.7647  140.4879  154.1302 C   0  0  0  0  0  0  0  0  0  0  0  0
  148.7474  139.4620  154.0529 C   0  0  0  0  0  0  0  0  0  0  0  0
  149.8562  139.7674  154.7068 N   0  0  0  0  0  0  0  0  0  0  0  0
  151.9271  141.5618  158.1372 N   0  0  0  0  0  0  0  0  0  0  0  0
  151.5664  142.5949  158.9187 C   0  0  0  0  0  0  0  0  0  0  0  0
  150.4414  143.0933  158.8839 O   0  0  0  0  0  0  0  0  0  0  0  0
  152.5900  143.0851  159.6591 N   0  0  0  0  0  0  0  0  0  0  0  0
  153.5625  142.1758  160.2831 C   0  0  0  0  0  0  0  0  0  0  0  0
  153.0920  141.8722  161.7191 C   0  0  0  0  0  0  0  0  0  0  0  0
  152.9682  143.0867  162.4554 O   0  0  0  0  0  0  0  0  0  0  0  0
  152.0728  144.0219  161.8572 C   0  0  0  0  0  0  0  0  0  0  0  0
  152.5528  144.3445  160.4277 C   0  0  2  0  0  0  0  0  0  0  0  0
  151.7557  145.4939  159.7761 C   0  0  0  0  0  0  0  0  0  0  0  0
  149.1430  139.7430  157.4465 H   0  0  0  0  0  0  0  0  0  0  0  0
  149.2479  141.1903  158.4459 H   0  0  0  0  0  0  0  0  0  0  0  0
  150.1099  139.7265  158.9157 H   0  0  0  0  0  0  0  0  0  0  0  0
  151.5459  139.8990  156.9066 H   0  0  0  0  0  0  0  0  0  0  0  0
  150.2277  142.6035  156.3638 H   0  0  0  0  0  0  0  0  0  0  0  0
  151.4990  141.8661  155.4164 H   0  0  0  0  0  0  0  0  0  0  0  0
  147.9997  142.4146  155.2222 H   0  0  0  0  0  0  0  0  0  0  0  0
  146.7757  140.5102  153.6974 H   0  0  0  0  0  0  0  0  0  0  0  0
  148.6883  138.5104  153.5456 H   0  0  0  0  0  0  0  0  0  0  0  0
  152.8844  141.2466  158.1949 H   0  0  0  0  0  0  0  0  0  0  0  0
  153.6872  141.2392  159.7383 H   0  0  0  0  0  0  0  0  0  0  0  0
  154.5483  142.6423  160.2987 H   0  0  0  0  0  0  0  0  0  0  0  0
  152.1370  141.3451  161.7130 H   0  0  0  0  0  0  0  0  0  0  0  0
  153.8097  141.2251  162.2231 H   0  0  0  0  0  0  0  0  0  0  0  0
  151.0580  143.6210  161.8532 H   0  0  0  0  0  0  0  0  0  0  0  0
  152.0579  144.9251  162.4674 H   0  0  0  0  0  0  0  0  0  0  0  0
  153.5801  144.7074  160.4948 H   0  0  0  0  0  0  0  0  0  0  0  0
  151.9489  146.4324  160.2963 H   0  0  0  0  0  0  0  0  0  0  0  0
  150.6790  145.3310  159.8144 H   0  0  0  0  0  0  0  0  0  0  0  0
  152.0436  145.6351  158.7341 H   0  0  0  0  0  0  0  0  0  0  0  0
  1  2  1  0  0  0  0
  1 19  1  0  0  0  0
  1 20  1  0  0  0  0
  1 21  1  0  0  0  0
  2  3  1  0  0  0  0
  2  9  1  0  0  0  0
  2 22  1  0  0  0  0
  3  4  1  0  0  0  0
  3 23  1  0  0  0  0
  3 24  1  0  0  0  0
  4  8  1  0  0  0  0
  4  5  1  0  0  0  0
  5  6  2  0  0  0  0
  5 25  1  0  0  0  0
  6  7  1  0  0  0  0
  6 26  1  0  0  0  0
  7  8  2  0  0  0  0
  7 27  1  0  0  0  0
  9 10  1  0  0  0  0
  9 28  1  0  0  0  0
 10 11  2  0  0  0  0
 10 12  1  0  0  0  0
 12 17  1  0  0  0  0
 12 13  1  0  0  0  0
 13 14  1  0  0  0  0
 13 29  1  0  0  0  0
 13 30  1  0  0  0  0
 14 15  1  0  0  0  0
 14 31  1  0  0  0  0
 14 32  1  0  0  0  0
 15 16  1  0  0  0  0
 16 17  1  0  0  0  0
 16 33  1  0  0  0  0
 16 34  1  0  0  0  0
 17 18  1  0  0  0  0
 17 35  1  0  0  0  0
 18 36  1  0  0  0  0
 18 37  1  0  0  0  0
 18 38  1  0  0  0  0
M  END
> <s_m_source_file>
AV-unprocessed.smi

> <i_m_source_file_index>
3248

> <i_lp_mmshare_version>
43012

> <i_f3d_flags>
0

> <s_epik_input>
bjFbY0hdW2NIXVtjSF1uMVtDSDJdW0NAQEhdKFtDSDNdKVtOSF1DKD1PKU4yW0NIMl1bQ0gyXU9bQ0gyXVtDQEhdMltDSDNd

> <s_epik_cmdline>
J2VwaWtfcHl0aG9uJywgJy1waCcsICc3LjAnLCAnLXRuJywgJzgnLCAnLW1hJywgJzIwMCcsICctbWV0YWxfYmluZGluZycsICctaW1hZScsICc8aW5maWxlLm1hZT4nLCAnLW9tYWUnLCAnPG91dGZpbGUubWFlPic=

> <r_lp_tautomer_probability>
1

> <r_epik_Ionization_Penalty>
4.45233e-05

> <r_epik_Ionization_Penalty_Charging>
0

> <r_epik_Ionization_Penalty_Neutral>
4.45233e-05

> <r_epik_State_Penalty>
-0

> <r_epik_Charging_Adjusted_Penalty>
0

> <i_epik_Tot_Q>
0

> <i_epik_Tot_abs_Q>
0

> <r_epik_Metal_State_Penalty>
-0

> <b_epik_Metal_Only>
0

> <s_lp_Force_Field>
OPLS_2005

> <r_lp_Energy>
30.7838

> <b_lp_Chiralities_Consistent>
1

> <s_lp_Variant>
AV-unprocessed.smi:3248-4

> <Gold.Version>
5.8.1

> <Gold.Id.Protein>
6NUR|6NUR_protein|mol2

> <Gold.PLP.Fitness>
45.7128

> <Gold.PLP.PLP>
-39.4932

> <Gold.PLP.part.hbond>
-1.0000

> <Gold.PLP.part.metal>
0.0000

> <Gold.PLP.part.buried>
-1.2901

> <Gold.PLP.part.nonpolar>
-36.4599

> <Gold.PLP.part.repulsive>
0.3694

> <Gold.PLP.ligand.clash>
0.0000

> <Gold.PLP.ligand.torsion>
0.4383

> <Gold.PLP.Chemscore.Hbond>
0.6000

> <Gold.PLP.Chemscore.CHOScore>
1.5913

> <Gold.PLP.Chemscore.Metal>
0.0000

> <Gold.Chemscore.Hbonds>
donor molecule, donor type, donor heavy atom, donor atom, acceptor molecule, acceptor atom, score
      P1  H  7989  7998       L1     8  0.01
      L1  C     5    25       P1  8028  1.00
      L1  C     7    27       P1  7948  0.27

> <Gold.PLP.Chemscore.Internal.Correction>
0.5224

> <Gold.Rescore>
     Score         DG    S(hbond)    S(metal)    S(lipo)     H(rot)  DE(clash)    DE(int)     intcor
      9.65     -12.27       0.00        0.00      89.06       1.42       0.03       2.59       ----

> <Gold.Chemscore.Fitness>
9.6464

> <Gold.Chemscore.DG>
-12.2668

> <Gold.Chemscore.ZeroCoef>
-5.4800

> <Gold.Chemscore.Hbond>
0.0000

> <Gold.Chemscore.Metal>
0.0000

> <Gold.Chemscore.Lipo>
89.0576

> <Gold.Chemscore.Internal_Hbond>
0.0000

> <Gold.Chemscore.DEClash>
0.0318

> <Gold.Chemscore.DEInternal>
2.5885

> <Gold.Chemscore.Rot>
1.4191

> <Gold.Chemscore.Internal.Correction>
   9.000000E+99

> <Gold.Chemscore.Hbond.Weighted>
-0.0000

> <Gold.Chemscore.Metal.Weighted>
-0.0000

> <Gold.Chemscore.Lipo.Weighted>
-10.4197

> <Gold.Chemscore.Internal_Hbond.Weighted>
0.0000

> <Gold.Chemscore.DEClash.Weighted>
0.0318

> <Gold.Chemscore.DEInternal.Weighted>
2.5885

> <Gold.Chemscore.Rot.Weighted>
3.6330

> <Gold.Chemscore.Internal.Correction.Weighted>
   9.000000E+99

> <Gold.Protein.RotatedTorsions>
[ 6907 6896 6895 6894 ] final  121.78 input  -60.11 | X-H torsion
[ 7974 7965 7964 7962 ] final    3.50 input  175.53 | X-H torsion
[ 8008 7997 7996 7995 ] final -112.16 input   59.86 | X-H torsion
[ 10167 10162 10161 10158 ] final   97.74 input  -65.29 | X-H torsion
[ 10718 10713 10712 10709 ] final  -98.66 input   66.30 | X-H torsion
[ 10763 10752 10751 10750 ] final   99.68 input  -60.55 | X-H torsion
[ 11005 11000 10999 10996 ] final -111.74 input  -57.11 | X-H torsion

> <Gold.Protein.ActiveResidues>
 VAL166  LYS551  ARG553  GLY616  TRP617  ASP618  TYR619  PRO620  LYS621  CYS622 
 ASP623  PHE694  ASN695  SER759  ASP760  ASP761  ALA762  ILE779  LEU786  VAL792 
 PHE793  MET794  SER795  GLU796  ALA797  LYS798  CYS799  TRP800  GLU811  SER814 

> <Gold.Protein.RotatedAtoms>
  152.4295  133.7253  159.6556 H   0  0  0  0  0  0  0  0  0  0  0  0  # atno 6907 bound_to 6896
  150.8173  133.8303  159.3160 H   0  0  0  0  0  0  0  0  0  0  0  0  # atno 6908 bound_to 6896
  151.5996  135.1050  160.0109 H   0  0  0  0  0  0  0  0  0  0  0  0  # atno 6909 bound_to 6896
  146.2445  140.0675  142.8364 H   0  0  0  0  0  0  0  0  0  0  0  0  # atno 7974 bound_to 7965
  155.0010  140.0394  157.2360 H   0  0  0  0  0  0  0  0  0  0  0  0  # atno 8008 bound_to 7997
  154.7544  140.2773  155.6243 H   0  0  0  0  0  0  0  0  0  0  0  0  # atno 8009 bound_to 7997
  156.2891  140.2640  156.2306 H   0  0  0  0  0  0  0  0  0  0  0  0  # atno 8010 bound_to 7997
  139.7772  144.6901  151.0072 H   0  0  0  0  0  0  0  0  0  0  0  0  # atno 10167 bound_to 10162
  156.0113  130.5248  150.6555 H   0  0  0  0  0  0  0  0  0  0  0  0  # atno 10718 bound_to 10713
  153.3044  135.4105  155.1281 H   0  0  0  0  0  0  0  0  0  0  0  0  # atno 10763 bound_to 10752
  154.8558  135.3549  154.5808 H   0  0  0  0  0  0  0  0  0  0  0  0  # atno 10764 bound_to 10752
  153.6234  135.7063  153.5360 H   0  0  0  0  0  0  0  0  0  0  0  0  # atno 10765 bound_to 10752
  141.0717  133.9369  157.2472 H   0  0  0  0  0  0  0  0  0  0  0  0  # atno 11005 bound_to 11000
  145.0845  140.9243  143.4805 LP  0  0  0  0  0  0  0  0  0  0  0  0  # atno 17320 bound_to 7965
  145.0835  139.2942  143.5771 LP  0  0  0  0  0  0  0  0  0  0  0  0  # atno 17321 bound_to 7965
  140.7817  143.4522  151.0396 LP  0  0  0  0  0  0  0  0  0  0  0  0  # atno 17342 bound_to 10162
  139.8204  143.7828  152.3176 LP  0  0  0  0  0  0  0  0  0  0  0  0  # atno 17343 bound_to 10162
  157.4308  131.0849  151.1040 LP  0  0  0  0  0  0  0  0  0  0  0  0  # atno 17370 bound_to 10713
  157.1613  130.6227  149.5612 LP  0  0  0  0  0  0  0  0  0  0  0  0  # atno 17371 bound_to 10713
  139.9530  135.0171  156.9047 LP  0  0  0  0  0  0  0  0  0  0  0  0  # atno 17394 bound_to 11000
  140.5660  134.0489  155.7414 LP  0  0  0  0  0  0  0  0  0  0  0  0  # atno 17395 bound_to 11000

$$$$
