AV-unprocessed.smi:249|AV-procd|sdf|1918|dock2
  -GOLD-   2262021 13D 1   1.00000     0.00000
 Structure written by MMmdl.
 64 67  0  0  0  0  0  0  0  0  2 V2000
  144.2615  132.0923  150.0673 C   0  0  0  0  0  0  0  0  0  0  0  0
  143.9887  131.7944  151.5483 C   0  0  0  0  0  0  0  0  0  0  0  0
  143.7257  133.0286  152.3326 N   0  3  2  0  0  0  0  0  0  0  0  0
  142.6844  133.9063  151.7329 C   0  0  0  0  0  0  0  0  0  0  0  0
  142.3082  135.0461  152.6920 C   0  0  0  0  0  0  0  0  0  0  0  0
  143.5474  135.8756  153.0854 C   0  0  1  0  0  0  0  0  0  0  0  0
  143.2436  137.0229  153.9510 N   0  0  0  0  0  0  0  0  0  0  0  0
  142.1956  137.9375  153.5141 C   0  0  0  0  0  0  0  0  0  0  0  0
  144.2771  137.6277  154.5838 C   0  0  0  0  0  0  0  0  0  0  0  0
  144.2186  137.7101  155.9367 N   0  0  0  0  0  0  0  0  0  0  0  0
  145.2069  138.2995  156.6165 C   0  0  0  0  0  0  0  0  0  0  0  0
  146.3226  138.8617  156.1473 N   0  0  0  0  0  0  0  0  0  0  0  0
  146.3810  138.7860  154.7871 C   0  0  0  0  0  0  0  0  0  0  0  0
  145.4096  138.1945  153.9317 C   0  0  0  0  0  0  0  0  0  0  0  0
  145.8173  138.3049  152.6069 N   0  0  0  0  0  0  0  0  0  0  0  0
  146.9614  138.9297  152.6755 C   0  0  0  0  0  0  0  0  0  0  0  0
  147.3781  139.2479  153.9479 N   0  0  0  0  0  0  0  0  0  0  0  0
  148.6046  139.9296  154.3207 C   0  0  0  0  0  0  0  0  0  0  0  0
  149.4731  139.1163  155.3124 C   0  0  1  0  0  0  0  0  0  0  0  0
  150.0483  137.8256  154.6803 C   0  0  0  0  0  0  0  0  0  0  0  0
  149.0191  136.9593  154.2477 O   0  0  0  0  0  0  0  0  0  0  0  0
  150.5703  139.9954  155.9637 C   0  0  2  0  0  0  0  0  0  0  0  0
  151.1874  139.4175  157.2253 C   0  0  0  0  0  0  0  0  0  0  0  0
  151.8261  140.6450  157.8656 C   0  0  0  0  0  0  0  0  0  0  0  0
  150.9994  141.7443  157.5004 O   0  0  0  0  0  0  0  0  0  0  0  0
  150.0748  141.3450  156.4937 C   0  0  0  0  0  0  0  0  0  0  0  0
  144.6174  134.9314  153.6757 C   0  0  0  0  0  0  0  0  0  0  0  0
  144.9623  133.7723  152.7173 C   0  0  2  0  0  0  0  0  0  0  0  0
  145.8009  134.2388  151.5072 C   0  0  0  0  0  0  0  0  0  0  0  0
  144.3686  131.1650  149.5042 H   0  0  0  0  0  0  0  0  0  0  0  0
  145.1785  132.6634  149.9255 H   0  0  0  0  0  0  0  0  0  0  0  0
  143.4412  132.6554  149.6211 H   0  0  0  0  0  0  0  0  0  0  0  0
  143.1165  131.1413  151.5992 H   0  0  0  0  0  0  0  0  0  0  0  0
  144.8192  131.2387  151.9861 H   0  0  0  0  0  0  0  0  0  0  0  0
  143.0300  134.3075  150.7799 H   0  0  0  0  0  0  0  0  0  0  0  0
  141.7873  133.3280  151.5150 H   0  0  0  0  0  0  0  0  0  0  0  0
  141.5608  135.6881  152.2243 H   0  0  0  0  0  0  0  0  0  0  0  0
  141.8401  134.6126  153.5766 H   0  0  0  0  0  0  0  0  0  0  0  0
  143.9493  136.3059  152.1677 H   0  0  0  0  0  0  0  0  0  0  0  0
  142.0061  138.7039  154.2670 H   0  0  0  0  0  0  0  0  0  0  0  0
  141.2652  137.3919  153.3559 H   0  0  0  0  0  0  0  0  0  0  0  0
  142.4587  138.4333  152.5801 H   0  0  0  0  0  0  0  0  0  0  0  0
  145.0867  138.3245  157.6896 H   0  0  0  0  0  0  0  0  0  0  0  0
  147.5415  139.1688  151.7957 H   0  0  0  0  0  0  0  0  0  0  0  0
  149.1692  140.1494  153.4138 H   0  0  0  0  0  0  0  0  0  0  0  0
  148.3267  140.8920  154.7507 H   0  0  0  0  0  0  0  0  0  0  0  0
  148.8111  138.7908  156.1163 H   0  0  0  0  0  0  0  0  0  0  0  0
  150.6881  138.0609  153.8302 H   0  0  0  0  0  0  0  0  0  0  0  0
  150.6807  137.2903  155.3888 H   0  0  0  0  0  0  0  0  0  0  0  0
  149.1269  136.8014  153.3222 H   0  0  0  0  0  0  0  0  0  0  0  0
  151.3677  140.1810  155.2422 H   0  0  0  0  0  0  0  0  0  0  0  0
  150.4126  139.0156  157.8800 H   0  0  0  0  0  0  0  0  0  0  0  0
  151.9128  138.6274  157.0288 H   0  0  0  0  0  0  0  0  0  0  0  0
  151.9123  140.5531  158.9486 H   0  0  0  0  0  0  0  0  0  0  0  0
  152.8242  140.8113  157.4582 H   0  0  0  0  0  0  0  0  0  0  0  0
  150.0022  142.1000  155.7104 H   0  0  0  0  0  0  0  0  0  0  0  0
  149.0915  141.2432  156.9552 H   0  0  0  0  0  0  0  0  0  0  0  0
  145.5252  135.4821  153.9233 H   0  0  0  0  0  0  0  0  0  0  0  0
  144.2541  134.5092  154.6133 H   0  0  0  0  0  0  0  0  0  0  0  0
  145.5858  133.0786  153.2833 H   0  0  0  0  0  0  0  0  0  0  0  0
  146.6969  134.7629  151.8405 H   0  0  0  0  0  0  0  0  0  0  0  0
  145.2531  134.9196  150.8568 H   0  0  0  0  0  0  0  0  0  0  0  0
  146.1350  133.3982  150.8992 H   0  0  0  0  0  0  0  0  0  0  0  0
  143.3382  132.7065  153.2080 H   0  0  0  0  0  0  0  0  0  0  0  0
  1  2  1  0  0  0  0
  1 30  1  0  0  0  0
  1 31  1  0  0  0  0
  1 32  1  0  0  0  0
  2  3  1  0  0  0  0
  2 33  1  0  0  0  0
  2 34  1  0  0  0  0
  3 28  1  0  0  0  0
  3  4  1  0  0  0  0
  3 64  1  0  0  0  0
  4  5  1  0  0  0  0
  4 35  1  0  0  0  0
  4 36  1  0  0  0  0
  5  6  1  0  0  0  0
  5 37  1  0  0  0  0
  5 38  1  0  0  0  0
  6  7  1  0  0  0  0
  6 27  1  0  0  0  0
  6 39  1  0  0  0  0
  7  8  1  0  0  0  0
  7  9  1  0  0  0  0
  8 40  1  0  0  0  0
  8 41  1  0  0  0  0
  8 42  1  0  0  0  0
  9 14  1  0  0  0  0
  9 10  2  0  0  0  0
 10 11  1  0  0  0  0
 11 12  2  0  0  0  0
 11 43  1  0  0  0  0
 12 13  1  0  0  0  0
 13 17  1  0  0  0  0
 13 14  2  0  0  0  0
 14 15  1  0  0  0  0
 15 16  2  0  0  0  0
 16 17  1  0  0  0  0
 16 44  1  0  0  0  0
 17 18  1  0  0  0  0
 18 19  1  0  0  0  0
 18 45  1  0  0  0  0
 18 46  1  0  0  0  0
 19 20  1  0  0  0  0
 19 22  1  0  0  0  0
 19 47  1  0  0  0  0
 20 21  1  0  0  0  0
 20 48  1  0  0  0  0
 20 49  1  0  0  0  0
 21 50  1  0  0  0  0
 22 26  1  0  0  0  0
 22 23  1  0  0  0  0
 22 51  1  0  0  0  0
 23 24  1  0  0  0  0
 23 52  1  0  0  0  0
 23 53  1  0  0  0  0
 24 25  1  0  0  0  0
 24 54  1  0  0  0  0
 24 55  1  0  0  0  0
 25 26  1  0  0  0  0
 26 56  1  0  0  0  0
 26 57  1  0  0  0  0
 27 28  1  0  0  0  0
 27 58  1  0  0  0  0
 27 59  1  0  0  0  0
 28 29  1  0  0  0  0
 28 60  1  0  0  0  0
 29 61  1  0  0  0  0
 29 62  1  0  0  0  0
 29 63  1  0  0  0  0
M  CHG  1   3   1
M  END
> <s_m_source_file>
AV-unprocessed.smi

> <i_m_source_file_index>
249

> <i_lp_mmshare_version>
43012

> <i_f3d_flags>
0

> <s_epik_input>
W0NIM11bQ0gyXU4xW0NIMl1bQ0gyXVtDQEhdKFtDSDJdW0NASF0xW0NIM10pTihbQ0gzXSljKG5bY0hdbjIpYyhjMjMpbltjSF1uM1tDSDJdW0NASF0oW0NIMl1bT0hdKVtDQEBIXTRbQ0gyXVtDSDJdT1tDSDJdNA==

> <s_epik_cmdline>
J2VwaWtfcHl0aG9uJywgJy1waCcsICc3LjAnLCAnLXRuJywgJzgnLCAnLW1hJywgJzIwMCcsICctbWV0YWxfYmluZGluZycsICctaW1hZScsICc8aW5maWxlLm1hZT4nLCAnLW9tYWUnLCAnPG91dGZpbGUubWFlPic=

> <r_lp_tautomer_probability>
1

> <r_epik_Ionization_Penalty>
0.00294688

> <r_epik_Ionization_Penalty_Charging>
0.00169971

> <r_epik_Ionization_Penalty_Neutral>
0.00124717

> <r_epik_State_Penalty>
-0

> <r_epik_Charging_Adjusted_Penalty>
0.00169971

> <i_epik_Tot_Q>
1

> <i_epik_Tot_abs_Q>
1

> <r_epik_Metal_State_Penalty>
-0

> <b_epik_Metal_Only>
0

> <s_lp_Force_Field>
OPLS_2005

> <r_lp_Energy>
53.4352

> <b_lp_Chiralities_Consistent>
1

> <s_lp_Variant>
AV-unprocessed.smi:249-21

> <Gold.Version>
5.8.1

> <Gold.Id.Protein>
6NUR|6NUR_protein|mol2

> <Gold.PLP.Fitness>
46.7789

> <Gold.PLP.PLP>
-35.3906

> <Gold.PLP.part.hbond>
-1.8341

> <Gold.PLP.part.metal>
0.0000

> <Gold.PLP.part.buried>
-4.9481

> <Gold.PLP.part.nonpolar>
-31.0399

> <Gold.PLP.part.repulsive>
0.8338

> <Gold.PLP.ligand.clash>
0.0000

> <Gold.PLP.ligand.torsion>
0.8810

> <Gold.PLP.Chemscore.Hbond>
2.9500

> <Gold.PLP.Chemscore.CHOScore>
1.0000

> <Gold.PLP.Chemscore.Metal>
0.0000

> <Gold.Chemscore.Hbonds>
donor molecule, donor type, donor heavy atom, donor atom, acceptor molecule, acceptor atom, score
      L1  H     3    64       P1 10957  2.00
      L1  H    21    50       P1  7948  1.00
      L1  C    16    44       P1  7957  1.00

> <Gold.PLP.Chemscore.Internal.Correction>
1.3003

> <Gold.Rescore>
     Score         DG    S(hbond)    S(metal)    S(lipo)     H(rot)  DE(clash)    DE(int)     intcor
     11.59     -14.07       1.75        0.00      86.91       2.90       0.12       2.35       ----

> <Gold.Chemscore.Fitness>
11.5908

> <Gold.Chemscore.DG>
-14.0701

> <Gold.Chemscore.ZeroCoef>
-5.4800

> <Gold.Chemscore.Hbond>
1.7508

> <Gold.Chemscore.Metal>
0.0000

> <Gold.Chemscore.Lipo>
86.9059

> <Gold.Chemscore.Internal_Hbond>
0.0000

> <Gold.Chemscore.DEClash>
0.1248

> <Gold.Chemscore.DEInternal>
2.3545

> <Gold.Chemscore.Rot>
2.9006

> <Gold.Chemscore.Internal.Correction>
   9.000000E+99

> <Gold.Chemscore.Hbonds>
donor molecule, donor type, donor heavy atom, donor atom, acceptor molecule, acceptor atom, score
      L1  H     3    64       P1 10957  0.34
      L1  H    21    50       P1  7948  0.95

> <Gold.Chemscore.Hbond.Weighted>
-5.8477

> <Gold.Chemscore.Metal.Weighted>
-0.0000

> <Gold.Chemscore.Lipo.Weighted>
-10.1680

> <Gold.Chemscore.Internal_Hbond.Weighted>
0.0000

> <Gold.Chemscore.DEClash.Weighted>
0.1248

> <Gold.Chemscore.DEInternal.Weighted>
2.3545

> <Gold.Chemscore.Rot.Weighted>
7.4256

> <Gold.Chemscore.Internal.Correction.Weighted>
   9.000000E+99

> <Gold.Protein.RotatedTorsions>
[ 6907 6896 6895 6894 ] final  -42.49 input  -60.11 | X-H torsion
[ 7974 7965 7964 7962 ] final   63.77 input  175.53 | X-H torsion
[ 8008 7997 7996 7995 ] final -131.50 input   59.86 | X-H torsion
[ 10167 10162 10161 10158 ] final   81.35 input  -65.29 | X-H torsion
[ 10718 10713 10712 10709 ] final   35.53 input   66.30 | X-H torsion
[ 10763 10752 10751 10750 ] final   20.33 input  -60.55 | X-H torsion
[ 11005 11000 10999 10996 ] final  135.58 input  -57.11 | X-H torsion

> <Gold.Protein.ActiveResidues>
 VAL166  LYS551  ARG553  GLY616  TRP617  ASP618  TYR619  PRO620  LYS621  CYS622 
 ASP623  PHE694  ASN695  SER759  ASP760  ASP761  ALA762  ILE779  LEU786  VAL792 
 PHE793  MET794  SER795  GLU796  ALA797  LYS798  CYS799  TRP800  GLU811  SER814 

> <Gold.Protein.RotatedAtoms>
  150.9547  134.8942  159.7693 H   0  0  0  0  0  0  0  0  0  0  0  0  # atno 6907 bound_to 6896
  152.5133  134.3757  159.9344 H   0  0  0  0  0  0  0  0  0  0  0  0  # atno 6908 bound_to 6896
  151.3772  133.3793  159.2741 H   0  0  0  0  0  0  0  0  0  0  0  0  # atno 6909 bound_to 6896
  145.8580  139.3296  143.0836 H   0  0  0  0  0  0  0  0  0  0  0  0  # atno 7974 bound_to 7965
  155.3134  140.0458  157.3036 H   0  0  0  0  0  0  0  0  0  0  0  0  # atno 8008 bound_to 7997
  154.5420  140.2291  155.8591 H   0  0  0  0  0  0  0  0  0  0  0  0  # atno 8009 bound_to 7997
  156.1890  140.3055  155.9301 H   0  0  0  0  0  0  0  0  0  0  0  0  # atno 8010 bound_to 7997
  139.9401  144.6095  150.8260 H   0  0  0  0  0  0  0  0  0  0  0  0  # atno 10167 bound_to 10162
  157.3238  130.7462  149.6802 H   0  0  0  0  0  0  0  0  0  0  0  0  # atno 10718 bound_to 10713
  153.1087  135.6691  153.9540 H   0  0  0  0  0  0  0  0  0  0  0  0  # atno 10763 bound_to 10752
  153.9090  135.3027  155.3450 H   0  0  0  0  0  0  0  0  0  0  0  0  # atno 10764 bound_to 10752
  154.7507  135.5036  153.9361 H   0  0  0  0  0  0  0  0  0  0  0  0  # atno 10765 bound_to 10752
  139.9989  134.9486  157.0027 H   0  0  0  0  0  0  0  0  0  0  0  0  # atno 11005 bound_to 11000
  145.9281  140.9068  143.0370 LP  0  0  0  0  0  0  0  0  0  0  0  0  # atno 17320 bound_to 7965
  144.6727  140.1381  143.7439 LP  0  0  0  0  0  0  0  0  0  0  0  0  # atno 17321 bound_to 7965
  140.7613  143.3171  151.2707 LP  0  0  0  0  0  0  0  0  0  0  0  0  # atno 17342 bound_to 10162
  139.6711  144.0018  152.2753 LP  0  0  0  0  0  0  0  0  0  0  0  0  # atno 17343 bound_to 10162
  155.9688  130.4215  150.4473 LP  0  0  0  0  0  0  0  0  0  0  0  0  # atno 17370 bound_to 10713
  157.2493  131.0543  151.2389 LP  0  0  0  0  0  0  0  0  0  0  0  0  # atno 17371 bound_to 10713
  140.4766  134.1332  155.7210 LP  0  0  0  0  0  0  0  0  0  0  0  0  # atno 17394 bound_to 11000
  141.1626  133.8764  157.1805 LP  0  0  0  0  0  0  0  0  0  0  0  0  # atno 17395 bound_to 11000

$$$$
