AV-unprocessed.smi:2954|AV-procd|sdf|11300|dock1
  -GOLD-   2272016193D 1   1.00000     0.00000
 Structure written by MMmdl.
 43 45  0  0  0  0  0  0  0  0  2 V2000
  152.6081  137.8420  155.1653 C   0  0  0  0  0  0  0  0  0  0  0  0
  151.1695  137.3348  155.3412 C   0  0  1  0  0  0  0  0  0  0  0  0
  150.9560  136.9766  156.7399 N   0  0  0  0  0  0  0  0  0  0  0  0
  150.7034  135.7367  157.1750 C   0  0  0  0  0  0  0  0  0  0  0  0
  150.6219  134.7673  156.4255 O   0  0  0  0  0  0  0  0  0  0  0  0
  150.1871  138.3637  154.8591 C   0  0  0  0  0  0  0  0  0  0  0  0
  149.2227  138.1762  153.9117 N   0  3  0  0  0  0  0  0  0  0  0  0
  148.4748  139.3430  153.7561 C   0  0  0  0  0  0  0  0  0  0  0  0
  147.4000  139.6319  152.9208 C   0  0  0  0  0  0  0  0  0  0  0  0
  146.8554  140.9294  153.0172 C   0  0  0  0  0  0  0  0  0  0  0  0
  147.3772  141.8798  153.9189 C   0  0  0  0  0  0  0  0  0  0  0  0
  148.4669  141.5743  154.7606 C   0  0  0  0  0  0  0  0  0  0  0  0
  149.0025  140.2910  154.6556 C   0  0  0  0  0  0  0  0  0  0  0  0
  150.0603  139.6478  155.3080 N   0  0  0  0  0  0  0  0  0  0  0  0
  150.8308  140.3867  156.3209 C   0  0  0  0  0  0  0  0  0  0  0  0
  149.9397  141.1154  157.3395 C   0  0  0  0  0  0  0  0  0  0  0  0
  150.7336  141.9752  158.1466 O   0  0  0  0  0  0  0  0  0  0  0  0
  151.5436  141.4026  159.1048 C   0  0  0  0  0  0  0  0  0  0  0  0
  151.6187  140.0058  159.3411 C   0  0  0  0  0  0  0  0  0  0  0  0
  152.4777  139.4930  160.3321 C   0  0  0  0  0  0  0  0  0  0  0  0
  153.2707  140.3650  161.0997 C   0  0  0  0  0  0  0  0  0  0  0  0
  153.2020  141.7520  160.8759 C   0  0  0  0  0  0  0  0  0  0  0  0
  152.3435  142.2674  159.8849 C   0  0  0  0  0  0  0  0  0  0  0  0
  152.2646  143.9753  159.6443 Cl  0  0  0  0  0  0  0  0  0  0  0  0
  152.8248  138.0678  154.1211 H   0  0  0  0  0  0  0  0  0  0  0  0
  153.3312  137.0949  155.4945 H   0  0  0  0  0  0  0  0  0  0  0  0
  152.7822  138.7508  155.7427 H   0  0  0  0  0  0  0  0  0  0  0  0
  151.0481  136.4402  154.7272 H   0  0  0  0  0  0  0  0  0  0  0  0
  150.9973  137.7212  157.4205 H   0  0  0  0  0  0  0  0  0  0  0  0
  150.5770  135.7009  158.2677 H   0  0  0  0  0  0  0  0  0  0  0  0
  146.9966  138.9047  152.2315 H   0  0  0  0  0  0  0  0  0  0  0  0
  146.0196  141.2000  152.3883 H   0  0  0  0  0  0  0  0  0  0  0  0
  146.9323  142.8633  153.9668 H   0  0  0  0  0  0  0  0  0  0  0  0
  148.8570  142.3087  155.4493 H   0  0  0  0  0  0  0  0  0  0  0  0
  151.5124  139.6954  156.8179 H   0  0  0  0  0  0  0  0  0  0  0  0
  151.4539  141.1134  155.8006 H   0  0  0  0  0  0  0  0  0  0  0  0
  149.1830  141.7013  156.8164 H   0  0  0  0  0  0  0  0  0  0  0  0
  149.4226  140.3780  157.9548 H   0  0  0  0  0  0  0  0  0  0  0  0
  151.0304  139.3037  158.7705 H   0  0  0  0  0  0  0  0  0  0  0  0
  152.5293  138.4275  160.5020 H   0  0  0  0  0  0  0  0  0  0  0  0
  153.9293  139.9709  161.8595 H   0  0  0  0  0  0  0  0  0  0  0  0
  153.8084  142.4218  161.4677 H   0  0  0  0  0  0  0  0  0  0  0  0
  149.0896  137.3077  153.4097 H   0  0  0  0  0  0  0  0  0  0  0  0
  1  2  1  0  0  0  0
  1 25  1  0  0  0  0
  1 26  1  0  0  0  0
  1 27  1  0  0  0  0
  2  3  1  0  0  0  0
  2  6  1  0  0  0  0
  2 28  1  0  0  0  0
  3  4  1  0  0  0  0
  3 29  1  0  0  0  0
  4  5  2  0  0  0  0
  4 30  1  0  0  0  0
  6 14  1  0  0  0  0
  6  7  2  0  0  0  0
  7  8  1  0  0  0  0
  7 43  1  0  0  0  0
  8 13  2  0  0  0  0
  8  9  1  0  0  0  0
  9 10  2  0  0  0  0
  9 31  1  0  0  0  0
 10 11  1  0  0  0  0
 10 32  1  0  0  0  0
 11 12  2  0  0  0  0
 11 33  1  0  0  0  0
 12 13  1  0  0  0  0
 12 34  1  0  0  0  0
 13 14  1  0  0  0  0
 14 15  1  0  0  0  0
 15 16  1  0  0  0  0
 15 35  1  0  0  0  0
 15 36  1  0  0  0  0
 16 17  1  0  0  0  0
 16 37  1  0  0  0  0
 16 38  1  0  0  0  0
 17 18  1  0  0  0  0
 18 23  1  0  0  0  0
 18 19  2  0  0  0  0
 19 20  1  0  0  0  0
 19 39  1  0  0  0  0
 20 21  2  0  0  0  0
 20 40  1  0  0  0  0
 21 22  1  0  0  0  0
 21 41  1  0  0  0  0
 22 23  2  0  0  0  0
 22 42  1  0  0  0  0
 23 24  1  0  0  0  0
M  CHG  1   7   1
M  END
> <s_m_source_file>
AV-unprocessed.smi

> <i_m_source_file_index>
2954

> <i_lp_mmshare_version>
43012

> <i_f3d_flags>
0

> <s_epik_input>
Tz1bQ0hdW05IXVtDQEBIXShbQ0gzXSljKG4xKW4oYyhjMTIpW2NIXVtjSF1bY0hdW2NIXTIpW0NIMl1bQ0gyXU9jM1tjSF1bY0hdW2NIXVtjSF1jM0Ns

> <s_epik_cmdline>
J2VwaWtfcHl0aG9uJywgJy1waCcsICc3LjAnLCAnLXRuJywgJzgnLCAnLW1hJywgJzIwMCcsICctbWV0YWxfYmluZGluZycsICctaW1hZScsICc8aW5maWxlLm1hZT4nLCAnLW9tYWUnLCAnPG91dGZpbGUubWFlPic=

> <r_lp_tautomer_probability>
1

> <r_epik_Ionization_Penalty>
1.18508

> <r_epik_Ionization_Penalty_Charging>
1.18508

> <r_epik_Ionization_Penalty_Neutral>
5.5802e-08

> <r_epik_State_Penalty>
1.24934

> <r_epik_Charging_Adjusted_Penalty>
2.43443

> <i_epik_Tot_Q>
1

> <i_epik_Tot_abs_Q>
1

> <r_epik_Metal_State_Penalty>
1.32564

> <b_epik_Metal_Only>
0

> <s_lp_Force_Field>
OPLS_2005

> <r_lp_Energy>
18.4095

> <b_lp_Chiralities_Consistent>
1

> <s_lp_Variant>
AV-unprocessed.smi:2954-4

> <Gold.Version>
5.8.1

> <Gold.Id.Protein>
6NUR|6NUR_protein|mol2

> <Gold.PLP.Fitness>
62.4103

> <Gold.PLP.PLP>
-53.7840

> <Gold.PLP.part.hbond>
-3.0000

> <Gold.PLP.part.metal>
0.0000

> <Gold.PLP.part.buried>
0.3954

> <Gold.PLP.part.nonpolar>
-52.2822

> <Gold.PLP.part.repulsive>
0.2554

> <Gold.PLP.ligand.clash>
0.0000

> <Gold.PLP.ligand.torsion>
0.2386

> <Gold.PLP.Chemscore.Hbond>
3.0000

> <Gold.PLP.Chemscore.CHOScore>
0.0000

> <Gold.PLP.Chemscore.Metal>
0.0000

> <Gold.Chemscore.Hbonds>
donor molecule, donor type, donor heavy atom, donor atom, acceptor molecule, acceptor atom, score
      L1  H     7    43       P1  7948  2.00

> <Gold.PLP.Chemscore.Internal.Correction>
0.1035

> <Gold.Rescore>
     Score         DG    S(hbond)    S(metal)    S(lipo)     H(rot)  DE(clash)    DE(int)     intcor
     20.66     -22.79       1.94        0.00     143.75       2.35       1.75       0.38       ----

> <Gold.Chemscore.Fitness>
20.6612

> <Gold.Chemscore.DG>
-22.7862

> <Gold.Chemscore.ZeroCoef>
-5.4800

> <Gold.Chemscore.Hbond>
1.9446

> <Gold.Chemscore.Metal>
0.0000

> <Gold.Chemscore.Lipo>
143.7513

> <Gold.Chemscore.Internal_Hbond>
0.0000

> <Gold.Chemscore.DEClash>
1.7469

> <Gold.Chemscore.DEInternal>
0.3781

> <Gold.Chemscore.Rot>
2.3467

> <Gold.Chemscore.Internal.Correction>
   9.000000E+99

> <Gold.Chemscore.Hbonds>
donor molecule, donor type, donor heavy atom, donor atom, acceptor molecule, acceptor atom, score
      L1  H     7    43       P1  7948  0.97

> <Gold.Chemscore.Hbond.Weighted>
-6.4950

> <Gold.Chemscore.Metal.Weighted>
-0.0000

> <Gold.Chemscore.Lipo.Weighted>
-16.8189

> <Gold.Chemscore.Internal_Hbond.Weighted>
0.0000

> <Gold.Chemscore.DEClash.Weighted>
1.7469

> <Gold.Chemscore.DEInternal.Weighted>
0.3781

> <Gold.Chemscore.Rot.Weighted>
6.0077

> <Gold.Chemscore.Internal.Correction.Weighted>
   9.000000E+99

> <Gold.Protein.RotatedTorsions>
[ 6907 6896 6895 6894 ] final   39.19 input  -60.11 | X-H torsion
[ 7974 7965 7964 7962 ] final -139.24 input  175.53 | X-H torsion
[ 8008 7997 7996 7995 ] final   49.99 input   59.86 | X-H torsion
[ 10167 10162 10161 10158 ] final -119.64 input  -65.29 | X-H torsion
[ 10718 10713 10712 10709 ] final   73.66 input   66.30 | X-H torsion
[ 10763 10752 10751 10750 ] final   81.82 input  -60.55 | X-H torsion
[ 11005 11000 10999 10996 ] final  -38.04 input  -57.11 | X-H torsion

> <Gold.Protein.ActiveResidues>
 VAL166  LYS551  ARG553  GLY616  TRP617  ASP618  TYR619  PRO620  LYS621  CYS622 
 ASP623  PHE694  ASN695  SER759  ASP760  ASP761  ALA762  ILE779  LEU786  VAL792 
 PHE793  MET794  SER795  GLU796  ALA797  LYS798  CYS799  TRP800  GLU811  SER814 

> <Gold.Protein.RotatedAtoms>
  152.1663  134.8871  160.0537 H   0  0  0  0  0  0  0  0  0  0  0  0  # atno 6907 bound_to 6896
  151.9847  133.3765  159.4129 H   0  0  0  0  0  0  0  0  0  0  0  0  # atno 6908 bound_to 6896
  150.6895  134.3923  159.5126 H   0  0  0  0  0  0  0  0  0  0  0  0  # atno 6909 bound_to 6896
  144.8693  140.6342  143.5277 H   0  0  0  0  0  0  0  0  0  0  0  0  # atno 7974 bound_to 7965
  155.4113  140.3442  155.4264 H   0  0  0  0  0  0  0  0  0  0  0  0  # atno 8008 bound_to 7997
  156.1447  140.1552  156.8897 H   0  0  0  0  0  0  0  0  0  0  0  0  # atno 8009 bound_to 7997
  154.5000  140.0817  156.7759 H   0  0  0  0  0  0  0  0  0  0  0  0  # atno 8010 bound_to 7997
  140.0445  143.5121  152.2113 H   0  0  0  0  0  0  0  0  0  0  0  0  # atno 10167 bound_to 10162
  157.6558  130.9639  150.1101 H   0  0  0  0  0  0  0  0  0  0  0  0  # atno 10718 bound_to 10713
  153.1150  135.4751  154.9099 H   0  0  0  0  0  0  0  0  0  0  0  0  # atno 10763 bound_to 10752
  154.7519  135.3108  154.8544 H   0  0  0  0  0  0  0  0  0  0  0  0  # atno 10764 bound_to 10752
  153.9123  135.6864  153.4804 H   0  0  0  0  0  0  0  0  0  0  0  0  # atno 10765 bound_to 10752
  140.9997  133.6961  156.2000 H   0  0  0  0  0  0  0  0  0  0  0  0  # atno 11005 bound_to 11000
  145.4161  139.1572  143.4099 LP  0  0  0  0  0  0  0  0  0  0  0  0  # atno 17320 bound_to 7965
  146.2919  140.4268  142.8736 LP  0  0  0  0  0  0  0  0  0  0  0  0  # atno 17321 bound_to 7965
  139.5992  144.7577  151.3212 LP  0  0  0  0  0  0  0  0  0  0  0  0  # atno 17342 bound_to 10162
  140.7245  143.7043  150.7820 LP  0  0  0  0  0  0  0  0  0  0  0  0  # atno 17343 bound_to 10162
  156.2000  130.3659  149.8801 LP  0  0  0  0  0  0  0  0  0  0  0  0  # atno 17370 bound_to 10713
  156.6707  130.8819  151.3561 LP  0  0  0  0  0  0  0  0  0  0  0  0  # atno 17371 bound_to 10713
  140.6908  134.4667  157.5588 LP  0  0  0  0  0  0  0  0  0  0  0  0  # atno 17394 bound_to 11000
  139.9032  134.8507  156.1808 LP  0  0  0  0  0  0  0  0  0  0  0  0  # atno 17395 bound_to 11000

$$$$
