AV-unprocessed.smi:2468|AV-procd|sdf|9731|dock9
  -GOLD-   2272013373D 1   1.00000     0.00000
 Structure written by MMmdl.
 32 33  0  0  0  0  0  0  0  0  1 V2000
  153.0778  141.8636  160.7989 C   0  0  0  0  0  0  0  0  0  0  0  0
  152.4852  142.7811  159.7455 C   0  0  0  0  0  0  0  0  0  0  0  0
  152.5918  144.1042  159.9964 N   0  0  0  0  0  0  0  0  0  0  0  0
  152.0902  144.9647  159.0870 C   0  0  0  0  0  0  0  0  0  0  0  0
  151.4584  144.5543  157.8977 C   0  0  0  0  0  0  0  0  0  0  0  0
  151.3297  143.1683  157.6390 C   0  0  0  0  0  0  0  0  0  0  0  0
  150.7246  142.6404  156.4642 N   0  0  0  0  0  0  0  0  0  0  0  0
  149.9091  141.5782  156.3327 C   0  0  0  0  0  0  0  0  0  0  0  0
  149.5198  140.8741  157.2646 O   0  0  0  0  0  0  0  0  0  0  0  0
  149.4615  141.2628  154.8953 C   0  0  2  0  0  0  0  0  0  0  0  0
  148.0403  141.4031  154.8469 O   0  0  0  0  0  0  0  0  0  0  0  0
  147.4202  140.1718  154.4853 C   0  0  0  0  0  0  0  0  0  0  0  0
  148.4594  139.0948  154.7729 C   0  0  0  0  0  0  0  0  0  0  0  0
  149.7387  139.8218  154.4119 C   0  0  2  0  0  0  0  0  0  0  0  0
  151.0253  139.1414  154.9145 C   0  0  0  0  0  0  0  0  0  0  0  0
  151.8695  142.2622  158.5821 C   0  0  0  0  0  0  0  0  0  0  0  0
  151.7746  140.5522  158.3220 Cl  0  0  0  0  0  0  0  0  0  0  0  0
  152.3236  141.1667  161.1651 H   0  0  0  0  0  0  0  0  0  0  0  0
  153.4582  142.4257  161.6529 H   0  0  0  0  0  0  0  0  0  0  0  0
  153.9036  141.2891  160.3785 H   0  0  0  0  0  0  0  0  0  0  0  0
  152.2020  146.0152  159.3108 H   0  0  0  0  0  0  0  0  0  0  0  0
  151.1014  145.3056  157.2110 H   0  0  0  0  0  0  0  0  0  0  0  0
  151.0106  143.0805  155.6014 H   0  0  0  0  0  0  0  0  0  0  0  0
  149.9144  141.9778  154.2062 H   0  0  0  0  0  0  0  0  0  0  0  0
  146.4910  140.0160  155.0336 H   0  0  0  0  0  0  0  0  0  0  0  0
  147.1856  140.1982  153.4204 H   0  0  0  0  0  0  0  0  0  0  0  0
  148.4479  138.8273  155.8302 H   0  0  0  0  0  0  0  0  0  0  0  0
  148.3019  138.1880  154.1883 H   0  0  0  0  0  0  0  0  0  0  0  0
  149.8002  139.8576  153.3228 H   0  0  0  0  0  0  0  0  0  0  0  0
  151.0118  138.9813  155.9926 H   0  0  0  0  0  0  0  0  0  0  0  0
  151.9036  139.7409  154.6739 H   0  0  0  0  0  0  0  0  0  0  0  0
  151.1528  138.1660  154.4447 H   0  0  0  0  0  0  0  0  0  0  0  0
  1  2  1  0  0  0  0
  1 18  1  0  0  0  0
  1 19  1  0  0  0  0
  1 20  1  0  0  0  0
  2 16  1  0  0  0  0
  2  3  2  0  0  0  0
  3  4  1  0  0  0  0
  4  5  2  0  0  0  0
  4 21  1  0  0  0  0
  5  6  1  0  0  0  0
  5 22  1  0  0  0  0
  6  7  1  0  0  0  0
  6 16  2  0  0  0  0
  7  8  1  0  0  0  0
  7 23  1  0  0  0  0
  8  9  2  0  0  0  0
  8 10  1  0  0  0  0
 10 14  1  0  0  0  0
 10 11  1  0  0  0  0
 10 24  1  0  0  0  0
 11 12  1  0  0  0  0
 12 13  1  0  0  0  0
 12 25  1  0  0  0  0
 12 26  1  0  0  0  0
 13 14  1  0  0  0  0
 13 27  1  0  0  0  0
 13 28  1  0  0  0  0
 14 15  1  0  0  0  0
 14 29  1  0  0  0  0
 15 30  1  0  0  0  0
 15 31  1  0  0  0  0
 15 32  1  0  0  0  0
 16 17  1  0  0  0  0
M  END
> <s_m_source_file>
AV-unprocessed.smi

> <i_m_source_file_index>
2468

> <i_lp_mmshare_version>
43012

> <i_f3d_flags>
0

> <s_epik_input>
W0NIM11jMW5bY0hdW2NIXWMoYzFDbClbTkhdQyg9TylbQ0BASF0yT1tDSDJdW0NIMl1bQ0BIXTJbQ0gzXQ==

> <s_epik_cmdline>
J2VwaWtfcHl0aG9uJywgJy1waCcsICc3LjAnLCAnLXRuJywgJzgnLCAnLW1hJywgJzIwMCcsICctbWV0YWxfYmluZGluZycsICctaW1hZScsICc8aW5maWxlLm1hZT4nLCAnLW9tYWUnLCAnPG91dGZpbGUubWFlPic=

> <r_epik_Ionization_Penalty>
0.000361027

> <r_epik_Ionization_Penalty_Charging>
0

> <r_epik_Ionization_Penalty_Neutral>
0.000361027

> <r_epik_State_Penalty>
0.000217849

> <r_epik_Charging_Adjusted_Penalty>
0.000217849

> <i_epik_Tot_Q>
0

> <i_epik_Tot_abs_Q>
0

> <r_epik_Metal_State_Penalty>
-0

> <b_epik_Metal_Only>
0

> <s_lp_Force_Field>
OPLS_2005

> <r_lp_Energy>
25.639

> <b_lp_Chiralities_Consistent>
1

> <s_lp_Variant>
AV-unprocessed.smi:2468-3

> <Gold.Version>
5.8.1

> <Gold.Id.Protein>
6NUR|6NUR_protein|mol2

> <Gold.PLP.Fitness>
34.5309

> <Gold.PLP.PLP>
-38.0681

> <Gold.PLP.part.hbond>
-1.0000

> <Gold.PLP.part.metal>
0.0000

> <Gold.PLP.part.buried>
-4.4882

> <Gold.PLP.part.nonpolar>
-33.5867

> <Gold.PLP.part.repulsive>
0.2583

> <Gold.PLP.ligand.clash>
2.8335

> <Gold.PLP.ligand.torsion>
0.3573

> <Gold.PLP.Chemscore.Hbond>
0.0000

> <Gold.PLP.Chemscore.CHOScore>
0.0000

> <Gold.PLP.Chemscore.Metal>
0.0000

> <Gold.PLP.Chemscore.Internal.Correction>
0.0109

> <Gold.Rescore>
     Score         DG    S(hbond)    S(metal)    S(lipo)     H(rot)  DE(clash)    DE(int)     intcor
     10.84     -15.28       0.00        0.00     105.59       1.00       0.12       4.33       ----

> <Gold.Chemscore.Fitness>
10.8359

> <Gold.Chemscore.DG>
-15.2832

> <Gold.Chemscore.ZeroCoef>
-5.4800

> <Gold.Chemscore.Hbond>
0.0027

> <Gold.Chemscore.Metal>
0.0000

> <Gold.Chemscore.Lipo>
105.5925

> <Gold.Chemscore.Internal_Hbond>
0.0000

> <Gold.Chemscore.DEClash>
0.1191

> <Gold.Chemscore.DEInternal>
4.3282

> <Gold.Chemscore.Rot>
1.0000

> <Gold.Chemscore.Internal.Correction>
   9.000000E+99

> <Gold.Chemscore.Hbond.Weighted>
-0.0089

> <Gold.Chemscore.Metal.Weighted>
-0.0000

> <Gold.Chemscore.Lipo.Weighted>
-12.3543

> <Gold.Chemscore.Internal_Hbond.Weighted>
0.0000

> <Gold.Chemscore.DEClash.Weighted>
0.1191

> <Gold.Chemscore.DEInternal.Weighted>
4.3282

> <Gold.Chemscore.Rot.Weighted>
2.5600

> <Gold.Chemscore.Internal.Correction.Weighted>
   9.000000E+99

> <Gold.Protein.RotatedTorsions>
[ 6907 6896 6895 6894 ] final -156.95 input  -60.11 | X-H torsion
[ 7974 7965 7964 7962 ] final   40.09 input  175.53 | X-H torsion
[ 8008 7997 7996 7995 ] final -104.58 input   59.86 | X-H torsion
[ 10167 10162 10161 10158 ] final -133.59 input  -65.29 | X-H torsion
[ 10718 10713 10712 10709 ] final   -2.95 input   66.30 | X-H torsion
[ 10763 10752 10751 10750 ] final   20.13 input  -60.55 | X-H torsion
[ 11005 11000 10999 10996 ] final  139.83 input  -57.11 | X-H torsion

> <Gold.Protein.ActiveResidues>
 VAL166  LYS551  ARG553  GLY616  TRP617  ASP618  TYR619  PRO620  LYS621  CYS622 
 ASP623  PHE694  ASN695  SER759  ASP760  ASP761  ALA762  ILE779  LEU786  VAL792 
 PHE793  MET794  SER795  GLU796  ALA797  LYS798  CYS799  TRP800  GLU811  SER814 

> <Gold.Protein.RotatedAtoms>
  151.2955  133.4146  159.2635 H   0  0  0  0  0  0  0  0  0  0  0  0  # atno 6907 bound_to 6896
  151.0241  134.9491  159.8086 H   0  0  0  0  0  0  0  0  0  0  0  0  # atno 6908 bound_to 6896
  152.5331  134.2917  159.9098 H   0  0  0  0  0  0  0  0  0  0  0  0  # atno 6909 bound_to 6896
  146.0933  139.5574  142.9462 H   0  0  0  0  0  0  0  0  0  0  0  0  # atno 7974 bound_to 7965
  154.8874  140.0417  157.1818 H   0  0  0  0  0  0  0  0  0  0  0  0  # atno 8008 bound_to 7997
  154.8576  140.2939  155.5538 H   0  0  0  0  0  0  0  0  0  0  0  0  # atno 8009 bound_to 7997
  156.2997  140.2453  156.3545 H   0  0  0  0  0  0  0  0  0  0  0  0  # atno 8010 bound_to 7997
  139.8967  143.6656  152.2602 H   0  0  0  0  0  0  0  0  0  0  0  0  # atno 10167 bound_to 10162
  156.7832  130.5337  149.5747 H   0  0  0  0  0  0  0  0  0  0  0  0  # atno 10718 bound_to 10713
  153.1103  135.6695  153.9512 H   0  0  0  0  0  0  0  0  0  0  0  0  # atno 10763 bound_to 10752
  153.9057  135.3031  155.3450 H   0  0  0  0  0  0  0  0  0  0  0  0  # atno 10764 bound_to 10752
  154.7523  135.5029  153.9388 H   0  0  0  0  0  0  0  0  0  0  0  0  # atno 10765 bound_to 10752
  140.0283  134.9364  157.0612 H   0  0  0  0  0  0  0  0  0  0  0  0  # atno 11005 bound_to 11000
  145.5997  141.0357  143.2025 LP  0  0  0  0  0  0  0  0  0  0  0  0  # atno 17320 bound_to 7965
  144.7376  139.7541  143.7323 LP  0  0  0  0  0  0  0  0  0  0  0  0  # atno 17321 bound_to 7965
  139.7061  144.7628  151.1191 LP  0  0  0  0  0  0  0  0  0  0  0  0  # atno 17342 bound_to 10162
  140.7715  143.5393  150.9332 LP  0  0  0  0  0  0  0  0  0  0  0  0  # atno 17343 bound_to 10162
  156.1205  130.6106  151.0186 LP  0  0  0  0  0  0  0  0  0  0  0  0  # atno 17370 bound_to 10713
  157.6636  131.0876  150.7780 LP  0  0  0  0  0  0  0  0  0  0  0  0  # atno 17371 bound_to 10713
  140.4269  134.1822  155.7166 LP  0  0  0  0  0  0  0  0  0  0  0  0  # atno 17394 bound_to 11000
  141.1816  133.8402  157.1238 LP  0  0  0  0  0  0  0  0  0  0  0  0  # atno 17395 bound_to 11000

$$$$
