AV-unprocessed.smi:630|AV-procd|sdf|3119|dock5
  -GOLD-   22720 0 43D 1   1.00000     0.00000
 Structure written by MMmdl.
 37 38  0  0  0  0  0  0  0  0  1 V2000
  148.6528  134.2106  153.6475 N   0  0  0  0  0  0  0  0  0  0  0  0
  147.6104  133.3940  153.8236 C   0  0  0  0  0  0  0  0  0  0  0  0
  147.5953  132.5422  154.7113 O   0  0  0  0  0  0  0  0  0  0  0  0
  146.4064  133.5708  152.8749 C   0  0  2  0  0  0  0  0  0  0  0  0
  146.7643  133.1614  151.4248 C   0  0  0  0  0  0  0  0  0  0  0  0
  145.6150  132.4146  150.7221 C   0  0  0  0  0  0  0  0  0  0  0  0
  144.4196  133.2954  150.3241 C   0  0  0  0  0  0  0  0  0  0  0  0
  143.7956  134.1094  151.4722 C   0  0  0  0  0  0  0  0  0  0  0  0
  144.6793  135.2905  151.9080 C   0  0  0  0  0  0  0  0  0  0  0  0
  145.7452  134.9778  152.9852 C   0  0  2  0  0  0  0  0  0  0  0  0
  146.7325  136.0613  152.9962 N   0  0  0  0  0  0  0  0  0  0  0  0
  146.5439  137.2852  153.5103 C   0  0  0  0  0  0  0  0  0  0  0  0
  145.4886  137.6492  154.0295 O   0  0  0  0  0  0  0  0  0  0  0  0
  147.6465  138.0402  153.3808 N   0  0  0  0  0  0  0  0  0  0  0  0
  147.8306  139.3838  153.7904 C   0  0  0  0  0  0  0  0  0  0  0  0
  146.8103  140.2368  153.6825 N   0  0  0  0  0  0  0  0  0  0  0  0
  147.1480  141.5180  154.1279 C   0  0  0  0  0  0  0  0  0  0  0  0
  148.4419  141.6239  154.5748 C   0  0  0  0  0  0  0  0  0  0  0  0
  149.2961  140.1093  154.4558 S   0  0  0  0  0  0  0  0  0  0  0  0
  149.4624  134.1245  154.2449 H   0  0  0  0  0  0  0  0  0  0  0  0
  148.6312  134.9073  152.9170 H   0  0  0  0  0  0  0  0  0  0  0  0
  145.6657  132.8513  153.2282 H   0  0  0  0  0  0  0  0  0  0  0  0
  147.0729  134.0283  150.8394 H   0  0  0  0  0  0  0  0  0  0  0  0
  147.6246  132.4900  151.4263 H   0  0  0  0  0  0  0  0  0  0  0  0
  146.0057  131.9465  149.8181 H   0  0  0  0  0  0  0  0  0  0  0  0
  145.2714  131.5915  151.3499 H   0  0  0  0  0  0  0  0  0  0  0  0
  144.7166  133.9688  149.5191 H   0  0  0  0  0  0  0  0  0  0  0  0
  143.6510  132.6510  149.8961 H   0  0  0  0  0  0  0  0  0  0  0  0
  142.8511  134.5158  151.1091 H   0  0  0  0  0  0  0  0  0  0  0  0
  143.5368  133.4729  152.3189 H   0  0  0  0  0  0  0  0  0  0  0  0
  145.1526  135.7219  151.0244 H   0  0  0  0  0  0  0  0  0  0  0  0
  144.0336  136.0798  152.2955 H   0  0  0  0  0  0  0  0  0  0  0  0
  145.2346  134.9828  153.9507 H   0  0  0  0  0  0  0  0  0  0  0  0
  147.6347  135.8512  152.5947 H   0  0  0  0  0  0  0  0  0  0  0  0
  148.4425  137.6076  152.9355 H   0  0  0  0  0  0  0  0  0  0  0  0
  146.4032  142.2990  154.0910 H   0  0  0  0  0  0  0  0  0  0  0  0
  148.9424  142.4973  154.9653 H   0  0  0  0  0  0  0  0  0  0  0  0
  1  2  1  0  0  0  0
  1 20  1  0  0  0  0
  1 21  1  0  0  0  0
  2  3  2  0  0  0  0
  2  4  1  0  0  0  0
  4 10  1  0  0  0  0
  4  5  1  0  0  0  0
  4 22  1  0  0  0  0
  5  6  1  0  0  0  0
  5 23  1  0  0  0  0
  5 24  1  0  0  0  0
  6  7  1  0  0  0  0
  6 25  1  0  0  0  0
  6 26  1  0  0  0  0
  7  8  1  0  0  0  0
  7 27  1  0  0  0  0
  7 28  1  0  0  0  0
  8  9  1  0  0  0  0
  8 29  1  0  0  0  0
  8 30  1  0  0  0  0
  9 10  1  0  0  0  0
  9 31  1  0  0  0  0
  9 32  1  0  0  0  0
 10 11  1  0  0  0  0
 10 33  1  0  0  0  0
 11 12  1  0  0  0  0
 11 34  1  0  0  0  0
 12 13  2  0  0  0  0
 12 14  1  0  0  0  0
 14 15  1  0  0  0  0
 14 35  1  0  0  0  0
 15 19  1  0  0  0  0
 15 16  2  0  0  0  0
 16 17  1  0  0  0  0
 17 18  2  0  0  0  0
 17 36  1  0  0  0  0
 18 19  1  0  0  0  0
 18 37  1  0  0  0  0
M  END
> <s_m_source_file>
AV-unprocessed.smi

> <i_m_source_file_index>
630

> <i_lp_mmshare_version>
43012

> <i_f3d_flags>
0

> <s_epik_input>
W05IMl1DKD1PKVtDQEBIXTFbQ0gyXVtDSDJdW0NIMl1bQ0gyXVtDSDJdW0NASF0xW05IXUMoPU8pW05IXWMybltjSF1bY0hdczI=

> <s_epik_cmdline>
J2VwaWtfcHl0aG9uJywgJy1waCcsICc3LjAnLCAnLXRuJywgJzgnLCAnLW1hJywgJzIwMCcsICctbWV0YWxfYmluZGluZycsICctaW1hZScsICc8aW5maWxlLm1hZT4nLCAnLW9tYWUnLCAnPG91dGZpbGUubWFlPic=

> <r_lp_tautomer_probability>
0.999

> <r_epik_Ionization_Penalty>
0.000342689

> <r_epik_Ionization_Penalty_Charging>
0

> <r_epik_Ionization_Penalty_Neutral>
0.000342689

> <r_epik_State_Penalty>
0.000177984

> <r_epik_Charging_Adjusted_Penalty>
0.000177984

> <i_epik_Tot_Q>
0

> <i_epik_Tot_abs_Q>
0

> <r_epik_Metal_State_Penalty>
0.00743087

> <b_epik_Metal_Only>
0

> <s_lp_Force_Field>
OPLS_2005

> <r_lp_Energy>
11.6017

> <b_lp_Chiralities_Consistent>
1

> <s_lp_Variant>
AV-unprocessed.smi:630-3

> <Gold.Version>
5.8.1

> <Gold.Id.Protein>
6NUR|6NUR_protein|mol2

> <Gold.PLP.Fitness>
40.3369

> <Gold.PLP.PLP>
-29.6880

> <Gold.PLP.part.hbond>
-2.9584

> <Gold.PLP.part.metal>
0.0000

> <Gold.PLP.part.buried>
-3.3471

> <Gold.PLP.part.nonpolar>
-23.2963

> <Gold.PLP.part.repulsive>
0.3535

> <Gold.PLP.ligand.clash>
0.0000

> <Gold.PLP.ligand.torsion>
0.5856

> <Gold.PLP.Chemscore.Hbond>
2.8960

> <Gold.PLP.Chemscore.CHOScore>
1.0000

> <Gold.PLP.Chemscore.Metal>
0.0000

> <Gold.Chemscore.Hbonds>
donor molecule, donor type, donor heavy atom, donor atom, acceptor molecule, acceptor atom, score
      L1  H     1    21       P1  7948  1.00
      L1  H    11    34       P1  7948  1.00
      L1  H    14    35       P1  7948  0.90
      L1  C    18    37       P1  8028  1.00

> <Gold.PLP.Chemscore.Internal.Correction>
0.1320

> <Gold.Rescore>
     Score         DG    S(hbond)    S(metal)    S(lipo)     H(rot)  DE(clash)    DE(int)     intcor
     14.46     -18.08       2.79        0.00      61.20       1.52       0.01       3.61       ----

> <Gold.Chemscore.Fitness>
14.4626

> <Gold.Chemscore.DG>
-18.0812

> <Gold.Chemscore.ZeroCoef>
-5.4800

> <Gold.Chemscore.Hbond>
2.7928

> <Gold.Chemscore.Metal>
0.0000

> <Gold.Chemscore.Lipo>
61.2012

> <Gold.Chemscore.Internal_Hbond>
0.0000

> <Gold.Chemscore.DEClash>
0.0060

> <Gold.Chemscore.DEInternal>
3.6126

> <Gold.Chemscore.Rot>
1.5184

> <Gold.Chemscore.Internal.Correction>
   9.000000E+99

> <Gold.Chemscore.Hbonds>
donor molecule, donor type, donor heavy atom, donor atom, acceptor molecule, acceptor atom, score
      L1  H     1    21       P1  7948  0.40
      L1  H    11    34       P1  7948  0.92
      L1  H    14    35       P1  7948  0.88

> <Gold.Chemscore.Hbond.Weighted>
-9.3278

> <Gold.Chemscore.Metal.Weighted>
-0.0000

> <Gold.Chemscore.Lipo.Weighted>
-7.1605

> <Gold.Chemscore.Internal_Hbond.Weighted>
0.0000

> <Gold.Chemscore.DEClash.Weighted>
0.0060

> <Gold.Chemscore.DEInternal.Weighted>
3.6126

> <Gold.Chemscore.Rot.Weighted>
3.8872

> <Gold.Chemscore.Internal.Correction.Weighted>
   9.000000E+99

> <Gold.Protein.RotatedTorsions>
[ 6907 6896 6895 6894 ] final  -29.66 input  -60.11 | X-H torsion
[ 7974 7965 7964 7962 ] final  155.99 input  175.53 | X-H torsion
[ 8008 7997 7996 7995 ] final  -32.31 input   59.86 | X-H torsion
[ 10167 10162 10161 10158 ] final   51.49 input  -65.29 | X-H torsion
[ 10718 10713 10712 10709 ] final  -96.59 input   66.30 | X-H torsion
[ 10763 10752 10751 10750 ] final -177.08 input  -60.55 | X-H torsion
[ 11005 11000 10999 10996 ] final -159.94 input  -57.11 | X-H torsion

> <Gold.Protein.ActiveResidues>
 VAL166  LYS551  ARG553  GLY616  TRP617  ASP618  TYR619  PRO620  LYS621  CYS622 
 ASP623  PHE694  ASN695  SER759  ASP760  ASP761  ALA762  ILE779  LEU786  VAL792 
 PHE793  MET794  SER795  GLU796  ALA797  LYS798  CYS799  TRP800  GLU811  SER814 

> <Gold.Protein.RotatedAtoms>
  151.1162  135.0054  159.8516 H   0  0  0  0  0  0  0  0  0  0  0  0  # atno 6907 bound_to 6896
  152.5446  134.1777  159.8632 H   0  0  0  0  0  0  0  0  0  0  0  0  # atno 6908 bound_to 6896
  151.1831  133.4668  159.2627 H   0  0  0  0  0  0  0  0  0  0  0  0  # atno 6909 bound_to 6896
  144.7990  139.7143  143.6190 H   0  0  0  0  0  0  0  0  0  0  0  0  # atno 7974 bound_to 7965
  154.4184  140.1741  156.1707 H   0  0  0  0  0  0  0  0  0  0  0  0  # atno 8008 bound_to 7997
  155.9763  140.3381  155.6597 H   0  0  0  0  0  0  0  0  0  0  0  0  # atno 8009 bound_to 7997
  155.6560  140.0695  157.2561 H   0  0  0  0  0  0  0  0  0  0  0  0  # atno 8010 bound_to 7997
  140.2613  144.3369  150.6317 H   0  0  0  0  0  0  0  0  0  0  0  0  # atno 10167 bound_to 10162
  156.0065  130.5158  150.6249 H   0  0  0  0  0  0  0  0  0  0  0  0  # atno 10718 bound_to 10713
  154.5645  135.2823  155.0888 H   0  0  0  0  0  0  0  0  0  0  0  0  # atno 10763 bound_to 10752
  154.2284  135.6378  153.5171 H   0  0  0  0  0  0  0  0  0  0  0  0  # atno 10764 bound_to 10752
  153.0039  135.5531  154.6249 H   0  0  0  0  0  0  0  0  0  0  0  0  # atno 10765 bound_to 10752
  140.6370  134.4591  157.5232 H   0  0  0  0  0  0  0  0  0  0  0  0  # atno 11005 bound_to 11000
  146.2267  139.5735  142.9583 LP  0  0  0  0  0  0  0  0  0  0  0  0  # atno 17320 bound_to 7965
  145.5600  141.0405  143.2231 LP  0  0  0  0  0  0  0  0  0  0  0  0  # atno 17321 bound_to 7965
  140.5963  143.2167  151.7157 LP  0  0  0  0  0  0  0  0  0  0  0  0  # atno 17342 bound_to 10162
  139.5016  144.3862  152.0326 LP  0  0  0  0  0  0  0  0  0  0  0  0  # atno 17343 bound_to 10162
  157.4057  131.0816  151.1267 LP  0  0  0  0  0  0  0  0  0  0  0  0  # atno 17370 bound_to 10713
  157.1914  130.6354  149.5706 LP  0  0  0  0  0  0  0  0  0  0  0  0  # atno 17371 bound_to 10713
  139.9094  134.8377  156.1583 LP  0  0  0  0  0  0  0  0  0  0  0  0  # atno 17394 bound_to 11000
  141.0634  133.6831  156.1997 LP  0  0  0  0  0  0  0  0  0  0  0  0  # atno 17395 bound_to 11000

$$$$
