AV-unprocessed.smi:884|AV-procd|sdf|4042|dock2
  -GOLD-   22720 1533D 1   1.00000     0.00000
 Structure written by MMmdl.
 47 49  0  0  0  0  0  0  0  0  1 V2000
  146.9195  137.5710  160.2214 O   0  0  0  0  0  0  0  0  0  0  0  0
  147.3617  136.4484  160.4696 C   0  0  0  0  0  0  0  0  0  0  0  0
  148.1945  135.8048  159.6327 N   0  0  0  0  0  0  0  0  0  0  0  0
  148.6306  136.2850  158.3235 C   0  0  0  0  0  0  0  0  0  0  0  0
  149.5341  137.5284  158.4282 C   0  0  0  0  0  0  0  0  0  0  0  0
  150.2214  137.9069  157.1259 C   0  0  0  0  0  0  0  0  0  0  0  0
  151.1262  138.9885  157.0808 C   0  0  0  0  0  0  0  0  0  0  0  0
  151.7248  139.3119  155.8476 C   0  0  0  0  0  0  0  0  0  0  0  0
  151.3997  138.5433  154.7134 C   0  0  0  0  0  0  0  0  0  0  0  0
  150.4831  137.4837  154.8622 C   0  0  0  0  0  0  0  0  0  0  0  0
  149.8978  137.1702  156.0383 N   0  0  0  0  0  0  0  0  0  0  0  0
  147.0378  135.7580  161.5935 N   0  0  0  0  0  0  0  0  0  0  0  0
  147.7022  134.5418  162.0865 C   0  0  0  0  0  0  0  0  0  0  0  0
  146.8422  133.3243  161.7234 C   0  0  0  0  0  0  0  0  0  0  0  0
  145.2179  133.4096  162.5389 S   0  0  0  0  0  0  0  0  0  0  0  0
  144.6757  135.1103  162.1172 C   0  0  0  0  0  0  0  0  0  0  0  0
  144.2174  135.1868  160.6360 C   0  0  0  0  0  0  0  0  0  0  0  0
  142.9328  134.3906  160.3479 C   0  0  0  0  0  0  0  0  0  0  0  0
  141.7886  134.8284  161.2709 C   0  0  0  0  0  0  0  0  0  0  0  0
  142.2001  134.7126  162.7444 C   0  0  0  0  0  0  0  0  0  0  0  0
  143.4878  135.5075  163.0293 C   0  0  0  0  0  0  0  0  0  0  0  0
  145.8503  136.0882  162.3961 C   0  0  0  0  0  0  0  0  0  0  0  0
  148.5146  134.8875  159.9069 H   0  0  0  0  0  0  0  0  0  0  0  0
  149.1560  135.5021  157.7742 H   0  0  0  0  0  0  0  0  0  0  0  0
  147.7460  136.5242  157.7330 H   0  0  0  0  0  0  0  0  0  0  0  0
  148.9467  138.3788  158.7762 H   0  0  0  0  0  0  0  0  0  0  0  0
  150.2948  137.3588  159.1920 H   0  0  0  0  0  0  0  0  0  0  0  0
  151.3518  139.5616  157.9683 H   0  0  0  0  0  0  0  0  0  0  0  0
  152.4205  140.1348  155.7734 H   0  0  0  0  0  0  0  0  0  0  0  0
  151.8384  138.7630  153.7513 H   0  0  0  0  0  0  0  0  0  0  0  0
  150.2043  136.8786  154.0121 H   0  0  0  0  0  0  0  0  0  0  0  0
  148.7121  134.4119  161.6972 H   0  0  0  0  0  0  0  0  0  0  0  0
  147.8267  134.5993  163.1687 H   0  0  0  0  0  0  0  0  0  0  0  0
  146.7029  133.2601  160.6445 H   0  0  0  0  0  0  0  0  0  0  0  0
  147.3379  132.4046  162.0341 H   0  0  0  0  0  0  0  0  0  0  0  0
  144.0454  136.2299  160.3667 H   0  0  0  0  0  0  0  0  0  0  0  0
  145.0046  134.8358  159.9721 H   0  0  0  0  0  0  0  0  0  0  0  0
  142.6401  134.5301  159.3072 H   0  0  0  0  0  0  0  0  0  0  0  0
  143.1192  133.3234  160.4712 H   0  0  0  0  0  0  0  0  0  0  0  0
  141.5124  135.8596  161.0479 H   0  0  0  0  0  0  0  0  0  0  0  0
  140.9028  134.2216  161.0813 H   0  0  0  0  0  0  0  0  0  0  0  0
  141.3939  135.0780  163.3811 H   0  0  0  0  0  0  0  0  0  0  0  0
  142.3410  133.6633  163.0056 H   0  0  0  0  0  0  0  0  0  0  0  0
  143.7646  135.3865  164.0775 H   0  0  0  0  0  0  0  0  0  0  0  0
  143.2709  136.5687  162.8980 H   0  0  0  0  0  0  0  0  0  0  0  0
  146.1150  136.0569  163.4542 H   0  0  0  0  0  0  0  0  0  0  0  0
  145.5285  137.1166  162.2242 H   0  0  0  0  0  0  0  0  0  0  0  0
  1  2  2  0  0  0  0
  2  3  1  0  0  0  0
  2 12  1  0  0  0  0
  3  4  1  0  0  0  0
  3 23  1  0  0  0  0
  4  5  1  0  0  0  0
  4 24  1  0  0  0  0
  4 25  1  0  0  0  0
  5  6  1  0  0  0  0
  5 26  1  0  0  0  0
  5 27  1  0  0  0  0
  6 11  1  0  0  0  0
  6  7  2  0  0  0  0
  7  8  1  0  0  0  0
  7 28  1  0  0  0  0
  8  9  2  0  0  0  0
  8 29  1  0  0  0  0
  9 10  1  0  0  0  0
  9 30  1  0  0  0  0
 10 11  2  0  0  0  0
 10 31  1  0  0  0  0
 12 22  1  0  0  0  0
 12 13  1  0  0  0  0
 13 14  1  0  0  0  0
 13 32  1  0  0  0  0
 13 33  1  0  0  0  0
 14 15  1  0  0  0  0
 14 34  1  0  0  0  0
 14 35  1  0  0  0  0
 15 16  1  0  0  0  0
 16 21  1  0  0  0  0
 16 17  1  0  0  0  0
 16 22  1  0  0  0  0
 17 18  1  0  0  0  0
 17 36  1  0  0  0  0
 17 37  1  0  0  0  0
 18 19  1  0  0  0  0
 18 38  1  0  0  0  0
 18 39  1  0  0  0  0
 19 20  1  0  0  0  0
 19 40  1  0  0  0  0
 19 41  1  0  0  0  0
 20 21  1  0  0  0  0
 20 42  1  0  0  0  0
 20 43  1  0  0  0  0
 21 44  1  0  0  0  0
 21 45  1  0  0  0  0
 22 46  1  0  0  0  0
 22 47  1  0  0  0  0
M  END
> <s_m_source_file>
AV-unprocessed.smi

> <i_m_source_file_index>
884

> <i_lp_mmshare_version>
43012

> <i_f3d_flags>
0

> <s_epik_input>
bjFbY0hdW2NIXVtjSF1bY0hdYzFbQ0gyXVtDSDJdW05IXUMoPU8pTihbQ0gyXTIpW0NIMl1bQ0gyXVNDMjNbQ0gyXVtDSDJdW0NIMl1bQ0gyXVtDSDJdMw==

> <s_epik_cmdline>
J2VwaWtfcHl0aG9uJywgJy1waCcsICc3LjAnLCAnLXRuJywgJzgnLCAnLW1hJywgJzIwMCcsICctbWV0YWxfYmluZGluZycsICctaW1hZScsICc8aW5maWxlLm1hZT4nLCAnLW9tYWUnLCAnPG91dGZpbGUubWFlPic=

> <r_epik_Ionization_Penalty>
0.0449137

> <r_epik_Ionization_Penalty_Charging>
0

> <r_epik_Ionization_Penalty_Neutral>
0.0449137

> <r_epik_State_Penalty>
0.0380475

> <r_epik_Charging_Adjusted_Penalty>
0.0380475

> <i_epik_Tot_Q>
0

> <i_epik_Tot_abs_Q>
0

> <r_epik_Metal_State_Penalty>
0.0353559

> <b_epik_Metal_Only>
0

> <s_lp_Force_Field>
OPLS_2005

> <r_lp_Energy>
30.1612

> <b_lp_Chiralities_Consistent>
1

> <s_lp_Variant>
AV-unprocessed.smi:884-1

> <Gold.Version>
5.8.1

> <Gold.Id.Protein>
6NUR|6NUR_protein|mol2

> <Gold.PLP.Fitness>
40.5238

> <Gold.PLP.PLP>
-34.6906

> <Gold.PLP.part.hbond>
-1.0000

> <Gold.PLP.part.metal>
0.0000

> <Gold.PLP.part.buried>
-5.9545

> <Gold.PLP.part.nonpolar>
-28.1711

> <Gold.PLP.part.repulsive>
0.1655

> <Gold.PLP.ligand.clash>
0.0000

> <Gold.PLP.ligand.torsion>
0.1868

> <Gold.PLP.Chemscore.Hbond>
1.0000

> <Gold.PLP.Chemscore.CHOScore>
1.0601

> <Gold.PLP.Chemscore.Metal>
0.0000

> <Gold.Chemscore.Hbonds>
donor molecule, donor type, donor heavy atom, donor atom, acceptor molecule, acceptor atom, score
      P1  H  6934  6947       L1     1  1.00
      L1  C    10    31       P1  7948  1.00
      L1  C    10    31       P1  7949  0.06

> <Gold.PLP.Chemscore.Internal.Correction>
0.0264

> <Gold.Rescore>
     Score         DG    S(hbond)    S(metal)    S(lipo)     H(rot)  DE(clash)    DE(int)     intcor
     16.52     -16.73       0.99        0.00      94.71       1.23       0.01       0.20       ----

> <Gold.Chemscore.Fitness>
16.5154

> <Gold.Chemscore.DG>
-16.7319

> <Gold.Chemscore.ZeroCoef>
-5.4800

> <Gold.Chemscore.Hbond>
0.9921

> <Gold.Chemscore.Metal>
0.0000

> <Gold.Chemscore.Lipo>
94.7108

> <Gold.Chemscore.Internal_Hbond>
0.0000

> <Gold.Chemscore.DEClash>
0.0126

> <Gold.Chemscore.DEInternal>
0.2039

> <Gold.Chemscore.Rot>
1.2276

> <Gold.Chemscore.Internal.Correction>
   9.000000E+99

> <Gold.Chemscore.Hbonds>
donor molecule, donor type, donor heavy atom, donor atom, acceptor molecule, acceptor atom, score
      P1  H  6934  6947       L1     1  0.99

> <Gold.Chemscore.Hbond.Weighted>
-3.3135

> <Gold.Chemscore.Metal.Weighted>
-0.0000

> <Gold.Chemscore.Lipo.Weighted>
-11.0812

> <Gold.Chemscore.Internal_Hbond.Weighted>
0.0000

> <Gold.Chemscore.DEClash.Weighted>
0.0126

> <Gold.Chemscore.DEInternal.Weighted>
0.2039

> <Gold.Chemscore.Rot.Weighted>
3.1427

> <Gold.Chemscore.Internal.Correction.Weighted>
   9.000000E+99

> <Gold.Protein.RotatedTorsions>
[ 6907 6896 6895 6894 ] final -139.12 input  -60.11 | X-H torsion
[ 7974 7965 7964 7962 ] final  -90.93 input  175.53 | X-H torsion
[ 8008 7997 7996 7995 ] final -128.61 input   59.86 | X-H torsion
[ 10167 10162 10161 10158 ] final -169.94 input  -65.29 | X-H torsion
[ 10718 10713 10712 10709 ] final   76.75 input   66.30 | X-H torsion
[ 10763 10752 10751 10750 ] final   78.48 input  -60.55 | X-H torsion
[ 11005 11000 10999 10996 ] final   29.68 input  -57.11 | X-H torsion

> <Gold.Protein.ActiveResidues>
 VAL166  LYS551  ARG553  GLY616  TRP617  ASP618  TYR619  PRO620  LYS621  CYS622 
 ASP623  PHE694  ASN695  SER759  ASP760  ASP761  ALA762  ILE779  LEU786  VAL792 
 PHE793  MET794  SER795  GLU796  ALA797  LYS798  CYS799  TRP800  GLU811  SER814 

> <Gold.Protein.RotatedAtoms>
  151.0437  133.5684  159.2648 H   0  0  0  0  0  0  0  0  0  0  0  0  # atno 6907 bound_to 6896
  151.2720  135.0687  159.9147 H   0  0  0  0  0  0  0  0  0  0  0  0  # atno 6908 bound_to 6896
  152.5369  134.0166  159.8016 H   0  0  0  0  0  0  0  0  0  0  0  0  # atno 6909 bound_to 6896
  145.4199  140.9550  143.2187 H   0  0  0  0  0  0  0  0  0  0  0  0  # atno 7974 bound_to 7965
  155.2656  140.0438  157.3002 H   0  0  0  0  0  0  0  0  0  0  0  0  # atno 8008 bound_to 7997
  154.5684  140.2367  155.8197 H   0  0  0  0  0  0  0  0  0  0  0  0  # atno 8009 bound_to 7997
  156.2103  140.3000  155.9726 H   0  0  0  0  0  0  0  0  0  0  0  0  # atno 8010 bound_to 7997
  139.5892  144.1251  152.1613 H   0  0  0  0  0  0  0  0  0  0  0  0  # atno 10167 bound_to 10162
  157.6685  130.9789  150.1541 H   0  0  0  0  0  0  0  0  0  0  0  0  # atno 10718 bound_to 10713
  153.0877  135.4875  154.8629 H   0  0  0  0  0  0  0  0  0  0  0  0  # atno 10763 bound_to 10752
  154.7231  135.3044  154.9017 H   0  0  0  0  0  0  0  0  0  0  0  0  # atno 10764 bound_to 10752
  153.9675  135.6805  153.4799 H   0  0  0  0  0  0  0  0  0  0  0  0  # atno 10765 bound_to 10752
  140.3024  134.2742  155.7751 H   0  0  0  0  0  0  0  0  0  0  0  0  # atno 11005 bound_to 11000
  144.8252  139.5722  143.6968 LP  0  0  0  0  0  0  0  0  0  0  0  0  # atno 17320 bound_to 7965
  146.2662  139.6525  142.9328 LP  0  0  0  0  0  0  0  0  0  0  0  0  # atno 17321 bound_to 7965
  140.0821  144.5691  150.7114 LP  0  0  0  0  0  0  0  0  0  0  0  0  # atno 17342 bound_to 10162
  140.7158  143.2543  151.4438 LP  0  0  0  0  0  0  0  0  0  0  0  0  # atno 17343 bound_to 10162
  156.2333  130.3684  149.8419 LP  0  0  0  0  0  0  0  0  0  0  0  0  # atno 17370 bound_to 10713
  156.6240  130.8638  151.3481 LP  0  0  0  0  0  0  0  0  0  0  0  0  # atno 17371 bound_to 10713
  141.2125  133.7655  156.9786 LP  0  0  0  0  0  0  0  0  0  0  0  0  # atno 17394 bound_to 11000
  140.1097  134.9484  157.2047 LP  0  0  0  0  0  0  0  0  0  0  0  0  # atno 17395 bound_to 11000

$$$$
