AV-unprocessed.smi:1925|AV-procd|sdf|7793|dock1
  -GOLD-   22720 9533D 1   1.00000     0.00000
 Structure written by MMmdl.
 31 32  0  0  0  0  0  0  0  0  1 V2000
  144.7163  136.8338  152.5853 O   0  0  0  0  0  0  0  0  0  0  0  0
  145.8977  136.6580  152.2868 C   0  0  0  0  0  0  0  0  0  0  0  0
  146.8663  137.5460  152.5530 N   0  0  0  0  0  0  0  0  0  0  0  0
  146.6638  138.8359  153.2038 C   0  0  0  0  0  0  0  0  0  0  0  0
  147.9404  139.6987  153.1873 C   0  0  1  0  0  0  0  0  0  0  0  0
  147.7503  141.0982  153.7619 C   0  0  0  0  0  0  0  0  0  0  0  0
  149.0314  141.3607  154.5606 C   0  0  0  0  0  0  0  0  0  0  0  0
  149.9027  140.2860  154.2400 O   0  0  0  0  0  0  0  0  0  0  0  0
  149.0947  139.1435  154.0209 C   0  0  0  0  0  0  0  0  0  0  0  0
  146.3891  135.5771  151.6555 N   0  0  0  0  0  0  0  0  0  0  0  0
  145.6859  134.4285  151.2043 C   0  0  0  0  0  0  0  0  0  0  0  0
  146.4994  133.3886  150.7000 C   0  0  0  0  0  0  0  0  0  0  0  0
  145.8986  132.2060  150.2270 C   0  0  0  0  0  0  0  0  0  0  0  0
  144.4976  132.0930  150.2714 C   0  0  0  0  0  0  0  0  0  0  0  0
  143.7614  133.1742  150.7896 C   0  0  0  0  0  0  0  0  0  0  0  0
  144.3353  134.3085  151.2433 N   0  0  0  0  0  0  0  0  0  0  0  0
  147.8103  137.3199  152.2759 H   0  0  0  0  0  0  0  0  0  0  0  0
  145.8406  139.3694  152.7255 H   0  0  0  0  0  0  0  0  0  0  0  0
  146.3523  138.6480  154.2317 H   0  0  0  0  0  0  0  0  0  0  0  0
  148.2911  139.8064  152.1595 H   0  0  0  0  0  0  0  0  0  0  0  0
  147.6157  141.8297  152.9643 H   0  0  0  0  0  0  0  0  0  0  0  0
  146.8803  141.1582  154.4166 H   0  0  0  0  0  0  0  0  0  0  0  0
  149.4877  142.3204  154.3173 H   0  0  0  0  0  0  0  0  0  0  0  0
  148.8236  141.3450  155.6314 H   0  0  0  0  0  0  0  0  0  0  0  0
  148.7445  138.7529  154.9779 H   0  0  0  0  0  0  0  0  0  0  0  0
  149.6457  138.3560  153.5064 H   0  0  0  0  0  0  0  0  0  0  0  0
  147.3808  135.5794  151.4687 H   0  0  0  0  0  0  0  0  0  0  0  0
  147.5745  133.4921  150.6725 H   0  0  0  0  0  0  0  0  0  0  0  0
  146.5027  131.4006  149.8366 H   0  0  0  0  0  0  0  0  0  0  0  0
  144.0004  131.2018  149.9179 H   0  0  0  0  0  0  0  0  0  0  0  0
  142.6837  133.1277  150.8414 H   0  0  0  0  0  0  0  0  0  0  0  0
  1  2  2  0  0  0  0
  2  3  1  0  0  0  0
  2 10  1  0  0  0  0
  3  4  1  0  0  0  0
  3 17  1  0  0  0  0
  4  5  1  0  0  0  0
  4 18  1  0  0  0  0
  4 19  1  0  0  0  0
  5  9  1  0  0  0  0
  5  6  1  0  0  0  0
  5 20  1  0  0  0  0
  6  7  1  0  0  0  0
  6 21  1  0  0  0  0
  6 22  1  0  0  0  0
  7  8  1  0  0  0  0
  7 23  1  0  0  0  0
  7 24  1  0  0  0  0
  8  9  1  0  0  0  0
  9 25  1  0  0  0  0
  9 26  1  0  0  0  0
 10 11  1  0  0  0  0
 10 27  1  0  0  0  0
 11 16  1  0  0  0  0
 11 12  2  0  0  0  0
 12 13  1  0  0  0  0
 12 28  1  0  0  0  0
 13 14  2  0  0  0  0
 13 29  1  0  0  0  0
 14 15  1  0  0  0  0
 14 30  1  0  0  0  0
 15 16  2  0  0  0  0
 15 31  1  0  0  0  0
M  END
> <s_m_source_file>
AV-unprocessed.smi

> <i_m_source_file_index>
1925

> <i_lp_mmshare_version>
43012

> <i_f3d_flags>
0

> <s_epik_input>
bjFbY0hdW2NIXVtjSF1bY0hdYzFbTkhdQyg9TylbTkhdW0NIMl1bQ0BASF0yW0NIMl1bQ0gyXU9bQ0gyXTI=

> <s_epik_cmdline>
J2VwaWtfcHl0aG9uJywgJy1waCcsICc3LjAnLCAnLXRuJywgJzgnLCAnLW1hJywgJzIwMCcsICctbWV0YWxfYmluZGluZycsICctaW1hZScsICc8aW5maWxlLm1hZT4nLCAnLW9tYWUnLCAnPG91dGZpbGUubWFlPic=

> <r_lp_tautomer_probability>
1

> <r_epik_Ionization_Penalty>
4.81143e-05

> <r_epik_Ionization_Penalty_Charging>
0

> <r_epik_Ionization_Penalty_Neutral>
4.81143e-05

> <r_epik_State_Penalty>
-0

> <r_epik_Charging_Adjusted_Penalty>
0

> <i_epik_Tot_Q>
0

> <i_epik_Tot_abs_Q>
0

> <r_epik_Metal_State_Penalty>
-0

> <b_epik_Metal_Only>
0

> <s_lp_Force_Field>
OPLS_2005

> <r_lp_Energy>
20.4602

> <b_lp_Chiralities_Consistent>
1

> <s_lp_Variant>
AV-unprocessed.smi:1925-2

> <Gold.Version>
5.8.1

> <Gold.Id.Protein>
6NUR|6NUR_protein|mol2

> <Gold.PLP.Fitness>
40.7370

> <Gold.PLP.PLP>
-29.0607

> <Gold.PLP.part.hbond>
-3.0000

> <Gold.PLP.part.metal>
0.0000

> <Gold.PLP.part.buried>
-0.9310

> <Gold.PLP.part.nonpolar>
-26.1176

> <Gold.PLP.part.repulsive>
0.5755

> <Gold.PLP.ligand.clash>
0.0000

> <Gold.PLP.ligand.torsion>
0.0547

> <Gold.PLP.Chemscore.Hbond>
2.9280

> <Gold.PLP.Chemscore.CHOScore>
1.0000

> <Gold.PLP.Chemscore.Metal>
0.0000

> <Gold.Chemscore.Hbonds>
donor molecule, donor type, donor heavy atom, donor atom, acceptor molecule, acceptor atom, score
      L1  H     3    17       P1  7948  1.00
      L1  H    10    27       P1  7948  0.99
      P1  H  7989  7998       L1     8  0.86
      L1  C    15    31       P1 10186  0.99

> <Gold.PLP.Chemscore.Internal.Correction>
0.0017

> <Gold.Rescore>
     Score         DG    S(hbond)    S(metal)    S(lipo)     H(rot)  DE(clash)    DE(int)     intcor
     17.34     -19.04       2.75        0.00      65.14       1.27       0.32       1.38       ----

> <Gold.Chemscore.Fitness>
17.3447

> <Gold.Chemscore.DG>
-19.0409

> <Gold.Chemscore.ZeroCoef>
-5.4800

> <Gold.Chemscore.Hbond>
2.7501

> <Gold.Chemscore.Metal>
0.0000

> <Gold.Chemscore.Lipo>
65.1366

> <Gold.Chemscore.Internal_Hbond>
0.0000

> <Gold.Chemscore.DEClash>
0.3205

> <Gold.Chemscore.DEInternal>
1.3757

> <Gold.Chemscore.Rot>
1.2678

> <Gold.Chemscore.Internal.Correction>
   9.000000E+99

> <Gold.Chemscore.Hbonds>
donor molecule, donor type, donor heavy atom, donor atom, acceptor molecule, acceptor atom, score
      L1  H     3    17       P1  7948  0.95
      L1  H    10    27       P1  7948  0.90
      P1  H  7989  7998       L1     8  0.71

> <Gold.Chemscore.Hbond.Weighted>
-9.1854

> <Gold.Chemscore.Metal.Weighted>
-0.0000

> <Gold.Chemscore.Lipo.Weighted>
-7.6210

> <Gold.Chemscore.Internal_Hbond.Weighted>
0.0000

> <Gold.Chemscore.DEClash.Weighted>
0.3205

> <Gold.Chemscore.DEInternal.Weighted>
1.3757

> <Gold.Chemscore.Rot.Weighted>
3.2455

> <Gold.Chemscore.Internal.Correction.Weighted>
   9.000000E+99

> <Gold.Protein.RotatedTorsions>
[ 6907 6896 6895 6894 ] final -159.05 input  -60.11 | X-H torsion
[ 7974 7965 7964 7962 ] final -116.71 input  175.53 | X-H torsion
[ 8008 7997 7996 7995 ] final -139.77 input   59.86 | X-H torsion
[ 10167 10162 10161 10158 ] final -130.08 input  -65.29 | X-H torsion
[ 10718 10713 10712 10709 ] final  -37.52 input   66.30 | X-H torsion
[ 10763 10752 10751 10750 ] final  -33.24 input  -60.55 | X-H torsion
[ 11005 11000 10999 10996 ] final   18.34 input  -57.11 | X-H torsion

> <Gold.Protein.ActiveResidues>
 VAL166  LYS551  ARG553  GLY616  TRP617  ASP618  TYR619  PRO620  LYS621  CYS622 
 ASP623  PHE694  ASN695  SER759  ASP760  ASP761  ALA762  ILE779  LEU786  VAL792 
 PHE793  MET794  SER795  GLU796  ALA797  LYS798  CYS799  TRP800  GLU811  SER814 

> <Gold.Protein.RotatedAtoms>
  151.3276  133.4014  159.2659 H   0  0  0  0  0  0  0  0  0  0  0  0  # atno 6907 bound_to 6896
  150.9983  134.9302  159.7949 H   0  0  0  0  0  0  0  0  0  0  0  0  # atno 6908 bound_to 6896
  152.5267  134.3241  159.9211 H   0  0  0  0  0  0  0  0  0  0  0  0  # atno 6909 bound_to 6896
  145.0936  140.8506  143.3968 H   0  0  0  0  0  0  0  0  0  0  0  0  # atno 7974 bound_to 7965
  155.4503  140.0538  157.3002 H   0  0  0  0  0  0  0  0  0  0  0  0  # atno 8008 bound_to 7997
  154.4780  140.2069  155.9788 H   0  0  0  0  0  0  0  0  0  0  0  0  # atno 8009 bound_to 7997
  156.1162  140.3196  155.8147 H   0  0  0  0  0  0  0  0  0  0  0  0  # atno 8010 bound_to 7997
  139.9330  143.6250  152.2524 H   0  0  0  0  0  0  0  0  0  0  0  0  # atno 10167 bound_to 10162
  156.3142  130.4257  149.8021 H   0  0  0  0  0  0  0  0  0  0  0  0  # atno 10718 bound_to 10713
  153.8269  135.6869  153.4819 H   0  0  0  0  0  0  0  0  0  0  0  0  # atno 10763 bound_to 10752
  153.1534  135.4609  154.9668 H   0  0  0  0  0  0  0  0  0  0  0  0  # atno 10764 bound_to 10752
  154.7903  135.3299  154.7736 H   0  0  0  0  0  0  0  0  0  0  0  0  # atno 10765 bound_to 10752
  140.4259  134.1470  155.7676 H   0  0  0  0  0  0  0  0  0  0  0  0  # atno 11005 bound_to 11000
  145.1037  139.2805  143.5673 LP  0  0  0  0  0  0  0  0  0  0  0  0  # atno 17320 bound_to 7965
  146.3531  140.0611  142.8629 LP  0  0  0  0  0  0  0  0  0  0  0  0  # atno 17321 bound_to 7965
  139.6766  144.7658  151.1684 LP  0  0  0  0  0  0  0  0  0  0  0  0  # atno 17342 bound_to 10162
  140.7632  143.5785  150.8919 LP  0  0  0  0  0  0  0  0  0  0  0  0  # atno 17343 bound_to 10162
  156.5353  130.8276  151.3251 LP  0  0  0  0  0  0  0  0  0  0  0  0  # atno 17370 bound_to 10713
  157.7398  130.9838  150.2335 LP  0  0  0  0  0  0  0  0  0  0  0  0  # atno 17371 bound_to 10713
  141.1765  133.8503  157.1403 LP  0  0  0  0  0  0  0  0  0  0  0  0  # atno 17394 bound_to 11000
  140.0167  134.9964  157.0509 LP  0  0  0  0  0  0  0  0  0  0  0  0  # atno 17395 bound_to 11000

$$$$
