AV-unprocessed.smi:1861|AV-procd|sdf|7548|dock1
  -GOLD-   22720 9263D 1   1.00000     0.00000
 Structure written by MMmdl.
 30 31  0  0  0  0  0  0  0  0  1 V2000
  146.7866  141.5509  154.0377 C   0  0  0  0  0  0  0  0  0  0  0  0
  147.7212  141.6894  155.1435 N   0  0  0  0  0  0  0  0  0  0  0  0
  149.0537  141.6048  155.0196 C   0  0  0  0  0  0  0  0  0  0  0  0
  149.6215  141.3897  153.9492 O   0  0  0  0  0  0  0  0  0  0  0  0
  149.8750  141.7938  156.2963 C   0  0  0  0  0  0  0  0  0  0  0  0
  151.0023  140.8757  156.3374 N   0  0  0  0  0  0  0  0  0  0  0  0
  151.2671  140.0632  155.2841 N   0  0  0  0  0  0  0  0  0  0  0  0
  152.3028  139.3477  155.6126 N   0  0  0  0  0  0  0  0  0  0  0  0
  152.7474  139.6622  156.8816 N   0  0  0  0  0  0  0  0  0  0  0  0
  151.9197  140.6199  157.2836 C   0  0  0  0  0  0  0  0  0  0  0  0
  151.9558  141.2894  158.6277 C   0  0  0  0  0  0  0  0  0  0  0  0
  152.1867  142.8006  158.5817 C   0  0  0  0  0  0  0  0  0  0  0  0
  152.6130  143.1539  160.0088 C   0  0  0  0  0  0  0  0  0  0  0  0
  153.2908  141.8957  160.5766 C   0  0  0  0  0  0  0  0  0  0  0  0
  153.0561  140.7712  159.5578 C   0  0  0  0  0  0  0  0  0  0  0  0
  145.7633  141.6269  154.4051 H   0  0  0  0  0  0  0  0  0  0  0  0
  146.9025  140.5833  153.5479 H   0  0  0  0  0  0  0  0  0  0  0  0
  146.9427  142.3370  153.2977 H   0  0  0  0  0  0  0  0  0  0  0  0
  147.3325  141.8702  156.0581 H   0  0  0  0  0  0  0  0  0  0  0  0
  150.2393  142.8209  156.3514 H   0  0  0  0  0  0  0  0  0  0  0  0
  149.2529  141.6331  157.1773 H   0  0  0  0  0  0  0  0  0  0  0  0
  151.0005  141.1303  159.1276 H   0  0  0  0  0  0  0  0  0  0  0  0
  153.0050  143.0373  157.9001 H   0  0  0  0  0  0  0  0  0  0  0  0
  151.3075  143.3538  158.2496 H   0  0  0  0  0  0  0  0  0  0  0  0
  153.2678  144.0255  160.0352 H   0  0  0  0  0  0  0  0  0  0  0  0
  151.7307  143.3910  160.6048 H   0  0  0  0  0  0  0  0  0  0  0  0
  154.3583  142.0559  160.7332 H   0  0  0  0  0  0  0  0  0  0  0  0
  152.8559  141.6390  161.5434 H   0  0  0  0  0  0  0  0  0  0  0  0
  152.7945  139.8207  160.0239 H   0  0  0  0  0  0  0  0  0  0  0  0
  153.9768  140.6152  158.9934 H   0  0  0  0  0  0  0  0  0  0  0  0
  1  2  1  0  0  0  0
  1 16  1  0  0  0  0
  1 17  1  0  0  0  0
  1 18  1  0  0  0  0
  2  3  1  0  0  0  0
  2 19  1  0  0  0  0
  3  4  2  0  0  0  0
  3  5  1  0  0  0  0
  5  6  1  0  0  0  0
  5 20  1  0  0  0  0
  5 21  1  0  0  0  0
  6 10  1  0  0  0  0
  6  7  1  0  0  0  0
  7  8  2  0  0  0  0
  8  9  1  0  0  0  0
  9 10  2  0  0  0  0
 10 11  1  0  0  0  0
 11 15  1  0  0  0  0
 11 12  1  0  0  0  0
 11 22  1  0  0  0  0
 12 13  1  0  0  0  0
 12 23  1  0  0  0  0
 12 24  1  0  0  0  0
 13 14  1  0  0  0  0
 13 25  1  0  0  0  0
 13 26  1  0  0  0  0
 14 15  1  0  0  0  0
 14 27  1  0  0  0  0
 14 28  1  0  0  0  0
 15 29  1  0  0  0  0
 15 30  1  0  0  0  0
M  END
> <s_m_source_file>
AV-unprocessed.smi

> <i_m_source_file_index>
1861

> <i_lp_mmshare_version>
43012

> <i_f3d_flags>
0

> <s_epik_input>
W0NIM11bTkhdQyg9TylbQ0gyXW4xbm5uYzFbQ0hdMltDSDJdW0NIMl1bQ0gyXVtDSDJdMg==

> <s_epik_cmdline>
J2VwaWtfcHl0aG9uJywgJy1waCcsICc3LjAnLCAnLXRuJywgJzgnLCAnLW1hJywgJzIwMCcsICctbWV0YWxfYmluZGluZycsICctaW1hZScsICc8aW5maWxlLm1hZT4nLCAnLW9tYWUnLCAnPG91dGZpbGUubWFlPic=

> <r_lp_tautomer_probability>
1

> <r_epik_Ionization_Penalty>
8.43634e-07

> <r_epik_Ionization_Penalty_Charging>
0

> <r_epik_Ionization_Penalty_Neutral>
8.43634e-07

> <r_epik_State_Penalty>
-0

> <r_epik_Charging_Adjusted_Penalty>
0

> <i_epik_Tot_Q>
0

> <i_epik_Tot_abs_Q>
0

> <r_epik_Metal_State_Penalty>
-0

> <b_epik_Metal_Only>
0

> <s_lp_Force_Field>
OPLS_2005

> <r_lp_Energy>
21.2835

> <b_lp_Chiralities_Consistent>
1

> <s_lp_Variant>
AV-unprocessed.smi:1861-1

> <Gold.Version>
5.8.1

> <Gold.Id.Protein>
6NUR|6NUR_protein|mol2

> <Gold.PLP.Fitness>
38.5328

> <Gold.PLP.PLP>
-30.8805

> <Gold.PLP.part.hbond>
-4.3336

> <Gold.PLP.part.metal>
0.0000

> <Gold.PLP.part.buried>
-3.8015

> <Gold.PLP.part.nonpolar>
-23.5685

> <Gold.PLP.part.repulsive>
0.4583

> <Gold.PLP.ligand.clash>
0.0042

> <Gold.PLP.ligand.torsion>
0.3287

> <Gold.PLP.Chemscore.Hbond>
2.7680

> <Gold.PLP.Chemscore.CHOScore>
0.0000

> <Gold.PLP.Chemscore.Metal>
0.0000

> <Gold.Chemscore.Hbonds>
donor molecule, donor type, donor heavy atom, donor atom, acceptor molecule, acceptor atom, score
      P1  H  7989  7998       L1     7  1.00
      P1  H  7997  8009       L1     9  1.00
      P1  H  8011  8017       L1     4  0.74

> <Gold.PLP.Chemscore.Internal.Correction>
0.0099

> <Gold.Rescore>
     Score         DG    S(hbond)    S(metal)    S(lipo)     H(rot)  DE(clash)    DE(int)     intcor
     13.24     -15.57       2.07        0.00      63.12       1.64       0.28       2.06       ----

> <Gold.Chemscore.Fitness>
13.2374

> <Gold.Chemscore.DG>
-15.5750

> <Gold.Chemscore.ZeroCoef>
-5.4800

> <Gold.Chemscore.Hbond>
2.0675

> <Gold.Chemscore.Metal>
0.0000

> <Gold.Chemscore.Lipo>
63.1207

> <Gold.Chemscore.Internal_Hbond>
0.0000

> <Gold.Chemscore.DEClash>
0.2774

> <Gold.Chemscore.DEInternal>
2.0601

> <Gold.Chemscore.Rot>
1.6389

> <Gold.Chemscore.Internal.Correction>
   9.000000E+99

> <Gold.Chemscore.Hbonds>
donor molecule, donor type, donor heavy atom, donor atom, acceptor molecule, acceptor atom, score
      P1  H  7989  7998       L1     7  0.56
      P1  H  7997  8009       L1     9  0.57
      P1  H  8011  8017       L1     4  0.72

> <Gold.Chemscore.Hbond.Weighted>
-6.9053

> <Gold.Chemscore.Metal.Weighted>
-0.0000

> <Gold.Chemscore.Lipo.Weighted>
-7.3851

> <Gold.Chemscore.Internal_Hbond.Weighted>
0.0000

> <Gold.Chemscore.DEClash.Weighted>
0.2774

> <Gold.Chemscore.DEInternal.Weighted>
2.0601

> <Gold.Chemscore.Rot.Weighted>
4.1955

> <Gold.Chemscore.Internal.Correction.Weighted>
   9.000000E+99

> <Gold.Protein.RotatedTorsions>
[ 6907 6896 6895 6894 ] final -117.69 input  -60.11 | X-H torsion
[ 7974 7965 7964 7962 ] final   93.24 input  175.53 | X-H torsion
[ 8008 7997 7996 7995 ] final  172.59 input   59.86 | X-H torsion
[ 10167 10162 10161 10158 ] final -166.59 input  -65.29 | X-H torsion
[ 10718 10713 10712 10709 ] final -109.71 input   66.30 | X-H torsion
[ 10763 10752 10751 10750 ] final   86.50 input  -60.55 | X-H torsion
[ 11005 11000 10999 10996 ] final  -12.47 input  -57.11 | X-H torsion

> <Gold.Protein.ActiveResidues>
 VAL166  LYS551  ARG553  GLY616  TRP617  ASP618  TYR619  PRO620  LYS621  CYS622 
 ASP623  PHE694  ASN695  SER759  ASP760  ASP761  ALA762  ILE779  LEU786  VAL792 
 PHE793  MET794  SER795  GLU796  ALA797  LYS798  CYS799  TRP800  GLU811  SER814 

> <Gold.Protein.RotatedAtoms>
  150.8158  133.8340  159.3161 H   0  0  0  0  0  0  0  0  0  0  0  0  # atno 6907 bound_to 6896
  151.6113  135.1038  160.0091 H   0  0  0  0  0  0  0  0  0  0  0  0  # atno 6908 bound_to 6896
  152.4249  133.7138  159.6550 H   0  0  0  0  0  0  0  0  0  0  0  0  # atno 6909 bound_to 6896
  145.4815  139.2278  143.2880 H   0  0  0  0  0  0  0  0  0  0  0  0  # atno 7974 bound_to 7965
  156.1160  140.1482  156.9272 H   0  0  0  0  0  0  0  0  0  0  0  0  # atno 8008 bound_to 7997
  154.4801  140.0882  156.7398 H   0  0  0  0  0  0  0  0  0  0  0  0  # atno 8009 bound_to 7997
  155.4513  140.3435  155.4303 H   0  0  0  0  0  0  0  0  0  0  0  0  # atno 8010 bound_to 7997
  139.6105  144.0825  152.1836 H   0  0  0  0  0  0  0  0  0  0  0  0  # atno 10167 bound_to 10162
  156.0551  130.5778  150.8137 H   0  0  0  0  0  0  0  0  0  0  0  0  # atno 10718 bound_to 10713
  153.1577  135.4578  154.9727 H   0  0  0  0  0  0  0  0  0  0  0  0  # atno 10763 bound_to 10752
  154.7874  135.3208  154.7858 H   0  0  0  0  0  0  0  0  0  0  0  0  # atno 10764 bound_to 10752
  153.8353  135.6935  153.4864 H   0  0  0  0  0  0  0  0  0  0  0  0  # atno 10765 bound_to 10752
  140.7660  133.8476  155.9166 H   0  0  0  0  0  0  0  0  0  0  0  0  # atno 11005 bound_to 11000
  146.2338  140.5602  142.8964 LP  0  0  0  0  0  0  0  0  0  0  0  0  # atno 17320 bound_to 7965
  144.7886  140.5986  143.6557 LP  0  0  0  0  0  0  0  0  0  0  0  0  # atno 17321 bound_to 7965
  140.0443  144.5983  150.7386 LP  0  0  0  0  0  0  0  0  0  0  0  0  # atno 17342 bound_to 10162
  140.7315  143.2695  151.3934 LP  0  0  0  0  0  0  0  0  0  0  0  0  # atno 17343 bound_to 10162
  157.5514  131.0944  150.9690 LP  0  0  0  0  0  0  0  0  0  0  0  0  # atno 17370 bound_to 10713
  156.9949  130.5577  149.5306 LP  0  0  0  0  0  0  0  0  0  0  0  0  # atno 17371 bound_to 10713
  140.9618  134.1645  157.4648 LP  0  0  0  0  0  0  0  0  0  0  0  0  # atno 17394 bound_to 11000
  139.8763  134.9947  156.5709 LP  0  0  0  0  0  0  0  0  0  0  0  0  # atno 17395 bound_to 11000

$$$$
