AV-unprocessed.smi:2567|AV-procd|sdf|10080|dock7
  -GOLD-   2272014103D 1   1.00000     0.00000
 Structure written by MMmdl.
 33 34  0  0  0  0  0  0  0  0  1 V2000
  150.6081  144.3156  159.5749 C   0  0  0  0  0  0  0  0  0  0  0  0
  151.8433  143.7691  158.8327 C   0  0  0  0  0  0  0  0  0  0  0  0
  152.6198  144.9332  158.1878 C   0  0  0  0  0  0  0  0  0  0  0  0
  152.7634  143.0924  159.8733 C   0  0  0  0  0  0  0  0  0  0  0  0
  151.4044  142.7993  157.7614 C   0  0  0  0  0  0  0  0  0  0  0  0
  150.4967  143.0942  156.8240 N   0  0  0  0  0  0  0  0  0  0  0  0
  150.2964  142.0220  156.0301 N   0  0  0  0  0  0  0  0  0  0  0  0
  151.1332  141.1289  156.5544 C   0  0  0  0  0  0  0  0  0  0  0  0
  151.2154  139.7386  156.0049 C   0  0  2  0  0  0  0  0  0  0  0  0
  152.6607  139.2035  155.9956 C   0  0  0  0  0  0  0  0  0  0  0  0
  152.7097  137.8875  155.3599 N   0  0  0  0  0  0  0  0  0  0  0  0
  152.1264  137.9267  154.0196 C   0  0  0  0  0  0  0  0  0  0  0  0
  150.6975  138.4975  154.0723 C   0  0  0  0  0  0  0  0  0  0  0  0
  150.7204  139.7899  154.6686 O   0  0  0  0  0  0  0  0  0  0  0  0
  151.8383  141.5457  157.6506 N   0  0  0  0  0  0  0  0  0  0  0  0
  150.8935  145.0134  160.3628 H   0  0  0  0  0  0  0  0  0  0  0  0
  150.0371  143.5104  160.0388 H   0  0  0  0  0  0  0  0  0  0  0  0
  149.9366  144.8467  158.8993 H   0  0  0  0  0  0  0  0  0  0  0  0
  152.0033  145.4770  157.4710 H   0  0  0  0  0  0  0  0  0  0  0  0
  153.5014  144.5737  157.6558 H   0  0  0  0  0  0  0  0  0  0  0  0
  152.9569  145.6505  158.9368 H   0  0  0  0  0  0  0  0  0  0  0  0
  153.0689  143.7957  160.6489 H   0  0  0  0  0  0  0  0  0  0  0  0
  153.6737  142.7054  159.4134 H   0  0  0  0  0  0  0  0  0  0  0  0
  152.2621  142.2611  160.3704 H   0  0  0  0  0  0  0  0  0  0  0  0
  150.5753  139.0863  156.6028 H   0  0  0  0  0  0  0  0  0  0  0  0
  153.3073  139.8973  155.4564 H   0  0  0  0  0  0  0  0  0  0  0  0
  153.0464  139.1422  157.0135 H   0  0  0  0  0  0  0  0  0  0  0  0
  152.7421  138.5447  153.3648 H   0  0  0  0  0  0  0  0  0  0  0  0
  152.1150  136.9261  153.5870 H   0  0  0  0  0  0  0  0  0  0  0  0
  150.2906  138.5824  153.0647 H   0  0  0  0  0  0  0  0  0  0  0  0
  150.0323  137.8357  154.6291 H   0  0  0  0  0  0  0  0  0  0  0  0
  153.6734  137.5738  155.3023 H   0  0  0  0  0  0  0  0  0  0  0  0
  150.0087  143.9696  156.7002 H   0  0  0  0  0  0  0  0  0  0  0  0
  1  2  1  0  0  0  0
  1 16  1  0  0  0  0
  1 17  1  0  0  0  0
  1 18  1  0  0  0  0
  2  3  1  0  0  0  0
  2  4  1  0  0  0  0
  2  5  1  0  0  0  0
  3 19  1  0  0  0  0
  3 20  1  0  0  0  0
  3 21  1  0  0  0  0
  4 22  1  0  0  0  0
  4 23  1  0  0  0  0
  4 24  1  0  0  0  0
  5 15  2  0  0  0  0
  5  6  1  0  0  0  0
  6  7  1  0  0  0  0
  6 33  1  0  0  0  0
  7  8  2  0  0  0  0
  8  9  1  0  0  0  0
  8 15  1  0  0  0  0
  9 14  1  0  0  0  0
  9 10  1  0  0  0  0
  9 25  1  0  0  0  0
 10 11  1  0  0  0  0
 10 26  1  0  0  0  0
 10 27  1  0  0  0  0
 11 12  1  0  0  0  0
 11 32  1  0  0  0  0
 12 13  1  0  0  0  0
 12 28  1  0  0  0  0
 12 29  1  0  0  0  0
 13 14  1  0  0  0  0
 13 30  1  0  0  0  0
 13 31  1  0  0  0  0
M  END
> <s_m_source_file>
AV-unprocessed.smi

> <i_m_source_file_index>
2567

> <i_lp_mmshare_version>
43012

> <i_f3d_flags>
0

> <s_epik_input>
W0NIM11DKFtDSDNdKShbQ0gzXSljMW5bbkhdYyhuMSlbQ0BASF0yW0NIMl1bTkhdW0NIMl1bQ0gyXU8y

> <s_epik_cmdline>
J2VwaWtfcHl0aG9uJywgJy1waCcsICc3LjAnLCAnLXRuJywgJzgnLCAnLW1hJywgJzIwMCcsICctbWV0YWxfYmluZGluZycsICctaW1hZScsICc8aW5maWxlLm1hZT4nLCAnLW9tYWUnLCAnPG91dGZpbGUubWFlPic=

> <r_lp_tautomer_probability>
0.948284

> <r_epik_Ionization_Penalty>
1.10045

> <r_epik_Ionization_Penalty_Charging>
0

> <r_epik_Ionization_Penalty_Neutral>
1.10045

> <r_epik_State_Penalty>
1.2625

> <r_epik_Charging_Adjusted_Penalty>
1.2625

> <i_epik_Tot_Q>
0

> <i_epik_Tot_abs_Q>
0

> <r_epik_Metal_State_Penalty>
1.57133

> <b_epik_Metal_Only>
0

> <s_lp_Force_Field>
OPLS_2005

> <r_lp_Energy>
14.8987

> <b_lp_Chiralities_Consistent>
1

> <s_lp_Variant>
AV-unprocessed.smi:2567-5

> <Gold.Version>
5.8.1

> <Gold.Id.Protein>
6NUR|6NUR_protein|mol2

> <Gold.PLP.Fitness>
36.8620

> <Gold.PLP.PLP>
-32.7061

> <Gold.PLP.part.hbond>
-2.7373

> <Gold.PLP.part.metal>
0.0000

> <Gold.PLP.part.buried>
-4.3607

> <Gold.PLP.part.nonpolar>
-26.8634

> <Gold.PLP.part.repulsive>
0.7707

> <Gold.PLP.ligand.clash>
0.0000

> <Gold.PLP.ligand.torsion>
0.6798

> <Gold.PLP.Chemscore.Hbond>
1.8320

> <Gold.PLP.Chemscore.CHOScore>
0.0000

> <Gold.PLP.Chemscore.Metal>
0.0000

> <Gold.Chemscore.Hbonds>
donor molecule, donor type, donor heavy atom, donor atom, acceptor molecule, acceptor atom, score
      L1  H     6    33       P1  8028  0.85
      P1  H  7989  7998       L1    14  1.00

> <Gold.PLP.Chemscore.Internal.Correction>
0.0195

> <Gold.Rescore>
     Score         DG    S(hbond)    S(metal)    S(lipo)     H(rot)  DE(clash)    DE(int)     intcor
     16.51     -17.33       1.74        0.00      79.00       1.25       0.05       0.77       ----

> <Gold.Chemscore.Fitness>
16.5061

> <Gold.Chemscore.DG>
-17.3326

> <Gold.Chemscore.ZeroCoef>
-5.4800

> <Gold.Chemscore.Hbond>
1.7357

> <Gold.Chemscore.Metal>
0.0000

> <Gold.Chemscore.Lipo>
78.9968

> <Gold.Chemscore.Internal_Hbond>
0.0000

> <Gold.Chemscore.DEClash>
0.0544

> <Gold.Chemscore.DEInternal>
0.7721

> <Gold.Chemscore.Rot>
1.2450

> <Gold.Chemscore.Internal.Correction>
   9.000000E+99

> <Gold.Chemscore.Hbonds>
donor molecule, donor type, donor heavy atom, donor atom, acceptor molecule, acceptor atom, score
      L1  H     6    33       P1  8028  0.83
      P1  H  7989  7998       L1    14  0.52

> <Gold.Chemscore.Hbond.Weighted>
-5.7972

> <Gold.Chemscore.Metal.Weighted>
-0.0000

> <Gold.Chemscore.Lipo.Weighted>
-9.2426

> <Gold.Chemscore.Internal_Hbond.Weighted>
0.0000

> <Gold.Chemscore.DEClash.Weighted>
0.0544

> <Gold.Chemscore.DEInternal.Weighted>
0.7721

> <Gold.Chemscore.Rot.Weighted>
3.1872

> <Gold.Chemscore.Internal.Correction.Weighted>
   9.000000E+99

> <Gold.Protein.RotatedTorsions>
[ 6907 6896 6895 6894 ] final  -78.83 input  -60.11 | X-H torsion
[ 7974 7965 7964 7962 ] final   75.86 input  175.53 | X-H torsion
[ 8008 7997 7996 7995 ] final  -62.38 input   59.86 | X-H torsion
[ 10167 10162 10161 10158 ] final  -70.41 input  -65.29 | X-H torsion
[ 10718 10713 10712 10709 ] final -140.50 input   66.30 | X-H torsion
[ 10763 10752 10751 10750 ] final  -38.15 input  -60.55 | X-H torsion
[ 11005 11000 10999 10996 ] final  -40.41 input  -57.11 | X-H torsion

> <Gold.Protein.ActiveResidues>
 VAL166  LYS551  ARG553  GLY616  TRP617  ASP618  TYR619  PRO620  LYS621  CYS622 
 ASP623  PHE694  ASN695  SER759  ASP760  ASP761  ALA762  ILE779  LEU786  VAL792 
 PHE793  MET794  SER795  GLU796  ALA797  LYS798  CYS799  TRP800  GLU811  SER814 

> <Gold.Protein.RotatedAtoms>
  150.6963  134.4212  159.5205 H   0  0  0  0  0  0  0  0  0  0  0  0  # atno 6907 bound_to 6896
  152.1955  134.8632  160.0522 H   0  0  0  0  0  0  0  0  0  0  0  0  # atno 6908 bound_to 6896
  151.9571  133.3649  159.4058 H   0  0  0  0  0  0  0  0  0  0  0  0  # atno 6909 bound_to 6896
  145.7102  139.2612  143.1655 H   0  0  0  0  0  0  0  0  0  0  0  0  # atno 7974 bound_to 7965
  154.4496  140.0997  156.6577 H   0  0  0  0  0  0  0  0  0  0  0  0  # atno 8008 bound_to 7997
  155.5327  140.3481  155.4411 H   0  0  0  0  0  0  0  0  0  0  0  0  # atno 8009 bound_to 7997
  156.0653  140.1336  156.9882 H   0  0  0  0  0  0  0  0  0  0  0  0  # atno 8010 bound_to 7997
  140.5354  143.2318  151.7186 H   0  0  0  0  0  0  0  0  0  0  0  0  # atno 10167 bound_to 10162
  156.3231  130.7545  151.1647 H   0  0  0  0  0  0  0  0  0  0  0  0  # atno 10718 bound_to 10713
  153.9080  135.6795  153.4752 H   0  0  0  0  0  0  0  0  0  0  0  0  # atno 10763 bound_to 10752
  153.1093  135.4790  154.9005 H   0  0  0  0  0  0  0  0  0  0  0  0  # atno 10764 bound_to 10752
  154.7541  135.3193  154.8457 H   0  0  0  0  0  0  0  0  0  0  0  0  # atno 10765 bound_to 10752
  141.0173  133.6879  156.2318 H   0  0  0  0  0  0  0  0  0  0  0  0  # atno 11005 bound_to 11000
  146.0719  140.7859  142.9684 LP  0  0  0  0  0  0  0  0  0  0  0  0  # atno 17320 bound_to 7965
  144.6944  140.3356  143.7208 LP  0  0  0  0  0  0  0  0  0  0  0  0  # atno 17321 bound_to 7965
  139.4969  144.4050  152.0141 LP  0  0  0  0  0  0  0  0  0  0  0  0  # atno 17342 bound_to 10162
  140.3155  144.3488  150.6022 LP  0  0  0  0  0  0  0  0  0  0  0  0  # atno 17343 bound_to 10162
  157.7416  131.0502  150.5087 LP  0  0  0  0  0  0  0  0  0  0  0  0  # atno 17370 bound_to 10713
  156.5242  130.4169  149.6235 LP  0  0  0  0  0  0  0  0  0  0  0  0  # atno 17371 bound_to 10713
  140.6633  134.4944  157.5584 LP  0  0  0  0  0  0  0  0  0  0  0  0  # atno 17394 bound_to 11000
  139.9124  134.8316  156.1480 LP  0  0  0  0  0  0  0  0  0  0  0  0  # atno 17395 bound_to 11000

$$$$
