AV-unprocessed.smi:102|AV-procd|sdf|962|dock4
  -GOLD-   2262017503D 1   1.00000     0.00000
 Structure written by MMmdl.
 43 44  0  0  0  0  0  0  0  0  2 V2000
  141.1606  130.7082  159.9128 C   0  0  0  0  0  0  0  0  0  0  0  0
  141.9929  131.9796  159.8124 C   0  0  0  0  0  0  0  0  0  0  0  0
  141.9707  132.6843  158.8031 O   0  0  0  0  0  0  0  0  0  0  0  0
  142.7101  132.2119  160.9258 O   0  0  0  0  0  0  0  0  0  0  0  0
  143.4788  133.4006  161.0554 C   0  0  0  0  0  0  0  0  0  0  0  0
  143.5955  133.8223  162.5371 C   0  0  1  0  0  0  0  0  0  0  0  0
  144.9698  134.0212  162.8664 O   0  0  0  0  0  0  0  0  0  0  0  0
  145.3187  135.3790  162.8198 C   0  0  1  0  0  0  0  0  0  0  0  0
  146.4395  135.5870  161.8193 N   0  0  0  0  0  0  0  0  0  0  0  0
  146.4573  134.9303  160.5995 C   0  0  0  0  0  0  0  0  0  0  0  0
  147.4568  135.1251  159.7154 C   0  0  0  0  0  0  0  0  0  0  0  0
  147.4452  134.4746  158.5391 F   0  0  0  0  0  0  0  0  0  0  0  0
  148.5465  136.0413  160.0453 C   0  0  0  0  0  0  0  0  0  0  0  0
  149.4513  136.2197  159.2316 O   0  0  0  0  0  0  0  0  0  0  0  0
  148.5104  136.6646  161.2585 N   0  5  0  0  0  0  0  0  0  0  0  0
  147.5016  136.4693  162.1571 C   0  0  0  0  0  0  0  0  0  0  0  0
  147.4583  137.0263  163.2543 O   0  0  0  0  0  0  0  0  0  0  0  0
  144.0413  136.1760  162.4766 C   0  0  1  0  0  0  0  0  0  0  0  0
  143.9941  136.4966  161.0853 O   0  0  0  0  0  0  0  0  0  0  0  0
  144.7438  137.4914  160.5811 C   0  0  0  0  0  0  0  0  0  0  0  0
  144.4821  137.7155  159.0983 C   0  0  0  0  0  0  0  0  0  0  0  0
  145.5561  138.1774  161.2012 O   0  0  0  0  0  0  0  0  0  0  0  0
  142.9634  135.1751  162.8691 C   0  0  1  0  0  0  0  0  0  0  0  0
  141.7054  135.3855  162.2357 O   0  0  0  0  0  0  0  0  0  0  0  0
  140.5622  135.1915  162.9156 C   0  0  0  0  0  0  0  0  0  0  0  0
  139.3309  135.3392  162.0323 C   0  0  0  0  0  0  0  0  0  0  0  0
  140.4663  134.9336  164.1154 O   0  0  0  0  0  0  0  0  0  0  0  0
  141.7462  129.9027  160.3563 H   0  0  0  0  0  0  0  0  0  0  0  0
  140.8278  130.3890  158.9249 H   0  0  0  0  0  0  0  0  0  0  0  0
  140.2824  130.8818  160.5347 H   0  0  0  0  0  0  0  0  0  0  0  0
  144.4629  133.2225  160.6243 H   0  0  0  0  0  0  0  0  0  0  0  0
  143.0268  134.1964  160.4619 H   0  0  0  0  0  0  0  0  0  0  0  0
  143.1665  133.0508  163.1768 H   0  0  0  0  0  0  0  0  0  0  0  0
  145.7419  135.6492  163.7887 H   0  0  0  0  0  0  0  0  0  0  0  0
  145.6676  134.2453  160.3331 H   0  0  0  0  0  0  0  0  0  0  0  0
  144.0069  137.0733  163.0962 H   0  0  0  0  0  0  0  0  0  0  0  0
  143.4116  137.6959  158.8930 H   0  0  0  0  0  0  0  0  0  0  0  0
  144.9630  136.9342  158.5097 H   0  0  0  0  0  0  0  0  0  0  0  0
  144.8767  138.6811  158.7819 H   0  0  0  0  0  0  0  0  0  0  0  0
  142.8425  135.2119  163.9532 H   0  0  0  0  0  0  0  0  0  0  0  0
  139.4495  134.7644  161.1137 H   0  0  0  0  0  0  0  0  0  0  0  0
  139.1796  136.3865  161.7702 H   0  0  0  0  0  0  0  0  0  0  0  0
  138.4420  134.9806  162.5516 H   0  0  0  0  0  0  0  0  0  0  0  0
  1  2  1  0  0  0  0
  1 28  1  0  0  0  0
  1 29  1  0  0  0  0
  1 30  1  0  0  0  0
  2  3  2  0  0  0  0
  2  4  1  0  0  0  0
  4  5  1  0  0  0  0
  5  6  1  0  0  0  0
  5 31  1  0  0  0  0
  5 32  1  0  0  0  0
  6 23  1  0  0  0  0
  6  7  1  0  0  0  0
  6 33  1  0  0  0  0
  7  8  1  0  0  0  0
  8  9  1  0  0  0  0
  8 18  1  0  0  0  0
  8 34  1  0  0  0  0
  9 16  1  0  0  0  0
  9 10  1  0  0  0  0
 10 11  2  0  0  0  0
 10 35  1  0  0  0  0
 11 12  1  0  0  0  0
 11 13  1  0  0  0  0
 13 14  2  0  0  0  0
 13 15  1  0  0  0  0
 15 16  1  0  0  0  0
 16 17  2  0  0  0  0
 18 19  1  0  0  0  0
 18 23  1  0  0  0  0
 18 36  1  0  0  0  0
 19 20  1  0  0  0  0
 20 21  1  0  0  0  0
 20 22  2  0  0  0  0
 21 37  1  0  0  0  0
 21 38  1  0  0  0  0
 21 39  1  0  0  0  0
 23 24  1  0  0  0  0
 23 40  1  0  0  0  0
 24 25  1  0  0  0  0
 25 26  1  0  0  0  0
 25 27  2  0  0  0  0
 26 41  1  0  0  0  0
 26 42  1  0  0  0  0
 26 43  1  0  0  0  0
M  CHG  1  15  -1
M  END
> <s_m_source_file>
AV-unprocessed.smi

> <i_m_source_file_index>
102

> <i_lp_mmshare_version>
43012

> <i_f3d_flags>
0

> <s_epik_input>
W0NIM11DKD1PKU9bQ0gyXVtDQEBIXTFPW0NASF0oW0NAQEhdKE9DKD1PKVtDSDNdKVtDQEhdMU9DKD1PKVtDSDNdKW4yW2NIXWMoRiljKD1PKVtuSF1jMj1P

> <s_epik_cmdline>
J2VwaWtfcHl0aG9uJywgJy1waCcsICc3LjAnLCAnLXRuJywgJzgnLCAnLW1hJywgJzIwMCcsICctbWV0YWxfYmluZGluZycsICctaW1hZScsICc8aW5maWxlLm1hZT4nLCAnLW9tYWUnLCAnPG91dGZpbGUubWFlPic=

> <r_epik_Ionization_Penalty>
1.40304

> <r_epik_Ionization_Penalty_Charging>
1.43915e-08

> <r_epik_Ionization_Penalty_Neutral>
1.40304

> <r_epik_State_Penalty>
1.48536

> <r_epik_Charging_Adjusted_Penalty>
1.48536

> <i_epik_Tot_Q>
-1

> <i_epik_Tot_abs_Q>
1

> <r_epik_Metal_State_Penalty>
0.00663881

> <b_epik_Metal_Only>
0

> <s_epik_Chemistry_Notes>
This compound has an ester and may undergo hydrolysis at high or low pH. This compound contains an acetal/aminal-like group ( X-CH(R)-Y where X, Y are N, S, or O) that may be acid/base labile, releasing an aldehyde.

> <s_lp_Force_Field>
OPLS_2005

> <r_lp_Energy>
25.6088

> <b_lp_Chiralities_Consistent>
1

> <s_lp_Variant>
AV-unprocessed.smi:102-18

> <Gold.Version>
5.8.1

> <Gold.Id.Protein>
6NUR|6NUR_protein|mol2

> <Gold.PLP.Fitness>
43.9361

> <Gold.PLP.PLP>
-34.0321

> <Gold.PLP.part.hbond>
-4.5649

> <Gold.PLP.part.metal>
0.0000

> <Gold.PLP.part.buried>
-7.1847

> <Gold.PLP.part.nonpolar>
-23.0499

> <Gold.PLP.part.repulsive>
0.3724

> <Gold.PLP.ligand.clash>
0.0000

> <Gold.PLP.ligand.torsion>
2.1257

> <Gold.PLP.Chemscore.Hbond>
4.6473

> <Gold.PLP.Chemscore.CHOScore>
0.0000

> <Gold.PLP.Chemscore.Metal>
0.0000

> <Gold.Chemscore.Hbonds>
donor molecule, donor type, donor heavy atom, donor atom, acceptor molecule, acceptor atom, score
      P1  H  6896  6908       L1    14  1.00
      P1  H  6931  6943       L1    15  1.70
      P1  H  6934  6947       L1    22  0.70
      P1  H 11000 11005       L1     3  0.72

> <Gold.PLP.Chemscore.Internal.Correction>
0.2136

> <Gold.Rescore>
     Score         DG    S(hbond)    S(metal)    S(lipo)     H(rot)  DE(clash)    DE(int)     intcor
      3.91      -9.57       2.85        0.00      40.90       4.00       1.15       4.51       ----

> <Gold.Chemscore.Fitness>
3.9117

> <Gold.Chemscore.DG>
-9.5724

> <Gold.Chemscore.ZeroCoef>
-5.4800

> <Gold.Chemscore.Hbond>
2.8545

> <Gold.Chemscore.Metal>
0.0000

> <Gold.Chemscore.Lipo>
40.9041

> <Gold.Chemscore.Internal_Hbond>
0.0000

> <Gold.Chemscore.DEClash>
1.1499

> <Gold.Chemscore.DEInternal>
4.5109

> <Gold.Chemscore.Rot>
3.9951

> <Gold.Chemscore.Internal.Correction>
   9.000000E+99

> <Gold.Chemscore.Hbonds>
donor molecule, donor type, donor heavy atom, donor atom, acceptor molecule, acceptor atom, score
      P1  H  6896  6908       L1    14  0.48
      P1  H  6931  6943       L1    15  0.15
      P1  H  6934  6947       L1    22  0.72
      P1  H 11000 11005       L1     3  0.70

> <Gold.Chemscore.Hbond.Weighted>
-9.5341

> <Gold.Chemscore.Metal.Weighted>
-0.0000

> <Gold.Chemscore.Lipo.Weighted>
-4.7858

> <Gold.Chemscore.Internal_Hbond.Weighted>
0.0000

> <Gold.Chemscore.DEClash.Weighted>
1.1499

> <Gold.Chemscore.DEInternal.Weighted>
4.5109

> <Gold.Chemscore.Rot.Weighted>
10.2274

> <Gold.Chemscore.Internal.Correction.Weighted>
   9.000000E+99

> <Gold.Protein.RotatedTorsions>
[ 6907 6896 6895 6894 ] final -166.63 input  -60.11 | X-H torsion
[ 7974 7965 7964 7962 ] final  177.97 input  175.53 | X-H torsion
[ 8008 7997 7996 7995 ] final  -80.60 input   59.86 | X-H torsion
[ 10167 10162 10161 10158 ] final  178.70 input  -65.29 | X-H torsion
[ 10718 10713 10712 10709 ] final  127.47 input   66.30 | X-H torsion
[ 10763 10752 10751 10750 ] final -167.68 input  -60.55 | X-H torsion
[ 11005 11000 10999 10996 ] final -114.01 input  -57.11 | X-H torsion

> <Gold.Protein.ActiveResidues>
 VAL166  LYS551  ARG553  GLY616  TRP617  ASP618  TYR619  PRO620  LYS621  CYS622 
 ASP623  PHE694  ASN695  SER759  ASP760  ASP761  ALA762  ILE779  LEU786  VAL792 
 PHE793  MET794  SER795  GLU796  ALA797  LYS798  CYS799  TRP800  GLU811  SER814 

> <Gold.Protein.RotatedAtoms>
  151.4467  133.3628  159.2789 H   0  0  0  0  0  0  0  0  0  0  0  0  # atno 6907 bound_to 6896
  150.9120  134.8538  159.7442 H   0  0  0  0  0  0  0  0  0  0  0  0  # atno 6908 bound_to 6896
  152.4937  134.4397  159.9591 H   0  0  0  0  0  0  0  0  0  0  0  0  # atno 6909 bound_to 6896
  144.7162  140.0327  143.6439 H   0  0  0  0  0  0  0  0  0  0  0  0  # atno 7974 bound_to 7965
  154.5900  140.0660  156.9225 H   0  0  0  0  0  0  0  0  0  0  0  0  # atno 8008 bound_to 7997
  155.2313  140.3337  155.4285 H   0  0  0  0  0  0  0  0  0  0  0  0  # atno 8009 bound_to 7997
  156.2249  140.1815  156.7372 H   0  0  0  0  0  0  0  0  0  0  0  0  # atno 8010 bound_to 7997
  139.5305  144.2649  152.0676 H   0  0  0  0  0  0  0  0  0  0  0  0  # atno 10167 bound_to 10162
  157.5330  131.1098  150.8979 H   0  0  0  0  0  0  0  0  0  0  0  0  # atno 10718 bound_to 10713
  154.6707  135.2939  154.9745 H   0  0  0  0  0  0  0  0  0  0  0  0  # atno 10763 bound_to 10752
  154.0773  135.6609  153.4837 H   0  0  0  0  0  0  0  0  0  0  0  0  # atno 10764 bound_to 10752
  153.0485  135.5189  154.7702 H   0  0  0  0  0  0  0  0  0  0  0  0  # atno 10765 bound_to 10752
  141.0578  133.9583  157.2721 H   0  0  0  0  0  0  0  0  0  0  0  0  # atno 11005 bound_to 11000
  146.0089  139.3153  143.0882 LP  0  0  0  0  0  0  0  0  0  0  0  0  # atno 17320 bound_to 7965
  145.8705  140.9422  143.0653 LP  0  0  0  0  0  0  0  0  0  0  0  0  # atno 17321 bound_to 7965
  140.2111  144.4561  150.6385 LP  0  0  0  0  0  0  0  0  0  0  0  0  # atno 17342 bound_to 10162
  140.6479  143.2218  151.6143 LP  0  0  0  0  0  0  0  0  0  0  0  0  # atno 17343 bound_to 10162
  156.9555  130.5435  149.5284 LP  0  0  0  0  0  0  0  0  0  0  0  0  # atno 17370 bound_to 10713
  156.0437  130.5516  150.8830 LP  0  0  0  0  0  0  0  0  0  0  0  0  # atno 17371 bound_to 10713
  139.9406  135.0191  156.8695 LP  0  0  0  0  0  0  0  0  0  0  0  0  # atno 17394 bound_to 11000
  140.5928  134.0245  155.7506 LP  0  0  0  0  0  0  0  0  0  0  0  0  # atno 17395 bound_to 11000

$$$$
