AV-unprocessed.smi:682|AV-procd|sdf|3326|dock1
  -GOLD-   22720 0293D 1   1.00000     0.00000
 Structure written by MMmdl.
 41 42  0  0  0  0  0  0  0  0  1 V2000
  151.0113  137.8090  154.5656 C   0  0  0  0  0  0  0  0  0  0  0  0
  149.9587  138.4858  153.8894 O   0  0  0  0  0  0  0  0  0  0  0  0
  149.3172  139.5670  154.5792 C   0  0  1  0  0  0  0  0  0  0  0  0
  150.3652  140.4762  155.2341 C   0  0  0  0  0  0  0  0  0  0  0  0
  148.2268  140.1939  153.6897 C   0  0  0  0  0  0  0  0  0  0  0  0
  147.2323  139.1665  154.2349 C   0  0  1  0  0  0  0  0  0  0  0  0
  147.1464  137.9970  153.3599 N   0  0  0  0  0  0  0  0  0  0  0  0
  146.0187  137.3294  153.0843 C   0  0  0  0  0  0  0  0  0  0  0  0
  144.9129  137.6512  153.5191 O   0  0  0  0  0  0  0  0  0  0  0  0
  146.2618  136.2714  152.2944 N   0  0  0  0  0  0  0  0  0  0  0  0
  145.3221  135.3243  151.8167 C   0  0  0  0  0  0  0  0  0  0  0  0
  144.0281  135.0066  152.3179 C   0  0  0  0  0  0  0  0  0  0  0  0
  143.4571  134.0577  151.5906 N   0  0  0  0  0  0  0  0  0  0  0  0
  144.3623  133.7592  150.6275 N   0  0  0  0  0  0  0  0  0  0  0  0
  144.0463  132.7393  149.6503 C   0  0  0  0  0  0  0  0  0  0  0  0
  145.5108  134.5179  150.7349 C   0  0  0  0  0  0  0  0  0  0  0  0
  148.1674  138.9781  155.4606 C   0  0  0  0  0  0  0  0  0  0  0  0
  148.3703  137.5583  156.0156 C   0  0  0  0  0  0  0  0  0  0  0  0
  147.7531  139.8278  156.6712 C   0  0  0  0  0  0  0  0  0  0  0  0
  151.5047  137.1343  153.8662 H   0  0  0  0  0  0  0  0  0  0  0  0
  150.6347  137.2002  155.3873 H   0  0  0  0  0  0  0  0  0  0  0  0
  151.7656  138.4927  154.9531 H   0  0  0  0  0  0  0  0  0  0  0  0
  149.9051  141.2511  155.8462 H   0  0  0  0  0  0  0  0  0  0  0  0
  150.9717  140.9984  154.4947 H   0  0  0  0  0  0  0  0  0  0  0  0
  151.0363  139.9072  155.8776 H   0  0  0  0  0  0  0  0  0  0  0  0
  147.9762  141.2118  153.9923 H   0  0  0  0  0  0  0  0  0  0  0  0
  148.3934  140.1444  152.6138 H   0  0  0  0  0  0  0  0  0  0  0  0
  146.2654  139.6097  154.4803 H   0  0  0  0  0  0  0  0  0  0  0  0
  148.0128  137.6574  152.9682 H   0  0  0  0  0  0  0  0  0  0  0  0
  147.2221  136.1162  152.0249 H   0  0  0  0  0  0  0  0  0  0  0  0
  143.4900  135.4156  153.1600 H   0  0  0  0  0  0  0  0  0  0  0  0
  144.8921  132.5890  148.9786 H   0  0  0  0  0  0  0  0  0  0  0  0
  143.1783  133.0448  149.0656 H   0  0  0  0  0  0  0  0  0  0  0  0
  143.8246  131.7992  150.1563 H   0  0  0  0  0  0  0  0  0  0  0  0
  146.3413  134.4168  150.0517 H   0  0  0  0  0  0  0  0  0  0  0  0
  147.4566  137.1745  156.4704 H   0  0  0  0  0  0  0  0  0  0  0  0
  149.1504  137.5370  156.7770 H   0  0  0  0  0  0  0  0  0  0  0  0
  148.6623  136.8422  155.2476 H   0  0  0  0  0  0  0  0  0  0  0  0
  146.8285  139.4601  157.1173 H   0  0  0  0  0  0  0  0  0  0  0  0
  147.5783  140.8688  156.3991 H   0  0  0  0  0  0  0  0  0  0  0  0
  148.5163  139.8205  157.4500 H   0  0  0  0  0  0  0  0  0  0  0  0
  1  2  1  0  0  0  0
  1 20  1  0  0  0  0
  1 21  1  0  0  0  0
  1 22  1  0  0  0  0
  2  3  1  0  0  0  0
  3 17  1  0  0  0  0
  3  4  1  0  0  0  0
  3  5  1  0  0  0  0
  4 23  1  0  0  0  0
  4 24  1  0  0  0  0
  4 25  1  0  0  0  0
  5  6  1  0  0  0  0
  5 26  1  0  0  0  0
  5 27  1  0  0  0  0
  6  7  1  0  0  0  0
  6 17  1  0  0  0  0
  6 28  1  0  0  0  0
  7  8  1  0  0  0  0
  7 29  1  0  0  0  0
  8  9  2  0  0  0  0
  8 10  1  0  0  0  0
 10 11  1  0  0  0  0
 10 30  1  0  0  0  0
 11 16  2  0  0  0  0
 11 12  1  0  0  0  0
 12 13  2  0  0  0  0
 12 31  1  0  0  0  0
 13 14  1  0  0  0  0
 14 15  1  0  0  0  0
 14 16  1  0  0  0  0
 15 32  1  0  0  0  0
 15 33  1  0  0  0  0
 15 34  1  0  0  0  0
 16 35  1  0  0  0  0
 17 18  1  0  0  0  0
 17 19  1  0  0  0  0
 18 36  1  0  0  0  0
 18 37  1  0  0  0  0
 18 38  1  0  0  0  0
 19 39  1  0  0  0  0
 19 40  1  0  0  0  0
 19 41  1  0  0  0  0
M  END
> <s_m_source_file>
AV-unprocessed.smi

> <i_m_source_file_index>
682

> <i_lp_mmshare_version>
43012

> <i_f3d_flags>
0

> <s_epik_input>
W0NIM11PW0NAQF0xKFtDSDNdKVtDSDJdW0NASF0oQzEoW0NIM10pW0NIM10pW05IXUMoPU8pW05IXWMyW2NIXW5uKFtDSDNdKVtjSF0y

> <s_epik_cmdline>
J2VwaWtfcHl0aG9uJywgJy1waCcsICc3LjAnLCAnLXRuJywgJzgnLCAnLW1hJywgJzIwMCcsICctbWV0YWxfYmluZGluZycsICctaW1hZScsICc8aW5maWxlLm1hZT4nLCAnLW9tYWUnLCAnPG91dGZpbGUubWFlPic=

> <r_lp_tautomer_probability>
1

> <r_epik_Ionization_Penalty>
0.000192302

> <r_epik_Ionization_Penalty_Charging>
0

> <r_epik_Ionization_Penalty_Neutral>
0.000192302

> <r_epik_State_Penalty>
-0

> <r_epik_Charging_Adjusted_Penalty>
0

> <i_epik_Tot_Q>
0

> <i_epik_Tot_abs_Q>
0

> <r_epik_Metal_State_Penalty>
-0

> <b_epik_Metal_Only>
0

> <s_lp_Force_Field>
OPLS_2005

> <r_lp_Energy>
26.143

> <b_lp_Chiralities_Consistent>
1

> <s_lp_Variant>
AV-unprocessed.smi:682-1

> <Gold.Version>
5.8.1

> <Gold.Id.Protein>
6NUR|6NUR_protein|mol2

> <Gold.PLP.Fitness>
33.6632

> <Gold.PLP.PLP>
-25.3670

> <Gold.PLP.part.hbond>
-2.0000

> <Gold.PLP.part.metal>
0.0000

> <Gold.PLP.part.buried>
-3.7968

> <Gold.PLP.part.nonpolar>
-20.6994

> <Gold.PLP.part.repulsive>
0.6152

> <Gold.PLP.ligand.clash>
0.0000

> <Gold.PLP.ligand.torsion>
0.4525

> <Gold.PLP.Chemscore.Hbond>
1.9600

> <Gold.PLP.Chemscore.CHOScore>
0.9776

> <Gold.PLP.Chemscore.Metal>
0.0000

> <Gold.Chemscore.Hbonds>
donor molecule, donor type, donor heavy atom, donor atom, acceptor molecule, acceptor atom, score
      L1  H     7    29       P1  7948  0.96
      L1  H    10    30       P1  7948  1.00
      L1  C    16    35       P1  7921  0.76

> <Gold.PLP.Chemscore.Internal.Correction>
0.3884

> <Gold.Rescore>
     Score         DG    S(hbond)    S(metal)    S(lipo)     H(rot)  DE(clash)    DE(int)     intcor
     13.86     -15.41       1.91        0.00      57.37       1.23       0.09       1.46       ----

> <Gold.Chemscore.Fitness>
13.8574

> <Gold.Chemscore.DG>
-15.4068

> <Gold.Chemscore.ZeroCoef>
-5.4800

> <Gold.Chemscore.Hbond>
1.9079

> <Gold.Chemscore.Metal>
0.0000

> <Gold.Chemscore.Lipo>
57.3707

> <Gold.Chemscore.Internal_Hbond>
0.0000

> <Gold.Chemscore.DEClash>
0.0867

> <Gold.Chemscore.DEInternal>
1.4627

> <Gold.Chemscore.Rot>
1.2336

> <Gold.Chemscore.Internal.Correction>
   9.000000E+99

> <Gold.Chemscore.Hbonds>
donor molecule, donor type, donor heavy atom, donor atom, acceptor molecule, acceptor atom, score
      L1  H     7    29       P1  7948  0.86
      L1  H    10    30       P1  7948  1.00

> <Gold.Chemscore.Hbond.Weighted>
-6.3725

> <Gold.Chemscore.Metal.Weighted>
-0.0000

> <Gold.Chemscore.Lipo.Weighted>
-6.7124

> <Gold.Chemscore.Internal_Hbond.Weighted>
0.0000

> <Gold.Chemscore.DEClash.Weighted>
0.0867

> <Gold.Chemscore.DEInternal.Weighted>
1.4627

> <Gold.Chemscore.Rot.Weighted>
3.1581

> <Gold.Chemscore.Internal.Correction.Weighted>
   9.000000E+99

> <Gold.Protein.RotatedTorsions>
[ 6907 6896 6895 6894 ] final -114.89 input  -60.11 | X-H torsion
[ 7974 7965 7964 7962 ] final  -11.24 input  175.53 | X-H torsion
[ 8008 7997 7996 7995 ] final -170.04 input   59.86 | X-H torsion
[ 10167 10162 10161 10158 ] final  138.76 input  -65.29 | X-H torsion
[ 10718 10713 10712 10709 ] final  142.43 input   66.30 | X-H torsion
[ 10763 10752 10751 10750 ] final  -51.55 input  -60.55 | X-H torsion
[ 11005 11000 10999 10996 ] final   -2.57 input  -57.11 | X-H torsion

> <Gold.Protein.ActiveResidues>
 VAL166  LYS551  ARG553  GLY616  TRP617  ASP618  TYR619  PRO620  LYS621  CYS622 
 ASP623  PHE694  ASN695  SER759  ASP760  ASP761  ALA762  ILE779  LEU786  VAL792 
 PHE793  MET794  SER795  GLU796  ALA797  LYS798  CYS799  TRP800  GLU811  SER814 

> <Gold.Protein.RotatedAtoms>
  150.7936  133.8737  159.3265 H   0  0  0  0  0  0  0  0  0  0  0  0  # atno 6907 bound_to 6896
  151.6568  135.0992  160.0181 H   0  0  0  0  0  0  0  0  0  0  0  0  # atno 6908 bound_to 6896
  152.4014  133.6784  159.6355 H   0  0  0  0  0  0  0  0  0  0  0  0  # atno 6909 bound_to 6896
  146.2194  140.2882  142.8366 H   0  0  0  0  0  0  0  0  0  0  0  0  # atno 7974 bound_to 7965
  155.9130  140.1061  157.1265 H   0  0  0  0  0  0  0  0  0  0  0  0  # atno 8008 bound_to 7997
  154.4042  140.1270  156.4646 H   0  0  0  0  0  0  0  0  0  0  0  0  # atno 8009 bound_to 7997
  155.7287  140.3469  155.5052 H   0  0  0  0  0  0  0  0  0  0  0  0  # atno 8010 bound_to 7997
  139.5100  144.6334  151.5759 H   0  0  0  0  0  0  0  0  0  0  0  0  # atno 10167 bound_to 10162
  157.3806  131.0991  151.0742 H   0  0  0  0  0  0  0  0  0  0  0  0  # atno 10718 bound_to 10713
  154.1285  135.6524  153.4917 H   0  0  0  0  0  0  0  0  0  0  0  0  # atno 10763 bound_to 10752
  153.0203  135.5287  154.7025 H   0  0  0  0  0  0  0  0  0  0  0  0  # atno 10764 bound_to 10752
  154.6253  135.2969  155.0249 H   0  0  0  0  0  0  0  0  0  0  0  0  # atno 10765 bound_to 10752
  140.6598  133.9330  155.8429 H   0  0  0  0  0  0  0  0  0  0  0  0  # atno 11005 bound_to 11000
  144.9146  140.7798  143.5786 LP  0  0  0  0  0  0  0  0  0  0  0  0  # atno 17320 bound_to 7965
  145.2815  139.1917  143.4788 LP  0  0  0  0  0  0  0  0  0  0  0  0  # atno 17321 bound_to 7965
  140.6075  143.9498  150.6429 LP  0  0  0  0  0  0  0  0  0  0  0  0  # atno 17342 bound_to 10162
  140.2729  143.3443  152.1221 LP  0  0  0  0  0  0  0  0  0  0  0  0  # atno 17343 bound_to 10162
  157.1812  130.6310  149.5672 LP  0  0  0  0  0  0  0  0  0  0  0  0  # atno 17370 bound_to 10713
  155.9775  130.4753  150.6597 LP  0  0  0  0  0  0  0  0  0  0  0  0  # atno 17371 bound_to 10713
  141.0473  134.0535  157.3827 LP  0  0  0  0  0  0  0  0  0  0  0  0  # atno 17394 bound_to 11000
  139.9017  135.0166  156.7298 LP  0  0  0  0  0  0  0  0  0  0  0  0  # atno 17395 bound_to 11000

$$$$
