AV-unprocessed.smi:3046|AV-procd|sdf|11613|dock4
  -GOLD-   2272016593D 1   1.00000     0.00000
 Structure written by MMmdl.
 38 38  0  0  0  0  0  0  0  0  2 V2000
  146.4132  133.2654  151.3340 C   0  0  0  0  0  0  0  0  0  0  0  0
  145.7498  134.3947  151.6237 C   0  0  0  0  0  0  0  0  0  0  0  0
  145.9265  135.1898  152.8994 C   0  0  0  0  0  0  0  0  0  0  0  0
  146.5212  136.4870  152.6136 N   0  0  0  0  0  0  0  0  0  0  0  0
  146.0637  137.6526  153.0940 C   0  0  0  0  0  0  0  0  0  0  0  0
  145.0859  137.7359  153.8385 O   0  0  0  0  0  0  0  0  0  0  0  0
  146.8342  138.9115  152.6784 C   0  0  2  0  0  0  0  0  0  0  0  0
  146.6949  139.1397  151.1625 C   0  0  0  0  0  0  0  0  0  0  0  0
  148.2599  138.7956  153.0676 N   0  3  0  0  0  0  0  0  0  0  0  0
  148.6063  139.2599  154.4301 C   0  0  2  0  0  0  0  0  0  0  0  0
  147.8776  140.5838  154.7144 C   0  0  0  0  0  0  0  0  0  0  0  0
  150.1394  139.3855  154.5911 C   0  0  0  0  0  0  0  0  0  0  0  0
  150.5319  140.0331  155.8298 N   0  0  0  0  0  0  0  0  0  0  0  0
  150.3709  141.3526  156.1977 C   0  0  0  0  0  0  0  0  0  0  0  0
  150.9094  141.4950  157.4444 C   0  0  0  0  0  0  0  0  0  0  0  0
  151.3892  140.1923  157.7565 C   0  0  0  0  0  0  0  0  0  0  0  0
  151.1659  139.3205  156.7859 N   0  0  0  0  0  0  0  0  0  0  0  0
  147.1384  132.8478  152.0173 H   0  0  0  0  0  0  0  0  0  0  0  0
  146.2380  132.7423  150.4054 H   0  0  0  0  0  0  0  0  0  0  0  0
  145.0294  134.7775  150.9154 H   0  0  0  0  0  0  0  0  0  0  0  0
  144.9491  135.3269  153.3635 H   0  0  0  0  0  0  0  0  0  0  0  0
  146.5520  134.6402  153.6048 H   0  0  0  0  0  0  0  0  0  0  0  0
  147.3347  136.4971  152.0150 H   0  0  0  0  0  0  0  0  0  0  0  0
  146.3881  139.7553  153.2055 H   0  0  0  0  0  0  0  0  0  0  0  0
  145.6471  139.2065  150.8664 H   0  0  0  0  0  0  0  0  0  0  0  0
  147.1481  138.3271  150.5928 H   0  0  0  0  0  0  0  0  0  0  0  0
  147.1733  140.0678  150.8502 H   0  0  0  0  0  0  0  0  0  0  0  0
  148.5320  137.8257  152.9935 H   0  0  0  0  0  0  0  0  0  0  0  0
  148.2339  138.5285  155.1478 H   0  0  0  0  0  0  0  0  0  0  0  0
  148.0394  140.9202  155.7389 H   0  0  0  0  0  0  0  0  0  0  0  0
  146.8011  140.4742  154.5795 H   0  0  0  0  0  0  0  0  0  0  0  0
  148.2180  141.3759  154.0465 H   0  0  0  0  0  0  0  0  0  0  0  0
  150.6192  138.4072  154.5636 H   0  0  0  0  0  0  0  0  0  0  0  0
  150.5562  139.9564  153.7602 H   0  0  0  0  0  0  0  0  0  0  0  0
  149.8909  142.0723  155.5507 H   0  0  0  0  0  0  0  0  0  0  0  0
  150.9567  142.3938  158.0412 H   0  0  0  0  0  0  0  0  0  0  0  0
  151.8913  139.8571  158.6522 H   0  0  0  0  0  0  0  0  0  0  0  0
  148.7993  139.3236  152.3964 H   0  0  0  0  0  0  0  0  0  0  0  0
  1  2  2  0  0  0  0
  1 18  1  0  0  0  0
  1 19  1  0  0  0  0
  2  3  1  0  0  0  0
  2 20  1  0  0  0  0
  3  4  1  0  0  0  0
  3 21  1  0  0  0  0
  3 22  1  0  0  0  0
  4  5  1  0  0  0  0
  4 23  1  0  0  0  0
  5  6  2  0  0  0  0
  5  7  1  0  0  0  0
  7  8  1  0  0  0  0
  7  9  1  0  0  0  0
  7 24  1  0  0  0  0
  8 25  1  0  0  0  0
  8 26  1  0  0  0  0
  8 27  1  0  0  0  0
  9 10  1  0  0  0  0
  9 28  1  0  0  0  0
  9 38  1  0  0  0  0
 10 11  1  0  0  0  0
 10 12  1  0  0  0  0
 10 29  1  0  0  0  0
 11 30  1  0  0  0  0
 11 31  1  0  0  0  0
 11 32  1  0  0  0  0
 12 13  1  0  0  0  0
 12 33  1  0  0  0  0
 12 34  1  0  0  0  0
 13 17  1  0  0  0  0
 13 14  1  0  0  0  0
 14 15  2  0  0  0  0
 14 35  1  0  0  0  0
 15 16  1  0  0  0  0
 15 36  1  0  0  0  0
 16 17  2  0  0  0  0
 16 37  1  0  0  0  0
M  CHG  1   9   1
M  END
> <s_m_source_file>
AV-unprocessed.smi

> <i_m_source_file_index>
3046

> <i_lp_mmshare_version>
43012

> <i_f3d_flags>
0

> <s_epik_input>
W0NIMl09W0NIXVtDSDJdW05IXUMoPU8pW0NASF0oW0NIM10pW05IXVtDQEhdKFtDSDNdKVtDSDJdbjFbY0hdW2NIXVtjSF1uMQ==

> <s_epik_cmdline>
J2VwaWtfcHl0aG9uJywgJy1waCcsICc3LjAnLCAnLXRuJywgJzgnLCAnLW1hJywgJzIwMCcsICctbWV0YWxfYmluZGluZycsICctaW1hZScsICc8aW5maWxlLm1hZT4nLCAnLW9tYWUnLCAnPG91dGZpbGUubWFlPic=

> <r_lp_tautomer_probability>
1

> <r_epik_Ionization_Penalty>
0.132961

> <r_epik_Ionization_Penalty_Charging>
0.132956

> <r_epik_Ionization_Penalty_Neutral>
5.00268e-06

> <r_epik_State_Penalty>
0.122332

> <r_epik_Charging_Adjusted_Penalty>
0.255288

> <i_epik_Tot_Q>
1

> <i_epik_Tot_abs_Q>
1

> <r_epik_Metal_State_Penalty>
0.122338

> <b_epik_Metal_Only>
0

> <s_lp_Force_Field>
OPLS_2005

> <r_lp_Energy>
6.28532

> <b_lp_Chiralities_Consistent>
1

> <s_lp_Variant>
AV-unprocessed.smi:3046-1

> <Gold.Version>
5.8.1

> <Gold.Id.Protein>
6NUR|6NUR_protein|mol2

> <Gold.PLP.Fitness>
44.0525

> <Gold.PLP.PLP>
-30.7380

> <Gold.PLP.part.hbond>
-2.8141

> <Gold.PLP.part.metal>
0.0000

> <Gold.PLP.part.buried>
-0.9820

> <Gold.PLP.part.nonpolar>
-27.7456

> <Gold.PLP.part.repulsive>
0.1948

> <Gold.PLP.ligand.clash>
0.0000

> <Gold.PLP.ligand.torsion>
0.7226

> <Gold.PLP.Chemscore.Hbond>
3.9200

> <Gold.PLP.Chemscore.CHOScore>
0.9830

> <Gold.PLP.Chemscore.Metal>
0.0000

> <Gold.Chemscore.Hbonds>
donor molecule, donor type, donor heavy atom, donor atom, acceptor molecule, acceptor atom, score
      L1  H     4    23       P1  7948  0.98
      L1  H     9    28       P1  7948  1.95
      L1  H     9    38       P1  7957  1.00
      L1  C    14    35       P1  8028  0.25

> <Gold.PLP.Chemscore.Internal.Correction>
0.0507

> <Gold.Rescore>
     Score         DG    S(hbond)    S(metal)    S(lipo)     H(rot)  DE(clash)    DE(int)     intcor
     16.24     -16.78       2.85        0.00      64.74       2.26       0.08       0.47       ----

> <Gold.Chemscore.Fitness>
16.2359

> <Gold.Chemscore.DG>
-16.7844

> <Gold.Chemscore.ZeroCoef>
-5.4800

> <Gold.Chemscore.Hbond>
2.8509

> <Gold.Chemscore.Metal>
0.0000

> <Gold.Chemscore.Lipo>
64.7401

> <Gold.Chemscore.Internal_Hbond>
0.0000

> <Gold.Chemscore.DEClash>
0.0814

> <Gold.Chemscore.DEInternal>
0.4671

> <Gold.Chemscore.Rot>
2.2626

> <Gold.Chemscore.Internal.Correction>
   9.000000E+99

> <Gold.Chemscore.Hbonds>
donor molecule, donor type, donor heavy atom, donor atom, acceptor molecule, acceptor atom, score
      L1  H     4    23       P1  7948  0.93
      L1  H     9    28       P1  7948  0.91
      L1  H     9    38       P1  7957  1.00

> <Gold.Chemscore.Hbond.Weighted>
-9.5220

> <Gold.Chemscore.Metal.Weighted>
-0.0000

> <Gold.Chemscore.Lipo.Weighted>
-7.5746

> <Gold.Chemscore.Internal_Hbond.Weighted>
0.0000

> <Gold.Chemscore.DEClash.Weighted>
0.0814

> <Gold.Chemscore.DEInternal.Weighted>
0.4671

> <Gold.Chemscore.Rot.Weighted>
5.7922

> <Gold.Chemscore.Internal.Correction.Weighted>
   9.000000E+99

> <Gold.Protein.RotatedTorsions>
[ 6907 6896 6895 6894 ] final  -63.01 input  -60.11 | X-H torsion
[ 7974 7965 7964 7962 ] final   52.50 input  175.53 | X-H torsion
[ 8008 7997 7996 7995 ] final -162.75 input   59.86 | X-H torsion
[ 10167 10162 10161 10158 ] final  112.11 input  -65.29 | X-H torsion
[ 10718 10713 10712 10709 ] final  -91.51 input   66.30 | X-H torsion
[ 10763 10752 10751 10750 ] final   28.25 input  -60.55 | X-H torsion
[ 11005 11000 10999 10996 ] final  -43.63 input  -57.11 | X-H torsion

> <Gold.Protein.ActiveResidues>
 VAL166  LYS551  ARG553  GLY616  TRP617  ASP618  TYR619  PRO620  LYS621  CYS622 
 ASP623  PHE694  ASN695  SER759  ASP760  ASP761  ALA762  ILE779  LEU786  VAL792 
 PHE793  MET794  SER795  GLU796  ALA797  LYS798  CYS799  TRP800  GLU811  SER814 

> <Gold.Protein.RotatedAtoms>
  150.7677  134.6492  159.6278 H   0  0  0  0  0  0  0  0  0  0  0  0  # atno 6907 bound_to 6896
  152.3716  134.6722  160.0183 H   0  0  0  0  0  0  0  0  0  0  0  0  # atno 6908 bound_to 6896
  151.7080  133.3275  159.3320 H   0  0  0  0  0  0  0  0  0  0  0  0  # atno 6909 bound_to 6896
  145.9807  139.4239  143.0134 H   0  0  0  0  0  0  0  0  0  0  0  0  # atno 7974 bound_to 7965
  155.8113  140.0906  157.1902 H   0  0  0  0  0  0  0  0  0  0  0  0  # atno 8008 bound_to 7997
  154.3980  140.1454  156.3450 H   0  0  0  0  0  0  0  0  0  0  0  0  # atno 8009 bound_to 7997
  155.8362  140.3440  155.5605 H   0  0  0  0  0  0  0  0  0  0  0  0  # atno 8010 bound_to 7997
  139.6560  144.7129  151.1955 H   0  0  0  0  0  0  0  0  0  0  0  0  # atno 10167 bound_to 10162
  155.9994  130.4951  150.5485 H   0  0  0  0  0  0  0  0  0  0  0  0  # atno 10718 bound_to 10713
  153.0503  135.6517  154.0710 H   0  0  0  0  0  0  0  0  0  0  0  0  # atno 10763 bound_to 10752
  154.0399  135.2904  155.3358 H   0  0  0  0  0  0  0  0  0  0  0  0  # atno 10764 bound_to 10752
  154.6788  135.5328  153.8302 H   0  0  0  0  0  0  0  0  0  0  0  0  # atno 10765 bound_to 10752
  141.0397  133.6785  156.2760 H   0  0  0  0  0  0  0  0  0  0  0  0  # atno 11005 bound_to 11000
  145.7773  140.9871  143.1117 LP  0  0  0  0  0  0  0  0  0  0  0  0  # atno 17320 bound_to 7965
  144.6861  139.9521  143.7478 LP  0  0  0  0  0  0  0  0  0  0  0  0  # atno 17321 bound_to 7965
  140.7559  143.6071  150.8642 LP  0  0  0  0  0  0  0  0  0  0  0  0  # atno 17342 bound_to 10162
  139.9724  143.6042  152.2969 LP  0  0  0  0  0  0  0  0  0  0  0  0  # atno 17343 bound_to 10162
  157.3411  131.0717  151.1787 LP  0  0  0  0  0  0  0  0  0  0  0  0  # atno 17370 bound_to 10713
  157.2635  130.6670  149.5986 LP  0  0  0  0  0  0  0  0  0  0  0  0  # atno 17371 bound_to 10713
  140.6258  134.5315  157.5553 LP  0  0  0  0  0  0  0  0  0  0  0  0  # atno 17394 bound_to 11000
  139.9266  134.8044  156.1050 LP  0  0  0  0  0  0  0  0  0  0  0  0  # atno 17395 bound_to 11000

$$$$
