AV-unprocessed.smi:2568|AV-procd|sdf|10088|dock8
  -GOLD-   2272014113D 1   1.00000     0.00000
 Structure written by MMmdl.
 25 26  0  0  0  0  0  0  0  0  2 V2000
  152.4260  138.0133  154.4717 C   0  0  0  0  0  0  0  0  0  0  0  0
  151.0866  138.6601  154.3646 C   0  0  0  0  0  0  0  0  0  0  0  0
  150.0421  138.0406  153.8120 N   0  0  0  0  0  0  0  0  0  0  0  0
  148.9689  138.8588  153.8457 N   0  0  0  0  0  0  0  0  0  0  0  0
  149.4605  139.9385  154.4524 C   0  0  0  0  0  0  0  0  0  0  0  0
  148.6068  141.1496  154.6668 C   0  0  2  0  0  0  0  0  0  0  0  0
  148.4468  141.4920  156.1600 C   0  0  0  0  0  0  0  0  0  0  0  0
  147.5227  142.6317  156.3162 N   0  3  0  0  0  0  0  0  0  0  0  0
  146.2260  142.3699  155.6601 C   0  0  0  0  0  0  0  0  0  0  0  0
  146.4439  141.9805  154.1869 C   0  0  0  0  0  0  0  0  0  0  0  0
  147.3263  140.8656  154.1069 O   0  0  0  0  0  0  0  0  0  0  0  0
  150.7870  139.8840  154.7858 N   0  0  0  0  0  0  0  0  0  0  0  0
  150.0176  137.1126  153.4135 H   0  0  0  0  0  0  0  0  0  0  0  0
  153.1323  138.6776  154.9706 H   0  0  0  0  0  0  0  0  0  0  0  0
  152.8091  137.7792  153.4784 H   0  0  0  0  0  0  0  0  0  0  0  0
  152.3512  137.0897  155.0464 H   0  0  0  0  0  0  0  0  0  0  0  0
  149.0532  141.9910  154.1324 H   0  0  0  0  0  0  0  0  0  0  0  0
  148.0521  140.6353  156.7084 H   0  0  0  0  0  0  0  0  0  0  0  0
  149.4103  141.7435  156.6045 H   0  0  0  0  0  0  0  0  0  0  0  0
  147.3727  142.8111  157.2990 H   0  0  0  0  0  0  0  0  0  0  0  0
  145.7126  141.5666  156.1901 H   0  0  0  0  0  0  0  0  0  0  0  0
  145.5973  143.2573  155.7339 H   0  0  0  0  0  0  0  0  0  0  0  0
  145.4936  141.7135  153.7245 H   0  0  0  0  0  0  0  0  0  0  0  0
  146.8492  142.8188  153.6181 H   0  0  0  0  0  0  0  0  0  0  0  0
  147.9414  143.4478  155.8926 H   0  0  0  0  0  0  0  0  0  0  0  0
  1 14  1  0  0  0  0
  1 15  1  0  0  0  0
  1 16  1  0  0  0  0
  1  2  1  0  0  0  0
  2 12  2  0  0  0  0
  2  3  1  0  0  0  0
  3  4  1  0  0  0  0
  3 13  1  0  0  0  0
  4  5  2  0  0  0  0
  5 12  1  0  0  0  0
  5  6  1  0  0  0  0
  6 11  1  0  0  0  0
  6  7  1  0  0  0  0
  6 17  1  0  0  0  0
  7  8  1  0  0  0  0
  7 18  1  0  0  0  0
  7 19  1  0  0  0  0
  8  9  1  0  0  0  0
  8 20  1  0  0  0  0
  8 25  1  0  0  0  0
  9 10  1  0  0  0  0
  9 21  1  0  0  0  0
  9 22  1  0  0  0  0
 10 11  1  0  0  0  0
 10 23  1  0  0  0  0
 10 24  1  0  0  0  0
M  CHG  1   8   1
M  END
> <s_m_source_file>
AV-unprocessed.smi

> <i_m_source_file_index>
2568

> <i_lp_mmshare_version>
43012

> <i_f3d_flags>
0

> <s_epik_input>
W0NIM11jMW5bbkhdYyhuMSlbQ0BASF0yW0NIMl1bTkhdW0NIMl1bQ0gyXU8y

> <s_epik_cmdline>
J2VwaWtfcHl0aG9uJywgJy1waCcsICc3LjAnLCAnLXRuJywgJzgnLCAnLW1hJywgJzIwMCcsICctbWV0YWxfYmluZGluZycsICctaW1hZScsICc8aW5maWxlLm1hZT4nLCAnLW9tYWUnLCAnPG91dGZpbGUubWFlPic=

> <r_lp_tautomer_probability>
0.948284

> <r_epik_Ionization_Penalty>
0.107151

> <r_epik_Ionization_Penalty_Charging>
0.100865

> <r_epik_Ionization_Penalty_Neutral>
0.00628602

> <r_epik_State_Penalty>
0.200426

> <r_epik_Charging_Adjusted_Penalty>
0.30129

> <i_epik_Tot_Q>
1

> <i_epik_Tot_abs_Q>
1

> <r_epik_Metal_State_Penalty>
0.501686

> <b_epik_Metal_Only>
0

> <s_lp_Force_Field>
OPLS_2005

> <r_lp_Energy>
11.0041

> <b_lp_Chiralities_Consistent>
1

> <s_lp_Variant>
AV-unprocessed.smi:2568-1

> <Gold.Version>
5.8.1

> <Gold.Id.Protein>
6NUR|6NUR_protein|mol2

> <Gold.PLP.Fitness>
30.9303

> <Gold.PLP.PLP>
-19.7954

> <Gold.PLP.part.hbond>
-3.3602

> <Gold.PLP.part.metal>
0.0000

> <Gold.PLP.part.buried>
-2.2918

> <Gold.PLP.part.nonpolar>
-15.2853

> <Gold.PLP.part.repulsive>
1.5624

> <Gold.PLP.ligand.clash>
0.0000

> <Gold.PLP.ligand.torsion>
0.0197

> <Gold.PLP.Chemscore.Hbond>
3.7200

> <Gold.PLP.Chemscore.CHOScore>
0.0000

> <Gold.PLP.Chemscore.Metal>
0.0000

> <Gold.Chemscore.Hbonds>
donor molecule, donor type, donor heavy atom, donor atom, acceptor molecule, acceptor atom, score
      L1  H     3    13       P1  7948  0.68
      L1  H     8    25       P1  8028  1.90
      P1  H  7989  7998       L1    12  1.00

> <Gold.PLP.Chemscore.Internal.Correction>
0.0143

> <Gold.Rescore>
     Score         DG    S(hbond)    S(metal)    S(lipo)     H(rot)  DE(clash)    DE(int)     intcor
     12.47     -14.62       2.55        0.00      27.34       1.00       2.14       0.02       ----

> <Gold.Chemscore.Fitness>
12.4666

> <Gold.Chemscore.DG>
-14.6228

> <Gold.Chemscore.ZeroCoef>
-5.4800

> <Gold.Chemscore.Hbond>
2.5461

> <Gold.Chemscore.Metal>
0.0000

> <Gold.Chemscore.Lipo>
27.3416

> <Gold.Chemscore.Internal_Hbond>
0.0000

> <Gold.Chemscore.DEClash>
2.1354

> <Gold.Chemscore.DEInternal>
0.0208

> <Gold.Chemscore.Rot>
1.0000

> <Gold.Chemscore.Internal.Correction>
   9.000000E+99

> <Gold.Chemscore.Hbonds>
donor molecule, donor type, donor heavy atom, donor atom, acceptor molecule, acceptor atom, score
      L1  H     3    13       P1  7948  0.17
      L1  H     8    25       P1  8028  0.21
      P1  H  7989  7998       L1    12  0.13

> <Gold.Chemscore.Hbond.Weighted>
-8.5038

> <Gold.Chemscore.Metal.Weighted>
-0.0000

> <Gold.Chemscore.Lipo.Weighted>
-3.1990

> <Gold.Chemscore.Internal_Hbond.Weighted>
0.0000

> <Gold.Chemscore.DEClash.Weighted>
2.1354

> <Gold.Chemscore.DEInternal.Weighted>
0.0208

> <Gold.Chemscore.Rot.Weighted>
2.5600

> <Gold.Chemscore.Internal.Correction.Weighted>
   9.000000E+99

> <Gold.Protein.RotatedTorsions>
[ 6907 6896 6895 6894 ] final  -20.35 input  -60.11 | X-H torsion
[ 7974 7965 7964 7962 ] final  135.72 input  175.53 | X-H torsion
[ 8008 7997 7996 7995 ] final -134.04 input   59.86 | X-H torsion
[ 10167 10162 10161 10158 ] final  112.08 input  -65.29 | X-H torsion
[ 10718 10713 10712 10709 ] final  -59.92 input   66.30 | X-H torsion
[ 10763 10752 10751 10750 ] final  -14.91 input  -60.55 | X-H torsion
[ 11005 11000 10999 10996 ] final   -0.75 input  -57.11 | X-H torsion

> <Gold.Protein.ActiveResidues>
 VAL166  LYS551  ARG553  GLY616  TRP617  ASP618  TYR619  PRO620  LYS621  CYS622 
 ASP623  PHE694  ASN695  SER759  ASP760  ASP761  ALA762  ILE779  LEU786  VAL792 
 PHE793  MET794  SER795  GLU796  ALA797  LYS798  CYS799  TRP800  GLU811  SER814 

> <Gold.Protein.RotatedAtoms>
  151.2495  135.0617  159.9055 H   0  0  0  0  0  0  0  0  0  0  0  0  # atno 6907 bound_to 6896
  152.5382  134.0348  159.8051 H   0  0  0  0  0  0  0  0  0  0  0  0  # atno 6908 bound_to 6896
  151.0554  133.5540  159.2670 H   0  0  0  0  0  0  0  0  0  0  0  0  # atno 6909 bound_to 6896
  144.9635  139.4684  143.5468 H   0  0  0  0  0  0  0  0  0  0  0  0  # atno 7974 bound_to 7965
  155.3555  140.0480  157.3046 H   0  0  0  0  0  0  0  0  0  0  0  0  # atno 8008 bound_to 7997
  154.5205  140.2223  155.8949 H   0  0  0  0  0  0  0  0  0  0  0  0  # atno 8009 bound_to 7997
  156.1684  140.3101  155.8936 H   0  0  0  0  0  0  0  0  0  0  0  0  # atno 8010 bound_to 7997
  139.6563  144.7129  151.1951 H   0  0  0  0  0  0  0  0  0  0  0  0  # atno 10167 bound_to 10162
  156.1027  130.4184  150.0782 H   0  0  0  0  0  0  0  0  0  0  0  0  # atno 10718 bound_to 10713
  153.5353  135.7014  153.5663 H   0  0  0  0  0  0  0  0  0  0  0  0  # atno 10763 bound_to 10752
  153.3652  135.3959  155.1748 H   0  0  0  0  0  0  0  0  0  0  0  0  # atno 10764 bound_to 10752
  154.8680  135.3798  154.4854 H   0  0  0  0  0  0  0  0  0  0  0  0  # atno 10765 bound_to 10752
  140.6397  133.9501  155.8319 H   0  0  0  0  0  0  0  0  0  0  0  0  # atno 11005 bound_to 11000
  146.3360  139.8801  142.8826 LP  0  0  0  0  0  0  0  0  0  0  0  0  # atno 17320 bound_to 7965
  145.2664  141.0094  143.3797 LP  0  0  0  0  0  0  0  0  0  0  0  0  # atno 17321 bound_to 7965
  140.7560  143.6068  150.8645 LP  0  0  0  0  0  0  0  0  0  0  0  0  # atno 17342 bound_to 10162
  139.9721  143.6045  152.2970 LP  0  0  0  0  0  0  0  0  0  0  0  0  # atno 17343 bound_to 10162
  156.8765  130.9542  151.3604 LP  0  0  0  0  0  0  0  0  0  0  0  0  # atno 17370 bound_to 10713
  157.6200  130.8647  149.9092 LP  0  0  0  0  0  0  0  0  0  0  0  0  # atno 17371 bound_to 10713
  141.0616  134.0338  157.3651 LP  0  0  0  0  0  0  0  0  0  0  0  0  # atno 17394 bound_to 11000
  139.9085  135.0185  156.7590 LP  0  0  0  0  0  0  0  0  0  0  0  0  # atno 17395 bound_to 11000

$$$$
