AV-unprocessed.smi:1817|AV-procd|sdf|7375|dock3
  -GOLD-   22720 9 43D 1   1.00000     0.00000
 Structure written by MMmdl.
 42 43  0  0  0  0  0  0  0  0  3 V2000
  145.8973  132.4135  150.2551 C   0  0  0  0  0  0  0  0  0  0  0  0
  146.6403  133.1977  151.3464 C   0  0  0  0  0  0  0  0  0  0  0  0
  147.4586  132.3245  152.2239 N   0  3  0  0  0  0  0  0  0  0  0  0
  146.6382  131.3041  152.9232 C   0  0  0  0  0  0  0  0  0  0  0  0
  147.5197  130.4067  153.8217 C   0  0  0  0  0  0  0  0  0  0  0  0
  148.2672  131.1859  154.8204 N   0  0  0  0  0  0  0  0  0  0  0  0
  147.4240  131.8207  155.8584 C   0  0  1  0  0  0  0  0  0  0  0  0
  146.7873  130.7410  156.7647 C   0  0  0  0  0  0  0  0  0  0  0  0
  148.2156  132.8423  156.7206 C   0  0  0  0  0  0  0  0  0  0  0  0
  147.6108  133.0407  158.0346 N   0  0  0  0  0  0  0  0  0  0  0  0
  148.0059  133.9449  158.9432 C   0  0  0  0  0  0  0  0  0  0  0  0
  148.9691  134.6777  158.7030 O   0  0  0  0  0  0  0  0  0  0  0  0
  147.2593  133.9491  160.0700 N   0  5  0  0  0  0  0  0  0  0  0  0
  147.3740  134.9608  160.9462 C   0  0  0  0  0  0  0  0  0  0  0  0
  147.4269  136.2451  160.5585 N   0  0  0  0  0  0  0  0  0  0  0  0
  147.5410  137.1319  161.6204 N   0  0  0  0  0  0  0  0  0  0  0  0
  147.5635  136.4905  162.7884 C   0  0  0  0  0  0  0  0  0  0  0  0
  147.4481  134.7456  162.6970 S   0  0  0  0  0  0  0  0  0  0  0  0
  149.1265  132.0974  154.0519 C   0  0  0  0  0  0  0  0  0  0  0  0
  148.2982  133.0743  153.1920 C   0  0  0  0  0  0  0  0  0  0  0  0
  145.2328  133.0732  149.6968 H   0  0  0  0  0  0  0  0  0  0  0  0
  145.2875  131.6185  150.6849 H   0  0  0  0  0  0  0  0  0  0  0  0
  146.5816  131.9646  149.5357 H   0  0  0  0  0  0  0  0  0  0  0  0
  147.2662  133.9735  150.9027 H   0  0  0  0  0  0  0  0  0  0  0  0
  145.8954  133.7116  151.9554 H   0  0  0  0  0  0  0  0  0  0  0  0
  145.8449  131.7849  153.4965 H   0  0  0  0  0  0  0  0  0  0  0  0
  146.1408  130.6797  152.1804 H   0  0  0  0  0  0  0  0  0  0  0  0
  146.9186  129.6312  154.2924 H   0  0  0  0  0  0  0  0  0  0  0  0
  148.2333  129.8664  153.1977 H   0  0  0  0  0  0  0  0  0  0  0  0
  146.6141  132.3645  155.3757 H   0  0  0  0  0  0  0  0  0  0  0  0
  146.2361  131.1842  157.5938 H   0  0  0  0  0  0  0  0  0  0  0  0
  147.5455  130.0845  157.1927 H   0  0  0  0  0  0  0  0  0  0  0  0
  146.0649  130.1240  156.2327 H   0  0  0  0  0  0  0  0  0  0  0  0
  149.2431  132.5048  156.8589 H   0  0  0  0  0  0  0  0  0  0  0  0
  148.2713  133.8260  156.2568 H   0  0  0  0  0  0  0  0  0  0  0  0
  146.8203  132.4583  158.2691 H   0  0  0  0  0  0  0  0  0  0  0  0
  147.6464  137.0481  163.7094 H   0  0  0  0  0  0  0  0  0  0  0  0
  149.8171  132.6350  154.6981 H   0  0  0  0  0  0  0  0  0  0  0  0
  149.7700  131.5039  153.4006 H   0  0  0  0  0  0  0  0  0  0  0  0
  148.9848  133.7271  152.6545 H   0  0  0  0  0  0  0  0  0  0  0  0
  147.6783  133.7218  153.8135 H   0  0  0  0  0  0  0  0  0  0  0  0
  148.0905  131.8135  151.6246 H   0  0  0  0  0  0  0  0  0  0  0  0
  1  2  1  0  0  0  0
  1 21  1  0  0  0  0
  1 22  1  0  0  0  0
  1 23  1  0  0  0  0
  2  3  1  0  0  0  0
  2 24  1  0  0  0  0
  2 25  1  0  0  0  0
  3 20  1  0  0  0  0
  3  4  1  0  0  0  0
  3 42  1  0  0  0  0
  4  5  1  0  0  0  0
  4 26  1  0  0  0  0
  4 27  1  0  0  0  0
  5  6  1  0  0  0  0
  5 28  1  0  0  0  0
  5 29  1  0  0  0  0
  6  7  1  0  0  0  0
  6 19  1  0  0  0  0
  7  8  1  0  0  0  0
  7  9  1  0  0  0  0
  7 30  1  0  0  0  0
  8 31  1  0  0  0  0
  8 32  1  0  0  0  0
  8 33  1  0  0  0  0
  9 10  1  0  0  0  0
  9 34  1  0  0  0  0
  9 35  1  0  0  0  0
 10 11  1  0  0  0  0
 10 36  1  0  0  0  0
 11 12  2  0  0  0  0
 11 13  1  0  0  0  0
 13 14  1  0  0  0  0
 14 18  1  0  0  0  0
 14 15  2  0  0  0  0
 15 16  1  0  0  0  0
 16 17  2  0  0  0  0
 17 18  1  0  0  0  0
 17 37  1  0  0  0  0
 19 20  1  0  0  0  0
 19 38  1  0  0  0  0
 19 39  1  0  0  0  0
 20 40  1  0  0  0  0
 20 41  1  0  0  0  0
M  CHG  1   3   1
M  CHG  1  13  -1
M  END
> <s_m_source_file>
AV-unprocessed.smi

> <i_m_source_file_index>
1817

> <i_lp_mmshare_version>
43012

> <i_f3d_flags>
0

> <s_epik_input>
W0NIM11bQ0gyXU4xW0NIMl1bQ0gyXU4oW0NIMl1bQ0gyXTEpW0NASF0oW0NIM10pW0NIMl1bTkhdQyg9TylbTkhdYzJubltjSF1zMg==

> <s_epik_cmdline>
J2VwaWtfcHl0aG9uJywgJy1waCcsICc3LjAnLCAnLXRuJywgJzgnLCAnLW1hJywgJzIwMCcsICctbWV0YWxfYmluZGluZycsICctaW1hZScsICc8aW5maWxlLm1hZT4nLCAnLW9tYWUnLCAnPG91dGZpbGUubWFlPic=

> <r_lp_tautomer_probability>
1

> <r_epik_Ionization_Penalty>
3.58527

> <r_epik_Ionization_Penalty_Charging>
3.54445

> <r_epik_Ionization_Penalty_Neutral>
0.0408199

> <r_epik_State_Penalty>
3.6633

> <r_epik_Charging_Adjusted_Penalty>
7.20774

> <i_epik_Tot_Q>
0

> <i_epik_Tot_abs_Q>
2

> <r_epik_Metal_State_Penalty>
0.683711

> <b_epik_Metal_Only>
1

> <s_lp_Force_Field>
OPLS_2005

> <r_lp_Energy>
13.2913

> <b_lp_Chiralities_Consistent>
1

> <s_lp_Variant>
AV-unprocessed.smi:1817-8

> <Gold.Version>
5.8.1

> <Gold.Id.Protein>
6NUR|6NUR_protein|mol2

> <Gold.PLP.Fitness>
42.9302

> <Gold.PLP.PLP>
-33.2079

> <Gold.PLP.part.hbond>
-4.0000

> <Gold.PLP.part.metal>
0.0000

> <Gold.PLP.part.buried>
-4.4930

> <Gold.PLP.part.nonpolar>
-24.1423

> <Gold.PLP.part.repulsive>
0.0602

> <Gold.PLP.ligand.clash>
0.0000

> <Gold.PLP.ligand.torsion>
0.8342

> <Gold.PLP.Chemscore.Hbond>
3.7440

> <Gold.PLP.Chemscore.CHOScore>
0.0000

> <Gold.PLP.Chemscore.Metal>
0.0000

> <Gold.Chemscore.Hbonds>
donor molecule, donor type, donor heavy atom, donor atom, acceptor molecule, acceptor atom, score
      L1  H     3    42       P1 10747  1.00
      P1  H  6896  6909       L1    12  1.00
      P1  H  6931  6943       L1    16  0.89
      P1  H  6934  6947       L1    16  0.80

> <Gold.PLP.Chemscore.Internal.Correction>
0.1587

> <Gold.Rescore>
     Score         DG    S(hbond)    S(metal)    S(lipo)     H(rot)  DE(clash)    DE(int)     intcor
     16.40     -18.39       2.97        0.00      66.87       1.88       0.03       1.96       ----

> <Gold.Chemscore.Fitness>
16.4034

> <Gold.Chemscore.DG>
-18.3889

> <Gold.Chemscore.ZeroCoef>
-5.4800

> <Gold.Chemscore.Hbond>
2.9653

> <Gold.Chemscore.Metal>
0.0000

> <Gold.Chemscore.Lipo>
66.8719

> <Gold.Chemscore.Internal_Hbond>
0.0000

> <Gold.Chemscore.DEClash>
0.0274

> <Gold.Chemscore.DEInternal>
1.9581

> <Gold.Chemscore.Rot>
1.8825

> <Gold.Chemscore.Internal.Correction>
   9.000000E+99

> <Gold.Chemscore.Hbonds>
donor molecule, donor type, donor heavy atom, donor atom, acceptor molecule, acceptor atom, score
      L1  H     3    42       P1 10747  1.00
      P1  H  6896  6909       L1    12  0.98
      P1  H  6931  6943       L1    16  0.17
      P1  H  6934  6947       L1    16  0.53

> <Gold.Chemscore.Hbond.Weighted>
-9.9040

> <Gold.Chemscore.Metal.Weighted>
-0.0000

> <Gold.Chemscore.Lipo.Weighted>
-7.8240

> <Gold.Chemscore.Internal_Hbond.Weighted>
0.0000

> <Gold.Chemscore.DEClash.Weighted>
0.0274

> <Gold.Chemscore.DEInternal.Weighted>
1.9581

> <Gold.Chemscore.Rot.Weighted>
4.8191

> <Gold.Chemscore.Internal.Correction.Weighted>
   9.000000E+99

> <Gold.Protein.RotatedTorsions>
[ 6907 6896 6895 6894 ] final   36.29 input  -60.11 | X-H torsion
[ 7974 7965 7964 7962 ] final   93.74 input  175.53 | X-H torsion
[ 8008 7997 7996 7995 ] final -174.60 input   59.86 | X-H torsion
[ 10167 10162 10161 10158 ] final   -7.44 input  -65.29 | X-H torsion
[ 10718 10713 10712 10709 ] final -133.16 input   66.30 | X-H torsion
[ 10763 10752 10751 10750 ] final  -15.38 input  -60.55 | X-H torsion
[ 11005 11000 10999 10996 ] final -114.33 input  -57.11 | X-H torsion

> <Gold.Protein.ActiveResidues>
 VAL166  LYS551  ARG553  GLY616  TRP617  ASP618  TYR619  PRO620  LYS621  CYS622 
 ASP623  PHE694  ASN695  SER759  ASP760  ASP761  ALA762  ILE779  LEU786  VAL792 
 PHE793  MET794  SER795  GLU796  ALA797  LYS798  CYS799  TRP800  GLU811  SER814 

> <Gold.Protein.RotatedAtoms>
  152.1277  134.9158  160.0559 H   0  0  0  0  0  0  0  0  0  0  0  0  # atno 6907 bound_to 6896
  152.0274  133.3918  159.4291 H   0  0  0  0  0  0  0  0  0  0  0  0  # atno 6908 bound_to 6896
  150.6854  134.3480  159.4940 H   0  0  0  0  0  0  0  0  0  0  0  0  # atno 6909 bound_to 6896
  145.4749  139.2280  143.2915 H   0  0  0  0  0  0  0  0  0  0  0  0  # atno 7974 bound_to 7965
  155.9721  140.1165  157.0802 H   0  0  0  0  0  0  0  0  0  0  0  0  # atno 8008 bound_to 7997
  154.4159  140.1161  156.5388 H   0  0  0  0  0  0  0  0  0  0  0  0  # atno 8009 bound_to 7997
  155.6582  140.3473  155.4775 H   0  0  0  0  0  0  0  0  0  0  0  0  # atno 8010 bound_to 7997
  140.7029  143.6081  150.8731 H   0  0  0  0  0  0  0  0  0  0  0  0  # atno 10167 bound_to 10162
  156.2420  130.7101  151.0966 H   0  0  0  0  0  0  0  0  0  0  0  0  # atno 10718 bound_to 10713
  153.5425  135.7013  153.5630 H   0  0  0  0  0  0  0  0  0  0  0  0  # atno 10763 bound_to 10752
  153.3589  135.3975  155.1703 H   0  0  0  0  0  0  0  0  0  0  0  0  # atno 10764 bound_to 10752
  154.8672  135.3784  154.4930 H   0  0  0  0  0  0  0  0  0  0  0  0  # atno 10765 bound_to 10752
  141.0558  133.9614  157.2755 H   0  0  0  0  0  0  0  0  0  0  0  0  # atno 11005 bound_to 11000
  146.2375  140.5530  142.8948 LP  0  0  0  0  0  0  0  0  0  0  0  0  # atno 17320 bound_to 7965
  144.7923  140.6056  143.6533 LP  0  0  0  0  0  0  0  0  0  0  0  0  # atno 17321 bound_to 7965
  139.9804  143.5957  152.2944 LP  0  0  0  0  0  0  0  0  0  0  0  0  # atno 17342 bound_to 10162
  139.6576  144.7662  151.2025 LP  0  0  0  0  0  0  0  0  0  0  0  0  # atno 17343 bound_to 10162
  157.7179  131.0699  150.6254 LP  0  0  0  0  0  0  0  0  0  0  0  0  # atno 17370 bound_to 10713
  156.6328  130.4436  149.5780 LP  0  0  0  0  0  0  0  0  0  0  0  0  # atno 17371 bound_to 10713
  139.9389  135.0193  156.8646 LP  0  0  0  0  0  0  0  0  0  0  0  0  # atno 17394 bound_to 11000
  140.5966  134.0211  155.7520 LP  0  0  0  0  0  0  0  0  0  0  0  0  # atno 17395 bound_to 11000

$$$$
