AV-unprocessed.smi:2413|AV-procd|sdf|9537|dock8
  -GOLD-   2272013173D 1   1.00000     0.00000
 Structure written by MMmdl.
 46 47  0  0  0  0  0  0  0  0  2 V2000
  152.1855  144.7494  158.4087 C   0  0  0  0  0  0  0  0  0  0  0  0
  152.1819  143.3626  159.0438 C   0  0  0  0  0  0  0  0  0  0  0  0
  152.6067  143.2119  160.1887 O   0  0  0  0  0  0  0  0  0  0  0  0
  151.6969  142.3605  158.2952 N   0  0  0  0  0  0  0  0  0  0  0  0
  151.5992  140.9668  158.7172 C   0  0  0  0  0  0  0  0  0  0  0  0
  151.2972  140.0130  157.5463 C   0  0  1  0  0  0  0  0  0  0  0  0
  150.0369  140.4107  156.7480 C   0  0  0  0  0  0  0  0  0  0  0  0
  149.8716  139.5257  155.6027 N   0  0  0  0  0  0  0  0  0  0  0  0
  148.6792  139.7381  154.9006 C   0  0  0  0  0  0  0  0  0  0  0  0
  148.3437  139.0085  153.7441 C   0  0  0  0  0  0  0  0  0  0  0  0
  147.1138  139.3185  153.1368 C   0  0  0  0  0  0  0  0  0  0  0  0
  146.3117  140.2766  153.6617 N   0  3  0  0  0  0  0  0  0  0  0  0
  146.6872  140.9392  154.7707 C   0  0  0  0  0  0  0  0  0  0  0  0
  145.7517  142.0231  155.3281 C   0  0  0  0  0  0  0  0  0  0  0  0
  144.3267  141.4797  155.5921 C   0  0  0  0  0  0  0  0  0  0  0  0
  145.6233  143.1727  154.3083 C   0  0  0  0  0  0  0  0  0  0  0  0
  146.3043  142.5472  156.6684 C   0  0  0  0  0  0  0  0  0  0  0  0
  147.8529  140.6852  155.3864 N   0  0  0  0  0  0  0  0  0  0  0  0
  151.0527  139.4821  154.7512 C   0  0  0  0  0  0  0  0  0  0  0  0
  152.2874  139.1121  155.5893 C   0  0  0  0  0  0  0  0  0  0  0  0
  152.4213  140.0328  156.6684 O   0  0  0  0  0  0  0  0  0  0  0  0
  151.9170  144.7077  157.3523 H   0  0  0  0  0  0  0  0  0  0  0  0
  153.1757  145.1980  158.4901 H   0  0  0  0  0  0  0  0  0  0  0  0
  151.4720  145.3974  158.9181 H   0  0  0  0  0  0  0  0  0  0  0  0
  151.3768  142.5782  157.3626 H   0  0  0  0  0  0  0  0  0  0  0  0
  152.5440  140.6896  159.1855 H   0  0  0  0  0  0  0  0  0  0  0  0
  150.8338  140.8689  159.4889 H   0  0  0  0  0  0  0  0  0  0  0  0
  151.1771  139.0004  157.9360 H   0  0  0  0  0  0  0  0  0  0  0  0
  149.1513  140.3493  157.3819 H   0  0  0  0  0  0  0  0  0  0  0  0
  150.1204  141.4441  156.4082 H   0  0  0  0  0  0  0  0  0  0  0  0
  148.9938  138.2469  153.3384 H   0  0  0  0  0  0  0  0  0  0  0  0
  146.7438  138.8304  152.2469 H   0  0  0  0  0  0  0  0  0  0  0  0
  143.6725  142.2588  155.9856 H   0  0  0  0  0  0  0  0  0  0  0  0
  144.3322  140.6688  156.3219 H   0  0  0  0  0  0  0  0  0  0  0  0
  143.8629  141.1026  154.6795 H   0  0  0  0  0  0  0  0  0  0  0  0
  145.2338  142.8140  153.3548 H   0  0  0  0  0  0  0  0  0  0  0  0
  146.5842  143.6493  154.1122 H   0  0  0  0  0  0  0  0  0  0  0  0
  144.9470  143.9491  154.6678 H   0  0  0  0  0  0  0  0  0  0  0  0
  145.6481  143.3043  157.0995 H   0  0  0  0  0  0  0  0  0  0  0  0
  147.2876  143.0034  156.5492 H   0  0  0  0  0  0  0  0  0  0  0  0
  146.4013  141.7425  157.3981 H   0  0  0  0  0  0  0  0  0  0  0  0
  150.9082  138.7523  153.9536 H   0  0  0  0  0  0  0  0  0  0  0  0
  151.2059  140.4529  154.2783 H   0  0  0  0  0  0  0  0  0  0  0  0
  152.2082  138.0935  155.9730 H   0  0  0  0  0  0  0  0  0  0  0  0
  153.1860  139.1524  154.9735 H   0  0  0  0  0  0  0  0  0  0  0  0
  145.4222  140.4896  153.2092 H   0  0  0  0  0  0  0  0  0  0  0  0
  1  2  1  0  0  0  0
  1 22  1  0  0  0  0
  1 23  1  0  0  0  0
  1 24  1  0  0  0  0
  2  3  2  0  0  0  0
  2  4  1  0  0  0  0
  4  5  1  0  0  0  0
  4 25  1  0  0  0  0
  5  6  1  0  0  0  0
  5 26  1  0  0  0  0
  5 27  1  0  0  0  0
  6 21  1  0  0  0  0
  6  7  1  0  0  0  0
  6 28  1  0  0  0  0
  7  8  1  0  0  0  0
  7 29  1  0  0  0  0
  7 30  1  0  0  0  0
  8  9  1  0  0  0  0
  8 19  1  0  0  0  0
  9 18  1  0  0  0  0
  9 10  2  0  0  0  0
 10 11  1  0  0  0  0
 10 31  1  0  0  0  0
 11 12  2  0  0  0  0
 11 32  1  0  0  0  0
 12 13  1  0  0  0  0
 12 46  1  0  0  0  0
 13 14  1  0  0  0  0
 13 18  2  0  0  0  0
 14 15  1  0  0  0  0
 14 16  1  0  0  0  0
 14 17  1  0  0  0  0
 15 33  1  0  0  0  0
 15 34  1  0  0  0  0
 15 35  1  0  0  0  0
 16 36  1  0  0  0  0
 16 37  1  0  0  0  0
 16 38  1  0  0  0  0
 17 39  1  0  0  0  0
 17 40  1  0  0  0  0
 17 41  1  0  0  0  0
 19 20  1  0  0  0  0
 19 42  1  0  0  0  0
 19 43  1  0  0  0  0
 20 21  1  0  0  0  0
 20 44  1  0  0  0  0
 20 45  1  0  0  0  0
M  CHG  1  12   1
M  END
> <s_m_source_file>
AV-unprocessed.smi

> <i_m_source_file_index>
2413

> <i_lp_mmshare_version>
43012

> <i_f3d_flags>
0

> <s_epik_input>
W0NIM11DKD1PKVtOSF1bQ0gyXVtDQEBIXTFbQ0gyXU4oW0NIMl1bQ0gyXU8xKWMyW2NIXVtjSF1uYyhuMilDKFtDSDNdKShbQ0gzXSlbQ0gzXQ==

> <s_epik_cmdline>
J2VwaWtfcHl0aG9uJywgJy1waCcsICc3LjAnLCAnLXRuJywgJzgnLCAnLW1hJywgJzIwMCcsICctbWV0YWxfYmluZGluZycsICctaW1hZScsICc8aW5maWxlLm1hZT4nLCAnLW9tYWUnLCAnPG91dGZpbGUubWFlPic=

> <r_lp_tautomer_probability>
0.999336

> <r_epik_Ionization_Penalty>
2.26127

> <r_epik_Ionization_Penalty_Charging>
2.26127

> <r_epik_Ionization_Penalty_Neutral>
4.08984e-07

> <r_epik_State_Penalty>
2.40914

> <r_epik_Charging_Adjusted_Penalty>
4.67041

> <i_epik_Tot_Q>
1

> <i_epik_Tot_abs_Q>
1

> <r_epik_Metal_State_Penalty>
2.42208

> <b_epik_Metal_Only>
0

> <s_lp_Force_Field>
OPLS_2005

> <r_lp_Energy>
19.627

> <b_lp_Chiralities_Consistent>
1

> <s_lp_Variant>
AV-unprocessed.smi:2413-4

> <Gold.Version>
5.8.1

> <Gold.Id.Protein>
6NUR|6NUR_protein|mol2

> <Gold.PLP.Fitness>
44.1889

> <Gold.PLP.PLP>
-35.6858

> <Gold.PLP.part.hbond>
-2.0000

> <Gold.PLP.part.metal>
0.0000

> <Gold.PLP.part.buried>
-2.6900

> <Gold.PLP.part.nonpolar>
-30.4745

> <Gold.PLP.part.repulsive>
0.1510

> <Gold.PLP.ligand.clash>
0.0000

> <Gold.PLP.ligand.torsion>
0.3081

> <Gold.PLP.Chemscore.Hbond>
3.0000

> <Gold.PLP.Chemscore.CHOScore>
0.0000

> <Gold.PLP.Chemscore.Metal>
0.0000

> <Gold.Chemscore.Hbonds>
donor molecule, donor type, donor heavy atom, donor atom, acceptor molecule, acceptor atom, score
      L1  H    12    46       P1 10175  2.00
      P1  H  7997  8009       L1    21  0.85

> <Gold.PLP.Chemscore.Internal.Correction>
0.1193

> <Gold.Rescore>
     Score         DG    S(hbond)    S(metal)    S(lipo)     H(rot)  DE(clash)    DE(int)     intcor
     14.99     -15.44       1.82        0.00      71.77       1.77       0.22       0.23       ----

> <Gold.Chemscore.Fitness>
14.9868

> <Gold.Chemscore.DG>
-15.4360

> <Gold.Chemscore.ZeroCoef>
-5.4800

> <Gold.Chemscore.Hbond>
1.8247

> <Gold.Chemscore.Metal>
0.0000

> <Gold.Chemscore.Lipo>
71.7738

> <Gold.Chemscore.Internal_Hbond>
0.0000

> <Gold.Chemscore.DEClash>
0.2211

> <Gold.Chemscore.DEInternal>
0.2281

> <Gold.Chemscore.Rot>
1.7719

> <Gold.Chemscore.Internal.Correction>
   9.000000E+99

> <Gold.Chemscore.Hbonds>
donor molecule, donor type, donor heavy atom, donor atom, acceptor molecule, acceptor atom, score
      L1  H    12    46       P1 10175  0.94
      P1  H  7997  8009       L1    21  0.14

> <Gold.Chemscore.Hbond.Weighted>
-6.0946

> <Gold.Chemscore.Metal.Weighted>
-0.0000

> <Gold.Chemscore.Lipo.Weighted>
-8.3975

> <Gold.Chemscore.Internal_Hbond.Weighted>
0.0000

> <Gold.Chemscore.DEClash.Weighted>
0.2211

> <Gold.Chemscore.DEInternal.Weighted>
0.2281

> <Gold.Chemscore.Rot.Weighted>
4.5361

> <Gold.Chemscore.Internal.Correction.Weighted>
   9.000000E+99

> <Gold.Protein.RotatedTorsions>
[ 6907 6896 6895 6894 ] final -152.92 input  -60.11 | X-H torsion
[ 7974 7965 7964 7962 ] final   74.32 input  175.53 | X-H torsion
[ 8008 7997 7996 7995 ] final  175.94 input   59.86 | X-H torsion
[ 10167 10162 10161 10158 ] final   74.69 input  -65.29 | X-H torsion
[ 10718 10713 10712 10709 ] final -175.88 input   66.30 | X-H torsion
[ 10763 10752 10751 10750 ] final  116.90 input  -60.55 | X-H torsion
[ 11005 11000 10999 10996 ] final -146.92 input  -57.11 | X-H torsion

> <Gold.Protein.ActiveResidues>
 VAL166  LYS551  ARG553  GLY616  TRP617  ASP618  TYR619  PRO620  LYS621  CYS622 
 ASP623  PHE694  ASN695  SER759  ASP760  ASP761  ALA762  ILE779  LEU786  VAL792 
 PHE793  MET794  SER795  GLU796  ALA797  LYS798  CYS799  TRP800  GLU811  SER814 

> <Gold.Protein.RotatedAtoms>
  151.2349  133.4430  159.2604 H   0  0  0  0  0  0  0  0  0  0  0  0  # atno 6907 bound_to 6896
  151.0760  134.9828  159.8342 H   0  0  0  0  0  0  0  0  0  0  0  0  # atno 6908 bound_to 6896
  152.5418  134.2291  159.8871 H   0  0  0  0  0  0  0  0  0  0  0  0  # atno 6909 bound_to 6896
  145.7297  139.2679  143.1548 H   0  0  0  0  0  0  0  0  0  0  0  0  # atno 7974 bound_to 7965
  156.0818  140.1396  156.9703 H   0  0  0  0  0  0  0  0  0  0  0  0  # atno 8008 bound_to 7997
  154.4589  140.0950  156.6886 H   0  0  0  0  0  0  0  0  0  0  0  0  # atno 8009 bound_to 7997
  155.5064  140.3452  155.4382 H   0  0  0  0  0  0  0  0  0  0  0  0  # atno 8010 bound_to 7997
  140.0109  144.5614  150.7659 H   0  0  0  0  0  0  0  0  0  0  0  0  # atno 10167 bound_to 10162
  156.8064  130.9570  151.3117 H   0  0  0  0  0  0  0  0  0  0  0  0  # atno 10718 bound_to 10713
  153.5442  135.3552  155.2732 H   0  0  0  0  0  0  0  0  0  0  0  0  # atno 10763 bound_to 10752
  154.8714  135.4098  154.3009 H   0  0  0  0  0  0  0  0  0  0  0  0  # atno 10764 bound_to 10752
  153.3722  135.7064  153.6697 H   0  0  0  0  0  0  0  0  0  0  0  0  # atno 10765 bound_to 10752
  140.7770  134.3123  157.5057 H   0  0  0  0  0  0  0  0  0  0  0  0  # atno 11005 bound_to 11000
  146.0549  140.8031  142.9763 LP  0  0  0  0  0  0  0  0  0  0  0  0  # atno 17320 bound_to 7965
  144.6896  140.3108  143.7248 LP  0  0  0  0  0  0  0  0  0  0  0  0  # atno 17321 bound_to 7965
  140.7381  143.2774  151.3699 LP  0  0  0  0  0  0  0  0  0  0  0  0  # atno 17342 bound_to 10162
  139.6205  144.0916  152.2387 LP  0  0  0  0  0  0  0  0  0  0  0  0  # atno 17343 bound_to 10162
  157.6528  130.8899  149.9668 LP  0  0  0  0  0  0  0  0  0  0  0  0  # atno 17370 bound_to 10713
  156.1070  130.3652  150.0115 LP  0  0  0  0  0  0  0  0  0  0  0  0  # atno 17371 bound_to 10713
  139.8747  134.9295  156.3479 LP  0  0  0  0  0  0  0  0  0  0  0  0  # atno 17394 bound_to 11000
  140.9519  133.7445  156.0283 LP  0  0  0  0  0  0  0  0  0  0  0  0  # atno 17395 bound_to 11000

$$$$
