AV-unprocessed.smi:40|AV-procd|sdf|378|dock1
  -GOLD-   2262016233D 1   1.00000     0.00000
 Structure written by MMmdl.
 47 48  0  0  0  0  0  0  0  0  1 V2000
  146.9227  133.0176  151.8016 C   0  0  0  0  0  0  0  0  0  0  0  0
  148.3090  133.0794  152.4514 C   0  0  0  0  0  0  0  0  0  0  0  0
  148.3100  133.8796  153.7619 C   0  0  0  0  0  0  0  0  0  0  0  0
  149.7265  134.1384  154.2913 C   0  0  0  0  0  0  0  0  0  0  0  0
  149.7193  134.8636  155.6455 C   0  0  0  0  0  0  0  0  0  0  0  0
  149.6328  136.2698  155.4598 O   0  0  0  0  0  0  0  0  0  0  0  0
  150.3096  137.1169  156.2674 C   0  0  0  0  0  0  0  0  0  0  0  0
  151.0121  136.7626  157.2139 O   0  0  0  0  0  0  0  0  0  0  0  0
  150.1253  138.4911  155.8484 N   0  0  0  0  0  0  0  0  0  0  0  0
  150.6554  139.5905  156.4267 C   0  0  0  0  0  0  0  0  0  0  0  0
  151.6653  139.4129  157.2567 N   0  0  0  0  0  0  0  0  0  0  0  0
  152.2993  140.4343  157.9115 C   0  0  0  0  0  0  0  0  0  0  0  0
  153.2732  140.2055  158.6272 O   0  0  0  0  0  0  0  0  0  0  0  0
  151.8017  141.7482  157.7233 N   0  0  0  0  0  0  0  0  0  0  0  0
  152.5156  142.9012  158.4122 C   0  0  1  0  0  0  0  0  0  0  0  0
  151.8722  144.1069  158.1008 O   0  0  0  0  0  0  0  0  0  0  0  0
  151.1056  144.5820  159.2039 C   0  0  1  0  0  0  0  0  0  0  0  0
  149.6615  144.0463  159.1393 C   0  0  0  0  0  0  0  0  0  0  0  0
  151.9263  144.1143  160.4076 C   0  0  1  0  0  0  0  0  0  0  0  0
  151.1489  143.9873  161.5826 O   0  0  0  0  0  0  0  0  0  0  0  0
  152.4894  142.7723  159.9562 C   0  0  2  0  0  0  0  0  0  0  0  0
  153.7866  142.6043  160.4928 O   0  0  0  0  0  0  0  0  0  0  0  0
  150.7615  141.9532  156.8240 C   0  0  0  0  0  0  0  0  0  0  0  0
  150.1589  140.9318  156.1786 C   0  0  0  0  0  0  0  0  0  0  0  0
  149.1272  141.1678  155.3490 F   0  0  0  0  0  0  0  0  0  0  0  0
  153.5176  142.8988  157.9794 H   0  0  0  0  0  0  0  0  0  0  0  0
  151.0702  145.6713  159.1687 H   0  0  0  0  0  0  0  0  0  0  0  0
  152.7330  144.8290  160.5799 H   0  0  0  0  0  0  0  0  0  0  0  0
  151.8320  141.9551  160.2577 H   0  0  0  0  0  0  0  0  0  0  0  0
  146.9539  132.4448  150.8744 H   0  0  0  0  0  0  0  0  0  0  0  0
  146.5552  134.0161  151.5627 H   0  0  0  0  0  0  0  0  0  0  0  0
  146.1980  132.5420  152.4630 H   0  0  0  0  0  0  0  0  0  0  0  0
  148.6630  132.0656  152.6413 H   0  0  0  0  0  0  0  0  0  0  0  0
  149.0136  133.5262  151.7491 H   0  0  0  0  0  0  0  0  0  0  0  0
  147.8036  134.8328  153.6050 H   0  0  0  0  0  0  0  0  0  0  0  0
  147.7323  133.3434  154.5158 H   0  0  0  0  0  0  0  0  0  0  0  0
  150.2585  133.1916  154.3926 H   0  0  0  0  0  0  0  0  0  0  0  0
  150.2818  134.7282  153.5609 H   0  0  0  0  0  0  0  0  0  0  0  0
  148.9061  134.5027  156.2772 H   0  0  0  0  0  0  0  0  0  0  0  0
  150.6456  134.6492  156.1789 H   0  0  0  0  0  0  0  0  0  0  0  0
  149.4967  138.6173  155.0687 H   0  0  0  0  0  0  0  0  0  0  0  0
  149.0549  144.4551  159.9475 H   0  0  0  0  0  0  0  0  0  0  0  0
  149.6244  142.9600  159.2180 H   0  0  0  0  0  0  0  0  0  0  0  0
  149.1834  144.3322  158.2025 H   0  0  0  0  0  0  0  0  0  0  0  0
  151.7304  143.8071  162.3056 H   0  0  0  0  0  0  0  0  0  0  0  0
  153.7611  142.8402  161.4083 H   0  0  0  0  0  0  0  0  0  0  0  0
  150.3946  142.9463  156.6153 H   0  0  0  0  0  0  0  0  0  0  0  0
  1  2  1  0  0  0  0
  1 30  1  0  0  0  0
  1 31  1  0  0  0  0
  1 32  1  0  0  0  0
  2  3  1  0  0  0  0
  2 33  1  0  0  0  0
  2 34  1  0  0  0  0
  3  4  1  0  0  0  0
  3 35  1  0  0  0  0
  3 36  1  0  0  0  0
  4  5  1  0  0  0  0
  4 37  1  0  0  0  0
  4 38  1  0  0  0  0
  5  6  1  0  0  0  0
  5 39  1  0  0  0  0
  5 40  1  0  0  0  0
  6  7  1  0  0  0  0
  7  8  2  0  0  0  0
  7  9  1  0  0  0  0
  9 10  1  0  0  0  0
  9 41  1  0  0  0  0
 10 24  1  0  0  0  0
 10 11  2  0  0  0  0
 11 12  1  0  0  0  0
 12 13  2  0  0  0  0
 12 14  1  0  0  0  0
 14 15  1  0  0  0  0
 14 23  1  0  0  0  0
 15 26  1  0  0  0  0
 15 21  1  0  0  0  0
 15 16  1  0  0  0  0
 16 17  1  0  0  0  0
 17 27  1  0  0  0  0
 17 18  1  0  0  0  0
 17 19  1  0  0  0  0
 18 42  1  0  0  0  0
 18 43  1  0  0  0  0
 18 44  1  0  0  0  0
 19 28  1  0  0  0  0
 19 20  1  0  0  0  0
 19 21  1  0  0  0  0
 20 45  1  0  0  0  0
 21 29  1  0  0  0  0
 21 22  1  0  0  0  0
 22 46  1  0  0  0  0
 23 24  2  0  0  0  0
 23 47  1  0  0  0  0
 24 25  1  0  0  0  0
M  END
> <s_m_source_file>
AV-unprocessed.smi

> <i_m_source_file_index>
40

> <i_lp_mmshare_version>
43012

> <i_f3d_flags>
0

> <s_epik_input>
W0NIM11bQ0gyXVtDSDJdW0NIMl1bQ0gyXU9DKD1PKVtOSF1jMW5jKD1PKW4oW2NIXWMxRilbQ0BASF0yT1tDQEhdKFtDSDNdKVtDQEBIXShbT0hdKVtDQEhdMltPSF0=

> <s_epik_cmdline>
J2VwaWtfcHl0aG9uJywgJy1waCcsICc3LjAnLCAnLXRuJywgJzgnLCAnLW1hJywgJzIwMCcsICctbWV0YWxfYmluZGluZycsICctaW1hZScsICc8aW5maWxlLm1hZT4nLCAnLW9tYWUnLCAnPG91dGZpbGUubWFlPic=

> <r_lp_tautomer_probability>
1

> <r_epik_Ionization_Penalty>
2.29506e-06

> <r_epik_Ionization_Penalty_Charging>
8.26867e-09

> <r_epik_Ionization_Penalty_Neutral>
2.2868e-06

> <r_epik_State_Penalty>
-0

> <r_epik_Charging_Adjusted_Penalty>
8.26867e-09

> <i_epik_Tot_Q>
0

> <i_epik_Tot_abs_Q>
0

> <r_epik_Metal_State_Penalty>
-0

> <b_epik_Metal_Only>
0

> <s_epik_Chemistry_Notes>
This compound has an ester and may undergo hydrolysis at high or low pH. This compound contains an acetal/aminal-like group ( X-CH(R)-Y where X, Y are N, S, or O) that may be acid/base labile, releasing an aldehyde.

> <s_lp_Force_Field>
OPLS_2005

> <r_lp_Energy>
34.9505

> <b_lp_Chiralities_Consistent>
1

> <s_lp_Variant>
AV-unprocessed.smi:40-12

> <Gold.Version>
5.8.1

> <Gold.Id.Protein>
6NUR|6NUR_protein|mol2

> <Gold.PLP.Fitness>
44.4628

> <Gold.PLP.PLP>
-39.6737

> <Gold.PLP.part.hbond>
-3.3531

> <Gold.PLP.part.metal>
0.0000

> <Gold.PLP.part.buried>
-4.2443

> <Gold.PLP.part.nonpolar>
-31.6815

> <Gold.PLP.part.repulsive>
0.1939

> <Gold.PLP.ligand.clash>
0.0000

> <Gold.PLP.ligand.torsion>
0.5223

> <Gold.PLP.Chemscore.Hbond>
0.8736

> <Gold.PLP.Chemscore.CHOScore>
1.0000

> <Gold.PLP.Chemscore.Metal>
0.0000

> <Gold.Chemscore.Hbonds>
donor molecule, donor type, donor heavy atom, donor atom, acceptor molecule, acceptor atom, score
      P1  H  7997  8008       L1    13  0.77
      L1  C    23    47       P1  8028  1.00

> <Gold.PLP.Chemscore.Internal.Correction>
0.2130

> <Gold.Rescore>
     Score         DG    S(hbond)    S(metal)    S(lipo)     H(rot)  DE(clash)    DE(int)     intcor
      4.14      -7.39       0.76        0.00      75.58       3.70       0.19       3.06       ----

> <Gold.Chemscore.Fitness>
4.1382

> <Gold.Chemscore.DG>
-7.3868

> <Gold.Chemscore.ZeroCoef>
-5.4800

> <Gold.Chemscore.Hbond>
0.7559

> <Gold.Chemscore.Metal>
0.0000

> <Gold.Chemscore.Lipo>
75.5815

> <Gold.Chemscore.Internal_Hbond>
0.0000

> <Gold.Chemscore.DEClash>
0.1901

> <Gold.Chemscore.DEInternal>
3.0585

> <Gold.Chemscore.Rot>
3.6957

> <Gold.Chemscore.Internal.Correction>
   9.000000E+99

> <Gold.Chemscore.Hbonds>
donor molecule, donor type, donor heavy atom, donor atom, acceptor molecule, acceptor atom, score
      P1  H  7997  8008       L1    13  0.14

> <Gold.Chemscore.Hbond.Weighted>
-2.5247

> <Gold.Chemscore.Metal.Weighted>
-0.0000

> <Gold.Chemscore.Lipo.Weighted>
-8.8430

> <Gold.Chemscore.Internal_Hbond.Weighted>
0.0000

> <Gold.Chemscore.DEClash.Weighted>
0.1901

> <Gold.Chemscore.DEInternal.Weighted>
3.0585

> <Gold.Chemscore.Rot.Weighted>
9.4610

> <Gold.Chemscore.Internal.Correction.Weighted>
   9.000000E+99

> <Gold.Protein.RotatedTorsions>
[ 6907 6896 6895 6894 ] final -105.79 input  -60.11 | X-H torsion
[ 7974 7965 7964 7962 ] final    2.65 input  175.53 | X-H torsion
[ 8008 7997 7996 7995 ] final  -94.59 input   59.86 | X-H torsion
[ 10167 10162 10161 10158 ] final   11.66 input  -65.29 | X-H torsion
[ 10718 10713 10712 10709 ] final  -79.24 input   66.30 | X-H torsion
[ 10763 10752 10751 10750 ] final -143.53 input  -60.55 | X-H torsion
[ 11005 11000 10999 10996 ] final -141.94 input  -57.11 | X-H torsion

> <Gold.Protein.ActiveResidues>
 VAL166  LYS551  ARG553  GLY616  TRP617  ASP618  TYR619  PRO620  LYS621  CYS622 
 ASP623  PHE694  ASN695  SER759  ASP760  ASP761  ALA762  ILE779  LEU786  VAL792 
 PHE793  MET794  SER795  GLU796  ALA797  LYS798  CYS799  TRP800  GLU811  SER814 

> <Gold.Protein.RotatedAtoms>
  150.7355  134.0074  159.3657 H   0  0  0  0  0  0  0  0  0  0  0  0  # atno 6907 bound_to 6896
  151.8031  135.0701  160.0412 H   0  0  0  0  0  0  0  0  0  0  0  0  # atno 6908 bound_to 6896
  152.3126  133.5732  159.5727 H   0  0  0  0  0  0  0  0  0  0  0  0  # atno 6909 bound_to 6896
  146.2444  140.0804  142.8357 H   0  0  0  0  0  0  0  0  0  0  0  0  # atno 7974 bound_to 7965
  154.7504  140.0488  157.0888 H   0  0  0  0  0  0  0  0  0  0  0  0  # atno 8008 bound_to 7997
  155.0064  140.3131  155.4827 H   0  0  0  0  0  0  0  0  0  0  0  0  # atno 8009 bound_to 7997
  156.2884  140.2192  156.5176 H   0  0  0  0  0  0  0  0  0  0  0  0  # atno 8010 bound_to 7997
  140.6118  143.8392  150.7073 H   0  0  0  0  0  0  0  0  0  0  0  0  # atno 10167 bound_to 10162
  156.0097  130.4540  150.3618 H   0  0  0  0  0  0  0  0  0  0  0  0  # atno 10718 bound_to 10713
  154.8466  135.3465  154.6203 H   0  0  0  0  0  0  0  0  0  0  0  0  # atno 10763 bound_to 10752
  153.6811  135.6980  153.5122 H   0  0  0  0  0  0  0  0  0  0  0  0  # atno 10764 bound_to 10752
  153.2667  135.4306  155.0904 H   0  0  0  0  0  0  0  0  0  0  0  0  # atno 10765 bound_to 10752
  140.8274  134.2558  157.4872 H   0  0  0  0  0  0  0  0  0  0  0  0  # atno 11005 bound_to 11000
  145.0738  140.9174  143.4866 LP  0  0  0  0  0  0  0  0  0  0  0  0  # atno 17320 bound_to 7965
  145.0943  139.2868  143.5719 LP  0  0  0  0  0  0  0  0  0  0  0  0  # atno 17321 bound_to 7965
  140.1962  143.3996  152.1826 LP  0  0  0  0  0  0  0  0  0  0  0  0  # atno 17342 bound_to 10162
  139.5367  144.7216  151.4870 LP  0  0  0  0  0  0  0  0  0  0  0  0  # atno 17343 bound_to 10162
  157.1706  131.0368  151.2797 LP  0  0  0  0  0  0  0  0  0  0  0  0  # atno 17370 bound_to 10713
  157.4232  130.7449  149.6930 LP  0  0  0  0  0  0  0  0  0  0  0  0  # atno 17371 bound_to 10713
  139.8706  134.9568  156.4249 LP  0  0  0  0  0  0  0  0  0  0  0  0  # atno 17394 bound_to 11000
  140.9034  133.7763  155.9707 LP  0  0  0  0  0  0  0  0  0  0  0  0  # atno 17395 bound_to 11000

$$$$
