AV-unprocessed.smi:699|AV-procd|sdf|3402|dock6
  -GOLD-   22720 0383D 1   1.00000     0.00000
 Structure written by MMmdl.
 34 35  0  0  0  0  0  0  0  0  1 V2000
  148.8029  138.6890  153.2879 N   0  0  0  0  0  0  0  0  0  0  0  0
  149.3484  139.6827  153.9936 C   0  0  0  0  0  0  0  0  0  0  0  0
  150.4321  139.5610  154.5619 O   0  0  0  0  0  0  0  0  0  0  0  0
  148.5607  140.9994  154.0692 C   0  0  1  0  0  0  0  0  0  0  0  0
  147.3082  141.0053  153.1813 C   0  0  0  0  0  0  0  0  0  0  0  0
  146.4019  142.0532  153.8204 C   0  0  0  0  0  0  0  0  0  0  0  0
  146.6178  141.8803  155.3238 C   0  0  0  0  0  0  0  0  0  0  0  0
  148.0450  141.3201  155.4936 C   0  0  2  0  0  0  0  0  0  0  0  0
  148.9317  142.2679  156.1663 N   0  0  0  0  0  0  0  0  0  0  0  0
  149.5858  142.0332  157.3130 C   0  0  0  0  0  0  0  0  0  0  0  0
  149.4938  140.9782  157.9399 O   0  0  0  0  0  0  0  0  0  0  0  0
  150.3221  143.0983  157.6760 N   0  0  0  0  0  0  0  0  0  0  0  0
  151.1599  143.2659  158.8131 C   0  0  0  0  0  0  0  0  0  0  0  0
  151.2002  144.5435  159.4095 C   0  0  0  0  0  0  0  0  0  0  0  0
  152.0301  144.7461  160.5301 C   0  0  0  0  0  0  0  0  0  0  0  0
  152.8022  143.7775  161.0655 N   0  0  0  0  0  0  0  0  0  0  0  0
  152.7725  142.5584  160.4870 C   0  0  0  0  0  0  0  0  0  0  0  0
  151.9784  142.2501  159.3642 C   0  0  0  0  0  0  0  0  0  0  0  0
  149.2845  137.8044  153.2166 H   0  0  0  0  0  0  0  0  0  0  0  0
  147.9113  138.8210  152.8332 H   0  0  0  0  0  0  0  0  0  0  0  0
  149.1992  141.8173  153.7280 H   0  0  0  0  0  0  0  0  0  0  0  0
  147.5380  141.2455  152.1429 H   0  0  0  0  0  0  0  0  0  0  0  0
  146.8090  140.0350  153.1947 H   0  0  0  0  0  0  0  0  0  0  0  0
  146.7243  143.0501  153.5165 H   0  0  0  0  0  0  0  0  0  0  0  0
  145.3570  141.9388  153.5306 H   0  0  0  0  0  0  0  0  0  0  0  0
  146.4500  142.8132  155.8636 H   0  0  0  0  0  0  0  0  0  0  0  0
  145.9006  141.1554  155.7114 H   0  0  0  0  0  0  0  0  0  0  0  0
  147.9893  140.4102  156.0953 H   0  0  0  0  0  0  0  0  0  0  0  0
  149.0580  143.1654  155.7218 H   0  0  0  0  0  0  0  0  0  0  0  0
  150.2392  143.9111  157.0835 H   0  0  0  0  0  0  0  0  0  0  0  0
  150.6040  145.3567  159.0216 H   0  0  0  0  0  0  0  0  0  0  0  0
  152.0756  145.7135  161.0078 H   0  0  0  0  0  0  0  0  0  0  0  0
  153.4067  141.8045  160.9295 H   0  0  0  0  0  0  0  0  0  0  0  0
  152.0248  141.2547  158.9515 H   0  0  0  0  0  0  0  0  0  0  0  0
  1  2  1  0  0  0  0
  1 19  1  0  0  0  0
  1 20  1  0  0  0  0
  2  3  2  0  0  0  0
  2  4  1  0  0  0  0
  4  8  1  0  0  0  0
  4  5  1  0  0  0  0
  4 21  1  0  0  0  0
  5  6  1  0  0  0  0
  5 22  1  0  0  0  0
  5 23  1  0  0  0  0
  6  7  1  0  0  0  0
  6 24  1  0  0  0  0
  6 25  1  0  0  0  0
  7  8  1  0  0  0  0
  7 26  1  0  0  0  0
  7 27  1  0  0  0  0
  8  9  1  0  0  0  0
  8 28  1  0  0  0  0
  9 10  1  0  0  0  0
  9 29  1  0  0  0  0
 10 11  2  0  0  0  0
 10 12  1  0  0  0  0
 12 13  1  0  0  0  0
 12 30  1  0  0  0  0
 13 18  1  0  0  0  0
 13 14  2  0  0  0  0
 14 15  1  0  0  0  0
 14 31  1  0  0  0  0
 15 16  2  0  0  0  0
 15 32  1  0  0  0  0
 16 17  1  0  0  0  0
 17 18  2  0  0  0  0
 17 33  1  0  0  0  0
 18 34  1  0  0  0  0
M  END
> <s_m_source_file>
AV-unprocessed.smi

> <i_m_source_file_index>
699

> <i_lp_mmshare_version>
43012

> <i_f3d_flags>
0

> <s_epik_input>
W05IMl1DKD1PKVtDQEBIXTFbQ0gyXVtDSDJdW0NIMl1bQ0BIXTFbTkhdQyg9TylbTkhdYzJbY0hdW2NIXW5bY0hdW2NIXTI=

> <s_epik_cmdline>
J2VwaWtfcHl0aG9uJywgJy1waCcsICc3LjAnLCAnLXRuJywgJzgnLCAnLW1hJywgJzIwMCcsICctbWV0YWxfYmluZGluZycsICctaW1hZScsICc8aW5maWxlLm1hZT4nLCAnLW9tYWUnLCAnPG91dGZpbGUubWFlPic=

> <r_epik_Ionization_Penalty>
0.113907

> <r_epik_Ionization_Penalty_Charging>
0

> <r_epik_Ionization_Penalty_Neutral>
0.113907

> <r_epik_State_Penalty>
0.103543

> <r_epik_Charging_Adjusted_Penalty>
0.103543

> <i_epik_Tot_Q>
0

> <i_epik_Tot_abs_Q>
0

> <r_epik_Metal_State_Penalty>
0.0867106

> <b_epik_Metal_Only>
0

> <s_lp_Force_Field>
OPLS_2005

> <r_lp_Energy>
21.0397

> <b_lp_Chiralities_Consistent>
1

> <s_lp_Variant>
AV-unprocessed.smi:699-4

> <Gold.Version>
5.8.1

> <Gold.Id.Protein>
6NUR|6NUR_protein|mol2

> <Gold.PLP.Fitness>
44.0262

> <Gold.PLP.PLP>
-35.1375

> <Gold.PLP.part.hbond>
-4.8595

> <Gold.PLP.part.metal>
0.0000

> <Gold.PLP.part.buried>
-1.5245

> <Gold.PLP.part.nonpolar>
-28.9255

> <Gold.PLP.part.repulsive>
0.4019

> <Gold.PLP.ligand.clash>
0.0000

> <Gold.PLP.ligand.torsion>
0.3471

> <Gold.PLP.Chemscore.Hbond>
3.1934

> <Gold.PLP.Chemscore.CHOScore>
0.0000

> <Gold.PLP.Chemscore.Metal>
0.0000

> <Gold.Chemscore.Hbonds>
donor molecule, donor type, donor heavy atom, donor atom, acceptor molecule, acceptor atom, score
      L1  H     1    19       P1  7948  0.51
      L1  H     9    29       P1  8028  1.00
      L1  H    12    30       P1  8028  0.65
      P1  H  7989  7998       L1     3  0.91

> <Gold.PLP.Chemscore.Internal.Correction>
0.0028

> <Gold.Rescore>
     Score         DG    S(hbond)    S(metal)    S(lipo)     H(rot)  DE(clash)    DE(int)     intcor
     20.69     -22.55       3.35        0.00      82.89       1.49       1.19       0.67       ----

> <Gold.Chemscore.Fitness>
20.6872

> <Gold.Chemscore.DG>
-22.5530

> <Gold.Chemscore.ZeroCoef>
-5.4800

> <Gold.Chemscore.Hbond>
3.3493

> <Gold.Chemscore.Metal>
0.0000

> <Gold.Chemscore.Lipo>
82.8947

> <Gold.Chemscore.Internal_Hbond>
0.0000

> <Gold.Chemscore.DEClash>
1.1922

> <Gold.Chemscore.DEInternal>
0.6736

> <Gold.Chemscore.Rot>
1.4892

> <Gold.Chemscore.Internal.Correction>
   9.000000E+99

> <Gold.Chemscore.Hbonds>
donor molecule, donor type, donor heavy atom, donor atom, acceptor molecule, acceptor atom, score
      L1  H     1    19       P1  7948  0.49
      L1  H     9    29       P1  8028  0.93
      L1  H    12    30       P1  8028  0.62
      P1  H  7989  7998       L1     3  0.30

> <Gold.Chemscore.Hbond.Weighted>
-11.1866

> <Gold.Chemscore.Metal.Weighted>
-0.0000

> <Gold.Chemscore.Lipo.Weighted>
-9.6987

> <Gold.Chemscore.Internal_Hbond.Weighted>
0.0000

> <Gold.Chemscore.DEClash.Weighted>
1.1922

> <Gold.Chemscore.DEInternal.Weighted>
0.6736

> <Gold.Chemscore.Rot.Weighted>
3.8123

> <Gold.Chemscore.Internal.Correction.Weighted>
   9.000000E+99

> <Gold.Protein.RotatedTorsions>
[ 6907 6896 6895 6894 ] final  134.69 input  -60.11 | X-H torsion
[ 7974 7965 7964 7962 ] final -178.51 input  175.53 | X-H torsion
[ 8008 7997 7996 7995 ] final   -4.25 input   59.86 | X-H torsion
[ 10167 10162 10161 10158 ] final   10.03 input  -65.29 | X-H torsion
[ 10718 10713 10712 10709 ] final -171.64 input   66.30 | X-H torsion
[ 10763 10752 10751 10750 ] final  139.81 input  -60.55 | X-H torsion
[ 11005 11000 10999 10996 ] final -168.25 input  -57.11 | X-H torsion

> <Gold.Protein.ActiveResidues>
 VAL166  LYS551  ARG553  GLY616  TRP617  ASP618  TYR619  PRO620  LYS621  CYS622 
 ASP623  PHE694  ASN695  SER759  ASP760  ASP761  ALA762  ILE779  LEU786  VAL792 
 PHE793  MET794  SER795  GLU796  ALA797  LYS798  CYS799  TRP800  GLU811  SER814 

> <Gold.Protein.RotatedAtoms>
  152.3086  133.5729  159.5665 H   0  0  0  0  0  0  0  0  0  0  0  0  # atno 6907 bound_to 6896
  150.7312  134.0186  159.3702 H   0  0  0  0  0  0  0  0  0  0  0  0  # atno 6908 bound_to 6896
  151.8081  135.0689  160.0460 H   0  0  0  0  0  0  0  0  0  0  0  0  # atno 6909 bound_to 6896
  144.7131  140.0858  143.6423 H   0  0  0  0  0  0  0  0  0  0  0  0  # atno 7974 bound_to 7965
  154.6163  140.2488  155.7605 H   0  0  0  0  0  0  0  0  0  0  0  0  # atno 8008 bound_to 7997
  156.2400  140.2936  156.0368 H   0  0  0  0  0  0  0  0  0  0  0  0  # atno 8009 bound_to 7997
  155.1970  140.0393  157.2901 H   0  0  0  0  0  0  0  0  0  0  0  0  # atno 8010 bound_to 7997
  140.6219  143.8185  150.7186 H   0  0  0  0  0  0  0  0  0  0  0  0  # atno 10167 bound_to 10162
  156.7439  130.9352  151.3111 H   0  0  0  0  0  0  0  0  0  0  0  0  # atno 10718 bound_to 10713
  153.9122  135.3010  155.3448 H   0  0  0  0  0  0  0  0  0  0  0  0  # atno 10763 bound_to 10752
  154.7617  135.4930  153.9480 H   0  0  0  0  0  0  0  0  0  0  0  0  # atno 10764 bound_to 10752
  153.1186  135.6777  153.9476 H   0  0  0  0  0  0  0  0  0  0  0  0  # atno 10765 bound_to 10752
  140.5441  134.5493  157.5107 H   0  0  0  0  0  0  0  0  0  0  0  0  # atno 11005 bound_to 11000
  145.9663  139.2837  143.1125 LP  0  0  0  0  0  0  0  0  0  0  0  0  # atno 17320 bound_to 7965
  145.9165  140.9144  143.0427 LP  0  0  0  0  0  0  0  0  0  0  0  0  # atno 17321 bound_to 7965
  140.1777  143.4141  152.1955 LP  0  0  0  0  0  0  0  0  0  0  0  0  # atno 17342 bound_to 10162
  139.5446  144.7287  151.4624 LP  0  0  0  0  0  0  0  0  0  0  0  0  # atno 17343 bound_to 10162
  157.6807  130.9137  150.0259 LP  0  0  0  0  0  0  0  0  0  0  0  0  # atno 17370 bound_to 10713
  156.1446  130.3642  149.9529 LP  0  0  0  0  0  0  0  0  0  0  0  0  # atno 17371 bound_to 10713
  139.9489  134.7653  156.0496 LP  0  0  0  0  0  0  0  0  0  0  0  0  # atno 17394 bound_to 11000
  141.1210  133.6613  156.3215 LP  0  0  0  0  0  0  0  0  0  0  0  0  # atno 17395 bound_to 11000

$$$$
