AV-unprocessed.smi:1120|AV-procd|sdf|4824|dock2
  -GOLD-   22720 3383D 1   1.00000     0.00000
 Structure written by MMmdl.
 48 49  0  0  0  0  0  0  0  0  3 V2000
  151.0641  144.3993  160.5674 C   0  0  0  0  0  0  0  0  0  0  0  0
  151.7356  143.4673  159.5495 C   0  0  2  0  0  0  0  0  0  0  0  0
  150.7280  142.9300  158.5065 C   0  0  0  0  0  0  0  0  0  0  0  0
  151.3743  141.9484  157.4968 C   0  0  0  0  0  0  0  0  0  0  0  0
  152.0750  140.7474  158.1753 C   0  0  1  0  0  0  0  0  0  0  0  0
  152.7604  139.9437  157.1735 N   0  5  0  0  0  0  0  0  0  0  0  0
  151.9119  139.2523  155.9783 S   0  0  0  0  0  0  0  0  0  0  0  0
  151.0349  140.2064  155.2783 O   0  0  0  0  0  0  0  0  0  0  0  0
  152.7353  138.3696  155.1359 O   0  0  0  0  0  0  0  0  0  0  0  0
  150.7981  138.1443  156.9471 C   0  0  0  0  0  0  0  0  0  0  0  0
  149.8131  137.4431  156.0138 C   0  0  0  0  0  0  0  0  0  0  0  0
  148.8001  138.0297  155.6328 O   0  0  0  0  0  0  0  0  0  0  0  0
  150.1182  136.1846  155.6590 N   0  0  0  0  0  0  0  0  0  0  0  0
  149.3068  135.3224  154.8043 C   0  0  0  0  0  0  0  0  0  0  0  0
  150.1096  134.1484  154.2106 C   0  0  0  0  0  0  0  0  0  0  0  0
  149.2580  133.1171  153.4900 C   0  0  0  0  0  0  0  0  0  0  0  0
  149.2534  131.7565  153.8663 C   0  0  0  0  0  0  0  0  0  0  0  0
  148.4599  130.8433  153.1407 C   0  0  0  0  0  0  0  0  0  0  0  0
  147.6867  131.3090  152.0571 C   0  0  0  0  0  0  0  0  0  0  0  0
  147.7283  132.6780  151.7250 C   0  0  0  0  0  0  0  0  0  0  0  0
  148.5029  133.5204  152.4423 N   0  3  0  0  0  0  0  0  0  0  0  0
  153.0769  141.2854  159.2271 C   0  0  0  0  0  0  0  0  0  0  0  0
  152.4338  142.2700  160.2361 C   0  0  0  0  0  0  0  0  0  0  0  0
  150.2910  143.8778  161.1324 H   0  0  0  0  0  0  0  0  0  0  0  0
  150.5974  145.2506  160.0710 H   0  0  0  0  0  0  0  0  0  0  0  0
  151.7912  144.7901  161.2795 H   0  0  0  0  0  0  0  0  0  0  0  0
  152.4956  144.0438  159.0198 H   0  0  0  0  0  0  0  0  0  0  0  0
  149.8939  142.4441  159.0172 H   0  0  0  0  0  0  0  0  0  0  0  0
  150.2920  143.7664  157.9593 H   0  0  0  0  0  0  0  0  0  0  0  0
  150.6110  141.5871  156.8066 H   0  0  0  0  0  0  0  0  0  0  0  0
  152.0961  142.4979  156.8902 H   0  0  0  0  0  0  0  0  0  0  0  0
  151.3099  140.1694  158.6955 H   0  0  0  0  0  0  0  0  0  0  0  0
  151.4105  137.4127  157.4745 H   0  0  0  0  0  0  0  0  0  0  0  0
  150.2692  138.7412  157.6902 H   0  0  0  0  0  0  0  0  0  0  0  0
  150.9712  135.7869  156.0263 H   0  0  0  0  0  0  0  0  0  0  0  0
  148.4387  134.9454  155.3474 H   0  0  0  0  0  0  0  0  0  0  0  0
  148.9116  135.9348  153.9939 H   0  0  0  0  0  0  0  0  0  0  0  0
  150.8533  134.5341  153.5124 H   0  0  0  0  0  0  0  0  0  0  0  0
  150.6707  133.6513  155.0031 H   0  0  0  0  0  0  0  0  0  0  0  0
  149.8576  131.4141  154.6939 H   0  0  0  0  0  0  0  0  0  0  0  0
  148.4481  129.7973  153.4097 H   0  0  0  0  0  0  0  0  0  0  0  0
  147.0771  130.6262  151.4836 H   0  0  0  0  0  0  0  0  0  0  0  0
  147.1825  133.1211  150.9044 H   0  0  0  0  0  0  0  0  0  0  0  0
  153.5235  140.4561  159.7762 H   0  0  0  0  0  0  0  0  0  0  0  0
  153.9004  141.7919  158.7211 H   0  0  0  0  0  0  0  0  0  0  0  0
  153.2058  142.6399  160.9115 H   0  0  0  0  0  0  0  0  0  0  0  0
  151.7178  141.7401  160.8679 H   0  0  0  0  0  0  0  0  0  0  0  0
  148.5310  134.5036  152.1682 H   0  0  0  0  0  0  0  0  0  0  0  0
  1  2  1  0  0  0  0
  1 24  1  0  0  0  0
  1 25  1  0  0  0  0
  1 26  1  0  0  0  0
  2 23  1  0  0  0  0
  2  3  1  0  0  0  0
  2 27  1  0  0  0  0
  3  4  1  0  0  0  0
  3 28  1  0  0  0  0
  3 29  1  0  0  0  0
  4  5  1  0  0  0  0
  4 30  1  0  0  0  0
  4 31  1  0  0  0  0
  5  6  1  0  0  0  0
  5 22  1  0  0  0  0
  5 32  1  0  0  0  0
  6  7  1  0  0  0  0
  7  8  2  0  0  0  0
  7  9  2  0  0  0  0
  7 10  1  0  0  0  0
 10 11  1  0  0  0  0
 10 33  1  0  0  0  0
 10 34  1  0  0  0  0
 11 12  2  0  0  0  0
 11 13  1  0  0  0  0
 13 14  1  0  0  0  0
 13 35  1  0  0  0  0
 14 15  1  0  0  0  0
 14 36  1  0  0  0  0
 14 37  1  0  0  0  0
 15 16  1  0  0  0  0
 15 38  1  0  0  0  0
 15 39  1  0  0  0  0
 16 21  1  0  0  0  0
 16 17  2  0  0  0  0
 17 18  1  0  0  0  0
 17 40  1  0  0  0  0
 18 19  2  0  0  0  0
 18 41  1  0  0  0  0
 19 20  1  0  0  0  0
 19 42  1  0  0  0  0
 20 21  2  0  0  0  0
 20 43  1  0  0  0  0
 21 48  1  0  0  0  0
 22 23  1  0  0  0  0
 22 44  1  0  0  0  0
 22 45  1  0  0  0  0
 23 46  1  0  0  0  0
 23 47  1  0  0  0  0
M  CHG  1   6  -1
M  CHG  1  21   1
M  END
> <s_m_source_file>
AV-unprocessed.smi

> <i_m_source_file_index>
1120

> <i_lp_mmshare_version>
43012

> <i_f3d_flags>
0

> <s_epik_input>
W0NIM11bQ0BASF0xW0NIMl1bQ0gyXVtDQEhdKFtDSDJdW0NIMl0xKVtOSF1TKD1PKSg9TylbQ0gyXUMoPU8pW05IXVtDSDJdW0NIMl1jMltjSF1bY0hdW2NIXVtjSF1uMg==

> <s_epik_cmdline>
J2VwaWtfcHl0aG9uJywgJy1waCcsICc3LjAnLCAnLXRuJywgJzgnLCAnLW1hJywgJzIwMCcsICctbWV0YWxfYmluZGluZycsICctaW1hZScsICc8aW5maWxlLm1hZT4nLCAnLW9tYWUnLCAnPG91dGZpbGUubWFlPic=

> <r_epik_Ionization_Penalty>
7.48373

> <r_epik_Ionization_Penalty_Charging>
7.48373

> <r_epik_Ionization_Penalty_Neutral>
1.58512e-08

> <r_epik_State_Penalty>
7.71683

> <r_epik_Charging_Adjusted_Penalty>
15.2006

> <i_epik_Tot_Q>
0

> <i_epik_Tot_abs_Q>
2

> <r_epik_Metal_State_Penalty>
3.7254

> <b_epik_Metal_Only>
1

> <s_lp_Force_Field>
OPLS_2005

> <r_lp_Energy>
6.08915

> <b_lp_Chiralities_Consistent>
1

> <s_lp_Variant>
AV-unprocessed.smi:1120-7

> <Gold.Version>
5.8.1

> <Gold.Id.Protein>
6NUR|6NUR_protein|mol2

> <Gold.PLP.Fitness>
53.1809

> <Gold.PLP.PLP>
-39.0547

> <Gold.PLP.part.hbond>
-3.0000

> <Gold.PLP.part.metal>
0.0000

> <Gold.PLP.part.buried>
-3.6319

> <Gold.PLP.part.nonpolar>
-31.2719

> <Gold.PLP.part.repulsive>
0.1068

> <Gold.PLP.ligand.clash>
0.0000

> <Gold.PLP.ligand.torsion>
1.0050

> <Gold.PLP.Chemscore.Hbond>
5.0000

> <Gold.PLP.Chemscore.CHOScore>
0.0000

> <Gold.PLP.Chemscore.Metal>
0.0000

> <Gold.Chemscore.Hbonds>
donor molecule, donor type, donor heavy atom, donor atom, acceptor molecule, acceptor atom, score
      L1  H    21    48       P1  7948  0.80
      P1  H  7989  7998       L1     8  1.00
      P1  H  7997  8010       L1     6  2.00

> <Gold.PLP.Chemscore.Internal.Correction>
1.1362

> <Gold.Rescore>
     Score         DG    S(hbond)    S(metal)    S(lipo)     H(rot)  DE(clash)    DE(int)     intcor
     19.18     -21.57       2.68        0.00     104.50       1.98       0.05       2.34       ----

> <Gold.Chemscore.Fitness>
19.1756

> <Gold.Chemscore.DG>
-21.5689

> <Gold.Chemscore.ZeroCoef>
-5.4800

> <Gold.Chemscore.Hbond>
2.6764

> <Gold.Chemscore.Metal>
0.0000

> <Gold.Chemscore.Lipo>
104.5001

> <Gold.Chemscore.Internal_Hbond>
0.0000

> <Gold.Chemscore.DEClash>
0.0509

> <Gold.Chemscore.DEInternal>
2.3424

> <Gold.Chemscore.Rot>
1.9832

> <Gold.Chemscore.Internal.Correction>
   9.000000E+99

> <Gold.Chemscore.Hbonds>
donor molecule, donor type, donor heavy atom, donor atom, acceptor molecule, acceptor atom, score
      L1  H    21    48       P1  7948  0.01
      P1  H  7989  7998       L1     8  0.90
      P1  H  7997  8010       L1     6  0.49

> <Gold.Chemscore.Hbond.Weighted>
-8.9393

> <Gold.Chemscore.Metal.Weighted>
-0.0000

> <Gold.Chemscore.Lipo.Weighted>
-12.2265

> <Gold.Chemscore.Internal_Hbond.Weighted>
0.0000

> <Gold.Chemscore.DEClash.Weighted>
0.0509

> <Gold.Chemscore.DEInternal.Weighted>
2.3424

> <Gold.Chemscore.Rot.Weighted>
5.0769

> <Gold.Chemscore.Internal.Correction.Weighted>
   9.000000E+99

> <Gold.Protein.RotatedTorsions>
[ 6907 6896 6895 6894 ] final -158.61 input  -60.11 | X-H torsion
[ 7974 7965 7964 7962 ] final  -35.48 input  175.53 | X-H torsion
[ 8008 7997 7996 7995 ] final   66.98 input   59.86 | X-H torsion
[ 10167 10162 10161 10158 ] final -126.88 input  -65.29 | X-H torsion
[ 10718 10713 10712 10709 ] final  -51.13 input   66.30 | X-H torsion
[ 10763 10752 10751 10750 ] final -140.83 input  -60.55 | X-H torsion
[ 11005 11000 10999 10996 ] final   92.09 input  -57.11 | X-H torsion

> <Gold.Protein.ActiveResidues>
 VAL166  LYS551  ARG553  GLY616  TRP617  ASP618  TYR619  PRO620  LYS621  CYS622 
 ASP623  PHE694  ASN695  SER759  ASP760  ASP761  ALA762  ILE779  LEU786  VAL792 
 PHE793  MET794  SER795  GLU796  ALA797  LYS798  CYS799  TRP800  GLU811  SER814 

> <Gold.Protein.RotatedAtoms>
  151.3208  133.4041  159.2654 H   0  0  0  0  0  0  0  0  0  0  0  0  # atno 6907 bound_to 6896
  151.0036  134.9342  159.7978 H   0  0  0  0  0  0  0  0  0  0  0  0  # atno 6908 bound_to 6896
  152.5282  134.3173  159.9188 H   0  0  0  0  0  0  0  0  0  0  0  0  # atno 6909 bound_to 6896
  146.0743  140.6164  142.8938 H   0  0  0  0  0  0  0  0  0  0  0  0  # atno 7974 bound_to 7965
  155.6859  140.3496  155.4874 H   0  0  0  0  0  0  0  0  0  0  0  0  # atno 8008 bound_to 7997
  155.9567  140.1129  157.0953 H   0  0  0  0  0  0  0  0  0  0  0  0  # atno 8009 bound_to 7997
  154.4134  140.1183  156.5110 H   0  0  0  0  0  0  0  0  0  0  0  0  # atno 8010 bound_to 7997
  139.9668  143.5889  152.2426 H   0  0  0  0  0  0  0  0  0  0  0  0  # atno 10167 bound_to 10162
  156.1738  130.4149  149.9607 H   0  0  0  0  0  0  0  0  0  0  0  0  # atno 10718 bound_to 10713
  154.8566  135.3542  154.5770 H   0  0  0  0  0  0  0  0  0  0  0  0  # atno 10763 bound_to 10752
  153.6381  135.6999  153.5256 H   0  0  0  0  0  0  0  0  0  0  0  0  # atno 10764 bound_to 10752
  153.2993  135.4211  155.1197 H   0  0  0  0  0  0  0  0  0  0  0  0  # atno 10765 bound_to 10752
  139.8828  134.8712  156.3522 H   0  0  0  0  0  0  0  0  0  0  0  0  # atno 11005 bound_to 11000
  144.7251  140.4500  143.6979 LP  0  0  0  0  0  0  0  0  0  0  0  0  # atno 17320 bound_to 7965
  145.6335  139.1539  143.2956 LP  0  0  0  0  0  0  0  0  0  0  0  0  # atno 17321 bound_to 7965
  139.6512  144.7660  151.2145 LP  0  0  0  0  0  0  0  0  0  0  0  0  # atno 17342 bound_to 10162
  140.7535  143.6158  150.8561 LP  0  0  0  0  0  0  0  0  0  0  0  0  # atno 17343 bound_to 10162
  156.7399  130.9075  151.3631 LP  0  0  0  0  0  0  0  0  0  0  0  0  # atno 17370 bound_to 10713
  157.6821  130.9150  150.0294 LP  0  0  0  0  0  0  0  0  0  0  0  0  # atno 17371 bound_to 10713
  140.9587  133.7403  156.0370 LP  0  0  0  0  0  0  0  0  0  0  0  0  # atno 17394 bound_to 11000
  140.8017  134.3501  157.5437 LP  0  0  0  0  0  0  0  0  0  0  0  0  # atno 17395 bound_to 11000

$$$$
