AV-unprocessed.smi:1550|AV-procd|sdf|6227|dock4
  -GOLD-   22720 6403D 1   1.00000     0.00000
 Structure written by MMmdl.
 43 44  0  0  0  0  0  0  0  0  1 V2000
  153.0774  139.6201  157.1156 C   0  0  0  0  0  0  0  0  0  0  0  0
  152.1694  139.3342  158.3208 C   0  0  1  0  0  0  0  0  0  0  0  0
  150.8839  139.8724  158.0242 O   0  0  0  0  0  0  0  0  0  0  0  0
  150.8732  141.2288  157.5937 C   0  0  0  0  0  0  0  0  0  0  0  0
  150.7918  142.1346  158.8286 C   0  0  1  0  0  0  0  0  0  0  0  0
  152.1769  142.3670  159.4633 C   0  0  0  0  0  0  0  0  0  0  0  0
  152.0712  143.3389  160.6442 C   0  0  0  0  0  0  0  0  0  0  0  0
  151.3627  144.6219  160.1973 C   0  0  0  0  0  0  0  0  0  0  0  0
  150.0293  144.2850  159.5114 C   0  0  0  0  0  0  0  0  0  0  0  0
  150.2552  143.3927  158.4244 O   0  0  0  0  0  0  0  0  0  0  0  0
  152.0616  137.8254  158.5945 C   0  0  0  0  0  0  0  0  0  0  0  0
  153.0879  137.1617  158.7426 O   0  0  0  0  0  0  0  0  0  0  0  0
  150.8084  137.3333  158.6522 N   0  0  0  0  0  0  0  0  0  0  0  0
  150.3893  136.0024  158.8125 C   0  0  0  0  0  0  0  0  0  0  0  0
  150.0944  135.4257  160.0070 C   0  0  0  0  0  0  0  0  0  0  0  0
  149.6839  134.0344  160.1097 C   0  0  0  0  0  0  0  0  0  0  0  0
  149.3439  133.3787  161.4389 C   0  0  0  0  0  0  0  0  0  0  0  0
  150.1400  132.3315  161.6521 F   0  0  0  0  0  0  0  0  0  0  0  0
  149.5257  134.2425  162.4376 F   0  0  0  0  0  0  0  0  0  0  0  0
  148.0791  132.9584  161.4733 F   0  0  0  0  0  0  0  0  0  0  0  0
  149.6215  133.3405  158.9592 C   0  0  0  0  0  0  0  0  0  0  0  0
  149.9338  133.9232  157.7289 N   0  0  0  0  0  0  0  0  0  0  0  0
  150.3194  135.2098  157.5739 C   0  0  0  0  0  0  0  0  0  0  0  0
  150.5832  135.6489  156.4551 O   0  0  0  0  0  0  0  0  0  0  0  0
  149.8651  133.3343  156.9112 H   0  0  0  0  0  0  0  0  0  0  0  0
  154.0811  139.2236  157.2732 H   0  0  0  0  0  0  0  0  0  0  0  0
  153.1703  140.6936  156.9490 H   0  0  0  0  0  0  0  0  0  0  0  0
  152.6818  139.1794  156.1997 H   0  0  0  0  0  0  0  0  0  0  0  0
  152.5848  139.8453  159.1919 H   0  0  0  0  0  0  0  0  0  0  0  0
  151.7871  141.4550  157.0431 H   0  0  0  0  0  0  0  0  0  0  0  0
  150.0328  141.4163  156.9236 H   0  0  0  0  0  0  0  0  0  0  0  0
  150.1308  141.6705  159.5633 H   0  0  0  0  0  0  0  0  0  0  0  0
  152.6047  141.4213  159.7978 H   0  0  0  0  0  0  0  0  0  0  0  0
  152.8606  142.7729  158.7165 H   0  0  0  0  0  0  0  0  0  0  0  0
  151.5089  142.8717  161.4536 H   0  0  0  0  0  0  0  0  0  0  0  0
  153.0609  143.5676  161.0399 H   0  0  0  0  0  0  0  0  0  0  0  0
  151.1931  145.2771  161.0522 H   0  0  0  0  0  0  0  0  0  0  0  0
  152.0004  145.1706  159.5032 H   0  0  0  0  0  0  0  0  0  0  0  0
  149.3275  143.8418  160.2195 H   0  0  0  0  0  0  0  0  0  0  0  0
  149.5640  145.1940  159.1299 H   0  0  0  0  0  0  0  0  0  0  0  0
  150.0593  138.0093  158.6072 H   0  0  0  0  0  0  0  0  0  0  0  0
  150.1814  135.9882  160.9223 H   0  0  0  0  0  0  0  0  0  0  0  0
  149.3331  132.3015  158.8950 H   0  0  0  0  0  0  0  0  0  0  0  0
  1  2  1  0  0  0  0
  1 26  1  0  0  0  0
  1 27  1  0  0  0  0
  1 28  1  0  0  0  0
  2  3  1  0  0  0  0
  2 11  1  0  0  0  0
  2 29  1  0  0  0  0
  3  4  1  0  0  0  0
  4  5  1  0  0  0  0
  4 30  1  0  0  0  0
  4 31  1  0  0  0  0
  5 10  1  0  0  0  0
  5  6  1  0  0  0  0
  5 32  1  0  0  0  0
  6  7  1  0  0  0  0
  6 33  1  0  0  0  0
  6 34  1  0  0  0  0
  7  8  1  0  0  0  0
  7 35  1  0  0  0  0
  7 36  1  0  0  0  0
  8  9  1  0  0  0  0
  8 37  1  0  0  0  0
  8 38  1  0  0  0  0
  9 10  1  0  0  0  0
  9 39  1  0  0  0  0
  9 40  1  0  0  0  0
 11 12  2  0  0  0  0
 11 13  1  0  0  0  0
 13 14  1  0  0  0  0
 13 41  1  0  0  0  0
 14 23  1  0  0  0  0
 14 15  2  0  0  0  0
 15 16  1  0  0  0  0
 15 42  1  0  0  0  0
 16 17  1  0  0  0  0
 16 21  2  0  0  0  0
 17 18  1  0  0  0  0
 17 19  1  0  0  0  0
 17 20  1  0  0  0  0
 21 22  1  0  0  0  0
 21 43  1  0  0  0  0
 22 25  1  0  0  0  0
 22 23  1  0  0  0  0
 23 24  2  0  0  0  0
M  END
> <s_m_source_file>
AV-unprocessed.smi

> <i_m_source_file_index>
1550

> <i_lp_mmshare_version>
43012

> <i_f3d_flags>
0

> <s_epik_input>
TzFbQ0gyXVtDSDJdW0NIMl1bQ0gyXVtDQEhdMVtDSDJdT1tDQEBIXShbQ0gzXSlDKD1PKVtOSF1jMltjSF1jKEMoRikoRilGKVtjSF1bbkhdYzI9Tw==

> <s_epik_cmdline>
J2VwaWtfcHl0aG9uJywgJy1waCcsICc3LjAnLCAnLXRuJywgJzgnLCAnLW1hJywgJzIwMCcsICctbWV0YWxfYmluZGluZycsICctaW1hZScsICc8aW5maWxlLm1hZT4nLCAnLW9tYWUnLCAnPG91dGZpbGUubWFlPic=

> <r_lp_tautomer_probability>
0.999

> <r_epik_Ionization_Penalty>
0.00891333

> <r_epik_Ionization_Penalty_Charging>
0.00891323

> <r_epik_Ionization_Penalty_Neutral>
1.00146e-07

> <r_epik_State_Penalty>
0.00674197

> <r_epik_Charging_Adjusted_Penalty>
0.0156552

> <i_epik_Tot_Q>
0

> <i_epik_Tot_abs_Q>
0

> <r_epik_Metal_State_Penalty>
0.321024

> <b_epik_Metal_Only>
0

> <s_lp_Force_Field>
OPLS_2005

> <r_lp_Energy>
24.886

> <b_lp_Chiralities_Consistent>
1

> <s_lp_Variant>
AV-unprocessed.smi:1550-4

> <Gold.Version>
5.8.1

> <Gold.Id.Protein>
6NUR|6NUR_protein|mol2

> <Gold.PLP.Fitness>
46.6264

> <Gold.PLP.PLP>
-46.0765

> <Gold.PLP.part.hbond>
-1.0000

> <Gold.PLP.part.metal>
0.0000

> <Gold.PLP.part.buried>
-6.3567

> <Gold.PLP.part.nonpolar>
-39.5332

> <Gold.PLP.part.repulsive>
0.4006

> <Gold.PLP.ligand.clash>
0.0000

> <Gold.PLP.ligand.torsion>
1.2770

> <Gold.PLP.Chemscore.Hbond>
1.0000

> <Gold.PLP.Chemscore.CHOScore>
0.0000

> <Gold.PLP.Chemscore.Metal>
0.0000

> <Gold.PLP.Chemscore.Internal.Correction>
0.1037

> <Gold.Rescore>
     Score         DG    S(hbond)    S(metal)    S(lipo)     H(rot)  DE(clash)    DE(int)     intcor
     14.60     -16.11       0.99        0.00     103.30       1.86       0.02       1.49       ----

> <Gold.Chemscore.Fitness>
14.6045

> <Gold.Chemscore.DG>
-16.1123

> <Gold.Chemscore.ZeroCoef>
-5.4800

> <Gold.Chemscore.Hbond>
0.9882

> <Gold.Chemscore.Metal>
0.0000

> <Gold.Chemscore.Lipo>
103.2961

> <Gold.Chemscore.Internal_Hbond>
0.0000

> <Gold.Chemscore.DEClash>
0.0162

> <Gold.Chemscore.DEInternal>
1.4915

> <Gold.Chemscore.Rot>
1.8571

> <Gold.Chemscore.Internal.Correction>
   9.000000E+99

> <Gold.Chemscore.Hbond.Weighted>
-3.3007

> <Gold.Chemscore.Metal.Weighted>
-0.0000

> <Gold.Chemscore.Lipo.Weighted>
-12.0856

> <Gold.Chemscore.Internal_Hbond.Weighted>
0.0000

> <Gold.Chemscore.DEClash.Weighted>
0.0162

> <Gold.Chemscore.DEInternal.Weighted>
1.4915

> <Gold.Chemscore.Rot.Weighted>
4.7541

> <Gold.Chemscore.Internal.Correction.Weighted>
   9.000000E+99

> <Gold.Protein.RotatedTorsions>
[ 6907 6896 6895 6894 ] final   -2.08 input  -60.11 | X-H torsion
[ 7974 7965 7964 7962 ] final -111.95 input  175.53 | X-H torsion
[ 8008 7997 7996 7995 ] final   79.10 input   59.86 | X-H torsion
[ 10167 10162 10161 10158 ] final -150.12 input  -65.29 | X-H torsion
[ 10718 10713 10712 10709 ] final  137.89 input   66.30 | X-H torsion
[ 10763 10752 10751 10750 ] final -100.69 input  -60.55 | X-H torsion
[ 11005 11000 10999 10996 ] final -161.02 input  -57.11 | X-H torsion

> <Gold.Protein.ActiveResidues>
 VAL166  LYS551  ARG553  GLY616  TRP617  ASP618  TYR619  PRO620  LYS621  CYS622 
 ASP623  PHE694  ASN695  SER759  ASP760  ASP761  ALA762  ILE779  LEU786  VAL792 
 PHE793  MET794  SER795  GLU796  ALA797  LYS798  CYS799  TRP800  GLU811  SER814 

> <Gold.Protein.RotatedAtoms>
  151.5356  135.1068  159.9913 H   0  0  0  0  0  0  0  0  0  0  0  0  # atno 6907 bound_to 6896
  152.4558  133.7717  159.6813 H   0  0  0  0  0  0  0  0  0  0  0  0  # atno 6908 bound_to 6896
  150.8502  133.7733  159.3053 H   0  0  0  0  0  0  0  0  0  0  0  0  # atno 6909 bound_to 6896
  145.1498  140.8823  143.3653 H   0  0  0  0  0  0  0  0  0  0  0  0  # atno 7974 bound_to 7965
  155.8649  140.3452  155.5782 H   0  0  0  0  0  0  0  0  0  0  0  0  # atno 8008 bound_to 7997
  155.7892  140.0869  157.2037 H   0  0  0  0  0  0  0  0  0  0  0  0  # atno 8009 bound_to 7997
  154.4014  140.1486  156.3130 H   0  0  0  0  0  0  0  0  0  0  0  0  # atno 8010 bound_to 7997
  139.7382  143.8702  152.2555 H   0  0  0  0  0  0  0  0  0  0  0  0  # atno 10167 bound_to 10162
  157.4312  131.1048  151.0248 H   0  0  0  0  0  0  0  0  0  0  0  0  # atno 10718 bound_to 10713
  154.7599  135.4925  153.9445 H   0  0  0  0  0  0  0  0  0  0  0  0  # atno 10763 bound_to 10752
  153.1239  135.6738  153.9297 H   0  0  0  0  0  0  0  0  0  0  0  0  # atno 10764 bound_to 10752
  153.9021  135.3108  155.3427 H   0  0  0  0  0  0  0  0  0  0  0  0  # atno 10765 bound_to 10752
  140.6250  134.4711  157.5226 H   0  0  0  0  0  0  0  0  0  0  0  0  # atno 11005 bound_to 11000
  145.0443  139.3234  143.5961 LP  0  0  0  0  0  0  0  0  0  0  0  0  # atno 17320 bound_to 7965
  146.3496  139.9827  142.8694 LP  0  0  0  0  0  0  0  0  0  0  0  0  # atno 17321 bound_to 7965
  139.8645  144.7100  150.9060 LP  0  0  0  0  0  0  0  0  0  0  0  0  # atno 17342 bound_to 10162
  140.7782  143.3789  151.1512 LP  0  0  0  0  0  0  0  0  0  0  0  0  # atno 17343 bound_to 10162
  157.1144  130.6035  149.5489 LP  0  0  0  0  0  0  0  0  0  0  0  0  # atno 17370 bound_to 10713
  155.9914  130.4968  150.7297 LP  0  0  0  0  0  0  0  0  0  0  0  0  # atno 17371 bound_to 10713
  139.9138  134.8288  156.1435 LP  0  0  0  0  0  0  0  0  0  0  0  0  # atno 17394 bound_to 11000
  141.0715  133.6794  156.2151 LP  0  0  0  0  0  0  0  0  0  0  0  0  # atno 17395 bound_to 11000

$$$$
