AV-unprocessed.smi:1875|AV-procd|sdf|7616|dock7
  -GOLD-   22720 9343D 1   1.00000     0.00000
 Structure written by MMmdl.
 49 51  0  0  0  0  0  0  0  0  3 V2000
  144.3775  140.6451  156.5999 C   0  0  0  0  0  0  0  0  0  0  0  0
  145.4507  140.8422  155.5498 C   0  0  0  0  0  0  0  0  0  0  0  0
  145.9381  142.0781  155.4053 N   0  0  0  0  0  0  0  0  0  0  0  0
  146.8944  142.2538  154.4676 C   0  0  0  0  0  0  0  0  0  0  0  0
  147.3675  141.1829  153.6823 C   0  0  0  0  0  0  0  0  0  0  0  0
  146.7797  139.9240  153.9258 C   0  0  0  0  0  0  0  0  0  0  0  0
  147.2168  138.6888  153.1601 C   0  0  0  0  0  0  0  0  0  0  0  0
  147.8227  137.6763  154.0505 N   0  3  0  0  0  0  0  0  0  0  0  0
  148.7094  138.2232  155.1003 C   0  0  0  0  0  0  0  0  0  0  0  0
  150.1276  138.4864  154.5619 C   0  0  2  0  0  0  0  0  0  0  0  0
  150.6703  137.2744  154.0803 O   0  0  0  0  0  0  0  0  0  0  0  0
  151.0966  139.0471  155.6239 C   0  0  0  0  0  0  0  0  0  0  0  0
  150.7743  140.4199  156.0365 N   0  0  0  0  0  0  0  0  0  0  0  0
  149.9287  141.3295  155.4780 C   0  0  0  0  0  0  0  0  0  0  0  0
  149.9836  142.4598  156.2356 N   0  3  0  0  0  0  0  0  0  0  0  0
  150.8675  142.2656  157.2993 C   0  0  0  0  0  0  0  0  0  0  0  0
  151.2508  143.1133  158.3317 C   0  0  0  0  0  0  0  0  0  0  0  0
  152.1763  142.6067  159.2721 C   0  0  0  0  0  0  0  0  0  0  0  0
  152.6139  143.5074  160.4146 C   0  0  0  0  0  0  0  0  0  0  0  0
  152.6869  141.2876  159.1572 C   0  0  0  0  0  0  0  0  0  0  0  0
  153.6783  140.7526  160.1768 C   0  0  0  0  0  0  0  0  0  0  0  0
  152.2872  140.4421  158.0973 C   0  0  0  0  0  0  0  0  0  0  0  0
  151.3747  140.9572  157.1801 C   0  0  0  0  0  0  0  0  0  0  0  0
  145.8192  139.7567  154.8627 N   0  0  0  0  0  0  0  0  0  0  0  0
  144.2368  141.5442  157.2017 H   0  0  0  0  0  0  0  0  0  0  0  0
  144.6463  139.8281  157.2701 H   0  0  0  0  0  0  0  0  0  0  0  0
  143.4268  140.4018  156.1248 H   0  0  0  0  0  0  0  0  0  0  0  0
  147.2878  143.2521  154.3466 H   0  0  0  0  0  0  0  0  0  0  0  0
  148.1359  141.3254  152.9366 H   0  0  0  0  0  0  0  0  0  0  0  0
  146.3760  138.2549  152.6167 H   0  0  0  0  0  0  0  0  0  0  0  0
  147.9556  138.9808  152.4135 H   0  0  0  0  0  0  0  0  0  0  0  0
  147.0767  137.1731  154.5091 H   0  0  0  0  0  0  0  0  0  0  0  0
  148.2793  139.1583  155.4562 H   0  0  0  0  0  0  0  0  0  0  0  0
  148.7417  137.5419  155.9517 H   0  0  0  0  0  0  0  0  0  0  0  0
  150.0698  139.1840  153.7256 H   0  0  0  0  0  0  0  0  0  0  0  0
  150.1049  136.9343  153.4031 H   0  0  0  0  0  0  0  0  0  0  0  0
  151.0735  138.4269  156.5212 H   0  0  0  0  0  0  0  0  0  0  0  0
  152.1261  139.0311  155.2630 H   0  0  0  0  0  0  0  0  0  0  0  0
  149.3268  141.1845  154.5921 H   0  0  0  0  0  0  0  0  0  0  0  0
  150.8570  144.1159  158.4147 H   0  0  0  0  0  0  0  0  0  0  0  0
  152.3447  143.0662  161.3745 H   0  0  0  0  0  0  0  0  0  0  0  0
  152.1398  144.4874  160.3534 H   0  0  0  0  0  0  0  0  0  0  0  0
  153.6936  143.6581  160.3920 H   0  0  0  0  0  0  0  0  0  0  0  0
  153.9573  139.7210  159.9600 H   0  0  0  0  0  0  0  0  0  0  0  0
  153.2488  140.7763  161.1786 H   0  0  0  0  0  0  0  0  0  0  0  0
  154.5891  141.3519  160.1757 H   0  0  0  0  0  0  0  0  0  0  0  0
  152.6750  139.4376  158.0103 H   0  0  0  0  0  0  0  0  0  0  0  0
  148.3483  137.0252  153.4850 H   0  0  0  0  0  0  0  0  0  0  0  0
  149.4498  143.2983  156.0439 H   0  0  0  0  0  0  0  0  0  0  0  0
  1  2  1  0  0  0  0
  1 25  1  0  0  0  0
  1 26  1  0  0  0  0
  1 27  1  0  0  0  0
  2 24  1  0  0  0  0
  2  3  2  0  0  0  0
  3  4  1  0  0  0  0
  4  5  2  0  0  0  0
  4 28  1  0  0  0  0
  5  6  1  0  0  0  0
  5 29  1  0  0  0  0
  6  7  1  0  0  0  0
  6 24  2  0  0  0  0
  7  8  1  0  0  0  0
  7 30  1  0  0  0  0
  7 31  1  0  0  0  0
  8  9  1  0  0  0  0
  8 32  1  0  0  0  0
  8 48  1  0  0  0  0
  9 10  1  0  0  0  0
  9 33  1  0  0  0  0
  9 34  1  0  0  0  0
 10 11  1  0  0  0  0
 10 12  1  0  0  0  0
 10 35  1  0  0  0  0
 11 36  1  0  0  0  0
 12 13  1  0  0  0  0
 12 37  1  0  0  0  0
 12 38  1  0  0  0  0
 13 23  1  0  0  0  0
 13 14  1  0  0  0  0
 14 15  2  0  0  0  0
 14 39  1  0  0  0  0
 15 16  1  0  0  0  0
 15 49  1  0  0  0  0
 16 23  2  0  0  0  0
 16 17  1  0  0  0  0
 17 18  2  0  0  0  0
 17 40  1  0  0  0  0
 18 19  1  0  0  0  0
 18 20  1  0  0  0  0
 19 41  1  0  0  0  0
 19 42  1  0  0  0  0
 19 43  1  0  0  0  0
 20 21  1  0  0  0  0
 20 22  2  0  0  0  0
 21 44  1  0  0  0  0
 21 45  1  0  0  0  0
 21 46  1  0  0  0  0
 22 23  1  0  0  0  0
 22 47  1  0  0  0  0
M  CHG  1   8   1
M  CHG  1  15   1
M  END
> <s_m_source_file>
AV-unprocessed.smi

> <i_m_source_file_index>
1875

> <i_lp_mmshare_version>
43012

> <i_f3d_flags>
0

> <s_epik_input>
W0NIM11jMW5bY0hdW2NIXWMobjEpW0NIMl1bTkhdW0NIMl1bQ0BIXShbT0hdKVtDSDJdbihbY0hdbjIpYyhjMjMpW2NIXWMoW0NIM10pYyhbY0hdMylbQ0gzXQ==

> <s_epik_cmdline>
J2VwaWtfcHl0aG9uJywgJy1waCcsICc3LjAnLCAnLXRuJywgJzgnLCAnLW1hJywgJzIwMCcsICctbWV0YWxfYmluZGluZycsICctaW1hZScsICc8aW5maWxlLm1hZT4nLCAnLW9tYWUnLCAnPG91dGZpbGUubWFlPic=

> <r_lp_tautomer_probability>
1

> <r_epik_Ionization_Penalty>
1.27527

> <r_epik_Ionization_Penalty_Charging>
1.27526

> <r_epik_Ionization_Penalty_Neutral>
8.72389e-06

> <r_epik_State_Penalty>
1.28654

> <r_epik_Charging_Adjusted_Penalty>
2.5618

> <i_epik_Tot_Q>
2

> <i_epik_Tot_abs_Q>
2

> <r_epik_Metal_State_Penalty>
1.36882

> <b_epik_Metal_Only>
0

> <s_epik_Chemistry_Notes>
This compound contains an electron-poor aromatic ring that is susceptible to covalent hydrolysis at low pH, typically resulting in measured values for nitrogen ring protonation that are around two units higher than predicted values.

> <s_lp_Force_Field>
OPLS_2005

> <r_lp_Energy>
13.455

> <b_lp_Chiralities_Consistent>
1

> <s_lp_Variant>
AV-unprocessed.smi:1875-5

> <Gold.Version>
5.8.1

> <Gold.Id.Protein>
6NUR|6NUR_protein|mol2

> <Gold.PLP.Fitness>
62.9439

> <Gold.PLP.PLP>
-46.1550

> <Gold.PLP.part.hbond>
-4.0000

> <Gold.PLP.part.metal>
0.0000

> <Gold.PLP.part.buried>
-5.7367

> <Gold.PLP.part.nonpolar>
-37.5998

> <Gold.PLP.part.repulsive>
0.3956

> <Gold.PLP.ligand.clash>
0.0000

> <Gold.PLP.ligand.torsion>
0.4216

> <Gold.PLP.Chemscore.Hbond>
4.8500

> <Gold.PLP.Chemscore.CHOScore>
1.0000

> <Gold.PLP.Chemscore.Metal>
0.0000

> <Gold.Chemscore.Hbonds>
donor molecule, donor type, donor heavy atom, donor atom, acceptor molecule, acceptor atom, score
      L1  H     8    48       P1  7948  2.00
      L1  H    11    36       P1  7948  0.80
      L1  H    15    49       P1  8028  2.00
      L1  C     4    28       P1  8028  1.00

> <Gold.PLP.Chemscore.Internal.Correction>
0.0820

> <Gold.Rescore>
     Score         DG    S(hbond)    S(metal)    S(lipo)     H(rot)  DE(clash)    DE(int)     intcor
     18.30     -18.62       2.02        0.00     117.83       2.88       0.00       0.32       ----

> <Gold.Chemscore.Fitness>
18.2980

> <Gold.Chemscore.DG>
-18.6231

> <Gold.Chemscore.ZeroCoef>
-5.4800

> <Gold.Chemscore.Hbond>
2.0177

> <Gold.Chemscore.Metal>
0.0000

> <Gold.Chemscore.Lipo>
117.8318

> <Gold.Chemscore.Internal_Hbond>
0.0000

> <Gold.Chemscore.DEClash>
0.0021

> <Gold.Chemscore.DEInternal>
0.3230

> <Gold.Chemscore.Rot>
2.8838

> <Gold.Chemscore.Internal.Correction>
   9.000000E+99

> <Gold.Chemscore.Hbonds>
donor molecule, donor type, donor heavy atom, donor atom, acceptor molecule, acceptor atom, score
      L1  H     8    48       P1  7948  0.98
      L1  H    11    36       P1  7948  0.11
      L1  H    15    49       P1  8028  0.97

> <Gold.Chemscore.Hbond.Weighted>
-6.7392

> <Gold.Chemscore.Metal.Weighted>
-0.0000

> <Gold.Chemscore.Lipo.Weighted>
-13.7863

> <Gold.Chemscore.Internal_Hbond.Weighted>
0.0000

> <Gold.Chemscore.DEClash.Weighted>
0.0021

> <Gold.Chemscore.DEInternal.Weighted>
0.3230

> <Gold.Chemscore.Rot.Weighted>
7.3824

> <Gold.Chemscore.Internal.Correction.Weighted>
   9.000000E+99

> <Gold.Protein.RotatedTorsions>
[ 6907 6896 6895 6894 ] final   71.14 input  -60.11 | X-H torsion
[ 7974 7965 7964 7962 ] final  -95.41 input  175.53 | X-H torsion
[ 8008 7997 7996 7995 ] final   -0.93 input   59.86 | X-H torsion
[ 10167 10162 10161 10158 ] final -168.60 input  -65.29 | X-H torsion
[ 10718 10713 10712 10709 ] final   20.51 input   66.30 | X-H torsion
[ 10763 10752 10751 10750 ] final   58.08 input  -60.55 | X-H torsion
[ 11005 11000 10999 10996 ] final  -82.88 input  -57.11 | X-H torsion

> <Gold.Protein.ActiveResidues>
 VAL166  LYS551  ARG553  GLY616  TRP617  ASP618  TYR619  PRO620  LYS621  CYS622 
 ASP623  PHE694  ASN695  SER759  ASP760  ASP761  ALA762  ILE779  LEU786  VAL792 
 PHE793  MET794  SER795  GLU796  ALA797  LYS798  CYS799  TRP800  GLU811  SER814 

> <Gold.Protein.RotatedAtoms>
  152.4792  134.4764  159.9651 H   0  0  0  0  0  0  0  0  0  0  0  0  # atno 6907 bound_to 6896
  151.4773  133.3549  159.2840 H   0  0  0  0  0  0  0  0  0  0  0  0  # atno 6908 bound_to 6896
  150.8852  134.8275  159.7315 H   0  0  0  0  0  0  0  0  0  0  0  0  # atno 6909 bound_to 6896
  145.3604  140.9491  143.2504 H   0  0  0  0  0  0  0  0  0  0  0  0  # atno 7974 bound_to 7965
  154.6524  140.2572  155.7198 H   0  0  0  0  0  0  0  0  0  0  0  0  # atno 8008 bound_to 7997
  156.2581  140.2865  156.0885 H   0  0  0  0  0  0  0  0  0  0  0  0  # atno 8009 bound_to 7997
  155.1430  140.0380  157.2793 H   0  0  0  0  0  0  0  0  0  0  0  0  # atno 8010 bound_to 7997
  139.5975  144.1081  152.1706 H   0  0  0  0  0  0  0  0  0  0  0  0  # atno 10167 bound_to 10162
  157.1255  130.6568  149.5936 H   0  0  0  0  0  0  0  0  0  0  0  0  # atno 10718 bound_to 10713
  152.9863  135.5619  154.5495 H   0  0  0  0  0  0  0  0  0  0  0  0  # atno 10763 bound_to 10752
  154.4935  135.2794  155.1480 H   0  0  0  0  0  0  0  0  0  0  0  0  # atno 10764 bound_to 10752
  154.2940  135.6320  153.5450 H   0  0  0  0  0  0  0  0  0  0  0  0  # atno 10765 bound_to 10752
  141.1661  133.7266  156.8637 H   0  0  0  0  0  0  0  0  0  0  0  0  # atno 11005 bound_to 11000
  144.8650  139.5120  143.6794 LP  0  0  0  0  0  0  0  0  0  0  0  0  # atno 17320 bound_to 7965
  146.2930  139.7193  142.9147 LP  0  0  0  0  0  0  0  0  0  0  0  0  # atno 17321 bound_to 7965
  140.0669  144.5811  150.7221 LP  0  0  0  0  0  0  0  0  0  0  0  0  # atno 17342 bound_to 10162
  140.7224  143.2601  151.4235 LP  0  0  0  0  0  0  0  0  0  0  0  0  # atno 17343 bound_to 10162
  155.9819  130.4829  150.6853 LP  0  0  0  0  0  0  0  0  0  0  0  0  # atno 17370 bound_to 10713
  157.4439  131.0864  151.0916 LP  0  0  0  0  0  0  0  0  0  0  0  0  # atno 17371 bound_to 10713
  140.1830  134.9020  157.2971 LP  0  0  0  0  0  0  0  0  0  0  0  0  # atno 17394 bound_to 11000
  140.2374  134.3836  155.7495 LP  0  0  0  0  0  0  0  0  0  0  0  0  # atno 17395 bound_to 11000

$$$$
