AV-unprocessed.smi:2884|AV-procd|sdf|11084|dock10
  -GOLD-   2272015553D 1   1.00000     0.00000
 Structure written by MMmdl.
 42 43  0  0  0  0  0  0  0  0  3 V2000
  152.4836  143.5977  158.8064 C   0  0  0  0  0  0  0  0  0  0  0  0
  151.5724  142.3673  158.7116 C   0  0  0  0  0  0  0  0  0  0  0  0
  150.2911  142.6370  157.9137 C   0  0  0  0  0  0  0  0  0  0  0  0
  149.5848  141.4081  157.7795 O   0  0  0  0  0  0  0  0  0  0  0  0
  148.7548  141.1822  156.6330 C   0  0  0  0  0  0  0  0  0  0  0  0
  148.3496  139.6968  156.8078 C   0  0  0  0  0  0  0  0  0  0  0  0
  149.4896  138.8455  157.1270 N   0  0  0  0  0  0  0  0  0  0  0  0
  150.1105  137.8653  156.3621 C   0  0  0  0  0  0  0  0  0  0  0  0
  149.6813  137.5311  155.0470 C   0  0  0  0  0  0  0  0  0  0  0  0
  150.3107  136.5829  154.3602 N   0  3  0  0  0  0  0  0  0  0  0  0
  151.3391  135.9086  154.8240 N   0  5  0  0  0  0  0  0  0  0  0  0
  151.8491  136.1362  156.0710 C   0  0  0  0  0  0  0  0  0  0  0  0
  152.8095  135.5204  156.5291 O   0  0  0  0  0  0  0  0  0  0  0  0
  151.1779  137.1811  156.8661 C   0  0  0  0  0  0  0  0  0  0  0  0
  151.7711  137.5122  158.4605 Cl  0  0  0  0  0  0  0  0  0  0  0  0
  147.5172  142.1230  156.5981 C   0  0  0  0  0  0  0  0  0  0  0  0
  146.6587  141.9173  155.3374 C   0  0  0  0  0  0  0  0  0  0  0  0
  147.4971  142.0949  154.0617 C   0  0  0  0  0  0  0  0  0  0  0  0
  148.7241  141.1693  154.0593 C   0  0  0  0  0  0  0  0  0  0  0  0
  149.5755  141.3613  155.3286 C   0  0  0  0  0  0  0  0  0  0  0  0
  149.9438  136.3946  153.4143 H   0  0  0  0  0  0  0  0  0  0  0  0
  153.3929  143.3658  159.3610 H   0  0  0  0  0  0  0  0  0  0  0  0
  151.9845  144.4218  159.3173 H   0  0  0  0  0  0  0  0  0  0  0  0
  152.7778  143.9470  157.8163 H   0  0  0  0  0  0  0  0  0  0  0  0
  152.1236  141.5546  158.2379 H   0  0  0  0  0  0  0  0  0  0  0  0
  151.3156  142.0213  159.7133 H   0  0  0  0  0  0  0  0  0  0  0  0
  149.7029  143.3904  158.4352 H   0  0  0  0  0  0  0  0  0  0  0  0
  150.5598  143.0397  156.9380 H   0  0  0  0  0  0  0  0  0  0  0  0
  147.5676  139.5896  157.5554 H   0  0  0  0  0  0  0  0  0  0  0  0
  147.9194  139.3267  155.8767 H   0  0  0  0  0  0  0  0  0  0  0  0
  149.7652  138.8857  158.0985 H   0  0  0  0  0  0  0  0  0  0  0  0
  148.8494  138.0181  154.5556 H   0  0  0  0  0  0  0  0  0  0  0  0
  146.9066  141.9974  157.4925 H   0  0  0  0  0  0  0  0  0  0  0  0
  147.8335  143.1650  156.5958 H   0  0  0  0  0  0  0  0  0  0  0  0
  146.2041  140.9275  155.3455 H   0  0  0  0  0  0  0  0  0  0  0  0
  145.8327  142.6290  155.3361 H   0  0  0  0  0  0  0  0  0  0  0  0
  146.8826  141.9013  153.1821 H   0  0  0  0  0  0  0  0  0  0  0  0
  147.8257  143.1322  153.9855 H   0  0  0  0  0  0  0  0  0  0  0  0
  148.4035  140.1312  153.9711 H   0  0  0  0  0  0  0  0  0  0  0  0
  149.3323  141.3707  153.1770 H   0  0  0  0  0  0  0  0  0  0  0  0
  149.9998  142.3634  155.2831 H   0  0  0  0  0  0  0  0  0  0  0  0
  150.4212  140.6729  155.3170 H   0  0  0  0  0  0  0  0  0  0  0  0
  1  2  1  0  0  0  0
  1 22  1  0  0  0  0
  1 23  1  0  0  0  0
  1 24  1  0  0  0  0
  2  3  1  0  0  0  0
  2 25  1  0  0  0  0
  2 26  1  0  0  0  0
  3  4  1  0  0  0  0
  3 27  1  0  0  0  0
  3 28  1  0  0  0  0
  4  5  1  0  0  0  0
  5 20  1  0  0  0  0
  5  6  1  0  0  0  0
  5 16  1  0  0  0  0
  6 29  1  0  0  0  0
  6 30  1  0  0  0  0
  6  7  1  0  0  0  0
  7  8  1  0  0  0  0
  7 31  1  0  0  0  0
  8 14  2  0  0  0  0
  8  9  1  0  0  0  0
  9 32  1  0  0  0  0
  9 10  2  0  0  0  0
 10 11  1  0  0  0  0
 10 21  1  0  0  0  0
 11 12  1  0  0  0  0
 12 13  2  0  0  0  0
 12 14  1  0  0  0  0
 14 15  1  0  0  0  0
 16 17  1  0  0  0  0
 16 33  1  0  0  0  0
 16 34  1  0  0  0  0
 17 18  1  0  0  0  0
 17 35  1  0  0  0  0
 17 36  1  0  0  0  0
 18 19  1  0  0  0  0
 18 37  1  0  0  0  0
 18 38  1  0  0  0  0
 19 20  1  0  0  0  0
 19 39  1  0  0  0  0
 19 40  1  0  0  0  0
 20 41  1  0  0  0  0
 20 42  1  0  0  0  0
M  CHG  1  10   1
M  CHG  1  11  -1
M  END
> <s_m_source_file>
AV-unprocessed.smi

> <i_m_source_file_index>
2884

> <i_lp_mmshare_version>
43012

> <i_f3d_flags>
0

> <s_epik_input>
W0NIMl0xW0NIMl1bQ0gyXVtDSDJdW0NIMl1DMShPW0NIMl1bQ0gyXVtDSDNdKVtDSDJdW05IXWMyW2NIXW5bbkhdYyg9TyljMkNs

> <s_epik_cmdline>
J2VwaWtfcHl0aG9uJywgJy1waCcsICc3LjAnLCAnLXRuJywgJzgnLCAnLW1hJywgJzIwMCcsICctbWV0YWxfYmluZGluZycsICctaW1hZScsICc8aW5maWxlLm1hZT4nLCAnLW9tYWUnLCAnPG91dGZpbGUubWFlPic=

> <r_lp_tautomer_probability>
0.0138196

> <r_epik_Ionization_Penalty>
2.73941

> <r_epik_Ionization_Penalty_Charging>
2.73941

> <r_epik_Ionization_Penalty_Neutral>
1.09968e-06

> <r_epik_State_Penalty>
2.7044

> <r_epik_Charging_Adjusted_Penalty>
5.44381

> <i_epik_Tot_Q>
0

> <i_epik_Tot_abs_Q>
2

> <r_epik_Metal_State_Penalty>
2.9982

> <b_epik_Metal_Only>
0

> <s_lp_Force_Field>
OPLS_2005

> <r_lp_Energy>
38.2513

> <b_lp_Chiralities_Consistent>
1

> <s_lp_Variant>
AV-unprocessed.smi:2884-2

> <Gold.Version>
5.8.1

> <Gold.Id.Protein>
6NUR|6NUR_protein|mol2

> <Gold.PLP.Fitness>
36.9525

> <Gold.PLP.PLP>
-26.8620

> <Gold.PLP.part.hbond>
-3.0953

> <Gold.PLP.part.metal>
0.0000

> <Gold.PLP.part.buried>
-1.7220

> <Gold.PLP.part.nonpolar>
-21.3266

> <Gold.PLP.part.repulsive>
0.2897

> <Gold.PLP.ligand.clash>
0.0000

> <Gold.PLP.ligand.torsion>
0.3629

> <Gold.PLP.Chemscore.Hbond>
3.6000

> <Gold.PLP.Chemscore.CHOScore>
0.0000

> <Gold.PLP.Chemscore.Metal>
0.0000

> <Gold.Chemscore.Hbonds>
donor molecule, donor type, donor heavy atom, donor atom, acceptor molecule, acceptor atom, score
      L1  H    10    21       P1  7948  1.50
      P1  H 10752 10763       L1    11  0.50
      P1  H 10752 10764       L1    13  0.08

> <Gold.PLP.Chemscore.Internal.Correction>
0.0163

> <Gold.Rescore>
     Score         DG    S(hbond)    S(metal)    S(lipo)     H(rot)  DE(clash)    DE(int)     intcor
     12.63     -13.20       0.89        0.00      79.15       1.77       0.12       0.45       ----

> <Gold.Chemscore.Fitness>
12.6283

> <Gold.Chemscore.DG>
-13.1963

> <Gold.Chemscore.ZeroCoef>
-5.4800

> <Gold.Chemscore.Hbond>
0.8914

> <Gold.Chemscore.Metal>
0.0000

> <Gold.Chemscore.Lipo>
79.1515

> <Gold.Chemscore.Internal_Hbond>
0.0000

> <Gold.Chemscore.DEClash>
0.1210

> <Gold.Chemscore.DEInternal>
0.4470

> <Gold.Chemscore.Rot>
1.7663

> <Gold.Chemscore.Internal.Correction>
   9.000000E+99

> <Gold.Chemscore.Hbonds>
donor molecule, donor type, donor heavy atom, donor atom, acceptor molecule, acceptor atom, score
      L1  H    10    21       P1  7948  0.09
      P1  H 10752 10764       L1    13  0.09

> <Gold.Chemscore.Hbond.Weighted>
-2.9772

> <Gold.Chemscore.Metal.Weighted>
-0.0000

> <Gold.Chemscore.Lipo.Weighted>
-9.2607

> <Gold.Chemscore.Internal_Hbond.Weighted>
0.0000

> <Gold.Chemscore.DEClash.Weighted>
0.1210

> <Gold.Chemscore.DEInternal.Weighted>
0.4470

> <Gold.Chemscore.Rot.Weighted>
4.5216

> <Gold.Chemscore.Internal.Correction.Weighted>
   9.000000E+99

> <Gold.Protein.RotatedTorsions>
[ 6907 6896 6895 6894 ] final -125.42 input  -60.11 | X-H torsion
[ 7974 7965 7964 7962 ] final   40.30 input  175.53 | X-H torsion
[ 8008 7997 7996 7995 ] final -159.91 input   59.86 | X-H torsion
[ 10167 10162 10161 10158 ] final   75.93 input  -65.29 | X-H torsion
[ 10718 10713 10712 10709 ] final -118.62 input   66.30 | X-H torsion
[ 10763 10752 10751 10750 ] final   47.66 input  -60.55 | X-H torsion
[ 11005 11000 10999 10996 ] final  -20.16 input  -57.11 | X-H torsion

> <Gold.Protein.ActiveResidues>
 VAL166  LYS551  ARG553  GLY616  TRP617  ASP618  TYR619  PRO620  LYS621  CYS622 
 ASP623  PHE694  ASN695  SER759  ASP760  ASP761  ALA762  ILE779  LEU786  VAL792 
 PHE793  MET794  SER795  GLU796  ALA797  LYS798  CYS799  TRP800  GLU811  SER814 

> <Gold.Protein.RotatedAtoms>
  150.8866  133.7299  159.2916 H   0  0  0  0  0  0  0  0  0  0  0  0  # atno 6907 bound_to 6896
  151.4863  135.1053  159.9801 H   0  0  0  0  0  0  0  0  0  0  0  0  # atno 6908 bound_to 6896
  152.4794  133.8170  159.7089 H   0  0  0  0  0  0  0  0  0  0  0  0  # atno 6909 bound_to 6896
  146.0916  139.5549  142.9472 H   0  0  0  0  0  0  0  0  0  0  0  0  # atno 7974 bound_to 7965
  155.7696  140.0850  157.2114 H   0  0  0  0  0  0  0  0  0  0  0  0  # atno 8008 bound_to 7997
  154.3997  140.1527  156.2984 H   0  0  0  0  0  0  0  0  0  0  0  0  # atno 8009 bound_to 7997
  155.8760  140.3423  155.5857 H   0  0  0  0  0  0  0  0  0  0  0  0  # atno 8010 bound_to 7997
  139.9977  144.5710  150.7764 H   0  0  0  0  0  0  0  0  0  0  0  0  # atno 10167 bound_to 10162
  156.1120  130.6256  150.9313 H   0  0  0  0  0  0  0  0  0  0  0  0  # atno 10718 bound_to 10713
  152.9798  135.5969  154.3798 H   0  0  0  0  0  0  0  0  0  0  0  0  # atno 10763 bound_to 10752
  154.3464  135.2767  155.2397 H   0  0  0  0  0  0  0  0  0  0  0  0  # atno 10764 bound_to 10752
  154.4456  135.6002  153.6213 H   0  0  0  0  0  0  0  0  0  0  0  0  # atno 10765 bound_to 10752
  140.8437  133.7907  155.9889 H   0  0  0  0  0  0  0  0  0  0  0  0  # atno 11005 bound_to 11000
  145.6028  141.0352  143.2009 LP  0  0  0  0  0  0  0  0  0  0  0  0  # atno 17320 bound_to 7965
  144.7364  139.7573  143.7327 LP  0  0  0  0  0  0  0  0  0  0  0  0  # atno 17321 bound_to 7965
  140.7431  143.2841  151.3513 LP  0  0  0  0  0  0  0  0  0  0  0  0  # atno 17342 bound_to 10162
  139.6294  144.0750  152.2463 LP  0  0  0  0  0  0  0  0  0  0  0  0  # atno 17343 bound_to 10162
  157.6301  131.0922  150.8458 LP  0  0  0  0  0  0  0  0  0  0  0  0  # atno 17370 bound_to 10713
  156.8567  130.5099  149.5307 LP  0  0  0  0  0  0  0  0  0  0  0  0  # atno 17371 bound_to 10713
  140.8867  134.2545  157.5116 LP  0  0  0  0  0  0  0  0  0  0  0  0  # atno 17394 bound_to 11000
  139.8703  134.9641  156.4485 LP  0  0  0  0  0  0  0  0  0  0  0  0  # atno 17395 bound_to 11000

$$$$
