AV-unprocessed.smi:2706|AV-procd|sdf|10453|dock1
  -GOLD-   2272014493D 1   1.00000     0.00000
 Structure written by MMmdl.
 43 46  0  0  0  0  0  0  0  0  1 V2000
  151.9413  144.9334  160.8655 C   0  0  0  0  0  0  0  0  0  0  0  0
  151.7863  144.0746  159.6967 N   0  0  0  0  0  0  0  0  0  0  0  0
  150.9640  144.6393  158.6313 C   0  0  0  0  0  0  0  0  0  0  0  0
  152.3606  142.8031  159.6442 C   0  0  0  0  0  0  0  0  0  0  0  0
  153.0854  142.3223  160.6792 C   0  0  0  0  0  0  0  0  0  0  0  0
  153.6784  141.0032  160.6013 C   0  0  0  0  0  0  0  0  0  0  0  0
  153.5166  140.2283  159.5110 C   0  0  0  0  0  0  0  0  0  0  0  0
  152.7334  140.6906  158.3807 C   0  0  0  0  0  0  0  0  0  0  0  0
  152.5938  139.9356  157.3272 N   0  0  0  0  0  0  0  0  0  0  0  0
  151.7653  140.2640  156.2539 C   0  0  0  0  0  0  0  0  0  0  0  0
  151.8811  139.7443  155.1446 O   0  0  0  0  0  0  0  0  0  0  0  0
  150.7475  141.1061  156.5276 N   0  0  0  0  0  0  0  0  0  0  0  0
  149.7581  141.5549  155.6027 C   0  0  2  0  0  0  0  0  0  0  0  0
  148.3123  141.2118  155.9265 C   0  0  1  0  0  0  0  0  0  0  0  0
  147.0810  141.8091  155.2520 C   0  0  2  0  0  0  0  0  0  0  0  0
  146.1066  140.6542  154.9418 C   0  0  0  0  0  0  0  0  0  0  0  0
  146.8270  139.9085  153.7914 C   0  0  0  0  0  0  0  0  0  0  0  0
  148.1112  140.7433  153.6055 C   0  0  1  0  0  0  0  0  0  0  0  0
  147.5518  142.1479  153.8366 C   0  0  0  0  0  0  0  0  0  0  0  0
  149.0101  140.4920  154.8126 C   0  0  1  0  0  0  0  0  0  0  0  0
  152.2053  141.9887  158.5187 N   0  0  0  0  0  0  0  0  0  0  0  0
  151.2783  144.6034  161.6657 H   0  0  0  0  0  0  0  0  0  0  0  0
  151.7134  145.9757  160.6414 H   0  0  0  0  0  0  0  0  0  0  0  0
  152.9662  144.9003  161.2346 H   0  0  0  0  0  0  0  0  0  0  0  0
  151.5787  144.8659  157.7597 H   0  0  0  0  0  0  0  0  0  0  0  0
  150.4645  145.5585  158.9388 H   0  0  0  0  0  0  0  0  0  0  0  0
  150.1880  143.9339  158.3326 H   0  0  0  0  0  0  0  0  0  0  0  0
  153.2393  142.8984  161.5792 H   0  0  0  0  0  0  0  0  0  0  0  0
  154.2641  140.6363  161.4311 H   0  0  0  0  0  0  0  0  0  0  0  0
  153.9845  139.2543  159.5107 H   0  0  0  0  0  0  0  0  0  0  0  0
  150.6736  141.4565  157.4719 H   0  0  0  0  0  0  0  0  0  0  0  0
  149.9456  142.5103  155.1175 H   0  0  0  0  0  0  0  0  0  0  0  0
  148.1230  140.6541  156.8416 H   0  0  0  0  0  0  0  0  0  0  0  0
  146.6489  142.6363  155.8152 H   0  0  0  0  0  0  0  0  0  0  0  0
  145.9345  140.0150  155.8086 H   0  0  0  0  0  0  0  0  0  0  0  0
  145.1402  141.0354  154.6089 H   0  0  0  0  0  0  0  0  0  0  0  0
  147.0425  138.8687  154.0403 H   0  0  0  0  0  0  0  0  0  0  0  0
  146.2195  139.9178  152.8856 H   0  0  0  0  0  0  0  0  0  0  0  0
  148.6251  140.5917  152.6560 H   0  0  0  0  0  0  0  0  0  0  0  0
  146.7371  142.4088  153.1577 H   0  0  0  0  0  0  0  0  0  0  0  0
  148.2966  142.9416  153.7883 H   0  0  0  0  0  0  0  0  0  0  0  0
  149.2963  139.4549  154.9797 H   0  0  0  0  0  0  0  0  0  0  0  0
  151.6693  142.3958  157.7661 H   0  0  0  0  0  0  0  0  0  0  0  0
  1  2  1  0  0  0  0
  1 22  1  0  0  0  0
  1 23  1  0  0  0  0
  1 24  1  0  0  0  0
  2  3  1  0  0  0  0
  2  4  1  0  0  0  0
  3 25  1  0  0  0  0
  3 26  1  0  0  0  0
  3 27  1  0  0  0  0
  4 21  1  0  0  0  0
  4  5  2  0  0  0  0
  5  6  1  0  0  0  0
  5 28  1  0  0  0  0
  6  7  2  0  0  0  0
  6 29  1  0  0  0  0
  7  8  1  0  0  0  0
  7 30  1  0  0  0  0
  8  9  2  0  0  0  0
  8 21  1  0  0  0  0
  9 10  1  0  0  0  0
 10 11  2  0  0  0  0
 10 12  1  0  0  0  0
 12 13  1  0  0  0  0
 12 31  1  0  0  0  0
 13 20  1  0  0  0  0
 13 14  1  0  0  0  0
 13 32  1  0  0  0  0
 14 20  1  0  0  0  0
 14 15  1  0  0  0  0
 14 33  1  0  0  0  0
 15 19  1  0  0  0  0
 15 16  1  0  0  0  0
 15 34  1  0  0  0  0
 16 17  1  0  0  0  0
 16 35  1  0  0  0  0
 16 36  1  0  0  0  0
 17 18  1  0  0  0  0
 17 37  1  0  0  0  0
 17 38  1  0  0  0  0
 18 19  1  0  0  0  0
 18 20  1  0  0  0  0
 18 39  1  0  0  0  0
 19 40  1  0  0  0  0
 19 41  1  0  0  0  0
 20 42  1  0  0  0  0
 21 43  1  0  0  0  0
M  END
> <s_m_source_file>
AV-unprocessed.smi

> <i_m_source_file_index>
2706

> <i_lp_mmshare_version>
43012

> <i_f3d_flags>
0

> <s_epik_input>
W0NIM11OKFtDSDNdKWMxW2NIXVtjSF1bY0hdYyhuMSlbTkhdQyg9TylbTkhdW0NASF0yW0NAQEhdM1tDQEBIXShbQ0gyXTQpW0NIMl1bQ0gyXVtDQEBIXTRbQ0BIXTIz

> <s_epik_cmdline>
J2VwaWtfcHl0aG9uJywgJy1waCcsICc3LjAnLCAnLXRuJywgJzgnLCAnLW1hJywgJzIwMCcsICctbWV0YWxfYmluZGluZycsICctaW1hZScsICc8aW5maWxlLm1hZT4nLCAnLW9tYWUnLCAnPG91dGZpbGUubWFlPic=

> <r_lp_tautomer_probability>
0.999994

> <r_epik_Ionization_Penalty>
2.07242

> <r_epik_Ionization_Penalty_Charging>
2.07242

> <r_epik_Ionization_Penalty_Neutral>
9.73808e-07

> <r_epik_State_Penalty>
3.96009

> <r_epik_Charging_Adjusted_Penalty>
6.03251

> <i_epik_Tot_Q>
0

> <i_epik_Tot_abs_Q>
0

> <r_epik_Metal_State_Penalty>
3.98849

> <b_epik_Metal_Only>
1

> <s_lp_Force_Field>
OPLS_2005

> <r_lp_Energy>
89.4683

> <b_lp_Chiralities_Consistent>
1

> <s_lp_Variant>
AV-unprocessed.smi:2706-10

> <Gold.Version>
5.8.1

> <Gold.Id.Protein>
6NUR|6NUR_protein|mol2

> <Gold.PLP.Fitness>
49.0907

> <Gold.PLP.PLP>
-43.4714

> <Gold.PLP.part.hbond>
-2.0000

> <Gold.PLP.part.metal>
0.0000

> <Gold.PLP.part.buried>
-3.5546

> <Gold.PLP.part.nonpolar>
-37.8978

> <Gold.PLP.part.repulsive>
0.1793

> <Gold.PLP.ligand.clash>
0.0797

> <Gold.PLP.ligand.torsion>
0.1303

> <Gold.PLP.Chemscore.Hbond>
1.9760

> <Gold.PLP.Chemscore.CHOScore>
0.0000

> <Gold.PLP.Chemscore.Metal>
0.0000

> <Gold.Chemscore.Hbonds>
donor molecule, donor type, donor heavy atom, donor atom, acceptor molecule, acceptor atom, score
      P1  H  7989  7998       L1    11  0.96
      P1  H  7997  8009       L1     9  0.99

> <Gold.PLP.Chemscore.Internal.Correction>
0.0316

> <Gold.Rescore>
     Score         DG    S(hbond)    S(metal)    S(lipo)     H(rot)  DE(clash)    DE(int)     intcor
     14.86     -17.44       1.03        0.00      94.59       1.00       0.10       2.48       ----

> <Gold.Chemscore.Fitness>
14.8603

> <Gold.Chemscore.DG>
-17.4417

> <Gold.Chemscore.ZeroCoef>
-5.4800

> <Gold.Chemscore.Hbond>
1.0343

> <Gold.Chemscore.Metal>
0.0000

> <Gold.Chemscore.Lipo>
94.5906

> <Gold.Chemscore.Internal_Hbond>
0.0000

> <Gold.Chemscore.DEClash>
0.1049

> <Gold.Chemscore.DEInternal>
2.4765

> <Gold.Chemscore.Rot>
1.0000

> <Gold.Chemscore.Internal.Correction>
   9.000000E+99

> <Gold.Chemscore.Hbonds>
donor molecule, donor type, donor heavy atom, donor atom, acceptor molecule, acceptor atom, score
      P1  H  7989  7998       L1    11  0.87
      P1  H  7997  8009       L1     9  0.08

> <Gold.Chemscore.Hbond.Weighted>
-3.4546

> <Gold.Chemscore.Metal.Weighted>
-0.0000

> <Gold.Chemscore.Lipo.Weighted>
-11.0671

> <Gold.Chemscore.Internal_Hbond.Weighted>
0.0000

> <Gold.Chemscore.DEClash.Weighted>
0.1049

> <Gold.Chemscore.DEInternal.Weighted>
2.4765

> <Gold.Chemscore.Rot.Weighted>
2.5600

> <Gold.Chemscore.Internal.Correction.Weighted>
   9.000000E+99

> <Gold.Protein.RotatedTorsions>
[ 6907 6896 6895 6894 ] final  -59.49 input  -60.11 | X-H torsion
[ 7974 7965 7964 7962 ] final -155.39 input  175.53 | X-H torsion
[ 8008 7997 7996 7995 ] final -167.89 input   59.86 | X-H torsion
[ 10167 10162 10161 10158 ] final -110.93 input  -65.29 | X-H torsion
[ 10718 10713 10712 10709 ] final   14.23 input   66.30 | X-H torsion
[ 10763 10752 10751 10750 ] final  177.09 input  -60.55 | X-H torsion
[ 11005 11000 10999 10996 ] final -160.07 input  -57.11 | X-H torsion

> <Gold.Protein.ActiveResidues>
 VAL166  LYS551  ARG553  GLY616  TRP617  ASP618  TYR619  PRO620  LYS621  CYS622 
 ASP623  PHE694  ASN695  SER759  ASP760  ASP761  ALA762  ILE779  LEU786  VAL792 
 PHE793  MET794  SER795  GLU796  ALA797  LYS798  CYS799  TRP800  GLU811  SER814 

> <Gold.Protein.RotatedAtoms>
  150.7926  134.6961  159.6523 H   0  0  0  0  0  0  0  0  0  0  0  0  # atno 6907 bound_to 6896
  152.4034  134.6245  160.0069 H   0  0  0  0  0  0  0  0  0  0  0  0  # atno 6908 bound_to 6896
  151.6510  133.3284  159.3188 H   0  0  0  0  0  0  0  0  0  0  0  0  # atno 6909 bound_to 6896
  144.7642  140.4255  143.5954 H   0  0  0  0  0  0  0  0  0  0  0  0  # atno 7974 bound_to 7965
  155.8839  140.1013  157.1466 H   0  0  0  0  0  0  0  0  0  0  0  0  # atno 8008 bound_to 7997
  154.4008  140.1323  156.4295 H   0  0  0  0  0  0  0  0  0  0  0  0  # atno 8009 bound_to 7997
  155.7611  140.3463  155.5201 H   0  0  0  0  0  0  0  0  0  0  0  0  # atno 8010 bound_to 7997
  140.1392  143.4294  152.1574 H   0  0  0  0  0  0  0  0  0  0  0  0  # atno 10167 bound_to 10162
  157.0361  130.6212  149.5743 H   0  0  0  0  0  0  0  0  0  0  0  0  # atno 10718 bound_to 10713
  154.4898  135.2778  155.1505 H   0  0  0  0  0  0  0  0  0  0  0  0  # atno 10763 bound_to 10752
  154.3181  135.6215  153.5499 H   0  0  0  0  0  0  0  0  0  0  0  0  # atno 10764 bound_to 10752
  152.9886  135.5736  154.5317 H   0  0  0  0  0  0  0  0  0  0  0  0  # atno 10765 bound_to 10752
  140.6355  134.4606  157.5231 H   0  0  0  0  0  0  0  0  0  0  0  0  # atno 11005 bound_to 11000
  145.6522  139.1567  143.2855 LP  0  0  0  0  0  0  0  0  0  0  0  0  # atno 17320 bound_to 7965
  146.1734  140.6610  142.9222 LP  0  0  0  0  0  0  0  0  0  0  0  0  # atno 17321 bound_to 7965
  139.5481  144.7315  151.4521 LP  0  0  0  0  0  0  0  0  0  0  0  0  # atno 17342 bound_to 10162
  140.6771  143.8166  150.7072 LP  0  0  0  0  0  0  0  0  0  0  0  0  # atno 17343 bound_to 10162
  156.0053  130.5139  150.7808 LP  0  0  0  0  0  0  0  0  0  0  0  0  # atno 17370 bound_to 10713
  157.5140  131.0927  151.0162 LP  0  0  0  0  0  0  0  0  0  0  0  0  # atno 17371 bound_to 10713
  139.9100  134.8366  156.1565 LP  0  0  0  0  0  0  0  0  0  0  0  0  # atno 17394 bound_to 11000
  141.0644  133.6826  156.2016 LP  0  0  0  0  0  0  0  0  0  0  0  0  # atno 17395 bound_to 11000

$$$$
