AV-unprocessed.smi:1401|AV-procd|sdf|5692|dock9
  -GOLD-   22720 5323D 1   1.00000     0.00000
 Structure written by MMmdl.
 48 50  0  0  0  0  0  0  0  0  1 V2000
  147.4443  137.7894  154.4913 C   0  0  0  0  0  0  0  0  0  0  0  0
  148.7489  137.2089  154.9674 C   0  0  0  0  0  0  0  0  0  0  0  0
  149.6499  138.0503  155.3552 N   0  0  0  0  0  0  0  0  0  0  0  0
  150.8820  137.6255  155.8134 N   0  0  0  0  0  0  0  0  0  0  0  0
  151.7888  138.7192  156.1929 C   0  0  0  0  0  0  0  0  0  0  0  0
  151.1328  140.1074  156.1468 C   0  0  0  0  0  0  0  0  0  0  0  0
  150.6282  140.5360  155.1078 O   0  0  0  0  0  0  0  0  0  0  0  0
  151.1402  140.7935  157.3003 N   0  0  0  0  0  0  0  0  0  0  0  0
  150.5803  142.1290  157.5035 C   0  0  2  0  0  0  0  0  0  0  0  0
  151.1082  143.0555  156.3937 C   0  0  0  0  0  0  0  0  0  0  0  0
  150.9333  142.6293  158.9265 C   0  0  2  0  0  0  0  0  0  0  0  0
  150.3051  144.0024  159.2769 C   0  0  0  0  0  0  0  0  0  0  0  0
  151.5121  144.8421  159.7298 C   0  0  1  0  0  0  0  0  0  0  0  0
  152.0339  144.3123  161.0775 C   0  0  0  0  0  0  0  0  0  0  0  0
  152.7026  142.9830  160.6808 C   0  0  0  0  0  0  0  0  0  0  0  0
  152.4397  142.9086  159.1642 C   0  0  2  0  0  0  0  0  0  0  0  0
  152.5888  144.3725  158.7617 C   0  0  0  0  0  0  0  0  0  0  0  0
  151.2636  136.3197  155.9182 C   0  0  0  0  0  0  0  0  0  0  0  0
  152.3694  135.9848  156.3458 O   0  0  0  0  0  0  0  0  0  0  0  0
  150.2391  135.3720  155.4740 C   0  0  0  0  0  0  0  0  0  0  0  0
  150.5977  133.9934  155.5651 C   0  0  0  0  0  0  0  0  0  0  0  0
  150.9030  132.8781  155.6239 N   0  0  0  0  0  0  0  0  0  0  0  0
  149.0310  135.7774  155.0091 C   0  0  0  0  0  0  0  0  0  0  0  0
  147.9355  134.8306  154.5386 C   0  0  0  0  0  0  0  0  0  0  0  0
  146.6017  137.3310  155.0097 H   0  0  0  0  0  0  0  0  0  0  0  0
  147.3157  137.6227  153.4215 H   0  0  0  0  0  0  0  0  0  0  0  0
  147.3900  138.8650  154.6670 H   0  0  0  0  0  0  0  0  0  0  0  0
  152.1694  138.5589  157.2034 H   0  0  0  0  0  0  0  0  0  0  0  0
  152.6686  138.7149  155.5467 H   0  0  0  0  0  0  0  0  0  0  0  0
  151.5727  140.3590  158.1025 H   0  0  0  0  0  0  0  0  0  0  0  0
  149.4934  142.0825  157.4183 H   0  0  0  0  0  0  0  0  0  0  0  0
  150.6573  144.0458  156.4413 H   0  0  0  0  0  0  0  0  0  0  0  0
  150.8818  142.6509  155.4066 H   0  0  0  0  0  0  0  0  0  0  0  0
  152.1897  143.1781  156.4602 H   0  0  0  0  0  0  0  0  0  0  0  0
  150.5866  141.8803  159.6406 H   0  0  0  0  0  0  0  0  0  0  0  0
  149.8431  144.4668  158.4045 H   0  0  0  0  0  0  0  0  0  0  0  0
  149.5404  143.9231  160.0503 H   0  0  0  0  0  0  0  0  0  0  0  0
  151.3243  145.9161  159.7244 H   0  0  0  0  0  0  0  0  0  0  0  0
  152.7662  144.9959  161.5088 H   0  0  0  0  0  0  0  0  0  0  0  0
  151.2328  144.1758  161.8048 H   0  0  0  0  0  0  0  0  0  0  0  0
  153.7735  143.0189  160.8848 H   0  0  0  0  0  0  0  0  0  0  0  0
  152.2902  142.1298  161.2204 H   0  0  0  0  0  0  0  0  0  0  0  0
  153.1186  142.2266  158.6542 H   0  0  0  0  0  0  0  0  0  0  0  0
  152.3465  144.5668  157.7157 H   0  0  0  0  0  0  0  0  0  0  0  0
  153.5758  144.7837  158.9811 H   0  0  0  0  0  0  0  0  0  0  0  0
  148.2990  133.8099  154.4230 H   0  0  0  0  0  0  0  0  0  0  0  0
  147.5385  135.1405  153.5715 H   0  0  0  0  0  0  0  0  0  0  0  0
  147.1167  134.8132  155.2586 H   0  0  0  0  0  0  0  0  0  0  0  0
  1  2  1  0  0  0  0
  1 25  1  0  0  0  0
  1 26  1  0  0  0  0
  1 27  1  0  0  0  0
  2 23  1  0  0  0  0
  2  3  2  0  0  0  0
  3  4  1  0  0  0  0
  4  5  1  0  0  0  0
  4 18  1  0  0  0  0
  5  6  1  0  0  0  0
  5 28  1  0  0  0  0
  5 29  1  0  0  0  0
  6  7  2  0  0  0  0
  6  8  1  0  0  0  0
  8  9  1  0  0  0  0
  8 30  1  0  0  0  0
  9 10  1  0  0  0  0
  9 11  1  0  0  0  0
  9 31  1  0  0  0  0
 10 32  1  0  0  0  0
 10 33  1  0  0  0  0
 10 34  1  0  0  0  0
 11 16  1  0  0  0  0
 11 12  1  0  0  0  0
 11 35  1  0  0  0  0
 12 13  1  0  0  0  0
 12 36  1  0  0  0  0
 12 37  1  0  0  0  0
 13 17  1  0  0  0  0
 13 14  1  0  0  0  0
 13 38  1  0  0  0  0
 14 15  1  0  0  0  0
 14 39  1  0  0  0  0
 14 40  1  0  0  0  0
 15 16  1  0  0  0  0
 15 41  1  0  0  0  0
 15 42  1  0  0  0  0
 16 17  1  0  0  0  0
 16 43  1  0  0  0  0
 17 44  1  0  0  0  0
 17 45  1  0  0  0  0
 18 19  2  0  0  0  0
 18 20  1  0  0  0  0
 20 21  1  0  0  0  0
 20 23  2  0  0  0  0
 21 22  3  0  0  0  0
 23 24  1  0  0  0  0
 24 46  1  0  0  0  0
 24 47  1  0  0  0  0
 24 48  1  0  0  0  0
M  END
> <s_m_source_file>
AV-unprocessed.smi

> <i_m_source_file_index>
1401

> <i_lp_mmshare_version>
43012

> <i_f3d_flags>
0

> <s_epik_input>
TiNDYyhjMVtDSDNdKWMoPU8pbihuYzFbQ0gzXSlbQ0gyXUMoPU8pW05IXVtDQEhdKFtDSDNdKVtDQEhdKFtDSDJdW0NASF0yMylbQ0BIXShbQ0gyXTMpW0NIMl1bQ0gyXTI=

> <s_epik_cmdline>
J2VwaWtfcHl0aG9uJywgJy1waCcsICc3LjAnLCAnLXRuJywgJzgnLCAnLW1hJywgJzIwMCcsICctbWV0YWxfYmluZGluZycsICctaW1hZScsICc8aW5maWxlLm1hZT4nLCAnLW9tYWUnLCAnPG91dGZpbGUubWFlPic=

> <r_lp_tautomer_probability>
1

> <r_epik_Ionization_Penalty>
2.16501e-08

> <r_epik_Ionization_Penalty_Charging>
2.29436e-11

> <r_epik_Ionization_Penalty_Neutral>
2.16271e-08

> <r_epik_State_Penalty>
-0

> <r_epik_Charging_Adjusted_Penalty>
2.29436e-11

> <i_epik_Tot_Q>
0

> <i_epik_Tot_abs_Q>
0

> <r_epik_Metal_State_Penalty>
-0

> <b_epik_Metal_Only>
0

> <s_lp_Force_Field>
OPLS_2005

> <r_lp_Energy>
66.5869

> <b_lp_Chiralities_Consistent>
1

> <s_lp_Variant>
AV-unprocessed.smi:1401-5

> <Gold.Version>
5.8.1

> <Gold.Id.Protein>
6NUR|6NUR_protein|mol2

> <Gold.PLP.Fitness>
45.6339

> <Gold.PLP.PLP>
-39.8841

> <Gold.PLP.part.hbond>
-2.0000

> <Gold.PLP.part.metal>
0.0000

> <Gold.PLP.part.buried>
-4.3923

> <Gold.PLP.part.nonpolar>
-33.9348

> <Gold.PLP.part.repulsive>
0.2015

> <Gold.PLP.ligand.clash>
0.0000

> <Gold.PLP.ligand.torsion>
0.1383

> <Gold.PLP.Chemscore.Hbond>
2.0000

> <Gold.PLP.Chemscore.CHOScore>
0.0000

> <Gold.PLP.Chemscore.Metal>
0.0000

> <Gold.Chemscore.Hbonds>
donor molecule, donor type, donor heavy atom, donor atom, acceptor molecule, acceptor atom, score
      P1  H  7989  7998       L1     7  0.99
      P1  H 10752 10763       L1    19  1.00

> <Gold.PLP.Chemscore.Internal.Correction>
0.0265

> <Gold.Rescore>
     Score         DG    S(hbond)    S(metal)    S(lipo)     H(rot)  DE(clash)    DE(int)     intcor
     17.23     -21.53       1.92        0.00     117.96       1.63       1.48       2.83       ----

> <Gold.Chemscore.Fitness>
17.2276

> <Gold.Chemscore.DG>
-21.5330

> <Gold.Chemscore.ZeroCoef>
-5.4800

> <Gold.Chemscore.Hbond>
1.9222

> <Gold.Chemscore.Metal>
0.0000

> <Gold.Chemscore.Lipo>
117.9557

> <Gold.Chemscore.Internal_Hbond>
0.0000

> <Gold.Chemscore.DEClash>
1.4777

> <Gold.Chemscore.DEInternal>
2.8277

> <Gold.Chemscore.Rot>
1.6281

> <Gold.Chemscore.Internal.Correction>
   9.000000E+99

> <Gold.Chemscore.Hbonds>
donor molecule, donor type, donor heavy atom, donor atom, acceptor molecule, acceptor atom, score
      P1  H  7989  7998       L1     7  0.93
      P1  H 10752 10763       L1    19  0.59

> <Gold.Chemscore.Hbond.Weighted>
-6.4200

> <Gold.Chemscore.Metal.Weighted>
-0.0000

> <Gold.Chemscore.Lipo.Weighted>
-13.8008

> <Gold.Chemscore.Internal_Hbond.Weighted>
0.0000

> <Gold.Chemscore.DEClash.Weighted>
1.4777

> <Gold.Chemscore.DEInternal.Weighted>
2.8277

> <Gold.Chemscore.Rot.Weighted>
4.1678

> <Gold.Chemscore.Internal.Correction.Weighted>
   9.000000E+99

> <Gold.Protein.RotatedTorsions>
[ 6907 6896 6895 6894 ] final -140.80 input  -60.11 | X-H torsion
[ 7974 7965 7964 7962 ] final   -2.58 input  175.53 | X-H torsion
[ 8008 7997 7996 7995 ] final  -58.45 input   59.86 | X-H torsion
[ 10167 10162 10161 10158 ] final    2.29 input  -65.29 | X-H torsion
[ 10718 10713 10712 10709 ] final  -81.17 input   66.30 | X-H torsion
[ 10763 10752 10751 10750 ] final   94.08 input  -60.55 | X-H torsion
[ 11005 11000 10999 10996 ] final -156.61 input  -57.11 | X-H torsion

> <Gold.Protein.ActiveResidues>
 VAL166  LYS551  ARG553  GLY616  TRP617  ASP618  TYR619  PRO620  LYS621  CYS622 
 ASP623  PHE694  ASN695  SER759  ASP760  ASP761  ALA762  ILE779  LEU786  VAL792 
 PHE793  MET794  SER795  GLU796  ALA797  LYS798  CYS799  TRP800  GLU811  SER814 

> <Gold.Protein.RotatedAtoms>
  151.0655  133.5509  159.2630 H   0  0  0  0  0  0  0  0  0  0  0  0  # atno 6907 bound_to 6896
  151.2468  135.0607  159.9056 H   0  0  0  0  0  0  0  0  0  0  0  0  # atno 6908 bound_to 6896
  152.5404  134.0421  159.8126 H   0  0  0  0  0  0  0  0  0  0  0  0  # atno 6909 bound_to 6896
  146.2402  140.1592  142.8333 H   0  0  0  0  0  0  0  0  0  0  0  0  # atno 7974 bound_to 7965
  154.4309  140.1084  156.5959 H   0  0  0  0  0  0  0  0  0  0  0  0  # atno 8008 bound_to 7997
  155.5962  140.3492  155.4562 H   0  0  0  0  0  0  0  0  0  0  0  0  # atno 8009 bound_to 7997
  156.0208  140.1239  157.0349 H   0  0  0  0  0  0  0  0  0  0  0  0  # atno 8010 bound_to 7997
  140.6642  143.7224  150.7795 H   0  0  0  0  0  0  0  0  0  0  0  0  # atno 10167 bound_to 10162
  156.0055  130.4596  150.3912 H   0  0  0  0  0  0  0  0  0  0  0  0  # atno 10718 bound_to 10713
  153.2376  135.4302  155.0663 H   0  0  0  0  0  0  0  0  0  0  0  0  # atno 10763 bound_to 10752
  154.8326  135.3395  154.6696 H   0  0  0  0  0  0  0  0  0  0  0  0  # atno 10764 bound_to 10752
  153.7121  135.7022  153.5091 H   0  0  0  0  0  0  0  0  0  0  0  0  # atno 10765 bound_to 10752
  140.6736  134.4220  157.5230 H   0  0  0  0  0  0  0  0  0  0  0  0  # atno 11005 bound_to 11000
  145.0104  140.8709  143.5228 LP  0  0  0  0  0  0  0  0  0  0  0  0  # atno 17320 bound_to 7965
  145.1624  139.2451  143.5384 LP  0  0  0  0  0  0  0  0  0  0  0  0  # atno 17321 bound_to 7965
  140.0898  143.4888  152.2485 LP  0  0  0  0  0  0  0  0  0  0  0  0  # atno 17342 bound_to 10162
  139.5885  144.7541  151.3459 LP  0  0  0  0  0  0  0  0  0  0  0  0  # atno 17343 bound_to 10162
  157.1986  131.0432  151.2662 LP  0  0  0  0  0  0  0  0  0  0  0  0  # atno 17370 bound_to 10713
  157.3996  130.7326  149.6757 LP  0  0  0  0  0  0  0  0  0  0  0  0  # atno 17371 bound_to 10713
  139.8973  134.8638  156.2048 LP  0  0  0  0  0  0  0  0  0  0  0  0  # atno 17394 bound_to 11000
  141.0372  133.6957  156.1534 LP  0  0  0  0  0  0  0  0  0  0  0  0  # atno 17395 bound_to 11000

$$$$
