AV-unprocessed.smi:184|AV-procd|sdf|1461|dock10
  -GOLD-   2262019273D 1   1.00000     0.00000
 Structure written by MMmdl.
 54 58  0  0  0  0  0  0  0  0  1 V2000
  141.9593  134.6995  152.8802 O   0  0  0  0  0  0  0  0  0  0  0  0
  143.0394  134.9257  152.3401 C   0  0  0  0  0  0  0  0  0  0  0  0
  143.8757  136.1351  152.7966 C   0  0  0  0  0  0  0  0  0  0  0  0
  145.1040  136.3492  152.0131 N   0  0  0  0  0  0  0  0  0  0  0  0
  145.8702  137.4312  152.3090 C   0  0  0  0  0  0  0  0  0  0  0  0
  146.1057  138.3662  151.3504 N   0  0  0  0  0  0  0  0  0  0  0  0
  146.8493  139.4420  151.6225 C   0  0  0  0  0  0  0  0  0  0  0  0
  147.4494  139.7730  152.7667 N   0  0  0  0  0  0  0  0  0  0  0  0
  147.2276  138.8351  153.7309 C   0  0  0  0  0  0  0  0  0  0  0  0
  146.4594  137.6446  153.5883 C   0  0  0  0  0  0  0  0  0  0  0  0
  146.4787  136.9276  154.7793 N   0  0  0  0  0  0  0  0  0  0  0  0
  147.2015  137.6594  155.5823 C   0  0  0  0  0  0  0  0  0  0  0  0
  147.6853  138.8272  155.0372 N   0  0  0  0  0  0  0  0  0  0  0  0
  148.5162  139.8203  155.7026 C   0  0  0  0  0  0  0  0  0  0  0  0
  149.8485  140.1288  154.9659 C   0  0  0  0  0  0  0  0  0  0  0  0
  149.5227  140.7704  153.7463 O   0  0  0  0  0  0  0  0  0  0  0  0
  150.7348  141.1003  155.7708 C   0  0  0  0  0  0  0  0  0  0  0  0
  151.4105  140.3988  156.9633 C   0  0  0  0  0  0  0  0  0  0  0  0
  152.1581  139.2761  156.5083 O   0  0  0  0  0  0  0  0  0  0  0  0
  151.3508  138.2869  155.8795 C   0  0  0  0  0  0  0  0  0  0  0  0
  150.6841  138.8764  154.6240 C   0  0  0  0  0  0  0  0  0  0  0  0
  145.7841  135.1745  151.4642 C   0  0  1  0  0  0  0  0  0  0  0  0
  146.4456  134.3316  152.5821 C   0  0  0  0  0  0  0  0  0  0  0  0
  147.0513  133.0312  152.0343 C   0  0  0  0  0  0  0  0  0  0  0  0
  145.9938  132.2054  151.2875 C   0  0  0  0  0  0  0  0  0  0  0  0
  145.3701  133.0224  150.1448 C   0  0  0  0  0  0  0  0  0  0  0  0
  144.7667  134.3521  150.6381 C   0  0  1  0  0  0  0  0  0  0  0  0
  143.5190  134.1300  151.3690 N   0  0  0  0  0  0  0  0  0  0  0  0
  143.2520  137.0282  152.7376 H   0  0  0  0  0  0  0  0  0  0  0  0
  144.1239  135.9830  153.8479 H   0  0  0  0  0  0  0  0  0  0  0  0
  146.9823  140.1377  150.8070 H   0  0  0  0  0  0  0  0  0  0  0  0
  147.4019  137.3667  156.6027 H   0  0  0  0  0  0  0  0  0  0  0  0
  147.9273  140.7328  155.8084 H   0  0  0  0  0  0  0  0  0  0  0  0
  148.7065  139.4724  156.7175 H   0  0  0  0  0  0  0  0  0  0  0  0
  149.3816  140.1078  153.0873 H   0  0  0  0  0  0  0  0  0  0  0  0
  151.5180  141.5030  155.1264 H   0  0  0  0  0  0  0  0  0  0  0  0
  150.1538  141.9565  156.1158 H   0  0  0  0  0  0  0  0  0  0  0  0
  152.0897  141.0890  157.4635 H   0  0  0  0  0  0  0  0  0  0  0  0
  150.6794  140.0856  157.7091 H   0  0  0  0  0  0  0  0  0  0  0  0
  151.9834  137.4435  155.6030 H   0  0  0  0  0  0  0  0  0  0  0  0
  150.6108  137.9071  156.5840 H   0  0  0  0  0  0  0  0  0  0  0  0
  150.0829  138.1194  154.1204 H   0  0  0  0  0  0  0  0  0  0  0  0
  151.4724  139.1459  153.9193 H   0  0  0  0  0  0  0  0  0  0  0  0
  146.5760  135.4775  150.7804 H   0  0  0  0  0  0  0  0  0  0  0  0
  147.2217  134.9153  153.0785 H   0  0  0  0  0  0  0  0  0  0  0  0
  145.7170  134.0796  153.3532 H   0  0  0  0  0  0  0  0  0  0  0  0
  147.8785  133.2652  151.3631 H   0  0  0  0  0  0  0  0  0  0  0  0
  147.4714  132.4448  152.8519 H   0  0  0  0  0  0  0  0  0  0  0  0
  146.4454  131.2965  150.8894 H   0  0  0  0  0  0  0  0  0  0  0  0
  145.2168  131.8852  151.9828 H   0  0  0  0  0  0  0  0  0  0  0  0
  146.1399  133.2349  149.4018 H   0  0  0  0  0  0  0  0  0  0  0  0
  144.6113  132.4303  149.6319 H   0  0  0  0  0  0  0  0  0  0  0  0
  144.4908  134.9381  149.7598 H   0  0  0  0  0  0  0  0  0  0  0  0
  142.9638  133.3322  151.0955 H   0  0  0  0  0  0  0  0  0  0  0  0
  1  2  2  0  0  0  0
  2 28  1  0  0  0  0
  2  3  1  0  0  0  0
  3  4  1  0  0  0  0
  3 29  1  0  0  0  0
  3 30  1  0  0  0  0
  4  5  1  0  0  0  0
  4 22  1  0  0  0  0
  5 10  1  0  0  0  0
  5  6  2  0  0  0  0
  6  7  1  0  0  0  0
  7  8  2  0  0  0  0
  7 31  1  0  0  0  0
  8  9  1  0  0  0  0
  9 13  1  0  0  0  0
  9 10  2  0  0  0  0
 10 11  1  0  0  0  0
 11 12  2  0  0  0  0
 12 13  1  0  0  0  0
 12 32  1  0  0  0  0
 13 14  1  0  0  0  0
 14 15  1  0  0  0  0
 14 33  1  0  0  0  0
 14 34  1  0  0  0  0
 15 21  1  0  0  0  0
 15 16  1  0  0  0  0
 15 17  1  0  0  0  0
 16 35  1  0  0  0  0
 17 18  1  0  0  0  0
 17 36  1  0  0  0  0
 17 37  1  0  0  0  0
 18 19  1  0  0  0  0
 18 38  1  0  0  0  0
 18 39  1  0  0  0  0
 19 20  1  0  0  0  0
 20 21  1  0  0  0  0
 20 40  1  0  0  0  0
 20 41  1  0  0  0  0
 21 42  1  0  0  0  0
 21 43  1  0  0  0  0
 22 27  1  0  0  0  0
 22 23  1  0  0  0  0
 22 44  1  0  0  0  0
 23 24  1  0  0  0  0
 23 45  1  0  0  0  0
 23 46  1  0  0  0  0
 24 25  1  0  0  0  0
 24 47  1  0  0  0  0
 24 48  1  0  0  0  0
 25 26  1  0  0  0  0
 25 49  1  0  0  0  0
 25 50  1  0  0  0  0
 26 27  1  0  0  0  0
 26 51  1  0  0  0  0
 26 52  1  0  0  0  0
 27 28  1  0  0  0  0
 27 53  1  0  0  0  0
 28 54  1  0  0  0  0
M  END
> <s_m_source_file>
AV-unprocessed.smi

> <i_m_source_file_index>
184

> <i_lp_mmshare_version>
43012

> <i_f3d_flags>
0

> <s_epik_input>
W0NIMl0xW0NIMl1bQ0gyXVtDSDJdW0NASF0oW0NASF0xMilbTkhdQyg9TylbQ0gyXU4yYyhuW2NIXW4zKWMoYzM0KW5bY0hdbjRbQ0gyXUM1KFtPSF0pW0NIMl1bQ0gyXU9bQ0gyXVtDSDJdNQ==

> <s_epik_cmdline>
J2VwaWtfcHl0aG9uJywgJy1waCcsICc3LjAnLCAnLXRuJywgJzgnLCAnLW1hJywgJzIwMCcsICctbWV0YWxfYmluZGluZycsICctaW1hZScsICc8aW5maWxlLm1hZT4nLCAnLW9tYWUnLCAnPG91dGZpbGUubWFlPic=

> <r_lp_tautomer_probability>
1

> <r_epik_Ionization_Penalty>
0.000822761

> <r_epik_Ionization_Penalty_Charging>
0

> <r_epik_Ionization_Penalty_Neutral>
0.000822761

> <r_epik_State_Penalty>
0.000403048

> <r_epik_Charging_Adjusted_Penalty>
0.000403048

> <i_epik_Tot_Q>
0

> <i_epik_Tot_abs_Q>
0

> <r_epik_Metal_State_Penalty>
-0

> <b_epik_Metal_Only>
0

> <s_lp_Force_Field>
OPLS_2005

> <r_lp_Energy>
37.4229

> <b_lp_Chiralities_Consistent>
1

> <s_lp_Variant>
AV-unprocessed.smi:184-1

> <Gold.Version>
5.8.1

> <Gold.Id.Protein>
6NUR|6NUR_protein|mol2

> <Gold.PLP.Fitness>
42.9366

> <Gold.PLP.PLP>
-37.9863

> <Gold.PLP.part.hbond>
-3.9522

> <Gold.PLP.part.metal>
0.0000

> <Gold.PLP.part.buried>
-3.6619

> <Gold.PLP.part.nonpolar>
-34.7289

> <Gold.PLP.part.repulsive>
6.8133

> <Gold.PLP.ligand.clash>
0.0000

> <Gold.PLP.ligand.torsion>
1.3675

> <Gold.PLP.Chemscore.Hbond>
2.4030

> <Gold.PLP.Chemscore.CHOScore>
0.0946

> <Gold.PLP.Chemscore.Metal>
0.0000

> <Gold.Chemscore.Hbonds>
donor molecule, donor type, donor heavy atom, donor atom, acceptor molecule, acceptor atom, score
      L1  H    16    35       P1  7957  0.69
      P1  H  7989  7998       L1    16  0.07
      P1  H  7997  8009       L1    19  0.23
      P1  H  8011  8017       L1    16  0.46
      L1  C     7    31       P1  7957  0.19

> <Gold.PLP.Chemscore.Internal.Correction>
0.1925

> <Gold.Rescore>
     Score         DG    S(hbond)    S(metal)    S(lipo)     H(rot)  DE(clash)    DE(int)     intcor
      9.33     -13.73       1.24        0.00      75.03       1.83       2.07       2.34       ----

> <Gold.Chemscore.Fitness>
9.3255

> <Gold.Chemscore.DG>
-13.7338

> <Gold.Chemscore.ZeroCoef>
-5.4800

> <Gold.Chemscore.Hbond>
1.2419

> <Gold.Chemscore.Metal>
0.0000

> <Gold.Chemscore.Lipo>
75.0340

> <Gold.Chemscore.Internal_Hbond>
0.0000

> <Gold.Chemscore.DEClash>
2.0711

> <Gold.Chemscore.DEInternal>
2.3372

> <Gold.Chemscore.Rot>
1.8255

> <Gold.Chemscore.Internal.Correction>
   9.000000E+99

> <Gold.Chemscore.Hbonds>
donor molecule, donor type, donor heavy atom, donor atom, acceptor molecule, acceptor atom, score
      L1  H    16    35       P1  7957  0.67
      P1  H  7997  8009       L1    19  0.10
      P1  H  8011  8017       L1    16  0.06

> <Gold.Chemscore.Hbond.Weighted>
-4.1480

> <Gold.Chemscore.Metal.Weighted>
-0.0000

> <Gold.Chemscore.Lipo.Weighted>
-8.7790

> <Gold.Chemscore.Internal_Hbond.Weighted>
0.0000

> <Gold.Chemscore.DEClash.Weighted>
2.0711

> <Gold.Chemscore.DEInternal.Weighted>
2.3372

> <Gold.Chemscore.Rot.Weighted>
4.6732

> <Gold.Chemscore.Internal.Correction.Weighted>
   9.000000E+99

> <Gold.Protein.RotatedTorsions>
[ 6907 6896 6895 6894 ] final  100.29 input  -60.11 | X-H torsion
[ 7974 7965 7964 7962 ] final   -3.57 input  175.53 | X-H torsion
[ 8008 7997 7996 7995 ] final -163.77 input   59.86 | X-H torsion
[ 10167 10162 10161 10158 ] final   51.46 input  -65.29 | X-H torsion
[ 10718 10713 10712 10709 ] final  108.64 input   66.30 | X-H torsion
[ 10763 10752 10751 10750 ] final  -49.11 input  -60.55 | X-H torsion
[ 11005 11000 10999 10996 ] final  -52.20 input  -57.11 | X-H torsion

> <Gold.Protein.ActiveResidues>
 VAL166  LYS551  ARG553  GLY616  TRP617  ASP618  TYR619  PRO620  LYS621  CYS622 
 ASP623  PHE694  ASN695  SER759  ASP760  ASP761  ALA762  ILE779  LEU786  VAL792 
 PHE793  MET794  SER795  GLU796  ALA797  LYS798  CYS799  TRP800  GLU811  SER814 

> <Gold.Protein.RotatedAtoms>
  152.5375  134.0299  159.8019 H   0  0  0  0  0  0  0  0  0  0  0  0  # atno 6907 bound_to 6896
  151.0472  133.5647  159.2653 H   0  0  0  0  0  0  0  0  0  0  0  0  # atno 6908 bound_to 6896
  151.2595  135.0657  159.9146 H   0  0  0  0  0  0  0  0  0  0  0  0  # atno 6909 bound_to 6896
  146.2387  140.1741  142.8332 H   0  0  0  0  0  0  0  0  0  0  0  0  # atno 7974 bound_to 7965
  155.8261  140.0927  157.1820 H   0  0  0  0  0  0  0  0  0  0  0  0  # atno 8008 bound_to 7997
  154.3979  140.1427  156.3618 H   0  0  0  0  0  0  0  0  0  0  0  0  # atno 8009 bound_to 7997
  155.8215  140.3446  155.5519 H   0  0  0  0  0  0  0  0  0  0  0  0  # atno 8010 bound_to 7997
  140.2617  144.3366  150.6316 H   0  0  0  0  0  0  0  0  0  0  0  0  # atno 10167 bound_to 10162
  157.6577  131.0898  150.6335 H   0  0  0  0  0  0  0  0  0  0  0  0  # atno 10718 bound_to 10713
  154.0888  135.6580  153.4849 H   0  0  0  0  0  0  0  0  0  0  0  0  # atno 10763 bound_to 10752
  153.0329  135.5197  154.7401 H   0  0  0  0  0  0  0  0  0  0  0  0  # atno 10764 bound_to 10752
  154.6519  135.3002  154.9945 H   0  0  0  0  0  0  0  0  0  0  0  0  # atno 10765 bound_to 10752
  141.0911  133.6632  156.3989 H   0  0  0  0  0  0  0  0  0  0  0  0  # atno 11005 bound_to 11000
  144.9988  140.8613  143.5294 LP  0  0  0  0  0  0  0  0  0  0  0  0  # atno 17320 bound_to 7965
  145.1757  139.2379  143.5319 LP  0  0  0  0  0  0  0  0  0  0  0  0  # atno 17321 bound_to 7965
  140.5961  143.2167  151.7162 LP  0  0  0  0  0  0  0  0  0  0  0  0  # atno 17342 bound_to 10162
  139.5015  144.3865  152.0323 LP  0  0  0  0  0  0  0  0  0  0  0  0  # atno 17343 bound_to 10162
  156.6640  130.4520  149.5678 LP  0  0  0  0  0  0  0  0  0  0  0  0  # atno 17370 bound_to 10713
  156.2046  130.6641  151.1204 LP  0  0  0  0  0  0  0  0  0  0  0  0  # atno 17371 bound_to 10713
  140.5249  134.6269  157.5330 LP  0  0  0  0  0  0  0  0  0  0  0  0  # atno 17394 bound_to 11000
  139.9738  134.7249  155.9990 LP  0  0  0  0  0  0  0  0  0  0  0  0  # atno 17395 bound_to 11000

$$$$
