AV-unprocessed.smi:1740|AV-procd|sdf|7009|dock8
  -GOLD-   22720 8223D 1   1.00000     0.00000
 Structure written by MMmdl.
 52 54  0  0  0  0  0  0  0  0  2 V2000
  151.7846  140.4951  157.0903 N   0  0  0  0  0  0  0  0  0  0  0  0
  151.3616  140.5042  155.8236 C   0  0  0  0  0  0  0  0  0  0  0  0
  151.8601  139.7890  154.9574 O   0  0  0  0  0  0  0  0  0  0  0  0
  150.2157  141.4623  155.4787 C   0  0  0  0  0  0  0  0  0  0  0  0
  148.9420  140.7982  155.1163 N   0  0  0  0  0  0  0  0  0  0  0  0
  149.1500  139.4527  154.5604 C   0  0  0  0  0  0  0  0  0  0  0  0
  147.8011  138.7748  154.2601 C   0  0  0  0  0  0  0  0  0  0  0  0
  146.9550  139.6181  153.2925 C   0  0  0  0  0  0  0  0  0  0  0  0
  145.6276  139.0359  153.1184 N   0  0  0  0  0  0  0  0  0  0  0  0
  145.3712  137.7266  152.9913 C   0  0  0  0  0  0  0  0  0  0  0  0
  146.2403  136.8548  153.0060 O   0  0  0  0  0  0  0  0  0  0  0  0
  144.0532  137.4960  152.8710 N   0  0  0  0  0  0  0  0  0  0  0  0
  143.4028  136.2361  152.7518 C   0  0  0  0  0  0  0  0  0  0  0  0
  144.0486  135.1406  152.1237 C   0  0  0  0  0  0  0  0  0  0  0  0
  143.3602  133.9254  151.9488 C   0  0  0  0  0  0  0  0  0  0  0  0
  142.0298  133.8281  152.3906 C   0  0  0  0  0  0  0  0  0  0  0  0
  141.4396  134.8917  152.9744 N   0  3  0  0  0  0  0  0  0  0  0  0
  142.0537  136.0830  153.1847 C   0  0  0  0  0  0  0  0  0  0  0  0
  141.3151  137.1043  153.8247 N   0  0  0  0  0  0  0  0  0  0  0  0
  141.2156  138.4298  153.2243 C   0  0  0  0  0  0  0  0  0  0  0  0
  140.0726  139.1166  153.9666 C   0  0  0  0  0  0  0  0  0  0  0  0
  139.1144  137.9599  154.2340 C   0  0  0  0  0  0  0  0  0  0  0  0
  140.0441  136.7625  154.4565 C   0  0  0  0  0  0  0  0  0  0  0  0
  146.8332  141.0425  153.8504 C   0  0  0  0  0  0  0  0  0  0  0  0
  148.2191  141.6372  154.1547 C   0  0  0  0  0  0  0  0  0  0  0  0
  152.5331  139.8759  157.3656 H   0  0  0  0  0  0  0  0  0  0  0  0
  151.3494  141.1037  157.7684 H   0  0  0  0  0  0  0  0  0  0  0  0
  150.0582  142.1029  156.3477 H   0  0  0  0  0  0  0  0  0  0  0  0
  150.5336  142.1183  154.6659 H   0  0  0  0  0  0  0  0  0  0  0  0
  149.7545  139.5099  153.6533 H   0  0  0  0  0  0  0  0  0  0  0  0
  149.6954  138.8208  155.2613 H   0  0  0  0  0  0  0  0  0  0  0  0
  147.9762  137.7837  153.8401 H   0  0  0  0  0  0  0  0  0  0  0  0
  147.2580  138.6224  155.1942 H   0  0  0  0  0  0  0  0  0  0  0  0
  147.4597  139.6698  152.3256 H   0  0  0  0  0  0  0  0  0  0  0  0
  144.8506  139.6799  153.0966 H   0  0  0  0  0  0  0  0  0  0  0  0
  143.4462  138.2952  152.9807 H   0  0  0  0  0  0  0  0  0  0  0  0
  145.0588  135.2229  151.7517 H   0  0  0  0  0  0  0  0  0  0  0  0
  143.8429  133.0853  151.4709 H   0  0  0  0  0  0  0  0  0  0  0  0
  141.4219  132.9403  152.2927 H   0  0  0  0  0  0  0  0  0  0  0  0
  142.1507  138.9824  153.3208 H   0  0  0  0  0  0  0  0  0  0  0  0
  140.9678  138.3528  152.1648 H   0  0  0  0  0  0  0  0  0  0  0  0
  140.4324  139.5280  154.9107 H   0  0  0  0  0  0  0  0  0  0  0  0
  139.6183  139.9256  153.3936 H   0  0  0  0  0  0  0  0  0  0  0  0
  138.4490  138.1428  155.0783 H   0  0  0  0  0  0  0  0  0  0  0  0
  138.4969  137.7869  153.3513 H   0  0  0  0  0  0  0  0  0  0  0  0
  139.6138  135.8466  154.0484 H   0  0  0  0  0  0  0  0  0  0  0  0
  140.2112  136.6137  155.5237 H   0  0  0  0  0  0  0  0  0  0  0  0
  146.3080  141.6791  153.1375 H   0  0  0  0  0  0  0  0  0  0  0  0
  146.2334  141.0384  154.7621 H   0  0  0  0  0  0  0  0  0  0  0  0
  148.0874  142.6397  154.5642 H   0  0  0  0  0  0  0  0  0  0  0  0
  148.7955  141.7444  153.2338 H   0  0  0  0  0  0  0  0  0  0  0  0
  140.4731  134.7894  153.2846 H   0  0  0  0  0  0  0  0  0  0  0  0
  1  2  1  0  0  0  0
  1 26  1  0  0  0  0
  1 27  1  0  0  0  0
  2  3  2  0  0  0  0
  2  4  1  0  0  0  0
  4  5  1  0  0  0  0
  4 28  1  0  0  0  0
  4 29  1  0  0  0  0
  5 25  1  0  0  0  0
  5  6  1  0  0  0  0
  6  7  1  0  0  0  0
  6 30  1  0  0  0  0
  6 31  1  0  0  0  0
  7  8  1  0  0  0  0
  7 32  1  0  0  0  0
  7 33  1  0  0  0  0
  8  9  1  0  0  0  0
  8 24  1  0  0  0  0
  8 34  1  0  0  0  0
  9 10  1  0  0  0  0
  9 35  1  0  0  0  0
 10 11  2  0  0  0  0
 10 12  1  0  0  0  0
 12 13  1  0  0  0  0
 12 36  1  0  0  0  0
 13 18  1  0  0  0  0
 13 14  2  0  0  0  0
 14 15  1  0  0  0  0
 14 37  1  0  0  0  0
 15 16  2  0  0  0  0
 15 38  1  0  0  0  0
 16 17  1  0  0  0  0
 16 39  1  0  0  0  0
 17 18  2  0  0  0  0
 17 52  1  0  0  0  0
 18 19  1  0  0  0  0
 19 23  1  0  0  0  0
 19 20  1  0  0  0  0
 20 21  1  0  0  0  0
 20 40  1  0  0  0  0
 20 41  1  0  0  0  0
 21 22  1  0  0  0  0
 21 42  1  0  0  0  0
 21 43  1  0  0  0  0
 22 23  1  0  0  0  0
 22 44  1  0  0  0  0
 22 45  1  0  0  0  0
 23 46  1  0  0  0  0
 23 47  1  0  0  0  0
 24 25  1  0  0  0  0
 24 48  1  0  0  0  0
 24 49  1  0  0  0  0
 25 50  1  0  0  0  0
 25 51  1  0  0  0  0
M  CHG  1  17   1
M  END
> <s_m_source_file>
AV-unprocessed.smi

> <i_m_source_file_index>
1740

> <i_lp_mmshare_version>
43012

> <i_f3d_flags>
0

> <s_epik_input>
W05IMl1DKD1PKVtDSDJdTjFbQ0gyXVtDSDJdW0NIXShbQ0gyXVtDSDJdMSlbTkhdQyg9TylbTkhdYzJbY0hdW2NIXVtjSF1uYzJOM1tDSDJdW0NIMl1bQ0gyXVtDSDJdMw==

> <s_epik_cmdline>
J2VwaWtfcHl0aG9uJywgJy1waCcsICc3LjAnLCAnLXRuJywgJzgnLCAnLW1hJywgJzIwMCcsICctbWV0YWxfYmluZGluZycsICctaW1hZScsICc8aW5maWxlLm1hZT4nLCAnLW9tYWUnLCAnPG91dGZpbGUubWFlPic=

> <r_epik_Ionization_Penalty>
1.24114

> <r_epik_Ionization_Penalty_Charging>
1.08532

> <r_epik_Ionization_Penalty_Neutral>
0.155817

> <r_epik_State_Penalty>
1.33508

> <r_epik_Charging_Adjusted_Penalty>
2.4204

> <i_epik_Tot_Q>
1

> <i_epik_Tot_abs_Q>
1

> <r_epik_Metal_State_Penalty>
1.43573

> <b_epik_Metal_Only>
0

> <s_lp_Force_Field>
OPLS_2005

> <r_lp_Energy>
46.1835

> <b_lp_Chiralities_Consistent>
1

> <s_lp_Variant>
AV-unprocessed.smi:1740-4

> <Gold.Version>
5.8.1

> <Gold.Id.Protein>
6NUR|6NUR_protein|mol2

> <Gold.PLP.Fitness>
44.0873

> <Gold.PLP.PLP>
-38.7499

> <Gold.PLP.part.hbond>
-3.7715

> <Gold.PLP.part.metal>
0.0000

> <Gold.PLP.part.buried>
-3.0824

> <Gold.PLP.part.nonpolar>
-32.5446

> <Gold.PLP.part.repulsive>
1.2498

> <Gold.PLP.ligand.clash>
0.0000

> <Gold.PLP.ligand.torsion>
1.0903

> <Gold.PLP.Chemscore.Hbond>
2.3809

> <Gold.PLP.Chemscore.CHOScore>
0.0000

> <Gold.PLP.Chemscore.Metal>
0.0000

> <Gold.Chemscore.Hbonds>
donor molecule, donor type, donor heavy atom, donor atom, acceptor molecule, acceptor atom, score
      L1  H     9    35       P1 10175  1.00
      L1  H    12    36       P1 10175  0.37
      P1  H  7989  7998       L1     3  0.98

> <Gold.PLP.Chemscore.Internal.Correction>
0.3752

> <Gold.Rescore>
     Score         DG    S(hbond)    S(metal)    S(lipo)     H(rot)  DE(clash)    DE(int)     intcor
     10.09     -16.97       2.24        0.00      82.28       2.19       1.46       5.42       ----

> <Gold.Chemscore.Fitness>
10.0911

> <Gold.Chemscore.DG>
-16.9687

> <Gold.Chemscore.ZeroCoef>
-5.4800

> <Gold.Chemscore.Hbond>
2.2371

> <Gold.Chemscore.Metal>
0.0000

> <Gold.Chemscore.Lipo>
82.2750

> <Gold.Chemscore.Internal_Hbond>
0.0000

> <Gold.Chemscore.DEClash>
1.4554

> <Gold.Chemscore.DEInternal>
5.4223

> <Gold.Chemscore.Rot>
2.1911

> <Gold.Chemscore.Internal.Correction>
   9.000000E+99

> <Gold.Chemscore.Hbonds>
donor molecule, donor type, donor heavy atom, donor atom, acceptor molecule, acceptor atom, score
      L1  H     9    35       P1 10175  0.93
      L1  H    12    36       P1 10175  0.38
      P1  H  7989  7998       L1     3  0.24

> <Gold.Chemscore.Hbond.Weighted>
-7.4718

> <Gold.Chemscore.Metal.Weighted>
-0.0000

> <Gold.Chemscore.Lipo.Weighted>
-9.6262

> <Gold.Chemscore.Internal_Hbond.Weighted>
0.0000

> <Gold.Chemscore.DEClash.Weighted>
1.4554

> <Gold.Chemscore.DEInternal.Weighted>
5.4223

> <Gold.Chemscore.Rot.Weighted>
5.6092

> <Gold.Chemscore.Internal.Correction.Weighted>
   9.000000E+99

> <Gold.Protein.RotatedTorsions>
[ 6907 6896 6895 6894 ] final  -41.58 input  -60.11 | X-H torsion
[ 7974 7965 7964 7962 ] final -140.43 input  175.53 | X-H torsion
[ 8008 7997 7996 7995 ] final  -26.59 input   59.86 | X-H torsion
[ 10167 10162 10161 10158 ] final   53.09 input  -65.29 | X-H torsion
[ 10718 10713 10712 10709 ] final  -90.70 input   66.30 | X-H torsion
[ 10763 10752 10751 10750 ] final -111.07 input  -60.55 | X-H torsion
[ 11005 11000 10999 10996 ] final   12.47 input  -57.11 | X-H torsion

> <Gold.Protein.ActiveResidues>
 VAL166  LYS551  ARG553  GLY616  TRP617  ASP618  TYR619  PRO620  LYS621  CYS622 
 ASP623  PHE694  ASN695  SER759  ASP760  ASP761  ALA762  ILE779  LEU786  VAL792 
 PHE793  MET794  SER795  GLU796  ALA797  LYS798  CYS799  TRP800  GLU811  SER814 

> <Gold.Protein.RotatedAtoms>
  150.9651  134.9033  159.7753 H   0  0  0  0  0  0  0  0  0  0  0  0  # atno 6907 bound_to 6896
  152.5170  134.3619  159.9297 H   0  0  0  0  0  0  0  0  0  0  0  0  # atno 6908 bound_to 6896
  151.3630  133.3842  159.2726 H   0  0  0  0  0  0  0  0  0  0  0  0  # atno 6909 bound_to 6896
  144.8598  140.6200  143.5336 H   0  0  0  0  0  0  0  0  0  0  0  0  # atno 7974 bound_to 7965
  154.4418  140.1895  156.0798 H   0  0  0  0  0  0  0  0  0  0  0  0  # atno 8008 bound_to 7997
  156.0447  140.3315  155.7257 H   0  0  0  0  0  0  0  0  0  0  0  0  # atno 8009 bound_to 7997
  155.5647  140.0607  157.2811 H   0  0  0  0  0  0  0  0  0  0  0  0  # atno 8010 bound_to 7997
  140.2445  144.3547  150.6369 H   0  0  0  0  0  0  0  0  0  0  0  0  # atno 10167 bound_to 10162
  155.9989  130.4920  150.5362 H   0  0  0  0  0  0  0  0  0  0  0  0  # atno 10718 bound_to 10713
  154.8281  135.4541  154.0982 H   0  0  0  0  0  0  0  0  0  0  0  0  # atno 10763 bound_to 10752
  153.2279  135.6902  153.7931 H   0  0  0  0  0  0  0  0  0  0  0  0  # atno 10764 bound_to 10752
  153.7324  135.3325  155.3265 H   0  0  0  0  0  0  0  0  0  0  0  0  # atno 10765 bound_to 10752
  140.4916  134.0835  155.7772 H   0  0  0  0  0  0  0  0  0  0  0  0  # atno 11005 bound_to 11000
  145.4335  139.1545  143.4009 LP  0  0  0  0  0  0  0  0  0  0  0  0  # atno 17320 bound_to 7965
  146.2851  140.4453  142.8761 LP  0  0  0  0  0  0  0  0  0  0  0  0  # atno 17321 bound_to 7965
  140.6088  143.2168  151.6927 LP  0  0  0  0  0  0  0  0  0  0  0  0  # atno 17342 bound_to 10162
  139.5066  144.3675  152.0503 LP  0  0  0  0  0  0  0  0  0  0  0  0  # atno 17343 bound_to 10162
  157.3305  131.0698  151.1864 LP  0  0  0  0  0  0  0  0  0  0  0  0  # atno 17370 bound_to 10713
  157.2747  130.6721  149.6036 LP  0  0  0  0  0  0  0  0  0  0  0  0  # atno 17371 bound_to 10713
  141.1481  133.9018  157.2166 LP  0  0  0  0  0  0  0  0  0  0  0  0  # atno 17394 bound_to 11000
  139.9766  135.0112  156.9646 LP  0  0  0  0  0  0  0  0  0  0  0  0  # atno 17395 bound_to 11000

$$$$
