AV-unprocessed.smi:1084|AV-procd|sdf|4718|dock2
  -GOLD-   22720 3243D 1   1.00000     0.00000
 Structure written by MMmdl.
 53 55  0  0  0  0  0  0  0  0  2 V2000
  149.1553  131.8818  153.7145 C   0  0  0  0  0  0  0  0  0  0  0  0
  149.0098  133.4167  153.6002 C   0  0  2  0  0  0  0  0  0  0  0  0
  149.6429  134.1213  154.8323 C   0  0  0  0  0  0  0  0  0  0  0  0
  149.6913  135.5755  154.6957 N   0  0  0  0  0  0  0  0  0  0  0  0
  150.1686  136.4312  155.6113 C   0  0  0  0  0  0  0  0  0  0  0  0
  150.6483  136.0734  156.6860 O   0  0  0  0  0  0  0  0  0  0  0  0
  150.0465  137.7016  155.1893 N   0  0  0  0  0  0  0  0  0  0  0  0
  150.4358  138.9121  155.8275 C   0  0  0  0  0  0  0  0  0  0  0  0
  149.8827  140.1878  155.5645 C   0  0  0  0  0  0  0  0  0  0  0  0
  150.3610  141.3005  156.2836 C   0  0  0  0  0  0  0  0  0  0  0  0
  151.3780  141.1183  157.2500 C   0  0  0  0  0  0  0  0  0  0  0  0
  151.8676  142.2203  157.9845 N   0  0  0  0  0  0  0  0  0  0  0  0
  151.2612  143.5283  157.7426 C   0  0  0  0  0  0  0  0  0  0  0  0
  152.0996  144.6381  158.3988 C   0  0  0  0  0  0  0  0  0  0  0  0
  152.2624  144.3580  159.7850 O   0  0  0  0  0  0  0  0  0  0  0  0
  152.9541  143.1320  159.9989 C   0  0  0  0  0  0  0  0  0  0  0  0
  152.1524  141.9659  159.3945 C   0  0  0  0  0  0  0  0  0  0  0  0
  151.8995  139.8936  157.5045 N   0  0  0  0  0  0  0  0  0  0  0  0
  151.4404  138.8310  156.8122 C   0  0  0  0  0  0  0  0  0  0  0  0
  147.5708  133.7782  153.3744 N   0  3  0  0  0  0  0  0  0  0  0  0
  146.9024  133.0964  152.2311 C   0  0  0  0  0  0  0  0  0  0  0  0
  145.4479  133.5733  152.0748 C   0  0  0  0  0  0  0  0  0  0  0  0
  144.7341  133.3506  153.2815 O   0  0  0  0  0  0  0  0  0  0  0  0
  145.2960  134.0840  154.3595 C   0  0  0  0  0  0  0  0  0  0  0  0
  146.7406  133.6161  154.6000 C   0  0  0  0  0  0  0  0  0  0  0  0
  150.1982  131.5796  153.8041 H   0  0  0  0  0  0  0  0  0  0  0  0
  148.7702  131.3546  152.8438 H   0  0  0  0  0  0  0  0  0  0  0  0
  148.6274  131.5024  154.5897 H   0  0  0  0  0  0  0  0  0  0  0  0
  149.5721  133.7478  152.7253 H   0  0  0  0  0  0  0  0  0  0  0  0
  149.0451  133.9416  155.7257 H   0  0  0  0  0  0  0  0  0  0  0  0
  150.6351  133.7142  155.0349 H   0  0  0  0  0  0  0  0  0  0  0  0
  149.3173  135.9615  153.8410 H   0  0  0  0  0  0  0  0  0  0  0  0
  149.6039  137.8220  154.2899 H   0  0  0  0  0  0  0  0  0  0  0  0
  149.0998  140.3449  154.8406 H   0  0  0  0  0  0  0  0  0  0  0  0
  149.9305  142.2733  156.0985 H   0  0  0  0  0  0  0  0  0  0  0  0
  151.1873  143.7182  156.6710 H   0  0  0  0  0  0  0  0  0  0  0  0
  150.2481  143.5377  158.1471 H   0  0  0  0  0  0  0  0  0  0  0  0
  153.0747  144.7262  157.9169 H   0  0  0  0  0  0  0  0  0  0  0  0
  151.6011  145.6009  158.2863 H   0  0  0  0  0  0  0  0  0  0  0  0
  153.9526  143.1846  159.5619 H   0  0  0  0  0  0  0  0  0  0  0  0
  153.0842  142.9811  161.0705 H   0  0  0  0  0  0  0  0  0  0  0  0
  151.2081  141.8482  159.9274 H   0  0  0  0  0  0  0  0  0  0  0  0
  152.7117  141.0418  159.5337 H   0  0  0  0  0  0  0  0  0  0  0  0
  151.8925  137.8807  157.0564 H   0  0  0  0  0  0  0  0  0  0  0  0
  147.4151  133.3119  151.2944 H   0  0  0  0  0  0  0  0  0  0  0  0
  146.9287  132.0158  152.3813 H   0  0  0  0  0  0  0  0  0  0  0  0
  145.4121  134.6303  151.8060 H   0  0  0  0  0  0  0  0  0  0  0  0
  144.9585  133.0250  151.2697 H   0  0  0  0  0  0  0  0  0  0  0  0
  145.2597  135.1545  154.1510 H   0  0  0  0  0  0  0  0  0  0  0  0
  144.6934  133.9135  155.2516 H   0  0  0  0  0  0  0  0  0  0  0  0
  146.7403  132.5680  154.9034 H   0  0  0  0  0  0  0  0  0  0  0  0
  147.1506  134.1839  155.4329 H   0  0  0  0  0  0  0  0  0  0  0  0
  147.5637  134.7618  153.1438 H   0  0  0  0  0  0  0  0  0  0  0  0
  1  2  1  0  0  0  0
  1 26  1  0  0  0  0
  1 27  1  0  0  0  0
  1 28  1  0  0  0  0
  2  3  1  0  0  0  0
  2 20  1  0  0  0  0
  2 29  1  0  0  0  0
  3  4  1  0  0  0  0
  3 30  1  0  0  0  0
  3 31  1  0  0  0  0
  4  5  1  0  0  0  0
  4 32  1  0  0  0  0
  5  6  2  0  0  0  0
  5  7  1  0  0  0  0
  7  8  1  0  0  0  0
  7 33  1  0  0  0  0
  8 19  1  0  0  0  0
  8  9  2  0  0  0  0
  9 10  1  0  0  0  0
  9 34  1  0  0  0  0
 10 11  2  0  0  0  0
 10 35  1  0  0  0  0
 11 12  1  0  0  0  0
 11 18  1  0  0  0  0
 12 17  1  0  0  0  0
 12 13  1  0  0  0  0
 13 14  1  0  0  0  0
 13 36  1  0  0  0  0
 13 37  1  0  0  0  0
 14 15  1  0  0  0  0
 14 38  1  0  0  0  0
 14 39  1  0  0  0  0
 15 16  1  0  0  0  0
 16 17  1  0  0  0  0
 16 40  1  0  0  0  0
 16 41  1  0  0  0  0
 17 42  1  0  0  0  0
 17 43  1  0  0  0  0
 18 19  2  0  0  0  0
 19 44  1  0  0  0  0
 20 25  1  0  0  0  0
 20 21  1  0  0  0  0
 20 53  1  0  0  0  0
 21 22  1  0  0  0  0
 21 45  1  0  0  0  0
 21 46  1  0  0  0  0
 22 23  1  0  0  0  0
 22 47  1  0  0  0  0
 22 48  1  0  0  0  0
 23 24  1  0  0  0  0
 24 25  1  0  0  0  0
 24 49  1  0  0  0  0
 24 50  1  0  0  0  0
 25 51  1  0  0  0  0
 25 52  1  0  0  0  0
M  CHG  1  20   1
M  END
> <s_m_source_file>
AV-unprocessed.smi

> <i_m_source_file_index>
1084

> <i_lp_mmshare_version>
43012

> <i_f3d_flags>
0

> <s_epik_input>
W0NIMl0xW0NIMl1PW0NIMl1bQ0gyXU4xW0NASF0oW0NIM10pW0NIMl1bTkhdQyg9TylbTkhdYzJbY0hdW2NIXWMobltjSF0yKU4zW0NIMl1bQ0gyXU9bQ0gyXVtDSDJdMw==

> <s_epik_cmdline>
J2VwaWtfcHl0aG9uJywgJy1waCcsICc3LjAnLCAnLXRuJywgJzgnLCAnLW1hJywgJzIwMCcsICctbWV0YWxfYmluZGluZycsICctaW1hZScsICc8aW5maWxlLm1hZT4nLCAnLW9tYWUnLCAnPG91dGZpbGUubWFlPic=

> <r_lp_tautomer_probability>
1

> <r_epik_Ionization_Penalty>
0.604236

> <r_epik_Ionization_Penalty_Charging>
0.602531

> <r_epik_Ionization_Penalty_Neutral>
0.00170595

> <r_epik_State_Penalty>
0.59929

> <r_epik_Charging_Adjusted_Penalty>
1.20182

> <i_epik_Tot_Q>
1

> <i_epik_Tot_abs_Q>
1

> <r_epik_Metal_State_Penalty>
0.598238

> <b_epik_Metal_Only>
0

> <s_lp_Force_Field>
OPLS_2005

> <r_lp_Energy>
38.6371

> <b_lp_Chiralities_Consistent>
1

> <s_lp_Variant>
AV-unprocessed.smi:1084-3

> <Gold.Version>
5.8.1

> <Gold.Id.Protein>
6NUR|6NUR_protein|mol2

> <Gold.PLP.Fitness>
50.3516

> <Gold.PLP.PLP>
-41.8963

> <Gold.PLP.part.hbond>
-2.0000

> <Gold.PLP.part.metal>
0.0000

> <Gold.PLP.part.buried>
-4.4747

> <Gold.PLP.part.nonpolar>
-34.7509

> <Gold.PLP.part.repulsive>
0.2127

> <Gold.PLP.ligand.clash>
0.0000

> <Gold.PLP.ligand.torsion>
0.5084

> <Gold.PLP.Chemscore.Hbond>
3.0000

> <Gold.PLP.Chemscore.CHOScore>
0.0000

> <Gold.PLP.Chemscore.Metal>
0.0000

> <Gold.Chemscore.Hbonds>
donor molecule, donor type, donor heavy atom, donor atom, acceptor molecule, acceptor atom, score
      L1  H     4    32       P1  7948  1.00
      L1  H    20    53       P1  7948  0.20

> <Gold.PLP.Chemscore.Internal.Correction>
0.4721

> <Gold.Rescore>
     Score         DG    S(hbond)    S(metal)    S(lipo)     H(rot)  DE(clash)    DE(int)     intcor
     15.70     -18.20       1.63        0.00      98.99       1.68       0.08       2.42       ----

> <Gold.Chemscore.Fitness>
15.6999

> <Gold.Chemscore.DG>
-18.2000

> <Gold.Chemscore.ZeroCoef>
-5.4800

> <Gold.Chemscore.Hbond>
1.6284

> <Gold.Chemscore.Metal>
0.0000

> <Gold.Chemscore.Lipo>
98.9898

> <Gold.Chemscore.Internal_Hbond>
0.0000

> <Gold.Chemscore.DEClash>
0.0815

> <Gold.Chemscore.DEInternal>
2.4186

> <Gold.Chemscore.Rot>
1.6800

> <Gold.Chemscore.Internal.Correction>
   9.000000E+99

> <Gold.Chemscore.Hbonds>
donor molecule, donor type, donor heavy atom, donor atom, acceptor molecule, acceptor atom, score
      L1  H     4    32       P1  7948  0.71
      L1  H    20    53       P1  7948  0.12

> <Gold.Chemscore.Hbond.Weighted>
-5.4389

> <Gold.Chemscore.Metal.Weighted>
-0.0000

> <Gold.Chemscore.Lipo.Weighted>
-11.5818

> <Gold.Chemscore.Internal_Hbond.Weighted>
0.0000

> <Gold.Chemscore.DEClash.Weighted>
0.0815

> <Gold.Chemscore.DEInternal.Weighted>
2.4186

> <Gold.Chemscore.Rot.Weighted>
4.3007

> <Gold.Chemscore.Internal.Correction.Weighted>
   9.000000E+99

> <Gold.Protein.RotatedTorsions>
[ 6907 6896 6895 6894 ] final    5.08 input  -60.11 | X-H torsion
[ 7974 7965 7964 7962 ] final  131.59 input  175.53 | X-H torsion
[ 8008 7997 7996 7995 ] final  101.23 input   59.86 | X-H torsion
[ 10167 10162 10161 10158 ] final    1.47 input  -65.29 | X-H torsion
[ 10718 10713 10712 10709 ] final -170.71 input   66.30 | X-H torsion
[ 10763 10752 10751 10750 ] final   99.04 input  -60.55 | X-H torsion
[ 11005 11000 10999 10996 ] final -116.19 input  -57.11 | X-H torsion

> <Gold.Protein.ActiveResidues>
 VAL166  LYS551  ARG553  GLY616  TRP617  ASP618  TYR619  PRO620  LYS621  CYS622 
 ASP623  PHE694  ASN695  SER759  ASP760  ASP761  ALA762  ILE779  LEU786  VAL792 
 PHE793  MET794  SER795  GLU796  ALA797  LYS798  CYS799  TRP800  GLU811  SER814 

> <Gold.Protein.RotatedAtoms>
  151.6518  135.1000  160.0161 H   0  0  0  0  0  0  0  0  0  0  0  0  # atno 6907 bound_to 6896
  152.3997  133.6795  159.6314 H   0  0  0  0  0  0  0  0  0  0  0  0  # atno 6908 bound_to 6896
  150.7898  133.8730  159.3305 H   0  0  0  0  0  0  0  0  0  0  0  0  # atno 6909 bound_to 6896
  145.0057  139.4269  143.5270 H   0  0  0  0  0  0  0  0  0  0  0  0  # atno 7974 bound_to 7965
  156.1279  140.3201  155.8305 H   0  0  0  0  0  0  0  0  0  0  0  0  # atno 8008 bound_to 7997
  155.4385  140.0524  157.3029 H   0  0  0  0  0  0  0  0  0  0  0  0  # atno 8009 bound_to 7997
  154.4877  140.2079  155.9632 H   0  0  0  0  0  0  0  0  0  0  0  0  # atno 8010 bound_to 7997
  140.6681  143.7124  150.7867 H   0  0  0  0  0  0  0  0  0  0  0  0  # atno 10167 bound_to 10162
  156.7302  130.9303  151.3104 H   0  0  0  0  0  0  0  0  0  0  0  0  # atno 10718 bound_to 10713
  153.2965  135.4127  155.1214 H   0  0  0  0  0  0  0  0  0  0  0  0  # atno 10763 bound_to 10752
  154.8536  135.3531  154.5910 H   0  0  0  0  0  0  0  0  0  0  0  0  # atno 10764 bound_to 10752
  153.6334  135.7060  153.5325 H   0  0  0  0  0  0  0  0  0  0  0  0  # atno 10765 bound_to 10752
  141.0438  133.9794  157.2951 H   0  0  0  0  0  0  0  0  0  0  0  0  # atno 11005 bound_to 11000
  146.3460  139.9471  142.8733 LP  0  0  0  0  0  0  0  0  0  0  0  0  # atno 17320 bound_to 7965
  145.2092  140.9888  143.4110 LP  0  0  0  0  0  0  0  0  0  0  0  0  # atno 17321 bound_to 7965
  140.0805  143.4973  152.2532 LP  0  0  0  0  0  0  0  0  0  0  0  0  # atno 17342 bound_to 10162
  139.5938  144.7559  151.3337 LP  0  0  0  0  0  0  0  0  0  0  0  0  # atno 17343 bound_to 10162
  157.6862  130.9187  150.0392 LP  0  0  0  0  0  0  0  0  0  0  0  0  # atno 17370 bound_to 10713
  156.1534  130.3643  149.9405 LP  0  0  0  0  0  0  0  0  0  0  0  0  # atno 17371 bound_to 10713
  139.9296  135.0200  156.8354 LP  0  0  0  0  0  0  0  0  0  0  0  0  # atno 17394 bound_to 11000
  140.6185  134.0016  155.7607 LP  0  0  0  0  0  0  0  0  0  0  0  0  # atno 17395 bound_to 11000

$$$$
