AV-unprocessed.smi:39|AV-procd|sdf|356|dock5
  -GOLD-   2262016193D 1   1.00000     0.00000
 Structure written by MMmdl.
 32 33  0  0  0  0  0  0  0  0  3 V2000
  152.3888  141.5906  159.3717 C   0  0  0  0  0  0  0  0  0  0  0  0
  151.5833  141.6478  158.0840 C   0  0  0  0  0  0  0  0  0  0  0  0
  151.2506  140.5331  157.3839 C   0  0  0  0  0  0  0  0  0  0  0  0
  150.5099  140.5512  156.2070 N   0  0  0  0  0  0  0  0  0  0  0  0
  150.1729  139.2903  155.4330 C   0  0  2  0  0  0  0  0  0  0  0  0
  150.3033  138.0355  156.3130 C   0  0  0  0  0  0  0  0  0  0  0  0
  150.9624  137.0566  155.3641 C   0  0  2  0  0  0  0  0  0  0  0  0
  151.6293  135.9517  156.0586 N   0  0  0  0  0  0  0  0  0  0  0  0
  150.9330  135.2942  156.8434 N   0  3  0  0  0  0  0  0  0  0  0  0
  150.2486  134.6278  157.4619 N   0  5  0  0  0  0  0  0  0  0  0  0
  151.8929  137.9725  154.5544 C   0  0  2  0  0  0  0  0  0  0  0  0
  153.2092  138.3721  155.2604 C   0  0  0  0  0  0  0  0  0  0  0  0
  153.9209  139.2910  154.4599 O   0  0  0  0  0  0  0  0  0  0  0  0
  151.0712  139.1257  154.3691 O   0  0  0  0  0  0  0  0  0  0  0  0
  150.1205  141.7935  155.6634 C   0  0  0  0  0  0  0  0  0  0  0  0
  149.5119  141.8939  154.5988 O   0  0  0  0  0  0  0  0  0  0  0  0
  150.4568  142.9376  156.3841 N   0  0  0  0  0  0  0  0  0  0  0  0
  151.1662  142.9613  157.5866 C   0  0  0  0  0  0  0  0  0  0  0  0
  151.3972  144.0377  158.1349 O   0  0  0  0  0  0  0  0  0  0  0  0
  149.1679  139.4515  155.0380 H   0  0  0  0  0  0  0  0  0  0  0  0
  150.1900  136.6701  154.6953 H   0  0  0  0  0  0  0  0  0  0  0  0
  152.1173  137.5141  153.5903 H   0  0  0  0  0  0  0  0  0  0  0  0
  150.1692  143.8264  156.0010 H   0  0  0  0  0  0  0  0  0  0  0  0
  152.6384  140.5660  159.6493 H   0  0  0  0  0  0  0  0  0  0  0  0
  151.8241  142.0301  160.1946 H   0  0  0  0  0  0  0  0  0  0  0  0
  153.3220  142.1440  159.2617 H   0  0  0  0  0  0  0  0  0  0  0  0
  151.5918  139.5889  157.7798 H   0  0  0  0  0  0  0  0  0  0  0  0
  150.9480  138.2429  157.1689 H   0  0  0  0  0  0  0  0  0  0  0  0
  149.3295  137.7017  156.6727 H   0  0  0  0  0  0  0  0  0  0  0  0
  153.0391  138.7869  156.2530 H   0  0  0  0  0  0  0  0  0  0  0  0
  153.8581  137.5062  155.3876 H   0  0  0  0  0  0  0  0  0  0  0  0
  153.4029  139.4865  153.6940 H   0  0  0  0  0  0  0  0  0  0  0  0
  1  2  1  0  0  0  0
  1 24  1  0  0  0  0
  1 25  1  0  0  0  0
  1 26  1  0  0  0  0
  2 18  1  0  0  0  0
  2  3  2  0  0  0  0
  3  4  1  0  0  0  0
  3 27  1  0  0  0  0
  4  5  1  0  0  0  0
  4 15  1  0  0  0  0
  5 20  1  0  0  0  0
  5 14  1  0  0  0  0
  5  6  1  0  0  0  0
  6  7  1  0  0  0  0
  6 28  1  0  0  0  0
  6 29  1  0  0  0  0
  7 21  1  0  0  0  0
  7  8  1  0  0  0  0
  7 11  1  0  0  0  0
  8  9  2  0  0  0  0
  9 10  2  0  0  0  0
 11 22  1  0  0  0  0
 11 12  1  0  0  0  0
 11 14  1  0  0  0  0
 12 13  1  0  0  0  0
 12 30  1  0  0  0  0
 12 31  1  0  0  0  0
 13 32  1  0  0  0  0
 15 16  2  0  0  0  0
 15 17  1  0  0  0  0
 17 23  1  0  0  0  0
 17 18  1  0  0  0  0
 18 19  2  0  0  0  0
M  CHG  1   9   1
M  CHG  1  10  -1
M  END
> <s_m_source_file>
AV-unprocessed.smi

> <i_m_source_file_index>
39

> <i_lp_mmshare_version>
43012

> <i_f3d_flags>
0

> <s_epik_input>
Tz1jMVtuSF1jKD1PKW4oW2NIXWMxW0NIM10pW0NASF0yW0NIMl1bQ0BIXShOPVtOK109W04tXSlbQ0BIXShPMilbQ0gyXVtPSF0=

> <s_epik_cmdline>
J2VwaWtfcHl0aG9uJywgJy1waCcsICc3LjAnLCAnLXRuJywgJzgnLCAnLW1hJywgJzIwMCcsICctbWV0YWxfYmluZGluZycsICctaW1hZScsICc8aW5maWxlLm1hZT4nLCAnLW9tYWUnLCAnPG91dGZpbGUubWFlPic=

> <r_lp_tautomer_probability>
0.999537

> <r_epik_Ionization_Penalty>
0.00127512

> <r_epik_Ionization_Penalty_Charging>
0.00127507

> <r_epik_Ionization_Penalty_Neutral>
5.43433e-08

> <r_epik_State_Penalty>
0.000844892

> <r_epik_Charging_Adjusted_Penalty>
0.00211996

> <i_epik_Tot_Q>
0

> <i_epik_Tot_abs_Q>
2

> <r_epik_Metal_State_Penalty>
0.680636

> <b_epik_Metal_Only>
0

> <s_epik_Chemistry_Notes>
This compound contains an acetal/aminal-like group ( X-CH(R)-Y where X, Y are N, S, or O) that may be acid/base labile, releasing an aldehyde.

> <s_lp_Force_Field>
OPLS_2005

> <r_lp_Energy>
27.6629

> <b_lp_Chiralities_Consistent>
1

> <s_lp_Variant>
AV-unprocessed.smi:39-6

> <Gold.Version>
5.8.1

> <Gold.Id.Protein>
6NUR|6NUR_protein|mol2

> <Gold.PLP.Fitness>
41.8099

> <Gold.PLP.PLP>
-28.8438

> <Gold.PLP.part.hbond>
-6.8655

> <Gold.PLP.part.metal>
0.0000

> <Gold.PLP.part.buried>
-3.1379

> <Gold.PLP.part.nonpolar>
-20.4262

> <Gold.PLP.part.repulsive>
0.8975

> <Gold.PLP.ligand.clash>
0.0000

> <Gold.PLP.ligand.torsion>
0.5687

> <Gold.PLP.Chemscore.Hbond>
4.6897

> <Gold.PLP.Chemscore.CHOScore>
0.0000

> <Gold.PLP.Chemscore.Metal>
0.0000

> <Gold.Chemscore.Hbonds>
donor molecule, donor type, donor heavy atom, donor atom, acceptor molecule, acceptor atom, score
      L1  H    17    23       P1  8028  0.90
      P1  H  6896  6908       L1    10  0.70
      P1  H  7989  7998       L1    14  1.00
      P1  H  7997  8008       L1    13  1.00
      P1  H  8011  8017       L1    16  0.09
      P1  H 10752 10764       L1     8  1.00

> <Gold.PLP.Chemscore.Internal.Correction>
0.0344

> <Gold.Rescore>
     Score         DG    S(hbond)    S(metal)    S(lipo)     H(rot)  DE(clash)    DE(int)     intcor
     16.62     -17.77       4.14        0.00      46.93       2.75       0.29       0.86       ----

> <Gold.Chemscore.Fitness>
16.6187

> <Gold.Chemscore.DG>
-17.7656

> <Gold.Chemscore.ZeroCoef>
-5.4800

> <Gold.Chemscore.Hbond>
4.1438

> <Gold.Chemscore.Metal>
0.0000

> <Gold.Chemscore.Lipo>
46.9345

> <Gold.Chemscore.Internal_Hbond>
0.0000

> <Gold.Chemscore.DEClash>
0.2859

> <Gold.Chemscore.DEInternal>
0.8610

> <Gold.Chemscore.Rot>
2.7524

> <Gold.Chemscore.Internal.Correction>
   9.000000E+99

> <Gold.Chemscore.Hbonds>
donor molecule, donor type, donor heavy atom, donor atom, acceptor molecule, acceptor atom, score
      L1  H    17    23       P1  8028  0.86
      P1  H  6896  6908       L1    10  0.67
      P1  H  7989  7998       L1    14  0.85
      P1  H  7997  8008       L1    13  0.54
      P1  H  8011  8017       L1    16  0.09
      P1  H 10752 10764       L1     8  0.50

> <Gold.Chemscore.Hbond.Weighted>
-13.8404

> <Gold.Chemscore.Metal.Weighted>
-0.0000

> <Gold.Chemscore.Lipo.Weighted>
-5.4913

> <Gold.Chemscore.Internal_Hbond.Weighted>
0.0000

> <Gold.Chemscore.DEClash.Weighted>
0.2859

> <Gold.Chemscore.DEInternal.Weighted>
0.8610

> <Gold.Chemscore.Rot.Weighted>
7.0461

> <Gold.Chemscore.Internal.Correction.Weighted>
   9.000000E+99

> <Gold.Protein.RotatedTorsions>
[ 6907 6896 6895 6894 ] final  144.18 input  -60.11 | X-H torsion
[ 7974 7965 7964 7962 ] final -157.46 input  175.53 | X-H torsion
[ 8008 7997 7996 7995 ] final   14.61 input   59.86 | X-H torsion
[ 10167 10162 10161 10158 ] final   81.40 input  -65.29 | X-H torsion
[ 10718 10713 10712 10709 ] final    9.62 input   66.30 | X-H torsion
[ 10763 10752 10751 10750 ] final  -37.63 input  -60.55 | X-H torsion
[ 11005 11000 10999 10996 ] final -137.22 input  -57.11 | X-H torsion

> <Gold.Protein.ActiveResidues>
 VAL166  LYS551  ARG553  GLY616  TRP617  ASP618  TYR619  PRO620  LYS621  CYS622 
 ASP623  PHE694  ASN695  SER759  ASP760  ASP761  ALA762  ILE779  LEU786  VAL792 
 PHE793  MET794  SER795  GLU796  ALA797  LYS798  CYS799  TRP800  GLU811  SER814 

> <Gold.Protein.RotatedAtoms>
  152.1970  133.4813  159.5037 H   0  0  0  0  0  0  0  0  0  0  0  0  # atno 6907 bound_to 6896
  150.6962  134.1640  159.4196 H   0  0  0  0  0  0  0  0  0  0  0  0  # atno 6908 bound_to 6896
  151.9556  135.0148  160.0595 H   0  0  0  0  0  0  0  0  0  0  0  0  # atno 6909 bound_to 6896
  144.7547  140.3966  143.6021 H   0  0  0  0  0  0  0  0  0  0  0  0  # atno 7974 bound_to 7965
  154.8509  140.2929  155.5599 H   0  0  0  0  0  0  0  0  0  0  0  0  # atno 8008 bound_to 7997
  156.3016  140.2496  156.3400 H   0  0  0  0  0  0  0  0  0  0  0  0  # atno 8009 bound_to 7997
  154.9022  140.0391  157.1888 H   0  0  0  0  0  0  0  0  0  0  0  0  # atno 8010 bound_to 7997
  139.9397  144.6098  150.8264 H   0  0  0  0  0  0  0  0  0  0  0  0  # atno 10167 bound_to 10162
  156.9690  130.5962  149.5667 H   0  0  0  0  0  0  0  0  0  0  0  0  # atno 10718 bound_to 10713
  153.8994  135.6804  153.4756 H   0  0  0  0  0  0  0  0  0  0  0  0  # atno 10763 bound_to 10752
  153.1137  135.4771  154.9077 H   0  0  0  0  0  0  0  0  0  0  0  0  # atno 10764 bound_to 10752
  154.7583  135.3203  154.8382 H   0  0  0  0  0  0  0  0  0  0  0  0  # atno 10765 bound_to 10752
  140.8732  134.2025  157.4638 H   0  0  0  0  0  0  0  0  0  0  0  0  # atno 11005 bound_to 11000
  145.6819  139.1620  143.2696 LP  0  0  0  0  0  0  0  0  0  0  0  0  # atno 17320 bound_to 7965
  146.1543  140.6880  142.9307 LP  0  0  0  0  0  0  0  0  0  0  0  0  # atno 17321 bound_to 7965
  140.7614  143.3174  151.2700 LP  0  0  0  0  0  0  0  0  0  0  0  0  # atno 17342 bound_to 10162
  139.6715  144.0012  152.2755 LP  0  0  0  0  0  0  0  0  0  0  0  0  # atno 17343 bound_to 10162
  156.0291  130.5383  150.8485 LP  0  0  0  0  0  0  0  0  0  0  0  0  # atno 17370 bound_to 10713
  157.5606  131.0946  150.9565 LP  0  0  0  0  0  0  0  0  0  0  0  0  # atno 17371 bound_to 10713
  139.8713  134.9783  156.4994 LP  0  0  0  0  0  0  0  0  0  0  0  0  # atno 17394 bound_to 11000
  140.8549  133.8104  155.9206 LP  0  0  0  0  0  0  0  0  0  0  0  0  # atno 17395 bound_to 11000

$$$$
