AV-unprocessed.smi:2354|AV-procd|sdf|9384|dock4
  -GOLD-   2272013 13D 1   1.00000     0.00000
 Structure written by MMmdl.
 44 45  0  0  0  0  0  0  0  0  2 V2000
  147.9206  135.1979  154.8826 C   0  0  0  0  0  0  0  0  0  0  0  0
  148.3263  136.6030  154.6580 N   0  3  0  0  0  0  0  0  0  0  0  0
  149.6988  136.8588  155.1509 C   0  0  0  0  0  0  0  0  0  0  0  0
  147.3243  137.5782  155.1671 C   0  0  0  0  0  0  0  0  0  0  0  0
  147.2798  138.8956  154.3455 C   0  0  0  0  0  0  0  0  0  0  0  0
  146.5572  138.6986  152.9790 C   0  0  0  0  0  0  0  0  0  0  0  0
  146.7845  137.3843  152.3799 N   0  0  0  0  0  0  0  0  0  0  0  0
  145.8337  136.4810  152.0995 C   0  0  0  0  0  0  0  0  0  0  0  0
  144.6393  136.6541  152.3415 O   0  0  0  0  0  0  0  0  0  0  0  0
  146.3621  135.3755  151.5469 N   0  0  0  0  0  0  0  0  0  0  0  0
  145.6986  134.1782  151.1702 C   0  0  0  0  0  0  0  0  0  0  0  0
  144.3025  134.0273  151.3593 C   0  0  0  0  0  0  0  0  0  0  0  0
  143.7023  132.8273  150.9415 C   0  0  0  0  0  0  0  0  0  0  0  0
  144.5347  131.8609  150.3521 C   0  0  0  0  0  0  0  0  0  0  0  0
  145.8591  132.0563  150.1764 N   0  0  0  0  0  0  0  0  0  0  0  0
  146.4242  133.2011  150.5741 N   0  0  0  0  0  0  0  0  0  0  0  0
  146.6213  140.0163  155.1761 C   0  0  0  0  0  0  0  0  0  0  0  0
  147.1352  141.3372  154.5952 C   0  0  0  0  0  0  0  0  0  0  0  0
  148.4808  141.0067  153.9384 C   0  0  0  0  0  0  0  0  0  0  0  0
  148.6803  139.4963  154.1193 C   0  0  0  0  0  0  0  0  0  0  0  0
  147.8484  134.9772  155.9483 H   0  0  0  0  0  0  0  0  0  0  0  0
  148.6428  134.5120  154.4386 H   0  0  0  0  0  0  0  0  0  0  0  0
  146.9522  134.9978  154.4231 H   0  0  0  0  0  0  0  0  0  0  0  0
  149.7545  136.7331  156.2330 H   0  0  0  0  0  0  0  0  0  0  0  0
  150.0285  137.8678  154.9079 H   0  0  0  0  0  0  0  0  0  0  0  0
  150.4058  136.1661  154.6929 H   0  0  0  0  0  0  0  0  0  0  0  0
  146.3303  137.1284  155.1457 H   0  0  0  0  0  0  0  0  0  0  0  0
  147.5119  137.7847  156.2223 H   0  0  0  0  0  0  0  0  0  0  0  0
  145.4874  138.8904  153.0734 H   0  0  0  0  0  0  0  0  0  0  0  0
  146.9110  139.4405  152.2628 H   0  0  0  0  0  0  0  0  0  0  0  0
  147.7380  137.1499  152.1456 H   0  0  0  0  0  0  0  0  0  0  0  0
  147.3693  135.3422  151.4931 H   0  0  0  0  0  0  0  0  0  0  0  0
  143.6914  134.8020  151.7969 H   0  0  0  0  0  0  0  0  0  0  0  0
  142.6430  132.6564  151.0639 H   0  0  0  0  0  0  0  0  0  0  0  0
  144.1325  130.9192  150.0094 H   0  0  0  0  0  0  0  0  0  0  0  0
  145.5333  139.9679  155.1991 H   0  0  0  0  0  0  0  0  0  0  0  0
  146.9535  139.9472  156.2132 H   0  0  0  0  0  0  0  0  0  0  0  0
  146.4386  141.7134  153.8446 H   0  0  0  0  0  0  0  0  0  0  0  0
  147.2302  142.1039  155.3650 H   0  0  0  0  0  0  0  0  0  0  0  0
  148.4489  141.2628  152.8787 H   0  0  0  0  0  0  0  0  0  0  0  0
  149.3010  141.5708  154.3843 H   0  0  0  0  0  0  0  0  0  0  0  0
  149.2976  139.3385  155.0049 H   0  0  0  0  0  0  0  0  0  0  0  0
  149.2061  139.0469  153.2759 H   0  0  0  0  0  0  0  0  0  0  0  0
  148.3515  136.7240  153.6555 H   0  0  0  0  0  0  0  0  0  0  0  0
  1  2  1  0  0  0  0
  1 21  1  0  0  0  0
  1 22  1  0  0  0  0
  1 23  1  0  0  0  0
  2  3  1  0  0  0  0
  2  4  1  0  0  0  0
  2 44  1  0  0  0  0
  3 24  1  0  0  0  0
  3 25  1  0  0  0  0
  3 26  1  0  0  0  0
  4  5  1  0  0  0  0
  4 27  1  0  0  0  0
  4 28  1  0  0  0  0
  5 20  1  0  0  0  0
  5  6  1  0  0  0  0
  5 17  1  0  0  0  0
  6  7  1  0  0  0  0
  6 29  1  0  0  0  0
  6 30  1  0  0  0  0
  7  8  1  0  0  0  0
  7 31  1  0  0  0  0
  8  9  2  0  0  0  0
  8 10  1  0  0  0  0
 10 11  1  0  0  0  0
 10 32  1  0  0  0  0
 11 16  1  0  0  0  0
 11 12  2  0  0  0  0
 12 13  1  0  0  0  0
 12 33  1  0  0  0  0
 13 14  2  0  0  0  0
 13 34  1  0  0  0  0
 14 15  1  0  0  0  0
 14 35  1  0  0  0  0
 15 16  2  0  0  0  0
 17 18  1  0  0  0  0
 17 36  1  0  0  0  0
 17 37  1  0  0  0  0
 18 19  1  0  0  0  0
 18 38  1  0  0  0  0
 18 39  1  0  0  0  0
 19 20  1  0  0  0  0
 19 40  1  0  0  0  0
 19 41  1  0  0  0  0
 20 42  1  0  0  0  0
 20 43  1  0  0  0  0
M  CHG  1   2   1
M  END
> <s_m_source_file>
AV-unprocessed.smi

> <i_m_source_file_index>
2354

> <i_lp_mmshare_version>
43012

> <i_f3d_flags>
0

> <s_epik_input>
W0NIMl0xW0NIMl1bQ0gyXVtDSDJdQzEoW0NIMl1OKFtDSDNdKVtDSDNdKVtDSDJdW05IXUMoPU8pW05IXWMyW2NIXVtjSF1bY0hdbm4y

> <s_epik_cmdline>
J2VwaWtfcHl0aG9uJywgJy1waCcsICc3LjAnLCAnLXRuJywgJzgnLCAnLW1hJywgJzIwMCcsICctbWV0YWxfYmluZGluZycsICctaW1hZScsICc8aW5maWxlLm1hZT4nLCAnLW9tYWUnLCAnPG91dGZpbGUubWFlPic=

> <r_lp_tautomer_probability>
1

> <r_epik_Ionization_Penalty>
0.0045793

> <r_epik_Ionization_Penalty_Charging>
0.000516438

> <r_epik_Ionization_Penalty_Neutral>
0.00406287

> <r_epik_State_Penalty>
-0

> <r_epik_Charging_Adjusted_Penalty>
0.000516438

> <i_epik_Tot_Q>
1

> <i_epik_Tot_abs_Q>
1

> <r_epik_Metal_State_Penalty>
-0

> <b_epik_Metal_Only>
0

> <s_lp_Force_Field>
OPLS_2005

> <r_lp_Energy>
45.7912

> <b_lp_Chiralities_Consistent>
1

> <s_lp_Variant>
AV-unprocessed.smi:2354-1

> <Gold.Version>
5.8.1

> <Gold.Id.Protein>
6NUR|6NUR_protein|mol2

> <Gold.PLP.Fitness>
37.9579

> <Gold.PLP.PLP>
-27.5479

> <Gold.PLP.part.hbond>
-3.0000

> <Gold.PLP.part.metal>
0.0000

> <Gold.PLP.part.buried>
-4.7493

> <Gold.PLP.part.nonpolar>
-21.0598

> <Gold.PLP.part.repulsive>
0.6303

> <Gold.PLP.ligand.clash>
0.0000

> <Gold.PLP.ligand.torsion>
0.9434

> <Gold.PLP.Chemscore.Hbond>
3.9600

> <Gold.PLP.Chemscore.CHOScore>
0.0000

> <Gold.PLP.Chemscore.Metal>
0.0000

> <Gold.Chemscore.Hbonds>
donor molecule, donor type, donor heavy atom, donor atom, acceptor molecule, acceptor atom, score
      L1  H     2    44       P1  7948  2.00
      L1  H     7    31       P1  7948  1.00
      L1  H    10    32       P1  7948  0.94

> <Gold.PLP.Chemscore.Internal.Correction>
0.4168

> <Gold.Rescore>
     Score         DG    S(hbond)    S(metal)    S(lipo)     H(rot)  DE(clash)    DE(int)     intcor
     13.60     -17.33       2.78        0.00      61.52       1.81       0.04       3.69       ----

> <Gold.Chemscore.Fitness>
13.6015

> <Gold.Chemscore.DG>
-17.3276

> <Gold.Chemscore.ZeroCoef>
-5.4800

> <Gold.Chemscore.Hbond>
2.7778

> <Gold.Chemscore.Metal>
0.0000

> <Gold.Chemscore.Lipo>
61.5241

> <Gold.Chemscore.Internal_Hbond>
0.0000

> <Gold.Chemscore.DEClash>
0.0358

> <Gold.Chemscore.DEInternal>
3.6904

> <Gold.Chemscore.Rot>
1.8080

> <Gold.Chemscore.Internal.Correction>
   9.000000E+99

> <Gold.Chemscore.Hbonds>
donor molecule, donor type, donor heavy atom, donor atom, acceptor molecule, acceptor atom, score
      L1  H     2    44       P1  7948  0.95
      L1  H     7    31       P1  7948  0.93
      L1  H    10    32       P1  7948  0.80

> <Gold.Chemscore.Hbond.Weighted>
-9.2779

> <Gold.Chemscore.Metal.Weighted>
-0.0000

> <Gold.Chemscore.Lipo.Weighted>
-7.1983

> <Gold.Chemscore.Internal_Hbond.Weighted>
0.0000

> <Gold.Chemscore.DEClash.Weighted>
0.0358

> <Gold.Chemscore.DEInternal.Weighted>
3.6904

> <Gold.Chemscore.Rot.Weighted>
4.6286

> <Gold.Chemscore.Internal.Correction.Weighted>
   9.000000E+99

> <Gold.Protein.RotatedTorsions>
[ 6907 6896 6895 6894 ] final  -22.91 input  -60.11 | X-H torsion
[ 7974 7965 7964 7962 ] final  -74.70 input  175.53 | X-H torsion
[ 8008 7997 7996 7995 ] final  -18.90 input   59.86 | X-H torsion
[ 10167 10162 10161 10158 ] final  -59.54 input  -65.29 | X-H torsion
[ 10718 10713 10712 10709 ] final  -60.80 input   66.30 | X-H torsion
[ 10763 10752 10751 10750 ] final  139.92 input  -60.55 | X-H torsion
[ 11005 11000 10999 10996 ] final  118.52 input  -57.11 | X-H torsion

> <Gold.Protein.ActiveResidues>
 VAL166  LYS551  ARG553  GLY616  TRP617  ASP618  TYR619  PRO620  LYS621  CYS622 
 ASP623  PHE694  ASN695  SER759  ASP760  ASP761  ALA762  ILE779  LEU786  VAL792 
 PHE793  MET794  SER795  GLU796  ALA797  LYS798  CYS799  TRP800  GLU811  SER814 

> <Gold.Protein.RotatedAtoms>
  151.2116  135.0483  159.8913 H   0  0  0  0  0  0  0  0  0  0  0  0  # atno 6907 bound_to 6896
  152.5424  134.0738  159.8216 H   0  0  0  0  0  0  0  0  0  0  0  0  # atno 6908 bound_to 6896
  151.0892  133.5281  159.2648 H   0  0  0  0  0  0  0  0  0  0  0  0  # atno 6909 bound_to 6896
  145.6357  140.9325  143.1063 H   0  0  0  0  0  0  0  0  0  0  0  0  # atno 7974 bound_to 7965
  154.4873  140.2103  155.9626 H   0  0  0  0  0  0  0  0  0  0  0  0  # atno 8008 bound_to 7997
  156.1255  140.3206  155.8240 H   0  0  0  0  0  0  0  0  0  0  0  0  # atno 8009 bound_to 7997
  155.4391  140.0509  157.3002 H   0  0  0  0  0  0  0  0  0  0  0  0  # atno 8010 bound_to 7997
  140.6128  143.2392  151.5668 H   0  0  0  0  0  0  0  0  0  0  0  0  # atno 10167 bound_to 10162
  156.0965  130.4192  150.0905 H   0  0  0  0  0  0  0  0  0  0  0  0  # atno 10718 bound_to 10713
  153.9142  135.3008  155.3448 H   0  0  0  0  0  0  0  0  0  0  0  0  # atno 10763 bound_to 10752
  154.7608  135.4935  153.9464 H   0  0  0  0  0  0  0  0  0  0  0  0  # atno 10764 bound_to 10752
  153.1176  135.6774  153.9493 H   0  0  0  0  0  0  0  0  0  0  0  0  # atno 10765 bound_to 10752
  139.9112  134.9621  156.7515 H   0  0  0  0  0  0  0  0  0  0  0  0  # atno 11005 bound_to 11000
  144.7176  139.8141  143.7393 LP  0  0  0  0  0  0  0  0  0  0  0  0  # atno 17320 bound_to 7965
  146.1321  139.4359  143.0162 LP  0  0  0  0  0  0  0  0  0  0  0  0  # atno 17321 bound_to 7965
  139.5375  144.2740  152.1282 LP  0  0  0  0  0  0  0  0  0  0  0  0  # atno 17342 bound_to 10162
  140.1943  144.4720  150.6463 LP  0  0  0  0  0  0  0  0  0  0  0  0  # atno 17343 bound_to 10162
  156.8903  130.9586  151.3589 LP  0  0  0  0  0  0  0  0  0  0  0  0  # atno 17370 bound_to 10713
  157.6127  130.8595  149.8978 LP  0  0  0  0  0  0  0  0  0  0  0  0  # atno 17371 bound_to 10713
  140.6770  133.9509  155.7888 LP  0  0  0  0  0  0  0  0  0  0  0  0  # atno 17394 bound_to 11000
  141.0537  134.0447  157.3750 LP  0  0  0  0  0  0  0  0  0  0  0  0  # atno 17395 bound_to 11000

$$$$
