AV-unprocessed.smi:881|AV-procd|sdf|4036|dock2
  -GOLD-   22720 1523D 1   1.00000     0.00000
 Structure written by MMmdl.
 31 32  0  0  0  0  0  0  0  0  2 V2000
  153.5867  139.5339  158.3285 O   0  0  0  0  0  0  0  0  0  0  0  0
  152.4100  139.6321  157.9728 C   0  0  0  0  0  0  0  0  0  0  0  0
  151.6439  138.6428  157.4585 N   0  5  0  0  0  0  0  0  0  0  0  0
  151.1491  138.7538  156.2147 C   0  0  0  0  0  0  0  0  0  0  0  0
  150.9069  139.9438  155.6417 N   0  0  0  0  0  0  0  0  0  0  0  0
  150.4017  139.8366  154.3531 N   0  0  0  0  0  0  0  0  0  0  0  0
  150.2837  138.5619  153.9820 C   0  0  0  0  0  0  0  0  0  0  0  0
  150.7819  137.3772  155.1711 S   0  0  0  0  0  0  0  0  0  0  0  0
  151.7714  140.8067  158.0811 N   0  0  0  0  0  0  0  0  0  0  0  0
  152.3320  142.0566  158.5927 C   0  0  0  0  0  0  0  0  0  0  0  0
  152.3117  142.0299  160.1354 C   0  0  0  0  0  0  0  0  0  0  0  0
  152.8311  143.3050  160.8218 C   0  0  0  0  0  0  0  0  0  0  0  0
  151.8338  144.4719  160.7423 C   0  0  0  0  0  0  0  0  0  0  0  0
  151.9248  145.3326  159.4702 C   0  0  0  0  0  0  0  0  0  0  0  0
  152.2540  144.5929  158.1616 C   0  0  0  0  0  0  0  0  0  0  0  0
  151.5549  143.2361  157.9713 C   0  0  0  0  0  0  0  0  0  0  0  0
  149.9041  138.3178  153.0012 H   0  0  0  0  0  0  0  0  0  0  0  0
  150.8089  140.8341  157.7787 H   0  0  0  0  0  0  0  0  0  0  0  0
  153.3687  142.1283  158.2585 H   0  0  0  0  0  0  0  0  0  0  0  0
  151.3032  141.8108  160.4893 H   0  0  0  0  0  0  0  0  0  0  0  0
  152.9257  141.1941  160.4734 H   0  0  0  0  0  0  0  0  0  0  0  0
  152.9871  143.0699  161.8750 H   0  0  0  0  0  0  0  0  0  0  0  0
  153.8090  143.5927  160.4339 H   0  0  0  0  0  0  0  0  0  0  0  0
  150.8190  144.0872  160.8502 H   0  0  0  0  0  0  0  0  0  0  0  0
  151.9833  145.1265  161.6015 H   0  0  0  0  0  0  0  0  0  0  0  0
  150.9809  145.8660  159.3528 H   0  0  0  0  0  0  0  0  0  0  0  0
  152.6798  146.1059  159.6178 H   0  0  0  0  0  0  0  0  0  0  0  0
  151.9826  145.2478  157.3328 H   0  0  0  0  0  0  0  0  0  0  0  0
  153.3333  144.4600  158.0770 H   0  0  0  0  0  0  0  0  0  0  0  0
  151.4765  143.0591  156.8974 H   0  0  0  0  0  0  0  0  0  0  0  0
  150.5295  143.2717  158.3417 H   0  0  0  0  0  0  0  0  0  0  0  0
  1  2  2  0  0  0  0
  2  3  1  0  0  0  0
  2  9  1  0  0  0  0
  3  4  1  0  0  0  0
  4  8  1  0  0  0  0
  4  5  2  0  0  0  0
  5  6  1  0  0  0  0
  6  7  2  0  0  0  0
  7  8  1  0  0  0  0
  7 17  1  0  0  0  0
  9 10  1  0  0  0  0
  9 18  1  0  0  0  0
 10 16  1  0  0  0  0
 10 11  1  0  0  0  0
 10 19  1  0  0  0  0
 11 12  1  0  0  0  0
 11 20  1  0  0  0  0
 11 21  1  0  0  0  0
 12 13  1  0  0  0  0
 12 22  1  0  0  0  0
 12 23  1  0  0  0  0
 13 14  1  0  0  0  0
 13 24  1  0  0  0  0
 13 25  1  0  0  0  0
 14 15  1  0  0  0  0
 14 26  1  0  0  0  0
 14 27  1  0  0  0  0
 15 16  1  0  0  0  0
 15 28  1  0  0  0  0
 15 29  1  0  0  0  0
 16 30  1  0  0  0  0
 16 31  1  0  0  0  0
M  CHG  1   3  -1
M  END
> <s_m_source_file>
AV-unprocessed.smi

> <i_m_source_file_index>
881

> <i_lp_mmshare_version>
43012

> <i_f3d_flags>
0

> <s_epik_input>
czFbY0hdbm5jMVtOSF1DKD1PKVtOSF1bQ0hdMltDSDJdW0NIMl1bQ0gyXVtDSDJdW0NIMl1bQ0gyXTI=

> <s_epik_cmdline>
J2VwaWtfcHl0aG9uJywgJy1waCcsICc3LjAnLCAnLXRuJywgJzgnLCAnLW1hJywgJzIwMCcsICctbWV0YWxfYmluZGluZycsICctaW1hZScsICc8aW5maWxlLm1hZT4nLCAnLW9tYWUnLCAnPG91dGZpbGUubWFlPic=

> <r_lp_tautomer_probability>
1

> <r_epik_Ionization_Penalty>
4.55263

> <r_epik_Ionization_Penalty_Charging>
4.50588

> <r_epik_Ionization_Penalty_Neutral>
0.0467569

> <r_epik_State_Penalty>
4.50558

> <r_epik_Charging_Adjusted_Penalty>
9.01146

> <i_epik_Tot_Q>
-1

> <i_epik_Tot_abs_Q>
1

> <r_epik_Metal_State_Penalty>
0.822218

> <b_epik_Metal_Only>
1

> <s_lp_Force_Field>
OPLS_2005

> <r_lp_Energy>
12.3928

> <b_lp_Chiralities_Consistent>
1

> <s_lp_Variant>
AV-unprocessed.smi:881-2

> <Gold.Version>
5.8.1

> <Gold.Id.Protein>
6NUR|6NUR_protein|mol2

> <Gold.PLP.Fitness>
44.5329

> <Gold.PLP.PLP>
-35.0056

> <Gold.PLP.part.hbond>
-2.0000

> <Gold.PLP.part.metal>
0.0000

> <Gold.PLP.part.buried>
-5.7113

> <Gold.PLP.part.nonpolar>
-28.5844

> <Gold.PLP.part.repulsive>
0.2307

> <Gold.PLP.ligand.clash>
0.0000

> <Gold.PLP.ligand.torsion>
1.0673

> <Gold.PLP.Chemscore.Hbond>
2.0000

> <Gold.PLP.Chemscore.CHOScore>
1.8794

> <Gold.PLP.Chemscore.Metal>
0.0000

> <Gold.Chemscore.Hbonds>
donor molecule, donor type, donor heavy atom, donor atom, acceptor molecule, acceptor atom, score
      P1  H  7989  7998       L1     6  0.95
      P1  H  7997  8010       L1     1  1.00
      L1  C     7    17       P1  7948  1.00
      L1  C     7    17       P1  7957  0.88

> <Gold.PLP.Chemscore.Internal.Correction>
0.0236

> <Gold.Rescore>
     Score         DG    S(hbond)    S(metal)    S(lipo)     H(rot)  DE(clash)    DE(int)     intcor
     18.26     -19.45       1.54        0.00      97.29       1.00       0.01       1.18       ----

> <Gold.Chemscore.Fitness>
18.2604

> <Gold.Chemscore.DG>
-19.4507

> <Gold.Chemscore.ZeroCoef>
-5.4800

> <Gold.Chemscore.Hbond>
1.5411

> <Gold.Chemscore.Metal>
0.0000

> <Gold.Chemscore.Lipo>
97.2937

> <Gold.Chemscore.Internal_Hbond>
0.0000

> <Gold.Chemscore.DEClash>
0.0082

> <Gold.Chemscore.DEInternal>
1.1821

> <Gold.Chemscore.Rot>
1.0000

> <Gold.Chemscore.Internal.Correction>
   9.000000E+99

> <Gold.Chemscore.Hbonds>
donor molecule, donor type, donor heavy atom, donor atom, acceptor molecule, acceptor atom, score
      P1  H  7989  7998       L1     6  0.21
      P1  H  7997  8010       L1     1  0.70

> <Gold.Chemscore.Hbond.Weighted>
-5.1473

> <Gold.Chemscore.Metal.Weighted>
-0.0000

> <Gold.Chemscore.Lipo.Weighted>
-11.3834

> <Gold.Chemscore.Internal_Hbond.Weighted>
0.0000

> <Gold.Chemscore.DEClash.Weighted>
0.0082

> <Gold.Chemscore.DEInternal.Weighted>
1.1821

> <Gold.Chemscore.Rot.Weighted>
2.5600

> <Gold.Chemscore.Internal.Correction.Weighted>
   9.000000E+99

> <Gold.Protein.RotatedTorsions>
[ 6907 6896 6895 6894 ] final -141.92 input  -60.11 | X-H torsion
[ 7974 7965 7964 7962 ] final  -42.61 input  175.53 | X-H torsion
[ 8008 7997 7996 7995 ] final   34.66 input   59.86 | X-H torsion
[ 10167 10162 10161 10158 ] final -134.09 input  -65.29 | X-H torsion
[ 10718 10713 10712 10709 ] final  141.01 input   66.30 | X-H torsion
[ 10763 10752 10751 10750 ] final -175.62 input  -60.55 | X-H torsion
[ 11005 11000 10999 10996 ] final  -27.53 input  -57.11 | X-H torsion

> <Gold.Protein.ActiveResidues>
 VAL166  LYS551  ARG553  GLY616  TRP617  ASP618  TYR619  PRO620  LYS621  CYS622 
 ASP623  PHE694  ASN695  SER759  ASP760  ASP761  ALA762  ILE779  LEU786  VAL792 
 PHE793  MET794  SER795  GLU796  ALA797  LYS798  CYS799  TRP800  GLU811  SER814 

> <Gold.Protein.RotatedAtoms>
  151.0802  133.5396  159.2620 H   0  0  0  0  0  0  0  0  0  0  0  0  # atno 6907 bound_to 6896
  151.2302  135.0551  159.8994 H   0  0  0  0  0  0  0  0  0  0  0  0  # atno 6908 bound_to 6896
  152.5423  134.0592  159.8198 H   0  0  0  0  0  0  0  0  0  0  0  0  # atno 6909 bound_to 6896
  146.0099  140.6977  142.9229 H   0  0  0  0  0  0  0  0  0  0  0  0  # atno 7974 bound_to 7965
  155.1584  140.3281  155.4416 H   0  0  0  0  0  0  0  0  0  0  0  0  # atno 8008 bound_to 7997
  156.2551  140.1964  156.6643 H   0  0  0  0  0  0  0  0  0  0  0  0  # atno 8009 bound_to 7997
  154.6422  140.0569  156.9846 H   0  0  0  0  0  0  0  0  0  0  0  0  # atno 8010 bound_to 7997
  139.8916  143.6716  152.2611 H   0  0  0  0  0  0  0  0  0  0  0  0  # atno 10167 bound_to 10162
  157.3968  131.1011  151.0592 H   0  0  0  0  0  0  0  0  0  0  0  0  # atno 10718 bound_to 10713
  154.5822  135.2837  155.0721 H   0  0  0  0  0  0  0  0  0  0  0  0  # atno 10763 bound_to 10752
  154.2053  135.6417  153.5103 H   0  0  0  0  0  0  0  0  0  0  0  0  # atno 10764 bound_to 10752
  153.0092  135.5478  154.6480 H   0  0  0  0  0  0  0  0  0  0  0  0  # atno 10765 bound_to 10752
  140.9127  133.7450  156.0693 H   0  0  0  0  0  0  0  0  0  0  0  0  # atno 11005 bound_to 11000
  144.6949  140.3379  143.7204 LP  0  0  0  0  0  0  0  0  0  0  0  0  # atno 17320 bound_to 7965
  145.7359  139.1749  143.2404 LP  0  0  0  0  0  0  0  0  0  0  0  0  # atno 17321 bound_to 7965
  139.7105  144.7621  151.1121 LP  0  0  0  0  0  0  0  0  0  0  0  0  # atno 17342 bound_to 10162
  140.7725  143.5337  150.9393 LP  0  0  0  0  0  0  0  0  0  0  0  0  # atno 17343 bound_to 10162
  157.1605  130.6224  149.5609 LP  0  0  0  0  0  0  0  0  0  0  0  0  # atno 17370 bound_to 10713
  155.9812  130.4818  150.6817 LP  0  0  0  0  0  0  0  0  0  0  0  0  # atno 17371 bound_to 10713
  140.8089  134.3422  157.5418 LP  0  0  0  0  0  0  0  0  0  0  0  0  # atno 17394 bound_to 11000
  139.8760  134.9242  156.3344 LP  0  0  0  0  0  0  0  0  0  0  0  0  # atno 17395 bound_to 11000

$$$$
