AV-unprocessed.smi:2631|AV-procd|sdf|10248|dock8
  -GOLD-   2272014253D 1   1.00000     0.00000
 Structure written by MMmdl.
 35 36  0  0  0  0  0  0  0  0  1 V2000
  147.1159  135.9283  161.4573 C   0  0  0  0  0  0  0  0  0  0  0  0
  146.5151  136.6971  160.4310 O   0  0  0  0  0  0  0  0  0  0  0  0
  147.1544  136.5266  159.1766 C   0  0  0  0  0  0  0  0  0  0  0  0
  148.6102  137.0127  159.2733 C   0  0  0  0  0  0  0  0  0  0  0  0
  149.3606  136.7983  158.0519 N   0  0  0  0  0  0  0  0  0  0  0  0
  149.8863  137.8311  157.2712 C   0  0  0  0  0  0  0  0  0  0  0  0
  149.7037  139.1427  157.6751 N   0  0  0  0  0  0  0  0  0  0  0  0
  150.5540  137.5656  156.1184 C   0  0  0  0  0  0  0  0  0  0  0  0
  151.2425  138.7858  155.0254 S   0  0  0  0  0  0  0  0  0  0  0  0
  149.8039  139.7184  154.6134 C   0  0  0  0  0  0  0  0  0  0  0  0
  148.7762  139.1275  153.8514 C   0  0  0  0  0  0  0  0  0  0  0  0
  147.6321  139.8770  153.5152 C   0  0  0  0  0  0  0  0  0  0  0  0
  147.5157  141.2152  153.9415 C   0  0  0  0  0  0  0  0  0  0  0  0
  146.1149  142.1336  153.5276 Cl  0  0  0  0  0  0  0  0  0  0  0  0
  148.5438  141.8038  154.7048 C   0  0  0  0  0  0  0  0  0  0  0  0
  149.6885  141.0555  155.0417 C   0  0  0  0  0  0  0  0  0  0  0  0
  150.7660  136.2005  155.6321 C   0  0  0  0  0  0  0  0  0  0  0  0
  151.3673  135.8682  154.6110 O   0  0  0  0  0  0  0  0  0  0  0  0
  150.2037  135.2205  156.4495 N   0  0  0  0  0  0  0  0  0  0  0  0
  149.5021  135.4514  157.6315 C   0  0  0  0  0  0  0  0  0  0  0  0
  149.0366  134.4955  158.2529 O   0  0  0  0  0  0  0  0  0  0  0  0
  150.3104  134.2601  156.1569 H   0  0  0  0  0  0  0  0  0  0  0  0
  146.5899  136.0981  162.3966 H   0  0  0  0  0  0  0  0  0  0  0  0
  148.1603  136.2082  161.5994 H   0  0  0  0  0  0  0  0  0  0  0  0
  147.0662  134.8622  161.2320 H   0  0  0  0  0  0  0  0  0  0  0  0
  147.1407  135.4709  158.9022 H   0  0  0  0  0  0  0  0  0  0  0  0
  146.6176  137.0697  158.3973 H   0  0  0  0  0  0  0  0  0  0  0  0
  148.6620  138.0749  159.5089 H   0  0  0  0  0  0  0  0  0  0  0  0
  149.1498  136.5155  160.0813 H   0  0  0  0  0  0  0  0  0  0  0  0
  149.2001  139.3727  158.5198 H   0  0  0  0  0  0  0  0  0  0  0  0
  150.1355  139.9142  157.1866 H   0  0  0  0  0  0  0  0  0  0  0  0
  148.8632  138.1031  153.5203 H   0  0  0  0  0  0  0  0  0  0  0  0
  146.8455  139.4244  152.9293 H   0  0  0  0  0  0  0  0  0  0  0  0
  148.4564  142.8297  155.0315 H   0  0  0  0  0  0  0  0  0  0  0  0
  150.4770  141.5099  155.6236 H   0  0  0  0  0  0  0  0  0  0  0  0
  1  2  1  0  0  0  0
  1 23  1  0  0  0  0
  1 24  1  0  0  0  0
  1 25  1  0  0  0  0
  2  3  1  0  0  0  0
  3  4  1  0  0  0  0
  3 26  1  0  0  0  0
  3 27  1  0  0  0  0
  4  5  1  0  0  0  0
  4 28  1  0  0  0  0
  4 29  1  0  0  0  0
  5 20  1  0  0  0  0
  5  6  1  0  0  0  0
  6  7  1  0  0  0  0
  6  8  2  0  0  0  0
  7 30  1  0  0  0  0
  7 31  1  0  0  0  0
  8  9  1  0  0  0  0
  8 17  1  0  0  0  0
  9 10  1  0  0  0  0
 10 16  1  0  0  0  0
 10 11  2  0  0  0  0
 11 12  1  0  0  0  0
 11 32  1  0  0  0  0
 12 13  2  0  0  0  0
 12 33  1  0  0  0  0
 13 14  1  0  0  0  0
 13 15  1  0  0  0  0
 15 16  2  0  0  0  0
 15 34  1  0  0  0  0
 16 35  1  0  0  0  0
 17 18  2  0  0  0  0
 17 19  1  0  0  0  0
 19 22  1  0  0  0  0
 19 20  1  0  0  0  0
 20 21  2  0  0  0  0
M  END
> <s_m_source_file>
AV-unprocessed.smi

> <i_m_source_file_index>
2631

> <i_lp_mmshare_version>
43012

> <i_f3d_flags>
0

> <s_epik_input>
W0NIM11PW0NIMl1bQ0gyXW4xYyhbTkgyXSljKGMoPU8pW25IXWMxPU8pU2MyW2NIXVtjSF1jKENsKVtjSF1bY0hdMg==

> <s_epik_cmdline>
J2VwaWtfcHl0aG9uJywgJy1waCcsICc3LjAnLCAnLXRuJywgJzgnLCAnLW1hJywgJzIwMCcsICctbWV0YWxfYmluZGluZycsICctaW1hZScsICc8aW5maWxlLm1hZT4nLCAnLW9tYWUnLCAnPG91dGZpbGUubWFlPic=

> <r_lp_tautomer_probability>
1

> <r_epik_Ionization_Penalty>
9.0495e-05

> <r_epik_Ionization_Penalty_Charging>
7.40646e-05

> <r_epik_Ionization_Penalty_Neutral>
1.64304e-05

> <r_epik_State_Penalty>
-0

> <r_epik_Charging_Adjusted_Penalty>
7.40646e-05

> <i_epik_Tot_Q>
0

> <i_epik_Tot_abs_Q>
0

> <r_epik_Metal_State_Penalty>
0.0697747

> <b_epik_Metal_Only>
0

> <s_epik_Chemistry_Notes>
This compound has an imine and may undergo hydrolysis.

> <s_lp_Force_Field>
OPLS_2005

> <r_lp_Energy>
18.0154

> <b_lp_Chiralities_Consistent>
1

> <s_lp_Variant>
AV-unprocessed.smi:2631-1

> <Gold.Version>
5.8.1

> <Gold.Id.Protein>
6NUR|6NUR_protein|mol2

> <Gold.PLP.Fitness>
39.6993

> <Gold.PLP.PLP>
-30.7843

> <Gold.PLP.part.hbond>
-3.0000

> <Gold.PLP.part.metal>
0.0000

> <Gold.PLP.part.buried>
0.1758

> <Gold.PLP.part.nonpolar>
-29.0330

> <Gold.PLP.part.repulsive>
1.2915

> <Gold.PLP.ligand.clash>
0.0000

> <Gold.PLP.ligand.torsion>
0.0591

> <Gold.PLP.Chemscore.Hbond>
3.0000

> <Gold.PLP.Chemscore.CHOScore>
0.0000

> <Gold.PLP.Chemscore.Metal>
0.0000

> <Gold.Chemscore.Hbonds>
donor molecule, donor type, donor heavy atom, donor atom, acceptor molecule, acceptor atom, score
      P1  H  6896  6908       L1    21  0.90
      P1  H 10752 10765       L1    18  1.00

> <Gold.PLP.Chemscore.Internal.Correction>
0.0332

> <Gold.Rescore>
     Score         DG    S(hbond)    S(metal)    S(lipo)     H(rot)  DE(clash)    DE(int)     intcor
     15.14     -17.25       2.57        0.00      72.36       2.07       1.75       0.35       ----

> <Gold.Chemscore.Fitness>
15.1410

> <Gold.Chemscore.DG>
-17.2481

> <Gold.Chemscore.ZeroCoef>
-5.4800

> <Gold.Chemscore.Hbond>
2.5737

> <Gold.Chemscore.Metal>
0.0000

> <Gold.Chemscore.Lipo>
72.3596

> <Gold.Chemscore.Internal_Hbond>
0.0000

> <Gold.Chemscore.DEClash>
1.7542

> <Gold.Chemscore.DEInternal>
0.3528

> <Gold.Chemscore.Rot>
2.0680

> <Gold.Chemscore.Internal.Correction>
   9.000000E+99

> <Gold.Chemscore.Hbonds>
donor molecule, donor type, donor heavy atom, donor atom, acceptor molecule, acceptor atom, score
      P1  H  6896  6908       L1    21  0.17
      P1  H 10752 10765       L1    18  0.97

> <Gold.Chemscore.Hbond.Weighted>
-8.5961

> <Gold.Chemscore.Metal.Weighted>
-0.0000

> <Gold.Chemscore.Lipo.Weighted>
-8.4661

> <Gold.Chemscore.Internal_Hbond.Weighted>
0.0000

> <Gold.Chemscore.DEClash.Weighted>
1.7542

> <Gold.Chemscore.DEInternal.Weighted>
0.3528

> <Gold.Chemscore.Rot.Weighted>
5.2941

> <Gold.Chemscore.Internal.Correction.Weighted>
   9.000000E+99

> <Gold.Protein.RotatedTorsions>
[ 6907 6896 6895 6894 ] final  137.17 input  -60.11 | X-H torsion
[ 7974 7965 7964 7962 ] final   85.55 input  175.53 | X-H torsion
[ 8008 7997 7996 7995 ] final  -23.21 input   59.86 | X-H torsion
[ 10167 10162 10161 10158 ] final  -13.31 input  -65.29 | X-H torsion
[ 10718 10713 10712 10709 ] final   16.46 input   66.30 | X-H torsion
[ 10763 10752 10751 10750 ] final  178.42 input  -60.55 | X-H torsion
[ 11005 11000 10999 10996 ] final  -74.54 input  -57.11 | X-H torsion

> <Gold.Protein.ActiveResidues>
 VAL166  LYS551  ARG553  GLY616  TRP617  ASP618  TYR619  PRO620  LYS621  CYS622 
 ASP623  PHE694  ASN695  SER759  ASP760  ASP761  ALA762  ILE779  LEU786  VAL792 
 PHE793  MET794  SER795  GLU796  ALA797  LYS798  CYS799  TRP800  GLU811  SER814 

> <Gold.Protein.RotatedAtoms>
  152.2811  133.5471  159.5497 H   0  0  0  0  0  0  0  0  0  0  0  0  # atno 6907 bound_to 6896
  150.7196  134.0563  159.3824 H   0  0  0  0  0  0  0  0  0  0  0  0  # atno 6908 bound_to 6896
  151.8474  135.0570  160.0506 H   0  0  0  0  0  0  0  0  0  0  0  0  # atno 6909 bound_to 6896
  145.5840  139.2329  143.2337 H   0  0  0  0  0  0  0  0  0  0  0  0  # atno 7974 bound_to 7965
  154.4598  140.1987  156.0276 H   0  0  0  0  0  0  0  0  0  0  0  0  # atno 8008 bound_to 7997
  156.0818  140.3270  155.7675 H   0  0  0  0  0  0  0  0  0  0  0  0  # atno 8009 bound_to 7997
  155.5099  140.0561  157.2916 H   0  0  0  0  0  0  0  0  0  0  0  0  # atno 8010 bound_to 7997
  140.7179  143.5439  150.9377 H   0  0  0  0  0  0  0  0  0  0  0  0  # atno 10167 bound_to 10162
  157.0681  130.6337  149.5800 H   0  0  0  0  0  0  0  0  0  0  0  0  # atno 10718 bound_to 10713
  154.5074  135.2786  155.1371 H   0  0  0  0  0  0  0  0  0  0  0  0  # atno 10763 bound_to 10752
  154.2980  135.6254  153.5416 H   0  0  0  0  0  0  0  0  0  0  0  0  # atno 10764 bound_to 10752
  152.9912  135.5690  154.5531 H   0  0  0  0  0  0  0  0  0  0  0  0  # atno 10765 bound_to 10752
  141.1636  133.6915  156.7380 H   0  0  0  0  0  0  0  0  0  0  0  0  # atno 11005 bound_to 11000
  146.1695  140.6667  142.9240 LP  0  0  0  0  0  0  0  0  0  0  0  0  # atno 17320 bound_to 7965
  144.7381  140.4865  143.6889 LP  0  0  0  0  0  0  0  0  0  0  0  0  # atno 17321 bound_to 7965
  139.9163  143.6660  152.3105 LP  0  0  0  0  0  0  0  0  0  0  0  0  # atno 17342 bound_to 10162
  139.7061  144.7628  151.1191 LP  0  0  0  0  0  0  0  0  0  0  0  0  # atno 17343 bound_to 10162
  155.9958  130.5026  150.7474 LP  0  0  0  0  0  0  0  0  0  0  0  0  # atno 17370 bound_to 10713
  157.4900  131.0910  151.0438 LP  0  0  0  0  0  0  0  0  0  0  0  0  # atno 17371 bound_to 10713
  140.2695  134.8403  157.3834 LP  0  0  0  0  0  0  0  0  0  0  0  0  # atno 17394 bound_to 11000
  140.1534  134.4820  155.7945 LP  0  0  0  0  0  0  0  0  0  0  0  0  # atno 17395 bound_to 11000

$$$$
