AV-unprocessed.smi:3265|AV-procd|sdf|12497|dock8
  -GOLD-   2272018403D 1   1.00000     0.00000
 Structure written by MMmdl.
 41 42  0  0  0  0  0  0  0  0  2 V2000
  145.9482  143.0267  153.9720 C   0  0  0  0  0  0  0  0  0  0  0  0
  147.1099  142.1248  154.4247 C   0  0  1  0  0  0  0  0  0  0  0  0
  146.8083  141.3768  155.7363 C   0  0  0  0  0  0  0  0  0  0  0  0
  145.8125  140.2313  155.5067 C   0  0  0  0  0  0  0  0  0  0  0  0
  146.2930  139.2995  154.3830 C   0  0  0  0  0  0  0  0  0  0  0  0
  146.5370  140.0534  153.1261 N   0  3  2  0  0  0  0  0  0  0  0  0
  146.8560  139.1535  151.9892 C   0  0  0  0  0  0  0  0  0  0  0  0
  145.7244  138.1510  151.6930 C   0  0  0  0  0  0  0  0  0  0  0  0
  146.2323  136.7881  151.6002 N   0  0  0  0  0  0  0  0  0  0  0  0
  145.5076  135.6768  151.8148 C   0  0  0  0  0  0  0  0  0  0  0  0
  144.3234  135.7070  152.1481 O   0  0  0  0  0  0  0  0  0  0  0  0
  146.2129  134.3227  151.6566 C   0  0  0  0  0  0  0  0  0  0  0  0
  145.3370  133.2740  151.1563 N   0  0  0  0  0  0  0  0  0  0  0  0
  145.6580  131.9711  150.8361 C   0  0  0  0  0  0  0  0  0  0  0  0
  144.5136  131.3649  150.4034 C   0  0  0  0  0  0  0  0  0  0  0  0
  143.5306  132.3891  150.5008 C   0  0  0  0  0  0  0  0  0  0  0  0
  144.0259  133.5302  150.9523 N   0  0  0  0  0  0  0  0  0  0  0  0
  147.5422  141.1337  153.3241 C   0  0  0  0  0  0  0  0  0  0  0  0
  145.0545  142.4513  153.7303 H   0  0  0  0  0  0  0  0  0  0  0  0
  146.2199  143.5982  153.0841 H   0  0  0  0  0  0  0  0  0  0  0  0
  145.6814  143.7416  154.7509 H   0  0  0  0  0  0  0  0  0  0  0  0
  147.9548  142.7875  154.6169 H   0  0  0  0  0  0  0  0  0  0  0  0
  147.7362  140.9657  156.1360 H   0  0  0  0  0  0  0  0  0  0  0  0
  146.4286  142.0645  156.4927 H   0  0  0  0  0  0  0  0  0  0  0  0
  145.6833  139.6640  156.4288 H   0  0  0  0  0  0  0  0  0  0  0  0
  144.8303  140.6341  155.2574 H   0  0  0  0  0  0  0  0  0  0  0  0
  147.2077  138.7856  154.6835 H   0  0  0  0  0  0  0  0  0  0  0  0
  145.5383  138.5306  154.2140 H   0  0  0  0  0  0  0  0  0  0  0  0
  147.0925  139.7448  151.1032 H   0  0  0  0  0  0  0  0  0  0  0  0
  147.7573  138.5882  152.2307 H   0  0  0  0  0  0  0  0  0  0  0  0
  144.9482  138.2102  152.4583 H   0  0  0  0  0  0  0  0  0  0  0  0
  145.2410  138.3758  150.7434 H   0  0  0  0  0  0  0  0  0  0  0  0
  147.1984  136.6765  151.3276 H   0  0  0  0  0  0  0  0  0  0  0  0
  147.0536  134.4363  150.9715 H   0  0  0  0  0  0  0  0  0  0  0  0
  146.6240  134.0065  152.6167 H   0  0  0  0  0  0  0  0  0  0  0  0
  146.6631  131.5888  150.9390 H   0  0  0  0  0  0  0  0  0  0  0  0
  144.3958  130.3446  150.0698 H   0  0  0  0  0  0  0  0  0  0  0  0
  142.4796  132.3376  150.2580 H   0  0  0  0  0  0  0  0  0  0  0  0
  147.7087  141.6826  152.3981 H   0  0  0  0  0  0  0  0  0  0  0  0
  148.4991  140.6821  153.5908 H   0  0  0  0  0  0  0  0  0  0  0  0
  145.6625  140.5033  152.8959 H   0  0  0  0  0  0  0  0  0  0  0  0
  1  2  1  0  0  0  0
  1 19  1  0  0  0  0
  1 20  1  0  0  0  0
  1 21  1  0  0  0  0
  2 18  1  0  0  0  0
  2  3  1  0  0  0  0
  2 22  1  0  0  0  0
  3  4  1  0  0  0  0
  3 23  1  0  0  0  0
  3 24  1  0  0  0  0
  4  5  1  0  0  0  0
  4 25  1  0  0  0  0
  4 26  1  0  0  0  0
  5  6  1  0  0  0  0
  5 27  1  0  0  0  0
  5 28  1  0  0  0  0
  6  7  1  0  0  0  0
  6 18  1  0  0  0  0
  6 41  1  0  0  0  0
  7  8  1  0  0  0  0
  7 29  1  0  0  0  0
  7 30  1  0  0  0  0
  8  9  1  0  0  0  0
  8 31  1  0  0  0  0
  8 32  1  0  0  0  0
  9 10  1  0  0  0  0
  9 33  1  0  0  0  0
 10 11  2  0  0  0  0
 10 12  1  0  0  0  0
 12 13  1  0  0  0  0
 12 34  1  0  0  0  0
 12 35  1  0  0  0  0
 13 17  1  0  0  0  0
 13 14  1  0  0  0  0
 14 15  2  0  0  0  0
 14 36  1  0  0  0  0
 15 16  1  0  0  0  0
 15 37  1  0  0  0  0
 16 17  2  0  0  0  0
 16 38  1  0  0  0  0
 18 39  1  0  0  0  0
 18 40  1  0  0  0  0
M  CHG  1   6   1
M  END
> <s_m_source_file>
AV-unprocessed.smi

> <i_m_source_file_index>
3265

> <i_lp_mmshare_version>
43012

> <i_f3d_flags>
0

> <s_epik_input>
W0NIM11bQ0BASF0xW0NIMl1bQ0gyXVtDSDJdTihbQ0gyXTEpW0NIMl1bQ0gyXVtOSF1DKD1PKVtDSDJdbjJbY0hdW2NIXVtjSF1uMg==

> <s_epik_cmdline>
J2VwaWtfcHl0aG9uJywgJy1waCcsICc3LjAnLCAnLXRuJywgJzgnLCAnLW1hJywgJzIwMCcsICctbWV0YWxfYmluZGluZycsICctaW1hZScsICc8aW5maWxlLm1hZT4nLCAnLW9tYWUnLCAnPG91dGZpbGUubWFlPic=

> <r_lp_tautomer_probability>
1

> <r_epik_Ionization_Penalty>
0.00231455

> <r_epik_Ionization_Penalty_Charging>
0.00230623

> <r_epik_Ionization_Penalty_Neutral>
8.31727e-06

> <r_epik_State_Penalty>
0.00159065

> <r_epik_Charging_Adjusted_Penalty>
0.00389688

> <i_epik_Tot_Q>
1

> <i_epik_Tot_abs_Q>
1

> <r_epik_Metal_State_Penalty>
-0

> <b_epik_Metal_Only>
0

> <s_lp_Force_Field>
OPLS_2005

> <r_lp_Energy>
19.1739

> <b_lp_Chiralities_Consistent>
1

> <s_lp_Variant>
AV-unprocessed.smi:3265-2

> <Gold.Version>
5.8.1

> <Gold.Id.Protein>
6NUR|6NUR_protein|mol2

> <Gold.PLP.Fitness>
45.0455

> <Gold.PLP.PLP>
-30.6999

> <Gold.PLP.part.hbond>
-2.0000

> <Gold.PLP.part.metal>
0.0000

> <Gold.PLP.part.buried>
1.3737

> <Gold.PLP.part.nonpolar>
-31.2818

> <Gold.PLP.part.repulsive>
0.3734

> <Gold.PLP.ligand.clash>
0.0000

> <Gold.PLP.ligand.torsion>
0.9109

> <Gold.PLP.Chemscore.Hbond>
3.0000

> <Gold.PLP.Chemscore.CHOScore>
2.3793

> <Gold.PLP.Chemscore.Metal>
0.0000

> <Gold.Chemscore.Hbonds>
donor molecule, donor type, donor heavy atom, donor atom, acceptor molecule, acceptor atom, score
      L1  H     6    41       P1 10175  2.00
      L1  H     9    33       P1  7948  0.98
      L1  C    14    36       P1 10747  1.00
      L1  C    16    38       P1 10186  0.65
      L1  C    16    38       P1 10952  0.65

> <Gold.PLP.Chemscore.Internal.Correction>
0.0296

> <Gold.Rescore>
     Score         DG    S(hbond)    S(metal)    S(lipo)     H(rot)  DE(clash)    DE(int)     intcor
     12.02     -15.72       1.89        0.00      73.81       1.84       1.15       2.56       ----

> <Gold.Chemscore.Fitness>
12.0176

> <Gold.Chemscore.DG>
-15.7223

> <Gold.Chemscore.ZeroCoef>
-5.4800

> <Gold.Chemscore.Hbond>
1.8903

> <Gold.Chemscore.Metal>
0.0000

> <Gold.Chemscore.Lipo>
73.8090

> <Gold.Chemscore.Internal_Hbond>
0.0000

> <Gold.Chemscore.DEClash>
1.1479

> <Gold.Chemscore.DEInternal>
2.5568

> <Gold.Chemscore.Rot>
1.8386

> <Gold.Chemscore.Internal.Correction>
   9.000000E+99

> <Gold.Chemscore.Hbonds>
donor molecule, donor type, donor heavy atom, donor atom, acceptor molecule, acceptor atom, score
      L1  H     6    41       P1 10175  0.72
      L1  H     9    33       P1  7948  0.93

> <Gold.Chemscore.Hbond.Weighted>
-6.3135

> <Gold.Chemscore.Metal.Weighted>
-0.0000

> <Gold.Chemscore.Lipo.Weighted>
-8.6357

> <Gold.Chemscore.Internal_Hbond.Weighted>
0.0000

> <Gold.Chemscore.DEClash.Weighted>
1.1479

> <Gold.Chemscore.DEInternal.Weighted>
2.5568

> <Gold.Chemscore.Rot.Weighted>
4.7069

> <Gold.Chemscore.Internal.Correction.Weighted>
   9.000000E+99

> <Gold.Protein.RotatedTorsions>
[ 6907 6896 6895 6894 ] final -118.90 input  -60.11 | X-H torsion
[ 7974 7965 7964 7962 ] final   -8.57 input  175.53 | X-H torsion
[ 8008 7997 7996 7995 ] final  -43.30 input   59.86 | X-H torsion
[ 10167 10162 10161 10158 ] final -103.55 input  -65.29 | X-H torsion
[ 10718 10713 10712 10709 ] final   86.78 input   66.30 | X-H torsion
[ 10763 10752 10751 10750 ] final  -42.22 input  -60.55 | X-H torsion
[ 11005 11000 10999 10996 ] final -144.01 input  -57.11 | X-H torsion

> <Gold.Protein.ActiveResidues>
 VAL166  LYS551  ARG553  GLY616  TRP617  ASP618  TYR619  PRO620  LYS621  CYS622 
 ASP623  PHE694  ASN695  SER759  ASP760  ASP761  ALA762  ILE779  LEU786  VAL792 
 PHE793  MET794  SER795  GLU796  ALA797  LYS798  CYS799  TRP800  GLU811  SER814 

> <Gold.Protein.RotatedAtoms>
  150.8259  133.8173  159.3118 H   0  0  0  0  0  0  0  0  0  0  0  0  # atno 6907 bound_to 6896
  151.5918  135.1051  160.0050 H   0  0  0  0  0  0  0  0  0  0  0  0  # atno 6908 bound_to 6896
  152.4344  133.7293  159.6634 H   0  0  0  0  0  0  0  0  0  0  0  0  # atno 6909 bound_to 6896
  146.2276  140.2488  142.8346 H   0  0  0  0  0  0  0  0  0  0  0  0  # atno 7974 bound_to 7965
  154.3997  140.1451  156.3496 H   0  0  0  0  0  0  0  0  0  0  0  0  # atno 8008 bound_to 7997
  155.8281  140.3467  155.5534 H   0  0  0  0  0  0  0  0  0  0  0  0  # atno 8009 bound_to 7997
  155.8217  140.0899  157.1835 H   0  0  0  0  0  0  0  0  0  0  0  0  # atno 8010 bound_to 7997
  140.2188  143.3691  152.0987 H   0  0  0  0  0  0  0  0  0  0  0  0  # atno 10167 bound_to 10162
  157.6933  131.0229  150.3024 H   0  0  0  0  0  0  0  0  0  0  0  0  # atno 10718 bound_to 10713
  153.9755  135.6723  153.4748 H   0  0  0  0  0  0  0  0  0  0  0  0  # atno 10763 bound_to 10752
  153.0773  135.4942  154.8427 H   0  0  0  0  0  0  0  0  0  0  0  0  # atno 10764 bound_to 10752
  154.7195  135.3114  154.9032 H   0  0  0  0  0  0  0  0  0  0  0  0  # atno 10765 bound_to 10752
  140.8067  134.2792  157.4957 H   0  0  0  0  0  0  0  0  0  0  0  0  # atno 11005 bound_to 11000
  144.9427  140.8096  143.5620 LP  0  0  0  0  0  0  0  0  0  0  0  0  # atno 17320 bound_to 7965
  145.2442  139.2059  143.4977 LP  0  0  0  0  0  0  0  0  0  0  0  0  # atno 17321 bound_to 7965
  139.5152  144.6959  151.5632 LP  0  0  0  0  0  0  0  0  0  0  0  0  # atno 17342 bound_to 10162
  140.6270  143.9149  150.6573 LP  0  0  0  0  0  0  0  0  0  0  0  0  # atno 17343 bound_to 10162
  156.3537  130.3835  149.7307 LP  0  0  0  0  0  0  0  0  0  0  0  0  # atno 17370 bound_to 10713
  156.4777  130.8026  151.3042 LP  0  0  0  0  0  0  0  0  0  0  0  0  # atno 17371 bound_to 10713
  139.8717  134.9460  156.3927 LP  0  0  0  0  0  0  0  0  0  0  0  0  # atno 17394 bound_to 11000
  140.9239  133.7626  155.9940 LP  0  0  0  0  0  0  0  0  0  0  0  0  # atno 17395 bound_to 11000

$$$$
