AV-unprocessed.smi:1863|AV-procd|sdf|7551|dock4
  -GOLD-   22720 9263D 1   1.00000     0.00000
 Structure written by MMmdl.
 37 38  0  0  0  0  0  0  0  0  1 V2000
  152.7446  143.9183  158.1321 C   0  0  0  0  0  0  0  0  0  0  0  0
  152.3398  142.5189  157.6490 C   0  0  1  0  0  0  0  0  0  0  0  0
  151.7582  141.6781  158.8091 C   0  0  0  0  0  0  0  0  0  0  0  0
  152.7296  141.4435  159.8764 N   0  0  0  0  0  0  0  0  0  0  0  0
  153.5740  140.2602  159.8650 C   0  0  0  0  0  0  0  0  0  0  0  0
  154.6325  140.5231  160.9447 C   0  0  0  0  0  0  0  0  0  0  0  0
  154.0703  141.6621  161.8016 C   0  0  0  0  0  0  0  0  0  0  0  0
  152.9481  142.2215  160.9435 C   0  0  0  0  0  0  0  0  0  0  0  0
  152.3491  143.2596  161.2205 O   0  0  0  0  0  0  0  0  0  0  0  0
  151.3552  142.6681  156.5783 N   0  0  0  0  0  0  0  0  0  0  0  0
  150.5704  141.6922  156.0980 C   0  0  0  0  0  0  0  0  0  0  0  0
  150.5995  140.5319  156.5073 O   0  0  0  0  0  0  0  0  0  0  0  0
  149.7429  142.1601  155.1483 N   0  0  0  0  0  0  0  0  0  0  0  0
  148.7361  141.4604  154.4301 C   0  0  0  0  0  0  0  0  0  0  0  0
  148.7027  140.0541  154.2676 C   0  0  0  0  0  0  0  0  0  0  0  0
  147.6573  139.4814  153.5176 C   0  0  0  0  0  0  0  0  0  0  0  0
  146.6895  140.3340  152.9519 C   0  0  0  0  0  0  0  0  0  0  0  0
  146.7166  141.6766  153.0872 N   0  0  0  0  0  0  0  0  0  0  0  0
  147.7221  142.2184  153.8069 C   0  0  0  0  0  0  0  0  0  0  0  0
  153.5029  143.8586  158.9135 H   0  0  0  0  0  0  0  0  0  0  0  0
  151.8910  144.4625  158.5382 H   0  0  0  0  0  0  0  0  0  0  0  0
  153.1616  144.5107  157.3170 H   0  0  0  0  0  0  0  0  0  0  0  0
  153.2420  142.0419  157.2625 H   0  0  0  0  0  0  0  0  0  0  0  0
  150.9012  142.1940  159.2452 H   0  0  0  0  0  0  0  0  0  0  0  0
  151.3763  140.7263  158.4367 H   0  0  0  0  0  0  0  0  0  0  0  0
  152.9689  139.3875  160.1144 H   0  0  0  0  0  0  0  0  0  0  0  0
  154.0263  140.0945  158.8865 H   0  0  0  0  0  0  0  0  0  0  0  0
  154.8437  139.6299  161.5332 H   0  0  0  0  0  0  0  0  0  0  0  0
  155.5670  140.8403  160.4797 H   0  0  0  0  0  0  0  0  0  0  0  0
  153.6577  141.2900  162.7398 H   0  0  0  0  0  0  0  0  0  0  0  0
  154.8213  142.4210  162.0224 H   0  0  0  0  0  0  0  0  0  0  0  0
  151.2561  143.5914  156.1825 H   0  0  0  0  0  0  0  0  0  0  0  0
  149.7881  143.1531  154.9719 H   0  0  0  0  0  0  0  0  0  0  0  0
  149.4585  139.4085  154.6863 H   0  0  0  0  0  0  0  0  0  0  0  0
  147.6018  138.4123  153.3752 H   0  0  0  0  0  0  0  0  0  0  0  0
  145.8757  139.9273  152.3701 H   0  0  0  0  0  0  0  0  0  0  0  0
  147.7133  143.2955  153.8912 H   0  0  0  0  0  0  0  0  0  0  0  0
  1  2  1  0  0  0  0
  1 20  1  0  0  0  0
  1 21  1  0  0  0  0
  1 22  1  0  0  0  0
  2  3  1  0  0  0  0
  2 10  1  0  0  0  0
  2 23  1  0  0  0  0
  3  4  1  0  0  0  0
  3 24  1  0  0  0  0
  3 25  1  0  0  0  0
  4  8  1  0  0  0  0
  4  5  1  0  0  0  0
  5  6  1  0  0  0  0
  5 26  1  0  0  0  0
  5 27  1  0  0  0  0
  6  7  1  0  0  0  0
  6 28  1  0  0  0  0
  6 29  1  0  0  0  0
  7  8  1  0  0  0  0
  7 30  1  0  0  0  0
  7 31  1  0  0  0  0
  8  9  2  0  0  0  0
 10 11  1  0  0  0  0
 10 32  1  0  0  0  0
 11 12  2  0  0  0  0
 11 13  1  0  0  0  0
 13 14  1  0  0  0  0
 13 33  1  0  0  0  0
 14 19  1  0  0  0  0
 14 15  2  0  0  0  0
 15 16  1  0  0  0  0
 15 34  1  0  0  0  0
 16 17  2  0  0  0  0
 16 35  1  0  0  0  0
 17 18  1  0  0  0  0
 17 36  1  0  0  0  0
 18 19  2  0  0  0  0
 19 37  1  0  0  0  0
M  END
> <s_m_source_file>
AV-unprocessed.smi

> <i_m_source_file_index>
1863

> <i_lp_mmshare_version>
43012

> <i_f3d_flags>
0

> <s_epik_input>
Tz1DMVtDSDJdW0NIMl1bQ0gyXU4xW0NIMl1bQ0BASF0oW0NIM10pW05IXUMoPU8pW05IXWMyW2NIXVtjSF1bY0hdbltjSF0y

> <s_epik_cmdline>
J2VwaWtfcHl0aG9uJywgJy1waCcsICc3LjAnLCAnLXRuJywgJzgnLCAnLW1hJywgJzIwMCcsICctbWV0YWxfYmluZGluZycsICctaW1hZScsICc8aW5maWxlLm1hZT4nLCAnLW9tYWUnLCAnPG91dGZpbGUubWFlPic=

> <r_epik_Ionization_Penalty>
0.0047799

> <r_epik_Ionization_Penalty_Charging>
0

> <r_epik_Ionization_Penalty_Neutral>
0.0047799

> <r_epik_State_Penalty>
0.0034394

> <r_epik_Charging_Adjusted_Penalty>
0.0034394

> <i_epik_Tot_Q>
0

> <i_epik_Tot_abs_Q>
0

> <r_epik_Metal_State_Penalty>
-0

> <b_epik_Metal_Only>
0

> <s_lp_Force_Field>
OPLS_2005

> <r_lp_Energy>
21.1293

> <b_lp_Chiralities_Consistent>
1

> <s_lp_Variant>
AV-unprocessed.smi:1863-2

> <Gold.Version>
5.8.1

> <Gold.Id.Protein>
6NUR|6NUR_protein|mol2

> <Gold.PLP.Fitness>
48.1598

> <Gold.PLP.PLP>
-40.5898

> <Gold.PLP.part.hbond>
-2.2340

> <Gold.PLP.part.metal>
0.0000

> <Gold.PLP.part.buried>
-1.8518

> <Gold.PLP.part.nonpolar>
-37.2036

> <Gold.PLP.part.repulsive>
0.6116

> <Gold.PLP.ligand.clash>
0.0000

> <Gold.PLP.ligand.torsion>
0.6689

> <Gold.PLP.Chemscore.Hbond>
1.3058

> <Gold.PLP.Chemscore.CHOScore>
1.6580

> <Gold.PLP.Chemscore.Metal>
0.0000

> <Gold.Chemscore.Hbonds>
donor molecule, donor type, donor heavy atom, donor atom, acceptor molecule, acceptor atom, score
      L1  H    13    33       P1  8028  0.74
      L1  C    17    36       P1 10175  0.97
      L1  C    19    37       P1  8028  0.98

> <Gold.PLP.Chemscore.Internal.Correction>
0.0164

> <Gold.Rescore>
     Score         DG    S(hbond)    S(metal)    S(lipo)     H(rot)  DE(clash)    DE(int)     intcor
     17.19     -20.62       2.62        0.00      88.37       1.54       0.44       2.99       ----

> <Gold.Chemscore.Fitness>
17.1886

> <Gold.Chemscore.DG>
-20.6165

> <Gold.Chemscore.ZeroCoef>
-5.4800

> <Gold.Chemscore.Hbond>
2.6190

> <Gold.Chemscore.Metal>
0.0000

> <Gold.Chemscore.Lipo>
88.3663

> <Gold.Chemscore.Internal_Hbond>
0.0000

> <Gold.Chemscore.DEClash>
0.4366

> <Gold.Chemscore.DEInternal>
2.9912

> <Gold.Chemscore.Rot>
1.5428

> <Gold.Chemscore.Internal.Correction>
   9.000000E+99

> <Gold.Chemscore.Hbonds>
donor molecule, donor type, donor heavy atom, donor atom, acceptor molecule, acceptor atom, score
      L1  H    13    33       P1  8028  0.74

> <Gold.Chemscore.Hbond.Weighted>
-8.7473

> <Gold.Chemscore.Metal.Weighted>
-0.0000

> <Gold.Chemscore.Lipo.Weighted>
-10.3389

> <Gold.Chemscore.Internal_Hbond.Weighted>
0.0000

> <Gold.Chemscore.DEClash.Weighted>
0.4366

> <Gold.Chemscore.DEInternal.Weighted>
2.9912

> <Gold.Chemscore.Rot.Weighted>
3.9497

> <Gold.Chemscore.Internal.Correction.Weighted>
   9.000000E+99

> <Gold.Protein.RotatedTorsions>
[ 6907 6896 6895 6894 ] final  -64.21 input  -60.11 | X-H torsion
[ 7974 7965 7964 7962 ] final   13.38 input  175.53 | X-H torsion
[ 8008 7997 7996 7995 ] final  -75.47 input   59.86 | X-H torsion
[ 10167 10162 10161 10158 ] final   77.70 input  -65.29 | X-H torsion
[ 10718 10713 10712 10709 ] final  137.70 input   66.30 | X-H torsion
[ 10763 10752 10751 10750 ] final -102.59 input  -60.55 | X-H torsion
[ 11005 11000 10999 10996 ] final   84.15 input  -57.11 | X-H torsion

> <Gold.Protein.ActiveResidues>
 VAL166  LYS551  ARG553  GLY616  TRP617  ASP618  TYR619  PRO620  LYS621  CYS622 
 ASP623  PHE694  ASN695  SER759  ASP760  ASP761  ALA762  ILE779  LEU786  VAL792 
 PHE793  MET794  SER795  GLU796  ALA797  LYS798  CYS799  TRP800  GLU811  SER814 

> <Gold.Protein.RotatedAtoms>
  150.7600  134.6330  159.6195 H   0  0  0  0  0  0  0  0  0  0  0  0  # atno 6907 bound_to 6896
  152.3602  134.6880  160.0218 H   0  0  0  0  0  0  0  0  0  0  0  0  # atno 6908 bound_to 6896
  151.7273  133.3280  159.3367 H   0  0  0  0  0  0  0  0  0  0  0  0  # atno 6909 bound_to 6896
  146.2330  139.9197  142.8512 H   0  0  0  0  0  0  0  0  0  0  0  0  # atno 7974 bound_to 7965
  154.5420  140.0743  156.8525 H   0  0  0  0  0  0  0  0  0  0  0  0  # atno 8008 bound_to 7997
  155.3163  140.3393  155.4224 H   0  0  0  0  0  0  0  0  0  0  0  0  # atno 8009 bound_to 7997
  156.1883  140.1677  156.8129 H   0  0  0  0  0  0  0  0  0  0  0  0  # atno 8010 bound_to 7997
  139.9787  144.5842  150.7920 H   0  0  0  0  0  0  0  0  0  0  0  0  # atno 10167 bound_to 10162
  157.4333  131.1050  151.0226 H   0  0  0  0  0  0  0  0  0  0  0  0  # atno 10718 bound_to 10713
  154.7745  135.4855  153.9716 H   0  0  0  0  0  0  0  0  0  0  0  0  # atno 10763 bound_to 10752
  153.1411  135.6772  153.9034 H   0  0  0  0  0  0  0  0  0  0  0  0  # atno 10764 bound_to 10752
  153.8708  135.3144  155.3420 H   0  0  0  0  0  0  0  0  0  0  0  0  # atno 10765 bound_to 10752
  139.9009  134.8196  156.2406 H   0  0  0  0  0  0  0  0  0  0  0  0  # atno 11005 bound_to 11000
  145.2149  140.9911  143.4079 LP  0  0  0  0  0  0  0  0  0  0  0  0  # atno 17320 bound_to 7965
  144.9660  139.3930  143.6332 LP  0  0  0  0  0  0  0  0  0  0  0  0  # atno 17321 bound_to 7965
  140.7497  143.2942  151.3248 LP  0  0  0  0  0  0  0  0  0  0  0  0  # atno 17342 bound_to 10162
  139.6426  144.0511  152.2566 LP  0  0  0  0  0  0  0  0  0  0  0  0  # atno 17343 bound_to 10162
  157.1115  130.6023  149.5483 LP  0  0  0  0  0  0  0  0  0  0  0  0  # atno 17370 bound_to 10713
  155.9921  130.4978  150.7326 LP  0  0  0  0  0  0  0  0  0  0  0  0  # atno 17371 bound_to 10713
  141.0287  133.7000  156.1392 LP  0  0  0  0  0  0  0  0  0  0  0  0  # atno 17394 bound_to 11000
  140.7128  134.4443  157.5580 LP  0  0  0  0  0  0  0  0  0  0  0  0  # atno 17395 bound_to 11000

$$$$
