AV-unprocessed.smi:2561|AV-procd|sdf|10040|dock3
  -GOLD-   2272014 83D 1   1.00000     0.00000
 Structure written by MMmdl.
 32 33  0  0  0  0  0  0  0  0  1 V2000
  146.5634  138.6495  152.1499 C   0  0  0  0  0  0  0  0  0  0  0  0
  147.8883  139.0740  152.5760 N   0  0  0  0  0  0  0  0  0  0  0  0
  148.1784  139.5104  153.8086 C   0  0  0  0  0  0  0  0  0  0  0  0
  147.3433  139.5995  154.7085 O   0  0  0  0  0  0  0  0  0  0  0  0
  149.4759  139.8458  153.9132 N   0  0  0  0  0  0  0  0  0  0  0  0
  150.1703  140.3525  155.0449 C   0  0  0  0  0  0  0  0  0  0  0  0
  149.6216  141.2698  155.9723 C   0  0  0  0  0  0  0  0  0  0  0  0
  150.4073  141.6853  157.0645 C   0  0  0  0  0  0  0  0  0  0  0  0
  151.7109  141.1663  157.2042 C   0  0  0  0  0  0  0  0  0  0  0  0
  152.4916  141.5844  158.2927 N   0  0  0  0  0  0  0  0  0  0  0  0
  152.0946  142.8433  158.9018 C   0  0  0  0  0  0  0  0  0  0  0  0
  152.8110  142.8851  160.2537 C   0  0  0  0  0  0  0  0  0  0  0  0
  153.1256  141.4195  160.5773 C   0  0  0  0  0  0  0  0  0  0  0  0
  152.5854  140.6279  159.3831 C   0  0  0  0  0  0  0  0  0  0  0  0
  152.2369  140.2783  156.3270 N   0  0  0  0  0  0  0  0  0  0  0  0
  151.4791  139.8844  155.2820 C   0  0  0  0  0  0  0  0  0  0  0  0
  146.5899  138.3412  151.1048 H   0  0  0  0  0  0  0  0  0  0  0  0
  145.8441  139.4638  152.2473 H   0  0  0  0  0  0  0  0  0  0  0  0
  146.2161  137.8049  152.7463 H   0  0  0  0  0  0  0  0  0  0  0  0
  148.6282  139.0349  151.8901 H   0  0  0  0  0  0  0  0  0  0  0  0
  150.0180  139.7892  153.0635 H   0  0  0  0  0  0  0  0  0  0  0  0
  148.6166  141.6502  155.8778 H   0  0  0  0  0  0  0  0  0  0  0  0
  150.0113  142.3865  157.7847 H   0  0  0  0  0  0  0  0  0  0  0  0
  152.3738  143.6893  158.2729 H   0  0  0  0  0  0  0  0  0  0  0  0
  151.0145  142.8760  159.0514 H   0  0  0  0  0  0  0  0  0  0  0  0
  153.7379  143.4540  160.1730 H   0  0  0  0  0  0  0  0  0  0  0  0
  152.1961  143.3581  161.0200 H   0  0  0  0  0  0  0  0  0  0  0  0
  154.2038  141.2825  160.6676 H   0  0  0  0  0  0  0  0  0  0  0  0
  152.6702  141.0938  161.5130 H   0  0  0  0  0  0  0  0  0  0  0  0
  151.6015  140.2196  159.6188 H   0  0  0  0  0  0  0  0  0  0  0  0
  153.2419  139.7972  159.1225 H   0  0  0  0  0  0  0  0  0  0  0  0
  151.9375  139.1742  154.6092 H   0  0  0  0  0  0  0  0  0  0  0  0
  1  2  1  0  0  0  0
  1 17  1  0  0  0  0
  1 18  1  0  0  0  0
  1 19  1  0  0  0  0
  2  3  1  0  0  0  0
  2 20  1  0  0  0  0
  3  4  2  0  0  0  0
  3  5  1  0  0  0  0
  5  6  1  0  0  0  0
  5 21  1  0  0  0  0
  6 16  1  0  0  0  0
  6  7  2  0  0  0  0
  7  8  1  0  0  0  0
  7 22  1  0  0  0  0
  8  9  2  0  0  0  0
  8 23  1  0  0  0  0
  9 10  1  0  0  0  0
  9 15  1  0  0  0  0
 10 14  1  0  0  0  0
 10 11  1  0  0  0  0
 11 12  1  0  0  0  0
 11 24  1  0  0  0  0
 11 25  1  0  0  0  0
 12 13  1  0  0  0  0
 12 26  1  0  0  0  0
 12 27  1  0  0  0  0
 13 14  1  0  0  0  0
 13 28  1  0  0  0  0
 13 29  1  0  0  0  0
 14 30  1  0  0  0  0
 14 31  1  0  0  0  0
 15 16  2  0  0  0  0
 16 32  1  0  0  0  0
M  END
> <s_m_source_file>
AV-unprocessed.smi

> <i_m_source_file_index>
2561

> <i_lp_mmshare_version>
43012

> <i_f3d_flags>
0

> <s_epik_input>
W0NIM11bTkhdQyg9TylbTkhdYzFbY0hdW2NIXWMobltjSF0xKU4yW0NIMl1bQ0gyXVtDSDJdW0NIMl0y

> <s_epik_cmdline>
J2VwaWtfcHl0aG9uJywgJy1waCcsICc3LjAnLCAnLXRuJywgJzgnLCAnLW1hJywgJzIwMCcsICctbWV0YWxfYmluZGluZycsICctaW1hZScsICc8aW5maWxlLm1hZT4nLCAnLW9tYWUnLCAnPG91dGZpbGUubWFlPic=

> <r_lp_tautomer_probability>
1

> <r_epik_Ionization_Penalty>
0.281536

> <r_epik_Ionization_Penalty_Charging>
0

> <r_epik_Ionization_Penalty_Neutral>
0.281536

> <r_epik_State_Penalty>
0.27354

> <r_epik_Charging_Adjusted_Penalty>
0.27354

> <i_epik_Tot_Q>
0

> <i_epik_Tot_abs_Q>
0

> <r_epik_Metal_State_Penalty>
0.184484

> <b_epik_Metal_Only>
0

> <s_lp_Force_Field>
OPLS_2005

> <r_lp_Energy>
32.7589

> <b_lp_Chiralities_Consistent>
1

> <s_lp_Variant>
AV-unprocessed.smi:2561-1

> <Gold.Version>
5.8.1

> <Gold.Id.Protein>
6NUR|6NUR_protein|mol2

> <Gold.PLP.Fitness>
37.0757

> <Gold.PLP.PLP>
-33.0607

> <Gold.PLP.part.hbond>
-3.5389

> <Gold.PLP.part.metal>
0.0000

> <Gold.PLP.part.buried>
0.4948

> <Gold.PLP.part.nonpolar>
-28.2518

> <Gold.PLP.part.repulsive>
0.2978

> <Gold.PLP.ligand.clash>
0.0000

> <Gold.PLP.ligand.torsion>
0.8240

> <Gold.PLP.Chemscore.Hbond>
1.8826

> <Gold.PLP.Chemscore.CHOScore>
0.0000

> <Gold.PLP.Chemscore.Metal>
0.0000

> <Gold.Chemscore.Hbonds>
donor molecule, donor type, donor heavy atom, donor atom, acceptor molecule, acceptor atom, score
      L1  H     2    20       P1  7957  0.78
      L1  H     5    21       P1  7957  0.70
      P1  H  7997  8009       L1    15  0.80

> <Gold.PLP.Chemscore.Internal.Correction>
0.0152

> <Gold.Rescore>
     Score         DG    S(hbond)    S(metal)    S(lipo)     H(rot)  DE(clash)    DE(int)     intcor
     17.61     -18.16       1.94        0.00      74.87       1.00       0.22       0.33       ----

> <Gold.Chemscore.Fitness>
17.6103

> <Gold.Chemscore.DG>
-18.1587

> <Gold.Chemscore.ZeroCoef>
-5.4800

> <Gold.Chemscore.Hbond>
1.9397

> <Gold.Chemscore.Metal>
0.0000

> <Gold.Chemscore.Lipo>
74.8733

> <Gold.Chemscore.Internal_Hbond>
0.0000

> <Gold.Chemscore.DEClash>
0.2223

> <Gold.Chemscore.DEInternal>
0.3260

> <Gold.Chemscore.Rot>
1.0000

> <Gold.Chemscore.Internal.Correction>
   9.000000E+99

> <Gold.Chemscore.Hbonds>
donor molecule, donor type, donor heavy atom, donor atom, acceptor molecule, acceptor atom, score
      L1  H     2    20       P1  7957  0.69
      L1  H     5    21       P1  7957  0.69
      P1  H  7997  8009       L1    15  0.64

> <Gold.Chemscore.Hbond.Weighted>
-6.4785

> <Gold.Chemscore.Metal.Weighted>
-0.0000

> <Gold.Chemscore.Lipo.Weighted>
-8.7602

> <Gold.Chemscore.Internal_Hbond.Weighted>
0.0000

> <Gold.Chemscore.DEClash.Weighted>
0.2223

> <Gold.Chemscore.DEInternal.Weighted>
0.3260

> <Gold.Chemscore.Rot.Weighted>
2.5600

> <Gold.Chemscore.Internal.Correction.Weighted>
   9.000000E+99

> <Gold.Protein.RotatedTorsions>
[ 6907 6896 6895 6894 ] final -164.41 input  -60.11 | X-H torsion
[ 7974 7965 7964 7962 ] final -116.51 input  175.53 | X-H torsion
[ 8008 7997 7996 7995 ] final -170.46 input   59.86 | X-H torsion
[ 10167 10162 10161 10158 ] final  121.13 input  -65.29 | X-H torsion
[ 10718 10713 10712 10709 ] final  147.55 input   66.30 | X-H torsion
[ 10763 10752 10751 10750 ] final   68.71 input  -60.55 | X-H torsion
[ 11005 11000 10999 10996 ] final   -5.71 input  -57.11 | X-H torsion

> <Gold.Protein.ActiveResidues>
 VAL166  LYS551  ARG553  GLY616  TRP617  ASP618  TYR619  PRO620  LYS621  CYS622 
 ASP623  PHE694  ASN695  SER759  ASP760  ASP761  ALA762  ILE779  LEU786  VAL792 
 PHE793  MET794  SER795  GLU796  ALA797  LYS798  CYS799  TRP800  GLU811  SER814 

> <Gold.Protein.RotatedAtoms>
  151.4113  133.3726  159.2744 H   0  0  0  0  0  0  0  0  0  0  0  0  # atno 6907 bound_to 6896
  150.9361  134.8774  159.7593 H   0  0  0  0  0  0  0  0  0  0  0  0  # atno 6908 bound_to 6896
  152.5050  134.4061  159.9485 H   0  0  0  0  0  0  0  0  0  0  0  0  # atno 6909 bound_to 6896
  145.0959  140.8520  143.3955 H   0  0  0  0  0  0  0  0  0  0  0  0  # atno 7974 bound_to 7965
  155.9187  140.1070  157.1224 H   0  0  0  0  0  0  0  0  0  0  0  0  # atno 8008 bound_to 7997
  154.4050  140.1260  156.4716 H   0  0  0  0  0  0  0  0  0  0  0  0  # atno 8009 bound_to 7997
  155.7223  140.3469  155.5024 H   0  0  0  0  0  0  0  0  0  0  0  0  # atno 8010 bound_to 7997
  139.5938  144.7035  151.3224 H   0  0  0  0  0  0  0  0  0  0  0  0  # atno 10167 bound_to 10162
  157.3196  131.0902  151.1251 H   0  0  0  0  0  0  0  0  0  0  0  0  # atno 10718 bound_to 10713
  153.0249  135.5237  154.7177 H   0  0  0  0  0  0  0  0  0  0  0  0  # atno 10763 bound_to 10752
  154.6241  135.2892  155.0294 H   0  0  0  0  0  0  0  0  0  0  0  0  # atno 10764 bound_to 10752
  154.1270  135.6599  153.4967 H   0  0  0  0  0  0  0  0  0  0  0  0  # atno 10765 bound_to 10752
  140.6941  133.9046  155.8638 H   0  0  0  0  0  0  0  0  0  0  0  0  # atno 11005 bound_to 11000
  145.1011  139.2822  143.5685 LP  0  0  0  0  0  0  0  0  0  0  0  0  # atno 17320 bound_to 7965
  146.3531  140.0579  142.8631 LP  0  0  0  0  0  0  0  0  0  0  0  0  # atno 17321 bound_to 7965
  140.7195  143.7174  150.7722 LP  0  0  0  0  0  0  0  0  0  0  0  0  # atno 17342 bound_to 10162
  140.0735  143.5037  152.2567 LP  0  0  0  0  0  0  0  0  0  0  0  0  # atno 17343 bound_to 10162
  157.2541  130.6628  149.5944 LP  0  0  0  0  0  0  0  0  0  0  0  0  # atno 17370 bound_to 10713
  155.9684  130.4529  150.5792 LP  0  0  0  0  0  0  0  0  0  0  0  0  # atno 17371 bound_to 10713
  141.0218  134.0879  157.4112 LP  0  0  0  0  0  0  0  0  0  0  0  0  # atno 17394 bound_to 11000
  139.8915  135.0119  156.6795 LP  0  0  0  0  0  0  0  0  0  0  0  0  # atno 17395 bound_to 11000

$$$$
