AV-unprocessed.smi:1512|AV-procd|sdf|6106|dock3
  -GOLD-   22720 6243D 1   1.00000     0.00000
 Structure written by MMmdl.
 44 46  0  0  0  0  0  0  0  0  3 V2000
  148.8029  131.8074  153.9385 C   0  0  0  0  0  0  0  0  0  0  0  0
  148.3575  132.9530  153.0138 C   0  0  2  0  0  0  0  0  0  0  0  0
  148.1445  134.1434  153.8367 N   0  0  0  0  0  0  0  0  0  0  0  0
  149.0154  134.6651  154.7145 C   0  0  0  0  0  0  0  0  0  0  0  0
  150.1388  134.2017  154.9143 O   0  0  0  0  0  0  0  0  0  0  0  0
  148.5386  135.9177  155.4638 C   0  0  0  0  0  0  0  0  0  0  0  0
  149.3216  137.1235  155.1424 N   0  0  0  0  0  0  0  0  0  0  0  0
  148.6201  138.2077  154.5826 C   0  0  0  0  0  0  0  0  0  0  0  0
  149.2333  139.3523  154.2493 C   0  0  0  0  0  0  0  0  0  0  0  0
  150.6550  139.4549  154.4710 C   0  0  0  0  0  0  0  0  0  0  0  0
  151.3516  138.4245  155.0037 C   0  0  0  0  0  0  0  0  0  0  0  0
  152.7755  138.5891  155.1866 N   0  3  0  0  0  0  0  0  0  0  0  0
  153.2998  139.6430  154.8403 O   0  0  0  0  0  0  0  0  0  0  0  0
  153.4107  137.6707  155.6963 O   0  5  0  0  0  0  0  0  0  0  0  0
  150.6690  137.1702  155.3838 C   0  0  0  0  0  0  0  0  0  0  0  0
  151.2585  136.2163  155.8957 O   0  0  0  0  0  0  0  0  0  0  0  0
  147.0657  132.6251  152.2231 C   0  0  1  0  0  0  0  0  0  0  0  0
  145.7625  132.8952  153.0180 C   0  0  0  0  0  0  0  0  0  0  0  0
  144.9525  133.8045  152.0782 C   0  0  2  0  0  0  0  0  0  0  0  0
  144.4843  132.9968  150.8544 C   0  0  0  0  0  0  0  0  0  0  0  0
  145.7896  132.8007  150.0612 C   0  0  0  0  0  0  0  0  0  0  0  0
  146.8390  133.4888  150.9558 C   0  0  1  0  0  0  0  0  0  0  0  0
  146.0474  134.6804  151.4853 C   0  0  0  0  0  0  0  0  0  0  0  0
  149.0738  130.9136  153.3781 H   0  0  0  0  0  0  0  0  0  0  0  0
  148.0151  131.5353  154.6419 H   0  0  0  0  0  0  0  0  0  0  0  0
  149.6801  132.0950  154.5195 H   0  0  0  0  0  0  0  0  0  0  0  0
  149.1625  133.1331  152.2998 H   0  0  0  0  0  0  0  0  0  0  0  0
  147.2503  134.6017  153.7379 H   0  0  0  0  0  0  0  0  0  0  0  0
  147.4839  136.0691  155.2302 H   0  0  0  0  0  0  0  0  0  0  0  0
  148.5668  135.7300  156.5390 H   0  0  0  0  0  0  0  0  0  0  0  0
  147.5610  138.0488  154.4393 H   0  0  0  0  0  0  0  0  0  0  0  0
  148.6787  140.1733  153.8192 H   0  0  0  0  0  0  0  0  0  0  0  0
  151.1601  140.3679  154.1906 H   0  0  0  0  0  0  0  0  0  0  0  0
  147.1049  131.5715  151.9410 H   0  0  0  0  0  0  0  0  0  0  0  0
  145.2309  131.9763  153.2679 H   0  0  0  0  0  0  0  0  0  0  0  0
  145.9630  133.4227  153.9513 H   0  0  0  0  0  0  0  0  0  0  0  0
  144.1499  134.3461  152.5797 H   0  0  0  0  0  0  0  0  0  0  0  0
  144.0220  132.0505  151.1374 H   0  0  0  0  0  0  0  0  0  0  0  0
  143.7597  133.5625  150.2674 H   0  0  0  0  0  0  0  0  0  0  0  0
  146.0160  131.7493  149.8817 H   0  0  0  0  0  0  0  0  0  0  0  0
  145.7245  133.2962  149.0916 H   0  0  0  0  0  0  0  0  0  0  0  0
  147.7451  133.7518  150.4117 H   0  0  0  0  0  0  0  0  0  0  0  0
  145.6897  135.3465  150.6981 H   0  0  0  0  0  0  0  0  0  0  0  0
  146.5854  135.2675  152.2310 H   0  0  0  0  0  0  0  0  0  0  0  0
  1  2  1  0  0  0  0
  1 24  1  0  0  0  0
  1 25  1  0  0  0  0
  1 26  1  0  0  0  0
  2  3  1  0  0  0  0
  2 17  1  0  0  0  0
  2 27  1  0  0  0  0
  3  4  1  0  0  0  0
  3 28  1  0  0  0  0
  4  5  2  0  0  0  0
  4  6  1  0  0  0  0
  6  7  1  0  0  0  0
  6 29  1  0  0  0  0
  6 30  1  0  0  0  0
  7 15  1  0  0  0  0
  7  8  1  0  0  0  0
  8  9  2  0  0  0  0
  8 31  1  0  0  0  0
  9 10  1  0  0  0  0
  9 32  1  0  0  0  0
 10 11  2  0  0  0  0
 10 33  1  0  0  0  0
 11 12  1  0  0  0  0
 11 15  1  0  0  0  0
 12 13  2  0  0  0  0
 12 14  1  0  0  0  0
 15 16  2  0  0  0  0
 17 22  1  0  0  0  0
 17 18  1  0  0  0  0
 17 34  1  0  0  0  0
 18 19  1  0  0  0  0
 18 35  1  0  0  0  0
 18 36  1  0  0  0  0
 19 23  1  0  0  0  0
 19 20  1  0  0  0  0
 19 37  1  0  0  0  0
 20 21  1  0  0  0  0
 20 38  1  0  0  0  0
 20 39  1  0  0  0  0
 21 22  1  0  0  0  0
 21 40  1  0  0  0  0
 21 41  1  0  0  0  0
 22 23  1  0  0  0  0
 22 42  1  0  0  0  0
 23 43  1  0  0  0  0
 23 44  1  0  0  0  0
M  CHG  1  12   1
M  CHG  1  14  -1
M  END
> <s_m_source_file>
AV-unprocessed.smi

> <i_m_source_file_index>
1512

> <i_lp_mmshare_version>
43012

> <i_f3d_flags>
0

> <s_epik_input>
W0NIMl0xW0NIMl1bQ0BIXShbQ0gyXTIpW0NAQEhdKFtDSDJdW0NAQEhdMTIpW0NASF0oW0NIM10pW05IXUMoPU8pW0NIMl1uM1tjSF1bY0hdW2NIXWMoW04rXSg9TylbTy1dKWMzPU8=

> <s_epik_cmdline>
J2VwaWtfcHl0aG9uJywgJy1waCcsICc3LjAnLCAnLXRuJywgJzgnLCAnLW1hJywgJzIwMCcsICctbWV0YWxfYmluZGluZycsICctaW1hZScsICc8aW5maWxlLm1hZT4nLCAnLW9tYWUnLCAnPG91dGZpbGUubWFlPic=

> <r_lp_tautomer_probability>
1

> <r_epik_Ionization_Penalty>
2.17697e-08

> <r_epik_Ionization_Penalty_Charging>
1.42735e-10

> <r_epik_Ionization_Penalty_Neutral>
2.16269e-08

> <r_epik_State_Penalty>
-0

> <r_epik_Charging_Adjusted_Penalty>
1.42735e-10

> <i_epik_Tot_Q>
0

> <i_epik_Tot_abs_Q>
2

> <r_epik_Metal_State_Penalty>
-0

> <b_epik_Metal_Only>
0

> <s_lp_Force_Field>
OPLS_2005

> <r_lp_Energy>
64.581

> <b_lp_Chiralities_Consistent>
1

> <s_lp_Variant>
AV-unprocessed.smi:1512-7

> <Gold.Version>
5.8.1

> <Gold.Id.Protein>
6NUR|6NUR_protein|mol2

> <Gold.PLP.Fitness>
46.3225

> <Gold.PLP.PLP>
-41.0590

> <Gold.PLP.part.hbond>
-4.8849

> <Gold.PLP.part.metal>
0.0000

> <Gold.PLP.part.buried>
-4.5666

> <Gold.PLP.part.nonpolar>
-32.6855

> <Gold.PLP.part.repulsive>
0.2032

> <Gold.PLP.ligand.clash>
0.0000

> <Gold.PLP.ligand.torsion>
0.4948

> <Gold.PLP.Chemscore.Hbond>
2.0608

> <Gold.PLP.Chemscore.CHOScore>
0.0000

> <Gold.PLP.Chemscore.Metal>
0.0000

> <Gold.Chemscore.Hbonds>
donor molecule, donor type, donor heavy atom, donor atom, acceptor molecule, acceptor atom, score
      P1  H  7997  8009       L1    13  1.00
      P1  H 10752 10764       L1    16  0.70

> <Gold.PLP.Chemscore.Internal.Correction>
0.0706

> <Gold.Rescore>
     Score         DG    S(hbond)    S(metal)    S(lipo)     H(rot)  DE(clash)    DE(int)     intcor
     11.90     -16.90       1.95        0.00      80.29       1.75       0.08       4.92       ----

> <Gold.Chemscore.Fitness>
11.8991

> <Gold.Chemscore.DG>
-16.8984

> <Gold.Chemscore.ZeroCoef>
-5.4800

> <Gold.Chemscore.Hbond>
1.9456

> <Gold.Chemscore.Metal>
0.0000

> <Gold.Chemscore.Lipo>
80.2866

> <Gold.Chemscore.Internal_Hbond>
0.0000

> <Gold.Chemscore.DEClash>
0.0799

> <Gold.Chemscore.DEInternal>
4.9194

> <Gold.Chemscore.Rot>
1.7474

> <Gold.Chemscore.Internal.Correction>
   9.000000E+99

> <Gold.Chemscore.Hbonds>
donor molecule, donor type, donor heavy atom, donor atom, acceptor molecule, acceptor atom, score
      P1  H  7989  7998       L1    13  0.02
      P1  H  7997  8009       L1    13  0.90
      P1  H 10752 10764       L1    16  0.64

> <Gold.Chemscore.Hbond.Weighted>
-6.4981

> <Gold.Chemscore.Metal.Weighted>
-0.0000

> <Gold.Chemscore.Lipo.Weighted>
-9.3935

> <Gold.Chemscore.Internal_Hbond.Weighted>
0.0000

> <Gold.Chemscore.DEClash.Weighted>
0.0799

> <Gold.Chemscore.DEInternal.Weighted>
4.9194

> <Gold.Chemscore.Rot.Weighted>
4.4733

> <Gold.Chemscore.Internal.Correction.Weighted>
   9.000000E+99

> <Gold.Protein.RotatedTorsions>
[ 6907 6896 6895 6894 ] final  118.02 input  -60.11 | X-H torsion
[ 7974 7965 7964 7962 ] final -101.79 input  175.53 | X-H torsion
[ 8008 7997 7996 7995 ] final -132.71 input   59.86 | X-H torsion
[ 10167 10162 10161 10158 ] final -146.37 input  -65.29 | X-H torsion
[ 10718 10713 10712 10709 ] final  -30.56 input   66.30 | X-H torsion
[ 10763 10752 10751 10750 ] final  -43.13 input  -60.55 | X-H torsion
[ 11005 11000 10999 10996 ] final  -80.40 input  -57.11 | X-H torsion

> <Gold.Protein.ActiveResidues>
 VAL166  LYS551  ARG553  GLY616  TRP617  ASP618  TYR619  PRO620  LYS621  CYS622 
 ASP623  PHE694  ASN695  SER759  ASP760  ASP761  ALA762  ILE779  LEU786  VAL792 
 PHE793  MET794  SER795  GLU796  ALA797  LYS798  CYS799  TRP800  GLU811  SER814 

> <Gold.Protein.RotatedAtoms>
  152.4572  133.7747  159.6817 H   0  0  0  0  0  0  0  0  0  0  0  0  # atno 6907 bound_to 6896
  150.8502  133.7788  159.3034 H   0  0  0  0  0  0  0  0  0  0  0  0  # atno 6908 bound_to 6896
  151.5386  135.1071  159.9972 H   0  0  0  0  0  0  0  0  0  0  0  0  # atno 6909 bound_to 6896
  145.2771  140.9316  143.2953 H   0  0  0  0  0  0  0  0  0  0  0  0  # atno 7974 bound_to 7965
  155.3335  140.0468  157.3043 H   0  0  0  0  0  0  0  0  0  0  0  0  # atno 8008 bound_to 7997
  154.5315  140.2258  155.8761 H   0  0  0  0  0  0  0  0  0  0  0  0  # atno 8009 bound_to 7997
  156.1793  140.3077  155.9125 H   0  0  0  0  0  0  0  0  0  0  0  0  # atno 8010 bound_to 7997
  139.7719  143.8225  152.2626 H   0  0  0  0  0  0  0  0  0  0  0  0  # atno 10167 bound_to 10162
  156.3983  130.4385  149.7342 H   0  0  0  0  0  0  0  0  0  0  0  0  # atno 10718 bound_to 10713
  153.9904  135.6706  153.4754 H   0  0  0  0  0  0  0  0  0  0  0  0  # atno 10763 bound_to 10752
  153.0707  135.4975  154.8296 H   0  0  0  0  0  0  0  0  0  0  0  0  # atno 10764 bound_to 10752
  154.7112  135.3098  154.9156 H   0  0  0  0  0  0  0  0  0  0  0  0  # atno 10765 bound_to 10752
  141.1668  133.7148  156.8266 H   0  0  0  0  0  0  0  0  0  0  0  0  # atno 11005 bound_to 11000
  144.9285  139.4327  143.6507 LP  0  0  0  0  0  0  0  0  0  0  0  0  # atno 17320 bound_to 7965
  146.3228  139.8183  142.8932 LP  0  0  0  0  0  0  0  0  0  0  0  0  # atno 17321 bound_to 7965
  139.8262  144.7274  150.9509 LP  0  0  0  0  0  0  0  0  0  0  0  0  # atno 17342 bound_to 10162
  140.7814  143.4112  151.0989 LP  0  0  0  0  0  0  0  0  0  0  0  0  # atno 17343 bound_to 10162
  156.4368  130.7842  151.2862 LP  0  0  0  0  0  0  0  0  0  0  0  0  # atno 17370 bound_to 10713
  157.7502  131.0137  150.3435 LP  0  0  0  0  0  0  0  0  0  0  0  0  # atno 17371 bound_to 10713
  140.2081  134.8848  157.3244 LP  0  0  0  0  0  0  0  0  0  0  0  0  # atno 17394 bound_to 11000
  140.2116  134.4132  155.7610 LP  0  0  0  0  0  0  0  0  0  0  0  0  # atno 17395 bound_to 11000

$$$$
