AV-unprocessed.smi:59|AV-procd|sdf|590|dock2
  -GOLD-   2262016483D 1   1.00000     0.00000
 Structure written by MMmdl.
 29 30  0  0  0  0  0  0  0  0  2 V2000
  148.0883  140.8256  154.0839 C   0  0  0  0  0  0  0  0  0  0  0  0
  148.9580  139.7281  154.4941 N   0  0  0  0  0  0  0  0  0  0  0  0
  148.5966  138.4457  154.6423 C   0  0  0  0  0  0  0  0  0  0  0  0
  147.4681  137.9803  154.4817 O   0  0  0  0  0  0  0  0  0  0  0  0
  149.7929  137.6115  155.0674 C   0  0  1  0  0  0  0  0  0  0  0  0
  149.8261  136.3569  154.4133 O   0  0  0  0  0  0  0  0  0  0  0  0
  150.9752  138.5234  154.6841 C   0  0  2  0  0  0  0  0  0  0  0  0
  152.2626  138.2792  155.4980 C   0  0  0  0  0  0  0  0  0  0  0  0
  152.4156  137.1739  156.0639 O   0  0  0  0  0  0  0  0  0  0  0  0
  153.0889  139.2176  155.5275 O   0  5  0  0  0  0  0  0  0  0  0  0
  150.3841  139.9594  154.7211 C   0  0  2  0  0  0  0  0  0  0  0  0
  150.6326  140.7189  156.0108 C   0  0  0  0  0  0  0  0  0  0  0  0
  150.8115  140.1749  157.3155 C   0  0  0  0  0  0  0  0  0  0  0  0
  151.0125  141.1002  158.2396 N   0  0  0  0  0  0  0  0  0  0  0  0
  150.9615  142.2651  157.5629 N   0  0  0  0  0  0  0  0  0  0  0  0
  151.1360  143.5119  158.2760 C   0  0  0  0  0  0  0  0  0  0  0  0
  150.7350  142.0672  156.2186 C   0  0  0  0  0  0  0  0  0  0  0  0
  149.7237  137.4588  156.1454 H   0  0  0  0  0  0  0  0  0  0  0  0
  151.2276  138.3068  153.6437 H   0  0  0  0  0  0  0  0  0  0  0  0
  150.7777  140.5221  153.8731 H   0  0  0  0  0  0  0  0  0  0  0  0
  147.0411  140.5256  154.0282 H   0  0  0  0  0  0  0  0  0  0  0  0
  148.3867  141.1933  153.1022 H   0  0  0  0  0  0  0  0  0  0  0  0
  148.1601  141.6512  154.7922 H   0  0  0  0  0  0  0  0  0  0  0  0
  149.3910  136.4460  153.5794 H   0  0  0  0  0  0  0  0  0  0  0  0
  150.8003  139.1372  157.6146 H   0  0  0  0  0  0  0  0  0  0  0  0
  151.1182  144.3483  157.5767 H   0  0  0  0  0  0  0  0  0  0  0  0
  152.0923  143.5079  158.7998 H   0  0  0  0  0  0  0  0  0  0  0  0
  150.3305  143.6378  159.0002 H   0  0  0  0  0  0  0  0  0  0  0  0
  150.6627  142.8926  155.5257 H   0  0  0  0  0  0  0  0  0  0  0  0
  1  2  1  0  0  0  0
  1 21  1  0  0  0  0
  1 22  1  0  0  0  0
  1 23  1  0  0  0  0
  2 11  1  0  0  0  0
  2  3  1  0  0  0  0
  3  4  2  0  0  0  0
  3  5  1  0  0  0  0
  5 18  1  0  0  0  0
  5  6  1  0  0  0  0
  5  7  1  0  0  0  0
  6 24  1  0  0  0  0
  7 19  1  0  0  0  0
  7  8  1  0  0  0  0
  7 11  1  0  0  0  0
  8  9  2  0  0  0  0
  8 10  1  0  0  0  0
 11 20  1  0  0  0  0
 11 12  1  0  0  0  0
 12 17  2  0  0  0  0
 12 13  1  0  0  0  0
 13 14  2  0  0  0  0
 13 25  1  0  0  0  0
 14 15  1  0  0  0  0
 15 16  1  0  0  0  0
 15 17  1  0  0  0  0
 16 26  1  0  0  0  0
 16 27  1  0  0  0  0
 16 28  1  0  0  0  0
 17 29  1  0  0  0  0
M  CHG  1  10  -1
M  END
> <s_m_source_file>
AV-unprocessed.smi

> <i_m_source_file_index>
59

> <i_lp_mmshare_version>
43012

> <i_f3d_flags>
0

> <s_epik_input>
W0NIM11OMUMoPU8pW0NASF0oW09IXSlbQ0BIXShDKD1PKVtPSF0pW0NASF0xYzJbY0hdbm4oW0NIM10pW2NIXTI=

> <s_epik_cmdline>
J2VwaWtfcHl0aG9uJywgJy1waCcsICc3LjAnLCAnLXRuJywgJzgnLCAnLW1hJywgJzIwMCcsICctbWV0YWxfYmluZGluZycsICctaW1hZScsICc8aW5maWxlLm1hZT4nLCAnLW9tYWUnLCAnPG91dGZpbGUubWFlPic=

> <r_lp_tautomer_probability>
1

> <r_epik_Ionization_Penalty>
0.00173515

> <r_epik_Ionization_Penalty_Charging>
0.00120567

> <r_epik_Ionization_Penalty_Neutral>
0.000529476

> <r_epik_State_Penalty>
-0

> <r_epik_Charging_Adjusted_Penalty>
0.00120567

> <i_epik_Tot_Q>
-1

> <i_epik_Tot_abs_Q>
1

> <r_epik_Metal_State_Penalty>
-0

> <b_epik_Metal_Only>
0

> <s_lp_Force_Field>
OPLS_2005

> <r_lp_Energy>
8.21521

> <b_lp_Chiralities_Consistent>
1

> <s_lp_Variant>
AV-unprocessed.smi:59-6

> <Gold.Version>
5.8.1

> <Gold.Id.Protein>
6NUR|6NUR_protein|mol2

> <Gold.PLP.Fitness>
43.1342

> <Gold.PLP.PLP>
-29.3218

> <Gold.PLP.part.hbond>
-3.7106

> <Gold.PLP.part.metal>
0.0000

> <Gold.PLP.part.buried>
-2.7862

> <Gold.PLP.part.nonpolar>
-24.6881

> <Gold.PLP.part.repulsive>
0.1193

> <Gold.PLP.ligand.clash>
0.0000

> <Gold.PLP.ligand.torsion>
1.3850

> <Gold.PLP.Chemscore.Hbond>
4.6000

> <Gold.PLP.Chemscore.CHOScore>
0.9208

> <Gold.PLP.Chemscore.Metal>
0.0000

> <Gold.Chemscore.Hbonds>
donor molecule, donor type, donor heavy atom, donor atom, acceptor molecule, acceptor atom, score
      L1  H     6    24       P1  7948  1.00
      P1  H  7997  8009       L1    10  2.00
      P1  H 10752 10765       L1     9  1.46
      L1  C    17    29       P1  8028  0.87

> <Gold.PLP.Chemscore.Internal.Correction>
0.0199

> <Gold.Rescore>
     Score         DG    S(hbond)    S(metal)    S(lipo)     H(rot)  DE(clash)    DE(int)     intcor
     13.62     -16.09       2.86        0.00      54.24       2.06       0.01       2.46       ----

> <Gold.Chemscore.Fitness>
13.6198

> <Gold.Chemscore.DG>
-16.0900

> <Gold.Chemscore.ZeroCoef>
-5.4800

> <Gold.Chemscore.Hbond>
2.8585

> <Gold.Chemscore.Metal>
0.0000

> <Gold.Chemscore.Lipo>
54.2411

> <Gold.Chemscore.Internal_Hbond>
0.0000

> <Gold.Chemscore.DEClash>
0.0132

> <Gold.Chemscore.DEInternal>
2.4570

> <Gold.Chemscore.Rot>
2.0639

> <Gold.Chemscore.Internal.Correction>
   9.000000E+99

> <Gold.Chemscore.Hbonds>
donor molecule, donor type, donor heavy atom, donor atom, acceptor molecule, acceptor atom, score
      L1  H     6    24       P1  7948  0.82
      P1  H  7997  8009       L1    10  1.00
      P1  H 10752 10765       L1     9  0.70

> <Gold.Chemscore.Hbond.Weighted>
-9.5474

> <Gold.Chemscore.Metal.Weighted>
-0.0000

> <Gold.Chemscore.Lipo.Weighted>
-6.3462

> <Gold.Chemscore.Internal_Hbond.Weighted>
0.0000

> <Gold.Chemscore.DEClash.Weighted>
0.0132

> <Gold.Chemscore.DEInternal.Weighted>
2.4570

> <Gold.Chemscore.Rot.Weighted>
5.2837

> <Gold.Chemscore.Internal.Correction.Weighted>
   9.000000E+99

> <Gold.Protein.RotatedTorsions>
[ 6907 6896 6895 6894 ] final  124.29 input  -60.11 | X-H torsion
[ 7974 7965 7964 7962 ] final -157.77 input  175.53 | X-H torsion
[ 8008 7997 7996 7995 ] final -144.82 input   59.86 | X-H torsion
[ 10167 10162 10161 10158 ] final   77.25 input  -65.29 | X-H torsion
[ 10718 10713 10712 10709 ] final   30.05 input   66.30 | X-H torsion
[ 10763 10752 10751 10750 ] final -153.80 input  -60.55 | X-H torsion
[ 11005 11000 10999 10996 ] final  -19.89 input  -57.11 | X-H torsion

> <Gold.Protein.ActiveResidues>
 VAL166  LYS551  ARG553  GLY616  TRP617  ASP618  TYR619  PRO620  LYS621  CYS622 
 ASP623  PHE694  ASN695  SER759  ASP760  ASP761  ALA762  ILE779  LEU786  VAL792 
 PHE793  MET794  SER795  GLU796  ALA797  LYS798  CYS799  TRP800  GLU811  SER814 

> <Gold.Protein.RotatedAtoms>
  152.4090  133.6934  159.6381 H   0  0  0  0  0  0  0  0  0  0  0  0  # atno 6907 bound_to 6896
  150.7972  133.8657  159.3253 H   0  0  0  0  0  0  0  0  0  0  0  0  # atno 6908 bound_to 6896
  151.6404  135.1015  160.0191 H   0  0  0  0  0  0  0  0  0  0  0  0  # atno 6909 bound_to 6896
  144.7534  140.3922  143.6031 H   0  0  0  0  0  0  0  0  0  0  0  0  # atno 7974 bound_to 7965
  155.5332  140.0601  157.2885 H   0  0  0  0  0  0  0  0  0  0  0  0  # atno 8008 bound_to 7997
  154.4477  140.1932  156.0560 H   0  0  0  0  0  0  0  0  0  0  0  0  # atno 8009 bound_to 7997
  156.0637  140.3269  155.7496 H   0  0  0  0  0  0  0  0  0  0  0  0  # atno 8010 bound_to 7997
  139.9836  144.5808  150.7879 H   0  0  0  0  0  0  0  0  0  0  0  0  # atno 10167 bound_to 10162
  157.2546  130.7131  149.6422 H   0  0  0  0  0  0  0  0  0  0  0  0  # atno 10718 bound_to 10713
  154.7903  135.3204  154.7793 H   0  0  0  0  0  0  0  0  0  0  0  0  # atno 10763 bound_to 10752
  153.8483  135.6864  153.4799 H   0  0  0  0  0  0  0  0  0  0  0  0  # atno 10764 bound_to 10752
  153.1570  135.4676  154.9659 H   0  0  0  0  0  0  0  0  0  0  0  0  # atno 10765 bound_to 10752
  140.8411  133.7926  155.9861 H   0  0  0  0  0  0  0  0  0  0  0  0  # atno 11005 bound_to 11000
  145.6865  139.1629  143.2671 LP  0  0  0  0  0  0  0  0  0  0  0  0  # atno 17320 bound_to 7965
  146.1513  140.6921  142.9320 LP  0  0  0  0  0  0  0  0  0  0  0  0  # atno 17321 bound_to 7965
  140.7480  143.2915  151.3317 LP  0  0  0  0  0  0  0  0  0  0  0  0  # atno 17342 bound_to 10162
  139.6391  144.0573  152.2540 LP  0  0  0  0  0  0  0  0  0  0  0  0  # atno 17343 bound_to 10162
  155.9665  130.4417  150.5350 LP  0  0  0  0  0  0  0  0  0  0  0  0  # atno 17370 bound_to 10713
  157.3241  131.0687  151.1910 LP  0  0  0  0  0  0  0  0  0  0  0  0  # atno 17371 bound_to 10713
  140.8894  134.2513  157.5102 LP  0  0  0  0  0  0  0  0  0  0  0  0  # atno 17394 bound_to 11000
  139.8703  134.9654  156.4528 LP  0  0  0  0  0  0  0  0  0  0  0  0  # atno 17395 bound_to 11000

$$$$
