AV-unprocessed.smi:109|AV-procd|sdf|1060|dock3
  -GOLD-   2262018133D 1   1.00000     0.00000
 Structure written by MMmdl.
 58 61  0  0  0  0  0  0  0  0  1 V2000
  151.1416  139.9135  154.8928 O   0  0  0  0  0  0  0  0  0  0  0  0
  152.3449  139.4246  155.4446 C   0  0  0  0  0  0  0  0  0  0  0  0
  152.2115  139.3148  156.9716 C   0  0  0  0  0  0  0  0  0  0  0  0
  151.4365  140.4966  157.5957 C   0  0  1  0  0  0  0  0  0  0  0  0
  150.2301  140.0023  158.2590 N   0  0  0  0  0  0  0  0  0  0  0  0
  149.0208  140.0425  157.6559 C   0  0  0  0  0  0  0  0  0  0  0  0
  148.0607  140.9176  158.0532 N   0  0  0  0  0  0  0  0  0  0  0  0
  146.8779  140.9385  157.4326 C   0  0  0  0  0  0  0  0  0  0  0  0
  146.4588  140.1886  156.4115 N   0  0  0  0  0  0  0  0  0  0  0  0
  147.4184  139.3079  156.0052 C   0  0  0  0  0  0  0  0  0  0  0  0
  148.7148  139.1732  156.5770 C   0  0  0  0  0  0  0  0  0  0  0  0
  149.4194  138.1749  155.9182 N   0  0  0  0  0  0  0  0  0  0  0  0
  148.5861  137.7504  155.0070 C   0  0  0  0  0  0  0  0  0  0  0  0
  147.3597  138.3773  154.9850 N   0  0  0  0  0  0  0  0  0  0  0  0
  146.2231  138.1033  154.0451 C   0  0  2  0  0  0  0  0  0  0  0  0
  146.0087  136.7245  153.9600 O   0  0  0  0  0  0  0  0  0  0  0  0
  146.1764  136.2718  152.6163 C   0  0  1  0  0  0  0  0  0  0  0  0
  145.2449  135.0795  152.3502 C   0  0  0  0  0  0  0  0  0  0  0  0
  145.3149  134.7041  150.9912 O   0  0  0  0  0  0  0  0  0  0  0  0
  145.8318  137.5162  151.7961 C   0  0  2  0  0  0  0  0  0  0  0  0
  146.3146  137.4675  150.4671 O   0  0  0  0  0  0  0  0  0  0  0  0
  146.4649  138.6300  152.6176 C   0  0  2  0  0  0  0  0  0  0  0  0
  147.8365  138.8254  152.3069 O   0  0  0  0  0  0  0  0  0  0  0  0
  152.2823  141.3675  158.5656 C   0  0  0  0  0  0  0  0  0  0  0  0
  152.7861  140.5779  159.7937 C   0  0  0  0  0  0  0  0  0  0  0  0
  153.7018  141.4389  160.6790 C   0  0  0  0  0  0  0  0  0  0  0  0
  152.9943  142.7301  161.1188 C   0  0  0  0  0  0  0  0  0  0  0  0
  152.4890  143.5249  159.9047 C   0  0  0  0  0  0  0  0  0  0  0  0
  151.5742  142.6654  159.0164 C   0  0  0  0  0  0  0  0  0  0  0  0
  145.3558  138.5618  154.5218 H   0  0  0  0  0  0  0  0  0  0  0  0
  147.2196  136.0016  152.4441 H   0  0  0  0  0  0  0  0  0  0  0  0
  144.7492  137.6531  151.7761 H   0  0  0  0  0  0  0  0  0  0  0  0
  145.9442  139.5787  152.4844 H   0  0  0  0  0  0  0  0  0  0  0  0
  150.6819  140.4008  155.5593 H   0  0  0  0  0  0  0  0  0  0  0  0
  152.5644  138.4503  155.0071 H   0  0  0  0  0  0  0  0  0  0  0  0
  153.1575  140.0974  155.1692 H   0  0  0  0  0  0  0  0  0  0  0  0
  151.7281  138.3712  157.2282 H   0  0  0  0  0  0  0  0  0  0  0  0
  153.2155  139.2653  157.3907 H   0  0  0  0  0  0  0  0  0  0  0  0
  151.1328  141.1355  156.7655 H   0  0  0  0  0  0  0  0  0  0  0  0
  150.3522  139.6986  159.2145 H   0  0  0  0  0  0  0  0  0  0  0  0
  146.1662  141.6606  157.8050 H   0  0  0  0  0  0  0  0  0  0  0  0
  148.8473  136.9619  154.3162 H   0  0  0  0  0  0  0  0  0  0  0  0
  145.4896  134.2327  152.9921 H   0  0  0  0  0  0  0  0  0  0  0  0
  144.2111  135.3565  152.5589 H   0  0  0  0  0  0  0  0  0  0  0  0
  144.4952  134.9231  150.5755 H   0  0  0  0  0  0  0  0  0  0  0  0
  145.6453  137.8161  149.8974 H   0  0  0  0  0  0  0  0  0  0  0  0
  148.2559  137.9800  152.2601 H   0  0  0  0  0  0  0  0  0  0  0  0
  153.1775  141.6706  158.0207 H   0  0  0  0  0  0  0  0  0  0  0  0
  151.9483  140.2272  160.3954 H   0  0  0  0  0  0  0  0  0  0  0  0
  153.3267  139.6886  159.4682 H   0  0  0  0  0  0  0  0  0  0  0  0
  154.0135  140.8696  161.5550 H   0  0  0  0  0  0  0  0  0  0  0  0
  154.6119  141.6881  160.1318 H   0  0  0  0  0  0  0  0  0  0  0  0
  152.1541  142.4834  161.7689 H   0  0  0  0  0  0  0  0  0  0  0  0
  153.6737  143.3447  161.7099 H   0  0  0  0  0  0  0  0  0  0  0  0
  151.9536  144.4139  160.2392 H   0  0  0  0  0  0  0  0  0  0  0  0
  153.3392  143.8783  159.3200 H   0  0  0  0  0  0  0  0  0  0  0  0
  151.2640  143.2483  158.1488 H   0  0  0  0  0  0  0  0  0  0  0  0
  150.6660  142.4268  159.5705 H   0  0  0  0  0  0  0  0  0  0  0  0
  1  2  1  0  0  0  0
  1 34  1  0  0  0  0
  2  3  1  0  0  0  0
  2 35  1  0  0  0  0
  2 36  1  0  0  0  0
  3  4  1  0  0  0  0
  3 37  1  0  0  0  0
  3 38  1  0  0  0  0
  4  5  1  0  0  0  0
  4 24  1  0  0  0  0
  4 39  1  0  0  0  0
  5  6  1  0  0  0  0
  5 40  1  0  0  0  0
  6 11  1  0  0  0  0
  6  7  2  0  0  0  0
  7  8  1  0  0  0  0
  8  9  2  0  0  0  0
  8 41  1  0  0  0  0
  9 10  1  0  0  0  0
 10 14  1  0  0  0  0
 10 11  2  0  0  0  0
 11 12  1  0  0  0  0
 12 13  2  0  0  0  0
 13 14  1  0  0  0  0
 13 42  1  0  0  0  0
 14 15  1  0  0  0  0
 15 30  1  0  0  0  0
 15 22  1  0  0  0  0
 15 16  1  0  0  0  0
 16 17  1  0  0  0  0
 17 31  1  0  0  0  0
 17 18  1  0  0  0  0
 17 20  1  0  0  0  0
 18 19  1  0  0  0  0
 18 43  1  0  0  0  0
 18 44  1  0  0  0  0
 19 45  1  0  0  0  0
 20 32  1  0  0  0  0
 20 21  1  0  0  0  0
 20 22  1  0  0  0  0
 21 46  1  0  0  0  0
 22 33  1  0  0  0  0
 22 23  1  0  0  0  0
 23 47  1  0  0  0  0
 24 29  1  0  0  0  0
 24 25  1  0  0  0  0
 24 48  1  0  0  0  0
 25 26  1  0  0  0  0
 25 49  1  0  0  0  0
 25 50  1  0  0  0  0
 26 27  1  0  0  0  0
 26 51  1  0  0  0  0
 26 52  1  0  0  0  0
 27 28  1  0  0  0  0
 27 53  1  0  0  0  0
 27 54  1  0  0  0  0
 28 29  1  0  0  0  0
 28 55  1  0  0  0  0
 28 56  1  0  0  0  0
 29 57  1  0  0  0  0
 29 58  1  0  0  0  0
M  END
> <s_m_source_file>
AV-unprocessed.smi

> <i_m_source_file_index>
109

> <i_lp_mmshare_version>
43012

> <i_f3d_flags>
0

> <s_epik_input>
W0NIMl0xW0NIMl1bQ0gyXVtDSDJdW0NIMl1bQ0hdMVtDQEhdKFtDSDJdW0NIMl1bT0hdKVtOSF1jKG5bY0hdbjIpYyhjMjMpbltjSF1uM1tDQEBIXTRPW0NASF0oW0NIMl1bT0hdKVtDQEBIXShbT0hdKVtDQEhdNFtPSF0=

> <s_epik_cmdline>
J2VwaWtfcHl0aG9uJywgJy1waCcsICc3LjAnLCAnLXRuJywgJzgnLCAnLW1hJywgJzIwMCcsICctbWV0YWxfYmluZGluZycsICctaW1hZScsICc8aW5maWxlLm1hZT4nLCAnLW9tYWUnLCAnPG91dGZpbGUubWFlPic=

> <r_lp_tautomer_probability>
1

> <r_epik_Ionization_Penalty>
0.000793976

> <r_epik_Ionization_Penalty_Charging>
0

> <r_epik_Ionization_Penalty_Neutral>
0.000793976

> <r_epik_State_Penalty>
-0

> <r_epik_Charging_Adjusted_Penalty>
0

> <i_epik_Tot_Q>
0

> <i_epik_Tot_abs_Q>
0

> <r_epik_Metal_State_Penalty>
-0

> <b_epik_Metal_Only>
0

> <s_epik_Chemistry_Notes>
This compound contains an acetal/aminal-like group ( X-CH(R)-Y where X, Y are N, S, or O) that may be acid/base labile, releasing an aldehyde.

> <s_lp_Force_Field>
OPLS_2005

> <r_lp_Energy>
62.1287

> <b_lp_Chiralities_Consistent>
1

> <s_lp_Variant>
AV-unprocessed.smi:109-30

> <Gold.Version>
5.8.1

> <Gold.Id.Protein>
6NUR|6NUR_protein|mol2

> <Gold.PLP.Fitness>
51.0334

> <Gold.PLP.PLP>
-40.3216

> <Gold.PLP.part.hbond>
-5.7980

> <Gold.PLP.part.metal>
0.0000

> <Gold.PLP.part.buried>
-3.4521

> <Gold.PLP.part.nonpolar>
-31.4255

> <Gold.PLP.part.repulsive>
0.3032

> <Gold.PLP.ligand.clash>
0.0000

> <Gold.PLP.ligand.torsion>
2.1188

> <Gold.PLP.Chemscore.Hbond>
3.8400

> <Gold.PLP.Chemscore.CHOScore>
0.9978

> <Gold.PLP.Chemscore.Metal>
0.0000

> <Gold.Chemscore.Hbonds>
donor molecule, donor type, donor heavy atom, donor atom, acceptor molecule, acceptor atom, score
      L1  H    21    46       P1 10171  0.93
      L1  H    23    47       P1  7948  1.00
      P1  H  7954  7966       L1    21  0.88
      P1  H  7989  7998       L1     1  1.00
      L1  C    13    42       P1  7948  0.95

> <Gold.PLP.Chemscore.Internal.Correction>
0.4361

> <Gold.Rescore>
     Score         DG    S(hbond)    S(metal)    S(lipo)     H(rot)  DE(clash)    DE(int)     intcor
     10.05     -14.70       3.46        0.00      99.74       5.47       0.24       4.40       ----

> <Gold.Chemscore.Fitness>
10.0545

> <Gold.Chemscore.DG>
-14.7035

> <Gold.Chemscore.ZeroCoef>
-5.4800

> <Gold.Chemscore.Hbond>
3.4574

> <Gold.Chemscore.Metal>
0.0000

> <Gold.Chemscore.Lipo>
99.7380

> <Gold.Chemscore.Internal_Hbond>
0.0000

> <Gold.Chemscore.DEClash>
0.2450

> <Gold.Chemscore.DEInternal>
4.4039

> <Gold.Chemscore.Rot>
5.4662

> <Gold.Chemscore.Internal.Correction>
   9.000000E+99

> <Gold.Chemscore.Hbonds>
donor molecule, donor type, donor heavy atom, donor atom, acceptor molecule, acceptor atom, score
      L1  H    21    46       P1 10171  0.91
      L1  H    23    47       P1  7948  1.00
      P1  H  7954  7966       L1    21  0.75
      P1  H  7989  7998       L1     1  0.45

> <Gold.Chemscore.Hbond.Weighted>
-11.5476

> <Gold.Chemscore.Metal.Weighted>
-0.0000

> <Gold.Chemscore.Lipo.Weighted>
-11.6693

> <Gold.Chemscore.Internal_Hbond.Weighted>
0.0000

> <Gold.Chemscore.DEClash.Weighted>
0.2450

> <Gold.Chemscore.DEInternal.Weighted>
4.4039

> <Gold.Chemscore.Rot.Weighted>
13.9935

> <Gold.Chemscore.Internal.Correction.Weighted>
   9.000000E+99

> <Gold.Protein.RotatedTorsions>
[ 6907 6896 6895 6894 ] final  -32.58 input  -60.11 | X-H torsion
[ 7974 7965 7964 7962 ] final   -6.62 input  175.53 | X-H torsion
[ 8008 7997 7996 7995 ] final  -37.93 input   59.86 | X-H torsion
[ 10167 10162 10161 10158 ] final  148.27 input  -65.29 | X-H torsion
[ 10718 10713 10712 10709 ] final  148.02 input   66.30 | X-H torsion
[ 10763 10752 10751 10750 ] final  -70.21 input  -60.55 | X-H torsion
[ 11005 11000 10999 10996 ] final   32.25 input  -57.11 | X-H torsion

> <Gold.Protein.ActiveResidues>
 VAL166  LYS551  ARG553  GLY616  TRP617  ASP618  TYR619  PRO620  LYS621  CYS622 
 ASP623  PHE694  ASN695  SER759  ASP760  ASP761  ALA762  ILE779  LEU786  VAL792 
 PHE793  MET794  SER795  GLU796  ALA797  LYS798  CYS799  TRP800  GLU811  SER814 

> <Gold.Protein.RotatedAtoms>
  151.0769  134.9834  159.8336 H   0  0  0  0  0  0  0  0  0  0  0  0  # atno 6907 bound_to 6896
  152.5415  134.2229  159.8805 H   0  0  0  0  0  0  0  0  0  0  0  0  # atno 6908 bound_to 6896
  151.2257  133.4434  159.2635 H   0  0  0  0  0  0  0  0  0  0  0  0  # atno 6909 bound_to 6896
  146.2327  140.2197  142.8337 H   0  0  0  0  0  0  0  0  0  0  0  0  # atno 7974 bound_to 7965
  154.4045  140.1591  156.2616 H   0  0  0  0  0  0  0  0  0  0  0  0  # atno 8008 bound_to 7997
  155.9031  140.3432  155.6019 H   0  0  0  0  0  0  0  0  0  0  0  0  # atno 8009 bound_to 7997
  155.7424  140.0794  157.2230 H   0  0  0  0  0  0  0  0  0  0  0  0  # atno 8010 bound_to 7997
  139.4877  144.5692  151.7087 H   0  0  0  0  0  0  0  0  0  0  0  0  # atno 10167 bound_to 10162
  157.3138  131.0892  151.1295 H   0  0  0  0  0  0  0  0  0  0  0  0  # atno 10718 bound_to 10713
  154.4145  135.6001  153.5972 H   0  0  0  0  0  0  0  0  0  0  0  0  # atno 10763 bound_to 10752
  152.9791  135.5937  154.4030 H   0  0  0  0  0  0  0  0  0  0  0  0  # atno 10764 bound_to 10752
  154.3847  135.2841  155.2169 H   0  0  0  0  0  0  0  0  0  0  0  0  # atno 10765 bound_to 10752
  140.2755  134.3033  155.7815 H   0  0  0  0  0  0  0  0  0  0  0  0  # atno 11005 bound_to 11000
  144.9641  140.8305  143.5495 LP  0  0  0  0  0  0  0  0  0  0  0  0  # atno 17320 bound_to 7965
  145.2171  139.2176  143.5112 LP  0  0  0  0  0  0  0  0  0  0  0  0  # atno 17321 bound_to 7965
  140.5276  144.0781  150.6043 LP  0  0  0  0  0  0  0  0  0  0  0  0  # atno 17342 bound_to 10162
  140.3760  143.2828  152.0224 LP  0  0  0  0  0  0  0  0  0  0  0  0  # atno 17343 bound_to 10162
  157.2606  130.6657  149.5973 LP  0  0  0  0  0  0  0  0  0  0  0  0  # atno 17370 bound_to 10713
  155.9680  130.4510  150.5717 LP  0  0  0  0  0  0  0  0  0  0  0  0  # atno 17371 bound_to 10713
  141.2171  133.7493  156.9400 LP  0  0  0  0  0  0  0  0  0  0  0  0  # atno 17394 bound_to 11000
  140.1333  134.9342  157.2367 LP  0  0  0  0  0  0  0  0  0  0  0  0  # atno 17395 bound_to 11000

$$$$
