AV-unprocessed.smi:113|AV-procd|sdf|1099|dock9
  -GOLD-   2262018213D 1   1.00000     0.00000
 Structure written by MMmdl.
 53 56  0  0  0  0  0  0  0  0  2 V2000
  153.4666  138.7194  159.7011 C   0  0  0  0  0  0  0  0  0  0  0  0
  152.9018  140.0960  159.4222 C   0  0  0  0  0  0  0  0  0  0  0  0
  152.2653  140.4117  158.2063 C   0  0  0  0  0  0  0  0  0  0  0  0
  151.7521  141.7154  157.9940 C   0  0  0  0  0  0  0  0  0  0  0  0
  151.0541  142.0879  156.6816 C   0  0  0  0  0  0  0  0  0  0  0  0
  149.8420  141.3533  156.3473 N   0  0  0  0  0  0  0  0  0  0  0  0
  149.9102  140.4018  155.3021 C   0  0  0  0  0  0  0  0  0  0  0  0
  150.9589  140.1908  154.6892 O   0  0  0  0  0  0  0  0  0  0  0  0
  148.6482  139.7252  154.9968 C   0  0  0  0  0  0  0  0  0  0  0  0
  148.6352  138.7152  153.8597 C   0  0  0  0  0  0  0  0  0  0  0  0
  147.5345  140.0212  155.7099 C   0  0  0  0  0  0  0  0  0  0  0  0
  147.4989  140.9386  156.7515 N   0  0  0  0  0  0  0  0  0  0  0  0
  146.2186  141.3167  157.4867 C   0  0  2  0  0  0  0  0  0  0  0  0
  145.0216  140.3971  157.2199 C   0  0  0  0  0  0  0  0  0  0  0  0
  144.2682  141.1149  156.0981 C   0  0  1  0  0  0  0  0  0  0  0  0
  142.9112  141.2887  156.4612 O   0  0  0  0  0  0  0  0  0  0  0  0
  145.0364  142.4418  155.8930 C   0  0  1  0  0  0  0  0  0  0  0  0
  144.2035  143.7131  155.6488 C   0  0  0  0  0  0  0  0  0  0  0  0
  143.0004  143.3925  154.9822 O   0  0  0  0  0  0  0  0  0  0  0  0
  145.8233  142.5839  157.0695 O   0  0  0  0  0  0  0  0  0  0  0  0
  148.6644  141.6726  157.0591 C   0  0  0  0  0  0  0  0  0  0  0  0
  148.6466  142.5651  157.9105 O   0  0  0  0  0  0  0  0  0  0  0  0
  151.8989  142.6749  159.0333 C   0  0  0  0  0  0  0  0  0  0  0  0
  151.4190  144.0010  158.9089 C   0  0  0  0  0  0  0  0  0  0  0  0
  151.5863  144.9239  159.9601 C   0  0  0  0  0  0  0  0  0  0  0  0
  152.2318  144.5364  161.1491 C   0  0  0  0  0  0  0  0  0  0  0  0
  152.7132  143.2217  161.2904 C   0  0  0  0  0  0  0  0  0  0  0  0
  152.5488  142.2975  160.2394 C   0  0  0  0  0  0  0  0  0  0  0  0
  153.0155  141.0387  160.3799 N   0  3  0  0  0  0  0  0  0  0  0  0
  153.7262  138.2121  158.7715 H   0  0  0  0  0  0  0  0  0  0  0  0
  152.7329  138.1113  160.2308 H   0  0  0  0  0  0  0  0  0  0  0  0
  154.3667  138.7849  160.3132 H   0  0  0  0  0  0  0  0  0  0  0  0
  152.1794  139.6461  157.4498 H   0  0  0  0  0  0  0  0  0  0  0  0
  150.8065  143.1506  156.6772 H   0  0  0  0  0  0  0  0  0  0  0  0
  151.7416  141.9698  155.8421 H   0  0  0  0  0  0  0  0  0  0  0  0
  147.6502  138.2685  153.7223 H   0  0  0  0  0  0  0  0  0  0  0  0
  149.3410  137.9078  154.0583 H   0  0  0  0  0  0  0  0  0  0  0  0
  148.9168  139.1937  152.9212 H   0  0  0  0  0  0  0  0  0  0  0  0
  146.6299  139.5107  155.4226 H   0  0  0  0  0  0  0  0  0  0  0  0
  146.4836  141.3127  158.5452 H   0  0  0  0  0  0  0  0  0  0  0  0
  145.3183  139.3721  156.9983 H   0  0  0  0  0  0  0  0  0  0  0  0
  144.4227  140.3702  158.1316 H   0  0  0  0  0  0  0  0  0  0  0  0
  144.2912  140.5320  155.1771 H   0  0  0  0  0  0  0  0  0  0  0  0
  142.7346  140.7647  157.2275 H   0  0  0  0  0  0  0  0  0  0  0  0
  145.7329  142.3198  155.0616 H   0  0  0  0  0  0  0  0  0  0  0  0
  143.9885  144.2395  156.5788 H   0  0  0  0  0  0  0  0  0  0  0  0
  144.7629  144.4045  155.0182 H   0  0  0  0  0  0  0  0  0  0  0  0
  143.2116  143.0747  154.1176 H   0  0  0  0  0  0  0  0  0  0  0  0
  150.9181  144.3350  158.0129 H   0  0  0  0  0  0  0  0  0  0  0  0
  151.2178  145.9337  159.8530 H   0  0  0  0  0  0  0  0  0  0  0  0
  152.3574  145.2480  161.9523 H   0  0  0  0  0  0  0  0  0  0  0  0
  153.2082  142.9302  162.2056 H   0  0  0  0  0  0  0  0  0  0  0  0
  153.4784  140.7884  161.2534 H   0  0  0  0  0  0  0  0  0  0  0  0
  1  2  1  0  0  0  0
  1 30  1  0  0  0  0
  1 31  1  0  0  0  0
  1 32  1  0  0  0  0
  2 29  1  0  0  0  0
  2  3  2  0  0  0  0
  3  4  1  0  0  0  0
  3 33  1  0  0  0  0
  4  5  1  0  0  0  0
  4 23  2  0  0  0  0
  5  6  1  0  0  0  0
  5 34  1  0  0  0  0
  5 35  1  0  0  0  0
  6 21  1  0  0  0  0
  6  7  1  0  0  0  0
  7  8  2  0  0  0  0
  7  9  1  0  0  0  0
  9 10  1  0  0  0  0
  9 11  2  0  0  0  0
 10 36  1  0  0  0  0
 10 37  1  0  0  0  0
 10 38  1  0  0  0  0
 11 12  1  0  0  0  0
 11 39  1  0  0  0  0
 12 13  1  0  0  0  0
 12 21  1  0  0  0  0
 13 20  1  0  0  0  0
 13 14  1  0  0  0  0
 13 40  1  0  0  0  0
 14 15  1  0  0  0  0
 14 41  1  0  0  0  0
 14 42  1  0  0  0  0
 15 16  1  0  0  0  0
 15 17  1  0  0  0  0
 15 43  1  0  0  0  0
 16 44  1  0  0  0  0
 17 18  1  0  0  0  0
 17 20  1  0  0  0  0
 17 45  1  0  0  0  0
 18 19  1  0  0  0  0
 18 46  1  0  0  0  0
 18 47  1  0  0  0  0
 19 48  1  0  0  0  0
 21 22  2  0  0  0  0
 23 28  1  0  0  0  0
 23 24  1  0  0  0  0
 24 25  2  0  0  0  0
 24 49  1  0  0  0  0
 25 26  1  0  0  0  0
 25 50  1  0  0  0  0
 26 27  2  0  0  0  0
 26 51  1  0  0  0  0
 27 28  1  0  0  0  0
 27 52  1  0  0  0  0
 28 29  2  0  0  0  0
 29 53  1  0  0  0  0
M  CHG  1  29   1
M  END
> <s_m_source_file>
AV-unprocessed.smi

> <i_m_source_file_index>
113

> <i_lp_mmshare_version>
43012

> <i_f3d_flags>
0

> <s_epik_input>
W2NIXTFbY0hdW2NIXVtjSF1jKGMxMiluYyhbQ0gzXSlbY0hdYzJbQ0gyXW4zYyg9TyljKFtDSDNdKVtjSF1uKGMzPU8pW0NAQEhdNFtDSDJdW0NAQEhdKFtPSF0pW0NASF0oTzQpW0NIMl1bT0hd

> <s_epik_cmdline>
J2VwaWtfcHl0aG9uJywgJy1waCcsICc3LjAnLCAnLXRuJywgJzgnLCAnLW1hJywgJzIwMCcsICctbWV0YWxfYmluZGluZycsICctaW1hZScsICc8aW5maWxlLm1hZT4nLCAnLW9tYWUnLCAnPG91dGZpbGUubWFlPic=

> <r_lp_tautomer_probability>
1

> <r_epik_Ionization_Penalty>
0.705471

> <r_epik_Ionization_Penalty_Charging>
0.70547

> <r_epik_Ionization_Penalty_Neutral>
1.19947e-07

> <r_epik_State_Penalty>
0.728574

> <r_epik_Charging_Adjusted_Penalty>
1.43404

> <i_epik_Tot_Q>
1

> <i_epik_Tot_abs_Q>
1

> <r_epik_Metal_State_Penalty>
4.61665

> <b_epik_Metal_Only>
0

> <s_epik_Chemistry_Notes>
This compound contains an acetal/aminal-like group ( X-CH(R)-Y where X, Y are N, S, or O) that may be acid/base labile, releasing an aldehyde.

> <s_lp_Force_Field>
OPLS_2005

> <r_lp_Energy>
45.3358

> <b_lp_Chiralities_Consistent>
1

> <s_lp_Variant>
AV-unprocessed.smi:113-9

> <Gold.Version>
5.8.1

> <Gold.Id.Protein>
6NUR|6NUR_protein|mol2

> <Gold.PLP.Fitness>
49.3182

> <Gold.PLP.PLP>
-44.7644

> <Gold.PLP.part.hbond>
-2.0000

> <Gold.PLP.part.metal>
0.0000

> <Gold.PLP.part.buried>
-7.4333

> <Gold.PLP.part.nonpolar>
-36.3941

> <Gold.PLP.part.repulsive>
1.2908

> <Gold.PLP.ligand.clash>
0.0000

> <Gold.PLP.ligand.torsion>
0.7422

> <Gold.PLP.Chemscore.Hbond>
1.9920

> <Gold.PLP.Chemscore.CHOScore>
0.0000

> <Gold.PLP.Chemscore.Metal>
0.0000

> <Gold.Chemscore.Hbonds>
donor molecule, donor type, donor heavy atom, donor atom, acceptor molecule, acceptor atom, score
      L1  H    19    48       P1 10174  0.73
      P1  H  7989  7998       L1     8  0.99

> <Gold.PLP.Chemscore.Internal.Correction>
0.0622

> <Gold.Rescore>
     Score         DG    S(hbond)    S(metal)    S(lipo)     H(rot)  DE(clash)    DE(int)     intcor
     15.56     -18.09       1.80        0.00     122.37       3.01       0.68       1.85       ----

> <Gold.Chemscore.Fitness>
15.5568

> <Gold.Chemscore.DG>
-18.0941

> <Gold.Chemscore.ZeroCoef>
-5.4800

> <Gold.Chemscore.Hbond>
1.7987

> <Gold.Chemscore.Metal>
0.0000

> <Gold.Chemscore.Lipo>
122.3707

> <Gold.Chemscore.Internal_Hbond>
0.0000

> <Gold.Chemscore.DEClash>
0.6832

> <Gold.Chemscore.DEInternal>
1.8541

> <Gold.Chemscore.Rot>
3.0120

> <Gold.Chemscore.Internal.Correction>
   9.000000E+99

> <Gold.Chemscore.Hbonds>
donor molecule, donor type, donor heavy atom, donor atom, acceptor molecule, acceptor atom, score
      L1  H    19    48       P1 10174  0.52
      P1  H  7989  7998       L1     8  0.92

> <Gold.Chemscore.Hbond.Weighted>
-6.0075

> <Gold.Chemscore.Metal.Weighted>
-0.0000

> <Gold.Chemscore.Lipo.Weighted>
-14.3174

> <Gold.Chemscore.Internal_Hbond.Weighted>
0.0000

> <Gold.Chemscore.DEClash.Weighted>
0.6832

> <Gold.Chemscore.DEInternal.Weighted>
1.8541

> <Gold.Chemscore.Rot.Weighted>
7.7108

> <Gold.Chemscore.Internal.Correction.Weighted>
   9.000000E+99

> <Gold.Protein.RotatedTorsions>
[ 6907 6896 6895 6894 ] final   55.46 input  -60.11 | X-H torsion
[ 7974 7965 7964 7962 ] final  147.36 input  175.53 | X-H torsion
[ 8008 7997 7996 7995 ] final  -11.47 input   59.86 | X-H torsion
[ 10167 10162 10161 10158 ] final   35.07 input  -65.29 | X-H torsion
[ 10718 10713 10712 10709 ] final -121.32 input   66.30 | X-H torsion
[ 10763 10752 10751 10750 ] final -177.35 input  -60.55 | X-H torsion
[ 11005 11000 10999 10996 ] final   -6.12 input  -57.11 | X-H torsion

> <Gold.Protein.ActiveResidues>
 VAL166  LYS551  ARG553  GLY616  TRP617  ASP618  TYR619  PRO620  LYS621  CYS622 
 ASP623  PHE694  ASN695  SER759  ASP760  ASP761  ALA762  ILE779  LEU786  VAL792 
 PHE793  MET794  SER795  GLU796  ALA797  LYS798  CYS799  TRP800  GLU811  SER814 

> <Gold.Protein.RotatedAtoms>
  152.3541  134.6965  160.0227 H   0  0  0  0  0  0  0  0  0  0  0  0  # atno 6907 bound_to 6896
  151.7309  133.3312  159.3348 H   0  0  0  0  0  0  0  0  0  0  0  0  # atno 6908 bound_to 6896
  150.7559  134.6297  159.6224 H   0  0  0  0  0  0  0  0  0  0  0  0  # atno 6909 bound_to 6896
  144.8598  139.6019  143.5936 H   0  0  0  0  0  0  0  0  0  0  0  0  # atno 7974 bound_to 7965
  154.5461  140.2301  155.8560 H   0  0  0  0  0  0  0  0  0  0  0  0  # atno 8008 bound_to 7997
  156.1904  140.3078  155.9283 H   0  0  0  0  0  0  0  0  0  0  0  0  # atno 8009 bound_to 7997
  155.3161  140.0438  157.3028 H   0  0  0  0  0  0  0  0  0  0  0  0  # atno 8010 bound_to 7997
  140.4256  144.1397  150.6153 H   0  0  0  0  0  0  0  0  0  0  0  0  # atno 10167 bound_to 10162
  156.1328  130.6408  150.9648 H   0  0  0  0  0  0  0  0  0  0  0  0  # atno 10718 bound_to 10713
  154.5611  135.2820  155.0918 H   0  0  0  0  0  0  0  0  0  0  0  0  # atno 10763 bound_to 10752
  154.2326  135.6371  153.5184 H   0  0  0  0  0  0  0  0  0  0  0  0  # atno 10764 bound_to 10752
  153.0029  135.5541  154.6206 H   0  0  0  0  0  0  0  0  0  0  0  0  # atno 10765 bound_to 10752
  140.6985  133.9010  155.8667 H   0  0  0  0  0  0  0  0  0  0  0  0  # atno 11005 bound_to 11000
  146.2851  139.6983  142.9201 LP  0  0  0  0  0  0  0  0  0  0  0  0  # atno 17320 bound_to 7965
  145.4335  141.0417  143.2897 LP  0  0  0  0  0  0  0  0  0  0  0  0  # atno 17321 bound_to 7965
  140.4484  143.2497  151.9380 LP  0  0  0  0  0  0  0  0  0  0  0  0  # atno 17342 bound_to 10162
  139.4783  144.5586  151.8275 LP  0  0  0  0  0  0  0  0  0  0  0  0  # atno 17343 bound_to 10162
  157.6504  131.0898  150.8063 LP  0  0  0  0  0  0  0  0  0  0  0  0  # atno 17370 bound_to 10713
  156.8146  130.4963  149.5351 LP  0  0  0  0  0  0  0  0  0  0  0  0  # atno 17371 bound_to 10713
  141.0183  134.0925  157.4148 LP  0  0  0  0  0  0  0  0  0  0  0  0  # atno 17394 bound_to 11000
  139.8903  135.0111  156.6729 LP  0  0  0  0  0  0  0  0  0  0  0  0  # atno 17395 bound_to 11000

$$$$
