AV-unprocessed.smi:2784|AV-procd|sdf|10727|dock8
  -GOLD-   2272015163D 1   1.00000     0.00000
 Structure written by MMmdl.
 31 32  0  0  0  0  0  0  0  0  1 V2000
  153.6915  142.0706  161.1339 C   0  0  0  0  0  0  0  0  0  0  0  0
  153.1668  142.6969  159.9744 O   0  0  0  0  0  0  0  0  0  0  0  0
  151.8443  143.2013  160.1413 C   0  0  1  0  0  0  0  0  0  0  0  0
  151.9192  144.6402  160.6635 C   0  0  0  0  0  0  0  0  0  0  0  0
  152.1838  145.4766  159.4145 C   0  0  0  0  0  0  0  0  0  0  0  0
  151.3847  144.7886  158.3038 C   0  0  0  0  0  0  0  0  0  0  0  0
  151.1517  143.3365  158.7659 C   0  0  1  0  0  0  0  0  0  0  0  0
  151.6444  142.3791  157.7778 N   0  0  0  0  0  0  0  0  0  0  0  0
  150.8850  141.4712  157.1480 C   0  0  0  0  0  0  0  0  0  0  0  0
  149.6732  141.3537  157.3333 O   0  0  0  0  0  0  0  0  0  0  0  0
  151.6168  140.7216  156.3071 N   0  0  0  0  0  0  0  0  0  0  0  0
  151.1659  139.6611  155.4816 C   0  0  0  0  0  0  0  0  0  0  0  0
  149.9050  139.4136  155.1228 N   0  0  0  0  0  0  0  0  0  0  0  0
  149.9846  138.2821  154.3240 C   0  0  0  0  0  0  0  0  0  0  0  0
  151.3008  137.9063  154.2447 C   0  0  0  0  0  0  0  0  0  0  0  0
  152.0646  138.7751  154.9770 O   0  0  0  0  0  0  0  0  0  0  0  0
  154.7055  141.7251  160.9333 H   0  0  0  0  0  0  0  0  0  0  0  0
  153.0929  141.2032  161.4143 H   0  0  0  0  0  0  0  0  0  0  0  0
  153.7325  142.7548  161.9814 H   0  0  0  0  0  0  0  0  0  0  0  0
  151.2637  142.5518  160.7990 H   0  0  0  0  0  0  0  0  0  0  0  0
  150.9561  144.9218  161.0912 H   0  0  0  0  0  0  0  0  0  0  0  0
  152.6751  144.7890  161.4343 H   0  0  0  0  0  0  0  0  0  0  0  0
  151.9063  146.5228  159.5443 H   0  0  0  0  0  0  0  0  0  0  0  0
  153.2473  145.4437  159.1744 H   0  0  0  0  0  0  0  0  0  0  0  0
  150.4243  145.2881  158.1700 H   0  0  0  0  0  0  0  0  0  0  0  0
  151.9122  144.8522  157.3507 H   0  0  0  0  0  0  0  0  0  0  0  0
  150.0769  143.1952  158.8952 H   0  0  0  0  0  0  0  0  0  0  0  0
  152.6326  142.4032  157.5734 H   0  0  0  0  0  0  0  0  0  0  0  0
  152.6028  140.9290  156.2534 H   0  0  0  0  0  0  0  0  0  0  0  0
  149.1069  137.8373  153.8788 H   0  0  0  0  0  0  0  0  0  0  0  0
  151.8225  137.1036  153.7448 H   0  0  0  0  0  0  0  0  0  0  0  0
  1  2  1  0  0  0  0
  1 17  1  0  0  0  0
  1 18  1  0  0  0  0
  1 19  1  0  0  0  0
  2  3  1  0  0  0  0
  3  7  1  0  0  0  0
  3  4  1  0  0  0  0
  3 20  1  0  0  0  0
  4  5  1  0  0  0  0
  4 21  1  0  0  0  0
  4 22  1  0  0  0  0
  5  6  1  0  0  0  0
  5 23  1  0  0  0  0
  5 24  1  0  0  0  0
  6  7  1  0  0  0  0
  6 25  1  0  0  0  0
  6 26  1  0  0  0  0
  7  8  1  0  0  0  0
  7 27  1  0  0  0  0
  8  9  1  0  0  0  0
  8 28  1  0  0  0  0
  9 10  2  0  0  0  0
  9 11  1  0  0  0  0
 11 12  1  0  0  0  0
 11 29  1  0  0  0  0
 12 16  1  0  0  0  0
 12 13  2  0  0  0  0
 13 14  1  0  0  0  0
 14 15  2  0  0  0  0
 14 30  1  0  0  0  0
 15 16  1  0  0  0  0
 15 31  1  0  0  0  0
M  END
> <s_m_source_file>
AV-unprocessed.smi

> <i_m_source_file_index>
2784

> <i_lp_mmshare_version>
43012

> <i_f3d_flags>
0

> <s_epik_input>
W0NIM11PW0NAQEhdMVtDSDJdW0NIMl1bQ0gyXVtDQEhdMVtOSF1DKD1PKVtOSF1jMm5bY0hdW2NIXW8y

> <s_epik_cmdline>
J2VwaWtfcHl0aG9uJywgJy1waCcsICc3LjAnLCAnLXRuJywgJzgnLCAnLW1hJywgJzIwMCcsICctbWV0YWxfYmluZGluZycsICctaW1hZScsICc8aW5maWxlLm1hZT4nLCAnLW9tYWUnLCAnPG91dGZpbGUubWFlPic=

> <r_lp_tautomer_probability>
0.785861

> <r_epik_Ionization_Penalty>
4.58897e-05

> <r_epik_Ionization_Penalty_Charging>
0

> <r_epik_Ionization_Penalty_Neutral>
4.58897e-05

> <r_epik_State_Penalty>
0.0380021

> <r_epik_Charging_Adjusted_Penalty>
0.0380021

> <i_epik_Tot_Q>
0

> <i_epik_Tot_abs_Q>
0

> <r_epik_Metal_State_Penalty>
0.0585611

> <b_epik_Metal_Only>
0

> <s_lp_Force_Field>
OPLS_2005

> <r_lp_Energy>
20.0634

> <b_lp_Chiralities_Consistent>
1

> <s_lp_Variant>
AV-unprocessed.smi:2784-2

> <Gold.Version>
5.8.1

> <Gold.Id.Protein>
6NUR|6NUR_protein|mol2

> <Gold.PLP.Fitness>
38.6622

> <Gold.PLP.PLP>
-33.5239

> <Gold.PLP.part.hbond>
-0.0130

> <Gold.PLP.part.metal>
0.0000

> <Gold.PLP.part.buried>
-4.4281

> <Gold.PLP.part.nonpolar>
-27.2958

> <Gold.PLP.part.repulsive>
0.3878

> <Gold.PLP.ligand.clash>
0.0000

> <Gold.PLP.ligand.torsion>
0.3679

> <Gold.PLP.Chemscore.Hbond>
0.0000

> <Gold.PLP.Chemscore.CHOScore>
1.9539

> <Gold.PLP.Chemscore.Metal>
0.0000

> <Gold.Chemscore.Hbonds>
donor molecule, donor type, donor heavy atom, donor atom, acceptor molecule, acceptor atom, score
      L1  C    14    30       P1  7948  0.88
      L1  C    15    31       P1  7949  0.79

> <Gold.PLP.Chemscore.Internal.Correction>
0.0123

> <Gold.Rescore>
     Score         DG    S(hbond)    S(metal)    S(lipo)     H(rot)  DE(clash)    DE(int)     intcor
     10.65     -12.01       0.00        0.00      84.78       1.32       0.07       1.29       ----

> <Gold.Chemscore.Fitness>
10.6515

> <Gold.Chemscore.DG>
-12.0113

> <Gold.Chemscore.ZeroCoef>
-5.4800

> <Gold.Chemscore.Hbond>
0.0000

> <Gold.Chemscore.Metal>
0.0000

> <Gold.Chemscore.Lipo>
84.7817

> <Gold.Chemscore.Internal_Hbond>
0.0000

> <Gold.Chemscore.DEClash>
0.0663

> <Gold.Chemscore.DEInternal>
1.2934

> <Gold.Chemscore.Rot>
1.3235

> <Gold.Chemscore.Internal.Correction>
   9.000000E+99

> <Gold.Chemscore.Hbond.Weighted>
-0.0000

> <Gold.Chemscore.Metal.Weighted>
-0.0000

> <Gold.Chemscore.Lipo.Weighted>
-9.9195

> <Gold.Chemscore.Internal_Hbond.Weighted>
0.0000

> <Gold.Chemscore.DEClash.Weighted>
0.0663

> <Gold.Chemscore.DEInternal.Weighted>
1.2934

> <Gold.Chemscore.Rot.Weighted>
3.3882

> <Gold.Chemscore.Internal.Correction.Weighted>
   9.000000E+99

> <Gold.Protein.RotatedTorsions>
[ 6907 6896 6895 6894 ] final  -78.80 input  -60.11 | X-H torsion
[ 7974 7965 7964 7962 ] final   19.39 input  175.53 | X-H torsion
[ 8008 7997 7996 7995 ] final  103.17 input   59.86 | X-H torsion
[ 10167 10162 10161 10158 ] final   13.33 input  -65.29 | X-H torsion
[ 10718 10713 10712 10709 ] final  104.11 input   66.30 | X-H torsion
[ 10763 10752 10751 10750 ] final -113.81 input  -60.55 | X-H torsion
[ 11005 11000 10999 10996 ] final   35.67 input  -57.11 | X-H torsion

> <Gold.Protein.ActiveResidues>
 VAL166  LYS551  ARG553  GLY616  TRP617  ASP618  TYR619  PRO620  LYS621  CYS622 
 ASP623  PHE694  ASN695  SER759  ASP760  ASP761  ALA762  ILE779  LEU786  VAL792 
 PHE793  MET794  SER795  GLU796  ALA797  LYS798  CYS799  TRP800  GLU811  SER814 

> <Gold.Protein.RotatedAtoms>
  150.6964  134.4217  159.5207 H   0  0  0  0  0  0  0  0  0  0  0  0  # atno 6907 bound_to 6896
  152.1959  134.8628  160.0522 H   0  0  0  0  0  0  0  0  0  0  0  0  # atno 6908 bound_to 6896
  151.9566  133.3647  159.4056 H   0  0  0  0  0  0  0  0  0  0  0  0  # atno 6909 bound_to 6896
  146.2151  139.8320  142.8658 H   0  0  0  0  0  0  0  0  0  0  0  0  # atno 7974 bound_to 7965
  156.1460  140.3169  155.8571 H   0  0  0  0  0  0  0  0  0  0  0  0  # atno 8008 bound_to 7997
  155.4063  140.0503  157.3051 H   0  0  0  0  0  0  0  0  0  0  0  0  # atno 8009 bound_to 7997
  154.5016  140.2131  155.9346 H   0  0  0  0  0  0  0  0  0  0  0  0  # atno 8010 bound_to 7997
  140.6009  143.8606  150.6965 H   0  0  0  0  0  0  0  0  0  0  0  0  # atno 10167 bound_to 10162
  157.6751  131.0795  150.5656 H   0  0  0  0  0  0  0  0  0  0  0  0  # atno 10718 bound_to 10713
  154.8413  135.4440  154.1408 H   0  0  0  0  0  0  0  0  0  0  0  0  # atno 10763 bound_to 10752
  153.2593  135.6934  153.7601 H   0  0  0  0  0  0  0  0  0  0  0  0  # atno 10764 bound_to 10752
  153.6884  135.3391  155.3171 H   0  0  0  0  0  0  0  0  0  0  0  0  # atno 10765 bound_to 10752
  140.2403  134.3422  155.7928 H   0  0  0  0  0  0  0  0  0  0  0  0  # atno 11005 bound_to 11000
  145.2987  141.0188  143.3621 LP  0  0  0  0  0  0  0  0  0  0  0  0  # atno 17320 bound_to 7965
  144.9022  139.4634  143.6627 LP  0  0  0  0  0  0  0  0  0  0  0  0  # atno 17321 bound_to 7965
  140.2151  143.3852  152.1687 LP  0  0  0  0  0  0  0  0  0  0  0  0  # atno 17342 bound_to 10162
  139.5291  144.7138  151.5122 LP  0  0  0  0  0  0  0  0  0  0  0  0  # atno 17343 bound_to 10162
  156.5958  130.4341  149.5917 LP  0  0  0  0  0  0  0  0  0  0  0  0  # atno 17370 bound_to 10713
  156.2546  130.6927  151.1676 LP  0  0  0  0  0  0  0  0  0  0  0  0  # atno 17371 bound_to 10713
  141.2211  133.7295  156.8875 LP  0  0  0  0  0  0  0  0  0  0  0  0  # atno 17394 bound_to 11000
  140.1660  134.9133  157.2774 LP  0  0  0  0  0  0  0  0  0  0  0  0  # atno 17395 bound_to 11000

$$$$
