AV-unprocessed.smi:1314|AV-procd|sdf|5453|dock4
  -GOLD-   22720 5 23D 1   1.00000     0.00000
 Structure written by MMmdl.
 41 42  0  0  0  0  0  0  0  0  1 V2000
  152.3595  138.2230  158.3193 C   0  0  0  0  0  0  0  0  0  0  0  0
  151.3295  137.2511  157.8194 C   0  0  0  0  0  0  0  0  0  0  0  0
  150.5965  136.5711  158.6851 N   0  0  0  0  0  0  0  0  0  0  0  0
  149.7445  135.7697  157.9190 O   0  0  0  0  0  0  0  0  0  0  0  0
  150.0022  136.0010  156.6065 C   0  0  0  0  0  0  0  0  0  0  0  0
  149.1866  135.2383  155.6181 C   0  0  0  0  0  0  0  0  0  0  0  0
  150.9998  136.9273  156.4721 C   0  0  0  0  0  0  0  0  0  0  0  0
  151.6085  137.4824  155.2100 C   0  0  0  0  0  0  0  0  0  0  0  0
  151.6144  139.0115  155.2626 C   0  0  0  0  0  0  0  0  0  0  0  0
  152.6678  139.6293  155.1054 O   0  0  0  0  0  0  0  0  0  0  0  0
  150.4326  139.6063  155.4882 N   0  0  0  0  0  0  0  0  0  0  0  0
  150.2114  141.0449  155.5996 C   0  0  0  0  0  0  0  0  0  0  0  0
  150.1367  141.5061  157.0641 C   0  0  0  0  0  0  0  0  0  0  0  0
  151.7770  141.7783  157.7957 S   0  0  0  0  0  0  0  0  0  0  0  0
  151.3675  142.9880  159.0867 C   0  0  0  0  0  0  0  0  0  0  0  0
  151.3172  144.4182  158.5510 C   0  0  0  0  0  0  0  0  0  0  0  0
  151.4704  145.2975  159.7942 C   0  0  0  0  0  0  0  0  0  0  0  0
  152.2688  144.4642  160.8084 C   0  0  0  0  0  0  0  0  0  0  0  0
  152.4139  143.0618  160.2021 C   0  0  0  0  0  0  0  0  0  0  0  0
  152.3039  139.1647  157.7731 H   0  0  0  0  0  0  0  0  0  0  0  0
  153.3655  137.8236  158.1909 H   0  0  0  0  0  0  0  0  0  0  0  0
  152.2231  138.4479  159.3777 H   0  0  0  0  0  0  0  0  0  0  0  0
  148.8651  135.8850  154.8015 H   0  0  0  0  0  0  0  0  0  0  0  0
  148.2951  134.8188  156.0851 H   0  0  0  0  0  0  0  0  0  0  0  0
  149.7647  134.4179  155.1931 H   0  0  0  0  0  0  0  0  0  0  0  0
  152.6357  137.1401  155.0804 H   0  0  0  0  0  0  0  0  0  0  0  0
  151.0638  137.1408  154.3286 H   0  0  0  0  0  0  0  0  0  0  0  0
  149.6227  139.0140  155.6007 H   0  0  0  0  0  0  0  0  0  0  0  0
  151.0545  141.5373  155.1145 H   0  0  0  0  0  0  0  0  0  0  0  0
  149.3221  141.3598  155.0509 H   0  0  0  0  0  0  0  0  0  0  0  0
  149.5453  142.4184  157.1488 H   0  0  0  0  0  0  0  0  0  0  0  0
  149.6268  140.7433  157.6523 H   0  0  0  0  0  0  0  0  0  0  0  0
  150.3961  142.7358  159.5144 H   0  0  0  0  0  0  0  0  0  0  0  0
  152.1569  144.5939  157.8769 H   0  0  0  0  0  0  0  0  0  0  0  0
  150.4000  144.6286  158.0002 H   0  0  0  0  0  0  0  0  0  0  0  0
  151.9571  146.2458  159.5640 H   0  0  0  0  0  0  0  0  0  0  0  0
  150.4865  145.5271  160.2052 H   0  0  0  0  0  0  0  0  0  0  0  0
  153.2473  144.9032  161.0058 H   0  0  0  0  0  0  0  0  0  0  0  0
  151.7347  144.4202  161.7584 H   0  0  0  0  0  0  0  0  0  0  0  0
  152.2854  142.2758  160.9468 H   0  0  0  0  0  0  0  0  0  0  0  0
  153.4140  142.9541  159.7799 H   0  0  0  0  0  0  0  0  0  0  0  0
  1  2  1  0  0  0  0
  1 20  1  0  0  0  0
  1 21  1  0  0  0  0
  1 22  1  0  0  0  0
  2  7  1  0  0  0  0
  2  3  2  0  0  0  0
  3  4  1  0  0  0  0
  4  5  1  0  0  0  0
  5  6  1  0  0  0  0
  5  7  2  0  0  0  0
  6 23  1  0  0  0  0
  6 24  1  0  0  0  0
  6 25  1  0  0  0  0
  7  8  1  0  0  0  0
  8  9  1  0  0  0  0
  8 26  1  0  0  0  0
  8 27  1  0  0  0  0
  9 10  2  0  0  0  0
  9 11  1  0  0  0  0
 11 12  1  0  0  0  0
 11 28  1  0  0  0  0
 12 13  1  0  0  0  0
 12 29  1  0  0  0  0
 12 30  1  0  0  0  0
 13 14  1  0  0  0  0
 13 31  1  0  0  0  0
 13 32  1  0  0  0  0
 14 15  1  0  0  0  0
 15 19  1  0  0  0  0
 15 16  1  0  0  0  0
 15 33  1  0  0  0  0
 16 17  1  0  0  0  0
 16 34  1  0  0  0  0
 16 35  1  0  0  0  0
 17 18  1  0  0  0  0
 17 36  1  0  0  0  0
 17 37  1  0  0  0  0
 18 19  1  0  0  0  0
 18 38  1  0  0  0  0
 18 39  1  0  0  0  0
 19 40  1  0  0  0  0
 19 41  1  0  0  0  0
M  END
> <s_m_source_file>
AV-unprocessed.smi

> <i_m_source_file_index>
1314

> <i_lp_mmshare_version>
43012

> <i_f3d_flags>
0

> <s_epik_input>
W0NIM11jMW5vYyhbQ0gzXSljMVtDSDJdQyg9TylbTkhdW0NIMl1bQ0gyXVNbQ0hdMltDSDJdW0NIMl1bQ0gyXVtDSDJdMg==

> <s_epik_cmdline>
J2VwaWtfcHl0aG9uJywgJy1waCcsICc3LjAnLCAnLXRuJywgJzgnLCAnLW1hJywgJzIwMCcsICctbWV0YWxfYmluZGluZycsICctaW1hZScsICc8aW5maWxlLm1hZT4nLCAnLW9tYWUnLCAnPG91dGZpbGUubWFlPic=

> <r_lp_tautomer_probability>
1

> <r_epik_Ionization_Penalty>
2.75407e-08

> <r_epik_Ionization_Penalty_Charging>
0

> <r_epik_Ionization_Penalty_Neutral>
2.75407e-08

> <r_epik_State_Penalty>
-0

> <r_epik_Charging_Adjusted_Penalty>
0

> <i_epik_Tot_Q>
0

> <i_epik_Tot_abs_Q>
0

> <r_epik_Metal_State_Penalty>
-0

> <b_epik_Metal_Only>
0

> <s_lp_Force_Field>
OPLS_2005

> <r_lp_Energy>
14.7141

> <b_lp_Chiralities_Consistent>
1

> <s_lp_Variant>
AV-unprocessed.smi:1314-1

> <Gold.Version>
5.8.1

> <Gold.Id.Protein>
6NUR|6NUR_protein|mol2

> <Gold.PLP.Fitness>
41.5919

> <Gold.PLP.PLP>
-37.3912

> <Gold.PLP.part.hbond>
-3.7383

> <Gold.PLP.part.metal>
0.0000

> <Gold.PLP.part.buried>
-6.0954

> <Gold.PLP.part.nonpolar>
-28.4104

> <Gold.PLP.part.repulsive>
0.0974

> <Gold.PLP.ligand.clash>
0.0000

> <Gold.PLP.ligand.torsion>
0.7503

> <Gold.PLP.Chemscore.Hbond>
1.8604

> <Gold.PLP.Chemscore.CHOScore>
0.0000

> <Gold.PLP.Chemscore.Metal>
0.0000

> <Gold.Chemscore.Hbonds>
donor molecule, donor type, donor heavy atom, donor atom, acceptor molecule, acceptor atom, score
      P1  H  6896  6907       L1     3  0.76
      P1  H  7989  7998       L1    10  0.13
      P1  H  7997  8008       L1    10  0.98

> <Gold.PLP.Chemscore.Internal.Correction>
0.1202

> <Gold.Rescore>
     Score         DG    S(hbond)    S(metal)    S(lipo)     H(rot)  DE(clash)    DE(int)     intcor
     18.27     -18.98       1.72        0.00     102.61       1.66       0.02       0.68       ----

> <Gold.Chemscore.Fitness>
18.2730

> <Gold.Chemscore.DG>
-18.9763

> <Gold.Chemscore.ZeroCoef>
-5.4800

> <Gold.Chemscore.Hbond>
1.7225

> <Gold.Chemscore.Metal>
0.0000

> <Gold.Chemscore.Lipo>
102.6069

> <Gold.Chemscore.Internal_Hbond>
0.0000

> <Gold.Chemscore.DEClash>
0.0247

> <Gold.Chemscore.DEInternal>
0.6786

> <Gold.Chemscore.Rot>
1.6648

> <Gold.Chemscore.Internal.Correction>
   9.000000E+99

> <Gold.Chemscore.Hbonds>
donor molecule, donor type, donor heavy atom, donor atom, acceptor molecule, acceptor atom, score
      P1  H  6896  6907       L1     3  0.14
      P1  H  7989  7998       L1    10  0.01
      P1  H  7997  8008       L1    10  0.92

> <Gold.Chemscore.Hbond.Weighted>
-5.7532

> <Gold.Chemscore.Metal.Weighted>
-0.0000

> <Gold.Chemscore.Lipo.Weighted>
-12.0050

> <Gold.Chemscore.Internal_Hbond.Weighted>
0.0000

> <Gold.Chemscore.DEClash.Weighted>
0.0247

> <Gold.Chemscore.DEInternal.Weighted>
0.6786

> <Gold.Chemscore.Rot.Weighted>
4.2619

> <Gold.Chemscore.Internal.Correction.Weighted>
   9.000000E+99

> <Gold.Protein.RotatedTorsions>
[ 6907 6896 6895 6894 ] final  -14.68 input  -60.11 | X-H torsion
[ 7974 7965 7964 7962 ] final -166.03 input  175.53 | X-H torsion
[ 8008 7997 7996 7995 ] final  -11.79 input   59.86 | X-H torsion
[ 10167 10162 10161 10158 ] final  -55.66 input  -65.29 | X-H torsion
[ 10718 10713 10712 10709 ] final -112.49 input   66.30 | X-H torsion
[ 10763 10752 10751 10750 ] final  131.45 input  -60.55 | X-H torsion
[ 11005 11000 10999 10996 ] final  -93.02 input  -57.11 | X-H torsion

> <Gold.Protein.ActiveResidues>
 VAL166  LYS551  ARG553  GLY616  TRP617  ASP618  TYR619  PRO620  LYS621  CYS622 
 ASP623  PHE694  ASN695  SER759  ASP760  ASP761  ALA762  ILE779  LEU786  VAL792 
 PHE793  MET794  SER795  GLU796  ALA797  LYS798  CYS799  TRP800  GLU811  SER814 

> <Gold.Protein.RotatedAtoms>
  151.3356  135.0852  159.9353 H   0  0  0  0  0  0  0  0  0  0  0  0  # atno 6907 bound_to 6896
  152.5224  133.9499  159.7677 H   0  0  0  0  0  0  0  0  0  0  0  0  # atno 6908 bound_to 6896
  150.9846  133.6158  159.2747 H   0  0  0  0  0  0  0  0  0  0  0  0  # atno 6909 bound_to 6896
  144.7255  140.2726  143.6248 H   0  0  0  0  0  0  0  0  0  0  0  0  # atno 7974 bound_to 7965
  154.5434  140.2293  155.8604 H   0  0  0  0  0  0  0  0  0  0  0  0  # atno 8008 bound_to 7997
  156.1880  140.3084  155.9237 H   0  0  0  0  0  0  0  0  0  0  0  0  # atno 8009 bound_to 7997
  155.3213  140.0440  157.3030 H   0  0  0  0  0  0  0  0  0  0  0  0  # atno 8010 bound_to 7997
  140.6362  143.2483  151.5111 H   0  0  0  0  0  0  0  0  0  0  0  0  # atno 10167 bound_to 10162
  156.0709  130.5923  150.8516 H   0  0  0  0  0  0  0  0  0  0  0  0  # atno 10718 bound_to 10713
  153.7746  135.3177  155.3357 H   0  0  0  0  0  0  0  0  0  0  0  0  # atno 10763 bound_to 10752
  154.8184  135.4620  154.0711 H   0  0  0  0  0  0  0  0  0  0  0  0  # atno 10764 bound_to 10752
  153.1981  135.6918  153.8351 H   0  0  0  0  0  0  0  0  0  0  0  0  # atno 10765 bound_to 10752
  141.1508  133.7859  157.0101 H   0  0  0  0  0  0  0  0  0  0  0  0  # atno 11005 bound_to 11000
  145.8028  139.1971  143.2038 LP  0  0  0  0  0  0  0  0  0  0  0  0  # atno 17320 bound_to 7965
  146.0662  140.7918  142.9710 LP  0  0  0  0  0  0  0  0  0  0  0  0  # atno 17321 bound_to 7965
  139.5572  144.2245  152.1633 LP  0  0  0  0  0  0  0  0  0  0  0  0  # atno 17342 bound_to 10162
  140.1502  144.5121  150.6692 LP  0  0  0  0  0  0  0  0  0  0  0  0  # atno 17343 bound_to 10162
  157.5779  131.0946  150.9317 LP  0  0  0  0  0  0  0  0  0  0  0  0  # atno 17370 bound_to 10713
  156.9519  130.5423  149.5283 LP  0  0  0  0  0  0  0  0  0  0  0  0  # atno 17371 bound_to 10713
  140.0883  134.9607  157.1736 LP  0  0  0  0  0  0  0  0  0  0  0  0  # atno 17394 bound_to 11000
  140.3480  134.2630  155.7202 LP  0  0  0  0  0  0  0  0  0  0  0  0  # atno 17395 bound_to 11000

$$$$
