AV-unprocessed.smi:613|AV-procd|sdf|3065|dock9
  -GOLD-   2262023593D 1   1.00000     0.00000
 Structure written by MMmdl.
 38 39  0  0  0  0  0  0  0  0  1 V2000
  151.9592  140.3661  157.7558 C   0  0  0  0  0  0  0  0  0  0  0  0
  151.5033  141.7071  157.4082 N   0  0  0  0  0  0  0  0  0  0  0  0
  150.5994  141.8614  156.2652 C   0  0  0  0  0  0  0  0  0  0  0  0
  150.0101  140.5244  155.7733 C   0  0  1  0  0  0  0  0  0  0  0  0
  148.7023  140.6867  154.9683 C   0  0  0  0  0  0  0  0  0  0  0  0
  148.2243  139.4133  154.4229 N   0  0  0  0  0  0  0  0  0  0  0  0
  146.9783  139.5271  153.6523 C   0  0  0  0  0  0  0  0  0  0  0  0
  146.6372  138.2952  152.8052 C   0  0  0  0  0  0  0  0  0  0  0  0
  146.5452  137.1261  153.4442 N   0  0  0  0  0  0  0  0  0  0  0  0
  146.4615  138.3987  151.5934 O   0  0  0  0  0  0  0  0  0  0  0  0
  149.2846  138.7899  153.6372 C   0  0  0  0  0  0  0  0  0  0  0  0
  150.5824  138.6362  154.4466 C   0  0  0  0  0  0  0  0  0  0  0  0
  150.9885  139.9081  154.9400 O   0  0  0  0  0  0  0  0  0  0  0  0
  151.7008  142.7656  158.3279 C   0  0  0  0  0  0  0  0  0  0  0  0
  152.5977  142.6453  159.4181 C   0  0  0  0  0  0  0  0  0  0  0  0
  152.7282  143.7372  160.2933 C   0  0  0  0  0  0  0  0  0  0  0  0
  151.9558  144.8790  160.0226 C   0  0  0  0  0  0  0  0  0  0  0  0
  151.1166  144.9524  158.9677 N   0  0  0  0  0  0  0  0  0  0  0  0
  150.9974  143.9123  158.1366 N   0  0  0  0  0  0  0  0  0  0  0  0
  153.0420  140.3478  157.8820 H   0  0  0  0  0  0  0  0  0  0  0  0
  151.7055  139.6522  156.9718 H   0  0  0  0  0  0  0  0  0  0  0  0
  151.4901  140.0261  158.6797 H   0  0  0  0  0  0  0  0  0  0  0  0
  149.8034  142.5785  156.4656 H   0  0  0  0  0  0  0  0  0  0  0  0
  151.1789  142.3050  155.4548 H   0  0  0  0  0  0  0  0  0  0  0  0
  149.8335  139.8723  156.6305 H   0  0  0  0  0  0  0  0  0  0  0  0
  147.9494  141.1219  155.6241 H   0  0  0  0  0  0  0  0  0  0  0  0
  148.8591  141.3998  154.1570 H   0  0  0  0  0  0  0  0  0  0  0  0
  146.1428  139.7307  154.3247 H   0  0  0  0  0  0  0  0  0  0  0  0
  147.0396  140.3821  152.9772 H   0  0  0  0  0  0  0  0  0  0  0  0
  146.3264  136.2874  152.9267 H   0  0  0  0  0  0  0  0  0  0  0  0
  146.6985  137.0857  154.4412 H   0  0  0  0  0  0  0  0  0  0  0  0
  148.9623  137.8075  153.2894 H   0  0  0  0  0  0  0  0  0  0  0  0
  149.4865  139.3851  152.7448 H   0  0  0  0  0  0  0  0  0  0  0  0
  150.4419  137.9425  155.2770 H   0  0  0  0  0  0  0  0  0  0  0  0
  151.3749  138.2282  153.8190 H   0  0  0  0  0  0  0  0  0  0  0  0
  153.1761  141.7525  159.5996 H   0  0  0  0  0  0  0  0  0  0  0  0
  153.3951  143.7001  161.1417 H   0  0  0  0  0  0  0  0  0  0  0  0
  152.0125  145.7490  160.6598 H   0  0  0  0  0  0  0  0  0  0  0  0
  1  2  1  0  0  0  0
  1 20  1  0  0  0  0
  1 21  1  0  0  0  0
  1 22  1  0  0  0  0
  2  3  1  0  0  0  0
  2 14  1  0  0  0  0
  3  4  1  0  0  0  0
  3 23  1  0  0  0  0
  3 24  1  0  0  0  0
  4 13  1  0  0  0  0
  4  5  1  0  0  0  0
  4 25  1  0  0  0  0
  5  6  1  0  0  0  0
  5 26  1  0  0  0  0
  5 27  1  0  0  0  0
  6  7  1  0  0  0  0
  6 11  1  0  0  0  0
  7  8  1  0  0  0  0
  7 28  1  0  0  0  0
  7 29  1  0  0  0  0
  8  9  1  0  0  0  0
  8 10  2  0  0  0  0
  9 30  1  0  0  0  0
  9 31  1  0  0  0  0
 11 12  1  0  0  0  0
 11 32  1  0  0  0  0
 11 33  1  0  0  0  0
 12 13  1  0  0  0  0
 12 34  1  0  0  0  0
 12 35  1  0  0  0  0
 14 19  1  0  0  0  0
 14 15  2  0  0  0  0
 15 16  1  0  0  0  0
 15 36  1  0  0  0  0
 16 17  2  0  0  0  0
 16 37  1  0  0  0  0
 17 18  1  0  0  0  0
 17 38  1  0  0  0  0
 18 19  2  0  0  0  0
M  END
> <s_m_source_file>
AV-unprocessed.smi

> <i_m_source_file_index>
613

> <i_lp_mmshare_version>
43012

> <i_f3d_flags>
0

> <s_epik_input>
bjFuW2NIXVtjSF1bY0hdYzFOKFtDSDNdKVtDSDJdW0NAQEhdMltDSDJdTihbQ0gyXVtDSDJdTzIpW0NIMl1DKD1PKVtOSDJd

> <s_epik_cmdline>
J2VwaWtfcHl0aG9uJywgJy1waCcsICc3LjAnLCAnLXRuJywgJzgnLCAnLW1hJywgJzIwMCcsICctbWV0YWxfYmluZGluZycsICctaW1hZScsICc8aW5maWxlLm1hZT4nLCAnLW9tYWUnLCAnPG91dGZpbGUubWFlPic=

> <r_lp_tautomer_probability>
1

> <r_epik_Ionization_Penalty>
0.0398875

> <r_epik_Ionization_Penalty_Charging>
0

> <r_epik_Ionization_Penalty_Neutral>
0.0398875

> <r_epik_State_Penalty>
0.0543012

> <r_epik_Charging_Adjusted_Penalty>
0.0543012

> <i_epik_Tot_Q>
0

> <i_epik_Tot_abs_Q>
0

> <r_epik_Metal_State_Penalty>
0.0489294

> <b_epik_Metal_Only>
0

> <s_lp_Force_Field>
OPLS_2005

> <r_lp_Energy>
25.1321

> <b_lp_Chiralities_Consistent>
1

> <s_lp_Variant>
AV-unprocessed.smi:613-2

> <Gold.Version>
5.8.1

> <Gold.Id.Protein>
6NUR|6NUR_protein|mol2

> <Gold.PLP.Fitness>
42.8739

> <Gold.PLP.PLP>
-38.1425

> <Gold.PLP.part.hbond>
-2.9836

> <Gold.PLP.part.metal>
0.0000

> <Gold.PLP.part.buried>
-2.4223

> <Gold.PLP.part.nonpolar>
-34.0460

> <Gold.PLP.part.repulsive>
1.4516

> <Gold.PLP.ligand.clash>
0.0000

> <Gold.PLP.ligand.torsion>
0.6612

> <Gold.PLP.Chemscore.Hbond>
1.9600

> <Gold.PLP.Chemscore.CHOScore>
0.0000

> <Gold.PLP.Chemscore.Metal>
0.0000

> <Gold.Chemscore.Hbonds>
donor molecule, donor type, donor heavy atom, donor atom, acceptor molecule, acceptor atom, score
      P1  H  7989  7998       L1    13  1.00

> <Gold.PLP.Chemscore.Internal.Correction>
0.1739

> <Gold.Rescore>
     Score         DG    S(hbond)    S(metal)    S(lipo)     H(rot)  DE(clash)    DE(int)     intcor
     11.56     -14.55       1.38        0.00      85.91       2.18       1.73       1.27       ----

> <Gold.Chemscore.Fitness>
11.5557

> <Gold.Chemscore.DG>
-14.5539

> <Gold.Chemscore.ZeroCoef>
-5.4800

> <Gold.Chemscore.Hbond>
1.3798

> <Gold.Chemscore.Metal>
0.0000

> <Gold.Chemscore.Lipo>
85.9149

> <Gold.Chemscore.Internal_Hbond>
0.0000

> <Gold.Chemscore.DEClash>
1.7303

> <Gold.Chemscore.DEInternal>
1.2679

> <Gold.Chemscore.Rot>
2.1823

> <Gold.Chemscore.Internal.Correction>
   9.000000E+99

> <Gold.Chemscore.Hbonds>
donor molecule, donor type, donor heavy atom, donor atom, acceptor molecule, acceptor atom, score
      P1  H  7954  7966       L1    10  0.04
      P1  H  7989  7998       L1    13  0.58

> <Gold.Chemscore.Hbond.Weighted>
-4.6086

> <Gold.Chemscore.Metal.Weighted>
-0.0000

> <Gold.Chemscore.Lipo.Weighted>
-10.0520

> <Gold.Chemscore.Internal_Hbond.Weighted>
0.0000

> <Gold.Chemscore.DEClash.Weighted>
1.7303

> <Gold.Chemscore.DEInternal.Weighted>
1.2679

> <Gold.Chemscore.Rot.Weighted>
5.5867

> <Gold.Chemscore.Internal.Correction.Weighted>
   9.000000E+99

> <Gold.Protein.RotatedTorsions>
[ 6907 6896 6895 6894 ] final -119.82 input  -60.11 | X-H torsion
[ 7974 7965 7964 7962 ] final -169.35 input  175.53 | X-H torsion
[ 8008 7997 7996 7995 ] final  164.19 input   59.86 | X-H torsion
[ 10167 10162 10161 10158 ] final  126.54 input  -65.29 | X-H torsion
[ 10718 10713 10712 10709 ] final   10.25 input   66.30 | X-H torsion
[ 10763 10752 10751 10750 ] final   61.99 input  -60.55 | X-H torsion
[ 11005 11000 10999 10996 ] final  -84.23 input  -57.11 | X-H torsion

> <Gold.Protein.ActiveResidues>
 VAL166  LYS551  ARG553  GLY616  TRP617  ASP618  TYR619  PRO620  LYS621  CYS622 
 ASP623  PHE694  ASN695  SER759  ASP760  ASP761  ALA762  ILE779  LEU786  VAL792 
 PHE793  MET794  SER795  GLU796  ALA797  LYS798  CYS799  TRP800  GLU811  SER814 

> <Gold.Protein.RotatedAtoms>
  150.8339  133.8046  159.3087 H   0  0  0  0  0  0  0  0  0  0  0  0  # atno 6907 bound_to 6896
  151.5767  135.1058  160.0017 H   0  0  0  0  0  0  0  0  0  0  0  0  # atno 6908 bound_to 6896
  152.4414  133.7414  159.6699 H   0  0  0  0  0  0  0  0  0  0  0  0  # atno 6909 bound_to 6896
  144.7187  140.2234  143.6313 H   0  0  0  0  0  0  0  0  0  0  0  0  # atno 7974 bound_to 7965
  156.1899  140.1703  156.8112 H   0  0  0  0  0  0  0  0  0  0  0  0  # atno 8008 bound_to 7997
  154.5458  140.0727  156.8619 H   0  0  0  0  0  0  0  0  0  0  0  0  # atno 8009 bound_to 7997
  155.3124  140.3368  155.4246 H   0  0  0  0  0  0  0  0  0  0  0  0  # atno 8010 bound_to 7997
  139.5626  144.6891  151.4001 H   0  0  0  0  0  0  0  0  0  0  0  0  # atno 10167 bound_to 10162
  156.9782  130.5995  149.5674 H   0  0  0  0  0  0  0  0  0  0  0  0  # atno 10718 bound_to 10713
  152.9968  135.5481  154.6122 H   0  0  0  0  0  0  0  0  0  0  0  0  # atno 10763 bound_to 10752
  154.5440  135.2822  155.1071 H   0  0  0  0  0  0  0  0  0  0  0  0  # atno 10764 bound_to 10752
  154.2337  135.6429  153.5236 H   0  0  0  0  0  0  0  0  0  0  0  0  # atno 10765 bound_to 10752
  141.1652  133.7335  156.8837 H   0  0  0  0  0  0  0  0  0  0  0  0  # atno 11005 bound_to 11000
  145.8479  139.2161  143.1789 LP  0  0  0  0  0  0  0  0  0  0  0  0  # atno 17320 bound_to 7965
  146.0287  140.8278  142.9886 LP  0  0  0  0  0  0  0  0  0  0  0  0  # atno 17321 bound_to 7965
  140.6907  143.7869  150.7251 LP  0  0  0  0  0  0  0  0  0  0  0  0  # atno 17342 bound_to 10162
  140.1350  143.4492  152.2230 LP  0  0  0  0  0  0  0  0  0  0  0  0  # atno 17343 bound_to 10162
  156.0255  130.5349  150.8394 LP  0  0  0  0  0  0  0  0  0  0  0  0  # atno 17370 bound_to 10713
  157.5545  131.0944  150.9649 LP  0  0  0  0  0  0  0  0  0  0  0  0  # atno 17371 bound_to 10713
  140.1697  134.9108  157.2818 LP  0  0  0  0  0  0  0  0  0  0  0  0  # atno 17394 bound_to 11000
  140.2516  134.3676  155.7440 LP  0  0  0  0  0  0  0  0  0  0  0  0  # atno 17395 bound_to 11000

$$$$
