AV-unprocessed.smi:3169|AV-procd|sdf|12103|dock8
  -GOLD-   2272017543D 1   1.00000     0.00000
 Structure written by MMmdl.
 36 37  0  0  0  0  0  0  0  0  2 V2000
  145.1777  137.8599  153.4965 O   0  0  0  0  0  0  0  0  0  0  0  0
  146.1824  137.2791  153.0853 C   0  0  0  0  0  0  0  0  0  0  0  0
  147.4352  137.6526  153.3803 N   0  0  0  0  0  0  0  0  0  0  0  0
  147.7861  138.7921  154.2192 C   0  0  0  0  0  0  0  0  0  0  0  0
  149.3063  139.0235  154.2499 C   0  0  0  0  0  0  0  0  0  0  0  0
  149.6603  140.1876  155.0627 N   0  0  0  0  0  0  0  0  0  0  0  0
  150.6603  140.2791  155.9963 C   0  0  0  0  0  0  0  0  0  0  0  0
  150.6097  141.5543  156.4981 C   0  0  0  0  0  0  0  0  0  0  0  0
  149.5814  142.1856  155.8505 N   0  3  0  0  0  0  0  0  0  0  0  0
  149.0054  141.3525  154.9776 C   0  0  0  0  0  0  0  0  0  0  0  0
  146.1588  136.2064  152.2827 N   0  0  0  0  0  0  0  0  0  0  0  0
  144.9545  135.5644  151.7658 C   0  0  0  0  0  0  0  0  0  0  0  0
  145.2875  134.4026  150.8139 C   0  0  2  0  0  0  0  0  0  0  0  0
  144.1010  133.5200  150.4235 C   0  0  0  0  0  0  0  0  0  0  0  0
  144.7935  132.2293  150.0523 C   0  0  0  0  0  0  0  0  0  0  0  0
  145.9068  132.1628  151.0940 C   0  0  0  0  0  0  0  0  0  0  0  0
  146.2158  133.5138  151.4296 O   0  0  0  0  0  0  0  0  0  0  0  0
  148.1975  137.1124  152.9977 H   0  0  0  0  0  0  0  0  0  0  0  0
  147.2676  139.6852  153.8654 H   0  0  0  0  0  0  0  0  0  0  0  0
  147.4181  138.5982  155.2271 H   0  0  0  0  0  0  0  0  0  0  0  0
  149.8208  138.1550  154.6636 H   0  0  0  0  0  0  0  0  0  0  0  0
  149.7020  139.1826  153.2455 H   0  0  0  0  0  0  0  0  0  0  0  0
  151.3160  139.4521  156.2281 H   0  0  0  0  0  0  0  0  0  0  0  0
  151.2122  142.0464  157.2476 H   0  0  0  0  0  0  0  0  0  0  0  0
  148.1740  141.5758  154.3324 H   0  0  0  0  0  0  0  0  0  0  0  0
  147.0407  135.8037  152.0015 H   0  0  0  0  0  0  0  0  0  0  0  0
  144.3947  135.1820  152.6196 H   0  0  0  0  0  0  0  0  0  0  0  0
  144.3022  136.2888  151.2749 H   0  0  0  0  0  0  0  0  0  0  0  0
  145.7607  134.7873  149.9088 H   0  0  0  0  0  0  0  0  0  0  0  0
  143.4442  133.3559  151.2791 H   0  0  0  0  0  0  0  0  0  0  0  0
  143.5075  133.9370  149.6095 H   0  0  0  0  0  0  0  0  0  0  0  0
  144.1326  131.3625  150.0773 H   0  0  0  0  0  0  0  0  0  0  0  0
  145.2186  132.3079  149.0507 H   0  0  0  0  0  0  0  0  0  0  0  0
  145.5570  131.6562  151.9938 H   0  0  0  0  0  0  0  0  0  0  0  0
  146.7860  131.6329  150.7272 H   0  0  0  0  0  0  0  0  0  0  0  0
  149.2962  143.1444  156.0071 H   0  0  0  0  0  0  0  0  0  0  0  0
  1  2  2  0  0  0  0
  2  3  1  0  0  0  0
  2 11  1  0  0  0  0
  3  4  1  0  0  0  0
  3 18  1  0  0  0  0
  4  5  1  0  0  0  0
  4 19  1  0  0  0  0
  4 20  1  0  0  0  0
  5  6  1  0  0  0  0
  5 21  1  0  0  0  0
  5 22  1  0  0  0  0
  6 10  1  0  0  0  0
  6  7  1  0  0  0  0
  7  8  2  0  0  0  0
  7 23  1  0  0  0  0
  8  9  1  0  0  0  0
  8 24  1  0  0  0  0
  9 10  2  0  0  0  0
  9 36  1  0  0  0  0
 10 25  1  0  0  0  0
 11 12  1  0  0  0  0
 11 26  1  0  0  0  0
 12 13  1  0  0  0  0
 12 27  1  0  0  0  0
 12 28  1  0  0  0  0
 13 17  1  0  0  0  0
 13 14  1  0  0  0  0
 13 29  1  0  0  0  0
 14 15  1  0  0  0  0
 14 30  1  0  0  0  0
 14 31  1  0  0  0  0
 15 16  1  0  0  0  0
 15 32  1  0  0  0  0
 15 33  1  0  0  0  0
 16 17  1  0  0  0  0
 16 34  1  0  0  0  0
 16 35  1  0  0  0  0
M  CHG  1   9   1
M  END
> <s_m_source_file>
AV-unprocessed.smi

> <i_m_source_file_index>
3169

> <i_lp_mmshare_version>
43012

> <i_f3d_flags>
0

> <s_epik_input>
TzFbQ0gyXVtDSDJdW0NIMl1bQ0BIXTFbQ0gyXVtOSF1DKD1PKVtOSF1bQ0gyXVtDSDJdbjJbY0hdW2NIXW5bY0hdMg==

> <s_epik_cmdline>
J2VwaWtfcHl0aG9uJywgJy1waCcsICc3LjAnLCAnLXRuJywgJzgnLCAnLW1hJywgJzIwMCcsICctbWV0YWxfYmluZGluZycsICctaW1hZScsICc8aW5maWxlLm1hZT4nLCAnLW9tYWUnLCAnPG91dGZpbGUubWFlPic=

> <r_lp_tautomer_probability>
1

> <r_epik_Ionization_Penalty>
0.256136

> <r_epik_Ionization_Penalty_Charging>
0

> <r_epik_Ionization_Penalty_Neutral>
0.256136

> <r_epik_State_Penalty>
0.247629

> <r_epik_Charging_Adjusted_Penalty>
0.247629

> <i_epik_Tot_Q>
1

> <i_epik_Tot_abs_Q>
1

> <r_epik_Metal_State_Penalty>
0.537113

> <b_epik_Metal_Only>
0

> <s_lp_Force_Field>
OPLS_2005

> <r_lp_Energy>
17.2765

> <b_lp_Chiralities_Consistent>
1

> <s_lp_Variant>
AV-unprocessed.smi:3169-1

> <Gold.Version>
5.8.1

> <Gold.Id.Protein>
6NUR|6NUR_protein|mol2

> <Gold.PLP.Fitness>
42.6501

> <Gold.PLP.PLP>
-31.6775

> <Gold.PLP.part.hbond>
-2.8488

> <Gold.PLP.part.metal>
0.0000

> <Gold.PLP.part.buried>
-3.8114

> <Gold.PLP.part.nonpolar>
-26.6094

> <Gold.PLP.part.repulsive>
1.1154

> <Gold.PLP.ligand.clash>
0.0000

> <Gold.PLP.ligand.torsion>
0.2496

> <Gold.PLP.Chemscore.Hbond>
3.8160

> <Gold.PLP.Chemscore.CHOScore>
0.0000

> <Gold.PLP.Chemscore.Metal>
0.0000

> <Gold.Chemscore.Hbonds>
donor molecule, donor type, donor heavy atom, donor atom, acceptor molecule, acceptor atom, score
      L1  H     3    18       P1  7948  1.00
      L1  H     9    36       P1  8028  2.00
      L1  H    11    26       P1  7948  0.85

> <Gold.PLP.Chemscore.Internal.Correction>
0.0239

> <Gold.Rescore>
     Score         DG    S(hbond)    S(metal)    S(lipo)     H(rot)  DE(clash)    DE(int)     intcor
     15.66     -16.09       2.76        0.00      62.95       2.33       0.06       0.37       ----

> <Gold.Chemscore.Fitness>
15.6585

> <Gold.Chemscore.DG>
-16.0875

> <Gold.Chemscore.ZeroCoef>
-5.4800

> <Gold.Chemscore.Hbond>
2.7557

> <Gold.Chemscore.Metal>
0.0000

> <Gold.Chemscore.Lipo>
62.9509

> <Gold.Chemscore.Internal_Hbond>
0.0000

> <Gold.Chemscore.DEClash>
0.0625

> <Gold.Chemscore.DEInternal>
0.3664

> <Gold.Chemscore.Rot>
2.3288

> <Gold.Chemscore.Internal.Correction>
   9.000000E+99

> <Gold.Chemscore.Hbonds>
donor molecule, donor type, donor heavy atom, donor atom, acceptor molecule, acceptor atom, score
      L1  H     3    18       P1  7948  0.97
      L1  H     9    36       P1  8028  0.99
      L1  H    11    26       P1  7948  0.84

> <Gold.Chemscore.Hbond.Weighted>
-9.2039

> <Gold.Chemscore.Metal.Weighted>
-0.0000

> <Gold.Chemscore.Lipo.Weighted>
-7.3653

> <Gold.Chemscore.Internal_Hbond.Weighted>
0.0000

> <Gold.Chemscore.DEClash.Weighted>
0.0625

> <Gold.Chemscore.DEInternal.Weighted>
0.3664

> <Gold.Chemscore.Rot.Weighted>
5.9617

> <Gold.Chemscore.Internal.Correction.Weighted>
   9.000000E+99

> <Gold.Protein.RotatedTorsions>
[ 6907 6896 6895 6894 ] final    4.31 input  -60.11 | X-H torsion
[ 7974 7965 7964 7962 ] final -146.68 input  175.53 | X-H torsion
[ 8008 7997 7996 7995 ] final  139.05 input   59.86 | X-H torsion
[ 10167 10162 10161 10158 ] final   40.57 input  -65.29 | X-H torsion
[ 10718 10713 10712 10709 ] final   45.32 input   66.30 | X-H torsion
[ 10763 10752 10751 10750 ] final   93.38 input  -60.55 | X-H torsion
[ 11005 11000 10999 10996 ] final  -42.81 input  -57.11 | X-H torsion

> <Gold.Protein.ActiveResidues>
 VAL166  LYS551  ARG553  GLY616  TRP617  ASP618  TYR619  PRO620  LYS621  CYS622 
 ASP623  PHE694  ASN695  SER759  ASP760  ASP761  ALA762  ILE779  LEU786  VAL792 
 PHE793  MET794  SER795  GLU796  ALA797  LYS798  CYS799  TRP800  GLU811  SER814 

> <Gold.Protein.RotatedAtoms>
  151.6392  135.1014  160.0137 H   0  0  0  0  0  0  0  0  0  0  0  0  # atno 6907 bound_to 6896
  152.4064  133.6891  159.6368 H   0  0  0  0  0  0  0  0  0  0  0  0  # atno 6908 bound_to 6896
  150.7958  133.8619  159.3275 H   0  0  0  0  0  0  0  0  0  0  0  0  # atno 6909 bound_to 6896
  144.8143  140.5425  143.5621 H   0  0  0  0  0  0  0  0  0  0  0  0  # atno 7974 bound_to 7965
  156.2993  140.2377  156.4174 H   0  0  0  0  0  0  0  0  0  0  0  0  # atno 8008 bound_to 7997
  154.8386  140.0429  157.1546 H   0  0  0  0  0  0  0  0  0  0  0  0  # atno 8009 bound_to 7997
  154.9128  140.2993  155.5261 H   0  0  0  0  0  0  0  0  0  0  0  0  # atno 8010 bound_to 7997
  140.3729  144.2081  150.6132 H   0  0  0  0  0  0  0  0  0  0  0  0  # atno 10167 bound_to 10162
  157.4363  130.8054  149.7651 H   0  0  0  0  0  0  0  0  0  0  0  0  # atno 10718 bound_to 10713
  153.2297  135.4327  155.0581 H   0  0  0  0  0  0  0  0  0  0  0  0  # atno 10763 bound_to 10752
  154.8291  135.3376  154.6806 H   0  0  0  0  0  0  0  0  0  0  0  0  # atno 10764 bound_to 10752
  153.7233  135.7015  153.5063 H   0  0  0  0  0  0  0  0  0  0  0  0  # atno 10765 bound_to 10752
  141.0341  133.6807  156.2646 H   0  0  0  0  0  0  0  0  0  0  0  0  # atno 11005 bound_to 11000
  145.5250  139.1476  143.3531 LP  0  0  0  0  0  0  0  0  0  0  0  0  # atno 17320 bound_to 7965
  146.2445  140.5391  142.8920 LP  0  0  0  0  0  0  0  0  0  0  0  0  # atno 17321 bound_to 7965
  140.5015  143.2316  151.8671 LP  0  0  0  0  0  0  0  0  0  0  0  0  # atno 17342 bound_to 10162
  139.4802  144.5054  151.9005 LP  0  0  0  0  0  0  0  0  0  0  0  0  # atno 17343 bound_to 10162
  155.9931  130.3926  150.2912 LP  0  0  0  0  0  0  0  0  0  0  0  0  # atno 17370 bound_to 10713
  157.1073  131.0212  151.3062 LP  0  0  0  0  0  0  0  0  0  0  0  0  # atno 17371 bound_to 10713
  140.6353  134.5221  157.5564 LP  0  0  0  0  0  0  0  0  0  0  0  0  # atno 17394 bound_to 11000
  139.9228  134.8114  156.1158 LP  0  0  0  0  0  0  0  0  0  0  0  0  # atno 17395 bound_to 11000

$$$$
