AV-unprocessed.smi:1686|AV-procd|sdf|6764|dock2
  -GOLD-   22720 7523D 1   1.00000     0.00000
 Structure written by MMmdl.
 41 43  0  0  0  0  0  0  0  0  1 V2000
  146.0683  143.3894  153.7032 C   0  0  0  0  0  0  0  0  0  0  0  0
  146.3428  142.5539  154.9206 C   0  0  0  0  0  0  0  0  0  0  0  0
  145.4753  142.5623  155.9245 N   0  0  0  0  0  0  0  0  0  0  0  0
  145.9940  141.7041  156.9010 O   0  0  0  0  0  0  0  0  0  0  0  0
  147.1613  141.2179  156.4211 C   0  0  0  0  0  0  0  0  0  0  0  0
  148.1340  140.1172  157.3132 Cl  0  0  0  0  0  0  0  0  0  0  0  0
  147.4553  141.7003  155.1783 C   0  0  0  0  0  0  0  0  0  0  0  0
  148.6448  141.4189  154.2964 C   0  0  0  0  0  0  0  0  0  0  0  0
  149.9040  141.3236  155.1573 C   0  0  0  0  0  0  0  0  0  0  0  0
  150.6710  140.3704  155.0215 O   0  0  0  0  0  0  0  0  0  0  0  0
  150.1117  142.3242  156.0270 N   0  0  0  0  0  0  0  0  0  0  0  0
  151.2816  142.4647  156.8906 C   0  0  2  0  0  0  0  0  0  0  0  0
  151.3877  141.2489  157.8280 C   0  0  0  0  0  0  0  0  0  0  0  0
  151.1989  143.7934  157.6791 C   0  0  1  0  0  0  0  0  0  0  0  0
  150.2445  143.7620  158.8941 C   0  0  0  0  0  0  0  0  0  0  0  0
  151.1132  144.3283  160.0330 C   0  0  1  0  0  0  0  0  0  0  0  0
  152.1507  143.2698  160.4513 C   0  0  0  0  0  0  0  0  0  0  0  0
  153.1371  143.2772  159.2694 C   0  0  0  0  0  0  0  0  0  0  0  0
  152.5138  144.3142  158.3126 C   0  0  2  0  0  0  0  0  0  0  0  0
  151.9796  145.3459  159.3008 C   0  0  0  0  0  0  0  0  0  0  0  0
  146.9948  143.7389  153.2477 H   0  0  0  0  0  0  0  0  0  0  0  0
  145.4719  144.2692  153.9472 H   0  0  0  0  0  0  0  0  0  0  0  0
  145.5247  142.8162  152.9523 H   0  0  0  0  0  0  0  0  0  0  0  0
  148.5109  140.4966  153.7292 H   0  0  0  0  0  0  0  0  0  0  0  0
  148.7878  142.2078  153.5573 H   0  0  0  0  0  0  0  0  0  0  0  0
  149.4264  143.0645  156.0675 H   0  0  0  0  0  0  0  0  0  0  0  0
  152.1768  142.4866  156.2671 H   0  0  0  0  0  0  0  0  0  0  0  0
  152.2578  141.3256  158.4801 H   0  0  0  0  0  0  0  0  0  0  0  0
  151.4877  140.3213  157.2635 H   0  0  0  0  0  0  0  0  0  0  0  0
  150.5054  141.1576  158.4622 H   0  0  0  0  0  0  0  0  0  0  0  0
  150.8479  144.5654  156.9918 H   0  0  0  0  0  0  0  0  0  0  0  0
  149.3747  144.3946  158.7126 H   0  0  0  0  0  0  0  0  0  0  0  0
  149.8804  142.7605  159.1269 H   0  0  0  0  0  0  0  0  0  0  0  0
  150.5353  144.7272  160.8670 H   0  0  0  0  0  0  0  0  0  0  0  0
  152.6555  143.5616  161.3730 H   0  0  0  0  0  0  0  0  0  0  0  0
  151.7009  142.2894  160.6124 H   0  0  0  0  0  0  0  0  0  0  0  0
  154.1212  143.6111  159.6008 H   0  0  0  0  0  0  0  0  0  0  0  0
  153.2663  142.2937  158.8186 H   0  0  0  0  0  0  0  0  0  0  0  0
  153.2184  144.7164  157.5852 H   0  0  0  0  0  0  0  0  0  0  0  0
  151.4046  146.1448  158.8292 H   0  0  0  0  0  0  0  0  0  0  0  0
  152.7549  145.7869  159.9302 H   0  0  0  0  0  0  0  0  0  0  0  0
  1  2  1  0  0  0  0
  1 21  1  0  0  0  0
  1 22  1  0  0  0  0
  1 23  1  0  0  0  0
  2  7  1  0  0  0  0
  2  3  2  0  0  0  0
  3  4  1  0  0  0  0
  4  5  1  0  0  0  0
  5  6  1  0  0  0  0
  5  7  2  0  0  0  0
  7  8  1  0  0  0  0
  8  9  1  0  0  0  0
  8 24  1  0  0  0  0
  8 25  1  0  0  0  0
  9 10  2  0  0  0  0
  9 11  1  0  0  0  0
 11 12  1  0  0  0  0
 11 26  1  0  0  0  0
 12 13  1  0  0  0  0
 12 14  1  0  0  0  0
 12 27  1  0  0  0  0
 13 28  1  0  0  0  0
 13 29  1  0  0  0  0
 13 30  1  0  0  0  0
 14 19  1  0  0  0  0
 14 15  1  0  0  0  0
 14 31  1  0  0  0  0
 15 16  1  0  0  0  0
 15 32  1  0  0  0  0
 15 33  1  0  0  0  0
 16 20  1  0  0  0  0
 16 17  1  0  0  0  0
 16 34  1  0  0  0  0
 17 18  1  0  0  0  0
 17 35  1  0  0  0  0
 17 36  1  0  0  0  0
 18 19  1  0  0  0  0
 18 37  1  0  0  0  0
 18 38  1  0  0  0  0
 19 20  1  0  0  0  0
 19 39  1  0  0  0  0
 20 40  1  0  0  0  0
 20 41  1  0  0  0  0
M  END
> <s_m_source_file>
AV-unprocessed.smi

> <i_m_source_file_index>
1686

> <i_lp_mmshare_version>
43012

> <i_f3d_flags>
0

> <s_epik_input>
W0NIM11jMW5vYyhDbCljMVtDSDJdQyg9TylbTkhdW0NASF0oW0NIM10pW0NASF0oW0NIMl1bQ0BIXTIzKVtDQEhdKFtDSDJdMylbQ0gyXVtDSDJdMg==

> <s_epik_cmdline>
J2VwaWtfcHl0aG9uJywgJy1waCcsICc3LjAnLCAnLXRuJywgJzgnLCAnLW1hJywgJzIwMCcsICctbWV0YWxfYmluZGluZycsICctaW1hZScsICc8aW5maWxlLm1hZT4nLCAnLW9tYWUnLCAnPG91dGZpbGUubWFlPic=

> <r_lp_tautomer_probability>
1

> <r_epik_Ionization_Penalty>
2.01576e-08

> <r_epik_Ionization_Penalty_Charging>
0

> <r_epik_Ionization_Penalty_Neutral>
2.01576e-08

> <r_epik_State_Penalty>
-0

> <r_epik_Charging_Adjusted_Penalty>
0

> <i_epik_Tot_Q>
0

> <i_epik_Tot_abs_Q>
0

> <r_epik_Metal_State_Penalty>
-0

> <b_epik_Metal_Only>
0

> <s_lp_Force_Field>
OPLS_2005

> <r_lp_Energy>
45.5839

> <b_lp_Chiralities_Consistent>
1

> <s_lp_Variant>
AV-unprocessed.smi:1686-7

> <Gold.Version>
5.8.1

> <Gold.Id.Protein>
6NUR|6NUR_protein|mol2

> <Gold.PLP.Fitness>
51.5087

> <Gold.PLP.PLP>
-46.8734

> <Gold.PLP.part.hbond>
-2.0000

> <Gold.PLP.part.metal>
0.0000

> <Gold.PLP.part.buried>
-5.9504

> <Gold.PLP.part.nonpolar>
-39.6547

> <Gold.PLP.part.repulsive>
0.3502

> <Gold.PLP.ligand.clash>
0.0000

> <Gold.PLP.ligand.torsion>
0.6856

> <Gold.PLP.Chemscore.Hbond>
1.9920

> <Gold.PLP.Chemscore.CHOScore>
0.0000

> <Gold.PLP.Chemscore.Metal>
0.0000

> <Gold.Chemscore.Hbonds>
donor molecule, donor type, donor heavy atom, donor atom, acceptor molecule, acceptor atom, score
      L1  H    11    26       P1  8028  1.00
      P1  H  7989  7998       L1    10  1.00

> <Gold.PLP.Chemscore.Internal.Correction>
0.0305

> <Gold.Rescore>
     Score         DG    S(hbond)    S(metal)    S(lipo)     H(rot)  DE(clash)    DE(int)     intcor
     19.83     -21.47       1.59        0.00     123.38       1.46       0.22       1.42       ----

> <Gold.Chemscore.Fitness>
19.8285

> <Gold.Chemscore.DG>
-21.4695

> <Gold.Chemscore.ZeroCoef>
-5.4800

> <Gold.Chemscore.Hbond>
1.5882

> <Gold.Chemscore.Metal>
0.0000

> <Gold.Chemscore.Lipo>
123.3759

> <Gold.Chemscore.Internal_Hbond>
0.0000

> <Gold.Chemscore.DEClash>
0.2212

> <Gold.Chemscore.DEInternal>
1.4198

> <Gold.Chemscore.Rot>
1.4648

> <Gold.Chemscore.Internal.Correction>
   9.000000E+99

> <Gold.Chemscore.Hbonds>
donor molecule, donor type, donor heavy atom, donor atom, acceptor molecule, acceptor atom, score
      L1  H    11    26       P1  8028  0.95
      P1  H  7989  7998       L1    10  0.29

> <Gold.Chemscore.Hbond.Weighted>
-5.3045

> <Gold.Chemscore.Metal.Weighted>
-0.0000

> <Gold.Chemscore.Lipo.Weighted>
-14.4350

> <Gold.Chemscore.Internal_Hbond.Weighted>
0.0000

> <Gold.Chemscore.DEClash.Weighted>
0.2212

> <Gold.Chemscore.DEInternal.Weighted>
1.4198

> <Gold.Chemscore.Rot.Weighted>
3.7500

> <Gold.Chemscore.Internal.Correction.Weighted>
   9.000000E+99

> <Gold.Protein.RotatedTorsions>
[ 6907 6896 6895 6894 ] final -102.72 input  -60.11 | X-H torsion
[ 7974 7965 7964 7962 ] final  158.96 input  175.53 | X-H torsion
[ 8008 7997 7996 7995 ] final -100.10 input   59.86 | X-H torsion
[ 10167 10162 10161 10158 ] final  134.57 input  -65.29 | X-H torsion
[ 10718 10713 10712 10709 ] final  131.05 input   66.30 | X-H torsion
[ 10763 10752 10751 10750 ] final -122.94 input  -60.55 | X-H torsion
[ 11005 11000 10999 10996 ] final   86.37 input  -57.11 | X-H torsion

> <Gold.Protein.ActiveResidues>
 VAL166  LYS551  ARG553  GLY616  TRP617  ASP618  TYR619  PRO620  LYS621  CYS622 
 ASP623  PHE694  ASN695  SER759  ASP760  ASP761  ALA762  ILE779  LEU786  VAL792 
 PHE793  MET794  SER795  GLU796  ALA797  LYS798  CYS799  TRP800  GLU811  SER814 

> <Gold.Protein.RotatedAtoms>
  150.7208  134.0538  159.3807 H   0  0  0  0  0  0  0  0  0  0  0  0  # atno 6907 bound_to 6896
  151.8516  135.0553  160.0469 H   0  0  0  0  0  0  0  0  0  0  0  0  # atno 6908 bound_to 6896
  152.2786  133.5413  159.5520 H   0  0  0  0  0  0  0  0  0  0  0  0  # atno 6909 bound_to 6896
  144.7816  139.7551  143.6257 H   0  0  0  0  0  0  0  0  0  0  0  0  # atno 7974 bound_to 7965
  154.8240  140.0443  157.1431 H   0  0  0  0  0  0  0  0  0  0  0  0  # atno 8008 bound_to 7997
  154.9227  140.3029  155.5188 H   0  0  0  0  0  0  0  0  0  0  0  0  # atno 8009 bound_to 7997
  156.2982  140.2337  156.4279 H   0  0  0  0  0  0  0  0  0  0  0  0  # atno 8010 bound_to 7997
  139.5251  144.6560  151.5159 H   0  0  0  0  0  0  0  0  0  0  0  0  # atno 10167 bound_to 10162
  157.5004  131.1094  150.9435 H   0  0  0  0  0  0  0  0  0  0  0  0  # atno 10718 bound_to 10713
  154.8699  135.4115  154.2863 H   0  0  0  0  0  0  0  0  0  0  0  0  # atno 10763 bound_to 10752
  153.3746  135.7009  153.6617 H   0  0  0  0  0  0  0  0  0  0  0  0  # atno 10764 bound_to 10752
  153.5464  135.3637  155.2712 H   0  0  0  0  0  0  0  0  0  0  0  0  # atno 10765 bound_to 10752
  139.8946  134.8350  156.2711 H   0  0  0  0  0  0  0  0  0  0  0  0  # atno 11005 bound_to 11000
  146.2028  139.5333  142.9732 LP  0  0  0  0  0  0  0  0  0  0  0  0  # atno 17320 bound_to 7965
  145.6034  141.0351  143.2006 LP  0  0  0  0  0  0  0  0  0  0  0  0  # atno 17321 bound_to 7965
  140.6386  143.8933  150.6671 LP  0  0  0  0  0  0  0  0  0  0  0  0  # atno 17342 bound_to 10162
  140.2261  143.3771  152.1604 LP  0  0  0  0  0  0  0  0  0  0  0  0  # atno 17343 bound_to 10162
  157.0107  130.5636  149.5320 LP  0  0  0  0  0  0  0  0  0  0  0  0  # atno 17370 bound_to 10713
  156.0226  130.5320  150.8317 LP  0  0  0  0  0  0  0  0  0  0  0  0  # atno 17371 bound_to 10713
  141.0100  133.7101  156.1097 LP  0  0  0  0  0  0  0  0  0  0  0  0  # atno 17394 bound_to 11000
  140.7380  134.4181  157.5558 LP  0  0  0  0  0  0  0  0  0  0  0  0  # atno 17395 bound_to 11000

$$$$
