AV-unprocessed.smi:2592|AV-procd|sdf|10159|dock9
  -GOLD-   2272014173D 1   1.00000     0.00000
 Structure written by MMmdl.
 43 44  0  0  0  0  0  0  0  0  2 V2000
  152.7783  144.5095  158.5303 C   0  0  0  0  0  0  0  0  0  0  0  0
  151.9472  143.2858  158.2947 C   0  0  0  0  0  0  0  0  0  0  0  0
  150.8768  143.3426  157.3974 N   0  0  0  0  0  0  0  0  0  0  0  0
  150.2340  142.1746  157.3007 C   0  0  0  0  0  0  0  0  0  0  0  0
  149.1076  141.9469  156.4671 N   0  0  0  0  0  0  0  0  0  0  0  0
  149.0877  141.4522  155.2170 C   0  0  0  0  0  0  0  0  0  0  0  0
  150.0769  141.0980  154.5746 O   0  0  0  0  0  0  0  0  0  0  0  0
  147.8365  141.3837  154.7389 N   0  0  0  0  0  0  0  0  0  0  0  0
  147.4772  140.9049  153.4085 C   0  0  0  0  0  0  0  0  0  0  0  0
  147.2852  139.3790  153.3828 C   0  0  0  0  0  0  0  0  0  0  0  0
  146.7923  138.8777  152.0148 C   0  0  0  0  0  0  0  0  0  0  0  0
  146.6001  137.4060  151.9824 N   0  3  0  0  0  0  0  0  0  0  0  0
  145.8783  136.9056  153.1771 C   0  0  0  0  0  0  0  0  0  0  0  0
  145.7420  135.3743  153.1260 C   0  0  0  0  0  0  0  0  0  0  0  0
  145.0812  134.9936  151.9259 O   0  0  0  0  0  0  0  0  0  0  0  0
  145.8107  135.3876  150.7707 C   0  0  0  0  0  0  0  0  0  0  0  0
  145.9453  136.9193  150.7424 C   0  0  0  0  0  0  0  0  0  0  0  0
  150.9110  140.9128  158.3153 S   0  0  0  0  0  0  0  0  0  0  0  0
  152.1118  142.0497  158.8763 C   0  0  0  0  0  0  0  0  0  0  0  0
  153.1472  141.6402  159.8705 C   0  0  0  0  0  0  0  0  0  0  0  0
  153.7589  144.4125  158.0643 H   0  0  0  0  0  0  0  0  0  0  0  0
  152.9335  144.6816  159.5956 H   0  0  0  0  0  0  0  0  0  0  0  0
  152.3057  145.4028  158.1208 H   0  0  0  0  0  0  0  0  0  0  0  0
  148.2151  142.1929  156.8691 H   0  0  0  0  0  0  0  0  0  0  0  0
  147.0812  141.6981  155.3308 H   0  0  0  0  0  0  0  0  0  0  0  0
  146.5543  141.4019  153.1088 H   0  0  0  0  0  0  0  0  0  0  0  0
  148.2398  141.2066  152.6884 H   0  0  0  0  0  0  0  0  0  0  0  0
  148.2289  138.8977  153.6380 H   0  0  0  0  0  0  0  0  0  0  0  0
  146.5715  139.0907  154.1556 H   0  0  0  0  0  0  0  0  0  0  0  0
  145.8393  139.3639  151.8004 H   0  0  0  0  0  0  0  0  0  0  0  0
  147.4780  139.1800  151.2216 H   0  0  0  0  0  0  0  0  0  0  0  0
  146.4145  137.1936  154.0822 H   0  0  0  0  0  0  0  0  0  0  0  0
  144.8906  137.3669  153.2281 H   0  0  0  0  0  0  0  0  0  0  0  0
  146.7192  134.8925  153.1864 H   0  0  0  0  0  0  0  0  0  0  0  0
  145.1596  135.0207  153.9768 H   0  0  0  0  0  0  0  0  0  0  0  0
  146.7919  134.9096  150.7638 H   0  0  0  0  0  0  0  0  0  0  0  0
  145.2815  135.0405  149.8832 H   0  0  0  0  0  0  0  0  0  0  0  0
  144.9593  137.3765  150.6444 H   0  0  0  0  0  0  0  0  0  0  0  0
  146.5208  137.2099  149.8644 H   0  0  0  0  0  0  0  0  0  0  0  0
  152.9062  142.0298  160.8595 H   0  0  0  0  0  0  0  0  0  0  0  0
  154.1296  142.0188  159.5876 H   0  0  0  0  0  0  0  0  0  0  0  0
  153.2170  140.5547  159.9428 H   0  0  0  0  0  0  0  0  0  0  0  0
  147.5210  136.9923  152.0144 H   0  0  0  0  0  0  0  0  0  0  0  0
  1  2  1  0  0  0  0
  1 21  1  0  0  0  0
  1 22  1  0  0  0  0
  1 23  1  0  0  0  0
  2 19  2  0  0  0  0
  2  3  1  0  0  0  0
  3  4  2  0  0  0  0
  4  5  1  0  0  0  0
  4 18  1  0  0  0  0
  5  6  1  0  0  0  0
  5 24  1  0  0  0  0
  6  7  2  0  0  0  0
  6  8  1  0  0  0  0
  8  9  1  0  0  0  0
  8 25  1  0  0  0  0
  9 10  1  0  0  0  0
  9 26  1  0  0  0  0
  9 27  1  0  0  0  0
 10 11  1  0  0  0  0
 10 28  1  0  0  0  0
 10 29  1  0  0  0  0
 11 12  1  0  0  0  0
 11 30  1  0  0  0  0
 11 31  1  0  0  0  0
 12 17  1  0  0  0  0
 12 13  1  0  0  0  0
 12 43  1  0  0  0  0
 13 14  1  0  0  0  0
 13 32  1  0  0  0  0
 13 33  1  0  0  0  0
 14 15  1  0  0  0  0
 14 34  1  0  0  0  0
 14 35  1  0  0  0  0
 15 16  1  0  0  0  0
 16 17  1  0  0  0  0
 16 36  1  0  0  0  0
 16 37  1  0  0  0  0
 17 38  1  0  0  0  0
 17 39  1  0  0  0  0
 18 19  1  0  0  0  0
 19 20  1  0  0  0  0
 20 40  1  0  0  0  0
 20 41  1  0  0  0  0
 20 42  1  0  0  0  0
M  CHG  1  12   1
M  END
> <s_m_source_file>
AV-unprocessed.smi

> <i_m_source_file_index>
2592

> <i_lp_mmshare_version>
43012

> <i_f3d_flags>
0

> <s_epik_input>
W0NIM11jMW5jKHNjMVtDSDNdKVtOSF1DKD1PKVtOSF1bQ0gyXVtDSDJdW0NIMl1OMltDSDJdW0NIMl1PW0NIMl1bQ0gyXTI=

> <s_epik_cmdline>
J2VwaWtfcHl0aG9uJywgJy1waCcsICc3LjAnLCAnLXRuJywgJzgnLCAnLW1hJywgJzIwMCcsICctbWV0YWxfYmluZGluZycsICctaW1hZScsICc8aW5maWxlLm1hZT4nLCAnLW9tYWUnLCAnPG91dGZpbGUubWFlPic=

> <r_lp_tautomer_probability>
0.999

> <r_epik_Ionization_Penalty>
0.281876

> <r_epik_Ionization_Penalty_Charging>
0.281705

> <r_epik_Ionization_Penalty_Neutral>
0.000171168

> <r_epik_State_Penalty>
0.274317

> <r_epik_Charging_Adjusted_Penalty>
0.556022

> <i_epik_Tot_Q>
1

> <i_epik_Tot_abs_Q>
1

> <r_epik_Metal_State_Penalty>
0.293174

> <b_epik_Metal_Only>
0

> <s_lp_Force_Field>
OPLS_2005

> <r_lp_Energy>
13.2764

> <b_lp_Chiralities_Consistent>
1

> <s_lp_Variant>
AV-unprocessed.smi:2592-1

> <Gold.Version>
5.8.1

> <Gold.Id.Protein>
6NUR|6NUR_protein|mol2

> <Gold.PLP.Fitness>
42.6137

> <Gold.PLP.PLP>
-36.6680

> <Gold.PLP.part.hbond>
-3.0000

> <Gold.PLP.part.metal>
0.0000

> <Gold.PLP.part.buried>
-0.6677

> <Gold.PLP.part.nonpolar>
-33.9140

> <Gold.PLP.part.repulsive>
0.9857

> <Gold.PLP.ligand.clash>
0.0000

> <Gold.PLP.ligand.torsion>
1.0026

> <Gold.PLP.Chemscore.Hbond>
2.6400

> <Gold.PLP.Chemscore.CHOScore>
0.0000

> <Gold.PLP.Chemscore.Metal>
0.0000

> <Gold.Chemscore.Hbonds>
donor molecule, donor type, donor heavy atom, donor atom, acceptor molecule, acceptor atom, score
      L1  H    12    43       P1  7948  2.00
      P1  H  7989  7998       L1     7  0.58

> <Gold.PLP.Chemscore.Internal.Correction>
0.0309

> <Gold.Rescore>
     Score         DG    S(hbond)    S(metal)    S(lipo)     H(rot)  DE(clash)    DE(int)     intcor
     15.78     -17.81       1.76        0.00      93.63       1.76       1.10       0.93       ----

> <Gold.Chemscore.Fitness>
15.7840

> <Gold.Chemscore.DG>
-17.8111

> <Gold.Chemscore.ZeroCoef>
-5.4800

> <Gold.Chemscore.Hbond>
1.7605

> <Gold.Chemscore.Metal>
0.0000

> <Gold.Chemscore.Lipo>
93.6309

> <Gold.Chemscore.Internal_Hbond>
0.0000

> <Gold.Chemscore.DEClash>
1.0957

> <Gold.Chemscore.DEInternal>
0.9314

> <Gold.Chemscore.Rot>
1.7593

> <Gold.Chemscore.Internal.Correction>
   9.000000E+99

> <Gold.Chemscore.Hbonds>
donor molecule, donor type, donor heavy atom, donor atom, acceptor molecule, acceptor atom, score
      L1  H    12    43       P1  7948  0.99
      P1  H  7989  7998       L1     7  0.58

> <Gold.Chemscore.Hbond.Weighted>
-5.8802

> <Gold.Chemscore.Metal.Weighted>
-0.0000

> <Gold.Chemscore.Lipo.Weighted>
-10.9548

> <Gold.Chemscore.Internal_Hbond.Weighted>
0.0000

> <Gold.Chemscore.DEClash.Weighted>
1.0957

> <Gold.Chemscore.DEInternal.Weighted>
0.9314

> <Gold.Chemscore.Rot.Weighted>
4.5039

> <Gold.Chemscore.Internal.Correction.Weighted>
   9.000000E+99

> <Gold.Protein.RotatedTorsions>
[ 6907 6896 6895 6894 ] final  -19.90 input  -60.11 | X-H torsion
[ 7974 7965 7964 7962 ] final  -24.49 input  175.53 | X-H torsion
[ 8008 7997 7996 7995 ] final   66.89 input   59.86 | X-H torsion
[ 10167 10162 10161 10158 ] final  -35.76 input  -65.29 | X-H torsion
[ 10718 10713 10712 10709 ] final  150.59 input   66.30 | X-H torsion
[ 10763 10752 10751 10750 ] final   71.22 input  -60.55 | X-H torsion
[ 11005 11000 10999 10996 ] final  -42.62 input  -57.11 | X-H torsion

> <Gold.Protein.ActiveResidues>
 VAL166  LYS551  ARG553  GLY616  TRP617  ASP618  TYR619  PRO620  LYS621  CYS622 
 ASP623  PHE694  ASN695  SER759  ASP760  ASP761  ALA762  ILE779  LEU786  VAL792 
 PHE793  MET794  SER795  GLU796  ALA797  LYS798  CYS799  TRP800  GLU811  SER814 

> <Gold.Protein.RotatedAtoms>
  151.2562  135.0639  159.9080 H   0  0  0  0  0  0  0  0  0  0  0  0  # atno 6907 bound_to 6896
  152.5373  134.0279  159.8022 H   0  0  0  0  0  0  0  0  0  0  0  0  # atno 6908 bound_to 6896
  151.0495  133.5587  159.2675 H   0  0  0  0  0  0  0  0  0  0  0  0  # atno 6909 bound_to 6896
  146.1551  140.4759  142.8595 H   0  0  0  0  0  0  0  0  0  0  0  0  # atno 7974 bound_to 7965
  155.6844  140.3496  155.4868 H   0  0  0  0  0  0  0  0  0  0  0  0  # atno 8008 bound_to 7997
  155.9579  140.1131  157.0944 H   0  0  0  0  0  0  0  0  0  0  0  0  # atno 8009 bound_to 7997
  154.4136  140.1181  156.5125 H   0  0  0  0  0  0  0  0  0  0  0  0  # atno 8010 bound_to 7997
  140.7158  143.3455  151.2265 H   0  0  0  0  0  0  0  0  0  0  0  0  # atno 10167 bound_to 10162
  157.2815  131.0836  151.1528 H   0  0  0  0  0  0  0  0  0  0  0  0  # atno 10718 bound_to 10713
  153.0386  135.5145  154.7560 H   0  0  0  0  0  0  0  0  0  0  0  0  # atno 10763 bound_to 10752
  154.6516  135.2926  154.9982 H   0  0  0  0  0  0  0  0  0  0  0  0  # atno 10764 bound_to 10752
  154.0864  135.6656  153.4898 H   0  0  0  0  0  0  0  0  0  0  0  0  # atno 10765 bound_to 10752
  141.0328  133.6813  156.2619 H   0  0  0  0  0  0  0  0  0  0  0  0  # atno 11005 bound_to 11000
  144.7953  140.6111  143.6514 LP  0  0  0  0  0  0  0  0  0  0  0  0  # atno 17320 bound_to 7965
  145.4728  139.1502  143.3805 LP  0  0  0  0  0  0  0  0  0  0  0  0  # atno 17321 bound_to 7965
  139.6973  143.9591  152.2889 LP  0  0  0  0  0  0  0  0  0  0  0  0  # atno 17342 bound_to 10162
  139.9272  144.6763  150.8400 LP  0  0  0  0  0  0  0  0  0  0  0  0  # atno 17343 bound_to 10162
  157.2960  130.6819  149.6139 LP  0  0  0  0  0  0  0  0  0  0  0  0  # atno 17370 bound_to 10713
  155.9664  130.4406  150.5307 LP  0  0  0  0  0  0  0  0  0  0  0  0  # atno 17371 bound_to 10713
  140.6376  134.5199  157.5566 LP  0  0  0  0  0  0  0  0  0  0  0  0  # atno 17394 bound_to 11000
  139.9219  134.8131  156.1184 LP  0  0  0  0  0  0  0  0  0  0  0  0  # atno 17395 bound_to 11000

$$$$
