AV-unprocessed.smi:1929|AV-procd|sdf|7805|dock1
  -GOLD-   22720 9543D 1   1.00000     0.00000
 Structure written by MMmdl.
 42 43  0  0  0  0  0  0  0  0  3 V2000
  153.3480  124.2897  149.7572 C   0  0  0  0  0  0  0  0  0  0  0  0
  152.4129  124.5016  150.8554 N   0  5  0  0  0  0  0  0  0  0  0  0
  151.3589  123.6817  151.1128 C   0  0  0  0  0  0  0  0  0  0  0  0
  150.9623  122.6694  150.5258 O   0  0  0  0  0  0  0  0  0  0  0  0
  150.5639  124.1697  152.3293 C   0  0  0  0  0  0  0  0  0  0  0  0
  150.0162  125.5251  152.0724 N   0  3  2  0  0  0  0  0  0  0  0  0
  149.3247  126.1142  153.2513 C   0  0  0  0  0  0  0  0  0  0  0  0
  148.8948  127.5645  152.9761 C   0  0  0  0  0  0  0  0  0  0  0  0
  148.0040  127.6540  151.7271 C   0  0  1  0  0  0  0  0  0  0  0  0
  147.6887  129.0507  151.4415 N   0  0  0  0  0  0  0  0  0  0  0  0
  146.4754  129.6084  151.5642 C   0  0  0  0  0  0  0  0  0  0  0  0
  145.4783  128.9862  151.9301 O   0  0  0  0  0  0  0  0  0  0  0  0
  146.4991  130.9065  151.2152 N   0  0  0  0  0  0  0  0  0  0  0  0
  145.4366  131.8505  151.2373 C   0  0  0  0  0  0  0  0  0  0  0  0
  145.7193  133.1476  151.7131 C   0  0  0  0  0  0  0  0  0  0  0  0
  144.6771  134.0948  151.7632 C   0  0  0  0  0  0  0  0  0  0  0  0
  143.4097  133.8240  151.3872 N   0  0  0  0  0  0  0  0  0  0  0  0
  143.1374  132.5778  150.9457 C   0  0  0  0  0  0  0  0  0  0  0  0
  144.1053  131.5575  150.8545 C   0  0  0  0  0  0  0  0  0  0  0  0
  148.7241  127.0021  150.5331 C   0  0  0  0  0  0  0  0  0  0  0  0
  149.1570  125.5641  150.8621 C   0  0  0  0  0  0  0  0  0  0  0  0
  154.1415  125.0364  149.7517 H   0  0  0  0  0  0  0  0  0  0  0  0
  152.8628  124.3478  148.7825 H   0  0  0  0  0  0  0  0  0  0  0  0
  153.8386  123.3173  149.8085 H   0  0  0  0  0  0  0  0  0  0  0  0
  149.7482  123.4607  152.4776 H   0  0  0  0  0  0  0  0  0  0  0  0
  151.1497  124.1598  153.2515 H   0  0  0  0  0  0  0  0  0  0  0  0
  148.4553  125.5060  153.5056 H   0  0  0  0  0  0  0  0  0  0  0  0
  149.9809  126.1024  154.1217 H   0  0  0  0  0  0  0  0  0  0  0  0
  148.3648  127.9610  153.8429 H   0  0  0  0  0  0  0  0  0  0  0  0
  149.7830  128.1848  152.8458 H   0  0  0  0  0  0  0  0  0  0  0  0
  147.0792  127.1089  151.9273 H   0  0  0  0  0  0  0  0  0  0  0  0
  148.4505  129.6346  151.1283 H   0  0  0  0  0  0  0  0  0  0  0  0
  147.3730  131.2517  150.8467 H   0  0  0  0  0  0  0  0  0  0  0  0
  146.7158  133.4187  152.0305 H   0  0  0  0  0  0  0  0  0  0  0  0
  144.8668  135.0971  152.1184 H   0  0  0  0  0  0  0  0  0  0  0  0
  142.1135  132.3843  150.6625 H   0  0  0  0  0  0  0  0  0  0  0  0
  143.8060  130.5797  150.5100 H   0  0  0  0  0  0  0  0  0  0  0  0
  148.0739  126.9965  149.6573 H   0  0  0  0  0  0  0  0  0  0  0  0
  149.6022  127.5904  150.2624 H   0  0  0  0  0  0  0  0  0  0  0  0
  149.6997  125.1520  150.0105 H   0  0  0  0  0  0  0  0  0  0  0  0
  148.2810  124.9322  151.0167 H   0  0  0  0  0  0  0  0  0  0  0  0
  150.8151  126.1110  151.8757 H   0  0  0  0  0  0  0  0  0  0  0  0
  1  2  1  0  0  0  0
  1 22  1  0  0  0  0
  1 23  1  0  0  0  0
  1 24  1  0  0  0  0
  2  3  1  0  0  0  0
  3  4  2  0  0  0  0
  3  5  1  0  0  0  0
  5  6  1  0  0  0  0
  5 25  1  0  0  0  0
  5 26  1  0  0  0  0
  6 21  1  0  0  0  0
  6  7  1  0  0  0  0
  6 42  1  0  0  0  0
  7  8  1  0  0  0  0
  7 27  1  0  0  0  0
  7 28  1  0  0  0  0
  8  9  1  0  0  0  0
  8 29  1  0  0  0  0
  8 30  1  0  0  0  0
  9 10  1  0  0  0  0
  9 20  1  0  0  0  0
  9 31  1  0  0  0  0
 10 11  1  0  0  0  0
 10 32  1  0  0  0  0
 11 12  2  0  0  0  0
 11 13  1  0  0  0  0
 13 14  1  0  0  0  0
 13 33  1  0  0  0  0
 14 19  1  0  0  0  0
 14 15  2  0  0  0  0
 15 16  1  0  0  0  0
 15 34  1  0  0  0  0
 16 17  2  0  0  0  0
 16 35  1  0  0  0  0
 17 18  1  0  0  0  0
 18 19  2  0  0  0  0
 18 36  1  0  0  0  0
 19 37  1  0  0  0  0
 20 21  1  0  0  0  0
 20 38  1  0  0  0  0
 20 39  1  0  0  0  0
 21 40  1  0  0  0  0
 21 41  1  0  0  0  0
M  CHG  1   2  -1
M  CHG  1   6   1
M  END
> <s_m_source_file>
AV-unprocessed.smi

> <i_m_source_file_index>
1929

> <i_lp_mmshare_version>
43012

> <i_f3d_flags>
0

> <s_epik_input>
W0NIM11bTkhdQyg9TylbQ0gyXU4xW0NIMl1bQ0gyXVtDSF0oW0NIMl1bQ0gyXTEpW05IXUMoPU8pW05IXWMyW2NIXVtjSF1uW2NIXVtjSF0y

> <s_epik_cmdline>
J2VwaWtfcHl0aG9uJywgJy1waCcsICc3LjAnLCAnLXRuJywgJzgnLCAnLW1hJywgJzIwMCcsICctbWV0YWxfYmluZGluZycsICctaW1hZScsICc8aW5maWxlLm1hZT4nLCAnLW9tYWUnLCAnPG91dGZpbGUubWFlPic=

> <r_epik_Ionization_Penalty>
6.23856

> <r_epik_Ionization_Penalty_Charging>
6.13946

> <r_epik_Ionization_Penalty_Neutral>
0.0990993

> <r_epik_State_Penalty>
7.04382

> <r_epik_Charging_Adjusted_Penalty>
13.1833

> <i_epik_Tot_Q>
0

> <i_epik_Tot_abs_Q>
2

> <r_epik_Metal_State_Penalty>
3.07449

> <b_epik_Metal_Only>
1

> <s_lp_Force_Field>
OPLS_2005

> <r_lp_Energy>
14.2578

> <b_lp_Chiralities_Consistent>
1

> <s_lp_Variant>
AV-unprocessed.smi:1929-7

> <Gold.Version>
5.8.1

> <Gold.Id.Protein>
6NUR|6NUR_protein|mol2

> <Gold.PLP.Fitness>
45.6188

> <Gold.PLP.PLP>
-32.9727

> <Gold.PLP.part.hbond>
-2.7679

> <Gold.PLP.part.metal>
0.0000

> <Gold.PLP.part.buried>
-4.1715

> <Gold.PLP.part.nonpolar>
-27.4006

> <Gold.PLP.part.repulsive>
1.1213

> <Gold.PLP.ligand.clash>
0.0000

> <Gold.PLP.ligand.torsion>
0.3975

> <Gold.PLP.Chemscore.Hbond>
2.9280

> <Gold.PLP.Chemscore.CHOScore>
1.5058

> <Gold.PLP.Chemscore.Metal>
0.0000

> <Gold.Chemscore.Hbonds>
donor molecule, donor type, donor heavy atom, donor atom, acceptor molecule, acceptor atom, score
      L1  H     6    42       P1 10737  1.00
      L1  H    10    32       P1 10747  0.99
      L1  H    13    33       P1 10747  0.93
      L1  C    18    36       P1 10186  0.62
      L1  C    18    36       P1 10952  0.75

> <Gold.PLP.Chemscore.Internal.Correction>
0.1398

> <Gold.Rescore>
     Score         DG    S(hbond)    S(metal)    S(lipo)     H(rot)  DE(clash)    DE(int)     intcor
     17.02     -18.27       2.50        0.00      73.51       1.63       0.19       1.06       ----

> <Gold.Chemscore.Fitness>
17.0204

> <Gold.Chemscore.DG>
-18.2657

> <Gold.Chemscore.ZeroCoef>
-5.4800

> <Gold.Chemscore.Hbond>
2.5042

> <Gold.Chemscore.Metal>
0.0000

> <Gold.Chemscore.Lipo>
73.5065

> <Gold.Chemscore.Internal_Hbond>
0.0000

> <Gold.Chemscore.DEClash>
0.1861

> <Gold.Chemscore.DEInternal>
1.0592

> <Gold.Chemscore.Rot>
1.6323

> <Gold.Chemscore.Internal.Correction>
   9.000000E+99

> <Gold.Chemscore.Hbonds>
donor molecule, donor type, donor heavy atom, donor atom, acceptor molecule, acceptor atom, score
      L1  H     6    42       P1 10737  0.96
      L1  H    10    32       P1 10747  0.23
      L1  H    13    33       P1 10747  0.90

> <Gold.Chemscore.Hbond.Weighted>
-8.3641

> <Gold.Chemscore.Metal.Weighted>
-0.0000

> <Gold.Chemscore.Lipo.Weighted>
-8.6003

> <Gold.Chemscore.Internal_Hbond.Weighted>
0.0000

> <Gold.Chemscore.DEClash.Weighted>
0.1861

> <Gold.Chemscore.DEInternal.Weighted>
1.0592

> <Gold.Chemscore.Rot.Weighted>
4.1786

> <Gold.Chemscore.Internal.Correction.Weighted>
   9.000000E+99

> <Gold.Protein.RotatedTorsions>
[ 6907 6896 6895 6894 ] final  140.44 input  -60.11 | X-H torsion
[ 7974 7965 7964 7962 ] final  158.94 input  175.53 | X-H torsion
[ 8008 7997 7996 7995 ] final -129.58 input   59.86 | X-H torsion
[ 10167 10162 10161 10158 ] final -115.59 input  -65.29 | X-H torsion
[ 10718 10713 10712 10709 ] final   46.31 input   66.30 | X-H torsion
[ 10763 10752 10751 10750 ] final   20.91 input  -60.55 | X-H torsion
[ 11005 11000 10999 10996 ] final  148.30 input  -57.11 | X-H torsion

> <Gold.Protein.ActiveResidues>
 VAL166  LYS551  ARG553  GLY616  TRP617  ASP618  TYR619  PRO620  LYS621  CYS622 
 ASP623  PHE694  ASN695  SER759  ASP760  ASP761  ALA762  ILE779  LEU786  VAL792 
 PHE793  MET794  SER795  GLU796  ALA797  LYS798  CYS799  TRP800  GLU811  SER814 

> <Gold.Protein.RotatedAtoms>
  152.2430  133.5151  159.5280 H   0  0  0  0  0  0  0  0  0  0  0  0  # atno 6907 bound_to 6896
  150.7070  134.1064  159.3993 H   0  0  0  0  0  0  0  0  0  0  0  0  # atno 6908 bound_to 6896
  151.8984  135.0388  160.0555 H   0  0  0  0  0  0  0  0  0  0  0  0  # atno 6909 bound_to 6896
  144.7818  139.7547  143.6257 H   0  0  0  0  0  0  0  0  0  0  0  0  # atno 7974 bound_to 7965
  155.2816  140.0444  157.3016 H   0  0  0  0  0  0  0  0  0  0  0  0  # atno 8008 bound_to 7997
  154.5593  140.2341  155.8328 H   0  0  0  0  0  0  0  0  0  0  0  0  # atno 8009 bound_to 7997
  156.2034  140.3019  155.9582 H   0  0  0  0  0  0  0  0  0  0  0  0  # atno 8010 bound_to 7997
  140.0884  143.4723  152.1885 H   0  0  0  0  0  0  0  0  0  0  0  0  # atno 10167 bound_to 10162
  157.4467  130.8114  149.7748 H   0  0  0  0  0  0  0  0  0  0  0  0  # atno 10718 bound_to 10713
  153.1038  135.6679  153.9623 H   0  0  0  0  0  0  0  0  0  0  0  0  # atno 10763 bound_to 10752
  153.9186  135.3017  155.3449 H   0  0  0  0  0  0  0  0  0  0  0  0  # atno 10764 bound_to 10752
  154.7459  135.5057  153.9279 H   0  0  0  0  0  0  0  0  0  0  0  0  # atno 10765 bound_to 10752
  140.0948  134.9019  157.1707 H   0  0  0  0  0  0  0  0  0  0  0  0  # atno 11005 bound_to 11000
  146.2030  139.5336  142.9731 LP  0  0  0  0  0  0  0  0  0  0  0  0  # atno 17320 bound_to 7965
  145.6030  141.0352  143.2008 LP  0  0  0  0  0  0  0  0  0  0  0  0  # atno 17321 bound_to 7965
  139.5739  144.7477  151.3817 LP  0  0  0  0  0  0  0  0  0  0  0  0  # atno 17342 bound_to 10162
  140.7041  143.7557  150.7453 LP  0  0  0  0  0  0  0  0  0  0  0  0  # atno 17343 bound_to 10162
  155.9970  130.3902  150.2756 LP  0  0  0  0  0  0  0  0  0  0  0  0  # atno 17370 bound_to 10713
  157.0925  131.0173  151.3116 LP  0  0  0  0  0  0  0  0  0  0  0  0  # atno 17371 bound_to 10713
  140.3301  134.2819  155.7229 LP  0  0  0  0  0  0  0  0  0  0  0  0  # atno 17394 bound_to 11000
  141.2089  133.7765  157.0032 LP  0  0  0  0  0  0  0  0  0  0  0  0  # atno 17395 bound_to 11000

$$$$
