AV-unprocessed.smi:22|AV-procd|sdf|169|dock9
  -GOLD-   2262015423D 1   1.00000     0.00000
 Structure written by MMmdl.
 56 59  0  0  0  0  0  0  0  0  2 V2000
  142.9925  132.4169  151.2620 C   0  0  0  0  0  0  0  0  0  0  0  0
  143.6444  133.5877  150.6259 N   0  3  2  0  0  0  0  0  0  0  0  0
  144.5070  133.2107  149.4727 C   0  0  0  0  0  0  0  0  0  0  0  0
  143.6913  132.6505  148.2957 C   0  0  0  0  0  0  0  0  0  0  0  0
  143.5748  133.6272  147.2829 O   0  0  0  0  0  0  0  0  0  0  0  0
  144.2796  134.4979  151.6231 C   0  0  0  0  0  0  0  0  0  0  0  0
  143.3042  134.8833  152.7548 C   0  0  0  0  0  0  0  0  0  0  0  0
  143.9988  135.7757  153.7962 C   0  0  0  0  0  0  0  0  0  0  0  0
  144.6071  136.9430  153.1582 N   0  0  0  0  0  0  0  0  0  0  0  0
  144.9069  137.9622  154.0032 C   0  0  0  0  0  0  0  0  0  0  0  0
  144.0595  138.2719  155.0211 N   0  0  0  0  0  0  0  0  0  0  0  0
  144.3429  139.2784  155.8531 C   0  0  0  0  0  0  0  0  0  0  0  0
  145.4017  140.0904  155.8500 N   0  0  0  0  0  0  0  0  0  0  0  0
  146.2590  139.7821  154.8354 C   0  0  0  0  0  0  0  0  0  0  0  0
  146.0908  138.7429  153.8769 C   0  0  0  0  0  0  0  0  0  0  0  0
  147.1756  138.7212  153.0083 N   0  0  0  0  0  0  0  0  0  0  0  0
  147.9355  139.6981  153.4227 C   0  0  0  0  0  0  0  0  0  0  0  0
  147.4582  140.3923  154.5114 N   0  0  0  0  0  0  0  0  0  0  0  0
  148.0988  141.5178  155.1743 C   0  0  0  0  0  0  0  0  0  0  0  0
  149.3221  141.1114  156.0280 C   0  0  1  0  0  0  0  0  0  0  0  0
  149.9428  142.2830  156.5296 O   0  0  0  0  0  0  0  0  0  0  0  0
  148.9884  140.1981  157.2043 C   0  0  0  0  0  0  0  0  0  0  0  0
  150.2443  139.3490  157.3405 C   0  0  0  0  0  0  0  0  0  0  0  0
  150.6023  139.1098  155.9900 O   0  0  0  0  0  0  0  0  0  0  0  0
  150.3737  140.3009  155.2435 C   0  0  0  0  0  0  0  0  0  0  0  0
  145.5591  136.6407  152.0878 C   0  0  0  0  0  0  0  0  0  0  0  0
  144.9049  135.7690  151.0030 C   0  0  0  0  0  0  0  0  0  0  0  0
  143.7284  131.7537  151.7174 H   0  0  0  0  0  0  0  0  0  0  0  0
  142.4218  131.8379  150.5370 H   0  0  0  0  0  0  0  0  0  0  0  0
  142.2944  132.7339  152.0373 H   0  0  0  0  0  0  0  0  0  0  0  0
  145.0742  134.0669  149.1096 H   0  0  0  0  0  0  0  0  0  0  0  0
  145.2473  132.4784  149.7982 H   0  0  0  0  0  0  0  0  0  0  0  0
  144.2002  131.7830  147.8749 H   0  0  0  0  0  0  0  0  0  0  0  0
  142.7003  132.3172  148.6020 H   0  0  0  0  0  0  0  0  0  0  0  0
  142.7148  133.5598  146.8953 H   0  0  0  0  0  0  0  0  0  0  0  0
  145.0840  133.9356  152.1004 H   0  0  0  0  0  0  0  0  0  0  0  0
  142.4398  135.4176  152.3613 H   0  0  0  0  0  0  0  0  0  0  0  0
  142.9177  133.9866  153.2405 H   0  0  0  0  0  0  0  0  0  0  0  0
  143.2777  136.0656  154.5597 H   0  0  0  0  0  0  0  0  0  0  0  0
  144.7802  135.2113  154.3067 H   0  0  0  0  0  0  0  0  0  0  0  0
  143.6171  139.4599  156.6319 H   0  0  0  0  0  0  0  0  0  0  0  0
  148.8706  139.9436  152.9404 H   0  0  0  0  0  0  0  0  0  0  0  0
  148.3979  142.2376  154.4111 H   0  0  0  0  0  0  0  0  0  0  0  0
  147.3547  142.0215  155.7931 H   0  0  0  0  0  0  0  0  0  0  0  0
  149.4021  143.0259  156.3081 H   0  0  0  0  0  0  0  0  0  0  0  0
  148.7254  140.7319  158.1186 H   0  0  0  0  0  0  0  0  0  0  0  0
  148.1534  139.5443  156.9497 H   0  0  0  0  0  0  0  0  0  0  0  0
  151.0409  139.9010  157.8419 H   0  0  0  0  0  0  0  0  0  0  0  0
  150.0705  138.4196  157.8832 H   0  0  0  0  0  0  0  0  0  0  0  0
  150.0301  140.0324  154.2441 H   0  0  0  0  0  0  0  0  0  0  0  0
  151.3119  140.8460  155.1286 H   0  0  0  0  0  0  0  0  0  0  0  0
  145.9233  137.5648  151.6368 H   0  0  0  0  0  0  0  0  0  0  0  0
  146.4232  136.1255  152.5101 H   0  0  0  0  0  0  0  0  0  0  0  0
  145.6508  135.5057  150.2531 H   0  0  0  0  0  0  0  0  0  0  0  0
  144.1470  136.3632  150.4922 H   0  0  0  0  0  0  0  0  0  0  0  0
  142.8916  134.1319  150.2283 H   0  0  0  0  0  0  0  0  0  0  0  0
  1  2  1  0  0  0  0
  1 28  1  0  0  0  0
  1 29  1  0  0  0  0
  1 30  1  0  0  0  0
  2  3  1  0  0  0  0
  2  6  1  0  0  0  0
  2 56  1  0  0  0  0
  3  4  1  0  0  0  0
  3 31  1  0  0  0  0
  3 32  1  0  0  0  0
  4  5  1  0  0  0  0
  4 33  1  0  0  0  0
  4 34  1  0  0  0  0
  5 35  1  0  0  0  0
  6 27  1  0  0  0  0
  6  7  1  0  0  0  0
  6 36  1  0  0  0  0
  7  8  1  0  0  0  0
  7 37  1  0  0  0  0
  7 38  1  0  0  0  0
  8  9  1  0  0  0  0
  8 39  1  0  0  0  0
  8 40  1  0  0  0  0
  9 10  1  0  0  0  0
  9 26  1  0  0  0  0
 10 15  1  0  0  0  0
 10 11  2  0  0  0  0
 11 12  1  0  0  0  0
 12 13  2  0  0  0  0
 12 41  1  0  0  0  0
 13 14  1  0  0  0  0
 14 18  1  0  0  0  0
 14 15  2  0  0  0  0
 15 16  1  0  0  0  0
 16 17  2  0  0  0  0
 17 18  1  0  0  0  0
 17 42  1  0  0  0  0
 18 19  1  0  0  0  0
 19 20  1  0  0  0  0
 19 43  1  0  0  0  0
 19 44  1  0  0  0  0
 20 25  1  0  0  0  0
 20 21  1  0  0  0  0
 20 22  1  0  0  0  0
 21 45  1  0  0  0  0
 22 23  1  0  0  0  0
 22 46  1  0  0  0  0
 22 47  1  0  0  0  0
 23 24  1  0  0  0  0
 23 48  1  0  0  0  0
 23 49  1  0  0  0  0
 24 25  1  0  0  0  0
 25 50  1  0  0  0  0
 25 51  1  0  0  0  0
 26 27  1  0  0  0  0
 26 52  1  0  0  0  0
 26 53  1  0  0  0  0
 27 54  1  0  0  0  0
 27 55  1  0  0  0  0
M  CHG  1   2   1
M  END
> <s_m_source_file>
AV-unprocessed.smi

> <i_m_source_file_index>
22

> <i_lp_mmshare_version>
43012

> <i_f3d_flags>
0

> <s_epik_input>
W09IXVtDSDJdW0NIMl1OKFtDSDNdKVtDSF0xW0NIMl1bQ0gyXU4oW0NIMl1bQ0gyXTEpYyhuW2NIXW4yKWMoYzIzKW5bY0hdbjNbQ0gyXVtDQEBdNChbT0hdKVtDSDJdW0NIMl1PW0NIMl00

> <s_epik_cmdline>
J2VwaWtfcHl0aG9uJywgJy1waCcsICc3LjAnLCAnLXRuJywgJzgnLCAnLW1hJywgJzIwMCcsICctbWV0YWxfYmluZGluZycsICctaW1hZScsICc8aW5maWxlLm1hZT4nLCAnLW9tYWUnLCAnPG91dGZpbGUubWFlPic=

> <r_lp_tautomer_probability>
1

> <r_epik_Ionization_Penalty>
0.00317524

> <r_epik_Ionization_Penalty_Charging>
0.00191487

> <r_epik_Ionization_Penalty_Neutral>
0.00126037

> <r_epik_State_Penalty>
-0

> <r_epik_Charging_Adjusted_Penalty>
0.00191487

> <i_epik_Tot_Q>
1

> <i_epik_Tot_abs_Q>
1

> <r_epik_Metal_State_Penalty>
-0

> <b_epik_Metal_Only>
0

> <s_lp_Force_Field>
OPLS_2005

> <r_lp_Energy>
45.1339

> <b_lp_Chiralities_Consistent>
1

> <s_lp_Variant>
AV-unprocessed.smi:22-1

> <Gold.Version>
5.8.1

> <Gold.Id.Protein>
6NUR|6NUR_protein|mol2

> <Gold.PLP.Fitness>
49.7548

> <Gold.PLP.PLP>
-33.6541

> <Gold.PLP.part.hbond>
-5.6211

> <Gold.PLP.part.metal>
0.0000

> <Gold.PLP.part.buried>
-0.6356

> <Gold.PLP.part.nonpolar>
-29.0533

> <Gold.PLP.part.repulsive>
0.5628

> <Gold.PLP.ligand.clash>
0.0000

> <Gold.PLP.ligand.torsion>
0.9245

> <Gold.PLP.Chemscore.Hbond>
5.0000

> <Gold.PLP.Chemscore.CHOScore>
0.7912

> <Gold.PLP.Chemscore.Metal>
0.0000

> <Gold.Chemscore.Hbonds>
donor molecule, donor type, donor heavy atom, donor atom, acceptor molecule, acceptor atom, score
      L1  H     2    56       P1 10186  2.00
      L1  H     5    35       P1 10195  0.96
      L1  H    21    45       P1  8028  1.00
      P1  H  7918  7932       L1     5  1.00
      L1  C    17    42       P1  7957  0.75

> <Gold.PLP.Chemscore.Internal.Correction>
0.5762

> <Gold.Rescore>
     Score         DG    S(hbond)    S(metal)    S(lipo)     H(rot)  DE(clash)    DE(int)     intcor
     13.97     -17.87       3.68        0.00      83.14       3.76       1.46       2.44       ----

> <Gold.Chemscore.Fitness>
13.9684

> <Gold.Chemscore.DG>
-17.8694

> <Gold.Chemscore.ZeroCoef>
-5.4800

> <Gold.Chemscore.Hbond>
3.6777

> <Gold.Chemscore.Metal>
0.0000

> <Gold.Chemscore.Lipo>
83.1372

> <Gold.Chemscore.Internal_Hbond>
0.0000

> <Gold.Chemscore.DEClash>
1.4588

> <Gold.Chemscore.DEInternal>
2.4422

> <Gold.Chemscore.Rot>
3.7583

> <Gold.Chemscore.Internal.Correction>
   9.000000E+99

> <Gold.Chemscore.Hbonds>
donor molecule, donor type, donor heavy atom, donor atom, acceptor molecule, acceptor atom, score
      L1  H     2    56       P1 10186  0.87
      L1  H     5    35       P1 10195  0.91
      L1  H    21    45       P1  8028  1.00
      P1  H  7918  7932       L1     5  0.38

> <Gold.Chemscore.Hbond.Weighted>
-12.2836

> <Gold.Chemscore.Metal.Weighted>
-0.0000

> <Gold.Chemscore.Lipo.Weighted>
-9.7271

> <Gold.Chemscore.Internal_Hbond.Weighted>
0.0000

> <Gold.Chemscore.DEClash.Weighted>
1.4588

> <Gold.Chemscore.DEInternal.Weighted>
2.4422

> <Gold.Chemscore.Rot.Weighted>
9.6213

> <Gold.Chemscore.Internal.Correction.Weighted>
   9.000000E+99

> <Gold.Protein.RotatedTorsions>
[ 6907 6896 6895 6894 ] final -136.86 input  -60.11 | X-H torsion
[ 7974 7965 7964 7962 ] final   50.39 input  175.53 | X-H torsion
[ 8008 7997 7996 7995 ] final  -30.54 input   59.86 | X-H torsion
[ 10167 10162 10161 10158 ] final  -87.11 input  -65.29 | X-H torsion
[ 10718 10713 10712 10709 ] final   12.89 input   66.30 | X-H torsion
[ 10763 10752 10751 10750 ] final  103.94 input  -60.55 | X-H torsion
[ 11005 11000 10999 10996 ] final  150.14 input  -57.11 | X-H torsion

> <Gold.Protein.ActiveResidues>
 VAL166  LYS551  ARG553  GLY616  TRP617  ASP618  TYR619  PRO620  LYS621  CYS622 
 ASP623  PHE694  ASN695  SER759  ASP760  ASP761  ALA762  ILE779  LEU786  VAL792 
 PHE793  MET794  SER795  GLU796  ALA797  LYS798  CYS799  TRP800  GLU811  SER814 

> <Gold.Protein.RotatedAtoms>
  151.0152  133.5927  159.2677 H   0  0  0  0  0  0  0  0  0  0  0  0  # atno 6907 bound_to 6896
  151.3064  135.0781  159.9266 H   0  0  0  0  0  0  0  0  0  0  0  0  # atno 6908 bound_to 6896
  152.5310  133.9825  159.7867 H   0  0  0  0  0  0  0  0  0  0  0  0  # atno 6909 bound_to 6896
  146.0016  139.4446  143.0011 H   0  0  0  0  0  0  0  0  0  0  0  0  # atno 7974 bound_to 7965
  154.4246  140.1788  156.1424 H   0  0  0  0  0  0  0  0  0  0  0  0  # atno 8008 bound_to 7997
  155.9981  140.3362  155.6794 H   0  0  0  0  0  0  0  0  0  0  0  0  # atno 8009 bound_to 7997
  155.6280  140.0667  157.2648 H   0  0  0  0  0  0  0  0  0  0  0  0  # atno 8010 bound_to 7997
  140.3876  143.2719  151.9305 H   0  0  0  0  0  0  0  0  0  0  0  0  # atno 10167 bound_to 10162
  157.0168  130.6139  149.5715 H   0  0  0  0  0  0  0  0  0  0  0  0  # atno 10718 bound_to 10713
  153.3593  135.3960  155.1706 H   0  0  0  0  0  0  0  0  0  0  0  0  # atno 10763 bound_to 10752
  154.8676  135.3675  154.5120 H   0  0  0  0  0  0  0  0  0  0  0  0  # atno 10764 bound_to 10752
  153.5578  135.7081  153.5621 H   0  0  0  0  0  0  0  0  0  0  0  0  # atno 10765 bound_to 10752
  140.1105  134.8927  157.1930 H   0  0  0  0  0  0  0  0  0  0  0  0  # atno 11005 bound_to 11000
  145.7478  140.9984  143.1266 LP  0  0  0  0  0  0  0  0  0  0  0  0  # atno 17320 bound_to 7965
  144.6921  139.9178  143.7466 LP  0  0  0  0  0  0  0  0  0  0  0  0  # atno 17321 bound_to 7965
  139.4791  144.5758  151.8013 LP  0  0  0  0  0  0  0  0  0  0  0  0  # atno 17342 bound_to 10162
  140.4873  144.1362  150.5943 LP  0  0  0  0  0  0  0  0  0  0  0  0  # atno 17343 bound_to 10162
  156.0116  130.5208  150.8007 LP  0  0  0  0  0  0  0  0  0  0  0  0  # atno 17370 bound_to 10713
  157.5280  131.0935  150.9993 LP  0  0  0  0  0  0  0  0  0  0  0  0  # atno 17371 bound_to 10713
  140.3097  134.3038  155.7270 LP  0  0  0  0  0  0  0  0  0  0  0  0  # atno 17394 bound_to 11000
  141.2129  133.7643  156.9759 LP  0  0  0  0  0  0  0  0  0  0  0  0  # atno 17395 bound_to 11000

$$$$
