AV-unprocessed.smi:2860|AV-procd|sdf|11006|dock1
  -GOLD-   2272015463D 1   1.00000     0.00000
 Structure written by MMmdl.
 45 46  0  0  0  0  0  0  0  0  1 V2000
  152.3196  144.2659  157.8204 C   0  0  0  0  0  0  0  0  0  0  0  0
  152.4121  142.9102  158.5333 C   0  0  0  0  0  0  0  0  0  0  0  0
  151.3886  141.9883  158.0567 N   0  0  0  0  0  0  0  0  0  0  0  0
  151.5503  140.6633  157.9137 C   0  0  0  0  0  0  0  0  0  0  0  0
  152.5889  140.0707  158.2048 O   0  0  0  0  0  0  0  0  0  0  0  0
  150.3604  139.8885  157.3461 C   0  0  0  0  0  0  0  0  0  0  0  0
  149.8865  138.8975  158.2956 N   0  0  0  0  0  0  0  0  0  0  0  0
  150.5707  137.8207  158.8254 C   0  0  0  0  0  0  0  0  0  0  0  0
  149.7262  137.1794  159.6864 C   0  0  0  0  0  0  0  0  0  0  0  0
  148.5338  137.9501  159.6091 C   0  0  0  0  0  0  0  0  0  0  0  0
  147.3972  137.6011  160.3814 N   0  0  0  0  0  0  0  0  0  0  0  0
  147.1474  136.4314  160.9975 C   0  0  0  0  0  0  0  0  0  0  0  0
  147.9471  135.4984  161.0697 O   0  0  0  0  0  0  0  0  0  0  0  0
  145.8236  136.3977  161.6911 C   0  0  0  0  0  0  0  0  0  0  0  0
  145.4996  137.4352  162.7654 C   0  0  0  0  0  0  0  0  0  0  0  0
  146.4832  138.5171  163.2121 C   0  0  0  0  0  0  0  0  0  0  0  0
  144.0989  138.0333  162.7808 C   0  0  0  0  0  0  0  0  0  0  0  0
  145.7301  135.9745  163.1547 C   0  0  0  0  0  0  0  0  0  0  0  0
  144.5650  135.0854  163.5679 C   0  0  0  0  0  0  0  0  0  0  0  0
  146.9547  135.5716  163.9771 C   0  0  0  0  0  0  0  0  0  0  0  0
  148.6270  138.9786  158.7779 N   0  0  0  0  0  0  0  0  0  0  0  0
  153.0700  144.9571  158.2039 H   0  0  0  0  0  0  0  0  0  0  0  0
  151.3404  144.7224  157.9679 H   0  0  0  0  0  0  0  0  0  0  0  0
  152.4830  144.1626  156.7472 H   0  0  0  0  0  0  0  0  0  0  0  0
  153.4051  142.4773  158.4015 H   0  0  0  0  0  0  0  0  0  0  0  0
  152.2733  143.0485  159.6056 H   0  0  0  0  0  0  0  0  0  0  0  0
  150.4986  142.3888  157.7974 H   0  0  0  0  0  0  0  0  0  0  0  0
  149.5488  140.5758  157.1017 H   0  0  0  0  0  0  0  0  0  0  0  0
  150.6438  139.3846  156.4211 H   0  0  0  0  0  0  0  0  0  0  0  0
  151.5932  137.6063  158.5512 H   0  0  0  0  0  0  0  0  0  0  0  0
  149.9309  136.2997  160.2785 H   0  0  0  0  0  0  0  0  0  0  0  0
  146.6781  138.3063  160.4470 H   0  0  0  0  0  0  0  0  0  0  0  0
  144.9945  136.1331  161.0371 H   0  0  0  0  0  0  0  0  0  0  0  0
  146.2636  138.8236  164.2351 H   0  0  0  0  0  0  0  0  0  0  0  0
  146.4008  139.3923  162.5668 H   0  0  0  0  0  0  0  0  0  0  0  0
  147.5190  138.1858  163.1774 H   0  0  0  0  0  0  0  0  0  0  0  0
  143.7880  138.2408  163.8050 H   0  0  0  0  0  0  0  0  0  0  0  0
  143.3700  137.3619  162.3287 H   0  0  0  0  0  0  0  0  0  0  0  0
  144.0761  138.9657  162.2158 H   0  0  0  0  0  0  0  0  0  0  0  0
  144.2669  135.3064  164.5931 H   0  0  0  0  0  0  0  0  0  0  0  0
  144.8472  134.0336  163.5085 H   0  0  0  0  0  0  0  0  0  0  0  0
  143.7016  135.2270  162.9191 H   0  0  0  0  0  0  0  0  0  0  0  0
  146.7825  135.7828  165.0329 H   0  0  0  0  0  0  0  0  0  0  0  0
  147.8582  136.0961  163.6719 H   0  0  0  0  0  0  0  0  0  0  0  0
  147.1494  134.5043  163.8688 H   0  0  0  0  0  0  0  0  0  0  0  0
  1  2  1  0  0  0  0
  1 22  1  0  0  0  0
  1 23  1  0  0  0  0
  1 24  1  0  0  0  0
  2  3  1  0  0  0  0
  2 25  1  0  0  0  0
  2 26  1  0  0  0  0
  3  4  1  0  0  0  0
  3 27  1  0  0  0  0
  4  5  2  0  0  0  0
  4  6  1  0  0  0  0
  6  7  1  0  0  0  0
  6 28  1  0  0  0  0
  6 29  1  0  0  0  0
  7 21  1  0  0  0  0
  7  8  1  0  0  0  0
  8  9  2  0  0  0  0
  8 30  1  0  0  0  0
  9 10  1  0  0  0  0
  9 31  1  0  0  0  0
 10 11  1  0  0  0  0
 10 21  2  0  0  0  0
 11 12  1  0  0  0  0
 11 32  1  0  0  0  0
 12 13  2  0  0  0  0
 12 14  1  0  0  0  0
 14 18  1  0  0  0  0
 14 15  1  0  0  0  0
 14 33  1  0  0  0  0
 15 16  1  0  0  0  0
 15 17  1  0  0  0  0
 15 18  1  0  0  0  0
 16 34  1  0  0  0  0
 16 35  1  0  0  0  0
 16 36  1  0  0  0  0
 17 37  1  0  0  0  0
 17 38  1  0  0  0  0
 17 39  1  0  0  0  0
 18 19  1  0  0  0  0
 18 20  1  0  0  0  0
 19 40  1  0  0  0  0
 19 41  1  0  0  0  0
 19 42  1  0  0  0  0
 20 43  1  0  0  0  0
 20 44  1  0  0  0  0
 20 45  1  0  0  0  0
M  END
> <s_m_source_file>
AV-unprocessed.smi

> <i_m_source_file_index>
2860

> <i_lp_mmshare_version>
43012

> <i_f3d_flags>
0

> <s_epik_input>
W0NIM11bQ0gyXVtOSF1DKD1PKVtDSDJdbjFbY0hdW2NIXWMobjEpW05IXUMoPU8pW0NIXShDMihbQ0gzXSlbQ0gzXSlDMihbQ0gzXSlbQ0gzXQ==

> <s_epik_cmdline>
J2VwaWtfcHl0aG9uJywgJy1waCcsICc3LjAnLCAnLXRuJywgJzgnLCAnLW1hJywgJzIwMCcsICctbWV0YWxfYmluZGluZycsICctaW1hZScsICc8aW5maWxlLm1hZT4nLCAnLW9tYWUnLCAnPG91dGZpbGUubWFlPic=

> <r_lp_tautomer_probability>
1

> <r_epik_Ionization_Penalty>
1.3586e-05

> <r_epik_Ionization_Penalty_Charging>
0

> <r_epik_Ionization_Penalty_Neutral>
1.3586e-05

> <r_epik_State_Penalty>
-0

> <r_epik_Charging_Adjusted_Penalty>
0

> <i_epik_Tot_Q>
0

> <i_epik_Tot_abs_Q>
0

> <r_epik_Metal_State_Penalty>
-0

> <b_epik_Metal_Only>
0

> <s_lp_Force_Field>
OPLS_2005

> <r_lp_Energy>
28.3378

> <b_lp_Chiralities_Consistent>
1

> <s_lp_Variant>
AV-unprocessed.smi:2860-1

> <Gold.Version>
5.8.1

> <Gold.Id.Protein>
6NUR|6NUR_protein|mol2

> <Gold.PLP.Fitness>
39.4636

> <Gold.PLP.PLP>
-37.0025

> <Gold.PLP.part.hbond>
-2.4431

> <Gold.PLP.part.metal>
0.0000

> <Gold.PLP.part.buried>
-3.6649

> <Gold.PLP.part.nonpolar>
-31.6043

> <Gold.PLP.part.repulsive>
0.2624

> <Gold.PLP.ligand.clash>
0.0000

> <Gold.PLP.ligand.torsion>
0.3436

> <Gold.PLP.Chemscore.Hbond>
1.0000

> <Gold.PLP.Chemscore.CHOScore>
0.0000

> <Gold.PLP.Chemscore.Metal>
0.0000

> <Gold.Chemscore.Hbonds>
donor molecule, donor type, donor heavy atom, donor atom, acceptor molecule, acceptor atom, score
      P1  H  7997  8009       L1     5  0.31

> <Gold.PLP.Chemscore.Internal.Correction>
0.1484

> <Gold.Rescore>
     Score         DG    S(hbond)    S(metal)    S(lipo)     H(rot)  DE(clash)    DE(int)     intcor
     12.59     -15.21       1.00        0.00      91.33       1.68       0.04       2.58       ----

> <Gold.Chemscore.Fitness>
12.5879

> <Gold.Chemscore.DG>
-15.2131

> <Gold.Chemscore.ZeroCoef>
-5.4800

> <Gold.Chemscore.Hbond>
1.0017

> <Gold.Chemscore.Metal>
0.0000

> <Gold.Chemscore.Lipo>
91.3296

> <Gold.Chemscore.Internal_Hbond>
0.0000

> <Gold.Chemscore.DEClash>
0.0419

> <Gold.Chemscore.DEInternal>
2.5833

> <Gold.Chemscore.Rot>
1.6789

> <Gold.Chemscore.Internal.Correction>
   9.000000E+99

> <Gold.Chemscore.Hbonds>
donor molecule, donor type, donor heavy atom, donor atom, acceptor molecule, acceptor atom, score
      P1  H  7997  8009       L1     5  0.30

> <Gold.Chemscore.Hbond.Weighted>
-3.3456

> <Gold.Chemscore.Metal.Weighted>
-0.0000

> <Gold.Chemscore.Lipo.Weighted>
-10.6856

> <Gold.Chemscore.Internal_Hbond.Weighted>
0.0000

> <Gold.Chemscore.DEClash.Weighted>
0.0419

> <Gold.Chemscore.DEInternal.Weighted>
2.5833

> <Gold.Chemscore.Rot.Weighted>
4.2981

> <Gold.Chemscore.Internal.Correction.Weighted>
   9.000000E+99

> <Gold.Protein.RotatedTorsions>
[ 6907 6896 6895 6894 ] final -116.17 input  -60.11 | X-H torsion
[ 7974 7965 7964 7962 ] final   43.28 input  175.53 | X-H torsion
[ 8008 7997 7996 7995 ] final  166.53 input   59.86 | X-H torsion
[ 10167 10162 10161 10158 ] final -144.54 input  -65.29 | X-H torsion
[ 10718 10713 10712 10709 ] final  -97.59 input   66.30 | X-H torsion
[ 10763 10752 10751 10750 ] final   67.30 input  -60.55 | X-H torsion
[ 11005 11000 10999 10996 ] final  -84.12 input  -57.11 | X-H torsion

> <Gold.Protein.ActiveResidues>
 VAL166  LYS551  ARG553  GLY616  TRP617  ASP618  TYR619  PRO620  LYS621  CYS622 
 ASP623  PHE694  ASN695  SER759  ASP760  ASP761  ALA762  ILE779  LEU786  VAL792 
 PHE793  MET794  SER795  GLU796  ALA797  LYS798  CYS799  TRP800  GLU811  SER814 

> <Gold.Protein.RotatedAtoms>
  150.8035  133.8555  159.3216 H   0  0  0  0  0  0  0  0  0  0  0  0  # atno 6907 bound_to 6896
  151.6360  135.1016  160.0141 H   0  0  0  0  0  0  0  0  0  0  0  0  # atno 6908 bound_to 6896
  152.4124  133.6944  159.6444 H   0  0  0  0  0  0  0  0  0  0  0  0  # atno 6909 bound_to 6896
  146.0668  139.5204  142.9623 H   0  0  0  0  0  0  0  0  0  0  0  0  # atno 7974 bound_to 7965
  156.1710  140.1641  156.8447 H   0  0  0  0  0  0  0  0  0  0  0  0  # atno 8008 bound_to 7997
  154.5257  140.0768  156.8288 H   0  0  0  0  0  0  0  0  0  0  0  0  # atno 8009 bound_to 7997
  155.3512  140.3390  155.4241 H   0  0  0  0  0  0  0  0  0  0  0  0  # atno 8010 bound_to 7997
  139.7889  143.7994  152.2648 H   0  0  0  0  0  0  0  0  0  0  0  0  # atno 10167 bound_to 10162
  156.0087  130.5201  150.6398 H   0  0  0  0  0  0  0  0  0  0  0  0  # atno 10718 bound_to 10713
  153.0180  135.5289  154.6958 H   0  0  0  0  0  0  0  0  0  0  0  0  # atno 10763 bound_to 10752
  154.6081  135.2875  155.0465 H   0  0  0  0  0  0  0  0  0  0  0  0  # atno 10764 bound_to 10752
  154.1497  135.6565  153.5013 H   0  0  0  0  0  0  0  0  0  0  0  0  # atno 10765 bound_to 10752
  141.1653  133.7329  156.8821 H   0  0  0  0  0  0  0  0  0  0  0  0  # atno 11005 bound_to 11000
  145.6462  141.0273  143.1785 LP  0  0  0  0  0  0  0  0  0  0  0  0  # atno 17320 bound_to 7965
  144.7207  139.8039  143.7383 LP  0  0  0  0  0  0  0  0  0  0  0  0  # atno 17321 bound_to 7965
  139.8079  144.7348  150.9736 LP  0  0  0  0  0  0  0  0  0  0  0  0  # atno 17342 bound_to 10162
  140.7820  143.4279  151.0739 LP  0  0  0  0  0  0  0  0  0  0  0  0  # atno 17343 bound_to 10162
  157.4180  131.0833  151.1158 LP  0  0  0  0  0  0  0  0  0  0  0  0  # atno 17370 bound_to 10713
  157.1769  130.6292  149.5659 LP  0  0  0  0  0  0  0  0  0  0  0  0  # atno 17371 bound_to 10713
  140.1707  134.9102  157.2830 LP  0  0  0  0  0  0  0  0  0  0  0  0  # atno 17394 bound_to 11000
  140.2505  134.3689  155.7444 LP  0  0  0  0  0  0  0  0  0  0  0  0  # atno 17395 bound_to 11000

$$$$
