AV-unprocessed.smi:662|AV-procd|sdf|3243|dock5
  -GOLD-   22720 0193D 1   1.00000     0.00000
 Structure written by MMmdl.
 34 35  0  0  0  0  0  0  0  0  2 V2000
  146.3103  135.1228  152.8462 O   0  0  0  0  0  0  0  0  0  0  0  0
  145.4244  135.6338  152.1618 C   0  0  0  0  0  0  0  0  0  0  0  0
  145.0723  136.9261  152.2821 N   0  0  0  0  0  0  0  0  0  0  0  0
  145.6823  137.8736  153.2086 C   0  0  0  0  0  0  0  0  0  0  0  0
  146.8657  138.6141  152.5655 C   0  0  0  0  0  0  0  0  0  0  0  0
  147.5556  139.5231  153.5259 C   0  0  0  0  0  0  0  0  0  0  0  0
  148.6921  139.2056  154.1507 N   0  0  0  0  0  0  0  0  0  0  0  0
  149.1261  140.2055  155.0280 C   0  0  0  0  0  0  0  0  0  0  0  0
  150.3960  140.0147  155.8063 C   0  0  0  0  0  0  0  0  0  0  0  0
  151.4054  139.6486  155.0163 F   0  0  0  0  0  0  0  0  0  0  0  0
  150.7562  141.1408  156.4213 F   0  0  0  0  0  0  0  0  0  0  0  0
  150.2524  139.0716  156.7368 F   0  0  0  0  0  0  0  0  0  0  0  0
  148.2821  141.2890  155.0656 C   0  0  0  0  0  0  0  0  0  0  0  0
  146.9151  141.0899  154.0040 S   0  0  0  0  0  0  0  0  0  0  0  0
  144.6794  134.7650  151.1335 C   0  0  2  0  0  0  0  0  0  0  0  0
  143.9079  133.6259  151.8135 C   0  0  0  0  0  0  0  0  0  0  0  0
  143.7626  132.5945  150.7052 C   0  0  0  0  0  0  0  0  0  0  0  0
  145.0547  132.7422  149.9005 C   0  0  0  0  0  0  0  0  0  0  0  0
  145.5659  134.1073  150.1459 N   0  3  0  0  0  0  0  0  0  0  0  0
  144.3274  137.2803  151.7009 H   0  0  0  0  0  0  0  0  0  0  0  0
  144.9186  138.5897  153.5139 H   0  0  0  0  0  0  0  0  0  0  0  0
  146.0021  137.3574  154.1158 H   0  0  0  0  0  0  0  0  0  0  0  0
  147.5958  137.9025  152.1774 H   0  0  0  0  0  0  0  0  0  0  0  0
  146.5225  139.2040  151.7150 H   0  0  0  0  0  0  0  0  0  0  0  0
  148.3803  142.1883  155.6554 H   0  0  0  0  0  0  0  0  0  0  0  0
  143.9823  135.3961  150.5805 H   0  0  0  0  0  0  0  0  0  0  0  0
  144.4850  133.1976  152.6353 H   0  0  0  0  0  0  0  0  0  0  0  0
  142.9450  133.9474  152.2122 H   0  0  0  0  0  0  0  0  0  0  0  0
  143.6088  131.5823  151.0806 H   0  0  0  0  0  0  0  0  0  0  0  0
  142.9076  132.8526  150.0787 H   0  0  0  0  0  0  0  0  0  0  0  0
  145.8032  132.0291  150.2473 H   0  0  0  0  0  0  0  0  0  0  0  0
  144.8935  132.5671  148.8363 H   0  0  0  0  0  0  0  0  0  0  0  0
  145.5882  134.6453  149.2911 H   0  0  0  0  0  0  0  0  0  0  0  0
  146.4949  134.0351  150.5347 H   0  0  0  0  0  0  0  0  0  0  0  0
  1  2  2  0  0  0  0
  2  3  1  0  0  0  0
  2 15  1  0  0  0  0
  3  4  1  0  0  0  0
  3 20  1  0  0  0  0
  4  5  1  0  0  0  0
  4 21  1  0  0  0  0
  4 22  1  0  0  0  0
  5  6  1  0  0  0  0
  5 23  1  0  0  0  0
  5 24  1  0  0  0  0
  6 14  1  0  0  0  0
  6  7  2  0  0  0  0
  7  8  1  0  0  0  0
  8  9  1  0  0  0  0
  8 13  2  0  0  0  0
  9 10  1  0  0  0  0
  9 11  1  0  0  0  0
  9 12  1  0  0  0  0
 13 14  1  0  0  0  0
 13 25  1  0  0  0  0
 15 19  1  0  0  0  0
 15 16  1  0  0  0  0
 15 26  1  0  0  0  0
 16 17  1  0  0  0  0
 16 27  1  0  0  0  0
 16 28  1  0  0  0  0
 17 18  1  0  0  0  0
 17 29  1  0  0  0  0
 17 30  1  0  0  0  0
 18 19  1  0  0  0  0
 18 31  1  0  0  0  0
 18 32  1  0  0  0  0
 19 33  1  0  0  0  0
 19 34  1  0  0  0  0
M  CHG  1  19   1
M  END
> <s_m_source_file>
AV-unprocessed.smi

> <i_m_source_file_index>
662

> <i_lp_mmshare_version>
43012

> <i_f3d_flags>
0

> <s_epik_input>
W05IXTFbQ0gyXVtDSDJdW0NIMl1bQ0BIXTFDKD1PKVtOSF1bQ0gyXVtDSDJdYzJuYyhDKEYpKEYpRilbY0hdczI=

> <s_epik_cmdline>
J2VwaWtfcHl0aG9uJywgJy1waCcsICc3LjAnLCAnLXRuJywgJzgnLCAnLW1hJywgJzIwMCcsICctbWV0YWxfYmluZGluZycsICctaW1hZScsICc8aW5maWxlLm1hZT4nLCAnLW9tYWUnLCAnPG91dGZpbGUubWFlPic=

> <r_epik_Ionization_Penalty>
0.0382401

> <r_epik_Ionization_Penalty_Charging>
0.0382382

> <r_epik_Ionization_Penalty_Neutral>
1.85239e-06

> <r_epik_State_Penalty>
0.0320549

> <r_epik_Charging_Adjusted_Penalty>
0.0702931

> <i_epik_Tot_Q>
1

> <i_epik_Tot_abs_Q>
1

> <r_epik_Metal_State_Penalty>
0.0320549

> <b_epik_Metal_Only>
0

> <s_lp_Force_Field>
OPLS_2005

> <r_lp_Energy>
7.29414

> <b_lp_Chiralities_Consistent>
1

> <s_lp_Variant>
AV-unprocessed.smi:662-1

> <Gold.Version>
5.8.1

> <Gold.Id.Protein>
6NUR|6NUR_protein|mol2

> <Gold.PLP.Fitness>
42.0858

> <Gold.PLP.PLP>
-34.5749

> <Gold.PLP.part.hbond>
-2.0000

> <Gold.PLP.part.metal>
0.0000

> <Gold.PLP.part.buried>
-0.2337

> <Gold.PLP.part.nonpolar>
-33.2538

> <Gold.PLP.part.repulsive>
0.9910

> <Gold.PLP.ligand.clash>
0.0000

> <Gold.PLP.ligand.torsion>
0.7436

> <Gold.PLP.Chemscore.Hbond>
1.9920

> <Gold.PLP.Chemscore.CHOScore>
1.0000

> <Gold.PLP.Chemscore.Metal>
0.0000

> <Gold.Chemscore.Hbonds>
donor molecule, donor type, donor heavy atom, donor atom, acceptor molecule, acceptor atom, score
      L1  H     3    20       P1 10171  0.20
      L1  H    19    33       P1  7921  0.98
      L1  C    13    25       P1  8028  0.90

> <Gold.PLP.Chemscore.Internal.Correction>
0.0221

> <Gold.Rescore>
     Score         DG    S(hbond)    S(metal)    S(lipo)     H(rot)  DE(clash)    DE(int)     intcor
     13.32     -14.96       1.85        0.00      71.35       1.97       1.40       0.24       ----

> <Gold.Chemscore.Fitness>
13.3198

> <Gold.Chemscore.DG>
-14.9582

> <Gold.Chemscore.ZeroCoef>
-5.4800

> <Gold.Chemscore.Hbond>
1.8481

> <Gold.Chemscore.Metal>
0.0000

> <Gold.Chemscore.Lipo>
71.3493

> <Gold.Chemscore.Internal_Hbond>
0.0000

> <Gold.Chemscore.DEClash>
1.4014

> <Gold.Chemscore.DEInternal>
0.2370

> <Gold.Chemscore.Rot>
1.9697

> <Gold.Chemscore.Internal.Correction>
   9.000000E+99

> <Gold.Chemscore.Hbonds>
donor molecule, donor type, donor heavy atom, donor atom, acceptor molecule, acceptor atom, score
      L1  H     3    20       P1 10171  0.20
      L1  H    19    33       P1  7921  0.90

> <Gold.Chemscore.Hbond.Weighted>
-6.1728

> <Gold.Chemscore.Metal.Weighted>
-0.0000

> <Gold.Chemscore.Lipo.Weighted>
-8.3479

> <Gold.Chemscore.Internal_Hbond.Weighted>
0.0000

> <Gold.Chemscore.DEClash.Weighted>
1.4014

> <Gold.Chemscore.DEInternal.Weighted>
0.2370

> <Gold.Chemscore.Rot.Weighted>
5.0424

> <Gold.Chemscore.Internal.Correction.Weighted>
   9.000000E+99

> <Gold.Protein.RotatedTorsions>
[ 6907 6896 6895 6894 ] final   -1.52 input  -60.11 | X-H torsion
[ 7974 7965 7964 7962 ] final  132.38 input  175.53 | X-H torsion
[ 8008 7997 7996 7995 ] final -115.89 input   59.86 | X-H torsion
[ 10167 10162 10161 10158 ] final -133.90 input  -65.29 | X-H torsion
[ 10718 10713 10712 10709 ] final   91.22 input   66.30 | X-H torsion
[ 10763 10752 10751 10750 ] final   98.43 input  -60.55 | X-H torsion
[ 11005 11000 10999 10996 ] final  124.29 input  -57.11 | X-H torsion

> <Gold.Protein.ActiveResidues>
 VAL166  LYS551  ARG553  GLY616  TRP617  ASP618  TYR619  PRO620  LYS621  CYS622 
 ASP623  PHE694  ASN695  SER759  ASP760  ASP761  ALA762  ILE779  LEU786  VAL792 
 PHE793  MET794  SER795  GLU796  ALA797  LYS798  CYS799  TRP800  GLU811  SER814 

> <Gold.Protein.RotatedAtoms>
  151.5447  135.1068  159.9934 H   0  0  0  0  0  0  0  0  0  0  0  0  # atno 6907 bound_to 6896
  152.4519  133.7642  159.6774 H   0  0  0  0  0  0  0  0  0  0  0  0  # atno 6908 bound_to 6896
  150.8450  133.7809  159.3071 H   0  0  0  0  0  0  0  0  0  0  0  0  # atno 6909 bound_to 6896
  144.9975  139.4345  143.5309 H   0  0  0  0  0  0  0  0  0  0  0  0  # atno 7974 bound_to 7965
  155.0591  140.0393  157.2570 H   0  0  0  0  0  0  0  0  0  0  0  0  # atno 8008 bound_to 7997
  154.7074  140.2686  155.6637 H   0  0  0  0  0  0  0  0  0  0  0  0  # atno 8009 bound_to 7997
  156.2779  140.2728  156.1705 H   0  0  0  0  0  0  0  0  0  0  0  0  # atno 8010 bound_to 7997
  139.8935  143.6694  152.2608 H   0  0  0  0  0  0  0  0  0  0  0  0  # atno 10167 bound_to 10162
  157.6960  131.0399  150.3696 H   0  0  0  0  0  0  0  0  0  0  0  0  # atno 10718 bound_to 10713
  153.2889  135.4148  155.1149 H   0  0  0  0  0  0  0  0  0  0  0  0  # atno 10763 bound_to 10752
  154.8514  135.3513  154.6008 H   0  0  0  0  0  0  0  0  0  0  0  0  # atno 10764 bound_to 10752
  153.6430  135.7056  153.5293 H   0  0  0  0  0  0  0  0  0  0  0  0  # atno 10765 bound_to 10752
  139.9352  134.9640  156.8387 H   0  0  0  0  0  0  0  0  0  0  0  0  # atno 11005 bound_to 11000
  146.3445  139.9343  142.8749 LP  0  0  0  0  0  0  0  0  0  0  0  0  # atno 17320 bound_to 7965
  145.2200  140.9931  143.4051 LP  0  0  0  0  0  0  0  0  0  0  0  0  # atno 17321 bound_to 7965
  139.7088  144.7623  151.1146 LP  0  0  0  0  0  0  0  0  0  0  0  0  # atno 17342 bound_to 10162
  140.7722  143.5358  150.9370 LP  0  0  0  0  0  0  0  0  0  0  0  0  # atno 17343 bound_to 10162
  156.4122  130.3936  149.6883 LP  0  0  0  0  0  0  0  0  0  0  0  0  # atno 17370 bound_to 10713
  156.4163  130.7747  151.2762 LP  0  0  0  0  0  0  0  0  0  0  0  0  # atno 17371 bound_to 10713
  140.6095  134.0095  155.7571 LP  0  0  0  0  0  0  0  0  0  0  0  0  # atno 17394 bound_to 11000
  141.0962  133.9840  157.3157 LP  0  0  0  0  0  0  0  0  0  0  0  0  # atno 17395 bound_to 11000

$$$$
