AV-unprocessed.smi:99|AV-procd|sdf|881|dock9
  -GOLD-   2262017353D 1   1.00000     0.00000
 Structure written by MMmdl.
 52 55  0  0  0  0  0  0  0  0  2 V2000
  149.0576  133.9482  158.0311 O   0  0  0  0  0  0  0  0  0  0  0  0
  148.0057  134.4752  158.3979 C   0  0  0  0  0  0  0  0  0  0  0  0
  147.0143  134.8294  157.5584 O   0  0  0  0  0  0  0  0  0  0  0  0
  147.0998  134.5375  156.1731 C   0  0  0  0  0  0  0  0  0  0  0  0
  147.6535  135.7682  155.4441 C   0  0  2  0  0  0  0  0  0  0  0  0
  148.2709  136.6500  156.3755 O   0  0  0  0  0  0  0  0  0  0  0  0
  148.2741  137.9575  155.8699 C   0  0  1  0  0  0  0  0  0  0  0  0
  149.7005  138.3767  155.5691 N   0  0  0  0  0  0  0  0  0  0  0  0
  150.7624  137.5023  155.7335 C   0  0  0  0  0  0  0  0  0  0  0  0
  152.0292  137.8786  155.4631 C   0  0  0  0  0  0  0  0  0  0  0  0
  152.2891  139.2346  154.9878 C   0  0  0  0  0  0  0  0  0  0  0  0
  153.4477  139.5698  154.7496 O   0  0  0  0  0  0  0  0  0  0  0  0
  151.2256  140.0742  154.8278 N   0  5  0  0  0  0  0  0  0  0  0  0
  149.9421  139.6950  155.0964 C   0  0  0  0  0  0  0  0  0  0  0  0
  148.9727  140.4391  154.9452 O   0  0  0  0  0  0  0  0  0  0  0  0
  147.3586  137.9728  154.6212 C   0  0  1  0  0  0  0  0  0  0  0  0
  148.0861  137.9767  153.4013 O   0  0  0  0  0  0  0  0  0  0  0  0
  146.5960  136.6700  154.8098 C   0  0  1  0  0  0  0  0  0  0  0  0
  146.0512  136.1837  153.5854 O   0  0  0  0  0  0  0  0  0  0  0  0
  145.0244  135.3057  153.5729 C   0  0  0  0  0  0  0  0  0  0  0  0
  144.1902  135.2103  154.4752 O   0  0  0  0  0  0  0  0  0  0  0  0
  145.0326  134.4268  152.3693 C   0  0  0  0  0  0  0  0  0  0  0  0
  143.8266  133.8208  151.9464 C   0  0  0  0  0  0  0  0  0  0  0  0
  143.8087  132.9631  150.8296 C   0  0  0  0  0  0  0  0  0  0  0  0
  144.9954  132.7047  150.1197 C   0  0  0  0  0  0  0  0  0  0  0  0
  146.2002  133.3064  150.5270 C   0  0  0  0  0  0  0  0  0  0  0  0
  146.2211  134.1620  151.6455 C   0  0  0  0  0  0  0  0  0  0  0  0
  147.7030  134.8152  159.8183 C   0  0  0  0  0  0  0  0  0  0  0  0
  147.5635  136.1716  160.1932 C   0  0  0  0  0  0  0  0  0  0  0  0
  147.2529  136.5200  161.5221 C   0  0  0  0  0  0  0  0  0  0  0  0
  147.0794  135.5163  162.4928 C   0  0  0  0  0  0  0  0  0  0  0  0
  147.2200  134.1636  162.1338 C   0  0  0  0  0  0  0  0  0  0  0  0
  147.5321  133.8136  160.8059 C   0  0  0  0  0  0  0  0  0  0  0  0
  147.7408  133.6744  155.9866 H   0  0  0  0  0  0  0  0  0  0  0  0
  146.1030  134.2945  155.8037 H   0  0  0  0  0  0  0  0  0  0  0  0
  148.3970  135.4691  154.7030 H   0  0  0  0  0  0  0  0  0  0  0  0
  147.9296  138.6163  156.6687 H   0  0  0  0  0  0  0  0  0  0  0  0
  150.5913  136.4954  156.0813 H   0  0  0  0  0  0  0  0  0  0  0  0
  152.8454  137.1837  155.5961 H   0  0  0  0  0  0  0  0  0  0  0  0
  146.7001  138.8413  154.6476 H   0  0  0  0  0  0  0  0  0  0  0  0
  148.1658  137.0854  153.0981 H   0  0  0  0  0  0  0  0  0  0  0  0
  145.8111  136.8548  155.5449 H   0  0  0  0  0  0  0  0  0  0  0  0
  142.9044  133.9977  152.4811 H   0  0  0  0  0  0  0  0  0  0  0  0
  142.8833  132.5005  150.5199 H   0  0  0  0  0  0  0  0  0  0  0  0
  144.9816  132.0458  149.2643 H   0  0  0  0  0  0  0  0  0  0  0  0
  147.1118  133.1093  149.9824 H   0  0  0  0  0  0  0  0  0  0  0  0
  147.1632  134.6046  151.9344 H   0  0  0  0  0  0  0  0  0  0  0  0
  147.6864  136.9593  159.4639 H   0  0  0  0  0  0  0  0  0  0  0  0
  147.1452  137.5593  161.7958 H   0  0  0  0  0  0  0  0  0  0  0  0
  146.8377  135.7837  163.5109 H   0  0  0  0  0  0  0  0  0  0  0  0
  147.0824  133.3912  162.8760 H   0  0  0  0  0  0  0  0  0  0  0  0
  147.6245  132.7650  160.5638 H   0  0  0  0  0  0  0  0  0  0  0  0
  1  2  2  0  0  0  0
  2  3  1  0  0  0  0
  2 28  1  0  0  0  0
  3  4  1  0  0  0  0
  4  5  1  0  0  0  0
  4 34  1  0  0  0  0
  4 35  1  0  0  0  0
  5 18  1  0  0  0  0
  5  6  1  0  0  0  0
  5 36  1  0  0  0  0
  6  7  1  0  0  0  0
  7  8  1  0  0  0  0
  7 16  1  0  0  0  0
  7 37  1  0  0  0  0
  8 14  1  0  0  0  0
  8  9  1  0  0  0  0
  9 10  2  0  0  0  0
  9 38  1  0  0  0  0
 10 11  1  0  0  0  0
 10 39  1  0  0  0  0
 11 12  2  0  0  0  0
 11 13  1  0  0  0  0
 13 14  1  0  0  0  0
 14 15  2  0  0  0  0
 16 17  1  0  0  0  0
 16 18  1  0  0  0  0
 16 40  1  0  0  0  0
 17 41  1  0  0  0  0
 18 19  1  0  0  0  0
 18 42  1  0  0  0  0
 19 20  1  0  0  0  0
 20 21  2  0  0  0  0
 20 22  1  0  0  0  0
 22 27  1  0  0  0  0
 22 23  2  0  0  0  0
 23 24  1  0  0  0  0
 23 43  1  0  0  0  0
 24 25  2  0  0  0  0
 24 44  1  0  0  0  0
 25 26  1  0  0  0  0
 25 45  1  0  0  0  0
 26 27  2  0  0  0  0
 26 46  1  0  0  0  0
 27 47  1  0  0  0  0
 28 33  1  0  0  0  0
 28 29  2  0  0  0  0
 29 30  1  0  0  0  0
 29 48  1  0  0  0  0
 30 31  2  0  0  0  0
 30 49  1  0  0  0  0
 31 32  1  0  0  0  0
 31 50  1  0  0  0  0
 32 33  2  0  0  0  0
 32 51  1  0  0  0  0
 33 52  1  0  0  0  0
M  CHG  1  13  -1
M  END
> <s_m_source_file>
AV-unprocessed.smi

> <i_m_source_file_index>
99

> <i_lp_mmshare_version>
43012

> <i_f3d_flags>
0

> <s_epik_input>
W2NIXTFbY0hdW2NIXVtjSF1bY0hdYzFDKD1PKU9bQ0gyXVtDQEBIXTJPW0NAQEhdKG4zW2NIXVtjSF1jKD1PKVtuSF1jMz1PKVtDQEBIXShbT0hdKVtDQEhdMk9DKD1PKWM0W2NIXVtjSF1bY0hdW2NIXVtjSF00

> <s_epik_cmdline>
J2VwaWtfcHl0aG9uJywgJy1waCcsICc3LjAnLCAnLXRuJywgJzgnLCAnLW1hJywgJzIwMCcsICctbWV0YWxfYmluZGluZycsICctaW1hZScsICc8aW5maWxlLm1hZT4nLCAnLW9tYWUnLCAnPG91dGZpbGUubWFlPic=

> <r_lp_tautomer_probability>
1

> <r_epik_Ionization_Penalty>
2.89159

> <r_epik_Ionization_Penalty_Charging>
2.1077e-08

> <r_epik_Ionization_Penalty_Neutral>
2.89159

> <r_epik_State_Penalty>
2.88671

> <r_epik_Charging_Adjusted_Penalty>
2.88671

> <i_epik_Tot_Q>
-1

> <i_epik_Tot_abs_Q>
1

> <r_epik_Metal_State_Penalty>
0.0727308

> <b_epik_Metal_Only>
1

> <s_epik_Chemistry_Notes>
This compound has an ester and may undergo hydrolysis at high or low pH. This compound contains an acetal/aminal-like group ( X-CH(R)-Y where X, Y are N, S, or O) that may be acid/base labile, releasing an aldehyde.

> <s_lp_Force_Field>
OPLS_2005

> <r_lp_Energy>
51.3472

> <b_lp_Chiralities_Consistent>
1

> <s_lp_Variant>
AV-unprocessed.smi:99-17

> <Gold.Version>
5.8.1

> <Gold.Id.Protein>
6NUR|6NUR_protein|mol2

> <Gold.PLP.Fitness>
52.2928

> <Gold.PLP.PLP>
-46.5808

> <Gold.PLP.part.hbond>
-4.7062

> <Gold.PLP.part.metal>
0.0000

> <Gold.PLP.part.buried>
-6.3346

> <Gold.PLP.part.nonpolar>
-35.1865

> <Gold.PLP.part.repulsive>
0.3598

> <Gold.PLP.ligand.clash>
0.0000

> <Gold.PLP.ligand.torsion>
2.9293

> <Gold.PLP.Chemscore.Hbond>
3.7680

> <Gold.PLP.Chemscore.CHOScore>
0.0000

> <Gold.PLP.Chemscore.Metal>
0.0000

> <Gold.Chemscore.Hbonds>
donor molecule, donor type, donor heavy atom, donor atom, acceptor molecule, acceptor atom, score
      L1  H    17    41       P1  7948  0.75
      P1  H  6896  6907       L1     1  0.78
      P1  H  7989  7998       L1    13  1.00
      P1  H  7997  8008       L1    12  1.00

> <Gold.PLP.Chemscore.Internal.Correction>
0.2666

> <Gold.Rescore>
     Score         DG    S(hbond)    S(metal)    S(lipo)     H(rot)  DE(clash)    DE(int)     intcor
     16.37     -19.48       3.16        0.00      98.20       3.13       0.07       3.04       ----

> <Gold.Chemscore.Fitness>
16.3740

> <Gold.Chemscore.DG>
-19.4832

> <Gold.Chemscore.ZeroCoef>
-5.4800

> <Gold.Chemscore.Hbond>
3.1553

> <Gold.Chemscore.Metal>
0.0000

> <Gold.Chemscore.Lipo>
98.1966

> <Gold.Chemscore.Internal_Hbond>
0.0000

> <Gold.Chemscore.DEClash>
0.0685

> <Gold.Chemscore.DEInternal>
3.0407

> <Gold.Chemscore.Rot>
3.1346

> <Gold.Chemscore.Internal.Correction>
   9.000000E+99

> <Gold.Chemscore.Hbonds>
donor molecule, donor type, donor heavy atom, donor atom, acceptor molecule, acceptor atom, score
      L1  H    17    41       P1  7948  0.76
      P1  H  6896  6907       L1     1  0.78
      P1  H  7989  7998       L1    13  0.29
      P1  H  7997  8008       L1    12  0.99

> <Gold.Chemscore.Hbond.Weighted>
-10.5388

> <Gold.Chemscore.Metal.Weighted>
-0.0000

> <Gold.Chemscore.Lipo.Weighted>
-11.4890

> <Gold.Chemscore.Internal_Hbond.Weighted>
0.0000

> <Gold.Chemscore.DEClash.Weighted>
0.0685

> <Gold.Chemscore.DEInternal.Weighted>
3.0407

> <Gold.Chemscore.Rot.Weighted>
8.0246

> <Gold.Chemscore.Internal.Correction.Weighted>
   9.000000E+99

> <Gold.Protein.RotatedTorsions>
[ 6907 6896 6895 6894 ] final -118.49 input  -60.11 | X-H torsion
[ 7974 7965 7964 7962 ] final -171.98 input  175.53 | X-H torsion
[ 8008 7997 7996 7995 ] final    8.33 input   59.86 | X-H torsion
[ 10167 10162 10161 10158 ] final -103.25 input  -65.29 | X-H torsion
[ 10718 10713 10712 10709 ] final -147.63 input   66.30 | X-H torsion
[ 10763 10752 10751 10750 ] final  126.27 input  -60.55 | X-H torsion
[ 11005 11000 10999 10996 ] final   77.73 input  -57.11 | X-H torsion

> <Gold.Protein.ActiveResidues>
 VAL166  LYS551  ARG553  GLY616  TRP617  ASP618  TYR619  PRO620  LYS621  CYS622 
 ASP623  PHE694  ASN695  SER759  ASP760  ASP761  ALA762  ILE779  LEU786  VAL792 
 PHE793  MET794  SER795  GLU796  ALA797  LYS798  CYS799  TRP800  GLU811  SER814 

> <Gold.Protein.RotatedAtoms>
  150.8224  133.8230  159.3132 H   0  0  0  0  0  0  0  0  0  0  0  0  # atno 6907 bound_to 6896
  151.5984  135.1047  160.0064 H   0  0  0  0  0  0  0  0  0  0  0  0  # atno 6908 bound_to 6896
  152.4312  133.7240  159.6606 H   0  0  0  0  0  0  0  0  0  0  0  0  # atno 6909 bound_to 6896
  144.7151  140.1841  143.6355 H   0  0  0  0  0  0  0  0  0  0  0  0  # atno 7974 bound_to 7965
  154.7654  140.2792  155.6180 H   0  0  0  0  0  0  0  0  0  0  0  0  # atno 8008 bound_to 7997
  156.2923  140.2652  156.2370 H   0  0  0  0  0  0  0  0  0  0  0  0  # atno 8009 bound_to 7997
  154.9966  140.0373  157.2332 H   0  0  0  0  0  0  0  0  0  0  0  0  # atno 8010 bound_to 7997
  140.2219  143.3669  152.0962 H   0  0  0  0  0  0  0  0  0  0  0  0  # atno 10167 bound_to 10162
  156.4100  130.7976  151.2193 H   0  0  0  0  0  0  0  0  0  0  0  0  # atno 10718 bound_to 10713
  153.6906  135.3299  155.3201 H   0  0  0  0  0  0  0  0  0  0  0  0  # atno 10763 bound_to 10752
  154.8441  135.4431  154.1512 H   0  0  0  0  0  0  0  0  0  0  0  0  # atno 10764 bound_to 10752
  153.2553  135.6985  153.7714 H   0  0  0  0  0  0  0  0  0  0  0  0  # atno 10765 bound_to 10752
  139.9242  134.7706  156.1559 H   0  0  0  0  0  0  0  0  0  0  0  0  # atno 11005 bound_to 11000
  145.8829  139.2333  143.1595 LP  0  0  0  0  0  0  0  0  0  0  0  0  # atno 17320 bound_to 7965
  145.9978  140.8547  143.0034 LP  0  0  0  0  0  0  0  0  0  0  0  0  # atno 17321 bound_to 7965
  139.5141  144.6942  151.5675 LP  0  0  0  0  0  0  0  0  0  0  0  0  # atno 17342 bound_to 10162
  140.6248  143.9189  150.6556 LP  0  0  0  0  0  0  0  0  0  0  0  0  # atno 17343 bound_to 10162
  157.7506  131.0260  150.3945 LP  0  0  0  0  0  0  0  0  0  0  0  0  # atno 17370 bound_to 10713
  156.4242  130.3959  149.6804 LP  0  0  0  0  0  0  0  0  0  0  0  0  # atno 17371 bound_to 10713
  141.0787  133.6764  156.2291 LP  0  0  0  0  0  0  0  0  0  0  0  0  # atno 17394 bound_to 11000
  140.6384  134.5191  157.5567 LP  0  0  0  0  0  0  0  0  0  0  0  0  # atno 17395 bound_to 11000

$$$$
