AV-unprocessed.smi:53|AV-procd|sdf|524|dock8
  -GOLD-   2262016393D 1   1.00000     0.00000
 Structure written by MMmdl.
 30 31  0  0  0  0  0  0  0  0  1 V2000
  149.5326  144.8526  155.5196 N   0  0  0  0  0  0  0  0  0  0  0  0
  149.8668  143.5822  155.7858 C   0  0  0  0  0  0  0  0  0  0  0  0
  149.8246  142.5820  154.7431 C   0  0  0  0  0  0  0  0  0  0  0  0
  150.1738  141.3242  155.0911 C   0  0  0  0  0  0  0  0  0  0  0  0
  150.5531  140.9918  156.3838 N   0  0  0  0  0  0  0  0  0  0  0  0
  150.9422  139.5704  156.7354 C   0  0  1  0  0  0  0  0  0  0  0  0
  149.8606  138.7326  156.4554 O   0  0  0  0  0  0  0  0  0  0  0  0
  150.3329  137.5385  155.8441 C   0  0  1  0  0  0  0  0  0  0  0  0
  149.2013  136.8253  155.0829 C   0  0  0  0  0  0  0  0  0  0  0  0
  149.6832  135.6408  154.4846 O   0  0  0  0  0  0  0  0  0  0  0  0
  151.5487  137.9953  155.0246 C   0  0  1  0  0  0  0  0  0  0  0  0
  151.1524  138.5097  153.7638 O   0  0  0  0  0  0  0  0  0  0  0  0
  152.1591  139.0610  155.9305 C   0  0  1  0  0  0  0  0  0  0  0  0
  152.8895  140.0471  155.2209 O   0  0  0  0  0  0  0  0  0  0  0  0
  150.5954  141.9959  157.3817 C   0  0  0  0  0  0  0  0  0  0  0  0
  150.9495  141.7554  158.5353 O   0  0  0  0  0  0  0  0  0  0  0  0
  150.2352  143.2641  157.0117 N   0  0  0  0  0  0  0  0  0  0  0  0
  151.1100  139.5402  157.8131 H   0  0  0  0  0  0  0  0  0  0  0  0
  150.6824  136.8902  156.6502 H   0  0  0  0  0  0  0  0  0  0  0  0
  152.2453  137.1750  154.8483 H   0  0  0  0  0  0  0  0  0  0  0  0
  152.8334  138.5793  156.6399 H   0  0  0  0  0  0  0  0  0  0  0  0
  149.5643  145.5499  156.2492 H   0  0  0  0  0  0  0  0  0  0  0  0
  149.2477  145.1097  154.5855 H   0  0  0  0  0  0  0  0  0  0  0  0
  149.5324  142.7952  153.7249 H   0  0  0  0  0  0  0  0  0  0  0  0
  150.1508  140.5640  154.3244 H   0  0  0  0  0  0  0  0  0  0  0  0
  148.4017  136.5590  155.7743 H   0  0  0  0  0  0  0  0  0  0  0  0
  148.7593  137.4696  154.3226 H   0  0  0  0  0  0  0  0  0  0  0  0
  149.9823  135.8450  153.6116 H   0  0  0  0  0  0  0  0  0  0  0  0
  150.6529  137.8444  153.3151 H   0  0  0  0  0  0  0  0  0  0  0  0
  153.5228  139.6070  154.6742 H   0  0  0  0  0  0  0  0  0  0  0  0
  1  2  1  0  0  0  0
  1 22  1  0  0  0  0
  1 23  1  0  0  0  0
  2 17  2  0  0  0  0
  2  3  1  0  0  0  0
  3  4  2  0  0  0  0
  3 24  1  0  0  0  0
  4  5  1  0  0  0  0
  4 25  1  0  0  0  0
  5  6  1  0  0  0  0
  5 15  1  0  0  0  0
  6 18  1  0  0  0  0
  6 13  1  0  0  0  0
  6  7  1  0  0  0  0
  7  8  1  0  0  0  0
  8 19  1  0  0  0  0
  8  9  1  0  0  0  0
  8 11  1  0  0  0  0
  9 10  1  0  0  0  0
  9 26  1  0  0  0  0
  9 27  1  0  0  0  0
 10 28  1  0  0  0  0
 11 20  1  0  0  0  0
 11 12  1  0  0  0  0
 11 13  1  0  0  0  0
 12 29  1  0  0  0  0
 13 21  1  0  0  0  0
 13 14  1  0  0  0  0
 14 30  1  0  0  0  0
 15 16  2  0  0  0  0
 15 17  1  0  0  0  0
M  END
> <s_m_source_file>
AV-unprocessed.smi

> <i_m_source_file_index>
53

> <i_lp_mmshare_version>
43012

> <i_f3d_flags>
0

> <s_epik_input>
W05IMl1jMVtjSF1bY0hdbihjKD1PKW4xKVtDQEBIXTJPW0NASF0oW0NIMl1bT0hdKVtDQEBIXShbT0hdKVtDQEBIXTJbT0hd

> <s_epik_cmdline>
J2VwaWtfcHl0aG9uJywgJy1waCcsICc3LjAnLCAnLXRuJywgJzgnLCAnLW1hJywgJzIwMCcsICctbWV0YWxfYmluZGluZycsICctaW1hZScsICc8aW5maWxlLm1hZT4nLCAnLW9tYWUnLCAnPG91dGZpbGUubWFlPic=

> <r_lp_tautomer_probability>
0.99996

> <r_epik_Ionization_Penalty>
0.00069087

> <r_epik_Ionization_Penalty_Charging>
2.61959e-08

> <r_epik_Ionization_Penalty_Neutral>
0.000690844

> <r_epik_State_Penalty>
1.15523e-05

> <r_epik_Charging_Adjusted_Penalty>
1.15785e-05

> <i_epik_Tot_Q>
0

> <i_epik_Tot_abs_Q>
0

> <r_epik_Metal_State_Penalty>
-0

> <b_epik_Metal_Only>
0

> <s_epik_Chemistry_Notes>
This compound contains an acetal/aminal-like group ( X-CH(R)-Y where X, Y are N, S, or O) that may be acid/base labile, releasing an aldehyde.

> <s_lp_Force_Field>
OPLS_2005

> <r_lp_Energy>
39.3068

> <b_lp_Chiralities_Consistent>
1

> <s_lp_Variant>
AV-unprocessed.smi:53-12

> <Gold.Version>
5.8.1

> <Gold.Id.Protein>
6NUR|6NUR_protein|mol2

> <Gold.PLP.Fitness>
33.9688

> <Gold.PLP.PLP>
-24.9272

> <Gold.PLP.part.hbond>
-4.5377

> <Gold.PLP.part.metal>
0.0000

> <Gold.PLP.part.buried>
-1.6149

> <Gold.PLP.part.nonpolar>
-18.0410

> <Gold.PLP.part.repulsive>
0.0428

> <Gold.PLP.ligand.clash>
0.0000

> <Gold.PLP.ligand.torsion>
0.0033

> <Gold.PLP.Chemscore.Hbond>
3.0147

> <Gold.PLP.Chemscore.CHOScore>
0.0000

> <Gold.PLP.Chemscore.Metal>
0.0000

> <Gold.Chemscore.Hbonds>
donor molecule, donor type, donor heavy atom, donor atom, acceptor molecule, acceptor atom, score
      L1  H    10    28       P1  7948  0.37
      P1  H  7989  7998       L1    14  0.14

> <Gold.PLP.Chemscore.Internal.Correction>
0.0040

> <Gold.Rescore>
     Score         DG    S(hbond)    S(metal)    S(lipo)     H(rot)  DE(clash)    DE(int)     intcor
      6.76      -7.69       2.22        0.00      36.66       3.71       0.80       0.13       ----

> <Gold.Chemscore.Fitness>
6.7559

> <Gold.Chemscore.DG>
-7.6902

> <Gold.Chemscore.ZeroCoef>
-5.4800

> <Gold.Chemscore.Hbond>
2.2209

> <Gold.Chemscore.Metal>
0.0000

> <Gold.Chemscore.Lipo>
36.6562

> <Gold.Chemscore.Internal_Hbond>
0.0000

> <Gold.Chemscore.DEClash>
0.8002

> <Gold.Chemscore.DEInternal>
0.1341

> <Gold.Chemscore.Rot>
3.7095

> <Gold.Chemscore.Internal.Correction>
   9.000000E+99

> <Gold.Chemscore.Hbonds>
donor molecule, donor type, donor heavy atom, donor atom, acceptor molecule, acceptor atom, score
      L1  H    10    28       P1  7948  0.02
      P1  H  7989  7998       L1    12  0.09

> <Gold.Chemscore.Hbond.Weighted>
-7.4178

> <Gold.Chemscore.Metal.Weighted>
-0.0000

> <Gold.Chemscore.Lipo.Weighted>
-4.2888

> <Gold.Chemscore.Internal_Hbond.Weighted>
0.0000

> <Gold.Chemscore.DEClash.Weighted>
0.8002

> <Gold.Chemscore.DEInternal.Weighted>
0.1341

> <Gold.Chemscore.Rot.Weighted>
9.4964

> <Gold.Chemscore.Internal.Correction.Weighted>
   9.000000E+99

> <Gold.Protein.RotatedTorsions>
[ 6907 6896 6895 6894 ] final  -41.73 input  -60.11 | X-H torsion
[ 7974 7965 7964 7962 ] final   84.58 input  175.53 | X-H torsion
[ 8008 7997 7996 7995 ] final -133.53 input   59.86 | X-H torsion
[ 10167 10162 10161 10158 ] final  -30.18 input  -65.29 | X-H torsion
[ 10718 10713 10712 10709 ] final   92.64 input   66.30 | X-H torsion
[ 10763 10752 10751 10750 ] final  -18.49 input  -60.55 | X-H torsion
[ 11005 11000 10999 10996 ] final -101.99 input  -57.11 | X-H torsion

> <Gold.Protein.ActiveResidues>
 VAL166  LYS551  ARG553  GLY616  TRP617  ASP618  TYR619  PRO620  LYS621  CYS622 
 ASP623  PHE694  ASN695  SER759  ASP760  ASP761  ALA762  ILE779  LEU786  VAL792 
 PHE793  MET794  SER795  GLU796  ALA797  LYS798  CYS799  TRP800  GLU811  SER814 

> <Gold.Protein.RotatedAtoms>
  150.9633  134.9018  159.7743 H   0  0  0  0  0  0  0  0  0  0  0  0  # atno 6907 bound_to 6896
  152.5164  134.3642  159.9305 H   0  0  0  0  0  0  0  0  0  0  0  0  # atno 6908 bound_to 6896
  151.3653  133.3834  159.2728 H   0  0  0  0  0  0  0  0  0  0  0  0  # atno 6909 bound_to 6896
  145.5968  139.2346  143.2268 H   0  0  0  0  0  0  0  0  0  0  0  0  # atno 7974 bound_to 7965
  155.3470  140.0475  157.3045 H   0  0  0  0  0  0  0  0  0  0  0  0  # atno 8008 bound_to 7997
  154.5247  140.2237  155.8876 H   0  0  0  0  0  0  0  0  0  0  0  0  # atno 8009 bound_to 7997
  156.1727  140.3092  155.9009 H   0  0  0  0  0  0  0  0  0  0  0  0  # atno 8010 bound_to 7997
  140.7252  143.3869  151.1499 H   0  0  0  0  0  0  0  0  0  0  0  0  # atno 10167 bound_to 10162
  157.6958  131.0450  150.3912 H   0  0  0  0  0  0  0  0  0  0  0  0  # atno 10718 bound_to 10713
  153.5901  135.7002  153.5427 H   0  0  0  0  0  0  0  0  0  0  0  0  # atno 10763 bound_to 10752
  153.3186  135.4080  155.1397 H   0  0  0  0  0  0  0  0  0  0  0  0  # atno 10764 bound_to 10752
  154.8602  135.3690  154.5433 H   0  0  0  0  0  0  0  0  0  0  0  0  # atno 10765 bound_to 10752
  141.1208  133.8522  157.1302 H   0  0  0  0  0  0  0  0  0  0  0  0  # atno 11005 bound_to 11000
  146.1606  140.6794  142.9279 LP  0  0  0  0  0  0  0  0  0  0  0  0  # atno 17320 bound_to 7965
  144.7327  140.4719  143.6926 LP  0  0  0  0  0  0  0  0  0  0  0  0  # atno 17321 bound_to 7965
  139.7468  143.8840  152.3065 LP  0  0  0  0  0  0  0  0  0  0  0  0  # atno 17342 bound_to 10162
  139.8680  144.7083  150.9021 LP  0  0  0  0  0  0  0  0  0  0  0  0  # atno 17343 bound_to 10162
  156.4315  130.3973  149.6757 LP  0  0  0  0  0  0  0  0  0  0  0  0  # atno 17370 bound_to 10713
  156.3973  130.7657  151.2662 LP  0  0  0  0  0  0  0  0  0  0  0  0  # atno 17371 bound_to 10713
  140.0164  134.9965  157.0502 LP  0  0  0  0  0  0  0  0  0  0  0  0  # atno 17394 bound_to 11000
  140.4513  134.1579  155.7182 LP  0  0  0  0  0  0  0  0  0  0  0  0  # atno 17395 bound_to 11000

$$$$
