AV-unprocessed.smi:283|AV-procd|sdf|2152|dock4
  -GOLD-   2262021493D 1   1.00000     0.00000
 Structure written by MMmdl.
 48 51  0  0  0  0  0  0  0  0  1 V2000
  148.0279  131.6572  159.4126 C   0  0  0  0  0  0  0  0  0  0  0  0
  147.7985  133.1069  158.9422 C   0  0  1  0  0  0  0  0  0  0  0  0
  146.6351  133.2238  158.0651 N   0  0  0  0  0  0  0  0  0  0  0  0
  146.7296  133.0393  156.7299 C   0  0  0  0  0  0  0  0  0  0  0  0
  147.2894  131.9163  156.2094 N   0  0  0  0  0  0  0  0  0  0  0  0
  147.3704  131.7635  154.8848 C   0  0  0  0  0  0  0  0  0  0  0  0
  146.9633  132.5943  153.9229 N   0  0  0  0  0  0  0  0  0  0  0  0
  146.4052  133.7276  154.4386 C   0  0  0  0  0  0  0  0  0  0  0  0
  146.2559  134.0219  155.8230 C   0  0  0  0  0  0  0  0  0  0  0  0
  145.6510  135.2614  155.9789 N   0  0  0  0  0  0  0  0  0  0  0  0
  145.4561  135.6724  154.7551 C   0  0  0  0  0  0  0  0  0  0  0  0
  145.8718  134.8095  153.7650 N   0  0  0  0  0  0  0  0  0  0  0  0
  145.7786  135.0229  152.2863 C   0  0  1  0  0  0  0  0  0  0  0  0
  145.5783  133.7788  151.6783 O   0  0  0  0  0  0  0  0  0  0  0  0
  144.3597  133.7946  150.9424 C   0  0  2  0  0  0  0  0  0  0  0  0
  144.3169  132.7414  149.8149 C   0  0  0  0  0  0  0  0  0  0  0  0
  143.0400  132.1697  149.6215 O   0  0  0  0  0  0  0  0  0  0  0  0
  144.0721  135.2722  150.6414 C   0  0  2  0  0  0  0  0  0  0  0  0
  144.7707  135.7277  149.4943 O   0  0  0  0  0  0  0  0  0  0  0  0
  144.5884  135.9288  151.9197 C   0  0  2  0  0  0  0  0  0  0  0  0
  144.9521  137.2791  151.7037 O   0  0  0  0  0  0  0  0  0  0  0  0
  147.7433  134.0689  160.1282 C   0  0  0  0  0  0  0  0  0  0  0  0
  147.4734  133.5303  161.4065 C   0  0  0  0  0  0  0  0  0  0  0  0
  147.4115  134.3604  162.5413 C   0  0  0  0  0  0  0  0  0  0  0  0
  147.6152  135.7451  162.4097 C   0  0  0  0  0  0  0  0  0  0  0  0
  147.8785  136.2958  161.1424 C   0  0  0  0  0  0  0  0  0  0  0  0
  147.9439  135.4708  160.0011 C   0  0  0  0  0  0  0  0  0  0  0  0
  148.2650  136.2265  158.4780 Cl  0  0  0  0  0  0  0  0  0  0  0  0
  146.7471  135.4257  151.9861 H   0  0  0  0  0  0  0  0  0  0  0  0
  143.5940  133.4811  151.6516 H   0  0  0  0  0  0  0  0  0  0  0  0
  143.0074  135.4541  150.4916 H   0  0  0  0  0  0  0  0  0  0  0  0
  143.8254  135.8722  152.6967 H   0  0  0  0  0  0  0  0  0  0  0  0
  148.9273  131.5869  160.0249 H   0  0  0  0  0  0  0  0  0  0  0  0
  148.1571  130.9752  158.5726 H   0  0  0  0  0  0  0  0  0  0  0  0
  147.1949  131.2844  160.0077 H   0  0  0  0  0  0  0  0  0  0  0  0
  148.6694  133.3992  158.3541 H   0  0  0  0  0  0  0  0  0  0  0  0
  145.7468  133.3127  158.5378 H   0  0  0  0  0  0  0  0  0  0  0  0
  147.8265  130.8447  154.5473 H   0  0  0  0  0  0  0  0  0  0  0  0
  144.9959  136.6259  154.5395 H   0  0  0  0  0  0  0  0  0  0  0  0
  144.6470  133.1881  148.8766 H   0  0  0  0  0  0  0  0  0  0  0  0
  145.0145  131.9349  150.0422 H   0  0  0  0  0  0  0  0  0  0  0  0
  142.3932  132.8574  149.6656 H   0  0  0  0  0  0  0  0  0  0  0  0
  145.0016  134.9770  148.9676 H   0  0  0  0  0  0  0  0  0  0  0  0
  144.3124  137.6679  151.1264 H   0  0  0  0  0  0  0  0  0  0  0  0
  147.3141  132.4684  161.5252 H   0  0  0  0  0  0  0  0  0  0  0  0
  147.2081  133.9338  163.5126 H   0  0  0  0  0  0  0  0  0  0  0  0
  147.5688  136.3846  163.2788 H   0  0  0  0  0  0  0  0  0  0  0  0
  148.0309  137.3608  161.0456 H   0  0  0  0  0  0  0  0  0  0  0  0
  1  2  1  0  0  0  0
  1 33  1  0  0  0  0
  1 34  1  0  0  0  0
  1 35  1  0  0  0  0
  2  3  1  0  0  0  0
  2 22  1  0  0  0  0
  2 36  1  0  0  0  0
  3  4  1  0  0  0  0
  3 37  1  0  0  0  0
  4  9  1  0  0  0  0
  4  5  2  0  0  0  0
  5  6  1  0  0  0  0
  6  7  2  0  0  0  0
  6 38  1  0  0  0  0
  7  8  1  0  0  0  0
  8 12  1  0  0  0  0
  8  9  2  0  0  0  0
  9 10  1  0  0  0  0
 10 11  2  0  0  0  0
 11 12  1  0  0  0  0
 11 39  1  0  0  0  0
 12 13  1  0  0  0  0
 13 29  1  0  0  0  0
 13 20  1  0  0  0  0
 13 14  1  0  0  0  0
 14 15  1  0  0  0  0
 15 30  1  0  0  0  0
 15 16  1  0  0  0  0
 15 18  1  0  0  0  0
 16 17  1  0  0  0  0
 16 40  1  0  0  0  0
 16 41  1  0  0  0  0
 17 42  1  0  0  0  0
 18 31  1  0  0  0  0
 18 19  1  0  0  0  0
 18 20  1  0  0  0  0
 19 43  1  0  0  0  0
 20 32  1  0  0  0  0
 20 21  1  0  0  0  0
 21 44  1  0  0  0  0
 22 27  1  0  0  0  0
 22 23  2  0  0  0  0
 23 24  1  0  0  0  0
 23 45  1  0  0  0  0
 24 25  2  0  0  0  0
 24 46  1  0  0  0  0
 25 26  1  0  0  0  0
 25 47  1  0  0  0  0
 26 27  2  0  0  0  0
 26 48  1  0  0  0  0
 27 28  1  0  0  0  0
M  END
> <s_m_source_file>
AV-unprocessed.smi

> <i_m_source_file_index>
283

> <i_lp_mmshare_version>
43012

> <i_f3d_flags>
0

> <s_epik_input>
Q2xjMVtjSF1bY0hdW2NIXVtjSF1jMVtDQEhdKFtDSDNdKVtOSF1jKG5bY0hdbjIpYyhjMjMpbltjSF1uM1tDQEBIXTRPW0NASF0oW0NIMl1bT0hdKVtDQEBIXShbT0hdKVtDQEhdNFtPSF0=

> <s_epik_cmdline>
J2VwaWtfcHl0aG9uJywgJy1waCcsICc3LjAnLCAnLXRuJywgJzgnLCAnLW1hJywgJzIwMCcsICctbWV0YWxfYmluZGluZycsICctaW1hZScsICc8aW5maWxlLm1hZT4nLCAnLW9tYWUnLCAnPG91dGZpbGUubWFlPic=

> <r_lp_tautomer_probability>
1

> <r_epik_Ionization_Penalty>
0.000266407

> <r_epik_Ionization_Penalty_Charging>
0

> <r_epik_Ionization_Penalty_Neutral>
0.000266407

> <r_epik_State_Penalty>
-0

> <r_epik_Charging_Adjusted_Penalty>
0

> <i_epik_Tot_Q>
0

> <i_epik_Tot_abs_Q>
0

> <r_epik_Metal_State_Penalty>
-0

> <b_epik_Metal_Only>
0

> <s_epik_Chemistry_Notes>
This compound contains an acetal/aminal-like group ( X-CH(R)-Y where X, Y are N, S, or O) that may be acid/base labile, releasing an aldehyde.

> <s_lp_Force_Field>
OPLS_2005

> <r_lp_Energy>
54.2889

> <b_lp_Chiralities_Consistent>
1

> <s_lp_Variant>
AV-unprocessed.smi:283-28

> <Gold.Version>
5.8.1

> <Gold.Id.Protein>
6NUR|6NUR_protein|mol2

> <Gold.PLP.Fitness>
44.9931

> <Gold.PLP.PLP>
-40.5162

> <Gold.PLP.part.hbond>
-5.0440

> <Gold.PLP.part.metal>
0.0000

> <Gold.PLP.part.buried>
-8.6553

> <Gold.PLP.part.nonpolar>
-27.6149

> <Gold.PLP.part.repulsive>
0.2202

> <Gold.PLP.ligand.clash>
0.0000

> <Gold.PLP.ligand.torsion>
2.4241

> <Gold.PLP.Chemscore.Hbond>
3.0705

> <Gold.PLP.Chemscore.CHOScore>
0.0000

> <Gold.PLP.Chemscore.Metal>
0.0000

> <Gold.Chemscore.Hbonds>
donor molecule, donor type, donor heavy atom, donor atom, acceptor molecule, acceptor atom, score
      L1  H    17    42       P1 10186  0.86
      L1  H    19    43       P1  7921  0.61
      L1  H    21    44       P1 10171  1.00
      P1  H 10785 10796       L1    17  0.54

> <Gold.PLP.Chemscore.Internal.Correction>
0.1136

> <Gold.Rescore>
     Score         DG    S(hbond)    S(metal)    S(lipo)     H(rot)  DE(clash)    DE(int)     intcor
     10.83     -14.27       3.12        0.00      75.74       4.10       0.00       3.43       ----

> <Gold.Chemscore.Fitness>
10.8344

> <Gold.Chemscore.DG>
-14.2694

> <Gold.Chemscore.ZeroCoef>
-5.4800

> <Gold.Chemscore.Hbond>
3.1184

> <Gold.Chemscore.Metal>
0.0000

> <Gold.Chemscore.Lipo>
75.7424

> <Gold.Chemscore.Internal_Hbond>
0.0000

> <Gold.Chemscore.DEClash>
0.0000

> <Gold.Chemscore.DEInternal>
3.4349

> <Gold.Chemscore.Rot>
4.0968

> <Gold.Chemscore.Internal.Correction>
   9.000000E+99

> <Gold.Chemscore.Hbonds>
donor molecule, donor type, donor heavy atom, donor atom, acceptor molecule, acceptor atom, score
      L1  H    17    42       P1 10186  0.84
      L1  H    19    43       P1  7921  0.60
      L1  H    21    44       P1 10171  0.97
      P1  H 10785 10796       L1    17  0.42

> <Gold.Chemscore.Hbond.Weighted>
-10.4154

> <Gold.Chemscore.Metal.Weighted>
-0.0000

> <Gold.Chemscore.Lipo.Weighted>
-8.8619

> <Gold.Chemscore.Internal_Hbond.Weighted>
0.0000

> <Gold.Chemscore.DEClash.Weighted>
0.0000

> <Gold.Chemscore.DEInternal.Weighted>
3.4349

> <Gold.Chemscore.Rot.Weighted>
10.4879

> <Gold.Chemscore.Internal.Correction.Weighted>
   9.000000E+99

> <Gold.Protein.RotatedTorsions>
[ 6907 6896 6895 6894 ] final -135.64 input  -60.11 | X-H torsion
[ 7974 7965 7964 7962 ] final  -83.80 input  175.53 | X-H torsion
[ 8008 7997 7996 7995 ] final  -20.64 input   59.86 | X-H torsion
[ 10167 10162 10161 10158 ] final -158.96 input  -65.29 | X-H torsion
[ 10718 10713 10712 10709 ] final  -22.30 input   66.30 | X-H torsion
[ 10763 10752 10751 10750 ] final   -5.32 input  -60.55 | X-H torsion
[ 11005 11000 10999 10996 ] final  -69.28 input  -57.11 | X-H torsion

> <Gold.Protein.ActiveResidues>
 VAL166  LYS551  ARG553  GLY616  TRP617  ASP618  TYR619  PRO620  LYS621  CYS622 
 ASP623  PHE694  ASN695  SER759  ASP760  ASP761  ALA762  ILE779  LEU786  VAL792 
 PHE793  MET794  SER795  GLU796  ALA797  LYS798  CYS799  TRP800  GLU811  SER814 

> <Gold.Protein.RotatedAtoms>
  151.0004  133.6062  159.2695 H   0  0  0  0  0  0  0  0  0  0  0  0  # atno 6907 bound_to 6896
  151.3250  135.0827  159.9329 H   0  0  0  0  0  0  0  0  0  0  0  0  # atno 6908 bound_to 6896
  152.5272  133.9644  159.7786 H   0  0  0  0  0  0  0  0  0  0  0  0  # atno 6909 bound_to 6896
  145.5152  140.9536  143.1685 H   0  0  0  0  0  0  0  0  0  0  0  0  # atno 7974 bound_to 7965
  154.4756  140.2056  155.9885 H   0  0  0  0  0  0  0  0  0  0  0  0  # atno 8008 bound_to 7997
  156.1084  140.3233  155.8008 H   0  0  0  0  0  0  0  0  0  0  0  0  # atno 8009 bound_to 7997
  155.4677  140.0529  157.2974 H   0  0  0  0  0  0  0  0  0  0  0  0  # atno 8010 bound_to 7997
  139.6652  143.9843  152.2250 H   0  0  0  0  0  0  0  0  0  0  0  0  # atno 10167 bound_to 10162
  156.5065  130.4600  149.6672 H   0  0  0  0  0  0  0  0  0  0  0  0  # atno 10718 bound_to 10713
  153.3970  135.7003  153.6454 H   0  0  0  0  0  0  0  0  0  0  0  0  # atno 10763 bound_to 10752
  153.5003  135.3653  155.2537 H   0  0  0  0  0  0  0  0  0  0  0  0  # atno 10764 bound_to 10752
  154.8707  135.4110  154.3297 H   0  0  0  0  0  0  0  0  0  0  0  0  # atno 10765 bound_to 10752
  141.1550  133.6760  156.6575 H   0  0  0  0  0  0  0  0  0  0  0  0  # atno 11005 bound_to 11000
  144.7706  139.6744  143.7196 LP  0  0  0  0  0  0  0  0  0  0  0  0  # atno 17320 bound_to 7965
  146.2141  139.5518  142.9661 LP  0  0  0  0  0  0  0  0  0  0  0  0  # atno 17321 bound_to 7965
  139.9592  144.6569  150.8096 LP  0  0  0  0  0  0  0  0  0  0  0  0  # atno 17342 bound_to 10162
  140.7596  143.3133  151.2793 LP  0  0  0  0  0  0  0  0  0  0  0  0  # atno 17343 bound_to 10162
  156.3282  130.7317  151.2242 LP  0  0  0  0  0  0  0  0  0  0  0  0  # atno 17370 bound_to 10713
  157.7456  131.0437  150.4757 LP  0  0  0  0  0  0  0  0  0  0  0  0  # atno 17371 bound_to 10713
  140.3273  134.7958  157.4299 LP  0  0  0  0  0  0  0  0  0  0  0  0  # atno 17394 bound_to 11000
  140.1046  134.5426  155.8321 LP  0  0  0  0  0  0  0  0  0  0  0  0  # atno 17395 bound_to 11000

$$$$
