AV-unprocessed.smi:3189|AV-procd|sdf|12192|dock4
  -GOLD-   2272018 33D 1   1.00000     0.00000
 Structure written by MMmdl.
 31 32  0  0  0  0  0  0  0  0  2 V2000
  147.0121  139.3100  152.9055 C   0  0  0  0  0  0  0  0  0  0  0  0
  148.3387  139.4759  153.6215 C   0  0  0  0  0  0  0  0  0  0  0  0
  149.3006  138.5573  153.3825 N   0  3  0  0  0  0  0  0  0  0  0  0
  150.5161  138.5962  153.9667 C   0  0  0  0  0  0  0  0  0  0  0  0
  150.8298  139.6321  154.8680 C   0  0  0  0  0  0  0  0  0  0  0  0
  149.8637  140.6329  155.1419 C   0  0  0  0  0  0  0  0  0  0  0  0
  150.0909  141.7021  156.0515 N   0  0  0  0  0  0  0  0  0  0  0  0
  150.8261  141.7079  157.1806 C   0  0  0  0  0  0  0  0  0  0  0  0
  151.4601  140.7441  157.6054 O   0  0  0  0  0  0  0  0  0  0  0  0
  150.8774  142.9025  157.7951 N   0  0  0  0  0  0  0  0  0  0  0  0
  151.5713  143.2301  159.0052 C   0  0  1  0  0  0  0  0  0  0  0  0
  152.9457  142.6268  159.1967 C   0  0  0  0  0  0  0  0  0  0  0  0
  152.8086  144.1053  158.9401 C   0  0  1  0  0  0  0  0  0  0  0  0
  153.2957  144.7139  157.6401 C   0  0  0  0  0  0  0  0  0  0  0  0
  148.5955  140.5416  154.5164 C   0  0  0  0  0  0  0  0  0  0  0  0
  147.3712  141.7248  154.8339 Cl  0  0  0  0  0  0  0  0  0  0  0  0
  146.8214  140.1667  152.2584 H   0  0  0  0  0  0  0  0  0  0  0  0
  146.1976  139.2342  153.6266 H   0  0  0  0  0  0  0  0  0  0  0  0
  147.0014  138.4106  152.2887 H   0  0  0  0  0  0  0  0  0  0  0  0
  151.1953  137.7987  153.7028 H   0  0  0  0  0  0  0  0  0  0  0  0
  151.8002  139.6330  155.3408 H   0  0  0  0  0  0  0  0  0  0  0  0
  149.7154  142.5960  155.7695 H   0  0  0  0  0  0  0  0  0  0  0  0
  150.4551  143.6801  157.3078 H   0  0  0  0  0  0  0  0  0  0  0  0
  150.9743  143.2954  159.9138 H   0  0  0  0  0  0  0  0  0  0  0  0
  153.2241  142.3182  160.2023 H   0  0  0  0  0  0  0  0  0  0  0  0
  153.3472  142.0097  158.3948 H   0  0  0  0  0  0  0  0  0  0  0  0
  152.9620  144.7547  159.8001 H   0  0  0  0  0  0  0  0  0  0  0  0
  153.2057  144.0065  156.8153 H   0  0  0  0  0  0  0  0  0  0  0  0
  154.3431  145.0005  157.7330 H   0  0  0  0  0  0  0  0  0  0  0  0
  152.7118  145.6032  157.4021 H   0  0  0  0  0  0  0  0  0  0  0  0
  149.0964  137.7960  152.7343 H   0  0  0  0  0  0  0  0  0  0  0  0
  1  2  1  0  0  0  0
  1 17  1  0  0  0  0
  1 18  1  0  0  0  0
  1 19  1  0  0  0  0
  2 15  1  0  0  0  0
  2  3  2  0  0  0  0
  3  4  1  0  0  0  0
  3 31  1  0  0  0  0
  4  5  2  0  0  0  0
  4 20  1  0  0  0  0
  5  6  1  0  0  0  0
  5 21  1  0  0  0  0
  6  7  1  0  0  0  0
  6 15  2  0  0  0  0
  7  8  1  0  0  0  0
  7 22  1  0  0  0  0
  8  9  2  0  0  0  0
  8 10  1  0  0  0  0
 10 11  1  0  0  0  0
 10 23  1  0  0  0  0
 11 13  1  0  0  0  0
 11 12  1  0  0  0  0
 11 24  1  0  0  0  0
 12 13  1  0  0  0  0
 12 25  1  0  0  0  0
 12 26  1  0  0  0  0
 13 14  1  0  0  0  0
 13 27  1  0  0  0  0
 14 28  1  0  0  0  0
 14 29  1  0  0  0  0
 14 30  1  0  0  0  0
 15 16  1  0  0  0  0
M  CHG  1   3   1
M  END
> <s_m_source_file>
AV-unprocessed.smi

> <i_m_source_file_index>
3189

> <i_lp_mmshare_version>
43012

> <i_f3d_flags>
0

> <s_epik_input>
W0NIM11jMW5bY0hdW2NIXWMoYzFDbClbTkhdQyg9TylbTkhdW0NAQEhdMltDSDJdW0NASF0yW0NIM10=

> <s_epik_cmdline>
J2VwaWtfcHl0aG9uJywgJy1waCcsICc3LjAnLCAnLXRuJywgJzgnLCAnLW1hJywgJzIwMCcsICctbWV0YWxfYmluZGluZycsICctaW1hZScsICc8aW5maWxlLm1hZT4nLCAnLW9tYWUnLCAnPG91dGZpbGUubWFlPic=

> <r_epik_Ionization_Penalty>
2.42914

> <r_epik_Ionization_Penalty_Charging>
2.42912

> <r_epik_Ionization_Penalty_Neutral>
2.15137e-05

> <r_epik_State_Penalty>
2.58904

> <r_epik_Charging_Adjusted_Penalty>
5.01816

> <i_epik_Tot_Q>
1

> <i_epik_Tot_abs_Q>
1

> <r_epik_Metal_State_Penalty>
2.59882

> <b_epik_Metal_Only>
0

> <s_lp_Force_Field>
OPLS_2005

> <r_lp_Energy>
38.4709

> <b_lp_Chiralities_Consistent>
1

> <s_lp_Variant>
AV-unprocessed.smi:3189-6

> <Gold.Version>
5.8.1

> <Gold.Id.Protein>
6NUR|6NUR_protein|mol2

> <Gold.PLP.Fitness>
48.4846

> <Gold.PLP.PLP>
-37.2973

> <Gold.PLP.part.hbond>
-4.0000

> <Gold.PLP.part.metal>
0.0000

> <Gold.PLP.part.buried>
-0.5629

> <Gold.PLP.part.nonpolar>
-33.0783

> <Gold.PLP.part.repulsive>
0.2257

> <Gold.PLP.ligand.clash>
0.0000

> <Gold.PLP.ligand.torsion>
0.4257

> <Gold.PLP.Chemscore.Hbond>
4.0000

> <Gold.PLP.Chemscore.CHOScore>
0.0000

> <Gold.PLP.Chemscore.Metal>
0.0000

> <Gold.Chemscore.Hbonds>
donor molecule, donor type, donor heavy atom, donor atom, acceptor molecule, acceptor atom, score
      L1  H     3    31       P1  7948  2.00
      L1  H     7    22       P1  8028  0.37

> <Gold.PLP.Chemscore.Internal.Correction>
0.0387

> <Gold.Rescore>
     Score         DG    S(hbond)    S(metal)    S(lipo)     H(rot)  DE(clash)    DE(int)     intcor
     20.04     -23.99       2.83        0.00      99.19       1.00       1.40       2.55       ----

> <Gold.Chemscore.Fitness>
20.0436

> <Gold.Chemscore.DG>
-23.9943

> <Gold.Chemscore.ZeroCoef>
-5.4800

> <Gold.Chemscore.Hbond>
2.8349

> <Gold.Chemscore.Metal>
0.0000

> <Gold.Chemscore.Lipo>
99.1933

> <Gold.Chemscore.Internal_Hbond>
0.0000

> <Gold.Chemscore.DEClash>
1.3980

> <Gold.Chemscore.DEInternal>
2.5527

> <Gold.Chemscore.Rot>
1.0000

> <Gold.Chemscore.Internal.Correction>
   9.000000E+99

> <Gold.Chemscore.Hbonds>
donor molecule, donor type, donor heavy atom, donor atom, acceptor molecule, acceptor atom, score
      L1  H     3    31       P1  7948  0.99
      L1  H     7    22       P1  8028  0.37
      L1  H    10    23       P1  8028  0.02

> <Gold.Chemscore.Hbond.Weighted>
-9.4687

> <Gold.Chemscore.Metal.Weighted>
-0.0000

> <Gold.Chemscore.Lipo.Weighted>
-11.6056

> <Gold.Chemscore.Internal_Hbond.Weighted>
0.0000

> <Gold.Chemscore.DEClash.Weighted>
1.3980

> <Gold.Chemscore.DEInternal.Weighted>
2.5527

> <Gold.Chemscore.Rot.Weighted>
2.5600

> <Gold.Chemscore.Internal.Correction.Weighted>
   9.000000E+99

> <Gold.Protein.RotatedTorsions>
[ 6907 6896 6895 6894 ] final   11.38 input  -60.11 | X-H torsion
[ 7974 7965 7964 7962 ] final -120.35 input  175.53 | X-H torsion
[ 8008 7997 7996 7995 ] final   82.67 input   59.86 | X-H torsion
[ 10167 10162 10161 10158 ] final -124.42 input  -65.29 | X-H torsion
[ 10718 10713 10712 10709 ] final  122.19 input   66.30 | X-H torsion
[ 10763 10752 10751 10750 ] final  -91.61 input  -60.55 | X-H torsion
[ 11005 11000 10999 10996 ] final -179.95 input  -57.11 | X-H torsion

> <Gold.Protein.ActiveResidues>
 VAL166  LYS551  ARG553  GLY616  TRP617  ASP618  TYR619  PRO620  LYS621  CYS622 
 ASP623  PHE694  ASN695  SER759  ASP760  ASP761  ALA762  ILE779  LEU786  VAL792 
 PHE793  MET794  SER795  GLU796  ALA797  LYS798  CYS799  TRP800  GLU811  SER814 

> <Gold.Protein.RotatedAtoms>
  151.7534  135.0827  160.0334 H   0  0  0  0  0  0  0  0  0  0  0  0  # atno 6907 bound_to 6896
  152.3401  133.6053  159.5879 H   0  0  0  0  0  0  0  0  0  0  0  0  # atno 6908 bound_to 6896
  150.7474  133.9651  159.3569 H   0  0  0  0  0  0  0  0  0  0  0  0  # atno 6909 bound_to 6896
  145.0524  140.8228  143.4201 H   0  0  0  0  0  0  0  0  0  0  0  0  # atno 7974 bound_to 7965
  155.9137  140.3426  155.6119 H   0  0  0  0  0  0  0  0  0  0  0  0  # atno 8008 bound_to 7997
  155.7356  140.0801  157.2288 H   0  0  0  0  0  0  0  0  0  0  0  0  # atno 8009 bound_to 7997
  154.4059  140.1580  156.2546 H   0  0  0  0  0  0  0  0  0  0  0  0  # atno 8010 bound_to 7997
  139.9930  143.5621  152.2334 H   0  0  0  0  0  0  0  0  0  0  0  0  # atno 10167 bound_to 10162
  157.5761  131.1079  150.8277 H   0  0  0  0  0  0  0  0  0  0  0  0  # atno 10718 bound_to 10713
  154.6778  135.5261  153.8222 H   0  0  0  0  0  0  0  0  0  0  0  0  # atno 10763 bound_to 10752
  153.0544  135.6545  154.0624 H   0  0  0  0  0  0  0  0  0  0  0  0  # atno 10764 bound_to 10752
  154.0515  135.2969  155.3319 H   0  0  0  0  0  0  0  0  0  0  0  0  # atno 10765 bound_to 10752
  140.4129  134.6675  157.4623 H   0  0  0  0  0  0  0  0  0  0  0  0  # atno 11005 bound_to 11000
  145.1511  139.2514  143.5440 LP  0  0  0  0  0  0  0  0  0  0  0  0  # atno 17320 bound_to 7965
  146.3519  140.1213  142.8600 LP  0  0  0  0  0  0  0  0  0  0  0  0  # atno 17321 bound_to 7965
  139.6326  144.7646  151.2504 LP  0  0  0  0  0  0  0  0  0  0  0  0  # atno 17342 bound_to 10162
  140.7447  143.6453  150.8298 LP  0  0  0  0  0  0  0  0  0  0  0  0  # atno 17343 bound_to 10162
  156.8736  130.5154  149.5295 LP  0  0  0  0  0  0  0  0  0  0  0  0  # atno 17370 bound_to 10713
  156.0805  130.5817  150.9555 LP  0  0  0  0  0  0  0  0  0  0  0  0  # atno 17371 bound_to 10713
  140.0254  134.6484  155.9180 LP  0  0  0  0  0  0  0  0  0  0  0  0  # atno 17394 bound_to 11000
  141.1814  133.6547  156.5036 LP  0  0  0  0  0  0  0  0  0  0  0  0  # atno 17395 bound_to 11000

$$$$
