AV-unprocessed.smi:1340|AV-procd|sdf|5504|dock2
  -GOLD-   22720 5 83D 1   1.00000     0.00000
 Structure written by MMmdl.
 40 41  0  0  0  0  0  0  0  0  1 V2000
  145.5982  143.4541  153.9348 C   0  0  0  0  0  0  0  0  0  0  0  0
  146.8347  142.5491  153.9671 C   0  0  0  0  0  0  0  0  0  0  0  0
  146.9769  141.7943  155.3005 C   0  0  0  0  0  0  0  0  0  0  0  0
  148.3701  141.1742  155.5205 C   0  0  1  0  0  0  0  0  0  0  0  0
  148.8296  140.3765  154.2887 C   0  0  0  0  0  0  0  0  0  0  0  0
  149.3440  142.2168  155.8374 N   0  0  0  0  0  0  0  0  0  0  0  0
  150.4564  142.0482  156.5696 C   0  0  0  0  0  0  0  0  0  0  0  0
  150.7853  140.9647  157.0550 O   0  0  0  0  0  0  0  0  0  0  0  0
  151.3287  143.2947  156.7630 C   0  0  0  0  0  0  0  0  0  0  0  0
  151.4026  143.7035  158.2072 C   0  0  0  0  0  0  0  0  0  0  0  0
  150.7431  144.7528  158.7996 C   0  0  0  0  0  0  0  0  0  0  0  0
  151.1071  144.8791  160.4982 S   0  0  0  0  0  0  0  0  0  0  0  0
  152.1577  143.4678  160.3432 C   0  0  0  0  0  0  0  0  0  0  0  0
  152.9151  142.8583  161.3871 N   0  0  0  0  0  0  0  0  0  0  0  0
  152.9027  143.3818  162.7494 C   0  0  0  0  0  0  0  0  0  0  0  0
  153.8258  142.4374  163.5132 C   0  0  0  0  0  0  0  0  0  0  0  0
  154.2364  141.5142  162.4817 N   0  0  0  0  0  0  0  0  0  0  0  0
  153.7083  141.7733  161.2834 C   0  0  0  0  0  0  0  0  0  0  0  0
  153.9352  141.1080  160.2746 O   0  0  0  0  0  0  0  0  0  0  0  0
  152.1994  142.9775  159.0994 N   0  0  0  0  0  0  0  0  0  0  0  0
  145.5248  143.9773  152.9813 H   0  0  0  0  0  0  0  0  0  0  0  0
  145.6396  144.2054  154.7239 H   0  0  0  0  0  0  0  0  0  0  0  0
  144.6833  142.8763  154.0687 H   0  0  0  0  0  0  0  0  0  0  0  0
  146.7754  141.8407  153.1403 H   0  0  0  0  0  0  0  0  0  0  0  0
  147.7253  143.1536  153.7924 H   0  0  0  0  0  0  0  0  0  0  0  0
  146.7655  142.4853  156.1179 H   0  0  0  0  0  0  0  0  0  0  0  0
  146.2159  141.0149  155.3595 H   0  0  0  0  0  0  0  0  0  0  0  0
  148.2998  140.4868  156.3658 H   0  0  0  0  0  0  0  0  0  0  0  0
  148.1169  139.5884  154.0448 H   0  0  0  0  0  0  0  0  0  0  0  0
  149.7952  139.9000  154.4606 H   0  0  0  0  0  0  0  0  0  0  0  0
  148.9269  141.0190  153.4130 H   0  0  0  0  0  0  0  0  0  0  0  0
  149.1541  143.1397  155.4743 H   0  0  0  0  0  0  0  0  0  0  0  0
  152.3252  143.0786  156.3768 H   0  0  0  0  0  0  0  0  0  0  0  0
  150.9355  144.1135  156.1580 H   0  0  0  0  0  0  0  0  0  0  0  0
  150.0713  145.4612  158.3381 H   0  0  0  0  0  0  0  0  0  0  0  0
  153.2746  144.4071  162.7721 H   0  0  0  0  0  0  0  0  0  0  0  0
  151.8913  143.3682  163.1583 H   0  0  0  0  0  0  0  0  0  0  0  0
  154.6892  142.9558  163.9315 H   0  0  0  0  0  0  0  0  0  0  0  0
  153.3039  141.9110  164.3129 H   0  0  0  0  0  0  0  0  0  0  0  0
  154.8670  140.7465  162.6628 H   0  0  0  0  0  0  0  0  0  0  0  0
  1  2  1  0  0  0  0
  1 21  1  0  0  0  0
  1 22  1  0  0  0  0
  1 23  1  0  0  0  0
  2  3  1  0  0  0  0
  2 24  1  0  0  0  0
  2 25  1  0  0  0  0
  3  4  1  0  0  0  0
  3 26  1  0  0  0  0
  3 27  1  0  0  0  0
  4  5  1  0  0  0  0
  4  6  1  0  0  0  0
  4 28  1  0  0  0  0
  5 29  1  0  0  0  0
  5 30  1  0  0  0  0
  5 31  1  0  0  0  0
  6  7  1  0  0  0  0
  6 32  1  0  0  0  0
  7  8  2  0  0  0  0
  7  9  1  0  0  0  0
  9 10  1  0  0  0  0
  9 33  1  0  0  0  0
  9 34  1  0  0  0  0
 10 20  1  0  0  0  0
 10 11  2  0  0  0  0
 11 12  1  0  0  0  0
 11 35  1  0  0  0  0
 12 13  1  0  0  0  0
 13 14  1  0  0  0  0
 13 20  2  0  0  0  0
 14 18  1  0  0  0  0
 14 15  1  0  0  0  0
 15 16  1  0  0  0  0
 15 36  1  0  0  0  0
 15 37  1  0  0  0  0
 16 17  1  0  0  0  0
 16 38  1  0  0  0  0
 16 39  1  0  0  0  0
 17 18  1  0  0  0  0
 17 40  1  0  0  0  0
 18 19  2  0  0  0  0
M  END
> <s_m_source_file>
AV-unprocessed.smi

> <i_m_source_file_index>
1340

> <i_lp_mmshare_version>
43012

> <i_f3d_flags>
0

> <s_epik_input>
W0NIM11bQ0gyXVtDSDJdW0NASF0oW0NIM10pW05IXUMoPU8pW0NIMl1jMVtjSF1zYyhuMSlOMltDSDJdW0NIMl1bTkhdQzI9Tw==

> <s_epik_cmdline>
J2VwaWtfcHl0aG9uJywgJy1waCcsICc3LjAnLCAnLXRuJywgJzgnLCAnLW1hJywgJzIwMCcsICctbWV0YWxfYmluZGluZycsICctaW1hZScsICc8aW5maWxlLm1hZT4nLCAnLW9tYWUnLCAnPG91dGZpbGUubWFlPic=

> <r_lp_tautomer_probability>
1

> <r_epik_Ionization_Penalty>
0.00012151

> <r_epik_Ionization_Penalty_Charging>
0

> <r_epik_Ionization_Penalty_Neutral>
0.00012151

> <r_epik_State_Penalty>
-0

> <r_epik_Charging_Adjusted_Penalty>
0

> <i_epik_Tot_Q>
0

> <i_epik_Tot_abs_Q>
0

> <r_epik_Metal_State_Penalty>
-0

> <b_epik_Metal_Only>
0

> <s_lp_Force_Field>
OPLS_2005

> <r_lp_Energy>
32.5305

> <b_lp_Chiralities_Consistent>
1

> <s_lp_Variant>
AV-unprocessed.smi:1340-2

> <Gold.Version>
5.8.1

> <Gold.Id.Protein>
6NUR|6NUR_protein|mol2

> <Gold.PLP.Fitness>
52.2319

> <Gold.PLP.PLP>
-47.6681

> <Gold.PLP.part.hbond>
-2.0000

> <Gold.PLP.part.metal>
0.0000

> <Gold.PLP.part.buried>
-7.0662

> <Gold.PLP.part.nonpolar>
-38.6530

> <Gold.PLP.part.repulsive>
0.1573

> <Gold.PLP.ligand.clash>
0.0000

> <Gold.PLP.ligand.torsion>
0.7077

> <Gold.PLP.Chemscore.Hbond>
1.0000

> <Gold.PLP.Chemscore.CHOScore>
0.9749

> <Gold.PLP.Chemscore.Metal>
0.0000

> <Gold.Chemscore.Hbonds>
donor molecule, donor type, donor heavy atom, donor atom, acceptor molecule, acceptor atom, score
      L1  H     6    32       P1  8028  1.00
      L1  C    11    35       P1  8029  1.00

> <Gold.PLP.Chemscore.Internal.Correction>
0.0545

> <Gold.Rescore>
     Score         DG    S(hbond)    S(metal)    S(lipo)     H(rot)  DE(clash)    DE(int)     intcor
     12.34     -14.76       0.98        0.00      93.15       1.92       0.36       2.06       ----

> <Gold.Chemscore.Fitness>
12.3394

> <Gold.Chemscore.DG>
-14.7581

> <Gold.Chemscore.ZeroCoef>
-5.4800

> <Gold.Chemscore.Hbond>
0.9848

> <Gold.Chemscore.Metal>
0.0000

> <Gold.Chemscore.Lipo>
93.1452

> <Gold.Chemscore.Internal_Hbond>
0.0000

> <Gold.Chemscore.DEClash>
0.3624

> <Gold.Chemscore.DEInternal>
2.0563

> <Gold.Chemscore.Rot>
1.9176

> <Gold.Chemscore.Internal.Correction>
   9.000000E+99

> <Gold.Chemscore.Hbonds>
donor molecule, donor type, donor heavy atom, donor atom, acceptor molecule, acceptor atom, score
      L1  H     6    32       P1  8028  0.96

> <Gold.Chemscore.Hbond.Weighted>
-3.2891

> <Gold.Chemscore.Metal.Weighted>
-0.0000

> <Gold.Chemscore.Lipo.Weighted>
-10.8980

> <Gold.Chemscore.Internal_Hbond.Weighted>
0.0000

> <Gold.Chemscore.DEClash.Weighted>
0.3624

> <Gold.Chemscore.DEInternal.Weighted>
2.0563

> <Gold.Chemscore.Rot.Weighted>
4.9091

> <Gold.Chemscore.Internal.Correction.Weighted>
   9.000000E+99

> <Gold.Protein.RotatedTorsions>
[ 6907 6896 6895 6894 ] final    7.59 input  -60.11 | X-H torsion
[ 7974 7965 7964 7962 ] final  114.61 input  175.53 | X-H torsion
[ 8008 7997 7996 7995 ] final   73.46 input   59.86 | X-H torsion
[ 10167 10162 10161 10158 ] final  -91.77 input  -65.29 | X-H torsion
[ 10718 10713 10712 10709 ] final  172.00 input   66.30 | X-H torsion
[ 10763 10752 10751 10750 ] final   38.18 input  -60.55 | X-H torsion
[ 11005 11000 10999 10996 ] final  135.51 input  -57.11 | X-H torsion

> <Gold.Protein.ActiveResidues>
 VAL166  LYS551  ARG553  GLY616  TRP617  ASP618  TYR619  PRO620  LYS621  CYS622 
 ASP623  PHE694  ASN695  SER759  ASP760  ASP761  ALA762  ILE779  LEU786  VAL792 
 PHE793  MET794  SER795  GLU796  ALA797  LYS798  CYS799  TRP800  GLU811  SER814 

> <Gold.Protein.RotatedAtoms>
  151.6923  135.0944  160.0235 H   0  0  0  0  0  0  0  0  0  0  0  0  # atno 6907 bound_to 6896
  152.3771  133.6491  159.6140 H   0  0  0  0  0  0  0  0  0  0  0  0  # atno 6908 bound_to 6896
  150.7717  133.9092  159.3406 H   0  0  0  0  0  0  0  0  0  0  0  0  # atno 6909 bound_to 6896
  145.2023  139.2946  143.4312 H   0  0  0  0  0  0  0  0  0  0  0  0  # atno 7974 bound_to 7965
  155.7840  140.3481  155.5313 H   0  0  0  0  0  0  0  0  0  0  0  0  # atno 8008 bound_to 7997
  155.8700  140.0985  157.1577 H   0  0  0  0  0  0  0  0  0  0  0  0  # atno 8009 bound_to 7997
  154.4017  140.1342  156.4053 H   0  0  0  0  0  0  0  0  0  0  0  0  # atno 8010 bound_to 7997
  140.3415  143.2939  151.9830 H   0  0  0  0  0  0  0  0  0  0  0  0  # atno 10167 bound_to 10162
  156.9853  131.0131  151.2871 H   0  0  0  0  0  0  0  0  0  0  0  0  # atno 10718 bound_to 10713
  153.0010  135.6257  154.2263 H   0  0  0  0  0  0  0  0  0  0  0  0  # atno 10763 bound_to 10752
  154.2006  135.2804  155.2994 H   0  0  0  0  0  0  0  0  0  0  0  0  # atno 10764 bound_to 10752
  154.5687  135.5683  153.7133 H   0  0  0  0  0  0  0  0  0  0  0  0  # atno 10765 bound_to 10752
  139.9985  134.9488  157.0018 H   0  0  0  0  0  0  0  0  0  0  0  0  # atno 11005 bound_to 11000
  146.3415  140.2271  142.8592 LP  0  0  0  0  0  0  0  0  0  0  0  0  # atno 17320 bound_to 7965
  144.9936  140.8569  143.5324 LP  0  0  0  0  0  0  0  0  0  0  0  0  # atno 17321 bound_to 7965
  139.4840  144.6153  151.7358 LP  0  0  0  0  0  0  0  0  0  0  0  0  # atno 17342 bound_to 10162
  140.5304  144.0739  150.6052 LP  0  0  0  0  0  0  0  0  0  0  0  0  # atno 17343 bound_to 10162
  157.5497  130.8174  149.8130 LP  0  0  0  0  0  0  0  0  0  0  0  0  # atno 17370 bound_to 10713
  156.0228  130.3789  150.1910 LP  0  0  0  0  0  0  0  0  0  0  0  0  # atno 17371 bound_to 10713
  140.4773  134.1325  155.7211 LP  0  0  0  0  0  0  0  0  0  0  0  0  # atno 17394 bound_to 11000
  141.1623  133.8769  157.1813 LP  0  0  0  0  0  0  0  0  0  0  0  0  # atno 17395 bound_to 11000

$$$$
