AV-unprocessed.smi:221|AV-procd|sdf|1696|dock7
  -GOLD-   2262020143D 1   1.00000     0.00000
 Structure written by MMmdl.
 50 53  0  0  0  0  0  0  0  0  1 V2000
  151.0316  144.7376  157.4312 N   0  0  0  0  0  0  0  0  0  0  0  0
  151.5376  144.6601  158.6665 C   0  0  0  0  0  0  0  0  0  0  0  0
  151.9770  145.6518  159.2443 O   0  0  0  0  0  0  0  0  0  0  0  0
  151.5606  143.2920  159.3764 C   0  0  2  0  0  0  0  0  0  0  0  0
  152.2772  143.3888  160.7337 C   0  0  0  0  0  0  0  0  0  0  0  0
  152.7627  141.9655  160.9765 C   0  0  2  0  0  0  0  0  0  0  0  0
  153.7734  141.9078  161.8433 F   0  0  0  0  0  0  0  0  0  0  0  0
  153.1556  141.4902  159.5804 C   0  0  0  0  0  0  0  0  0  0  0  0
  152.2979  142.2363  158.6657 N   0  0  0  0  0  0  0  0  0  0  0  0
  151.7946  141.6037  157.5709 C   0  0  0  0  0  0  0  0  0  0  0  0
  150.9113  142.2549  156.7685 N   0  0  0  0  0  0  0  0  0  0  0  0
  150.4039  141.6556  155.6879 C   0  0  0  0  0  0  0  0  0  0  0  0
  150.6434  140.4272  155.2267 N   0  0  0  0  0  0  0  0  0  0  0  0
  151.5375  139.7692  156.0180 C   0  0  0  0  0  0  0  0  0  0  0  0
  152.1578  140.2773  157.1953 C   0  0  0  0  0  0  0  0  0  0  0  0
  153.0224  139.3217  157.7185 N   0  0  0  0  0  0  0  0  0  0  0  0
  152.9121  138.3071  156.9056 C   0  0  0  0  0  0  0  0  0  0  0  0
  152.0445  138.4919  155.8542 N   0  0  0  0  0  0  0  0  0  0  0  0
  151.7381  137.5321  154.8079 C   0  0  0  0  0  0  0  0  0  0  0  0
  150.3176  136.9276  154.9486 C   0  0  2  0  0  0  0  0  0  0  0  0
  149.2248  137.9916  154.6925 C   0  0  0  0  0  0  0  0  0  0  0  0
  149.2850  138.4805  153.3689 O   0  0  0  0  0  0  0  0  0  0  0  0
  150.0972  136.1863  156.2962 C   0  0  1  0  0  0  0  0  0  0  0  0
  148.7241  135.5387  156.4821 C   0  0  0  0  0  0  0  0  0  0  0  0
  149.0344  134.1623  157.0755 C   0  0  0  0  0  0  0  0  0  0  0  0
  150.3619  134.2745  157.5645 O   0  0  0  0  0  0  0  0  0  0  0  0
  151.0778  135.0537  156.6214 C   0  0  0  0  0  0  0  0  0  0  0  0
  150.5340  142.9635  159.5487 H   0  0  0  0  0  0  0  0  0  0  0  0
  151.9501  141.3538  161.3712 H   0  0  0  0  0  0  0  0  0  0  0  0
  151.0083  145.6267  156.9532 H   0  0  0  0  0  0  0  0  0  0  0  0
  150.6740  143.9070  156.9822 H   0  0  0  0  0  0  0  0  0  0  0  0
  153.1351  144.0617  160.6746 H   0  0  0  0  0  0  0  0  0  0  0  0
  151.6246  143.7485  161.5300 H   0  0  0  0  0  0  0  0  0  0  0  0
  154.1941  141.7418  159.3622 H   0  0  0  0  0  0  0  0  0  0  0  0
  153.0406  140.4086  159.4954 H   0  0  0  0  0  0  0  0  0  0  0  0
  149.7069  142.2449  155.1105 H   0  0  0  0  0  0  0  0  0  0  0  0
  153.4680  137.3915  157.0476 H   0  0  0  0  0  0  0  0  0  0  0  0
  151.8592  138.0429  153.8536 H   0  0  0  0  0  0  0  0  0  0  0  0
  152.4948  136.7480  154.8320 H   0  0  0  0  0  0  0  0  0  0  0  0
  150.2157  136.1750  154.1648 H   0  0  0  0  0  0  0  0  0  0  0  0
  148.2321  137.5837  154.8838 H   0  0  0  0  0  0  0  0  0  0  0  0
  149.3474  138.8491  155.3535 H   0  0  0  0  0  0  0  0  0  0  0  0
  149.2150  137.7488  152.7746 H   0  0  0  0  0  0  0  0  0  0  0  0
  150.1874  136.9138  157.1042 H   0  0  0  0  0  0  0  0  0  0  0  0
  148.1247  136.1310  157.1750 H   0  0  0  0  0  0  0  0  0  0  0  0
  148.1499  135.4472  155.5606 H   0  0  0  0  0  0  0  0  0  0  0  0
  148.3393  133.8779  157.8658 H   0  0  0  0  0  0  0  0  0  0  0  0
  149.0026  133.3944  156.3004 H   0  0  0  0  0  0  0  0  0  0  0  0
  151.3033  134.4320  155.7551 H   0  0  0  0  0  0  0  0  0  0  0  0
  152.0183  135.4180  157.0355 H   0  0  0  0  0  0  0  0  0  0  0  0
  1  2  1  0  0  0  0
  1 30  1  0  0  0  0
  1 31  1  0  0  0  0
  2  3  2  0  0  0  0
  2  4  1  0  0  0  0
  4 28  1  0  0  0  0
  4  9  1  0  0  0  0
  4  5  1  0  0  0  0
  5  6  1  0  0  0  0
  5 32  1  0  0  0  0
  5 33  1  0  0  0  0
  6 29  1  0  0  0  0
  6  7  1  0  0  0  0
  6  8  1  0  0  0  0
  8  9  1  0  0  0  0
  8 34  1  0  0  0  0
  8 35  1  0  0  0  0
  9 10  1  0  0  0  0
 10 15  1  0  0  0  0
 10 11  2  0  0  0  0
 11 12  1  0  0  0  0
 12 13  2  0  0  0  0
 12 36  1  0  0  0  0
 13 14  1  0  0  0  0
 14 18  1  0  0  0  0
 14 15  2  0  0  0  0
 15 16  1  0  0  0  0
 16 17  2  0  0  0  0
 17 18  1  0  0  0  0
 17 37  1  0  0  0  0
 18 19  1  0  0  0  0
 19 20  1  0  0  0  0
 19 38  1  0  0  0  0
 19 39  1  0  0  0  0
 20 21  1  0  0  0  0
 20 23  1  0  0  0  0
 20 40  1  0  0  0  0
 21 22  1  0  0  0  0
 21 41  1  0  0  0  0
 21 42  1  0  0  0  0
 22 43  1  0  0  0  0
 23 27  1  0  0  0  0
 23 24  1  0  0  0  0
 23 44  1  0  0  0  0
 24 25  1  0  0  0  0
 24 45  1  0  0  0  0
 24 46  1  0  0  0  0
 25 26  1  0  0  0  0
 25 47  1  0  0  0  0
 25 48  1  0  0  0  0
 26 27  1  0  0  0  0
 27 49  1  0  0  0  0
 27 50  1  0  0  0  0
M  END
> <s_m_source_file>
AV-unprocessed.smi

> <i_m_source_file_index>
221

> <i_lp_mmshare_version>
43012

> <i_f3d_flags>
0

> <s_epik_input>
W05IMl1DKD1PKVtDQEBIXTFbQ0gyXVtDQEBIXShGKVtDSDJdTjFjKG5bY0hdbjIpYyhjMjMpbltjSF1uM1tDSDJdW0NASF0oW0NIMl1bT0hdKVtDQEBIXTRbQ0gyXVtDSDJdT1tDSDJdNA==

> <s_epik_cmdline>
J2VwaWtfcHl0aG9uJywgJy1waCcsICc3LjAnLCAnLXRuJywgJzgnLCAnLW1hJywgJzIwMCcsICctbWV0YWxfYmluZGluZycsICctaW1hZScsICc8aW5maWxlLm1hZT4nLCAnLW9tYWUnLCAnPG91dGZpbGUubWFlPic=

> <r_lp_tautomer_probability>
1

> <r_epik_Ionization_Penalty>
0.000818822

> <r_epik_Ionization_Penalty_Charging>
0

> <r_epik_Ionization_Penalty_Neutral>
0.000818822

> <r_epik_State_Penalty>
0.000440551

> <r_epik_Charging_Adjusted_Penalty>
0.000440551

> <i_epik_Tot_Q>
0

> <i_epik_Tot_abs_Q>
0

> <r_epik_Metal_State_Penalty>
-0

> <b_epik_Metal_Only>
0

> <s_lp_Force_Field>
OPLS_2005

> <r_lp_Energy>
49.7935

> <b_lp_Chiralities_Consistent>
1

> <s_lp_Variant>
AV-unprocessed.smi:221-11

> <Gold.Version>
5.8.1

> <Gold.Id.Protein>
6NUR|6NUR_protein|mol2

> <Gold.PLP.Fitness>
62.0427

> <Gold.PLP.PLP>
-48.5727

> <Gold.PLP.part.hbond>
-7.0065

> <Gold.PLP.part.metal>
0.0000

> <Gold.PLP.part.buried>
-5.6004

> <Gold.PLP.part.nonpolar>
-37.5413

> <Gold.PLP.part.repulsive>
0.4145

> <Gold.PLP.ligand.clash>
0.0000

> <Gold.PLP.ligand.torsion>
0.3852

> <Gold.PLP.Chemscore.Hbond>
3.6550

> <Gold.PLP.Chemscore.CHOScore>
0.9794

> <Gold.PLP.Chemscore.Metal>
0.0000

> <Gold.Chemscore.Hbonds>
donor molecule, donor type, donor heavy atom, donor atom, acceptor molecule, acceptor atom, score
      L1  H     1    31       P1  8028  0.01
      L1  H    22    43       P1  7948  1.00
      P1  H  6896  6908       L1    26  0.74
      P1  H  7989  7998       L1    13  0.99
      P1  H  7997  8010       L1    16  0.81
      L1  C    12    36       P1  8028  0.64

> <Gold.PLP.Chemscore.Internal.Correction>
0.3373

> <Gold.Rescore>
     Score         DG    S(hbond)    S(metal)    S(lipo)     H(rot)  DE(clash)    DE(int)     intcor
      8.22     -12.78       2.10        0.00      74.96       3.31       0.04       4.52       ----

> <Gold.Chemscore.Fitness>
8.2209

> <Gold.Chemscore.DG>
-12.7844

> <Gold.Chemscore.ZeroCoef>
-5.4800

> <Gold.Chemscore.Hbond>
2.0971

> <Gold.Chemscore.Metal>
0.0000

> <Gold.Chemscore.Lipo>
74.9649

> <Gold.Chemscore.Internal_Hbond>
0.0000

> <Gold.Chemscore.DEClash>
0.0399

> <Gold.Chemscore.DEInternal>
4.5237

> <Gold.Chemscore.Rot>
3.3089

> <Gold.Chemscore.Internal.Correction>
   9.000000E+99

> <Gold.Chemscore.Hbonds>
donor molecule, donor type, donor heavy atom, donor atom, acceptor molecule, acceptor atom, score
      L1  H     1    31       P1  8028  0.02
      L1  H    22    43       P1  7948  0.97
      P1  H  6896  6908       L1    26  0.71
      P1  H  7989  7998       L1    13  0.13
      P1  H  7997  8010       L1    16  0.03

> <Gold.Chemscore.Hbond.Weighted>
-7.0044

> <Gold.Chemscore.Metal.Weighted>
-0.0000

> <Gold.Chemscore.Lipo.Weighted>
-8.7709

> <Gold.Chemscore.Internal_Hbond.Weighted>
0.0000

> <Gold.Chemscore.DEClash.Weighted>
0.0399

> <Gold.Chemscore.DEInternal.Weighted>
4.5237

> <Gold.Chemscore.Rot.Weighted>
8.4709

> <Gold.Chemscore.Internal.Correction.Weighted>
   9.000000E+99

> <Gold.Protein.RotatedTorsions>
[ 6907 6896 6895 6894 ] final  132.67 input  -60.11 | X-H torsion
[ 7974 7965 7964 7962 ] final  146.69 input  175.53 | X-H torsion
[ 8008 7997 7996 7995 ] final   30.19 input   59.86 | X-H torsion
[ 10167 10162 10161 10158 ] final   13.64 input  -65.29 | X-H torsion
[ 10718 10713 10712 10709 ] final  -56.87 input   66.30 | X-H torsion
[ 10763 10752 10751 10750 ] final  -45.61 input  -60.55 | X-H torsion
[ 11005 11000 10999 10996 ] final -103.83 input  -57.11 | X-H torsion

> <Gold.Protein.ActiveResidues>
 VAL166  LYS551  ARG553  GLY616  TRP617  ASP618  TYR619  PRO620  LYS621  CYS622 
 ASP623  PHE694  ASN695  SER759  ASP760  ASP761  ALA762  ILE779  LEU786  VAL792 
 PHE793  MET794  SER795  GLU796  ALA797  LYS798  CYS799  TRP800  GLU811  SER814 

> <Gold.Protein.RotatedAtoms>
  152.3300  133.5948  159.5802 H   0  0  0  0  0  0  0  0  0  0  0  0  # atno 6907 bound_to 6896
  150.7418  133.9882  159.3607 H   0  0  0  0  0  0  0  0  0  0  0  0  # atno 6908 bound_to 6896
  151.7758  135.0775  160.0417 H   0  0  0  0  0  0  0  0  0  0  0  0  # atno 6909 bound_to 6896
  144.8651  139.5936  143.5913 H   0  0  0  0  0  0  0  0  0  0  0  0  # atno 7974 bound_to 7965
  155.0865  140.3215  155.4586 H   0  0  0  0  0  0  0  0  0  0  0  0  # atno 8008 bound_to 7997
  156.2753  140.2085  156.5939 H   0  0  0  0  0  0  0  0  0  0  0  0  # atno 8009 bound_to 7997
  154.6937  140.0514  157.0376 H   0  0  0  0  0  0  0  0  0  0  0  0  # atno 8010 bound_to 7997
  140.5989  143.8645  150.6945 H   0  0  0  0  0  0  0  0  0  0  0  0  # atno 10167 bound_to 10162
  156.1255  130.4163  150.0363 H   0  0  0  0  0  0  0  0  0  0  0  0  # atno 10718 bound_to 10713
  154.0314  135.6656  153.4781 H   0  0  0  0  0  0  0  0  0  0  0  0  # atno 10763 bound_to 10752
  153.0539  135.5068  154.7930 H   0  0  0  0  0  0  0  0  0  0  0  0  # atno 10764 bound_to 10752
  154.6876  135.3055  154.9490 H   0  0  0  0  0  0  0  0  0  0  0  0  # atno 10765 bound_to 10752
  141.1128  133.8673  157.1535 H   0  0  0  0  0  0  0  0  0  0  0  0  # atno 11005 bound_to 11000
  146.2889  139.7083  142.9175 LP  0  0  0  0  0  0  0  0  0  0  0  0  # atno 17320 bound_to 7965
  145.4238  141.0409  143.2949 LP  0  0  0  0  0  0  0  0  0  0  0  0  # atno 17321 bound_to 7965
  140.2186  143.3826  152.1661 LP  0  0  0  0  0  0  0  0  0  0  0  0  # atno 17342 bound_to 10162
  139.5277  144.7122  151.5169 LP  0  0  0  0  0  0  0  0  0  0  0  0  # atno 17343 bound_to 10162
  156.8290  130.9385  151.3638 LP  0  0  0  0  0  0  0  0  0  0  0  0  # atno 17370 bound_to 10713
  157.6437  130.8826  149.9496 LP  0  0  0  0  0  0  0  0  0  0  0  0  # atno 17371 bound_to 10713
  140.0032  135.0019  157.0234 LP  0  0  0  0  0  0  0  0  0  0  0  0  # atno 17394 bound_to 11000
  140.4729  134.1368  155.7205 LP  0  0  0  0  0  0  0  0  0  0  0  0  # atno 17395 bound_to 11000

$$$$
