AV-unprocessed.smi:3310|AV-procd|sdf|12718|dock5
  -GOLD-   2272019 53D 1   1.00000     0.00000
 Structure written by MMmdl.
 45 46  0  0  0  0  0  0  0  0  2 V2000
  147.1049  141.9529  155.1442 C   0  0  0  0  0  0  0  0  0  0  0  0
  148.4304  141.9280  154.3755 C   0  0  0  0  0  0  0  0  0  0  0  0
  149.0718  140.5752  154.3790 C   0  0  0  0  0  0  0  0  0  0  0  0
  150.3703  140.3784  154.6365 N   0  0  0  0  0  0  0  0  0  0  0  0
  150.5712  139.0176  154.5220 N   0  0  0  0  0  0  0  0  0  0  0  0
  149.3757  138.5285  154.1976 C   0  0  0  0  0  0  0  0  0  0  0  0
  148.3982  139.4416  154.0895 N   0  0  0  0  0  0  0  0  0  0  0  0
  147.0031  139.2273  153.7511 C   0  0  0  0  0  0  0  0  0  0  0  0
  146.8347  138.8473  152.2736 C   0  0  0  0  0  0  0  0  0  0  0  0
  145.4526  138.4154  151.9904 N   0  3  0  0  0  0  0  0  0  0  0  0
  144.9799  137.3141  152.8531 C   0  0  0  0  0  0  0  0  0  0  0  0
  144.2727  136.2146  152.0390 C   0  0  2  0  0  0  0  0  0  0  0  0
  143.7189  135.1164  152.9686 C   0  0  0  0  0  0  0  0  0  0  0  0
  143.0204  133.9941  152.1807 C   0  0  0  0  0  0  0  0  0  0  0  0
  143.9331  133.3714  151.1061 C   0  0  2  0  0  0  0  0  0  0  0  0
  145.0251  132.4690  151.7071 C   0  0  0  0  0  0  0  0  0  0  0  0
  144.5097  134.4689  150.1903 C   0  0  0  0  0  0  0  0  0  0  0  0
  145.2074  135.5893  150.9811 C   0  0  0  0  0  0  0  0  0  0  0  0
  146.6581  142.9468  155.1168 H   0  0  0  0  0  0  0  0  0  0  0  0
  147.2503  141.6810  156.1898 H   0  0  0  0  0  0  0  0  0  0  0  0
  146.3875  141.2538  154.7132 H   0  0  0  0  0  0  0  0  0  0  0  0
  148.2563  142.2256  153.3409 H   0  0  0  0  0  0  0  0  0  0  0  0
  149.1193  142.6640  154.7894 H   0  0  0  0  0  0  0  0  0  0  0  0
  149.2090  137.4737  154.0338 H   0  0  0  0  0  0  0  0  0  0  0  0
  146.5937  138.4532  154.4008 H   0  0  0  0  0  0  0  0  0  0  0  0
  146.4536  140.1436  153.9711 H   0  0  0  0  0  0  0  0  0  0  0  0
  147.0775  139.7016  151.6399 H   0  0  0  0  0  0  0  0  0  0  0  0
  147.5239  138.0439  152.0095 H   0  0  0  0  0  0  0  0  0  0  0  0
  144.8339  139.2051  152.1084 H   0  0  0  0  0  0  0  0  0  0  0  0
  145.8215  136.8912  153.4037 H   0  0  0  0  0  0  0  0  0  0  0  0
  144.2932  137.7296  153.5919 H   0  0  0  0  0  0  0  0  0  0  0  0
  143.4243  136.6666  151.5227 H   0  0  0  0  0  0  0  0  0  0  0  0
  144.5263  134.6969  153.5701 H   0  0  0  0  0  0  0  0  0  0  0  0
  143.0108  135.5513  153.6749 H   0  0  0  0  0  0  0  0  0  0  0  0
  142.6645  133.2234  152.8653 H   0  0  0  0  0  0  0  0  0  0  0  0
  142.1308  134.4023  151.6991 H   0  0  0  0  0  0  0  0  0  0  0  0
  143.3102  132.7250  150.4863 H   0  0  0  0  0  0  0  0  0  0  0  0
  145.7082  133.0221  152.3512 H   0  0  0  0  0  0  0  0  0  0  0  0
  145.6197  132.0010  150.9222 H   0  0  0  0  0  0  0  0  0  0  0  0
  144.5860  131.6693  152.3039 H   0  0  0  0  0  0  0  0  0  0  0  0
  145.2027  134.0325  149.4700 H   0  0  0  0  0  0  0  0  0  0  0  0
  143.6997  134.9036  149.6029 H   0  0  0  0  0  0  0  0  0  0  0  0
  145.5501  136.3530  150.2826 H   0  0  0  0  0  0  0  0  0  0  0  0
  146.1035  135.1970  151.4627 H   0  0  0  0  0  0  0  0  0  0  0  0
  145.4053  138.1086  151.0293 H   0  0  0  0  0  0  0  0  0  0  0  0
  1  2  1  0  0  0  0
  1 19  1  0  0  0  0
  1 20  1  0  0  0  0
  1 21  1  0  0  0  0
  2  3  1  0  0  0  0
  2 22  1  0  0  0  0
  2 23  1  0  0  0  0
  3  7  1  0  0  0  0
  3  4  2  0  0  0  0
  4  5  1  0  0  0  0
  5  6  2  0  0  0  0
  6  7  1  0  0  0  0
  6 24  1  0  0  0  0
  7  8  1  0  0  0  0
  8  9  1  0  0  0  0
  8 25  1  0  0  0  0
  8 26  1  0  0  0  0
  9 10  1  0  0  0  0
  9 27  1  0  0  0  0
  9 28  1  0  0  0  0
 10 11  1  0  0  0  0
 10 29  1  0  0  0  0
 10 45  1  0  0  0  0
 11 12  1  0  0  0  0
 11 30  1  0  0  0  0
 11 31  1  0  0  0  0
 12 18  1  0  0  0  0
 12 13  1  0  0  0  0
 12 32  1  0  0  0  0
 13 14  1  0  0  0  0
 13 33  1  0  0  0  0
 13 34  1  0  0  0  0
 14 15  1  0  0  0  0
 14 35  1  0  0  0  0
 14 36  1  0  0  0  0
 15 16  1  0  0  0  0
 15 17  1  0  0  0  0
 15 37  1  0  0  0  0
 16 38  1  0  0  0  0
 16 39  1  0  0  0  0
 16 40  1  0  0  0  0
 17 18  1  0  0  0  0
 17 41  1  0  0  0  0
 17 42  1  0  0  0  0
 18 43  1  0  0  0  0
 18 44  1  0  0  0  0
M  CHG  1  10   1
M  END
> <s_m_source_file>
AV-unprocessed.smi

> <i_m_source_file_index>
3310

> <i_lp_mmshare_version>
43012

> <i_f3d_flags>
0

> <s_epik_input>
W0NIM11bQ0gyXWMxbm5bY0hdbjFbQ0gyXVtDSDJdW05IXVtDSDJdW0NAQEhdMltDSDJdW0NIMl1bQ0BASF0oW0NIM10pW0NIMl1bQ0gyXTI=

> <s_epik_cmdline>
J2VwaWtfcHl0aG9uJywgJy1waCcsICc3LjAnLCAnLXRuJywgJzgnLCAnLW1hJywgJzIwMCcsICctbWV0YWxfYmluZGluZycsICctaW1hZScsICc8aW5maWxlLm1hZT4nLCAnLW9tYWUnLCAnPG91dGZpbGUubWFlPic=

> <r_lp_tautomer_probability>
1

> <r_epik_Ionization_Penalty>
0.00127868

> <r_epik_Ionization_Penalty_Charging>
0.00126792

> <r_epik_Ionization_Penalty_Neutral>
1.07546e-05

> <r_epik_State_Penalty>
-0

> <r_epik_Charging_Adjusted_Penalty>
0.00126792

> <i_epik_Tot_Q>
1

> <i_epik_Tot_abs_Q>
1

> <r_epik_Metal_State_Penalty>
-0

> <b_epik_Metal_Only>
0

> <s_lp_Force_Field>
OPLS_2005

> <r_lp_Energy>
17.5761

> <b_lp_Chiralities_Consistent>
1

> <s_lp_Variant>
AV-unprocessed.smi:3310-2

> <Gold.Version>
5.8.1

> <Gold.Id.Protein>
6NUR|6NUR_protein|mol2

> <Gold.PLP.Fitness>
48.4924

> <Gold.PLP.PLP>
-36.4040

> <Gold.PLP.part.hbond>
-3.0000

> <Gold.PLP.part.metal>
0.0000

> <Gold.PLP.part.buried>
-2.0997

> <Gold.PLP.part.nonpolar>
-31.6540

> <Gold.PLP.part.repulsive>
0.2747

> <Gold.PLP.ligand.clash>
0.0000

> <Gold.PLP.ligand.torsion>
0.6134

> <Gold.PLP.Chemscore.Hbond>
3.4800

> <Gold.PLP.Chemscore.CHOScore>
0.9358

> <Gold.PLP.Chemscore.Metal>
0.0000

> <Gold.Chemscore.Hbonds>
donor molecule, donor type, donor heavy atom, donor atom, acceptor molecule, acceptor atom, score
      L1  H    10    29       P1 10175  2.00
      L1  H    10    45       P1 10171  0.45
      P1  H  7989  7998       L1     4  0.85
      L1  C     6    24       P1  7948  0.97

> <Gold.PLP.Chemscore.Internal.Correction>
0.0679

> <Gold.Rescore>
     Score         DG    S(hbond)    S(metal)    S(lipo)     H(rot)  DE(clash)    DE(int)     intcor
     15.59     -16.29       2.26        0.00      72.17       2.03       0.13       0.57       ----

> <Gold.Chemscore.Fitness>
15.5906

> <Gold.Chemscore.DG>
-16.2882

> <Gold.Chemscore.ZeroCoef>
-5.4800

> <Gold.Chemscore.Hbond>
2.2635

> <Gold.Chemscore.Metal>
0.0000

> <Gold.Chemscore.Lipo>
72.1677

> <Gold.Chemscore.Internal_Hbond>
0.0000

> <Gold.Chemscore.DEClash>
0.1312

> <Gold.Chemscore.DEInternal>
0.5664

> <Gold.Chemscore.Rot>
2.0295

> <Gold.Chemscore.Internal.Correction>
   9.000000E+99

> <Gold.Chemscore.Hbonds>
donor molecule, donor type, donor heavy atom, donor atom, acceptor molecule, acceptor atom, score
      L1  H    10    29       P1 10175  1.00
      L1  H    10    45       P1 10171  0.44
      P1  H  7989  7998       L1     4  0.14

> <Gold.Chemscore.Hbond.Weighted>
-7.5602

> <Gold.Chemscore.Metal.Weighted>
-0.0000

> <Gold.Chemscore.Lipo.Weighted>
-8.4436

> <Gold.Chemscore.Internal_Hbond.Weighted>
0.0000

> <Gold.Chemscore.DEClash.Weighted>
0.1312

> <Gold.Chemscore.DEInternal.Weighted>
0.5664

> <Gold.Chemscore.Rot.Weighted>
5.1956

> <Gold.Chemscore.Internal.Correction.Weighted>
   9.000000E+99

> <Gold.Protein.RotatedTorsions>
[ 6907 6896 6895 6894 ] final -164.26 input  -60.11 | X-H torsion
[ 7974 7965 7964 7962 ] final  -22.65 input  175.53 | X-H torsion
[ 8008 7997 7996 7995 ] final  -53.17 input   59.86 | X-H torsion
[ 10167 10162 10161 10158 ] final  178.00 input  -65.29 | X-H torsion
[ 10718 10713 10712 10709 ] final  100.67 input   66.30 | X-H torsion
[ 10763 10752 10751 10750 ] final  150.90 input  -60.55 | X-H torsion
[ 11005 11000 10999 10996 ] final   20.57 input  -57.11 | X-H torsion

> <Gold.Protein.ActiveResidues>
 VAL166  LYS551  ARG553  GLY616  TRP617  ASP618  TYR619  PRO620  LYS621  CYS622 
 ASP623  PHE694  ASN695  SER759  ASP760  ASP761  ALA762  ILE779  LEU786  VAL792 
 PHE793  MET794  SER795  GLU796  ALA797  LYS798  CYS799  TRP800  GLU811  SER814 

> <Gold.Protein.RotatedAtoms>
  151.4090  133.3733  159.2741 H   0  0  0  0  0  0  0  0  0  0  0  0  # atno 6907 bound_to 6896
  150.9377  134.8790  159.7603 H   0  0  0  0  0  0  0  0  0  0  0  0  # atno 6908 bound_to 6896
  152.5057  134.4039  159.9478 H   0  0  0  0  0  0  0  0  0  0  0  0  # atno 6909 bound_to 6896
  146.1663  140.4508  142.8550 H   0  0  0  0  0  0  0  0  0  0  0  0  # atno 7974 bound_to 7965
  154.4126  140.1206  156.5111 H   0  0  0  0  0  0  0  0  0  0  0  0  # atno 8008 bound_to 7997
  155.6798  140.3496  155.4831 H   0  0  0  0  0  0  0  0  0  0  0  0  # atno 8009 bound_to 7997
  155.9561  140.1114  157.0925 H   0  0  0  0  0  0  0  0  0  0  0  0  # atno 8010 bound_to 7997
  139.5276  144.2732  152.0610 H   0  0  0  0  0  0  0  0  0  0  0  0  # atno 10167 bound_to 10162
  157.6848  131.0705  150.5136 H   0  0  0  0  0  0  0  0  0  0  0  0  # atno 10718 bound_to 10713
  154.0950  135.2850  155.3263 H   0  0  0  0  0  0  0  0  0  0  0  0  # atno 10763 bound_to 10752
  154.6594  135.5340  153.8003 H   0  0  0  0  0  0  0  0  0  0  0  0  # atno 10764 bound_to 10752
  153.0399  135.6530  154.1117 H   0  0  0  0  0  0  0  0  0  0  0  0  # atno 10765 bound_to 10752
  140.4012  134.1716  155.7664 H   0  0  0  0  0  0  0  0  0  0  0  0  # atno 11005 bound_to 11000
  144.8098  140.6364  143.6423 LP  0  0  0  0  0  0  0  0  0  0  0  0  # atno 17320 bound_to 7965
  145.4458  139.1530  143.3945 LP  0  0  0  0  0  0  0  0  0  0  0  0  # atno 17321 bound_to 7965
  140.2191  144.4485  150.6350 LP  0  0  0  0  0  0  0  0  0  0  0  0  # atno 17342 bound_to 10162
  140.6431  143.2207  151.6247 LP  0  0  0  0  0  0  0  0  0  0  0  0  # atno 17343 bound_to 10162
  156.5452  130.4218  149.6134 LP  0  0  0  0  0  0  0  0  0  0  0  0  # atno 17370 bound_to 10713
  156.2950  130.7145  151.2003 LP  0  0  0  0  0  0  0  0  0  0  0  0  # atno 17371 bound_to 10713
  141.1856  133.8320  157.1099 LP  0  0  0  0  0  0  0  0  0  0  0  0  # atno 17394 bound_to 11000
  140.0335  134.9889  157.0826 LP  0  0  0  0  0  0  0  0  0  0  0  0  # atno 17395 bound_to 11000

$$$$
