AV-unprocessed.smi:2907|AV-procd|sdf|11166|dock1
  -GOLD-   2272016 53D 1   1.00000     0.00000
 Structure written by MMmdl.
 45 46  0  0  0  0  0  0  0  0  1 V2000
  147.5384  138.3171  155.6299 C   0  0  0  0  0  0  0  0  0  0  0  0
  147.0340  139.2089  154.4859 C   0  0  0  0  0  0  0  0  0  0  0  0
  146.7350  140.6615  154.9073 C   0  0  0  0  0  0  0  0  0  0  0  0
  146.3666  141.5373  153.6932 C   0  0  0  0  0  0  0  0  0  0  0  0
  145.9756  142.9772  154.0595 C   0  0  0  0  0  0  0  0  0  0  0  0
  147.8849  141.2423  155.5987 N   0  0  0  0  0  0  0  0  0  0  0  0
  149.1386  141.3180  155.1235 C   0  0  0  0  0  0  0  0  0  0  0  0
  149.4613  140.9777  153.9857 O   0  0  0  0  0  0  0  0  0  0  0  0
  150.1990  141.8380  156.0947 C   0  0  0  0  0  0  0  0  0  0  0  0
  151.2377  140.8410  156.3042 N   0  0  0  0  0  0  0  0  0  0  0  0
  151.5724  139.9765  155.3143 N   0  0  0  0  0  0  0  0  0  0  0  0
  152.5478  139.2450  155.7683 N   0  0  0  0  0  0  0  0  0  0  0  0
  152.8853  139.6036  157.0587 N   0  0  0  0  0  0  0  0  0  0  0  0
  152.0382  140.5839  157.3510 C   0  0  0  0  0  0  0  0  0  0  0  0
  152.0186  141.3533  158.6409 C   0  0  0  0  0  0  0  0  0  0  0  0
  152.0876  142.8739  158.4012 C   0  0  0  0  0  0  0  0  0  0  0  0
  152.0380  143.6537  159.7247 C   0  0  0  0  0  0  0  0  0  0  0  0
  153.1462  143.1935  160.6851 C   0  0  0  0  0  0  0  0  0  0  0  0
  153.0729  141.6783  160.9333 C   0  0  0  0  0  0  0  0  0  0  0  0
  153.1239  140.8928  159.6124 C   0  0  0  0  0  0  0  0  0  0  0  0
  147.6713  137.2904  155.2888 H   0  0  0  0  0  0  0  0  0  0  0  0
  146.8303  138.3032  156.4587 H   0  0  0  0  0  0  0  0  0  0  0  0
  148.4987  138.6615  156.0140 H   0  0  0  0  0  0  0  0  0  0  0  0
  147.7638  139.2018  153.6752 H   0  0  0  0  0  0  0  0  0  0  0  0
  146.1264  138.7628  154.0780 H   0  0  0  0  0  0  0  0  0  0  0  0
  145.8689  140.6461  155.5713 H   0  0  0  0  0  0  0  0  0  0  0  0
  147.1996  141.5616  152.9894 H   0  0  0  0  0  0  0  0  0  0  0  0
  145.5337  141.0778  153.1599 H   0  0  0  0  0  0  0  0  0  0  0  0
  145.6792  143.5345  153.1708 H   0  0  0  0  0  0  0  0  0  0  0  0
  146.8039  143.5156  154.5213 H   0  0  0  0  0  0  0  0  0  0  0  0
  145.1360  142.9910  154.7548 H   0  0  0  0  0  0  0  0  0  0  0  0
  147.7261  141.5559  156.5456 H   0  0  0  0  0  0  0  0  0  0  0  0
  150.6533  142.7532  155.7137 H   0  0  0  0  0  0  0  0  0  0  0  0
  149.7326  142.0876  157.0491 H   0  0  0  0  0  0  0  0  0  0  0  0
  151.0690  141.1504  159.1356 H   0  0  0  0  0  0  0  0  0  0  0  0
  153.0034  143.1248  157.8642 H   0  0  0  0  0  0  0  0  0  0  0  0
  151.2593  143.1880  157.7655 H   0  0  0  0  0  0  0  0  0  0  0  0
  152.1332  144.7222  159.5298 H   0  0  0  0  0  0  0  0  0  0  0  0
  151.0642  143.5110  160.1950 H   0  0  0  0  0  0  0  0  0  0  0  0
  154.1208  143.4493  160.2675 H   0  0  0  0  0  0  0  0  0  0  0  0
  153.0645  143.7294  161.6310 H   0  0  0  0  0  0  0  0  0  0  0  0
  153.8928  141.3678  161.5816 H   0  0  0  0  0  0  0  0  0  0  0  0
  152.1509  141.4396  161.4650 H   0  0  0  0  0  0  0  0  0  0  0  0
  153.0213  139.8262  159.8161 H   0  0  0  0  0  0  0  0  0  0  0  0
  154.1038  141.0270  159.1522 H   0  0  0  0  0  0  0  0  0  0  0  0
  1  2  1  0  0  0  0
  1 21  1  0  0  0  0
  1 22  1  0  0  0  0
  1 23  1  0  0  0  0
  2  3  1  0  0  0  0
  2 24  1  0  0  0  0
  2 25  1  0  0  0  0
  3  4  1  0  0  0  0
  3  6  1  0  0  0  0
  3 26  1  0  0  0  0
  4  5  1  0  0  0  0
  4 27  1  0  0  0  0
  4 28  1  0  0  0  0
  5 29  1  0  0  0  0
  5 30  1  0  0  0  0
  5 31  1  0  0  0  0
  6  7  1  0  0  0  0
  6 32  1  0  0  0  0
  7  8  2  0  0  0  0
  7  9  1  0  0  0  0
  9 10  1  0  0  0  0
  9 33  1  0  0  0  0
  9 34  1  0  0  0  0
 10 14  1  0  0  0  0
 10 11  1  0  0  0  0
 11 12  2  0  0  0  0
 12 13  1  0  0  0  0
 13 14  2  0  0  0  0
 14 15  1  0  0  0  0
 15 20  1  0  0  0  0
 15 16  1  0  0  0  0
 15 35  1  0  0  0  0
 16 17  1  0  0  0  0
 16 36  1  0  0  0  0
 16 37  1  0  0  0  0
 17 18  1  0  0  0  0
 17 38  1  0  0  0  0
 17 39  1  0  0  0  0
 18 19  1  0  0  0  0
 18 40  1  0  0  0  0
 18 41  1  0  0  0  0
 19 20  1  0  0  0  0
 19 42  1  0  0  0  0
 19 43  1  0  0  0  0
 20 44  1  0  0  0  0
 20 45  1  0  0  0  0
M  END
> <s_m_source_file>
AV-unprocessed.smi

> <i_m_source_file_index>
2907

> <i_lp_mmshare_version>
43012

> <i_f3d_flags>
0

> <s_epik_input>
W0NIM11bQ0gyXVtDSF0oW0NIMl1bQ0gzXSlbTkhdQyg9TylbQ0gyXW4xbm5uYzFbQ0hdMltDSDJdW0NIMl1bQ0gyXVtDSDJdW0NIMl0y

> <s_epik_cmdline>
J2VwaWtfcHl0aG9uJywgJy1waCcsICc3LjAnLCAnLXRuJywgJzgnLCAnLW1hJywgJzIwMCcsICctbWV0YWxfYmluZGluZycsICctaW1hZScsICc8aW5maWxlLm1hZT4nLCAnLW9tYWUnLCAnPG91dGZpbGUubWFlPic=

> <r_lp_tautomer_probability>
1

> <r_epik_Ionization_Penalty>
4.92512e-07

> <r_epik_Ionization_Penalty_Charging>
0

> <r_epik_Ionization_Penalty_Neutral>
4.92512e-07

> <r_epik_State_Penalty>
-0

> <r_epik_Charging_Adjusted_Penalty>
0

> <i_epik_Tot_Q>
0

> <i_epik_Tot_abs_Q>
0

> <r_epik_Metal_State_Penalty>
-0

> <b_epik_Metal_Only>
0

> <s_lp_Force_Field>
OPLS_2005

> <r_lp_Energy>
10.8377

> <b_lp_Chiralities_Consistent>
1

> <s_lp_Variant>
AV-unprocessed.smi:2907-1

> <Gold.Version>
5.8.1

> <Gold.Id.Protein>
6NUR|6NUR_protein|mol2

> <Gold.PLP.Fitness>
46.2070

> <Gold.PLP.PLP>
-38.4423

> <Gold.PLP.part.hbond>
-4.8871

> <Gold.PLP.part.metal>
0.0000

> <Gold.PLP.part.buried>
-5.4316

> <Gold.PLP.part.nonpolar>
-29.5869

> <Gold.PLP.part.repulsive>
1.6606

> <Gold.PLP.ligand.clash>
0.0000

> <Gold.PLP.ligand.torsion>
0.5186

> <Gold.PLP.Chemscore.Hbond>
2.8882

> <Gold.PLP.Chemscore.CHOScore>
0.0000

> <Gold.PLP.Chemscore.Metal>
0.0000

> <Gold.Chemscore.Hbonds>
donor molecule, donor type, donor heavy atom, donor atom, acceptor molecule, acceptor atom, score
      P1  H  7989  7998       L1    11  1.00
      P1  H  7997  8009       L1    13  1.00
      P1  H  8011  8017       L1     8  0.48

> <Gold.PLP.Chemscore.Internal.Correction>
0.1374

> <Gold.Rescore>
     Score         DG    S(hbond)    S(metal)    S(lipo)     H(rot)  DE(clash)    DE(int)     intcor
     15.69     -18.58       2.09        0.00      91.47       1.79       0.98       1.91       ----

> <Gold.Chemscore.Fitness>
15.6942

> <Gold.Chemscore.DG>
-18.5774

> <Gold.Chemscore.ZeroCoef>
-5.4800

> <Gold.Chemscore.Hbond>
2.0925

> <Gold.Chemscore.Metal>
0.0000

> <Gold.Chemscore.Lipo>
91.4728

> <Gold.Chemscore.Internal_Hbond>
0.0000

> <Gold.Chemscore.DEClash>
0.9770

> <Gold.Chemscore.DEInternal>
1.9062

> <Gold.Chemscore.Rot>
1.7944

> <Gold.Chemscore.Internal.Correction>
   9.000000E+99

> <Gold.Chemscore.Hbonds>
donor molecule, donor type, donor heavy atom, donor atom, acceptor molecule, acceptor atom, score
      P1  H  7989  7998       L1    11  0.73
      P1  H  7997  8009       L1    13  0.31
      P1  H  8011  8017       L1     8  0.47

> <Gold.Chemscore.Hbond.Weighted>
-6.9888

> <Gold.Chemscore.Metal.Weighted>
-0.0000

> <Gold.Chemscore.Lipo.Weighted>
-10.7023

> <Gold.Chemscore.Internal_Hbond.Weighted>
0.0000

> <Gold.Chemscore.DEClash.Weighted>
0.9770

> <Gold.Chemscore.DEInternal.Weighted>
1.9062

> <Gold.Chemscore.Rot.Weighted>
4.5938

> <Gold.Chemscore.Internal.Correction.Weighted>
   9.000000E+99

> <Gold.Protein.RotatedTorsions>
[ 6907 6896 6895 6894 ] final   68.00 input  -60.11 | X-H torsion
[ 7974 7965 7964 7962 ] final  105.57 input  175.53 | X-H torsion
[ 8008 7997 7996 7995 ] final  162.55 input   59.86 | X-H torsion
[ 10167 10162 10161 10158 ] final  100.92 input  -65.29 | X-H torsion
[ 10718 10713 10712 10709 ] final  -85.02 input   66.30 | X-H torsion
[ 10763 10752 10751 10750 ] final  102.30 input  -60.55 | X-H torsion
[ 11005 11000 10999 10996 ] final   87.06 input  -57.11 | X-H torsion

> <Gold.Protein.ActiveResidues>
 VAL166  LYS551  ARG553  GLY616  TRP617  ASP618  TYR619  PRO620  LYS621  CYS622 
 ASP623  PHE694  ASN695  SER759  ASP760  ASP761  ALA762  ILE779  LEU786  VAL792 
 PHE793  MET794  SER795  GLU796  ALA797  LYS798  CYS799  TRP800  GLU811  SER814 

> <Gold.Protein.RotatedAtoms>
  152.4591  134.5226  159.9786 H   0  0  0  0  0  0  0  0  0  0  0  0  # atno 6907 bound_to 6896
  151.5279  133.3448  159.2921 H   0  0  0  0  0  0  0  0  0  0  0  0  # atno 6908 bound_to 6896
  150.8546  134.7911  159.7098 H   0  0  0  0  0  0  0  0  0  0  0  0  # atno 6909 bound_to 6896
  145.3179  139.2521  143.3727 H   0  0  0  0  0  0  0  0  0  0  0  0  # atno 7974 bound_to 7965
  156.2023  140.1747  156.7873 H   0  0  0  0  0  0  0  0  0  0  0  0  # atno 8008 bound_to 7997
  154.5608  140.0700  156.8847 H   0  0  0  0  0  0  0  0  0  0  0  0  # atno 8009 bound_to 7997
  155.2851  140.3351  155.4258 H   0  0  0  0  0  0  0  0  0  0  0  0  # atno 8010 bound_to 7997
  139.7484  144.6991  151.0469 H   0  0  0  0  0  0  0  0  0  0  0  0  # atno 10167 bound_to 10162
  156.0000  130.4717  150.4498 H   0  0  0  0  0  0  0  0  0  0  0  0  # atno 10718 bound_to 10713
  153.3378  135.4015  155.1548 H   0  0  0  0  0  0  0  0  0  0  0  0  # atno 10763 bound_to 10752
  154.8637  135.3626  154.5385 H   0  0  0  0  0  0  0  0  0  0  0  0  # atno 10764 bound_to 10752
  153.5828  135.7076  153.5515 H   0  0  0  0  0  0  0  0  0  0  0  0  # atno 10765 bound_to 10752
  139.8929  134.8397  156.2807 H   0  0  0  0  0  0  0  0  0  0  0  0  # atno 11005 bound_to 11000
  146.3093  140.3730  142.8676 LP  0  0  0  0  0  0  0  0  0  0  0  0  # atno 17320 bound_to 7965
  144.8962  140.7586  143.5895 LP  0  0  0  0  0  0  0  0  0  0  0  0  # atno 17321 bound_to 7965
  140.7795  143.4839  150.9982 LP  0  0  0  0  0  0  0  0  0  0  0  0  # atno 17342 bound_to 10162
  139.8526  143.7418  152.3177 LP  0  0  0  0  0  0  0  0  0  0  0  0  # atno 17343 bound_to 10162
  157.2532  131.0551  151.2366 LP  0  0  0  0  0  0  0  0  0  0  0  0  # atno 17370 bound_to 10713
  157.3508  130.7081  149.6439 LP  0  0  0  0  0  0  0  0  0  0  0  0  # atno 17371 bound_to 10713
  141.0040  133.7134  156.1006 LP  0  0  0  0  0  0  0  0  0  0  0  0  # atno 17394 bound_to 11000
  140.7458  134.4099  157.5548 LP  0  0  0  0  0  0  0  0  0  0  0  0  # atno 17395 bound_to 11000

$$$$
