AV-unprocessed.smi:3158|AV-procd|sdf|12041|dock5
  -GOLD-   2272017463D 1   1.00000     0.00000
 Structure written by MMmdl.
 40 40  0  0  0  0  0  0  0  0  2 V2000
  146.2109  142.5968  156.5760 C   0  0  0  0  0  0  0  0  0  0  0  0
  145.6233  141.5938  155.5722 C   0  0  0  0  0  0  0  0  0  0  0  0
  146.6652  141.0054  154.6027 C   0  0  2  0  0  0  0  0  0  0  0  0
  147.2989  142.0945  153.7228 C   0  0  0  0  0  0  0  0  0  0  0  0
  146.0496  139.9798  153.7634 N   0  0  0  0  0  0  0  0  0  0  0  0
  146.4881  138.7189  153.6260 C   0  0  0  0  0  0  0  0  0  0  0  0
  147.4855  138.2826  154.2025 O   0  0  0  0  0  0  0  0  0  0  0  0
  145.6660  137.8100  152.7004 C   0  0  2  0  0  0  0  0  0  0  0  0
  144.2586  137.6048  153.2819 C   0  0  0  0  0  0  0  0  0  0  0  0
  146.3199  136.4976  152.4995 N   0  3  0  0  0  0  0  0  0  0  0  0
  145.6222  135.5805  151.5708 C   0  0  0  0  0  0  0  0  0  0  0  0
  146.2356  134.1729  151.6078 C   0  0  0  0  0  0  0  0  0  0  0  0
  145.3163  133.1709  151.0994 N   0  0  0  0  0  0  0  0  0  0  0  0
  145.5629  131.8422  150.8249 C   0  0  0  0  0  0  0  0  0  0  0  0
  144.3914  131.2943  150.3867 C   0  0  0  0  0  0  0  0  0  0  0  0
  143.4734  132.3807  150.4279 C   0  0  0  0  0  0  0  0  0  0  0  0
  144.0293  133.5022  150.8578 N   0  0  0  0  0  0  0  0  0  0  0  0
  145.4270  143.0159  157.2069 H   0  0  0  0  0  0  0  0  0  0  0  0
  146.7006  143.4245  156.0625 H   0  0  0  0  0  0  0  0  0  0  0  0
  146.9445  142.1276  157.2320 H   0  0  0  0  0  0  0  0  0  0  0  0
  145.1268  140.7890  156.1163 H   0  0  0  0  0  0  0  0  0  0  0  0
  144.8437  142.0953  154.9974 H   0  0  0  0  0  0  0  0  0  0  0  0
  147.4559  140.5506  155.2023 H   0  0  0  0  0  0  0  0  0  0  0  0
  147.7784  142.8606  154.3327 H   0  0  0  0  0  0  0  0  0  0  0  0
  146.5518  142.5863  153.0990 H   0  0  0  0  0  0  0  0  0  0  0  0
  148.0616  141.6777  153.0644 H   0  0  0  0  0  0  0  0  0  0  0  0
  145.2184  140.2509  153.2578 H   0  0  0  0  0  0  0  0  0  0  0  0
  145.5650  138.2928  151.7266 H   0  0  0  0  0  0  0  0  0  0  0  0
  143.7384  138.5551  153.4102 H   0  0  0  0  0  0  0  0  0  0  0  0
  144.2945  137.1115  154.2544 H   0  0  0  0  0  0  0  0  0  0  0  0
  143.6491  136.9882  152.6207 H   0  0  0  0  0  0  0  0  0  0  0  0
  147.2532  136.6641  152.1486 H   0  0  0  0  0  0  0  0  0  0  0  0
  144.5688  135.5342  151.8487 H   0  0  0  0  0  0  0  0  0  0  0  0
  145.6641  135.9672  150.5518 H   0  0  0  0  0  0  0  0  0  0  0  0
  147.1625  134.1373  151.0330 H   0  0  0  0  0  0  0  0  0  0  0  0
  146.4933  133.9072  152.6338 H   0  0  0  0  0  0  0  0  0  0  0  0
  146.5387  131.4010  150.9655 H   0  0  0  0  0  0  0  0  0  0  0  0
  144.2162  130.2727  150.0833 H   0  0  0  0  0  0  0  0  0  0  0  0
  142.4266  132.3870  150.1618 H   0  0  0  0  0  0  0  0  0  0  0  0
  146.3923  136.0343  153.3937 H   0  0  0  0  0  0  0  0  0  0  0  0
  1  2  1  0  0  0  0
  1 18  1  0  0  0  0
  1 19  1  0  0  0  0
  1 20  1  0  0  0  0
  2  3  1  0  0  0  0
  2 21  1  0  0  0  0
  2 22  1  0  0  0  0
  3  4  1  0  0  0  0
  3  5  1  0  0  0  0
  3 23  1  0  0  0  0
  4 24  1  0  0  0  0
  4 25  1  0  0  0  0
  4 26  1  0  0  0  0
  5  6  1  0  0  0  0
  5 27  1  0  0  0  0
  6  7  2  0  0  0  0
  6  8  1  0  0  0  0
  8  9  1  0  0  0  0
  8 10  1  0  0  0  0
  8 28  1  0  0  0  0
  9 29  1  0  0  0  0
  9 30  1  0  0  0  0
  9 31  1  0  0  0  0
 10 11  1  0  0  0  0
 10 32  1  0  0  0  0
 10 40  1  0  0  0  0
 11 12  1  0  0  0  0
 11 33  1  0  0  0  0
 11 34  1  0  0  0  0
 12 13  1  0  0  0  0
 12 35  1  0  0  0  0
 12 36  1  0  0  0  0
 13 17  1  0  0  0  0
 13 14  1  0  0  0  0
 14 15  2  0  0  0  0
 14 37  1  0  0  0  0
 15 16  1  0  0  0  0
 15 38  1  0  0  0  0
 16 17  2  0  0  0  0
 16 39  1  0  0  0  0
M  CHG  1  10   1
M  END
> <s_m_source_file>
AV-unprocessed.smi

> <i_m_source_file_index>
3158

> <i_lp_mmshare_version>
43012

> <i_f3d_flags>
0

> <s_epik_input>
W0NIM11bQ0gyXVtDQEhdKFtDSDNdKVtOSF1DKD1PKVtDQEhdKFtDSDNdKVtOSF1bQ0gyXVtDSDJdbjFbY0hdW2NIXVtjSF1uMQ==

> <s_epik_cmdline>
J2VwaWtfcHl0aG9uJywgJy1waCcsICc3LjAnLCAnLXRuJywgJzgnLCAnLW1hJywgJzIwMCcsICctbWV0YWxfYmluZGluZycsICctaW1hZScsICc8aW5maWxlLm1hZT4nLCAnLW9tYWUnLCAnPG91dGZpbGUubWFlPic=

> <r_lp_tautomer_probability>
1

> <r_epik_Ionization_Penalty>
0.20724

> <r_epik_Ionization_Penalty_Charging>
0.207237

> <r_epik_Ionization_Penalty_Neutral>
3.33806e-06

> <r_epik_State_Penalty>
0.197234

> <r_epik_Charging_Adjusted_Penalty>
0.404471

> <i_epik_Tot_Q>
1

> <i_epik_Tot_abs_Q>
1

> <r_epik_Metal_State_Penalty>
0.197524

> <b_epik_Metal_Only>
0

> <s_lp_Force_Field>
OPLS_2005

> <r_lp_Energy>
5.42496

> <b_lp_Chiralities_Consistent>
1

> <s_lp_Variant>
AV-unprocessed.smi:3158-1

> <Gold.Version>
5.8.1

> <Gold.Id.Protein>
6NUR|6NUR_protein|mol2

> <Gold.PLP.Fitness>
41.4561

> <Gold.PLP.PLP>
-25.1186

> <Gold.PLP.part.hbond>
-2.0000

> <Gold.PLP.part.metal>
0.0000

> <Gold.PLP.part.buried>
-2.5291

> <Gold.PLP.part.nonpolar>
-21.4035

> <Gold.PLP.part.repulsive>
0.3398

> <Gold.PLP.ligand.clash>
0.0000

> <Gold.PLP.ligand.torsion>
0.3324

> <Gold.PLP.Chemscore.Hbond>
3.0000

> <Gold.PLP.Chemscore.CHOScore>
2.6282

> <Gold.PLP.Chemscore.Metal>
0.0000

> <Gold.Chemscore.Hbonds>
donor molecule, donor type, donor heavy atom, donor atom, acceptor molecule, acceptor atom, score
      L1  H     5    27       P1 10175  1.00
      L1  H    10    32       P1  7948  2.00
      L1  C    14    37       P1 10747  0.85
      L1  C    16    39       P1 10186  0.92
      L1  C    16    39       P1 10952  0.69

> <Gold.PLP.Chemscore.Internal.Correction>
0.1178

> <Gold.Rescore>
     Score         DG    S(hbond)    S(metal)    S(lipo)     H(rot)  DE(clash)    DE(int)     intcor
     13.62     -14.06       1.98        0.00      65.18       2.21       0.07       0.37       ----

> <Gold.Chemscore.Fitness>
13.6220

> <Gold.Chemscore.DG>
-14.0641

> <Gold.Chemscore.ZeroCoef>
-5.4800

> <Gold.Chemscore.Hbond>
1.9831

> <Gold.Chemscore.Metal>
0.0000

> <Gold.Chemscore.Lipo>
65.1838

> <Gold.Chemscore.Internal_Hbond>
0.0000

> <Gold.Chemscore.DEClash>
0.0734

> <Gold.Chemscore.DEInternal>
0.3688

> <Gold.Chemscore.Rot>
2.2132

> <Gold.Chemscore.Internal.Correction>
   9.000000E+99

> <Gold.Chemscore.Hbonds>
donor molecule, donor type, donor heavy atom, donor atom, acceptor molecule, acceptor atom, score
      L1  H     5    27       P1 10175  1.00
      L1  H    10    32       P1  7948  0.98

> <Gold.Chemscore.Hbond.Weighted>
-6.6234

> <Gold.Chemscore.Metal.Weighted>
-0.0000

> <Gold.Chemscore.Lipo.Weighted>
-7.6265

> <Gold.Chemscore.Internal_Hbond.Weighted>
0.0000

> <Gold.Chemscore.DEClash.Weighted>
0.0734

> <Gold.Chemscore.DEInternal.Weighted>
0.3688

> <Gold.Chemscore.Rot.Weighted>
5.6658

> <Gold.Chemscore.Internal.Correction.Weighted>
   9.000000E+99

> <Gold.Protein.RotatedTorsions>
[ 6907 6896 6895 6894 ] final  127.39 input  -60.11 | X-H torsion
[ 7974 7965 7964 7962 ] final  151.46 input  175.53 | X-H torsion
[ 8008 7997 7996 7995 ] final    5.37 input   59.86 | X-H torsion
[ 10167 10162 10161 10158 ] final   66.69 input  -65.29 | X-H torsion
[ 10718 10713 10712 10709 ] final  -31.21 input   66.30 | X-H torsion
[ 10763 10752 10751 10750 ] final  148.78 input  -60.55 | X-H torsion
[ 11005 11000 10999 10996 ] final  107.31 input  -57.11 | X-H torsion

> <Gold.Protein.ActiveResidues>
 VAL166  LYS551  ARG553  GLY616  TRP617  ASP618  TYR619  PRO620  LYS621  CYS622 
 ASP623  PHE694  ASN695  SER759  ASP760  ASP761  ALA762  ILE779  LEU786  VAL792 
 PHE793  MET794  SER795  GLU796  ALA797  LYS798  CYS799  TRP800  GLU811  SER814 

> <Gold.Protein.RotatedAtoms>
  152.3816  133.6554  159.6165 H   0  0  0  0  0  0  0  0  0  0  0  0  # atno 6907 bound_to 6896
  150.7746  133.9104  159.3376 H   0  0  0  0  0  0  0  0  0  0  0  0  # atno 6908 bound_to 6896
  151.6908  135.0948  160.0284 H   0  0  0  0  0  0  0  0  0  0  0  0  # atno 6909 bound_to 6896
  144.8291  139.6541  143.6067 H   0  0  0  0  0  0  0  0  0  0  0  0  # atno 7974 bound_to 7965
  154.7276  140.2724  155.6485 H   0  0  0  0  0  0  0  0  0  0  0  0  # atno 8008 bound_to 7997
  156.2841  140.2722  156.1891 H   0  0  0  0  0  0  0  0  0  0  0  0  # atno 8009 bound_to 7997
  155.0424  140.0371  157.2504 H   0  0  0  0  0  0  0  0  0  0  0  0  # atno 8010 bound_to 7997
  140.0976  144.4932  150.7058 H   0  0  0  0  0  0  0  0  0  0  0  0  # atno 10167 bound_to 10162
  156.3901  130.4371  149.7401 H   0  0  0  0  0  0  0  0  0  0  0  0  # atno 10718 bound_to 10713
  154.0604  135.2874  155.3326 H   0  0  0  0  0  0  0  0  0  0  0  0  # atno 10763 bound_to 10752
  154.6812  135.5263  153.8268 H   0  0  0  0  0  0  0  0  0  0  0  0  # atno 10764 bound_to 10752
  153.0525  135.6582  154.0793 H   0  0  0  0  0  0  0  0  0  0  0  0  # atno 10765 bound_to 10752
  139.8826  134.9397  156.5801 H   0  0  0  0  0  0  0  0  0  0  0  0  # atno 11005 bound_to 11000
  146.2595  139.6377  142.9372 LP  0  0  0  0  0  0  0  0  0  0  0  0  # atno 17320 bound_to 7965
  145.4935  141.0438  143.2580 LP  0  0  0  0  0  0  0  0  0  0  0  0  # atno 17321 bound_to 7965
  140.6995  143.2425  151.4905 LP  0  0  0  0  0  0  0  0  0  0  0  0  # atno 17342 bound_to 10162
  139.5689  144.1975  152.1807 LP  0  0  0  0  0  0  0  0  0  0  0  0  # atno 17343 bound_to 10162
  156.4458  130.7883  151.2904 LP  0  0  0  0  0  0  0  0  0  0  0  0  # atno 17370 bound_to 10713
  157.7498  131.0111  150.3331 LP  0  0  0  0  0  0  0  0  0  0  0  0  # atno 17371 bound_to 10713
  140.8034  133.8487  155.8746 LP  0  0  0  0  0  0  0  0  0  0  0  0  # atno 17394 bound_to 11000
  140.9572  134.1702  157.4682 LP  0  0  0  0  0  0  0  0  0  0  0  0  # atno 17395 bound_to 11000

$$$$
