AV-unprocessed.smi:658|AV-procd|sdf|3234|dock6
  -GOLD-   22720 0183D 1   1.00000     0.00000
 Structure written by MMmdl.
 37 37  0  0  0  0  0  0  0  0  3 V2000
  144.8088  135.3476  153.8778 C   0  0  0  0  0  0  0  0  0  0  0  0
  146.1323  135.0779  153.1432 C   0  0  2  0  0  0  0  0  0  0  0  0
  147.0695  136.1992  153.3844 N   0  3  0  0  0  0  0  0  0  0  0  0
  147.3195  136.5104  154.8048 C   0  0  0  0  0  0  0  0  0  0  0  0
  148.4868  137.4923  154.9470 C   0  0  0  0  0  0  0  0  0  0  0  0
  148.4491  138.6058  153.8935 C   0  0  0  0  0  0  0  0  0  0  0  0
  149.4885  140.0336  154.4135 S   0  0  0  0  0  0  0  0  0  0  0  0
  149.3221  141.0105  153.1413 N   0  5  0  0  0  0  0  0  0  0  0  0
  148.8524  140.5693  155.6267 O   0  0  0  0  0  0  0  0  0  0  0  0
  150.8563  139.5094  154.5437 O   0  0  0  0  0  0  0  0  0  0  0  0
  145.9350  134.8196  151.6264 C   0  0  2  0  0  0  0  0  0  0  0  0
  145.4492  136.0674  150.8648 C   0  0  0  0  0  0  0  0  0  0  0  0
  145.1013  133.6543  151.3447 N   0  0  0  0  0  0  0  0  0  0  0  0
  145.3687  132.3289  151.6227 C   0  0  0  0  0  0  0  0  0  0  0  0
  144.2994  131.5957  151.1945 C   0  0  0  0  0  0  0  0  0  0  0  0
  143.4107  132.5712  150.6646 C   0  0  0  0  0  0  0  0  0  0  0  0
  143.8898  133.8005  150.7604 N   0  0  0  0  0  0  0  0  0  0  0  0
  144.1010  134.5331  153.7214 H   0  0  0  0  0  0  0  0  0  0  0  0
  144.3358  136.2694  153.5374 H   0  0  0  0  0  0  0  0  0  0  0  0
  144.9709  135.4388  154.9523 H   0  0  0  0  0  0  0  0  0  0  0  0
  146.5560  134.1681  153.5721 H   0  0  0  0  0  0  0  0  0  0  0  0
  147.9526  135.9653  152.9522 H   0  0  0  0  0  0  0  0  0  0  0  0
  146.4158  136.9342  155.2448 H   0  0  0  0  0  0  0  0  0  0  0  0
  147.5427  135.5870  155.3410 H   0  0  0  0  0  0  0  0  0  0  0  0
  148.4697  137.9368  155.9431 H   0  0  0  0  0  0  0  0  0  0  0  0
  149.4295  136.9499  154.8663 H   0  0  0  0  0  0  0  0  0  0  0  0
  148.8235  138.2485  152.9339 H   0  0  0  0  0  0  0  0  0  0  0  0
  147.4311  138.9658  153.7426 H   0  0  0  0  0  0  0  0  0  0  0  0
  148.9843  140.4498  152.3502 H   0  0  0  0  0  0  0  0  0  0  0  0
  146.9213  134.5888  151.2205 H   0  0  0  0  0  0  0  0  0  0  0  0
  146.1322  136.9047  151.0101 H   0  0  0  0  0  0  0  0  0  0  0  0
  144.4604  136.3888  151.1935 H   0  0  0  0  0  0  0  0  0  0  0  0
  145.3928  135.8728  149.7933 H   0  0  0  0  0  0  0  0  0  0  0  0
  146.2888  132.0194  152.0964 H   0  0  0  0  0  0  0  0  0  0  0  0
  144.1715  130.5247  151.2510 H   0  0  0  0  0  0  0  0  0  0  0  0
  142.4381  132.4244  150.2185 H   0  0  0  0  0  0  0  0  0  0  0  0
  146.7060  137.0256  152.9318 H   0  0  0  0  0  0  0  0  0  0  0  0
  1  2  1  0  0  0  0
  1 18  1  0  0  0  0
  1 19  1  0  0  0  0
  1 20  1  0  0  0  0
  2  3  1  0  0  0  0
  2 11  1  0  0  0  0
  2 21  1  0  0  0  0
  3  4  1  0  0  0  0
  3 22  1  0  0  0  0
  3 37  1  0  0  0  0
  4  5  1  0  0  0  0
  4 23  1  0  0  0  0
  4 24  1  0  0  0  0
  5  6  1  0  0  0  0
  5 25  1  0  0  0  0
  5 26  1  0  0  0  0
  6  7  1  0  0  0  0
  6 27  1  0  0  0  0
  6 28  1  0  0  0  0
  7  8  1  0  0  0  0
  7  9  2  0  0  0  0
  7 10  2  0  0  0  0
  8 29  1  0  0  0  0
 11 12  1  0  0  0  0
 11 13  1  0  0  0  0
 11 30  1  0  0  0  0
 12 31  1  0  0  0  0
 12 32  1  0  0  0  0
 12 33  1  0  0  0  0
 13 17  1  0  0  0  0
 13 14  1  0  0  0  0
 14 15  2  0  0  0  0
 14 34  1  0  0  0  0
 15 16  1  0  0  0  0
 15 35  1  0  0  0  0
 16 17  2  0  0  0  0
 16 36  1  0  0  0  0
M  CHG  1   3   1
M  CHG  1   8  -1
M  END
> <s_m_source_file>
AV-unprocessed.smi

> <i_m_source_file_index>
658

> <i_lp_mmshare_version>
43012

> <i_f3d_flags>
0

> <s_epik_input>
bjFbY0hdW2NIXVtjSF1uMVtDQEBIXShbQ0gzXSlbQ0BIXShbQ0gzXSlbTkhdW0NIMl1bQ0gyXVtDSDJdUyg9TykoPU8pW05IMl0=

> <s_epik_cmdline>
J2VwaWtfcHl0aG9uJywgJy1waCcsICc3LjAnLCAnLXRuJywgJzgnLCAnLW1hJywgJzIwMCcsICctbWV0YWxfYmluZGluZycsICctaW1hZScsICc8aW5maWxlLm1hZT4nLCAnLW9tYWUnLCAnPG91dGZpbGUubWFlPic=

> <r_lp_tautomer_probability>
1

> <r_epik_Ionization_Penalty>
4.63642

> <r_epik_Ionization_Penalty_Charging>
4.63641

> <r_epik_Ionization_Penalty_Neutral>
1.08396e-05

> <r_epik_State_Penalty>
4.63466

> <r_epik_Charging_Adjusted_Penalty>
9.27106

> <i_epik_Tot_Q>
0

> <i_epik_Tot_abs_Q>
2

> <r_epik_Metal_State_Penalty>
0.890424

> <b_epik_Metal_Only>
1

> <s_lp_Force_Field>
OPLS_2005

> <r_lp_Energy>
0.307927

> <b_lp_Chiralities_Consistent>
1

> <s_lp_Variant>
AV-unprocessed.smi:658-5

> <Gold.Version>
5.8.1

> <Gold.Id.Protein>
6NUR|6NUR_protein|mol2

> <Gold.PLP.Fitness>
43.4555

> <Gold.PLP.PLP>
-26.9959

> <Gold.PLP.part.hbond>
-4.0487

> <Gold.PLP.part.metal>
0.0000

> <Gold.PLP.part.buried>
-4.7627

> <Gold.PLP.part.nonpolar>
-19.5407

> <Gold.PLP.part.repulsive>
0.3336

> <Gold.PLP.ligand.clash>
0.0000

> <Gold.PLP.ligand.torsion>
0.4482

> <Gold.PLP.Chemscore.Hbond>
4.5420

> <Gold.PLP.Chemscore.CHOScore>
1.1717

> <Gold.PLP.Chemscore.Metal>
0.0000

> <Gold.Chemscore.Hbonds>
donor molecule, donor type, donor heavy atom, donor atom, acceptor molecule, acceptor atom, score
      L1  H     3    22       P1  7948  1.81
      L1  H     8    29       P1  7957  0.43
      P1  H  7989  7998       L1    10  0.75
      P1  H  8011  8017       L1     8  1.00
      L1  C    16    36       P1 10186  0.81
      L1  C    16    36       P1 10952  0.57

> <Gold.PLP.Chemscore.Internal.Correction>
0.2148

> <Gold.Rescore>
     Score         DG    S(hbond)    S(metal)    S(lipo)     H(rot)  DE(clash)    DE(int)     intcor
     11.90     -12.45       2.68        0.00      49.58       3.04       0.24       0.31       ----

> <Gold.Chemscore.Fitness>
11.9012

> <Gold.Chemscore.DG>
-12.4466

> <Gold.Chemscore.ZeroCoef>
-5.4800

> <Gold.Chemscore.Hbond>
2.6799

> <Gold.Chemscore.Metal>
0.0000

> <Gold.Chemscore.Lipo>
49.5767

> <Gold.Chemscore.Internal_Hbond>
0.0000

> <Gold.Chemscore.DEClash>
0.2401

> <Gold.Chemscore.DEInternal>
0.3053

> <Gold.Chemscore.Rot>
3.0409

> <Gold.Chemscore.Internal.Correction>
   9.000000E+99

> <Gold.Chemscore.Hbonds>
donor molecule, donor type, donor heavy atom, donor atom, acceptor molecule, acceptor atom, score
      L1  H     3    22       P1  7948  0.83
      L1  H     8    29       P1  7957  0.43
      P1  H  7989  7998       L1    10  0.09
      P1  H  8011  8017       L1     8  0.26

> <Gold.Chemscore.Hbond.Weighted>
-8.9510

> <Gold.Chemscore.Metal.Weighted>
-0.0000

> <Gold.Chemscore.Lipo.Weighted>
-5.8005

> <Gold.Chemscore.Internal_Hbond.Weighted>
0.0000

> <Gold.Chemscore.DEClash.Weighted>
0.2401

> <Gold.Chemscore.DEInternal.Weighted>
0.3053

> <Gold.Chemscore.Rot.Weighted>
7.7848

> <Gold.Chemscore.Internal.Correction.Weighted>
   9.000000E+99

> <Gold.Protein.RotatedTorsions>
[ 6907 6896 6895 6894 ] final  -89.07 input  -60.11 | X-H torsion
[ 7974 7965 7964 7962 ] final -119.98 input  175.53 | X-H torsion
[ 8008 7997 7996 7995 ] final  115.97 input   59.86 | X-H torsion
[ 10167 10162 10161 10158 ] final  -11.84 input  -65.29 | X-H torsion
[ 10718 10713 10712 10709 ] final   34.23 input   66.30 | X-H torsion
[ 10763 10752 10751 10750 ] final  -39.05 input  -60.55 | X-H torsion
[ 11005 11000 10999 10996 ] final  138.40 input  -57.11 | X-H torsion

> <Gold.Protein.ActiveResidues>
 VAL166  LYS551  ARG553  GLY616  TRP617  ASP618  TYR619  PRO620  LYS621  CYS622 
 ASP623  PHE694  ASN695  SER759  ASP760  ASP761  ALA762  ILE779  LEU786  VAL792 
 PHE793  MET794  SER795  GLU796  ALA797  LYS798  CYS799  TRP800  GLU811  SER814 

> <Gold.Protein.RotatedAtoms>
  150.6872  134.2644  159.4562 H   0  0  0  0  0  0  0  0  0  0  0  0  # atno 6907 bound_to 6896
  152.0571  134.9615  160.0584 H   0  0  0  0  0  0  0  0  0  0  0  0  # atno 6908 bound_to 6896
  152.1056  133.4238  159.4644 H   0  0  0  0  0  0  0  0  0  0  0  0  # atno 6909 bound_to 6896
  145.0564  140.8257  143.4178 H   0  0  0  0  0  0  0  0  0  0  0  0  # atno 7974 bound_to 7965
  156.2412  140.2927  156.0451 H   0  0  0  0  0  0  0  0  0  0  0  0  # atno 8008 bound_to 7997
  155.1944  140.0408  157.2923 H   0  0  0  0  0  0  0  0  0  0  0  0  # atno 8009 bound_to 7997
  154.6173  140.2467  155.7601 H   0  0  0  0  0  0  0  0  0  0  0  0  # atno 8010 bound_to 7997
  140.7148  143.5597  150.9210 H   0  0  0  0  0  0  0  0  0  0  0  0  # atno 10167 bound_to 10162
  157.3078  130.7383  149.6706 H   0  0  0  0  0  0  0  0  0  0  0  0  # atno 10718 bound_to 10713
  153.9230  135.6780  153.4747 H   0  0  0  0  0  0  0  0  0  0  0  0  # atno 10763 bound_to 10752
  153.1019  135.4824  154.8879 H   0  0  0  0  0  0  0  0  0  0  0  0  # atno 10764 bound_to 10752
  154.7468  135.3174  154.8587 H   0  0  0  0  0  0  0  0  0  0  0  0  # atno 10765 bound_to 10752
  140.0181  134.9409  157.0417 H   0  0  0  0  0  0  0  0  0  0  0  0  # atno 11005 bound_to 11000
  145.1463  139.2541  143.5464 LP  0  0  0  0  0  0  0  0  0  0  0  0  # atno 17320 bound_to 7965
  146.3521  140.1153  142.8602 LP  0  0  0  0  0  0  0  0  0  0  0  0  # atno 17321 bound_to 7965
  139.9322  143.6480  152.3073 LP  0  0  0  0  0  0  0  0  0  0  0  0  # atno 17342 bound_to 10162
  139.6935  144.7644  151.1397 LP  0  0  0  0  0  0  0  0  0  0  0  0  # atno 17343 bound_to 10162
  155.9675  130.4260  150.4681 LP  0  0  0  0  0  0  0  0  0  0  0  0  # atno 17370 bound_to 10713
  157.2674  131.0580  151.2282 LP  0  0  0  0  0  0  0  0  0  0  0  0  # atno 17371 bound_to 10713
  140.4435  134.1656  155.7175 LP  0  0  0  0  0  0  0  0  0  0  0  0  # atno 17394 bound_to 11000
  141.1756  133.8521  157.1432 LP  0  0  0  0  0  0  0  0  0  0  0  0  # atno 17395 bound_to 11000

$$$$
