AV-unprocessed.smi:2438|AV-procd|sdf|9597|dock6
  -GOLD-   2272013233D 1   1.00000     0.00000
 Structure written by MMmdl.
 43 44  0  0  0  0  0  0  0  0  1 V2000
  148.2551  140.2010  154.2747 C   0  0  0  0  0  0  0  0  0  0  0  0
  148.8902  139.9700  155.5661 N   0  0  0  0  0  0  0  0  0  0  0  0
  149.1752  141.1576  156.3599 C   0  0  0  0  0  0  0  0  0  0  0  0
  149.9319  139.0210  155.5911 C   0  0  0  0  0  0  0  0  0  0  0  0
  151.0303  139.2612  154.8341 N   0  0  0  0  0  0  0  0  0  0  0  0
  152.0221  138.3705  154.8840 C   0  0  0  0  0  0  0  0  0  0  0  0
  152.0508  137.2492  155.6043 N   0  0  0  0  0  0  0  0  0  0  0  0
  150.9667  136.9880  156.3638 C   0  0  0  0  0  0  0  0  0  0  0  0
  149.8518  137.8606  156.4048 C   0  0  0  0  0  0  0  0  0  0  0  0
  148.6745  137.5781  157.1499 N   0  0  0  0  0  0  0  0  0  0  0  0
  148.5398  136.7172  158.1711 C   0  0  0  0  0  0  0  0  0  0  0  0
  149.4492  136.0367  158.6461 O   0  0  0  0  0  0  0  0  0  0  0  0
  147.2826  136.7113  158.6355 N   0  0  0  0  0  0  0  0  0  0  0  0
  146.8022  135.9317  159.7722 C   0  0  2  0  0  0  0  0  0  0  0  0
  147.3210  136.5557  161.0797 C   0  0  0  0  0  0  0  0  0  0  0  0
  146.9071  135.7196  162.2992 C   0  0  0  0  0  0  0  0  0  0  0  0
  147.3791  134.2641  162.1615 C   0  0  0  0  0  0  0  0  0  0  0  0
  146.8530  133.6156  160.8638 C   0  0  2  0  0  0  0  0  0  0  0  0
  147.3102  132.1486  160.7252 C   0  0  0  0  0  0  0  0  0  0  0  0
  146.8466  131.4098  161.7339 F   0  0  0  0  0  0  0  0  0  0  0  0
  146.8653  131.6378  159.5772 F   0  0  0  0  0  0  0  0  0  0  0  0
  148.6415  132.0836  160.7207 F   0  0  0  0  0  0  0  0  0  0  0  0
  147.2611  134.4652  159.6410 C   0  0  0  0  0  0  0  0  0  0  0  0
  148.0287  139.2569  153.7774 H   0  0  0  0  0  0  0  0  0  0  0  0
  148.8997  140.7923  153.6230 H   0  0  0  0  0  0  0  0  0  0  0  0
  147.3179  140.7419  154.4075 H   0  0  0  0  0  0  0  0  0  0  0  0
  149.5005  140.9057  157.3692 H   0  0  0  0  0  0  0  0  0  0  0  0
  148.2841  141.7803  156.4432 H   0  0  0  0  0  0  0  0  0  0  0  0
  149.9605  141.7496  155.8882 H   0  0  0  0  0  0  0  0  0  0  0  0
  152.8898  138.5777  154.2754 H   0  0  0  0  0  0  0  0  0  0  0  0
  150.9909  136.0594  156.9136 H   0  0  0  0  0  0  0  0  0  0  0  0
  147.8747  138.1568  156.9374 H   0  0  0  0  0  0  0  0  0  0  0  0
  146.6072  137.3061  158.1782 H   0  0  0  0  0  0  0  0  0  0  0  0
  145.7110  135.9583  159.7974 H   0  0  0  0  0  0  0  0  0  0  0  0
  148.4089  136.6331  161.0484 H   0  0  0  0  0  0  0  0  0  0  0  0
  146.9413  137.5727  161.1855 H   0  0  0  0  0  0  0  0  0  0  0  0
  147.3196  136.1598  163.2075 H   0  0  0  0  0  0  0  0  0  0  0  0
  145.8221  135.7440  162.4094 H   0  0  0  0  0  0  0  0  0  0  0  0
  148.4693  134.2340  162.1751 H   0  0  0  0  0  0  0  0  0  0  0  0
  147.0455  133.6935  163.0285 H   0  0  0  0  0  0  0  0  0  0  0  0
  145.7629  133.6133  160.9144 H   0  0  0  0  0  0  0  0  0  0  0  0
  146.8389  134.0317  158.7338 H   0  0  0  0  0  0  0  0  0  0  0  0
  148.3448  134.4313  159.5205 H   0  0  0  0  0  0  0  0  0  0  0  0
  1  2  1  0  0  0  0
  1 24  1  0  0  0  0
  1 25  1  0  0  0  0
  1 26  1  0  0  0  0
  2  3  1  0  0  0  0
  2  4  1  0  0  0  0
  3 27  1  0  0  0  0
  3 28  1  0  0  0  0
  3 29  1  0  0  0  0
  4  9  1  0  0  0  0
  4  5  2  0  0  0  0
  5  6  1  0  0  0  0
  6  7  2  0  0  0  0
  6 30  1  0  0  0  0
  7  8  1  0  0  0  0
  8  9  2  0  0  0  0
  8 31  1  0  0  0  0
  9 10  1  0  0  0  0
 10 11  1  0  0  0  0
 10 32  1  0  0  0  0
 11 12  2  0  0  0  0
 11 13  1  0  0  0  0
 13 14  1  0  0  0  0
 13 33  1  0  0  0  0
 14 23  1  0  0  0  0
 14 15  1  0  0  0  0
 14 34  1  0  0  0  0
 15 16  1  0  0  0  0
 15 35  1  0  0  0  0
 15 36  1  0  0  0  0
 16 17  1  0  0  0  0
 16 37  1  0  0  0  0
 16 38  1  0  0  0  0
 17 18  1  0  0  0  0
 17 39  1  0  0  0  0
 17 40  1  0  0  0  0
 18 19  1  0  0  0  0
 18 23  1  0  0  0  0
 18 41  1  0  0  0  0
 19 20  1  0  0  0  0
 19 21  1  0  0  0  0
 19 22  1  0  0  0  0
 23 42  1  0  0  0  0
 23 43  1  0  0  0  0
M  END
> <s_m_source_file>
AV-unprocessed.smi

> <i_m_source_file_index>
2438

> <i_lp_mmshare_version>
43012

> <i_f3d_flags>
0

> <s_epik_input>
W0NIM11OKFtDSDNdKWMxbltjSF1uW2NIXWMxW05IXUMoPU8pW05IXVtDQEBIXTJbQ0gyXVtDSDJdW0NIMl1bQ0BASF0oQyhGKShGKUYpW0NIMl0y

> <s_epik_cmdline>
J2VwaWtfcHl0aG9uJywgJy1waCcsICc3LjAnLCAnLXRuJywgJzgnLCAnLW1hJywgJzIwMCcsICctbWV0YWxfYmluZGluZycsICctaW1hZScsICc8aW5maWxlLm1hZT4nLCAnLW9tYWUnLCAnPG91dGZpbGUubWFlPic=

> <r_lp_tautomer_probability>
1

> <r_epik_Ionization_Penalty>
0.01759

> <r_epik_Ionization_Penalty_Charging>
0

> <r_epik_Ionization_Penalty_Neutral>
0.01759

> <r_epik_State_Penalty>
0.0133536

> <r_epik_Charging_Adjusted_Penalty>
0.0133536

> <i_epik_Tot_Q>
0

> <i_epik_Tot_abs_Q>
0

> <r_epik_Metal_State_Penalty>
0.0129828

> <b_epik_Metal_Only>
0

> <s_lp_Force_Field>
OPLS_2005

> <r_lp_Energy>
11.5061

> <b_lp_Chiralities_Consistent>
1

> <s_lp_Variant>
AV-unprocessed.smi:2438-3

> <Gold.Version>
5.8.1

> <Gold.Id.Protein>
6NUR|6NUR_protein|mol2

> <Gold.PLP.Fitness>
38.4573

> <Gold.PLP.PLP>
-30.5441

> <Gold.PLP.part.hbond>
-2.8696

> <Gold.PLP.part.metal>
0.0000

> <Gold.PLP.part.buried>
-3.9337

> <Gold.PLP.part.nonpolar>
-24.8113

> <Gold.PLP.part.repulsive>
0.3049

> <Gold.PLP.ligand.clash>
0.0000

> <Gold.PLP.ligand.torsion>
0.4696

> <Gold.PLP.Chemscore.Hbond>
2.8375

> <Gold.PLP.Chemscore.CHOScore>
0.0000

> <Gold.PLP.Chemscore.Metal>
0.0000

> <Gold.Chemscore.Hbonds>
donor molecule, donor type, donor heavy atom, donor atom, acceptor molecule, acceptor atom, score
      P1  H  6896  6908       L1    12  0.84
      P1  H  7989  7998       L1     5  0.65
      P1  H 10752 10765       L1     7  0.76

> <Gold.PLP.Chemscore.Internal.Correction>
0.3398

> <Gold.Rescore>
     Score         DG    S(hbond)    S(metal)    S(lipo)     H(rot)  DE(clash)    DE(int)     intcor
     15.13     -17.71       2.49        0.00      61.81       1.30       0.02       2.56       ----

> <Gold.Chemscore.Fitness>
15.1309

> <Gold.Chemscore.DG>
-17.7058

> <Gold.Chemscore.ZeroCoef>
-5.4800

> <Gold.Chemscore.Hbond>
2.4905

> <Gold.Chemscore.Metal>
0.0000

> <Gold.Chemscore.Lipo>
61.8138

> <Gold.Chemscore.Internal_Hbond>
0.0000

> <Gold.Chemscore.DEClash>
0.0174

> <Gold.Chemscore.DEInternal>
2.5575

> <Gold.Chemscore.Rot>
1.2987

> <Gold.Chemscore.Internal.Correction>
   9.000000E+99

> <Gold.Chemscore.Hbonds>
donor molecule, donor type, donor heavy atom, donor atom, acceptor molecule, acceptor atom, score
      P1  H  6896  6908       L1    12  0.84
      P1  H  7989  7998       L1     5  0.42
      P1  H 10752 10765       L1     7  0.61

> <Gold.Chemscore.Hbond.Weighted>
-8.3181

> <Gold.Chemscore.Metal.Weighted>
-0.0000

> <Gold.Chemscore.Lipo.Weighted>
-7.2322

> <Gold.Chemscore.Internal_Hbond.Weighted>
0.0000

> <Gold.Chemscore.DEClash.Weighted>
0.0174

> <Gold.Chemscore.DEInternal.Weighted>
2.5575

> <Gold.Chemscore.Rot.Weighted>
3.3246

> <Gold.Chemscore.Internal.Correction.Weighted>
   9.000000E+99

> <Gold.Protein.RotatedTorsions>
[ 6907 6896 6895 6894 ] final -171.39 input  -60.11 | X-H torsion
[ 7974 7965 7964 7962 ] final  -20.37 input  175.53 | X-H torsion
[ 8008 7997 7996 7995 ] final  116.01 input   59.86 | X-H torsion
[ 10167 10162 10161 10158 ] final  -55.91 input  -65.29 | X-H torsion
[ 10718 10713 10712 10709 ] final -128.51 input   66.30 | X-H torsion
[ 10763 10752 10751 10750 ] final -173.50 input  -60.55 | X-H torsion
[ 11005 11000 10999 10996 ] final  150.33 input  -57.11 | X-H torsion

> <Gold.Protein.ActiveResidues>
 VAL166  LYS551  ARG553  GLY616  TRP617  ASP618  TYR619  PRO620  LYS621  CYS622 
 ASP623  PHE694  ASN695  SER759  ASP760  ASP761  ALA762  ILE779  LEU786  VAL792 
 PHE793  MET794  SER795  GLU796  ALA797  LYS798  CYS799  TRP800  GLU811  SER814 

> <Gold.Protein.RotatedAtoms>
  151.5231  133.3463  159.2904 H   0  0  0  0  0  0  0  0  0  0  0  0  # atno 6907 bound_to 6896
  150.8640  134.8001  159.7115 H   0  0  0  0  0  0  0  0  0  0  0  0  # atno 6908 bound_to 6896
  152.4651  134.5104  159.9804 H   0  0  0  0  0  0  0  0  0  0  0  0  # atno 6909 bound_to 6896
  146.1791  140.4193  142.8501 H   0  0  0  0  0  0  0  0  0  0  0  0  # atno 7974 bound_to 7965
  156.2415  140.2926  156.0457 H   0  0  0  0  0  0  0  0  0  0  0  0  # atno 8008 bound_to 7997
  155.1937  140.0407  157.2922 H   0  0  0  0  0  0  0  0  0  0  0  0  # atno 8009 bound_to 7997
  154.6177  140.2468  155.7595 H   0  0  0  0  0  0  0  0  0  0  0  0  # atno 8010 bound_to 7997
  140.6347  143.2476  151.5149 H   0  0  0  0  0  0  0  0  0  0  0  0  # atno 10167 bound_to 10162
  156.1957  130.6825  151.0479 H   0  0  0  0  0  0  0  0  0  0  0  0  # atno 10718 bound_to 10713
  154.6071  135.2860  155.0473 H   0  0  0  0  0  0  0  0  0  0  0  0  # atno 10763 bound_to 10752
  154.1716  135.6471  153.5015 H   0  0  0  0  0  0  0  0  0  0  0  0  # atno 10764 bound_to 10752
  153.0180  135.5402  154.6811 H   0  0  0  0  0  0  0  0  0  0  0  0  # atno 10765 bound_to 10752
  140.1122  134.8917  157.1952 H   0  0  0  0  0  0  0  0  0  0  0  0  # atno 11005 bound_to 11000
  144.8286  140.6669  143.6306 LP  0  0  0  0  0  0  0  0  0  0  0  0  # atno 17320 bound_to 7965
  145.4126  139.1577  143.4117 LP  0  0  0  0  0  0  0  0  0  0  0  0  # atno 17321 bound_to 7965
  139.5558  144.2278  152.1610 LP  0  0  0  0  0  0  0  0  0  0  0  0  # atno 17342 bound_to 10162
  140.1532  144.5095  150.6675 LP  0  0  0  0  0  0  0  0  0  0  0  0  # atno 17343 bound_to 10162
  157.6956  131.0795  150.6978 LP  0  0  0  0  0  0  0  0  0  0  0  0  # atno 17370 bound_to 10713
  156.7035  130.4630  149.5566 LP  0  0  0  0  0  0  0  0  0  0  0  0  # atno 17371 bound_to 10713
  140.3076  134.3060  155.7274 LP  0  0  0  0  0  0  0  0  0  0  0  0  # atno 17394 bound_to 11000
  141.2133  133.7630  156.9730 LP  0  0  0  0  0  0  0  0  0  0  0  0  # atno 17395 bound_to 11000

$$$$
