AV-unprocessed.smi:158|AV-procd|sdf|1330|dock5
  -GOLD-   2262019 23D 1   1.00000     0.00000
 Structure written by MMmdl.
 31 33  0  0  0  0  0  0  0  0  1 V2000
  147.9029  135.2606  159.5325 N   0  0  0  0  0  0  0  0  0  0  0  0
  148.1565  136.4354  158.9398 C   0  0  0  0  0  0  0  0  0  0  0  0
  147.1139  137.2400  158.6283 N   0  0  0  0  0  0  0  0  0  0  0  0
  147.3248  138.4234  158.0382 C   0  0  0  0  0  0  0  0  0  0  0  0
  145.9238  139.3655  157.6884 Cl  0  0  0  0  0  0  0  0  0  0  0  0
  148.5002  138.9573  157.6879 N   0  0  0  0  0  0  0  0  0  0  0  0
  149.5525  138.1459  157.9976 C   0  0  0  0  0  0  0  0  0  0  0  0
  149.4653  136.8757  158.6254 C   0  0  0  0  0  0  0  0  0  0  0  0
  150.7360  136.3437  158.7937 N   0  0  0  0  0  0  0  0  0  0  0  0
  151.5266  137.2558  158.2938 C   0  0  0  0  0  0  0  0  0  0  0  0
  150.8943  138.3671  157.7740 N   0  0  0  0  0  0  0  0  0  0  0  0
  151.4819  139.5900  157.1374 C   0  0  1  0  0  0  0  0  0  0  0  0
  152.5354  139.1843  156.3081 O   0  0  0  0  0  0  0  0  0  0  0  0
  152.1811  139.3047  154.9253 C   0  0  1  0  0  0  0  0  0  0  0  0
  152.6591  138.0787  154.1309 C   0  0  0  0  0  0  0  0  0  0  0  0
  151.7478  137.0136  154.2915 O   0  0  0  0  0  0  0  0  0  0  0  0
  150.6587  139.4673  154.9417 C   0  0  2  0  0  0  0  0  0  0  0  0
  150.1452  140.1533  153.8171 O   0  0  0  0  0  0  0  0  0  0  0  0
  150.4479  140.2499  156.2235 C   0  0  2  0  0  0  0  0  0  0  0  0
  150.7890  141.5329  156.0804 F   0  0  0  0  0  0  0  0  0  0  0  0
  151.8141  140.2047  157.9751 H   0  0  0  0  0  0  0  0  0  0  0  0
  152.6344  140.2186  154.5360 H   0  0  0  0  0  0  0  0  0  0  0  0
  150.1729  138.4935  155.0213 H   0  0  0  0  0  0  0  0  0  0  0  0
  149.4339  140.2050  156.6215 H   0  0  0  0  0  0  0  0  0  0  0  0
  148.6664  134.6452  159.7748 H   0  0  0  0  0  0  0  0  0  0  0  0
  146.9508  134.9927  159.7363 H   0  0  0  0  0  0  0  0  0  0  0  0
  152.5990  137.1348  158.2981 H   0  0  0  0  0  0  0  0  0  0  0  0
  152.7940  138.3072  153.0746 H   0  0  0  0  0  0  0  0  0  0  0  0
  153.6236  137.7411  154.5112 H   0  0  0  0  0  0  0  0  0  0  0  0
  151.3955  136.7878  153.4442 H   0  0  0  0  0  0  0  0  0  0  0  0
  150.1002  139.5506  153.0907 H   0  0  0  0  0  0  0  0  0  0  0  0
  1  2  1  0  0  0  0
  1 25  1  0  0  0  0
  1 26  1  0  0  0  0
  2  8  1  0  0  0  0
  2  3  2  0  0  0  0
  3  4  1  0  0  0  0
  4  5  1  0  0  0  0
  4  6  2  0  0  0  0
  6  7  1  0  0  0  0
  7 11  1  0  0  0  0
  7  8  2  0  0  0  0
  8  9  1  0  0  0  0
  9 10  2  0  0  0  0
 10 11  1  0  0  0  0
 10 27  1  0  0  0  0
 11 12  1  0  0  0  0
 12 21  1  0  0  0  0
 12 19  1  0  0  0  0
 12 13  1  0  0  0  0
 13 14  1  0  0  0  0
 14 22  1  0  0  0  0
 14 15  1  0  0  0  0
 14 17  1  0  0  0  0
 15 16  1  0  0  0  0
 15 28  1  0  0  0  0
 15 29  1  0  0  0  0
 16 30  1  0  0  0  0
 17 23  1  0  0  0  0
 17 18  1  0  0  0  0
 17 19  1  0  0  0  0
 18 31  1  0  0  0  0
 19 24  1  0  0  0  0
 19 20  1  0  0  0  0
M  END
> <s_m_source_file>
AV-unprocessed.smi

> <i_m_source_file_index>
158

> <i_lp_mmshare_version>
43012

> <i_f3d_flags>
0

> <s_epik_input>
Q2xjKG4xKW5jKFtOSDJdKWMoYzEyKW5bY0hdbjJbQ0BASF0zT1tDQEhdKFtDSDJdW09IXSlbQ0BASF0oW09IXSlbQ0BASF0zRg==

> <s_epik_cmdline>
J2VwaWtfcHl0aG9uJywgJy1waCcsICc3LjAnLCAnLXRuJywgJzgnLCAnLW1hJywgJzIwMCcsICctbWV0YWxfYmluZGluZycsICctaW1hZScsICc8aW5maWxlLm1hZT4nLCAnLW9tYWUnLCAnPG91dGZpbGUubWFlPic=

> <r_lp_tautomer_probability>
1

> <r_epik_Ionization_Penalty>
6.51543e-05

> <r_epik_Ionization_Penalty_Charging>
0

> <r_epik_Ionization_Penalty_Neutral>
6.51543e-05

> <r_epik_State_Penalty>
-0

> <r_epik_Charging_Adjusted_Penalty>
0

> <i_epik_Tot_Q>
0

> <i_epik_Tot_abs_Q>
0

> <r_epik_Metal_State_Penalty>
-0

> <b_epik_Metal_Only>
0

> <s_epik_Chemistry_Notes>
This compound contains an acetal/aminal-like group ( X-CH(R)-Y where X, Y are N, S, or O) that may be acid/base labile, releasing an aldehyde.

> <s_lp_Force_Field>
OPLS_2005

> <r_lp_Energy>
30.2805

> <b_lp_Chiralities_Consistent>
1

> <s_lp_Variant>
AV-unprocessed.smi:158-8

> <Gold.Version>
5.8.1

> <Gold.Id.Protein>
6NUR|6NUR_protein|mol2

> <Gold.PLP.Fitness>
38.3834

> <Gold.PLP.PLP>
-25.8019

> <Gold.PLP.part.hbond>
-5.9633

> <Gold.PLP.part.metal>
0.0000

> <Gold.PLP.part.buried>
-2.2294

> <Gold.PLP.part.nonpolar>
-17.1913

> <Gold.PLP.part.repulsive>
0.0676

> <Gold.PLP.ligand.clash>
0.0000

> <Gold.PLP.ligand.torsion>
0.8592

> <Gold.PLP.Chemscore.Hbond>
4.7574

> <Gold.PLP.Chemscore.CHOScore>
0.0000

> <Gold.PLP.Chemscore.Metal>
0.0000

> <Gold.Chemscore.Hbonds>
donor molecule, donor type, donor heavy atom, donor atom, acceptor molecule, acceptor atom, score
      L1  H    16    30       P1  7949  0.78
      L1  H    18    31       P1  7957  0.51
      P1  H  6896  6908       L1     9  0.96
      P1  H  7989  7998       L1    18  0.54
      P1  H  7997  8010       L1    13  1.00
      P1  H 10752 10763       L1    16  0.96

> <Gold.PLP.Chemscore.Internal.Correction>
0.0276

> <Gold.Rescore>
     Score         DG    S(hbond)    S(metal)    S(lipo)     H(rot)  DE(clash)    DE(int)     intcor
      8.19     -10.74       2.77        0.00      34.21       3.12       0.40       2.15       ----

> <Gold.Chemscore.Fitness>
8.1887

> <Gold.Chemscore.DG>
-10.7365

> <Gold.Chemscore.ZeroCoef>
-5.4800

> <Gold.Chemscore.Hbond>
2.7693

> <Gold.Chemscore.Metal>
0.0000

> <Gold.Chemscore.Lipo>
34.2052

> <Gold.Chemscore.Internal_Hbond>
0.0000

> <Gold.Chemscore.DEClash>
0.3956

> <Gold.Chemscore.DEInternal>
2.1522

> <Gold.Chemscore.Rot>
3.1230

> <Gold.Chemscore.Internal.Correction>
   9.000000E+99

> <Gold.Chemscore.Hbonds>
donor molecule, donor type, donor heavy atom, donor atom, acceptor molecule, acceptor atom, score
      L1  H    16    30       P1  7949  0.60
      L1  H    18    31       P1  7957  0.47
      P1  H  6896  6908       L1     9  0.92
      P1  H  7989  7998       L1    18  0.01
      P1  H  7997  8010       L1    13  0.28
      P1  H 10752 10763       L1    16  0.06

> <Gold.Chemscore.Hbond.Weighted>
-9.2494

> <Gold.Chemscore.Metal.Weighted>
-0.0000

> <Gold.Chemscore.Lipo.Weighted>
-4.0020

> <Gold.Chemscore.Internal_Hbond.Weighted>
0.0000

> <Gold.Chemscore.DEClash.Weighted>
0.3956

> <Gold.Chemscore.DEInternal.Weighted>
2.1522

> <Gold.Chemscore.Rot.Weighted>
7.9950

> <Gold.Chemscore.Internal.Correction.Weighted>
   9.000000E+99

> <Gold.Protein.RotatedTorsions>
[ 6907 6896 6895 6894 ] final -151.04 input  -60.11 | X-H torsion
[ 7974 7965 7964 7962 ] final    1.98 input  175.53 | X-H torsion
[ 8008 7997 7996 7995 ] final   78.69 input   59.86 | X-H torsion
[ 10167 10162 10161 10158 ] final -110.77 input  -65.29 | X-H torsion
[ 10718 10713 10712 10709 ] final -102.28 input   66.30 | X-H torsion
[ 10763 10752 10751 10750 ] final   58.07 input  -60.55 | X-H torsion
[ 11005 11000 10999 10996 ] final  113.39 input  -57.11 | X-H torsion

> <Gold.Protein.ActiveResidues>
 VAL166  LYS551  ARG553  GLY616  TRP617  ASP618  TYR619  PRO620  LYS621  CYS622 
 ASP623  PHE694  ASN695  SER759  ASP760  ASP761  ALA762  ILE779  LEU786  VAL792 
 PHE793  MET794  SER795  GLU796  ALA797  LYS798  CYS799  TRP800  GLU811  SER814 

> <Gold.Protein.RotatedAtoms>
  151.2073  133.4576  159.2597 H   0  0  0  0  0  0  0  0  0  0  0  0  # atno 6907 bound_to 6896
  151.1011  134.9973  159.8459 H   0  0  0  0  0  0  0  0  0  0  0  0  # atno 6908 bound_to 6896
  152.5443  134.1999  159.8761 H   0  0  0  0  0  0  0  0  0  0  0  0  # atno 6909 bound_to 6896
  146.2442  140.0905  142.8352 H   0  0  0  0  0  0  0  0  0  0  0  0  # atno 7974 bound_to 7965
  155.8592  140.3454  155.5745 H   0  0  0  0  0  0  0  0  0  0  0  0  # atno 8008 bound_to 7997
  155.7952  140.0877  157.2007 H   0  0  0  0  0  0  0  0  0  0  0  0  # atno 8009 bound_to 7997
  154.4011  140.1476  156.3196 H   0  0  0  0  0  0  0  0  0  0  0  0  # atno 8010 bound_to 7997
  140.1408  143.4280  152.1563 H   0  0  0  0  0  0  0  0  0  0  0  0  # atno 10167 bound_to 10162
  156.0223  130.5412  150.7085 H   0  0  0  0  0  0  0  0  0  0  0  0  # atno 10718 bound_to 10713
  152.9863  135.5619  154.5493 H   0  0  0  0  0  0  0  0  0  0  0  0  # atno 10763 bound_to 10752
  154.4933  135.2794  155.1481 H   0  0  0  0  0  0  0  0  0  0  0  0  # atno 10764 bound_to 10752
  154.2941  135.6320  153.5450 H   0  0  0  0  0  0  0  0  0  0  0  0  # atno 10765 bound_to 10752
  139.8952  134.9549  156.6732 H   0  0  0  0  0  0  0  0  0  0  0  0  # atno 11005 bound_to 11000
  145.0655  140.9118  143.4913 LP  0  0  0  0  0  0  0  0  0  0  0  0  # atno 17320 bound_to 7965
  145.1029  139.2810  143.5677 LP  0  0  0  0  0  0  0  0  0  0  0  0  # atno 17321 bound_to 7965
  139.5473  144.7309  151.4544 LP  0  0  0  0  0  0  0  0  0  0  0  0  # atno 17342 bound_to 10162
  140.6761  143.8186  150.7060 LP  0  0  0  0  0  0  0  0  0  0  0  0  # atno 17343 bound_to 10162
  157.4729  131.0895  151.0623 LP  0  0  0  0  0  0  0  0  0  0  0  0  # atno 17370 bound_to 10713
  157.1078  130.6009  149.5475 LP  0  0  0  0  0  0  0  0  0  0  0  0  # atno 17371 bound_to 10713
  140.7357  133.9021  155.8242 LP  0  0  0  0  0  0  0  0  0  0  0  0  # atno 17394 bound_to 11000
  141.0118  134.1010  157.4214 LP  0  0  0  0  0  0  0  0  0  0  0  0  # atno 17395 bound_to 11000

$$$$
