AV-unprocessed.smi:1945|AV-procd|sdf|7860|dock2
  -GOLD-   2272010 13D 1   1.00000     0.00000
 Structure written by MMmdl.
 47 48  0  0  0  0  0  0  0  0  1 V2000
  143.7668  132.5084  149.3582 C   0  0  0  0  0  0  0  0  0  0  0  0
  144.8125  133.2212  150.1635 C   0  0  0  0  0  0  0  0  0  0  0  0
  144.8731  134.6059  150.4941 C   0  0  0  0  0  0  0  0  0  0  0  0
  146.0241  134.6909  151.2294 C   0  0  0  0  0  0  0  0  0  0  0  0
  146.5861  135.7853  151.8089 N   0  0  0  0  0  0  0  0  0  0  0  0
  145.9783  136.8360  152.3866 C   0  0  0  0  0  0  0  0  0  0  0  0
  144.7621  136.9710  152.5223 O   0  0  0  0  0  0  0  0  0  0  0  0
  146.8740  137.7448  152.7990 N   0  0  0  0  0  0  0  0  0  0  0  0
  146.5463  139.0343  153.3986 C   0  0  0  0  0  0  0  0  0  0  0  0
  147.7899  139.9280  153.5095 C   0  0  0  0  0  0  0  0  0  0  0  0
  148.2028  139.9805  154.8669 O   0  0  0  0  0  0  0  0  0  0  0  0
  149.5012  140.5178  155.0754 C   0  0  1  0  0  0  0  0  0  0  0  0
  149.5078  141.3285  156.3893 C   0  0  0  0  0  0  0  0  0  0  0  0
  150.9201  141.8107  156.7512 C   0  0  0  0  0  0  0  0  0  0  0  0
  151.8999  140.6322  156.8323 C   0  0  0  0  0  0  0  0  0  0  0  0
  151.9048  139.8287  155.5231 C   0  0  0  0  0  0  0  0  0  0  0  0
  150.4926  139.3345  155.1500 C   0  0  2  0  0  0  0  0  0  0  0  0
  150.5263  138.5349  153.8376 C   0  0  0  0  0  0  0  0  0  0  0  0
  146.5864  133.4354  151.3207 N   0  0  0  0  0  0  0  0  0  0  0  0
  147.7995  132.9991  151.9851 C   0  0  0  0  0  0  0  0  0  0  0  0
  145.8343  132.5315  150.6575 N   0  0  0  0  0  0  0  0  0  0  0  0
  142.9856  133.1947  149.0314 H   0  0  0  0  0  0  0  0  0  0  0  0
  143.2920  131.7193  149.9415 H   0  0  0  0  0  0  0  0  0  0  0  0
  144.2007  132.0520  148.4683 H   0  0  0  0  0  0  0  0  0  0  0  0
  144.1784  135.3873  150.2255 H   0  0  0  0  0  0  0  0  0  0  0  0
  147.5939  135.8218  151.7702 H   0  0  0  0  0  0  0  0  0  0  0  0
  147.8534  137.5482  152.6536 H   0  0  0  0  0  0  0  0  0  0  0  0
  145.7553  139.5391  152.8413 H   0  0  0  0  0  0  0  0  0  0  0  0
  146.1474  138.8429  154.3948 H   0  0  0  0  0  0  0  0  0  0  0  0
  148.5996  139.5151  152.9065 H   0  0  0  0  0  0  0  0  0  0  0  0
  147.5690  140.9211  153.1177 H   0  0  0  0  0  0  0  0  0  0  0  0
  149.7846  141.1606  154.2395 H   0  0  0  0  0  0  0  0  0  0  0  0
  148.8445  142.1896  156.3149 H   0  0  0  0  0  0  0  0  0  0  0  0
  149.1179  140.7107  157.1994 H   0  0  0  0  0  0  0  0  0  0  0  0
  151.2658  142.5256  156.0037 H   0  0  0  0  0  0  0  0  0  0  0  0
  150.8985  142.3424  157.7028 H   0  0  0  0  0  0  0  0  0  0  0  0
  152.9041  140.9975  157.0489 H   0  0  0  0  0  0  0  0  0  0  0  0
  151.6218  139.9803  157.6613 H   0  0  0  0  0  0  0  0  0  0  0  0
  152.3021  140.4497  154.7188 H   0  0  0  0  0  0  0  0  0  0  0  0
  152.5829  138.9803  155.6206 H   0  0  0  0  0  0  0  0  0  0  0  0
  150.1556  138.6604  155.9392 H   0  0  0  0  0  0  0  0  0  0  0  0
  150.8515  139.1566  153.0029 H   0  0  0  0  0  0  0  0  0  0  0  0
  149.5429  138.1341  153.5904 H   0  0  0  0  0  0  0  0  0  0  0  0
  151.2123  137.6906  153.9112 H   0  0  0  0  0  0  0  0  0  0  0  0
  148.1991  133.7920  152.6174 H   0  0  0  0  0  0  0  0  0  0  0  0
  148.5481  132.7295  151.2396 H   0  0  0  0  0  0  0  0  0  0  0  0
  147.5873  132.1294  152.6078 H   0  0  0  0  0  0  0  0  0  0  0  0
  1  2  1  0  0  0  0
  1 22  1  0  0  0  0
  1 23  1  0  0  0  0
  1 24  1  0  0  0  0
  2 21  2  0  0  0  0
  2  3  1  0  0  0  0
  3  4  2  0  0  0  0
  3 25  1  0  0  0  0
  4  5  1  0  0  0  0
  4 19  1  0  0  0  0
  5  6  1  0  0  0  0
  5 26  1  0  0  0  0
  6  7  2  0  0  0  0
  6  8  1  0  0  0  0
  8  9  1  0  0  0  0
  8 27  1  0  0  0  0
  9 10  1  0  0  0  0
  9 28  1  0  0  0  0
  9 29  1  0  0  0  0
 10 11  1  0  0  0  0
 10 30  1  0  0  0  0
 10 31  1  0  0  0  0
 11 12  1  0  0  0  0
 12 17  1  0  0  0  0
 12 13  1  0  0  0  0
 12 32  1  0  0  0  0
 13 14  1  0  0  0  0
 13 33  1  0  0  0  0
 13 34  1  0  0  0  0
 14 15  1  0  0  0  0
 14 35  1  0  0  0  0
 14 36  1  0  0  0  0
 15 16  1  0  0  0  0
 15 37  1  0  0  0  0
 15 38  1  0  0  0  0
 16 17  1  0  0  0  0
 16 39  1  0  0  0  0
 16 40  1  0  0  0  0
 17 18  1  0  0  0  0
 17 41  1  0  0  0  0
 18 42  1  0  0  0  0
 18 43  1  0  0  0  0
 18 44  1  0  0  0  0
 19 20  1  0  0  0  0
 19 21  1  0  0  0  0
 20 45  1  0  0  0  0
 20 46  1  0  0  0  0
 20 47  1  0  0  0  0
M  END
> <s_m_source_file>
AV-unprocessed.smi

> <i_m_source_file_index>
1945

> <i_lp_mmshare_version>
43012

> <i_f3d_flags>
0

> <s_epik_input>
W0NIM11jMVtjSF1jKG4objEpW0NIM10pW05IXUMoPU8pW05IXVtDSDJdW0NIMl1PW0NAQEhdMltDSDJdW0NIMl1bQ0gyXVtDSDJdW0NASF0yW0NIM10=

> <s_epik_cmdline>
J2VwaWtfcHl0aG9uJywgJy1waCcsICc3LjAnLCAnLXRuJywgJzgnLCAnLW1hJywgJzIwMCcsICctbWV0YWxfYmluZGluZycsICctaW1hZScsICc8aW5maWxlLm1hZT4nLCAnLW9tYWUnLCAnPG91dGZpbGUubWFlPic=

> <r_lp_tautomer_probability>
1

> <r_epik_Ionization_Penalty>
9.47735e-05

> <r_epik_Ionization_Penalty_Charging>
0

> <r_epik_Ionization_Penalty_Neutral>
9.47735e-05

> <r_epik_State_Penalty>
-0

> <r_epik_Charging_Adjusted_Penalty>
0

> <i_epik_Tot_Q>
0

> <i_epik_Tot_abs_Q>
0

> <r_epik_Metal_State_Penalty>
-0

> <b_epik_Metal_Only>
0

> <s_lp_Force_Field>
OPLS_2005

> <r_lp_Energy>
11.6834

> <b_lp_Chiralities_Consistent>
1

> <s_lp_Variant>
AV-unprocessed.smi:1945-4

> <Gold.Version>
5.8.1

> <Gold.Id.Protein>
6NUR|6NUR_protein|mol2

> <Gold.PLP.Fitness>
40.3991

> <Gold.PLP.PLP>
-37.1322

> <Gold.PLP.part.hbond>
-1.9165

> <Gold.PLP.part.metal>
0.0000

> <Gold.PLP.part.buried>
-3.9600

> <Gold.PLP.part.nonpolar>
-33.6947

> <Gold.PLP.part.repulsive>
0.4650

> <Gold.PLP.ligand.clash>
0.0000

> <Gold.PLP.ligand.torsion>
1.1640

> <Gold.PLP.Chemscore.Hbond>
1.8160

> <Gold.PLP.Chemscore.CHOScore>
0.0000

> <Gold.PLP.Chemscore.Metal>
0.0000

> <Gold.Chemscore.Hbonds>
donor molecule, donor type, donor heavy atom, donor atom, acceptor molecule, acceptor atom, score
      L1  H     5    26       P1  7948  0.65
      L1  H     8    27       P1  7948  0.80

> <Gold.PLP.Chemscore.Internal.Correction>
0.1470

> <Gold.Rescore>
     Score         DG    S(hbond)    S(metal)    S(lipo)     H(rot)  DE(clash)    DE(int)     intcor
     16.56     -17.84       1.75        0.00      91.49       1.63       0.11       1.18       ----

> <Gold.Chemscore.Fitness>
16.5555

> <Gold.Chemscore.DG>
-17.8377

> <Gold.Chemscore.ZeroCoef>
-5.4800

> <Gold.Chemscore.Hbond>
1.7456

> <Gold.Chemscore.Metal>
0.0000

> <Gold.Chemscore.Lipo>
91.4877

> <Gold.Chemscore.Internal_Hbond>
0.0000

> <Gold.Chemscore.DEClash>
0.1066

> <Gold.Chemscore.DEInternal>
1.1757

> <Gold.Chemscore.Rot>
1.6316

> <Gold.Chemscore.Internal.Correction>
   9.000000E+99

> <Gold.Chemscore.Hbonds>
donor molecule, donor type, donor heavy atom, donor atom, acceptor molecule, acceptor atom, score
      L1  H     5    26       P1  7948  0.65
      L1  H     8    27       P1  7948  0.80

> <Gold.Chemscore.Hbond.Weighted>
-5.8305

> <Gold.Chemscore.Metal.Weighted>
-0.0000

> <Gold.Chemscore.Lipo.Weighted>
-10.7041

> <Gold.Chemscore.Internal_Hbond.Weighted>
0.0000

> <Gold.Chemscore.DEClash.Weighted>
0.1066

> <Gold.Chemscore.DEInternal.Weighted>
1.1757

> <Gold.Chemscore.Rot.Weighted>
4.1768

> <Gold.Chemscore.Internal.Correction.Weighted>
   9.000000E+99

> <Gold.Protein.RotatedTorsions>
[ 6907 6896 6895 6894 ] final   73.14 input  -60.11 | X-H torsion
[ 7974 7965 7964 7962 ] final -130.90 input  175.53 | X-H torsion
[ 8008 7997 7996 7995 ] final   51.68 input   59.86 | X-H torsion
[ 10167 10162 10161 10158 ] final   20.43 input  -65.29 | X-H torsion
[ 10718 10713 10712 10709 ] final -112.25 input   66.30 | X-H torsion
[ 10763 10752 10751 10750 ] final   56.88 input  -60.55 | X-H torsion
[ 11005 11000 10999 10996 ] final   54.67 input  -57.11 | X-H torsion

> <Gold.Protein.ActiveResidues>
 VAL166  LYS551  ARG553  GLY616  TRP617  ASP618  TYR619  PRO620  LYS621  CYS622 
 ASP623  PHE694  ASN695  SER759  ASP760  ASP761  ALA762  ILE779  LEU786  VAL792 
 PHE793  MET794  SER795  GLU796  ALA797  LYS798  CYS799  TRP800  GLU811  SER814 

> <Gold.Protein.RotatedAtoms>
  152.4907  134.4465  159.9560 H   0  0  0  0  0  0  0  0  0  0  0  0  # atno 6907 bound_to 6896
  151.4453  133.3626  159.2795 H   0  0  0  0  0  0  0  0  0  0  0  0  # atno 6908 bound_to 6896
  150.9059  134.8498  159.7452 H   0  0  0  0  0  0  0  0  0  0  0  0  # atno 6909 bound_to 6896
  144.9431  140.7260  143.4834 H   0  0  0  0  0  0  0  0  0  0  0  0  # atno 7974 bound_to 7965
  155.4393  140.3454  155.4288 H   0  0  0  0  0  0  0  0  0  0  0  0  # atno 8008 bound_to 7997
  156.1288  140.1508  156.9126 H   0  0  0  0  0  0  0  0  0  0  0  0  # atno 8009 bound_to 7997
  154.4879  140.0850  156.7508 H   0  0  0  0  0  0  0  0  0  0  0  0  # atno 8010 bound_to 7997
  140.5504  143.9519  150.6574 H   0  0  0  0  0  0  0  0  0  0  0  0  # atno 10167 bound_to 10162
  156.0694  130.5910  150.8483 H   0  0  0  0  0  0  0  0  0  0  0  0  # atno 10718 bound_to 10713
  152.9839  135.5661  154.5300 H   0  0  0  0  0  0  0  0  0  0  0  0  # atno 10763 bound_to 10752
  154.4773  135.2787  155.1599 H   0  0  0  0  0  0  0  0  0  0  0  0  # atno 10764 bound_to 10752
  154.3122  135.6286  153.5524 H   0  0  0  0  0  0  0  0  0  0  0  0  # atno 10765 bound_to 10752
  140.0668  134.5525  155.9090 H   0  0  0  0  0  0  0  0  0  0  0  0  # atno 11005 bound_to 11000
  145.2961  139.1866  143.4714 LP  0  0  0  0  0  0  0  0  0  0  0  0  # atno 17320 bound_to 7965
  146.3293  140.2945  142.8617 LP  0  0  0  0  0  0  0  0  0  0  0  0  # atno 17321 bound_to 7965
  140.2943  143.3303  152.1032 LP  0  0  0  0  0  0  0  0  0  0  0  0  # atno 17342 bound_to 10162
  139.5025  144.6736  151.6183 LP  0  0  0  0  0  0  0  0  0  0  0  0  # atno 17343 bound_to 10162
  157.5756  131.0946  150.9350 LP  0  0  0  0  0  0  0  0  0  0  0  0  # atno 17370 bound_to 10713
  156.9557  130.5436  149.5284 LP  0  0  0  0  0  0  0  0  0  0  0  0  # atno 17371 bound_to 10713
  141.1996  133.6607  156.5852 LP  0  0  0  0  0  0  0  0  0  0  0  0  # atno 17394 bound_to 11000
  140.3687  134.7625  157.4583 LP  0  0  0  0  0  0  0  0  0  0  0  0  # atno 17395 bound_to 11000

$$$$
