AV-unprocessed.smi:1641|AV-procd|sdf|6560|dock1
  -GOLD-   22720 7243D 1   1.00000     0.00000
 Structure written by MMmdl.
 42 43  0  0  0  0  0  0  0  0  2 V2000
  145.4544  130.2747  151.6942 C   0  0  0  0  0  0  0  0  0  0  0  0
  145.4865  131.7580  151.8365 C   0  0  0  0  0  0  0  0  0  0  0  0
  144.4287  132.5355  151.5750 N   0  0  0  0  0  0  0  0  0  0  0  0
  144.7006  133.8807  151.7809 N   0  0  0  0  0  0  0  0  0  0  0  0
  145.9602  134.0786  152.1930 C   0  0  0  0  0  0  0  0  0  0  0  0
  146.5046  135.3591  152.4776 N   0  0  0  0  0  0  0  0  0  0  0  0
  145.9045  136.4047  153.0730 C   0  0  0  0  0  0  0  0  0  0  0  0
  144.7435  136.4229  153.4833 O   0  0  0  0  0  0  0  0  0  0  0  0
  146.7335  137.4544  153.1676 N   0  0  0  0  0  0  0  0  0  0  0  0
  146.3824  138.7383  153.7639 C   0  0  0  0  0  0  0  0  0  0  0  0
  147.4463  139.8108  153.4614 C   0  0  0  0  0  0  0  0  0  0  0  0
  148.6352  139.6888  154.3411 N   0  3  1  0  0  0  0  0  0  0  0  0
  149.7183  138.8903  153.7201 C   0  0  0  0  0  0  0  0  0  0  0  0
  150.9131  138.7289  154.6808 C   0  0  2  0  0  0  0  0  0  0  0  0
  150.6470  137.7463  155.8350 C   0  0  0  0  0  0  0  0  0  0  0  0
  151.3462  140.0064  155.1474 O   0  0  0  0  0  0  0  0  0  0  0  0
  150.3353  140.7887  155.7781 C   0  0  1  0  0  0  0  0  0  0  0  0
  150.9677  142.1172  156.2070 C   0  0  0  0  0  0  0  0  0  0  0  0
  149.1627  140.9957  154.8026 C   0  0  0  0  0  0  0  0  0  0  0  0
  146.9249  132.6222  152.3652 S   0  0  0  0  0  0  0  0  0  0  0  0
  144.4772  129.9426  151.3415 H   0  0  0  0  0  0  0  0  0  0  0  0
  145.6565  129.8044  152.6565 H   0  0  0  0  0  0  0  0  0  0  0  0
  146.2115  129.9522  150.9794 H   0  0  0  0  0  0  0  0  0  0  0  0
  147.4630  135.4940  152.1909 H   0  0  0  0  0  0  0  0  0  0  0  0
  147.6721  137.3570  152.8081 H   0  0  0  0  0  0  0  0  0  0  0  0
  145.3967  139.0397  153.4081 H   0  0  0  0  0  0  0  0  0  0  0  0
  146.2926  138.5986  154.8414 H   0  0  0  0  0  0  0  0  0  0  0  0
  147.7549  139.6942  152.4213 H   0  0  0  0  0  0  0  0  0  0  0  0
  147.0310  140.8162  153.5471 H   0  0  0  0  0  0  0  0  0  0  0  0
  149.3438  137.9087  153.4267 H   0  0  0  0  0  0  0  0  0  0  0  0
  150.0470  139.3889  152.8066 H   0  0  0  0  0  0  0  0  0  0  0  0
  151.7457  138.3203  154.1074 H   0  0  0  0  0  0  0  0  0  0  0  0
  150.4489  136.7451  155.4516 H   0  0  0  0  0  0  0  0  0  0  0  0
  149.7874  138.0367  156.4382 H   0  0  0  0  0  0  0  0  0  0  0  0
  151.5125  137.6797  156.4948 H   0  0  0  0  0  0  0  0  0  0  0  0
  149.9809  140.2802  156.6749 H   0  0  0  0  0  0  0  0  0  0  0  0
  150.2397  142.7552  156.7087 H   0  0  0  0  0  0  0  0  0  0  0  0
  151.3584  142.6651  155.3489 H   0  0  0  0  0  0  0  0  0  0  0  0
  151.7938  141.9497  156.8987 H   0  0  0  0  0  0  0  0  0  0  0  0
  149.4874  141.5819  153.9412 H   0  0  0  0  0  0  0  0  0  0  0  0
  148.3796  141.5681  155.2987 H   0  0  0  0  0  0  0  0  0  0  0  0
  148.3402  139.1781  155.1611 H   0  0  0  0  0  0  0  0  0  0  0  0
  1  2  1  0  0  0  0
  1 21  1  0  0  0  0
  1 22  1  0  0  0  0
  1 23  1  0  0  0  0
  2 20  1  0  0  0  0
  2  3  2  0  0  0  0
  3  4  1  0  0  0  0
  4  5  2  0  0  0  0
  5  6  1  0  0  0  0
  5 20  1  0  0  0  0
  6  7  1  0  0  0  0
  6 24  1  0  0  0  0
  7  8  2  0  0  0  0
  7  9  1  0  0  0  0
  9 10  1  0  0  0  0
  9 25  1  0  0  0  0
 10 11  1  0  0  0  0
 10 26  1  0  0  0  0
 10 27  1  0  0  0  0
 11 12  1  0  0  0  0
 11 28  1  0  0  0  0
 11 29  1  0  0  0  0
 12 19  1  0  0  0  0
 12 13  1  0  0  0  0
 12 42  1  0  0  0  0
 13 14  1  0  0  0  0
 13 30  1  0  0  0  0
 13 31  1  0  0  0  0
 14 15  1  0  0  0  0
 14 16  1  0  0  0  0
 14 32  1  0  0  0  0
 15 33  1  0  0  0  0
 15 34  1  0  0  0  0
 15 35  1  0  0  0  0
 16 17  1  0  0  0  0
 17 18  1  0  0  0  0
 17 19  1  0  0  0  0
 17 36  1  0  0  0  0
 18 37  1  0  0  0  0
 18 38  1  0  0  0  0
 18 39  1  0  0  0  0
 19 40  1  0  0  0  0
 19 41  1  0  0  0  0
M  CHG  1  12   1
M  END
> <s_m_source_file>
AV-unprocessed.smi

> <i_m_source_file_index>
1641

> <i_lp_mmshare_version>
43012

> <i_f3d_flags>
0

> <s_epik_input>
W0NIM11jMW5uYyhzMSlbTkhdQyg9TylbTkhdW0NIMl1bQ0gyXU4yW0NIMl1bQ0BASF0oW0NIM10pT1tDQEBIXShbQ0gzXSlbQ0gyXTI=

> <s_epik_cmdline>
J2VwaWtfcHl0aG9uJywgJy1waCcsICc3LjAnLCAnLXRuJywgJzgnLCAnLW1hJywgJzIwMCcsICctbWV0YWxfYmluZGluZycsICctaW1hZScsICc8aW5maWxlLm1hZT4nLCAnLW9tYWUnLCAnPG91dGZpbGUubWFlPic=

> <r_lp_tautomer_probability>
1

> <r_epik_Ionization_Penalty>
0.700114

> <r_epik_Ionization_Penalty_Charging>
0.695697

> <r_epik_Ionization_Penalty_Neutral>
0.00441638

> <r_epik_State_Penalty>
0.717972

> <r_epik_Charging_Adjusted_Penalty>
1.41367

> <i_epik_Tot_Q>
1

> <i_epik_Tot_abs_Q>
1

> <r_epik_Metal_State_Penalty>
1.06958

> <b_epik_Metal_Only>
0

> <s_lp_Force_Field>
OPLS_2005

> <r_lp_Energy>
16.0757

> <b_lp_Chiralities_Consistent>
1

> <s_lp_Variant>
AV-unprocessed.smi:1641-5

> <Gold.Version>
5.8.1

> <Gold.Id.Protein>
6NUR|6NUR_protein|mol2

> <Gold.PLP.Fitness>
35.4457

> <Gold.PLP.PLP>
-28.4856

> <Gold.PLP.part.hbond>
-3.0352

> <Gold.PLP.part.metal>
0.0000

> <Gold.PLP.part.buried>
-2.6064

> <Gold.PLP.part.nonpolar>
-23.3966

> <Gold.PLP.part.repulsive>
0.4841

> <Gold.PLP.ligand.clash>
0.0000

> <Gold.PLP.ligand.torsion>
0.9525

> <Gold.PLP.Chemscore.Hbond>
2.9440

> <Gold.PLP.Chemscore.CHOScore>
0.0000

> <Gold.PLP.Chemscore.Metal>
0.0000

> <Gold.Chemscore.Hbonds>
donor molecule, donor type, donor heavy atom, donor atom, acceptor molecule, acceptor atom, score
      L1  H     6    24       P1  7948  1.00
      L1  H     9    25       P1  7948  0.94
      P1  H  7989  7998       L1    16  1.00

> <Gold.PLP.Chemscore.Internal.Correction>
0.0331

> <Gold.Rescore>
     Score         DG    S(hbond)    S(metal)    S(lipo)     H(rot)  DE(clash)    DE(int)     intcor
     15.63     -18.52       2.40        0.00      78.68       1.64       1.93       0.96       ----

> <Gold.Chemscore.Fitness>
15.6285

> <Gold.Chemscore.DG>
-18.5193

> <Gold.Chemscore.ZeroCoef>
-5.4800

> <Gold.Chemscore.Hbond>
2.4017

> <Gold.Chemscore.Metal>
0.0000

> <Gold.Chemscore.Lipo>
78.6772

> <Gold.Chemscore.Internal_Hbond>
0.0000

> <Gold.Chemscore.DEClash>
1.9272

> <Gold.Chemscore.DEInternal>
0.9635

> <Gold.Chemscore.Rot>
1.6358

> <Gold.Chemscore.Internal.Correction>
   9.000000E+99

> <Gold.Chemscore.Hbonds>
donor molecule, donor type, donor heavy atom, donor atom, acceptor molecule, acceptor atom, score
      L1  H     6    24       P1  7948  1.00
      L1  H     9    25       P1  7948  0.90
      P1  H  7989  7998       L1    16  0.11

> <Gold.Chemscore.Hbond.Weighted>
-8.0218

> <Gold.Chemscore.Metal.Weighted>
-0.0000

> <Gold.Chemscore.Lipo.Weighted>
-9.2052

> <Gold.Chemscore.Internal_Hbond.Weighted>
0.0000

> <Gold.Chemscore.DEClash.Weighted>
1.9272

> <Gold.Chemscore.DEInternal.Weighted>
0.9635

> <Gold.Chemscore.Rot.Weighted>
4.1878

> <Gold.Chemscore.Internal.Correction.Weighted>
   9.000000E+99

> <Gold.Protein.RotatedTorsions>
[ 6907 6896 6895 6894 ] final  -86.56 input  -60.11 | X-H torsion
[ 7974 7965 7964 7962 ] final   69.42 input  175.53 | X-H torsion
[ 8008 7997 7996 7995 ] final  -59.29 input   59.86 | X-H torsion
[ 10167 10162 10161 10158 ] final   33.85 input  -65.29 | X-H torsion
[ 10718 10713 10712 10709 ] final  -15.08 input   66.30 | X-H torsion
[ 10763 10752 10751 10750 ] final -141.14 input  -60.55 | X-H torsion
[ 11005 11000 10999 10996 ] final   71.30 input  -57.11 | X-H torsion

> <Gold.Protein.ActiveResidues>
 VAL166  LYS551  ARG553  GLY616  TRP617  ASP618  TYR619  PRO620  LYS621  CYS622 
 ASP623  PHE694  ASN695  SER759  ASP760  ASP761  ALA762  ILE779  LEU786  VAL792 
 PHE793  MET794  SER795  GLU796  ALA797  LYS798  CYS799  TRP800  GLU811  SER814 

> <Gold.Protein.RotatedAtoms>
  150.6867  134.3032  159.4714 H   0  0  0  0  0  0  0  0  0  0  0  0  # atno 6907 bound_to 6896
  152.0926  134.9394  160.0581 H   0  0  0  0  0  0  0  0  0  0  0  0  # atno 6908 bound_to 6896
  152.0704  133.4069  159.4494 H   0  0  0  0  0  0  0  0  0  0  0  0  # atno 6909 bound_to 6896
  145.7906  139.2932  143.1212 H   0  0  0  0  0  0  0  0  0  0  0  0  # atno 7974 bound_to 7965
  154.4346  140.1065  156.6092 H   0  0  0  0  0  0  0  0  0  0  0  0  # atno 8008 bound_to 7997
  155.5828  140.3491  155.4526 H   0  0  0  0  0  0  0  0  0  0  0  0  # atno 8009 bound_to 7997
  156.0305  140.1259  157.0252 H   0  0  0  0  0  0  0  0  0  0  0  0  # atno 8010 bound_to 7997
  140.4370  144.1243  150.6168 H   0  0  0  0  0  0  0  0  0  0  0  0  # atno 10167 bound_to 10162
  156.6069  130.4839  149.6217 H   0  0  0  0  0  0  0  0  0  0  0  0  # atno 10718 bound_to 10713
  154.8555  135.3533  154.5821 H   0  0  0  0  0  0  0  0  0  0  0  0  # atno 10763 bound_to 10752
  153.6431  135.6997  153.5239 H   0  0  0  0  0  0  0  0  0  0  0  0  # atno 10764 bound_to 10752
  153.2954  135.4222  155.1164 H   0  0  0  0  0  0  0  0  0  0  0  0  # atno 10765 bound_to 10752
  139.9551  134.7159  156.0772 H   0  0  0  0  0  0  0  0  0  0  0  0  # atno 11005 bound_to 11000
  145.9980  140.8545  143.0033 LP  0  0  0  0  0  0  0  0  0  0  0  0  # atno 17320 bound_to 7965
  144.6782  140.2311  143.7355 LP  0  0  0  0  0  0  0  0  0  0  0  0  # atno 17321 bound_to 7965
  140.4363  143.2546  151.9531 LP  0  0  0  0  0  0  0  0  0  0  0  0  # atno 17342 bound_to 10162
  139.4787  144.5697  151.8108 LP  0  0  0  0  0  0  0  0  0  0  0  0  # atno 17343 bound_to 10162
  156.2422  130.6858  151.1567 LP  0  0  0  0  0  0  0  0  0  0  0  0  # atno 17370 bound_to 10713
  157.7265  131.0646  150.5908 LP  0  0  0  0  0  0  0  0  0  0  0  0  # atno 17371 bound_to 10713
  141.1221  133.6610  156.3241 LP  0  0  0  0  0  0  0  0  0  0  0  0  # atno 17394 bound_to 11000
  140.5628  134.5917  157.5438 LP  0  0  0  0  0  0  0  0  0  0  0  0  # atno 17395 bound_to 11000

$$$$
