AV-unprocessed.smi:37|AV-procd|sdf|310|dock8
  -GOLD-   2262016123D 1   1.00000     0.00000
 Structure written by MMmdl.
 44 45  0  0  0  0  0  0  0  0  1 V2000
  146.6174  134.3278  161.9351 C   0  0  0  0  0  0  0  0  0  0  0  0
  146.4321  135.5478  161.0225 C   0  0  0  0  0  0  0  0  0  0  0  0
  147.6691  136.4426  160.9969 C   0  0  0  0  0  0  0  0  0  0  0  0
  148.1426  136.9133  162.0313 O   0  0  0  0  0  0  0  0  0  0  0  0
  148.1487  136.6276  159.7569 O   0  0  0  0  0  0  0  0  0  0  0  0
  149.5379  136.8356  159.5672 C   0  0  0  0  0  0  0  0  0  0  0  0
  149.7810  137.3355  158.1376 C   0  0  1  0  0  0  0  0  0  0  0  0
  148.9328  138.4335  157.8212 O   0  0  0  0  0  0  0  0  0  0  0  0
  149.5227  139.2195  156.8264 C   0  0  2  0  0  0  0  0  0  0  0  0
  148.6865  139.1670  155.5674 N   0  0  0  0  0  0  0  0  0  0  0  0
  147.4372  138.5585  155.5311 C   0  0  0  0  0  0  0  0  0  0  0  0
  146.6810  138.5005  154.4093 C   0  0  0  0  0  0  0  0  0  0  0  0
  145.4835  137.8920  154.4480 F   0  0  0  0  0  0  0  0  0  0  0  0
  147.1548  139.0881  153.1593 C   0  0  0  0  0  0  0  0  0  0  0  0
  146.5418  139.0864  152.0935 O   0  0  0  0  0  0  0  0  0  0  0  0
  148.4161  139.6855  153.2434 N   0  0  0  0  0  0  0  0  0  0  0  0
  149.2065  139.7506  154.3918 C   0  0  0  0  0  0  0  0  0  0  0  0
  150.3108  140.2919  154.3532 O   0  0  0  0  0  0  0  0  0  0  0  0
  150.9642  138.7034  156.6184 C   0  0  2  0  0  0  0  0  0  0  0  0
  151.1593  137.4817  155.0468 Br  0  0  0  0  0  0  0  0  0  0  0  0
  151.1854  137.8846  157.8786 C   0  0  1  0  0  0  0  0  0  0  0  0
  151.5894  138.7173  158.9609 O   0  0  0  0  0  0  0  0  0  0  0  0
  152.7147  139.4491  158.8743 C   0  0  0  0  0  0  0  0  0  0  0  0
  153.5024  139.4525  157.9284 O   0  0  0  0  0  0  0  0  0  0  0  0
  152.9379  140.3313  160.1005 C   0  0  0  0  0  0  0  0  0  0  0  0
  152.9041  141.8262  159.7535 C   0  0  0  0  0  0  0  0  0  0  0  0
  148.7868  140.1013  152.4015 H   0  0  0  0  0  0  0  0  0  0  0  0
  145.7248  133.7023  161.9246 H   0  0  0  0  0  0  0  0  0  0  0  0
  146.7997  134.6238  162.9689 H   0  0  0  0  0  0  0  0  0  0  0  0
  147.4558  133.7123  161.6069 H   0  0  0  0  0  0  0  0  0  0  0  0
  146.2110  135.2206  160.0063 H   0  0  0  0  0  0  0  0  0  0  0  0
  145.5788  136.1382  161.3573 H   0  0  0  0  0  0  0  0  0  0  0  0
  149.9246  137.5486  160.2968 H   0  0  0  0  0  0  0  0  0  0  0  0
  150.0594  135.8898  159.7210 H   0  0  0  0  0  0  0  0  0  0  0  0
  149.5868  136.5293  157.4282 H   0  0  0  0  0  0  0  0  0  0  0  0
  149.4828  140.2537  157.1742 H   0  0  0  0  0  0  0  0  0  0  0  0
  147.0352  138.0985  156.4216 H   0  0  0  0  0  0  0  0  0  0  0  0
  151.6649  139.5295  156.4925 H   0  0  0  0  0  0  0  0  0  0  0  0
  151.9048  137.0778  157.7300 H   0  0  0  0  0  0  0  0  0  0  0  0
  152.1696  140.1066  160.8408 H   0  0  0  0  0  0  0  0  0  0  0  0
  153.8968  140.0732  160.5504 H   0  0  0  0  0  0  0  0  0  0  0  0
  153.0268  142.4311  160.6520 H   0  0  0  0  0  0  0  0  0  0  0  0
  151.9548  142.1054  159.2948 H   0  0  0  0  0  0  0  0  0  0  0  0
  153.7040  142.0965  159.0633 H   0  0  0  0  0  0  0  0  0  0  0  0
  1  2  1  0  0  0  0
  1 28  1  0  0  0  0
  1 29  1  0  0  0  0
  1 30  1  0  0  0  0
  2  3  1  0  0  0  0
  2 31  1  0  0  0  0
  2 32  1  0  0  0  0
  3  4  2  0  0  0  0
  3  5  1  0  0  0  0
  5  6  1  0  0  0  0
  6  7  1  0  0  0  0
  6 33  1  0  0  0  0
  6 34  1  0  0  0  0
  7 21  1  0  0  0  0
  7  8  1  0  0  0  0
  7 35  1  0  0  0  0
  8  9  1  0  0  0  0
  9 10  1  0  0  0  0
  9 19  1  0  0  0  0
  9 36  1  0  0  0  0
 10 17  1  0  0  0  0
 10 11  1  0  0  0  0
 11 12  2  0  0  0  0
 11 37  1  0  0  0  0
 12 13  1  0  0  0  0
 12 14  1  0  0  0  0
 14 15  2  0  0  0  0
 14 16  1  0  0  0  0
 16 27  1  0  0  0  0
 16 17  1  0  0  0  0
 17 18  2  0  0  0  0
 19 20  1  0  0  0  0
 19 21  1  0  0  0  0
 19 38  1  0  0  0  0
 21 22  1  0  0  0  0
 21 39  1  0  0  0  0
 22 23  1  0  0  0  0
 23 24  2  0  0  0  0
 23 25  1  0  0  0  0
 25 26  1  0  0  0  0
 25 40  1  0  0  0  0
 25 41  1  0  0  0  0
 26 42  1  0  0  0  0
 26 43  1  0  0  0  0
 26 44  1  0  0  0  0
M  END
> <s_m_source_file>
AV-unprocessed.smi

> <i_m_source_file_index>
37

> <i_lp_mmshare_version>
43012

> <i_f3d_flags>
0

> <s_epik_input>
W0NIM11bQ0gyXUMoPU8pT1tDSDJdW0NAQEhdMU9bQ0BASF0objJbY0hdYyhGKWMoPU8pW25IXWMyPU8pW0NAQEhdKEJyKVtDQEhdMU9DKD1PKVtDSDJdW0NIM10=

> <s_epik_cmdline>
J2VwaWtfcHl0aG9uJywgJy1waCcsICc3LjAnLCAnLXRuJywgJzgnLCAnLW1hJywgJzIwMCcsICctbWV0YWxfYmluZGluZycsICctaW1hZScsICc8aW5maWxlLm1hZT4nLCAnLW9tYWUnLCAnPG91dGZpbGUubWFlPic=

> <r_lp_tautomer_probability>
0.999537

> <r_epik_Ionization_Penalty>
0.104106

> <r_epik_Ionization_Penalty_Charging>
0.104106

> <r_epik_Ionization_Penalty_Neutral>
3.94675e-16

> <r_epik_State_Penalty>
0.0940182

> <r_epik_Charging_Adjusted_Penalty>
0.198124

> <i_epik_Tot_Q>
0

> <i_epik_Tot_abs_Q>
0

> <r_epik_Metal_State_Penalty>
3.05314

> <b_epik_Metal_Only>
0

> <s_epik_Chemistry_Notes>
This compound has an ester and may undergo hydrolysis at high or low pH. This compound contains an acetal/aminal-like group ( X-CH(R)-Y where X, Y are N, S, or O) that may be acid/base labile, releasing an aldehyde.

> <s_lp_Force_Field>
OPLS_2005

> <r_lp_Energy>
24.0333

> <b_lp_Chiralities_Consistent>
1

> <s_lp_Variant>
AV-unprocessed.smi:37-8

> <Gold.Version>
5.8.1

> <Gold.Id.Protein>
6NUR|6NUR_protein|mol2

> <Gold.PLP.Fitness>
43.8964

> <Gold.PLP.PLP>
-33.0602

> <Gold.PLP.part.hbond>
-3.6707

> <Gold.PLP.part.metal>
0.0000

> <Gold.PLP.part.buried>
-7.2818

> <Gold.PLP.part.nonpolar>
-23.9044

> <Gold.PLP.part.repulsive>
0.5499

> <Gold.PLP.ligand.clash>
0.0000

> <Gold.PLP.ligand.torsion>
0.6579

> <Gold.PLP.Chemscore.Hbond>
4.0000

> <Gold.PLP.Chemscore.CHOScore>
0.0000

> <Gold.PLP.Chemscore.Metal>
0.0000

> <Gold.Chemscore.Hbonds>
donor molecule, donor type, donor heavy atom, donor atom, acceptor molecule, acceptor atom, score
      L1  H    16    27       P1  7957  0.89
      P1  H  6931  6943       L1     4  1.00
      P1  H  7989  7998       L1    18  1.00
      P1  H  7997  8009       L1    24  1.00

> <Gold.PLP.Chemscore.Internal.Correction>
0.1520

> <Gold.Rescore>
     Score         DG    S(hbond)    S(metal)    S(lipo)     H(rot)  DE(clash)    DE(int)     intcor
     13.35     -16.30       3.84        0.00      55.68       3.33       0.00       2.95       ----

> <Gold.Chemscore.Fitness>
13.3533

> <Gold.Chemscore.DG>
-16.3009

> <Gold.Chemscore.ZeroCoef>
-5.4800

> <Gold.Chemscore.Hbond>
3.8419

> <Gold.Chemscore.Metal>
0.0000

> <Gold.Chemscore.Lipo>
55.6813

> <Gold.Chemscore.Internal_Hbond>
0.0000

> <Gold.Chemscore.DEClash>
0.0000

> <Gold.Chemscore.DEInternal>
2.9477

> <Gold.Chemscore.Rot>
3.3303

> <Gold.Chemscore.Internal.Correction>
   9.000000E+99

> <Gold.Chemscore.Hbonds>
donor molecule, donor type, donor heavy atom, donor atom, acceptor molecule, acceptor atom, score
      L1  H    16    27       P1  7957  0.82
      P1  H  6931  6943       L1     4  0.95
      P1  H  7989  7998       L1    18  0.95
      P1  H  7997  8009       L1    24  0.95

> <Gold.Chemscore.Hbond.Weighted>
-12.8318

> <Gold.Chemscore.Metal.Weighted>
-0.0000

> <Gold.Chemscore.Lipo.Weighted>
-6.5147

> <Gold.Chemscore.Internal_Hbond.Weighted>
0.0000

> <Gold.Chemscore.DEClash.Weighted>
0.0000

> <Gold.Chemscore.DEInternal.Weighted>
2.9477

> <Gold.Chemscore.Rot.Weighted>
8.5256

> <Gold.Chemscore.Internal.Correction.Weighted>
   9.000000E+99

> <Gold.Protein.RotatedTorsions>
[ 6907 6896 6895 6894 ] final   25.92 input  -60.11 | X-H torsion
[ 7974 7965 7964 7962 ] final   23.42 input  175.53 | X-H torsion
[ 8008 7997 7996 7995 ] final  137.13 input   59.86 | X-H torsion
[ 10167 10162 10161 10158 ] final  -82.65 input  -65.29 | X-H torsion
[ 10718 10713 10712 10709 ] final    5.78 input   66.30 | X-H torsion
[ 10763 10752 10751 10750 ] final  162.85 input  -60.55 | X-H torsion
[ 11005 11000 10999 10996 ] final  122.17 input  -57.11 | X-H torsion

> <Gold.Protein.ActiveResidues>
 VAL166  LYS551  ARG553  GLY616  TRP617  ASP618  TYR619  PRO620  LYS621  CYS622 
 ASP623  PHE694  ASN695  SER759  ASP760  ASP761  ALA762  ILE779  LEU786  VAL792 
 PHE793  MET794  SER795  GLU796  ALA797  LYS798  CYS799  TRP800  GLU811  SER814 

> <Gold.Protein.RotatedAtoms>
  151.9797  135.0035  160.0556 H   0  0  0  0  0  0  0  0  0  0  0  0  # atno 6907 bound_to 6896
  152.1707  133.4637  159.4916 H   0  0  0  0  0  0  0  0  0  0  0  0  # atno 6908 bound_to 6896
  150.6901  134.1873  159.4315 H   0  0  0  0  0  0  0  0  0  0  0  0  # atno 6909 bound_to 6896
  146.1985  139.7747  142.8779 H   0  0  0  0  0  0  0  0  0  0  0  0  # atno 7974 bound_to 7965
  156.3003  140.2427  156.3859 H   0  0  0  0  0  0  0  0  0  0  0  0  # atno 8008 bound_to 7997
  154.8658  140.0418  157.1713 H   0  0  0  0  0  0  0  0  0  0  0  0  # atno 8009 bound_to 7997
  154.8848  140.2954  155.5408 H   0  0  0  0  0  0  0  0  0  0  0  0  # atno 8010 bound_to 7997
  140.4300  143.2552  151.8773 H   0  0  0  0  0  0  0  0  0  0  0  0  # atno 10167 bound_to 10162
  156.9124  130.5761  149.5647 H   0  0  0  0  0  0  0  0  0  0  0  0  # atno 10718 bound_to 10713
  154.2848  135.2762  155.2681 H   0  0  0  0  0  0  0  0  0  0  0  0  # atno 10763 bound_to 10752
  154.5186  135.5762  153.6666 H   0  0  0  0  0  0  0  0  0  0  0  0  # atno 10764 bound_to 10752
  152.9923  135.6199  154.3009 H   0  0  0  0  0  0  0  0  0  0  0  0  # atno 10765 bound_to 10752
  139.9257  134.9640  156.8068 H   0  0  0  0  0  0  0  0  0  0  0  0  # atno 11005 bound_to 11000
  145.3563  141.0317  143.3310 LP  0  0  0  0  0  0  0  0  0  0  0  0  # atno 17320 bound_to 7965
  144.8632  139.5147  143.6802 LP  0  0  0  0  0  0  0  0  0  0  0  0  # atno 17321 bound_to 7965
  139.4784  144.5345  151.8618 LP  0  0  0  0  0  0  0  0  0  0  0  0  # atno 17342 bound_to 10162
  140.4438  144.1949  150.5893 LP  0  0  0  0  0  0  0  0  0  0  0  0  # atno 17343 bound_to 10162
  156.0529  130.5596  150.9029 LP  0  0  0  0  0  0  0  0  0  0  0  0  # atno 17370 bound_to 10713
  157.5959  131.0943  150.9042 LP  0  0  0  0  0  0  0  0  0  0  0  0  # atno 17371 bound_to 10713
  140.6345  133.9875  155.7677 LP  0  0  0  0  0  0  0  0  0  0  0  0  # atno 17394 bound_to 11000
  141.0812  134.0060  157.3383 LP  0  0  0  0  0  0  0  0  0  0  0  0  # atno 17395 bound_to 11000

$$$$
