AV-unprocessed.smi:1962|AV-procd|sdf|7924|dock5
  -GOLD-   2272010 93D 1   1.00000     0.00000
 Structure written by MMmdl.
 35 36  0  0  0  0  0  0  0  0  2 V2000
  151.0016  138.9430  158.0343 C   0  0  0  0  0  0  0  0  0  0  0  0
  151.8630  140.2076  157.9117 C   0  0  2  0  0  0  0  0  0  0  0  0
  151.9162  140.7084  156.4438 C   0  0  0  0  0  0  0  0  0  0  0  0
  150.6150  140.7913  155.7843 N   0  0  0  0  0  0  0  0  0  0  0  0
  149.5080  141.5380  156.1425 C   0  0  0  0  0  0  0  0  0  0  0  0
  148.5247  141.2787  155.2313 C   0  0  0  0  0  0  0  0  0  0  0  0
  149.1237  140.3388  154.3476 C   0  0  0  0  0  0  0  0  0  0  0  0
  150.3661  140.0382  154.6869 N   0  0  0  0  0  0  0  0  0  0  0  0
  153.2144  139.9003  158.3944 N   0  5  0  0  0  0  0  0  0  0  0  0
  153.6407  140.0154  159.6894 C   0  0  0  0  0  0  0  0  0  0  0  0
  154.1861  139.1296  160.3591 O   0  0  0  0  0  0  0  0  0  0  0  0
  153.4298  141.3105  160.4014 C   0  0  0  0  0  0  0  0  0  0  0  0
  153.7744  141.4211  161.6466 N   0  0  0  0  0  0  0  0  0  0  0  0
  153.6304  142.5995  162.3491 N   0  0  0  0  0  0  0  0  0  0  0  0
  154.3219  142.6328  163.6360 C   0  0  0  0  0  0  0  0  0  0  0  0
  152.8994  143.6617  161.9306 C   0  0  0  0  0  0  0  0  0  0  0  0
  152.7973  144.7142  162.5612 O   0  0  0  0  0  0  0  0  0  0  0  0
  152.1484  143.4931  160.6074 C   0  0  0  0  0  0  0  0  0  0  0  0
  152.8537  142.5035  159.6591 C   0  0  0  0  0  0  0  0  0  0  0  0
  149.9811  139.1318  157.7006 H   0  0  0  0  0  0  0  0  0  0  0  0
  150.9494  138.6002  159.0683 H   0  0  0  0  0  0  0  0  0  0  0  0
  151.4018  138.1267  157.4317 H   0  0  0  0  0  0  0  0  0  0  0  0
  151.3807  140.9789  158.5145 H   0  0  0  0  0  0  0  0  0  0  0  0
  152.4028  141.6843  156.3944 H   0  0  0  0  0  0  0  0  0  0  0  0
  152.5347  140.0330  155.8520 H   0  0  0  0  0  0  0  0  0  0  0  0
  149.5180  142.1908  157.0029 H   0  0  0  0  0  0  0  0  0  0  0  0
  147.5297  141.6966  155.2014 H   0  0  0  0  0  0  0  0  0  0  0  0
  148.6935  139.8644  153.4780 H   0  0  0  0  0  0  0  0  0  0  0  0
  153.6202  142.8331  164.4471 H   0  0  0  0  0  0  0  0  0  0  0  0
  155.0831  143.4145  163.6397 H   0  0  0  0  0  0  0  0  0  0  0  0
  154.8194  141.6868  163.8574 H   0  0  0  0  0  0  0  0  0  0  0  0
  151.1490  143.1255  160.8430 H   0  0  0  0  0  0  0  0  0  0  0  0
  152.0214  144.4606  160.1205 H   0  0  0  0  0  0  0  0  0  0  0  0
  153.6544  143.0103  159.1191 H   0  0  0  0  0  0  0  0  0  0  0  0
  152.1310  142.1815  158.9085 H   0  0  0  0  0  0  0  0  0  0  0  0
  1  2  1  0  0  0  0
  1 20  1  0  0  0  0
  1 21  1  0  0  0  0
  1 22  1  0  0  0  0
  2  3  1  0  0  0  0
  2  9  1  0  0  0  0
  2 23  1  0  0  0  0
  3  4  1  0  0  0  0
  3 24  1  0  0  0  0
  3 25  1  0  0  0  0
  4  8  1  0  0  0  0
  4  5  1  0  0  0  0
  5  6  2  0  0  0  0
  5 26  1  0  0  0  0
  6  7  1  0  0  0  0
  6 27  1  0  0  0  0
  7  8  2  0  0  0  0
  7 28  1  0  0  0  0
  9 10  1  0  0  0  0
 10 11  2  0  0  0  0
 10 12  1  0  0  0  0
 12 19  1  0  0  0  0
 12 13  2  0  0  0  0
 13 14  1  0  0  0  0
 14 15  1  0  0  0  0
 14 16  1  0  0  0  0
 15 29  1  0  0  0  0
 15 30  1  0  0  0  0
 15 31  1  0  0  0  0
 16 17  2  0  0  0  0
 16 18  1  0  0  0  0
 18 19  1  0  0  0  0
 18 32  1  0  0  0  0
 18 33  1  0  0  0  0
 19 34  1  0  0  0  0
 19 35  1  0  0  0  0
M  CHG  1   9  -1
M  END
> <s_m_source_file>
AV-unprocessed.smi

> <i_m_source_file_index>
1962

> <i_lp_mmshare_version>
43012

> <i_f3d_flags>
0

> <s_epik_input>
bjFbY0hdW2NIXVtjSF1uMVtDSDJdW0NAQEhdKFtDSDNdKVtOSF1DKD1PKUMyPU5OKFtDSDNdKUMoPU8pW0NIMl1bQ0gyXTI=

> <s_epik_cmdline>
J2VwaWtfcHl0aG9uJywgJy1waCcsICc3LjAnLCAnLXRuJywgJzgnLCAnLW1hJywgJzIwMCcsICctbWV0YWxfYmluZGluZycsICctaW1hZScsICc8aW5maWxlLm1hZT4nLCAnLW9tYWUnLCAnPG91dGZpbGUubWFlPic=

> <r_lp_tautomer_probability>
1

> <r_epik_Ionization_Penalty>
5.21086

> <r_epik_Ionization_Penalty_Charging>
5.21084

> <r_epik_Ionization_Penalty_Neutral>
2.41961e-05

> <r_epik_State_Penalty>
5.21075

> <r_epik_Charging_Adjusted_Penalty>
10.4216

> <i_epik_Tot_Q>
-1

> <i_epik_Tot_abs_Q>
1

> <r_epik_Metal_State_Penalty>
1.27477

> <b_epik_Metal_Only>
1

> <s_epik_Chemistry_Notes>
This compound has an imine and may undergo hydrolysis.

> <s_lp_Force_Field>
OPLS_2005

> <r_lp_Energy>
24.8429

> <b_lp_Chiralities_Consistent>
1

> <s_lp_Variant>
AV-unprocessed.smi:1962-3

> <Gold.Version>
5.8.1

> <Gold.Id.Protein>
6NUR|6NUR_protein|mol2

> <Gold.PLP.Fitness>
47.6208

> <Gold.PLP.PLP>
-37.3740

> <Gold.PLP.part.hbond>
-2.0000

> <Gold.PLP.part.metal>
0.0000

> <Gold.PLP.part.buried>
-2.8507

> <Gold.PLP.part.nonpolar>
-32.6536

> <Gold.PLP.part.repulsive>
1.0328

> <Gold.PLP.ligand.clash>
0.0000

> <Gold.PLP.ligand.torsion>
0.9281

> <Gold.PLP.Chemscore.Hbond>
3.0000

> <Gold.PLP.Chemscore.CHOScore>
0.9995

> <Gold.PLP.Chemscore.Metal>
0.0000

> <Gold.Chemscore.Hbonds>
donor molecule, donor type, donor heavy atom, donor atom, acceptor molecule, acceptor atom, score
      P1  H  7989  7998       L1     8  0.90
      P1  H  7997  8008       L1     9  2.00
      L1  C     7    28       P1  7957  0.90

> <Gold.PLP.Chemscore.Internal.Correction>
0.1046

> <Gold.Rescore>
     Score         DG    S(hbond)    S(metal)    S(lipo)     H(rot)  DE(clash)    DE(int)     intcor
     13.05     -16.52       1.70        0.00      78.66       1.50       2.53       0.94       ----

> <Gold.Chemscore.Fitness>
13.0487

> <Gold.Chemscore.DG>
-16.5176

> <Gold.Chemscore.ZeroCoef>
-5.4800

> <Gold.Chemscore.Hbond>
1.6963

> <Gold.Chemscore.Metal>
0.0000

> <Gold.Chemscore.Lipo>
78.6560

> <Gold.Chemscore.Internal_Hbond>
0.0000

> <Gold.Chemscore.DEClash>
2.5259

> <Gold.Chemscore.DEInternal>
0.9429

> <Gold.Chemscore.Rot>
1.4964

> <Gold.Chemscore.Internal.Correction>
   9.000000E+99

> <Gold.Chemscore.Hbonds>
donor molecule, donor type, donor heavy atom, donor atom, acceptor molecule, acceptor atom, score
      P1  H  7989  7998       L1     8  0.14
      P1  H  7997  8008       L1     9  0.73

> <Gold.Chemscore.Hbond.Weighted>
-5.6657

> <Gold.Chemscore.Metal.Weighted>
-0.0000

> <Gold.Chemscore.Lipo.Weighted>
-9.2028

> <Gold.Chemscore.Internal_Hbond.Weighted>
0.0000

> <Gold.Chemscore.DEClash.Weighted>
2.5259

> <Gold.Chemscore.DEInternal.Weighted>
0.9429

> <Gold.Chemscore.Rot.Weighted>
3.8309

> <Gold.Chemscore.Internal.Correction.Weighted>
   9.000000E+99

> <Gold.Protein.RotatedTorsions>
[ 6907 6896 6895 6894 ] final   91.40 input  -60.11 | X-H torsion
[ 7974 7965 7964 7962 ] final  -12.76 input  175.53 | X-H torsion
[ 8008 7997 7996 7995 ] final  -79.82 input   59.86 | X-H torsion
[ 10167 10162 10161 10158 ] final   22.80 input  -65.29 | X-H torsion
[ 10718 10713 10712 10709 ] final  154.27 input   66.30 | X-H torsion
[ 10763 10752 10751 10750 ] final  155.89 input  -60.55 | X-H torsion
[ 11005 11000 10999 10996 ] final -136.70 input  -57.11 | X-H torsion

> <Gold.Protein.ActiveResidues>
 VAL166  LYS551  ARG553  GLY616  TRP617  ASP618  TYR619  PRO620  LYS621  CYS622 
 ASP623  PHE694  ASN695  SER759  ASP760  ASP761  ALA762  ILE779  LEU786  VAL792 
 PHE793  MET794  SER795  GLU796  ALA797  LYS798  CYS799  TRP800  GLU811  SER814 

> <Gold.Protein.RotatedAtoms>
  152.5450  134.1662  159.8577 H   0  0  0  0  0  0  0  0  0  0  0  0  # atno 6907 bound_to 6896
  151.1676  133.4798  159.2601 H   0  0  0  0  0  0  0  0  0  0  0  0  # atno 6908 bound_to 6896
  151.1308  135.0140  159.8636 H   0  0  0  0  0  0  0  0  0  0  0  0  # atno 6909 bound_to 6896
  146.2140  140.3104  142.8382 H   0  0  0  0  0  0  0  0  0  0  0  0  # atno 7974 bound_to 7965
  154.5822  140.0672  156.9120 H   0  0  0  0  0  0  0  0  0  0  0  0  # atno 8008 bound_to 7997
  155.2443  140.3347  155.4270 H   0  0  0  0  0  0  0  0  0  0  0  0  # atno 8009 bound_to 7997
  156.2197  140.1793  156.7490 H   0  0  0  0  0  0  0  0  0  0  0  0  # atno 8010 bound_to 7997
  140.5320  143.9825  150.6471 H   0  0  0  0  0  0  0  0  0  0  0  0  # atno 10167 bound_to 10162
  157.2338  131.0745  151.1836 H   0  0  0  0  0  0  0  0  0  0  0  0  # atno 10718 bound_to 10713
  154.1755  135.2802  155.3068 H   0  0  0  0  0  0  0  0  0  0  0  0  # atno 10763 bound_to 10752
  154.6042  135.5519  153.7409 H   0  0  0  0  0  0  0  0  0  0  0  0  # atno 10764 bound_to 10752
  153.0152  135.6399  154.1895 H   0  0  0  0  0  0  0  0  0  0  0  0  # atno 10765 bound_to 10752
  140.8780  134.1967  157.4609 H   0  0  0  0  0  0  0  0  0  0  0  0  # atno 11005 bound_to 11000
  144.8992  140.7621  143.5877 LP  0  0  0  0  0  0  0  0  0  0  0  0  # atno 17320 bound_to 7965
  145.3030  139.1844  143.4679 LP  0  0  0  0  0  0  0  0  0  0  0  0  # atno 17321 bound_to 7965
  140.3202  143.3142  152.0791 LP  0  0  0  0  0  0  0  0  0  0  0  0  # atno 17342 bound_to 10162
  139.4957  144.6578  151.6532 LP  0  0  0  0  0  0  0  0  0  0  0  0  # atno 17343 bound_to 10162
  157.3450  130.7053  149.6405 LP  0  0  0  0  0  0  0  0  0  0  0  0  # atno 17370 bound_to 10713
  155.9674  130.4269  150.4719 LP  0  0  0  0  0  0  0  0  0  0  0  0  # atno 17371 bound_to 10713
  139.8717  134.9804  156.5076 LP  0  0  0  0  0  0  0  0  0  0  0  0  # atno 17394 bound_to 11000
  140.8495  133.8143  155.9154 LP  0  0  0  0  0  0  0  0  0  0  0  0  # atno 17395 bound_to 11000

$$$$
