AV-unprocessed.smi:1986|AV-procd|sdf|8053|dock6
  -GOLD-   2272010253D 1   1.00000     0.00000
 Structure written by MMmdl.
 48 49  0  0  0  0  0  0  0  0  2 V2000
  147.2857  130.9627  153.2056 C   0  0  0  0  0  0  0  0  0  0  0  0
  147.6405  132.0883  154.1952 C   0  0  0  0  0  0  0  0  0  0  0  0
  148.2345  133.4106  153.6023 C   0  0  2  0  0  0  0  0  0  0  0  0
  149.4620  133.0565  152.7275 C   0  0  0  0  0  0  0  0  0  0  0  0
  148.6985  134.3318  154.7723 C   0  0  0  0  0  0  0  0  0  0  0  0
  149.1403  135.6377  154.2905 N   0  0  0  0  0  0  0  0  0  0  0  0
  149.7378  136.5974  155.0160 C   0  0  0  0  0  0  0  0  0  0  0  0
  149.8887  136.5233  156.2343 O   0  0  0  0  0  0  0  0  0  0  0  0
  150.3081  137.8074  154.2568 C   0  0  0  0  0  0  0  0  0  0  0  0
  149.3406  138.8967  154.0388 N   0  0  0  0  0  0  0  0  0  0  0  0
  148.1254  138.4807  153.5178 N   0  0  0  0  0  0  0  0  0  0  0  0
  147.2014  139.3452  153.2658 C   0  0  0  0  0  0  0  0  0  0  0  0
  146.0140  138.8899  152.7473 O   0  0  0  0  0  0  0  0  0  0  0  0
  147.4062  140.7547  153.5189 C   0  0  0  0  0  0  0  0  0  0  0  0
  148.5936  141.1514  154.0267 C   0  0  0  0  0  0  0  0  0  0  0  0
  149.6647  140.1978  154.3185 C   0  0  0  0  0  0  0  0  0  0  0  0
  150.7666  140.5335  154.7528 O   0  0  0  0  0  0  0  0  0  0  0  0
  147.1861  134.1361  152.7871 N   0  3  0  0  0  0  0  0  0  0  0  0
  146.7097  133.4196  151.5697 C   0  0  0  0  0  0  0  0  0  0  0  0
  145.8493  134.3497  150.7031 C   0  0  0  0  0  0  0  0  0  0  0  0
  144.7287  134.7794  151.4620 O   0  0  0  0  0  0  0  0  0  0  0  0
  145.1251  135.5294  152.6008 C   0  0  0  0  0  0  0  0  0  0  0  0
  146.0084  134.6735  153.5276 C   0  0  0  0  0  0  0  0  0  0  0  0
  145.4131  139.6161  152.8148 H   0  0  0  0  0  0  0  0  0  0  0  0
  146.8034  130.1393  153.7324 H   0  0  0  0  0  0  0  0  0  0  0  0
  148.1699  130.5485  152.7216 H   0  0  0  0  0  0  0  0  0  0  0  0
  146.5959  131.2955  152.4311 H   0  0  0  0  0  0  0  0  0  0  0  0
  146.7238  132.3152  154.7399 H   0  0  0  0  0  0  0  0  0  0  0  0
  148.3312  131.6717  154.9294 H   0  0  0  0  0  0  0  0  0  0  0  0
  150.2129  132.5051  153.2921 H   0  0  0  0  0  0  0  0  0  0  0  0
  149.9678  133.9437  152.3471 H   0  0  0  0  0  0  0  0  0  0  0  0
  149.1841  132.4398  151.8726 H   0  0  0  0  0  0  0  0  0  0  0  0
  147.8863  134.4943  155.4798 H   0  0  0  0  0  0  0  0  0  0  0  0
  149.4735  133.8610  155.3761 H   0  0  0  0  0  0  0  0  0  0  0  0
  149.0478  135.8015  153.2980 H   0  0  0  0  0  0  0  0  0  0  0  0
  151.1728  138.1738  154.8131 H   0  0  0  0  0  0  0  0  0  0  0  0
  150.7009  137.4704  153.2958 H   0  0  0  0  0  0  0  0  0  0  0  0
  146.6222  141.4663  153.3056 H   0  0  0  0  0  0  0  0  0  0  0  0
  148.7595  142.2008  154.2207 H   0  0  0  0  0  0  0  0  0  0  0  0
  147.5357  133.0535  150.9648 H   0  0  0  0  0  0  0  0  0  0  0  0
  146.1134  132.5513  151.8515 H   0  0  0  0  0  0  0  0  0  0  0  0
  146.4272  135.2059  150.3506 H   0  0  0  0  0  0  0  0  0  0  0  0
  145.4931  133.8182  149.8203 H   0  0  0  0  0  0  0  0  0  0  0  0
  145.6519  136.4308  152.2852 H   0  0  0  0  0  0  0  0  0  0  0  0
  144.2321  135.8571  153.1334 H   0  0  0  0  0  0  0  0  0  0  0  0
  145.4274  133.8517  153.9476 H   0  0  0  0  0  0  0  0  0  0  0  0
  146.3050  135.3175  154.3532 H   0  0  0  0  0  0  0  0  0  0  0  0
  147.6643  134.9567  152.4426 H   0  0  0  0  0  0  0  0  0  0  0  0
  1  2  1  0  0  0  0
  1 25  1  0  0  0  0
  1 26  1  0  0  0  0
  1 27  1  0  0  0  0
  2  3  1  0  0  0  0
  2 28  1  0  0  0  0
  2 29  1  0  0  0  0
  3  4  1  0  0  0  0
  3  5  1  0  0  0  0
  3 18  1  0  0  0  0
  4 30  1  0  0  0  0
  4 31  1  0  0  0  0
  4 32  1  0  0  0  0
  5  6  1  0  0  0  0
  5 33  1  0  0  0  0
  5 34  1  0  0  0  0
  6  7  1  0  0  0  0
  6 35  1  0  0  0  0
  7  8  2  0  0  0  0
  7  9  1  0  0  0  0
  9 36  1  0  0  0  0
  9 37  1  0  0  0  0
  9 10  1  0  0  0  0
 10 11  1  0  0  0  0
 10 16  1  0  0  0  0
 11 12  2  0  0  0  0
 12 13  1  0  0  0  0
 12 14  1  0  0  0  0
 13 24  1  0  0  0  0
 14 38  1  0  0  0  0
 14 15  2  0  0  0  0
 15 39  1  0  0  0  0
 15 16  1  0  0  0  0
 16 17  2  0  0  0  0
 18 23  1  0  0  0  0
 18 19  1  0  0  0  0
 18 48  1  0  0  0  0
 19 20  1  0  0  0  0
 19 40  1  0  0  0  0
 19 41  1  0  0  0  0
 20 21  1  0  0  0  0
 20 42  1  0  0  0  0
 20 43  1  0  0  0  0
 21 22  1  0  0  0  0
 22 23  1  0  0  0  0
 22 44  1  0  0  0  0
 22 45  1  0  0  0  0
 23 46  1  0  0  0  0
 23 47  1  0  0  0  0
M  CHG  1  18   1
M  END
> <s_m_source_file>
AV-unprocessed.smi

> <i_m_source_file_index>
1986

> <i_lp_mmshare_version>
43012

> <i_f3d_flags>
0

> <s_epik_input>
W0NIMl0xW0NIMl1PW0NIMl1bQ0gyXU4xW0NAQF0oW0NIM10pKFtDSDJdW0NIM10pW0NIMl1bTkhdQyg9TylbQ0gyXW4yW25IXWMoPU8pW2NIXVtjSF1jMj1P

> <s_epik_cmdline>
J2VwaWtfcHl0aG9uJywgJy1waCcsICc3LjAnLCAnLXRuJywgJzgnLCAnLW1hJywgJzIwMCcsICctbWV0YWxfYmluZGluZycsICctaW1hZScsICc8aW5maWxlLm1hZT4nLCAnLW9tYWUnLCAnPG91dGZpbGUubWFlPic=

> <r_lp_tautomer_probability>
0.9996

> <r_epik_Ionization_Penalty>
2.73198

> <r_epik_Ionization_Penalty_Charging>
0.519658

> <r_epik_Ionization_Penalty_Neutral>
2.21233

> <r_epik_State_Penalty>
2.2852

> <r_epik_Charging_Adjusted_Penalty>
2.80486

> <i_epik_Tot_Q>
1

> <i_epik_Tot_abs_Q>
1

> <r_epik_Metal_State_Penalty>
2.2852

> <b_epik_Metal_Only>
0

> <s_lp_Force_Field>
OPLS_2005

> <r_lp_Energy>
41.4304

> <b_lp_Chiralities_Consistent>
1

> <s_lp_Variant>
AV-unprocessed.smi:1986-8

> <Gold.Version>
5.8.1

> <Gold.Id.Protein>
6NUR|6NUR_protein|mol2

> <Gold.PLP.Fitness>
46.3961

> <Gold.PLP.PLP>
-32.4785

> <Gold.PLP.part.hbond>
-4.0000

> <Gold.PLP.part.metal>
0.0000

> <Gold.PLP.part.buried>
-5.5933

> <Gold.PLP.part.nonpolar>
-24.6129

> <Gold.PLP.part.repulsive>
0.9037

> <Gold.PLP.ligand.clash>
0.0000

> <Gold.PLP.ligand.torsion>
0.6221

> <Gold.PLP.Chemscore.Hbond>
4.9840

> <Gold.PLP.Chemscore.CHOScore>
0.0000

> <Gold.PLP.Chemscore.Metal>
0.0000

> <Gold.Chemscore.Hbonds>
donor molecule, donor type, donor heavy atom, donor atom, acceptor molecule, acceptor atom, score
      L1  H     6    35       P1  7948  0.86
      L1  H    13    24       P1 10175  1.00
      L1  H    18    48       P1  7948  2.00
      P1  H  7989  7998       L1    17  1.00

> <Gold.PLP.Chemscore.Internal.Correction>
0.2098

> <Gold.Rescore>
     Score         DG    S(hbond)    S(metal)    S(lipo)     H(rot)  DE(clash)    DE(int)     intcor
     15.77     -17.05       3.73        0.00      61.34       3.15       0.13       1.15       ----

> <Gold.Chemscore.Fitness>
15.7741

> <Gold.Chemscore.DG>
-17.0514

> <Gold.Chemscore.ZeroCoef>
-5.4800

> <Gold.Chemscore.Hbond>
3.7289

> <Gold.Chemscore.Metal>
0.0000

> <Gold.Chemscore.Lipo>
61.3435

> <Gold.Chemscore.Internal_Hbond>
0.0000

> <Gold.Chemscore.DEClash>
0.1272

> <Gold.Chemscore.DEInternal>
1.1502

> <Gold.Chemscore.Rot>
3.1485

> <Gold.Chemscore.Internal.Correction>
   9.000000E+99

> <Gold.Chemscore.Hbonds>
donor molecule, donor type, donor heavy atom, donor atom, acceptor molecule, acceptor atom, score
      L1  H     6    35       P1  7948  0.69
      L1  H    13    24       P1 10175  0.95
      L1  H    18    48       P1  7948  0.96
      P1  H  7989  7998       L1    17  0.51

> <Gold.Chemscore.Hbond.Weighted>
-12.4544

> <Gold.Chemscore.Metal.Weighted>
-0.0000

> <Gold.Chemscore.Lipo.Weighted>
-7.1772

> <Gold.Chemscore.Internal_Hbond.Weighted>
0.0000

> <Gold.Chemscore.DEClash.Weighted>
0.1272

> <Gold.Chemscore.DEInternal.Weighted>
1.1502

> <Gold.Chemscore.Rot.Weighted>
8.0601

> <Gold.Chemscore.Internal.Correction.Weighted>
   9.000000E+99

> <Gold.Protein.RotatedTorsions>
[ 6907 6896 6895 6894 ] final  -82.07 input  -60.11 | X-H torsion
[ 7974 7965 7964 7962 ] final -104.85 input  175.53 | X-H torsion
[ 8008 7997 7996 7995 ] final  175.86 input   59.86 | X-H torsion
[ 10167 10162 10161 10158 ] final -110.36 input  -65.29 | X-H torsion
[ 10718 10713 10712 10709 ] final  112.85 input   66.30 | X-H torsion
[ 10763 10752 10751 10750 ] final   63.83 input  -60.55 | X-H torsion
[ 11005 11000 10999 10996 ] final  110.13 input  -57.11 | X-H torsion

> <Gold.Protein.ActiveResidues>
 VAL166  LYS551  ARG553  GLY616  TRP617  ASP618  TYR619  PRO620  LYS621  CYS622 
 ASP623  PHE694  ASN695  SER759  ASP760  ASP761  ALA762  ILE779  LEU786  VAL792 
 PHE793  MET794  SER795  GLU796  ALA797  LYS798  CYS799  TRP800  GLU811  SER814 

> <Gold.Protein.RotatedAtoms>
  150.6902  134.3722  159.4996 H   0  0  0  0  0  0  0  0  0  0  0  0  # atno 6907 bound_to 6896
  152.1536  134.8966  160.0555 H   0  0  0  0  0  0  0  0  0  0  0  0  # atno 6908 bound_to 6896
  152.0054  133.3806  159.4235 H   0  0  0  0  0  0  0  0  0  0  0  0  # atno 6909 bound_to 6896
  145.2379  140.9194  143.3167 H   0  0  0  0  0  0  0  0  0  0  0  0  # atno 7974 bound_to 7965
  156.0826  140.1398  156.9693 H   0  0  0  0  0  0  0  0  0  0  0  0  # atno 8008 bound_to 7997
  154.4594  140.0949  156.6899 H   0  0  0  0  0  0  0  0  0  0  0  0  # atno 8009 bound_to 7997
  155.5051  140.3452  155.4380 H   0  0  0  0  0  0  0  0  0  0  0  0  # atno 8010 bound_to 7997
  140.1453  143.4245  152.1533 H   0  0  0  0  0  0  0  0  0  0  0  0  # atno 10167 bound_to 10162
  157.6370  131.0974  150.6955 H   0  0  0  0  0  0  0  0  0  0  0  0  # atno 10718 bound_to 10713
  153.0032  135.5415  154.6414 H   0  0  0  0  0  0  0  0  0  0  0  0  # atno 10763 bound_to 10752
  154.5668  135.2838  155.0868 H   0  0  0  0  0  0  0  0  0  0  0  0  # atno 10764 bound_to 10752
  154.2049  135.6477  153.5150 H   0  0  0  0  0  0  0  0  0  0  0  0  # atno 10765 bound_to 10752
  139.8875  134.9476  156.6231 H   0  0  0  0  0  0  0  0  0  0  0  0  # atno 11005 bound_to 11000
  144.9616  139.3974  143.6353 LP  0  0  0  0  0  0  0  0  0  0  0  0  # atno 17320 bound_to 7965
  146.3336  139.8672  142.8846 LP  0  0  0  0  0  0  0  0  0  0  0  0  # atno 17321 bound_to 7965
  139.5452  144.7292  151.4606 LP  0  0  0  0  0  0  0  0  0  0  0  0  # atno 17342 bound_to 10162
  140.6736  143.8240  150.7030 LP  0  0  0  0  0  0  0  0  0  0  0  0  # atno 17343 bound_to 10162
  156.7285  130.4702  149.5505 LP  0  0  0  0  0  0  0  0  0  0  0  0  # atno 17370 bound_to 10713
  156.1618  130.6379  151.0728 LP  0  0  0  0  0  0  0  0  0  0  0  0  # atno 17371 bound_to 10713
  140.7724  133.8727  155.8502 LP  0  0  0  0  0  0  0  0  0  0  0  0  # atno 17394 bound_to 11000
  140.9831  134.1379  157.4477 LP  0  0  0  0  0  0  0  0  0  0  0  0  # atno 17395 bound_to 11000

$$$$
