AV-unprocessed.smi:36|AV-procd|sdf|299|dock3
  -GOLD-   2262016103D 1   1.00000     0.00000
 Structure written by MMmdl.
 63 66  0  0  0  0  0  0  0  0  2 V2000
  143.7642  134.0871  162.8234 C   0  0  0  0  0  0  0  0  0  0  0  0
  144.8917  134.4129  161.8300 C   0  0  0  0  0  0  0  0  0  0  0  0
  144.6767  135.8205  161.2486 C   0  0  0  0  0  0  0  0  0  0  0  0
  146.2528  134.3433  162.5419 C   0  0  0  0  0  0  0  0  0  0  0  0
  144.8562  133.1413  160.4046 Si  0  0  0  0  0  0  0  0  0  0  0  0
  145.2132  131.3898  161.0546 C   0  0  0  0  0  0  0  0  0  0  0  0
  143.1782  133.1543  159.5146 C   0  0  0  0  0  0  0  0  0  0  0  0
  146.0456  133.5868  159.2827 O   0  0  0  0  0  0  0  0  0  0  0  0
  147.4256  133.6896  159.5751 C   0  0  0  0  0  0  0  0  0  0  0  0
  148.1227  134.4553  158.4403 C   0  0  2  0  0  0  0  0  0  0  0  0
  147.2244  135.3297  157.7710 O   0  0  0  0  0  0  0  0  0  0  0  0
  147.8161  135.7496  156.5797 C   0  0  1  0  0  0  0  0  0  0  0  0
  148.5777  137.0148  156.8460 N   0  0  0  0  0  0  0  0  0  0  0  0
  148.5898  137.7859  157.9549 C   0  0  0  0  0  0  0  0  0  0  0  0
  149.3381  138.8867  157.9310 N   0  0  0  0  0  0  0  0  0  0  0  0
  149.8584  138.8424  156.6463 C   0  0  0  0  0  0  0  0  0  0  0  0
  150.7285  139.7125  155.9341 C   0  0  0  0  0  0  0  0  0  0  0  0
  151.2383  140.8295  156.4748 N   0  5  0  0  0  0  0  0  0  0  0  0
  151.9710  140.7530  157.6148 C   0  0  0  0  0  0  0  0  0  0  0  0
  152.5897  139.7811  158.0538 O   0  0  0  0  0  0  0  0  0  0  0  0
  151.9307  142.0157  158.4328 C   0  0  0  0  0  0  0  0  0  0  0  0
  152.4988  142.0290  159.7271 C   0  0  0  0  0  0  0  0  0  0  0  0
  152.4920  143.2064  160.5002 C   0  0  0  0  0  0  0  0  0  0  0  0
  151.9259  144.3862  159.9826 C   0  0  0  0  0  0  0  0  0  0  0  0
  151.3706  144.3891  158.6893 C   0  0  0  0  0  0  0  0  0  0  0  0
  151.3759  143.2117  157.9160 C   0  0  0  0  0  0  0  0  0  0  0  0
  151.0462  139.3584  154.6623 N   0  0  0  0  0  0  0  0  0  0  0  0
  150.5344  138.2459  154.1221 C   0  0  0  0  0  0  0  0  0  0  0  0
  149.7050  137.3506  154.6677 N   0  0  0  0  0  0  0  0  0  0  0  0
  149.3909  137.6892  155.9520 C   0  0  0  0  0  0  0  0  0  0  0  0
  148.7705  134.6214  156.1438 C   0  0  0  0  0  0  0  0  0  0  0  0
  148.6880  133.6187  157.2891 C   0  0  2  0  0  0  0  0  0  0  0  0
  147.8325  132.5430  156.9516 O   0  0  0  0  0  0  0  0  0  0  0  0
  143.7392  134.8049  163.6441 H   0  0  0  0  0  0  0  0  0  0  0  0
  143.8903  133.0957  163.2587 H   0  0  0  0  0  0  0  0  0  0  0  0
  142.7890  134.1108  162.3360 H   0  0  0  0  0  0  0  0  0  0  0  0
  143.7184  135.8922  160.7333 H   0  0  0  0  0  0  0  0  0  0  0  0
  145.4555  136.0810  160.5315 H   0  0  0  0  0  0  0  0  0  0  0  0
  144.6858  136.5797  162.0314 H   0  0  0  0  0  0  0  0  0  0  0  0
  146.3074  135.0588  163.3630 H   0  0  0  0  0  0  0  0  0  0  0  0
  147.0716  134.5667  161.8573 H   0  0  0  0  0  0  0  0  0  0  0  0
  146.4330  133.3519  162.9584 H   0  0  0  0  0  0  0  0  0  0  0  0
  144.4428  131.0583  161.7503 H   0  0  0  0  0  0  0  0  0  0  0  0
  146.1655  131.3403  161.5824 H   0  0  0  0  0  0  0  0  0  0  0  0
  145.2505  130.6614  160.2451 H   0  0  0  0  0  0  0  0  0  0  0  0
  142.3643  132.8918  160.1901 H   0  0  0  0  0  0  0  0  0  0  0  0
  143.1577  132.4416  158.6903 H   0  0  0  0  0  0  0  0  0  0  0  0
  142.9526  134.1360  159.0989 H   0  0  0  0  0  0  0  0  0  0  0  0
  147.5548  134.2131  160.5231 H   0  0  0  0  0  0  0  0  0  0  0  0
  147.8468  132.6912  159.6954 H   0  0  0  0  0  0  0  0  0  0  0  0
  148.9390  135.0472  158.8527 H   0  0  0  0  0  0  0  0  0  0  0  0
  147.0735  136.0287  155.8314 H   0  0  0  0  0  0  0  0  0  0  0  0
  148.0198  137.5276  158.8347 H   0  0  0  0  0  0  0  0  0  0  0  0
  152.9387  141.1316  160.1380 H   0  0  0  0  0  0  0  0  0  0  0  0
  152.9227  143.2031  161.4905 H   0  0  0  0  0  0  0  0  0  0  0  0
  151.9213  145.2890  160.5751 H   0  0  0  0  0  0  0  0  0  0  0  0
  150.9422  145.2956  158.2876 H   0  0  0  0  0  0  0  0  0  0  0  0
  150.9539  143.2368  156.9214 H   0  0  0  0  0  0  0  0  0  0  0  0
  150.8345  138.0428  153.1049 H   0  0  0  0  0  0  0  0  0  0  0  0
  148.4533  134.2033  155.1875 H   0  0  0  0  0  0  0  0  0  0  0  0
  149.7870  135.0004  156.0308 H   0  0  0  0  0  0  0  0  0  0  0  0
  149.6678  133.2102  157.5384 H   0  0  0  0  0  0  0  0  0  0  0  0
  147.0470  132.8935  156.5601 H   0  0  0  0  0  0  0  0  0  0  0  0
  1  2  1  0  0  0  0
  1 34  1  0  0  0  0
  1 35  1  0  0  0  0
  1 36  1  0  0  0  0
  2  3  1  0  0  0  0
  2  4  1  0  0  0  0
  2  5  1  0  0  0  0
  3 37  1  0  0  0  0
  3 38  1  0  0  0  0
  3 39  1  0  0  0  0
  4 40  1  0  0  0  0
  4 41  1  0  0  0  0
  4 42  1  0  0  0  0
  5  6  1  0  0  0  0
  5  7  1  0  0  0  0
  5  8  1  0  0  0  0
  6 43  1  0  0  0  0
  6 44  1  0  0  0  0
  6 45  1  0  0  0  0
  7 46  1  0  0  0  0
  7 47  1  0  0  0  0
  7 48  1  0  0  0  0
  8  9  1  0  0  0  0
  9 10  1  0  0  0  0
  9 49  1  0  0  0  0
  9 50  1  0  0  0  0
 10 32  1  0  0  0  0
 10 11  1  0  0  0  0
 10 51  1  0  0  0  0
 11 12  1  0  0  0  0
 12 13  1  0  0  0  0
 12 31  1  0  0  0  0
 12 52  1  0  0  0  0
 13 30  1  0  0  0  0
 13 14  1  0  0  0  0
 14 15  2  0  0  0  0
 14 53  1  0  0  0  0
 15 16  1  0  0  0  0
 16 30  2  0  0  0  0
 16 17  1  0  0  0  0
 17 18  1  0  0  0  0
 17 27  2  0  0  0  0
 18 19  1  0  0  0  0
 19 20  2  0  0  0  0
 19 21  1  0  0  0  0
 21 26  1  0  0  0  0
 21 22  2  0  0  0  0
 22 23  1  0  0  0  0
 22 54  1  0  0  0  0
 23 24  2  0  0  0  0
 23 55  1  0  0  0  0
 24 25  1  0  0  0  0
 24 56  1  0  0  0  0
 25 26  2  0  0  0  0
 25 57  1  0  0  0  0
 26 58  1  0  0  0  0
 27 28  1  0  0  0  0
 28 29  2  0  0  0  0
 28 59  1  0  0  0  0
 29 30  1  0  0  0  0
 31 32  1  0  0  0  0
 31 60  1  0  0  0  0
 31 61  1  0  0  0  0
 32 33  1  0  0  0  0
 32 62  1  0  0  0  0
 33 63  1  0  0  0  0
M  CHG  1  18  -1
M  END
> <s_m_source_file>
AV-unprocessed.smi

> <i_m_source_file_index>
36

> <i_lp_mmshare_version>
43012

> <i_f3d_flags>
0

> <s_epik_input>
W0NIM11DKFtDSDNdKShbQ0gzXSlbU2ldKFtDSDNdKShbQ0gzXSlPW0NIMl1bQ0BASF0xT1tDQEhdKFtDSDJdW0NASF0xW09IXSluKFtjSF1uMiljKGMyMyluW2NIXW5jM1tOSF1DKD1PKWM0W2NIXVtjSF1bY0hdW2NIXVtjSF00

> <s_epik_cmdline>
J2VwaWtfcHl0aG9uJywgJy1waCcsICc3LjAnLCAnLXRuJywgJzgnLCAnLW1hJywgJzIwMCcsICctbWV0YWxfYmluZGluZycsICctaW1hZScsICc8aW5maWxlLm1hZT4nLCAnLW9tYWUnLCAnPG91dGZpbGUubWFlPic=

> <r_lp_tautomer_probability>
1

> <r_epik_Ionization_Penalty>
4.75685

> <r_epik_Ionization_Penalty_Charging>
3.55822

> <r_epik_Ionization_Penalty_Neutral>
1.19863

> <r_epik_State_Penalty>
3.564

> <r_epik_Charging_Adjusted_Penalty>
7.12222

> <i_epik_Tot_Q>
-1

> <i_epik_Tot_abs_Q>
1

> <r_epik_Metal_State_Penalty>
0.523258

> <b_epik_Metal_Only>
1

> <s_epik_Chemistry_Notes>
This compound contains an acetal/aminal-like group ( X-CH(R)-Y where X, Y are N, S, or O) that may be acid/base labile, releasing an aldehyde.

> <s_lp_Force_Field>
OPLS_2005

> <r_lp_Energy>
31.8214

> <b_lp_Chiralities_Consistent>
1

> <s_lp_Variant>
AV-unprocessed.smi:36-21

> <Gold.Version>
5.8.1

> <Gold.Id.Protein>
6NUR|6NUR_protein|mol2

> <Gold.PLP.Fitness>
51.9407

> <Gold.PLP.PLP>
-45.0717

> <Gold.PLP.part.hbond>
-2.0000

> <Gold.PLP.part.metal>
0.0000

> <Gold.PLP.part.buried>
-6.9571

> <Gold.PLP.part.nonpolar>
-36.6595

> <Gold.PLP.part.repulsive>
0.3033

> <Gold.PLP.ligand.clash>
0.0000

> <Gold.PLP.ligand.torsion>
1.2718

> <Gold.PLP.Chemscore.Hbond>
2.0000

> <Gold.PLP.Chemscore.CHOScore>
1.0208

> <Gold.PLP.Chemscore.Metal>
0.0000

> <Gold.Chemscore.Hbonds>
donor molecule, donor type, donor heavy atom, donor atom, acceptor molecule, acceptor atom, score
      P1  H  7989  7998       L1    27  1.00
      P1  H  7997  8008       L1    20  0.42
      L1  C    28    59       P1  7948  0.07
      L1  C    28    59       P1  7949  0.67

> <Gold.PLP.Chemscore.Internal.Correction>
0.3503

> <Gold.Rescore>
     Score         DG    S(hbond)    S(metal)    S(lipo)     H(rot)  DE(clash)    DE(int)     intcor
     16.93     -18.36       1.82        0.00     116.51       2.67       0.07       1.35       ----

> <Gold.Chemscore.Fitness>
16.9299

> <Gold.Chemscore.DG>
-18.3585

> <Gold.Chemscore.ZeroCoef>
-5.4800

> <Gold.Chemscore.Hbond>
1.8212

> <Gold.Chemscore.Metal>
0.0000

> <Gold.Chemscore.Lipo>
116.5072

> <Gold.Chemscore.Internal_Hbond>
0.0000

> <Gold.Chemscore.DEClash>
0.0749

> <Gold.Chemscore.DEInternal>
1.3538

> <Gold.Chemscore.Rot>
2.6702

> <Gold.Chemscore.Internal.Correction>
   9.000000E+99

> <Gold.Chemscore.Hbonds>
donor molecule, donor type, donor heavy atom, donor atom, acceptor molecule, acceptor atom, score
      P1  H  7989  7998       L1    27  0.86
      P1  H  7997  8008       L1    20  0.13

> <Gold.Chemscore.Hbond.Weighted>
-6.0829

> <Gold.Chemscore.Metal.Weighted>
-0.0000

> <Gold.Chemscore.Lipo.Weighted>
-13.6313

> <Gold.Chemscore.Internal_Hbond.Weighted>
0.0000

> <Gold.Chemscore.DEClash.Weighted>
0.0749

> <Gold.Chemscore.DEInternal.Weighted>
1.3538

> <Gold.Chemscore.Rot.Weighted>
6.8358

> <Gold.Chemscore.Internal.Correction.Weighted>
   9.000000E+99

> <Gold.Protein.RotatedTorsions>
[ 6907 6896 6895 6894 ] final  -52.92 input  -60.11 | X-H torsion
[ 7974 7965 7964 7962 ] final -138.48 input  175.53 | X-H torsion
[ 8008 7997 7996 7995 ] final  -85.31 input   59.86 | X-H torsion
[ 10167 10162 10161 10158 ] final  100.73 input  -65.29 | X-H torsion
[ 10718 10713 10712 10709 ] final   40.49 input   66.30 | X-H torsion
[ 10763 10752 10751 10750 ] final -158.96 input  -60.55 | X-H torsion
[ 11005 11000 10999 10996 ] final  175.03 input  -57.11 | X-H torsion

> <Gold.Protein.ActiveResidues>
 VAL166  LYS551  ARG553  GLY616  TRP617  ASP618  TYR619  PRO620  LYS621  CYS622 
 ASP623  PHE694  ASN695  SER759  ASP760  ASP761  ALA762  ILE779  LEU786  VAL792 
 PHE793  MET794  SER795  GLU796  ALA797  LYS798  CYS799  TRP800  GLU811  SER814 

> <Gold.Protein.RotatedAtoms>
  150.8474  134.7787  159.6981 H   0  0  0  0  0  0  0  0  0  0  0  0  # atno 6907 bound_to 6896
  152.4547  134.5313  159.9822 H   0  0  0  0  0  0  0  0  0  0  0  0  # atno 6908 bound_to 6896
  151.5441  133.3390  159.2976 H   0  0  0  0  0  0  0  0  0  0  0  0  # atno 6909 bound_to 6896
  144.8755  140.6430  143.5240 H   0  0  0  0  0  0  0  0  0  0  0  0  # atno 7974 bound_to 7965
  154.6394  140.0593  156.9827 H   0  0  0  0  0  0  0  0  0  0  0  0  # atno 8008 bound_to 7997
  155.1541  140.3277  155.4406 H   0  0  0  0  0  0  0  0  0  0  0  0  # atno 8009 bound_to 7997
  156.2523  140.1942  156.6651 H   0  0  0  0  0  0  0  0  0  0  0  0  # atno 8010 bound_to 7997
  139.7500  144.6986  151.0446 H   0  0  0  0  0  0  0  0  0  0  0  0  # atno 10167 bound_to 10162
  157.3827  130.7763  149.7206 H   0  0  0  0  0  0  0  0  0  0  0  0  # atno 10718 bound_to 10713
  154.7514  135.3093  154.8550 H   0  0  0  0  0  0  0  0  0  0  0  0  # atno 10763 bound_to 10752
  153.9336  135.6782  153.4749 H   0  0  0  0  0  0  0  0  0  0  0  0  # atno 10764 bound_to 10752
  153.1110  135.4866  154.8964 H   0  0  0  0  0  0  0  0  0  0  0  0  # atno 10765 bound_to 10752
  140.3578  134.7139  157.4311 H   0  0  0  0  0  0  0  0  0  0  0  0  # atno 11005 bound_to 11000
  145.4051  139.1590  143.4156 LP  0  0  0  0  0  0  0  0  0  0  0  0  # atno 17320 bound_to 7965
  146.2959  140.4151  142.8722 LP  0  0  0  0  0  0  0  0  0  0  0  0  # atno 17321 bound_to 7965
  140.7797  143.4820  151.0006 LP  0  0  0  0  0  0  0  0  0  0  0  0  # atno 17342 bound_to 10162
  139.8507  143.7441  152.3178 LP  0  0  0  0  0  0  0  0  0  0  0  0  # atno 17343 bound_to 10162
  155.9779  130.4057  150.3679 LP  0  0  0  0  0  0  0  0  0  0  0  0  # atno 17370 bound_to 10713
  157.1785  131.0386  151.2760 LP  0  0  0  0  0  0  0  0  0  0  0  0  # atno 17371 bound_to 10713
  140.0651  134.5941  155.8704 LP  0  0  0  0  0  0  0  0  0  0  0  0  # atno 17394 bound_to 11000
  141.1993  133.6606  156.5837 LP  0  0  0  0  0  0  0  0  0  0  0  0  # atno 17395 bound_to 11000

$$$$
