AV-unprocessed.smi:69|AV-procd|sdf|651|dock9
  -GOLD-   2262016553D 1   1.00000     0.00000
 Structure written by MMmdl.
 32 34  0  0  0  0  0  0  0  0  1 V2000
  150.9027  129.0080  154.9470 N   0  0  0  0  0  0  0  0  0  0  0  0
  150.2609  130.1551  154.6861 C   0  0  0  0  0  0  0  0  0  0  0  0
  150.8353  131.3170  155.0774 N   0  0  0  0  0  0  0  0  0  0  0  0
  150.2168  132.4761  154.8262 C   0  0  0  0  0  0  0  0  0  0  0  0
  149.0481  132.6847  154.2131 N   0  0  0  0  0  0  0  0  0  0  0  0
  148.4728  131.5099  153.8227 C   0  0  0  0  0  0  0  0  0  0  0  0
  149.0115  130.2091  154.0186 C   0  0  0  0  0  0  0  0  0  0  0  0
  148.1521  129.2567  153.4856 N   0  0  0  0  0  0  0  0  0  0  0  0
  147.1633  129.9611  153.0016 C   0  0  0  0  0  0  0  0  0  0  0  0
  147.2786  131.3257  153.1628 N   0  0  0  0  0  0  0  0  0  0  0  0
  146.3472  132.4090  152.7237 C   0  0  2  0  0  0  0  0  0  0  0  0
  145.2588  131.8185  152.0963 O   0  0  0  0  0  0  0  0  0  0  0  0
  144.6691  132.7940  151.2523 C   0  0  2  0  0  0  0  0  0  0  0  0
  143.7533  132.1138  150.2237 C   0  0  0  0  0  0  0  0  0  0  0  0
  143.3486  133.0464  149.2446 O   0  0  0  0  0  0  0  0  0  0  0  0
  145.8902  133.4832  150.6258 C   0  0  1  0  0  0  0  0  0  0  0  0
  145.5961  134.8389  150.3548 O   0  0  0  0  0  0  0  0  0  0  0  0
  146.9775  133.3722  151.6964 C   0  0  2  0  0  0  0  0  0  0  0  0
  148.1913  132.9049  151.1334 O   0  0  0  0  0  0  0  0  0  0  0  0
  146.0242  132.9069  153.6399 H   0  0  0  0  0  0  0  0  0  0  0  0
  144.1123  133.5044  151.8682 H   0  0  0  0  0  0  0  0  0  0  0  0
  146.1889  132.9713  149.7093 H   0  0  0  0  0  0  0  0  0  0  0  0
  147.1655  134.3230  152.1976 H   0  0  0  0  0  0  0  0  0  0  0  0
  150.4954  128.1285  154.6637 H   0  0  0  0  0  0  0  0  0  0  0  0
  151.7923  129.0258  155.4244 H   0  0  0  0  0  0  0  0  0  0  0  0
  150.7320  133.3631  155.1641 H   0  0  0  0  0  0  0  0  0  0  0  0
  146.3203  129.5004  152.5073 H   0  0  0  0  0  0  0  0  0  0  0  0
  144.2930  131.3166  149.7119 H   0  0  0  0  0  0  0  0  0  0  0  0
  142.8839  131.6623  150.7027 H   0  0  0  0  0  0  0  0  0  0  0  0
  142.6069  133.5287  149.5768 H   0  0  0  0  0  0  0  0  0  0  0  0
  145.9242  135.0498  149.4937 H   0  0  0  0  0  0  0  0  0  0  0  0
  148.0589  132.0194  150.8315 H   0  0  0  0  0  0  0  0  0  0  0  0
  1  2  1  0  0  0  0
  1 24  1  0  0  0  0
  1 25  1  0  0  0  0
  2  7  1  0  0  0  0
  2  3  2  0  0  0  0
  3  4  1  0  0  0  0
  4  5  2  0  0  0  0
  4 26  1  0  0  0  0
  5  6  1  0  0  0  0
  6 10  1  0  0  0  0
  6  7  2  0  0  0  0
  7  8  1  0  0  0  0
  8  9  2  0  0  0  0
  9 10  1  0  0  0  0
  9 27  1  0  0  0  0
 10 11  1  0  0  0  0
 11 20  1  0  0  0  0
 11 18  1  0  0  0  0
 11 12  1  0  0  0  0
 12 13  1  0  0  0  0
 13 21  1  0  0  0  0
 13 14  1  0  0  0  0
 13 16  1  0  0  0  0
 14 15  1  0  0  0  0
 14 28  1  0  0  0  0
 14 29  1  0  0  0  0
 15 30  1  0  0  0  0
 16 22  1  0  0  0  0
 16 17  1  0  0  0  0
 16 18  1  0  0  0  0
 17 31  1  0  0  0  0
 18 23  1  0  0  0  0
 18 19  1  0  0  0  0
 19 32  1  0  0  0  0
M  END
> <s_m_source_file>
AV-unprocessed.smi

> <i_m_source_file_index>
69

> <i_lp_mmshare_version>
43012

> <i_f3d_flags>
0

> <s_epik_input>
bjFbY0hdbmMoW05IMl0pYyhjMTIpbltjSF1uMltDQEBIXTNPW0NASF0oW0NIMl1bT0hdKVtDQEBIXShbT0hdKVtDQEhdM1tPSF0=

> <s_epik_cmdline>
J2VwaWtfcHl0aG9uJywgJy1waCcsICc3LjAnLCAnLXRuJywgJzgnLCAnLW1hJywgJzIwMCcsICctbWV0YWxfYmluZGluZycsICctaW1hZScsICc8aW5maWxlLm1hZT4nLCAnLW9tYWUnLCAnPG91dGZpbGUubWFlPic=

> <r_lp_tautomer_probability>
1

> <r_epik_Ionization_Penalty>
0.000428445

> <r_epik_Ionization_Penalty_Charging>
0

> <r_epik_Ionization_Penalty_Neutral>
0.000428445

> <r_epik_State_Penalty>
-0

> <r_epik_Charging_Adjusted_Penalty>
0

> <i_epik_Tot_Q>
0

> <i_epik_Tot_abs_Q>
0

> <r_epik_Metal_State_Penalty>
-0

> <b_epik_Metal_Only>
0

> <s_epik_Chemistry_Notes>
This compound contains an acetal/aminal-like group ( X-CH(R)-Y where X, Y are N, S, or O) that may be acid/base labile, releasing an aldehyde.

> <s_lp_Force_Field>
OPLS_2005

> <r_lp_Energy>
36.244

> <b_lp_Chiralities_Consistent>
1

> <s_lp_Variant>
AV-unprocessed.smi:69-9

> <Gold.Version>
5.8.1

> <Gold.Id.Protein>
6NUR|6NUR_protein|mol2

> <Gold.PLP.Fitness>
35.3586

> <Gold.PLP.PLP>
-26.9719

> <Gold.PLP.part.hbond>
-2.9051

> <Gold.PLP.part.metal>
0.0000

> <Gold.PLP.part.buried>
-3.1815

> <Gold.PLP.part.nonpolar>
-21.0493

> <Gold.PLP.part.repulsive>
0.3355

> <Gold.PLP.ligand.clash>
0.0000

> <Gold.PLP.ligand.torsion>
0.0372

> <Gold.PLP.Chemscore.Hbond>
2.8160

> <Gold.PLP.Chemscore.CHOScore>
0.0000

> <Gold.PLP.Chemscore.Metal>
0.0000

> <Gold.Chemscore.Hbonds>
donor molecule, donor type, donor heavy atom, donor atom, acceptor molecule, acceptor atom, score
      L1  H    15    30       P1 10186  1.00
      L1  H    17    31       P1  7921  1.00
      L1  H    19    32       P1 10747  0.70

> <Gold.PLP.Chemscore.Internal.Correction>
0.0132

> <Gold.Rescore>
     Score         DG    S(hbond)    S(metal)    S(lipo)     H(rot)  DE(clash)    DE(int)     intcor
      7.22      -8.56       2.72        0.00      36.94       4.03       1.24       0.10       ----

> <Gold.Chemscore.Fitness>
7.2202

> <Gold.Chemscore.DG>
-8.5635

> <Gold.Chemscore.ZeroCoef>
-5.4800

> <Gold.Chemscore.Hbond>
2.7164

> <Gold.Chemscore.Metal>
0.0000

> <Gold.Chemscore.Lipo>
36.9366

> <Gold.Chemscore.Internal_Hbond>
0.0000

> <Gold.Chemscore.DEClash>
1.2392

> <Gold.Chemscore.DEInternal>
0.1041

> <Gold.Chemscore.Rot>
4.0277

> <Gold.Chemscore.Internal.Correction>
   9.000000E+99

> <Gold.Chemscore.Hbonds>
donor molecule, donor type, donor heavy atom, donor atom, acceptor molecule, acceptor atom, score
      L1  H    15    30       P1 10186  0.99
      L1  H    17    31       P1  7921  0.89
      L1  H    19    32       P1 10747  0.68

> <Gold.Chemscore.Hbond.Weighted>
-9.0729

> <Gold.Chemscore.Metal.Weighted>
-0.0000

> <Gold.Chemscore.Lipo.Weighted>
-4.3216

> <Gold.Chemscore.Internal_Hbond.Weighted>
0.0000

> <Gold.Chemscore.DEClash.Weighted>
1.2392

> <Gold.Chemscore.DEInternal.Weighted>
0.1041

> <Gold.Chemscore.Rot.Weighted>
10.3110

> <Gold.Chemscore.Internal.Correction.Weighted>
   9.000000E+99

> <Gold.Protein.RotatedTorsions>
[ 6907 6896 6895 6894 ] final  100.55 input  -60.11 | X-H torsion
[ 7974 7965 7964 7962 ] final  169.14 input  175.53 | X-H torsion
[ 8008 7997 7996 7995 ] final  163.86 input   59.86 | X-H torsion
[ 10167 10162 10161 10158 ] final  -74.92 input  -65.29 | X-H torsion
[ 10718 10713 10712 10709 ] final  146.57 input   66.30 | X-H torsion
[ 10763 10752 10751 10750 ] final  -99.34 input  -60.55 | X-H torsion
[ 11005 11000 10999 10996 ] final -109.83 input  -57.11 | X-H torsion

> <Gold.Protein.ActiveResidues>
 VAL166  LYS551  ARG553  GLY616  TRP617  ASP618  TYR619  PRO620  LYS621  CYS622 
 ASP623  PHE694  ASN695  SER759  ASP760  ASP761  ALA762  ILE779  LEU786  VAL792 
 PHE793  MET794  SER795  GLU796  ALA797  LYS798  CYS799  TRP800  GLU811  SER814 

> <Gold.Protein.RotatedAtoms>
  152.5369  134.0259  159.8002 H   0  0  0  0  0  0  0  0  0  0  0  0  # atno 6907 bound_to 6896
  151.0438  133.5675  159.2656 H   0  0  0  0  0  0  0  0  0  0  0  0  # atno 6908 bound_to 6896
  151.2635  135.0669  159.9161 H   0  0  0  0  0  0  0  0  0  0  0  0  # atno 6909 bound_to 6896
  144.7365  139.9011  143.6409 H   0  0  0  0  0  0  0  0  0  0  0  0  # atno 7974 bound_to 7965
  156.1925  140.1712  156.8064 H   0  0  0  0  0  0  0  0  0  0  0  0  # atno 8008 bound_to 7997
  154.5488  140.0722  156.8665 H   0  0  0  0  0  0  0  0  0  0  0  0  # atno 8009 bound_to 7997
  155.3069  140.3365  155.4248 H   0  0  0  0  0  0  0  0  0  0  0  0  # atno 8010 bound_to 7997
  140.4987  143.2365  151.7789 H   0  0  0  0  0  0  0  0  0  0  0  0  # atno 10167 bound_to 10162
  157.3315  131.0921  151.1158 H   0  0  0  0  0  0  0  0  0  0  0  0  # atno 10718 bound_to 10713
  154.7490  135.4976  153.9255 H   0  0  0  0  0  0  0  0  0  0  0  0  # atno 10763 bound_to 10752
  153.1122  135.6712  153.9488 H   0  0  0  0  0  0  0  0  0  0  0  0  # atno 10764 bound_to 10752
  153.9244  135.3085  155.3426 H   0  0  0  0  0  0  0  0  0  0  0  0  # atno 10765 bound_to 10752
  141.0826  133.9194  157.2256 H   0  0  0  0  0  0  0  0  0  0  0  0  # atno 11005 bound_to 11000
  146.1071  139.4072  143.0311 LP  0  0  0  0  0  0  0  0  0  0  0  0  # atno 17320 bound_to 7965
  145.7496  140.9977  143.1257 LP  0  0  0  0  0  0  0  0  0  0  0  0  # atno 17321 bound_to 7965
  139.4867  144.4552  151.9607 LP  0  0  0  0  0  0  0  0  0  0  0  0  # atno 17342 bound_to 10162
  140.3640  144.2937  150.5929 LP  0  0  0  0  0  0  0  0  0  0  0  0  # atno 17343 bound_to 10162
  157.2405  130.6567  149.5887 LP  0  0  0  0  0  0  0  0  0  0  0  0  # atno 17370 bound_to 10713
  155.9696  130.4570  150.5946 LP  0  0  0  0  0  0  0  0  0  0  0  0  # atno 17371 bound_to 10713
  139.9641  135.0146  156.9339 LP  0  0  0  0  0  0  0  0  0  0  0  0  # atno 17394 bound_to 11000
  140.5435  134.0696  155.7348 LP  0  0  0  0  0  0  0  0  0  0  0  0  # atno 17395 bound_to 11000

$$$$
