AV-unprocessed.smi:343|AV-procd|sdf|2388|dock2
  -GOLD-   2262022313D 1   1.00000     0.00000
 Structure written by MMmdl.
 42 44  0  0  0  0  0  0  0  0  1 V2000
  151.5720  138.9316  155.5332 C   0  0  0  0  0  0  0  0  0  0  0  0
  150.2751  139.5133  155.0475 C   0  0  0  0  0  0  0  0  0  0  0  0
  149.3727  138.7175  154.4978 N   0  0  0  0  0  0  0  0  0  0  0  0
  148.3444  139.5298  154.1810 N   0  0  0  0  0  0  0  0  0  0  0  0
  147.1631  138.9710  153.5528 C   0  0  0  0  0  0  0  0  0  0  0  0
  148.5992  140.8421  154.5276 C   0  0  0  0  0  0  0  0  0  0  0  0
  147.6113  141.9375  154.2861 C   0  0  0  0  0  0  0  0  0  0  0  0
  149.8452  140.8722  155.0949 C   0  0  0  0  0  0  0  0  0  0  0  0
  150.5967  142.0545  155.6539 C   0  0  0  0  0  0  0  0  0  0  0  0
  150.5686  142.0066  157.1814 C   0  0  0  0  0  0  0  0  0  0  0  0
  149.8051  141.2325  157.7579 O   0  0  0  0  0  0  0  0  0  0  0  0
  151.4155  142.8304  157.8191 N   0  0  0  0  0  0  0  0  0  0  0  0
  151.6118  142.9012  159.2620 C   0  0  0  0  0  0  0  0  0  0  0  0
  151.1657  144.2400  159.8196 C   0  0  0  0  0  0  0  0  0  0  0  0
  151.9148  145.5134  159.5055 C   0  0  0  0  0  0  0  0  0  0  0  0
  151.9557  144.9351  160.9021 C   0  0  0  0  0  0  0  0  0  0  0  0
  153.0506  142.6166  159.6608 C   0  0  0  0  0  0  0  0  0  0  0  0
  153.5123  141.2193  159.9997 C   0  0  0  0  0  0  0  0  0  0  0  0
  153.4191  142.2690  161.0840 C   0  0  0  0  0  0  0  0  0  0  0  0
  151.8239  139.3099  156.5240 H   0  0  0  0  0  0  0  0  0  0  0  0
  152.3894  139.1912  154.8605 H   0  0  0  0  0  0  0  0  0  0  0  0
  151.5282  137.8437  155.5991 H   0  0  0  0  0  0  0  0  0  0  0  0
  146.2780  139.2418  154.1294 H   0  0  0  0  0  0  0  0  0  0  0  0
  147.2308  137.8833  153.5023 H   0  0  0  0  0  0  0  0  0  0  0  0
  147.0651  139.3667  152.5415 H   0  0  0  0  0  0  0  0  0  0  0  0
  148.0483  142.9153  154.4885 H   0  0  0  0  0  0  0  0  0  0  0  0
  146.7412  141.8207  154.9322 H   0  0  0  0  0  0  0  0  0  0  0  0
  147.2694  141.9337  153.2509 H   0  0  0  0  0  0  0  0  0  0  0  0
  151.6348  142.0664  155.3199 H   0  0  0  0  0  0  0  0  0  0  0  0
  150.1614  142.9957  155.3161 H   0  0  0  0  0  0  0  0  0  0  0  0
  151.9998  143.4297  157.2546 H   0  0  0  0  0  0  0  0  0  0  0  0
  150.9840  142.1402  159.7303 H   0  0  0  0  0  0  0  0  0  0  0  0
  150.0838  144.3395  159.8899 H   0  0  0  0  0  0  0  0  0  0  0  0
  152.8221  145.4401  158.9092 H   0  0  0  0  0  0  0  0  0  0  0  0
  151.3266  146.4155  159.3502 H   0  0  0  0  0  0  0  0  0  0  0  0
  151.3956  145.4516  161.6790 H   0  0  0  0  0  0  0  0  0  0  0  0
  152.8859  144.4727  161.2269 H   0  0  0  0  0  0  0  0  0  0  0  0
  153.7739  143.2320  159.1284 H   0  0  0  0  0  0  0  0  0  0  0  0
  152.7688  140.4248  160.0073 H   0  0  0  0  0  0  0  0  0  0  0  0
  154.5047  140.9256  159.6641 H   0  0  0  0  0  0  0  0  0  0  0  0
  154.3504  142.6735  161.4747 H   0  0  0  0  0  0  0  0  0  0  0  0
  152.6149  142.1651  161.8095 H   0  0  0  0  0  0  0  0  0  0  0  0
  1  2  1  0  0  0  0
  1 20  1  0  0  0  0
  1 21  1  0  0  0  0
  1 22  1  0  0  0  0
  2  8  1  0  0  0  0
  2  3  2  0  0  0  0
  3  4  1  0  0  0  0
  4  5  1  0  0  0  0
  4  6  1  0  0  0  0
  5 23  1  0  0  0  0
  5 24  1  0  0  0  0
  5 25  1  0  0  0  0
  6  7  1  0  0  0  0
  6  8  2  0  0  0  0
  7 26  1  0  0  0  0
  7 27  1  0  0  0  0
  7 28  1  0  0  0  0
  8  9  1  0  0  0  0
  9 10  1  0  0  0  0
  9 29  1  0  0  0  0
  9 30  1  0  0  0  0
 10 11  2  0  0  0  0
 10 12  1  0  0  0  0
 12 13  1  0  0  0  0
 12 31  1  0  0  0  0
 13 14  1  0  0  0  0
 13 17  1  0  0  0  0
 13 32  1  0  0  0  0
 14 16  1  0  0  0  0
 14 15  1  0  0  0  0
 14 33  1  0  0  0  0
 15 16  1  0  0  0  0
 15 34  1  0  0  0  0
 15 35  1  0  0  0  0
 16 36  1  0  0  0  0
 16 37  1  0  0  0  0
 17 19  1  0  0  0  0
 17 18  1  0  0  0  0
 17 38  1  0  0  0  0
 18 19  1  0  0  0  0
 18 39  1  0  0  0  0
 18 40  1  0  0  0  0
 19 41  1  0  0  0  0
 19 42  1  0  0  0  0
M  END
> <s_m_source_file>
AV-unprocessed.smi

> <i_m_source_file_index>
343

> <i_lp_mmshare_version>
43012

> <i_f3d_flags>
0

> <s_epik_input>
W0NIM11jMW5uKFtDSDNdKWMoW0NIM10pYzFbQ0gyXUMoPU8pW05IXVtDSF0oW0NIXTJbQ0gyXVtDSDJdMilbQ0hdM1tDSDJdW0NIMl0z

> <s_epik_cmdline>
J2VwaWtfcHl0aG9uJywgJy1waCcsICc3LjAnLCAnLXRuJywgJzgnLCAnLW1hJywgJzIwMCcsICctbWV0YWxfYmluZGluZycsICctaW1hZScsICc8aW5maWxlLm1hZT4nLCAnLW9tYWUnLCAnPG91dGZpbGUubWFlPic=

> <r_lp_tautomer_probability>
1

> <r_epik_Ionization_Penalty>
0.00332543

> <r_epik_Ionization_Penalty_Charging>
0

> <r_epik_Ionization_Penalty_Neutral>
0.00332543

> <r_epik_State_Penalty>
0.00235125

> <r_epik_Charging_Adjusted_Penalty>
0.00235125

> <i_epik_Tot_Q>
0

> <i_epik_Tot_abs_Q>
0

> <r_epik_Metal_State_Penalty>
-0

> <b_epik_Metal_Only>
0

> <s_lp_Force_Field>
OPLS_2005

> <r_lp_Energy>
17.7033

> <b_lp_Chiralities_Consistent>
1

> <s_lp_Variant>
AV-unprocessed.smi:343-1

> <Gold.Version>
5.8.1

> <Gold.Id.Protein>
6NUR|6NUR_protein|mol2

> <Gold.PLP.Fitness>
43.3306

> <Gold.PLP.PLP>
-44.2244

> <Gold.PLP.part.hbond>
0.0000

> <Gold.PLP.part.metal>
0.0000

> <Gold.PLP.part.buried>
-1.9546

> <Gold.PLP.part.nonpolar>
-42.1992

> <Gold.PLP.part.repulsive>
0.2594

> <Gold.PLP.ligand.clash>
0.0000

> <Gold.PLP.ligand.torsion>
1.5184

> <Gold.PLP.Chemscore.Hbond>
0.0000

> <Gold.PLP.Chemscore.CHOScore>
0.0000

> <Gold.PLP.Chemscore.Metal>
0.0000

> <Gold.PLP.Chemscore.Internal.Correction>
2.1429

> <Gold.Rescore>
     Score         DG    S(hbond)    S(metal)    S(lipo)     H(rot)  DE(clash)    DE(int)     intcor
     14.30     -16.09       0.00        0.00     122.74       1.46       0.14       1.65       ----

> <Gold.Chemscore.Fitness>
14.2993

> <Gold.Chemscore.DG>
-16.0908

> <Gold.Chemscore.ZeroCoef>
-5.4800

> <Gold.Chemscore.Hbond>
0.0000

> <Gold.Chemscore.Metal>
0.0000

> <Gold.Chemscore.Lipo>
122.7444

> <Gold.Chemscore.Internal_Hbond>
0.0000

> <Gold.Chemscore.DEClash>
0.1449

> <Gold.Chemscore.DEInternal>
1.6465

> <Gold.Chemscore.Rot>
1.4650

> <Gold.Chemscore.Internal.Correction>
   9.000000E+99

> <Gold.Chemscore.Hbond.Weighted>
-0.0000

> <Gold.Chemscore.Metal.Weighted>
-0.0000

> <Gold.Chemscore.Lipo.Weighted>
-14.3611

> <Gold.Chemscore.Internal_Hbond.Weighted>
0.0000

> <Gold.Chemscore.DEClash.Weighted>
0.1449

> <Gold.Chemscore.DEInternal.Weighted>
1.6465

> <Gold.Chemscore.Rot.Weighted>
3.7503

> <Gold.Chemscore.Internal.Correction.Weighted>
   9.000000E+99

> <Gold.Protein.RotatedTorsions>
[ 6907 6896 6895 6894 ] final -106.00 input  -60.11 | X-H torsion
[ 7974 7965 7964 7962 ] final -139.02 input  175.53 | X-H torsion
[ 8008 7997 7996 7995 ] final   61.11 input   59.86 | X-H torsion
[ 10167 10162 10161 10158 ] final -156.43 input  -65.29 | X-H torsion
[ 10718 10713 10712 10709 ] final  145.32 input   66.30 | X-H torsion
[ 10763 10752 10751 10750 ] final  126.50 input  -60.55 | X-H torsion
[ 11005 11000 10999 10996 ] final   17.89 input  -57.11 | X-H torsion

> <Gold.Protein.ActiveResidues>
 VAL166  LYS551  ARG553  GLY616  TRP617  ASP618  TYR619  PRO620  LYS621  CYS622 
 ASP623  PHE694  ASN695  SER759  ASP760  ASP761  ALA762  ILE779  LEU786  VAL792 
 PHE793  MET794  SER795  GLU796  ALA797  LYS798  CYS799  TRP800  GLU811  SER814 

> <Gold.Protein.RotatedAtoms>
  150.7366  134.0041  159.3647 H   0  0  0  0  0  0  0  0  0  0  0  0  # atno 6907 bound_to 6896
  151.7997  135.0710  160.0408 H   0  0  0  0  0  0  0  0  0  0  0  0  # atno 6908 bound_to 6896
  152.3149  133.5755  159.5742 H   0  0  0  0  0  0  0  0  0  0  0  0  # atno 6909 bound_to 6896
  144.8710  140.6367  143.5267 H   0  0  0  0  0  0  0  0  0  0  0  0  # atno 7974 bound_to 7965
  155.5931  140.3493  155.4572 H   0  0  0  0  0  0  0  0  0  0  0  0  # atno 8008 bound_to 7997
  156.0286  140.1269  157.0307 H   0  0  0  0  0  0  0  0  0  0  0  0  # atno 8009 bound_to 7997
  154.4343  140.1048  156.6053 H   0  0  0  0  0  0  0  0  0  0  0  0  # atno 8010 bound_to 7997
  139.6851  143.9515  152.2357 H   0  0  0  0  0  0  0  0  0  0  0  0  # atno 10167 bound_to 10162
  157.3467  131.0944  151.1036 H   0  0  0  0  0  0  0  0  0  0  0  0  # atno 10718 bound_to 10713
  153.6943  135.3294  155.3209 H   0  0  0  0  0  0  0  0  0  0  0  0  # atno 10763 bound_to 10752
  154.8431  135.4439  154.1476 H   0  0  0  0  0  0  0  0  0  0  0  0  # atno 10764 bound_to 10752
  153.2526  135.6983  153.7740 H   0  0  0  0  0  0  0  0  0  0  0  0  # atno 10765 bound_to 10752
  140.4309  134.1421  155.7680 H   0  0  0  0  0  0  0  0  0  0  0  0  # atno 11005 bound_to 11000
  145.4130  139.1577  143.4115 LP  0  0  0  0  0  0  0  0  0  0  0  0  # atno 17320 bound_to 7965
  146.2930  140.4235  142.8732 LP  0  0  0  0  0  0  0  0  0  0  0  0  # atno 17321 bound_to 7965
  139.9315  144.6738  150.8357 LP  0  0  0  0  0  0  0  0  0  0  0  0  # atno 17342 bound_to 10162
  140.7665  143.3305  151.2420 LP  0  0  0  0  0  0  0  0  0  0  0  0  # atno 17343 bound_to 10162
  157.2227  130.6489  149.5817 LP  0  0  0  0  0  0  0  0  0  0  0  0  # atno 17370 bound_to 10713
  155.9715  130.4624  150.6144 LP  0  0  0  0  0  0  0  0  0  0  0  0  # atno 17371 bound_to 10713
  141.1746  133.8540  157.1463 LP  0  0  0  0  0  0  0  0  0  0  0  0  # atno 17394 bound_to 11000
  140.0135  134.9978  157.0445 LP  0  0  0  0  0  0  0  0  0  0  0  0  # atno 17395 bound_to 11000

$$$$
