AV-unprocessed.smi:1550|AV-procd|sdf|6229|dock1
  -GOLD-   22720 6403D 1   1.00000     0.00000
 Structure written by MMmdl.
 42 43  0  0  0  0  0  0  0  0  2 V2000
  148.3258  140.7307  154.6760 C   0  0  0  0  0  0  0  0  0  0  0  0
  149.8172  140.8954  155.0036 C   0  0  1  0  0  0  0  0  0  0  0  0
  149.9077  141.5040  156.2894 O   0  0  0  0  0  0  0  0  0  0  0  0
  151.0279  142.3603  156.4845 C   0  0  0  0  0  0  0  0  0  0  0  0
  151.3002  142.4770  157.9894 C   0  0  2  0  0  0  0  0  0  0  0  0
  152.1073  143.7449  158.3309 C   0  0  0  0  0  0  0  0  0  0  0  0
  152.4429  143.7841  159.8263 C   0  0  0  0  0  0  0  0  0  0  0  0
  153.1307  142.4773  160.2348 C   0  0  0  0  0  0  0  0  0  0  0  0
  152.2885  141.2703  159.7925 C   0  0  0  0  0  0  0  0  0  0  0  0
  152.0525  141.3329  158.3895 O   0  0  0  0  0  0  0  0  0  0  0  0
  150.5422  139.5398  155.0040 C   0  0  0  0  0  0  0  0  0  0  0  0
  151.6882  139.4663  154.5605 O   0  0  0  0  0  0  0  0  0  0  0  0
  149.8376  138.5075  155.5071 N   0  0  0  0  0  0  0  0  0  0  0  0
  150.1820  137.1475  155.5754 C   0  0  0  0  0  0  0  0  0  0  0  0
  149.3669  136.1249  155.1953 C   0  0  0  0  0  0  0  0  0  0  0  0
  149.7658  134.7276  155.3117 C   0  0  0  0  0  0  0  0  0  0  0  0
  148.8974  133.5519  154.9030 C   0  0  0  0  0  0  0  0  0  0  0  0
  147.7301  133.5966  155.5442 F   0  0  0  0  0  0  0  0  0  0  0  0
  148.6504  133.5946  153.5941 F   0  0  0  0  0  0  0  0  0  0  0  0
  149.4871  132.3894  155.1824 F   0  0  0  0  0  0  0  0  0  0  0  0
  151.0280  134.5846  155.8524 C   0  0  0  0  0  0  0  0  0  0  0  0
  151.8919  135.5395  156.2616 N   0  5  0  0  0  0  0  0  0  0  0  0
  151.5107  136.8431  156.1460 C   0  0  0  0  0  0  0  0  0  0  0  0
  152.2455  137.7639  156.5052 O   0  0  0  0  0  0  0  0  0  0  0  0
  148.1838  140.2556  153.7048 H   0  0  0  0  0  0  0  0  0  0  0  0
  147.8285  141.7002  154.6436 H   0  0  0  0  0  0  0  0  0  0  0  0
  147.8143  140.1244  155.4248 H   0  0  0  0  0  0  0  0  0  0  0  0
  150.2619  141.5578  154.2580 H   0  0  0  0  0  0  0  0  0  0  0  0
  151.9193  141.9939  155.9739 H   0  0  0  0  0  0  0  0  0  0  0  0
  150.7957  143.3431  156.0715 H   0  0  0  0  0  0  0  0  0  0  0  0
  150.3482  142.4979  158.5229 H   0  0  0  0  0  0  0  0  0  0  0  0
  153.0308  143.7598  157.7504 H   0  0  0  0  0  0  0  0  0  0  0  0
  151.5480  144.6382  158.0512 H   0  0  0  0  0  0  0  0  0  0  0  0
  153.0823  144.6380  160.0517 H   0  0  0  0  0  0  0  0  0  0  0  0
  151.5278  143.9152  160.4049 H   0  0  0  0  0  0  0  0  0  0  0  0
  154.1165  142.4215  159.7713 H   0  0  0  0  0  0  0  0  0  0  0  0
  153.2889  142.4542  161.3133 H   0  0  0  0  0  0  0  0  0  0  0  0
  152.8149  140.3429  160.0194 H   0  0  0  0  0  0  0  0  0  0  0  0
  151.3400  141.2376  160.3307 H   0  0  0  0  0  0  0  0  0  0  0  0
  148.9450  138.7325  155.9219 H   0  0  0  0  0  0  0  0  0  0  0  0
  148.3784  136.3243  154.8147 H   0  0  0  0  0  0  0  0  0  0  0  0
  151.3963  133.5438  155.9765 H   0  0  0  0  0  0  0  0  0  0  0  0
  1  2  1  0  0  0  0
  1 25  1  0  0  0  0
  1 26  1  0  0  0  0
  1 27  1  0  0  0  0
  2  3  1  0  0  0  0
  2 11  1  0  0  0  0
  2 28  1  0  0  0  0
  3  4  1  0  0  0  0
  4  5  1  0  0  0  0
  4 29  1  0  0  0  0
  4 30  1  0  0  0  0
  5 10  1  0  0  0  0
  5  6  1  0  0  0  0
  5 31  1  0  0  0  0
  6  7  1  0  0  0  0
  6 32  1  0  0  0  0
  6 33  1  0  0  0  0
  7  8  1  0  0  0  0
  7 34  1  0  0  0  0
  7 35  1  0  0  0  0
  8  9  1  0  0  0  0
  8 36  1  0  0  0  0
  8 37  1  0  0  0  0
  9 10  1  0  0  0  0
  9 38  1  0  0  0  0
  9 39  1  0  0  0  0
 11 12  2  0  0  0  0
 11 13  1  0  0  0  0
 13 14  1  0  0  0  0
 13 40  1  0  0  0  0
 14 23  1  0  0  0  0
 14 15  2  0  0  0  0
 15 16  1  0  0  0  0
 15 41  1  0  0  0  0
 16 17  1  0  0  0  0
 16 21  2  0  0  0  0
 17 18  1  0  0  0  0
 17 19  1  0  0  0  0
 17 20  1  0  0  0  0
 21 22  1  0  0  0  0
 21 42  1  0  0  0  0
 22 23  1  0  0  0  0
 23 24  2  0  0  0  0
M  CHG  1  22  -1
M  END
> <s_m_source_file>
AV-unprocessed.smi

> <i_m_source_file_index>
1550

> <i_lp_mmshare_version>
43012

> <i_f3d_flags>
0

> <s_epik_input>
TzFbQ0gyXVtDSDJdW0NIMl1bQ0gyXVtDQEhdMVtDSDJdT1tDQEBIXShbQ0gzXSlDKD1PKVtOSF1jMltjSF1jKEMoRikoRilGKVtjSF1bbkhdYzI9Tw==

> <s_epik_cmdline>
J2VwaWtfcHl0aG9uJywgJy1waCcsICc3LjAnLCAnLXRuJywgJzgnLCAnLW1hJywgJzIwMCcsICctbWV0YWxfYmluZGluZycsICctaW1hZScsICc8aW5maWxlLm1hZT4nLCAnLW9tYWUnLCAnPG91dGZpbGUubWFlPic=

> <r_epik_Ionization_Penalty>
2.54933

> <r_epik_Ionization_Penalty_Charging>
0.0583423

> <r_epik_Ionization_Penalty_Neutral>
2.49099

> <r_epik_State_Penalty>
2.65532

> <r_epik_Charging_Adjusted_Penalty>
2.71366

> <i_epik_Tot_Q>
-1

> <i_epik_Tot_abs_Q>
1

> <r_epik_Metal_State_Penalty>
0.516364

> <b_epik_Metal_Only>
0

> <s_lp_Force_Field>
OPLS_2005

> <r_lp_Energy>
27.7266

> <b_lp_Chiralities_Consistent>
1

> <s_lp_Variant>
AV-unprocessed.smi:1550-6

> <Gold.Version>
5.8.1

> <Gold.Id.Protein>
6NUR|6NUR_protein|mol2

> <Gold.PLP.Fitness>
46.8775

> <Gold.PLP.PLP>
-41.1444

> <Gold.PLP.part.hbond>
-2.0000

> <Gold.PLP.part.metal>
0.0000

> <Gold.PLP.part.buried>
-2.9106

> <Gold.PLP.part.nonpolar>
-35.5551

> <Gold.PLP.part.repulsive>
0.1887

> <Gold.PLP.ligand.clash>
0.0000

> <Gold.PLP.ligand.torsion>
1.8059

> <Gold.PLP.Chemscore.Hbond>
3.0000

> <Gold.PLP.Chemscore.CHOScore>
0.0000

> <Gold.PLP.Chemscore.Metal>
0.0000

> <Gold.Chemscore.Hbonds>
donor molecule, donor type, donor heavy atom, donor atom, acceptor molecule, acceptor atom, score
      P1  H  7989  7998       L1    12  0.95
      P1  H 10752 10763       L1    22  2.00

> <Gold.PLP.Chemscore.Internal.Correction>
0.3449

> <Gold.Rescore>
     Score         DG    S(hbond)    S(metal)    S(lipo)     H(rot)  DE(clash)    DE(int)     intcor
     13.73     -17.92       1.84        0.00      93.63       1.82       0.02       4.17       ----

> <Gold.Chemscore.Fitness>
13.7267

> <Gold.Chemscore.DG>
-17.9171

> <Gold.Chemscore.ZeroCoef>
-5.4800

> <Gold.Chemscore.Hbond>
1.8415

> <Gold.Chemscore.Metal>
0.0000

> <Gold.Chemscore.Lipo>
93.6329

> <Gold.Chemscore.Internal_Hbond>
0.0000

> <Gold.Chemscore.DEClash>
0.0201

> <Gold.Chemscore.DEInternal>
4.1703

> <Gold.Chemscore.Rot>
1.8236

> <Gold.Chemscore.Internal.Correction>
   9.000000E+99

> <Gold.Chemscore.Hbonds>
donor molecule, donor type, donor heavy atom, donor atom, acceptor molecule, acceptor atom, score
      P1  H  7989  7998       L1    12  0.21
      P1  H 10752 10763       L1    22  0.14

> <Gold.Chemscore.Hbond.Weighted>
-6.1505

> <Gold.Chemscore.Metal.Weighted>
-0.0000

> <Gold.Chemscore.Lipo.Weighted>
-10.9551

> <Gold.Chemscore.Internal_Hbond.Weighted>
0.0000

> <Gold.Chemscore.DEClash.Weighted>
0.0201

> <Gold.Chemscore.DEInternal.Weighted>
4.1703

> <Gold.Chemscore.Rot.Weighted>
4.6684

> <Gold.Chemscore.Internal.Correction.Weighted>
   9.000000E+99

> <Gold.Protein.RotatedTorsions>
[ 6907 6896 6895 6894 ] final -101.83 input  -60.11 | X-H torsion
[ 7974 7965 7964 7962 ] final   83.38 input  175.53 | X-H torsion
[ 8008 7997 7996 7995 ] final   71.91 input   59.86 | X-H torsion
[ 10167 10162 10161 10158 ] final -170.70 input  -65.29 | X-H torsion
[ 10718 10713 10712 10709 ] final   72.21 input   66.30 | X-H torsion
[ 10763 10752 10751 10750 ] final   91.65 input  -60.55 | X-H torsion
[ 11005 11000 10999 10996 ] final  143.74 input  -57.11 | X-H torsion

> <Gold.Protein.ActiveResidues>
 VAL166  LYS551  ARG553  GLY616  TRP617  ASP618  TYR619  PRO620  LYS621  CYS622 
 ASP623  PHE694  ASN695  SER759  ASP760  ASP761  ALA762  ILE779  LEU786  VAL792 
 PHE793  MET794  SER795  GLU796  ALA797  LYS798  CYS799  TRP800  GLU811  SER814 

> <Gold.Protein.RotatedAtoms>
  150.7171  134.0674  159.3852 H   0  0  0  0  0  0  0  0  0  0  0  0  # atno 6907 bound_to 6896
  151.8655  135.0506  160.0483 H   0  0  0  0  0  0  0  0  0  0  0  0  # atno 6908 bound_to 6896
  152.2684  133.5324  159.5460 H   0  0  0  0  0  0  0  0  0  0  0  0  # atno 6909 bound_to 6896
  145.6127  139.2371  143.2183 H   0  0  0  0  0  0  0  0  0  0  0  0  # atno 7974 bound_to 7965
  155.7610  140.3486  155.5198 H   0  0  0  0  0  0  0  0  0  0  0  0  # atno 8008 bound_to 7997
  155.8914  140.1018  157.1437 H   0  0  0  0  0  0  0  0  0  0  0  0  # atno 8009 bound_to 7997
  154.4034  140.1303  156.4307 H   0  0  0  0  0  0  0  0  0  0  0  0  # atno 8010 bound_to 7997
  139.5846  144.1347  152.1559 H   0  0  0  0  0  0  0  0  0  0  0  0  # atno 10167 bound_to 10162
  157.6489  130.9567  150.0896 H   0  0  0  0  0  0  0  0  0  0  0  0  # atno 10718 bound_to 10713
  153.2106  135.4390  155.0375 H   0  0  0  0  0  0  0  0  0  0  0  0  # atno 10763 bound_to 10752
  154.8198  135.3332  154.7075 H   0  0  0  0  0  0  0  0  0  0  0  0  # atno 10764 bound_to 10752
  153.7513  135.6998  153.5001 H   0  0  0  0  0  0  0  0  0  0  0  0  # atno 10765 bound_to 10752
  140.0578  134.9221  157.1131 H   0  0  0  0  0  0  0  0  0  0  0  0  # atno 11005 bound_to 11000
  146.1492  140.6950  142.9330 LP  0  0  0  0  0  0  0  0  0  0  0  0  # atno 17320 bound_to 7965
  144.7263  140.4535  143.6971 LP  0  0  0  0  0  0  0  0  0  0  0  0  # atno 17321 bound_to 7965
  140.0908  144.5622  150.7056 LP  0  0  0  0  0  0  0  0  0  0  0  0  # atno 17342 bound_to 10162
  140.7119  143.2512  151.4553 LP  0  0  0  0  0  0  0  0  0  0  0  0  # atno 17343 bound_to 10162
  156.1849  130.3652  149.8986 LP  0  0  0  0  0  0  0  0  0  0  0  0  # atno 17370 bound_to 10713
  156.6929  130.8903  151.3590 LP  0  0  0  0  0  0  0  0  0  0  0  0  # atno 17371 bound_to 10713
  140.3817  134.2280  155.7170 LP  0  0  0  0  0  0  0  0  0  0  0  0  # atno 17394 bound_to 11000
  141.1960  133.8093  157.0692 LP  0  0  0  0  0  0  0  0  0  0  0  0  # atno 17395 bound_to 11000

$$$$
