AV-unprocessed.smi:683|AV-procd|sdf|3330|dock9
  -GOLD-   22720 0303D 1   1.00000     0.00000
 Structure written by MMmdl.
 30 31  0  0  0  0  0  0  0  0  1 V2000
  153.9047  136.2838  159.8893 N   0  0  0  0  0  0  0  0  0  0  0  0
  153.7425  137.4253  159.9865 C   0  0  0  0  0  0  0  0  0  0  0  0
  153.5382  138.8590  160.1087 C   0  0  0  0  0  0  0  0  0  0  0  0
  154.2018  139.5812  161.1204 C   0  0  0  0  0  0  0  0  0  0  0  0
  154.0014  140.9689  161.2370 C   0  0  0  0  0  0  0  0  0  0  0  0
  153.1395  141.6335  160.3441 C   0  0  0  0  0  0  0  0  0  0  0  0
  152.4681  140.9256  159.3260 C   0  0  0  0  0  0  0  0  0  0  0  0
  151.6435  141.6560  158.4972 O   0  0  0  0  0  0  0  0  0  0  0  0
  150.8447  140.9546  157.5546 C   0  0  0  0  0  0  0  0  0  0  0  0
  150.6956  141.8255  156.2977 C   0  0  0  0  0  0  0  0  0  0  0  0
  149.6865  141.3349  155.3923 N   0  0  0  0  0  0  0  0  0  0  0  0
  148.3968  141.8430  155.3686 C   0  0  0  0  0  0  0  0  0  0  0  0
  147.4328  141.3827  154.5349 C   0  0  0  0  0  0  0  0  0  0  0  0
  145.8471  142.0673  154.5653 Cl  0  0  0  0  0  0  0  0  0  0  0  0
  147.7295  140.2960  153.6021 C   0  0  0  0  0  0  0  0  0  0  0  0
  146.9337  139.8061  152.8032 O   0  0  0  0  0  0  0  0  0  0  0  0
  149.0387  139.8096  153.6673 N   0  0  0  0  0  0  0  0  0  0  0  0
  150.0365  140.2753  154.5241 C   0  0  0  0  0  0  0  0  0  0  0  0
  151.1554  139.7624  154.4998 O   0  0  0  0  0  0  0  0  0  0  0  0
  152.6751  139.5269  159.2151 C   0  0  0  0  0  0  0  0  0  0  0  0
  149.2822  139.0556  153.0414 H   0  0  0  0  0  0  0  0  0  0  0  0
  154.8650  139.0777  161.8094 H   0  0  0  0  0  0  0  0  0  0  0  0
  154.5090  141.5245  162.0117 H   0  0  0  0  0  0  0  0  0  0  0  0
  152.9927  142.6993  160.4409 H   0  0  0  0  0  0  0  0  0  0  0  0
  151.3157  140.0037  157.3011 H   0  0  0  0  0  0  0  0  0  0  0  0
  149.8598  140.7466  157.9762 H   0  0  0  0  0  0  0  0  0  0  0  0
  150.3986  142.8407  156.5654 H   0  0  0  0  0  0  0  0  0  0  0  0
  151.6287  141.9172  155.7375 H   0  0  0  0  0  0  0  0  0  0  0  0
  148.1417  142.6440  156.0480 H   0  0  0  0  0  0  0  0  0  0  0  0
  152.1793  138.9482  158.4497 H   0  0  0  0  0  0  0  0  0  0  0  0
  1  2  3  0  0  0  0
  2  3  1  0  0  0  0
  3 20  1  0  0  0  0
  3  4  2  0  0  0  0
  4  5  1  0  0  0  0
  4 22  1  0  0  0  0
  5  6  2  0  0  0  0
  5 23  1  0  0  0  0
  6  7  1  0  0  0  0
  6 24  1  0  0  0  0
  7  8  1  0  0  0  0
  7 20  2  0  0  0  0
  8  9  1  0  0  0  0
  9 10  1  0  0  0  0
  9 25  1  0  0  0  0
  9 26  1  0  0  0  0
 10 11  1  0  0  0  0
 10 27  1  0  0  0  0
 10 28  1  0  0  0  0
 11 18  1  0  0  0  0
 11 12  1  0  0  0  0
 12 13  2  0  0  0  0
 12 29  1  0  0  0  0
 13 14  1  0  0  0  0
 13 15  1  0  0  0  0
 15 16  2  0  0  0  0
 15 17  1  0  0  0  0
 17 21  1  0  0  0  0
 17 18  1  0  0  0  0
 18 19  2  0  0  0  0
 20 30  1  0  0  0  0
M  END
> <s_m_source_file>
AV-unprocessed.smi

> <i_m_source_file_index>
683

> <i_lp_mmshare_version>
43012

> <i_f3d_flags>
0

> <s_epik_input>
TiNDYzFbY0hdW2NIXVtjSF1jKFtjSF0xKU9bQ0gyXVtDSDJdbjJbY0hdYyhDbCljKD1PKVtuSF1jMj1P

> <s_epik_cmdline>
J2VwaWtfcHl0aG9uJywgJy1waCcsICc3LjAnLCAnLXRuJywgJzgnLCAnLW1hJywgJzIwMCcsICctbWV0YWxfYmluZGluZycsICctaW1hZScsICc8aW5maWxlLm1hZT4nLCAnLW9tYWUnLCAnPG91dGZpbGUubWFlPic=

> <r_lp_tautomer_probability>
0.999537

> <r_epik_Ionization_Penalty>
0.0498777

> <r_epik_Ionization_Penalty_Charging>
0.0498777

> <r_epik_Ionization_Penalty_Neutral>
0

> <r_epik_State_Penalty>
0.042632

> <r_epik_Charging_Adjusted_Penalty>
0.0925097

> <i_epik_Tot_Q>
0

> <i_epik_Tot_abs_Q>
0

> <r_epik_Metal_State_Penalty>
2.56282

> <b_epik_Metal_Only>
0

> <s_lp_Force_Field>
OPLS_2005

> <r_lp_Energy>
12.7666

> <b_lp_Chiralities_Consistent>
1

> <s_lp_Variant>
AV-unprocessed.smi:683-1

> <Gold.Version>
5.8.1

> <Gold.Id.Protein>
6NUR|6NUR_protein|mol2

> <Gold.PLP.Fitness>
43.8455

> <Gold.PLP.PLP>
-37.7495

> <Gold.PLP.part.hbond>
-3.0000

> <Gold.PLP.part.metal>
0.0000

> <Gold.PLP.part.buried>
-2.6391

> <Gold.PLP.part.nonpolar>
-33.4726

> <Gold.PLP.part.repulsive>
0.4765

> <Gold.PLP.ligand.clash>
0.0000

> <Gold.PLP.ligand.torsion>
0.6038

> <Gold.PLP.Chemscore.Hbond>
1.4500

> <Gold.PLP.Chemscore.CHOScore>
0.9777

> <Gold.PLP.Chemscore.Metal>
0.0000

> <Gold.Chemscore.Hbonds>
donor molecule, donor type, donor heavy atom, donor atom, acceptor molecule, acceptor atom, score
      L1  H    17    21       P1  7957  0.07
      P1  H  6896  6907       L1     1  0.70
      P1  H  7989  7998       L1    19  0.50
      L1  C    12    29       P1  8028  0.81

> <Gold.PLP.Chemscore.Internal.Correction>
0.0207

> <Gold.Rescore>
     Score         DG    S(hbond)    S(metal)    S(lipo)     H(rot)  DE(clash)    DE(int)     intcor
     14.31     -15.27       1.88        0.00      74.33       2.03       0.22       0.74       ----

> <Gold.Chemscore.Fitness>
14.3113

> <Gold.Chemscore.DG>
-15.2734

> <Gold.Chemscore.ZeroCoef>
-5.4800

> <Gold.Chemscore.Hbond>
1.8812

> <Gold.Chemscore.Metal>
0.0000

> <Gold.Chemscore.Lipo>
74.3277

> <Gold.Chemscore.Internal_Hbond>
0.0000

> <Gold.Chemscore.DEClash>
0.2234

> <Gold.Chemscore.DEInternal>
0.7387

> <Gold.Chemscore.Rot>
2.0258

> <Gold.Chemscore.Internal.Correction>
   9.000000E+99

> <Gold.Chemscore.Hbonds>
donor molecule, donor type, donor heavy atom, donor atom, acceptor molecule, acceptor atom, score
      L1  H    17    21       P1  7957  0.09
      P1  H  6896  6907       L1     1  0.69
      P1  H  7989  7998       L1    19  0.02

> <Gold.Chemscore.Hbond.Weighted>
-6.2831

> <Gold.Chemscore.Metal.Weighted>
-0.0000

> <Gold.Chemscore.Lipo.Weighted>
-8.6963

> <Gold.Chemscore.Internal_Hbond.Weighted>
0.0000

> <Gold.Chemscore.DEClash.Weighted>
0.2234

> <Gold.Chemscore.DEInternal.Weighted>
0.7387

> <Gold.Chemscore.Rot.Weighted>
5.1860

> <Gold.Chemscore.Internal.Correction.Weighted>
   9.000000E+99

> <Gold.Protein.RotatedTorsions>
[ 6907 6896 6895 6894 ] final   54.51 input  -60.11 | X-H torsion
[ 7974 7965 7964 7962 ] final -175.41 input  175.53 | X-H torsion
[ 8008 7997 7996 7995 ] final  -72.80 input   59.86 | X-H torsion
[ 10167 10162 10161 10158 ] final  -91.70 input  -65.29 | X-H torsion
[ 10718 10713 10712 10709 ] final -109.92 input   66.30 | X-H torsion
[ 10763 10752 10751 10750 ] final  -53.73 input  -60.55 | X-H torsion
[ 11005 11000 10999 10996 ] final -148.39 input  -57.11 | X-H torsion

> <Gold.Protein.ActiveResidues>
 VAL166  LYS551  ARG553  GLY616  TRP617  ASP618  TYR619  PRO620  LYS621  CYS622 
 ASP623  PHE694  ASN695  SER759  ASP760  ASP761  ALA762  ILE779  LEU786  VAL792 
 PHE793  MET794  SER795  GLU796  ALA797  LYS798  CYS799  TRP800  GLU811  SER814 

> <Gold.Protein.RotatedAtoms>
  152.3446  134.7088  160.0253 H   0  0  0  0  0  0  0  0  0  0  0  0  # atno 6907 bound_to 6896
  151.7461  133.3319  159.3387 H   0  0  0  0  0  0  0  0  0  0  0  0  # atno 6908 bound_to 6896
  150.7501  134.6167  159.6159 H   0  0  0  0  0  0  0  0  0  0  0  0  # atno 6909 bound_to 6896
  144.7128  140.1325  143.6397 H   0  0  0  0  0  0  0  0  0  0  0  0  # atno 7974 bound_to 7965
  154.5195  140.0790  156.8145 H   0  0  0  0  0  0  0  0  0  0  0  0  # atno 8008 bound_to 7997
  155.3607  140.3417  155.4222 H   0  0  0  0  0  0  0  0  0  0  0  0  # atno 8009 bound_to 7997
  156.1665  140.1605  156.8509 H   0  0  0  0  0  0  0  0  0  0  0  0  # atno 8010 bound_to 7997
  140.3422  143.2936  151.9822 H   0  0  0  0  0  0  0  0  0  0  0  0  # atno 10167 bound_to 10162
  156.0563  130.5788  150.8166 H   0  0  0  0  0  0  0  0  0  0  0  0  # atno 10718 bound_to 10713
  154.1635  135.6471  153.4992 H   0  0  0  0  0  0  0  0  0  0  0  0  # atno 10763 bound_to 10752
  153.0104  135.5366  154.6686 H   0  0  0  0  0  0  0  0  0  0  0  0  # atno 10764 bound_to 10752
  154.6006  135.2943  155.0511 H   0  0  0  0  0  0  0  0  0  0  0  0  # atno 10765 bound_to 10752
  140.7617  134.3290  157.5100 H   0  0  0  0  0  0  0  0  0  0  0  0  # atno 11005 bound_to 11000
  145.9274  139.2584  143.1345 LP  0  0  0  0  0  0  0  0  0  0  0  0  # atno 17320 bound_to 7965
  145.9558  140.8874  143.0236 LP  0  0  0  0  0  0  0  0  0  0  0  0  # atno 17321 bound_to 7965
  139.4839  144.6147  151.7368 LP  0  0  0  0  0  0  0  0  0  0  0  0  # atno 17342 bound_to 10162
  140.5298  144.0748  150.6050 LP  0  0  0  0  0  0  0  0  0  0  0  0  # atno 17343 bound_to 10162
  157.5535  131.0944  150.9662 LP  0  0  0  0  0  0  0  0  0  0  0  0  # atno 17370 bound_to 10713
  156.9916  130.5565  149.5304 LP  0  0  0  0  0  0  0  0  0  0  0  0  # atno 17371 bound_to 10713
  139.8770  134.9206  156.3255 LP  0  0  0  0  0  0  0  0  0  0  0  0  # atno 17394 bound_to 11000
  140.9657  133.7360  156.0463 LP  0  0  0  0  0  0  0  0  0  0  0  0  # atno 17395 bound_to 11000

$$$$
