AV-unprocessed.smi:455|AV-procd|sdf|2614|dock5
  -GOLD-   2262023 13D 1   1.00000     0.00000
 Structure written by MMmdl.
 46 47  0  0  0  0  0  0  0  0  1 V2000
  149.4122  133.3765  153.3649 C   0  0  0  0  0  0  0  0  0  0  0  0
  149.4625  133.4500  154.9060 C   0  0  0  0  0  0  0  0  0  0  0  0
  148.3750  132.5123  155.4661 C   0  0  0  0  0  0  0  0  0  0  0  0
  150.8369  132.9477  155.3956 C   0  0  0  0  0  0  0  0  0  0  0  0
  149.1711  134.8861  155.4297 C   0  0  0  0  0  0  0  0  0  0  0  0
  150.3409  135.8813  155.3844 C   0  0  0  0  0  0  0  0  0  0  0  0
  151.1683  135.9142  156.2948 O   0  0  0  0  0  0  0  0  0  0  0  0
  150.4125  136.6658  154.2971 N   0  0  0  0  0  0  0  0  0  0  0  0
  151.4652  137.6374  154.0130 C   0  0  0  0  0  0  0  0  0  0  0  0
  151.6050  138.7259  155.0662 C   0  0  0  0  0  0  0  0  0  0  0  0
  150.6590  139.7669  155.1397 C   0  0  0  0  0  0  0  0  0  0  0  0
  150.8151  140.7681  156.1167 C   0  0  0  0  0  0  0  0  0  0  0  0
  151.9223  140.7085  156.9958 C   0  0  0  0  0  0  0  0  0  0  0  0
  152.0988  141.7029  157.9825 N   0  0  0  0  0  0  0  0  0  0  0  0
  152.2397  141.2173  159.3531 C   0  0  0  0  0  0  0  0  0  0  0  0
  152.7335  142.3465  160.2736 C   0  0  0  0  0  0  0  0  0  0  0  0
  151.8614  143.4670  160.1721 O   0  0  0  0  0  0  0  0  0  0  0  0
  151.8267  143.9926  158.8493 C   0  0  0  0  0  0  0  0  0  0  0  0
  151.2990  142.9220  157.8792 C   0  0  0  0  0  0  0  0  0  0  0  0
  152.8328  139.7063  156.9209 N   0  0  0  0  0  0  0  0  0  0  0  0
  152.6794  138.7502  155.9806 C   0  0  0  0  0  0  0  0  0  0  0  0
  149.4877  132.3457  153.0169 H   0  0  0  0  0  0  0  0  0  0  0  0
  150.2310  133.9251  152.8999 H   0  0  0  0  0  0  0  0  0  0  0  0
  148.4774  133.7838  152.9780 H   0  0  0  0  0  0  0  0  0  0  0  0
  147.3798  132.8201  155.1430 H   0  0  0  0  0  0  0  0  0  0  0  0
  148.3782  132.5048  156.5566 H   0  0  0  0  0  0  0  0  0  0  0  0
  148.5225  131.4840  155.1334 H   0  0  0  0  0  0  0  0  0  0  0  0
  151.0025  131.9083  155.1097 H   0  0  0  0  0  0  0  0  0  0  0  0
  150.9177  133.0064  156.4814 H   0  0  0  0  0  0  0  0  0  0  0  0
  151.6558  133.5286  154.9723 H   0  0  0  0  0  0  0  0  0  0  0  0
  148.3519  135.3226  154.8570 H   0  0  0  0  0  0  0  0  0  0  0  0
  148.8065  134.8269  156.4570 H   0  0  0  0  0  0  0  0  0  0  0  0
  149.6904  136.5663  153.5983 H   0  0  0  0  0  0  0  0  0  0  0  0
  152.4322  137.1479  153.8866 H   0  0  0  0  0  0  0  0  0  0  0  0
  151.2322  138.0974  153.0522 H   0  0  0  0  0  0  0  0  0  0  0  0
  149.8192  139.7991  154.4612 H   0  0  0  0  0  0  0  0  0  0  0  0
  150.0808  141.5565  156.1884 H   0  0  0  0  0  0  0  0  0  0  0  0
  151.2711  140.8531  159.6975 H   0  0  0  0  0  0  0  0  0  0  0  0
  152.9332  140.3800  159.4174 H   0  0  0  0  0  0  0  0  0  0  0  0
  152.7530  142.0047  161.3084 H   0  0  0  0  0  0  0  0  0  0  0  0
  153.7527  142.6402  160.0163 H   0  0  0  0  0  0  0  0  0  0  0  0
  151.1776  144.8680  158.8314 H   0  0  0  0  0  0  0  0  0  0  0  0
  152.8220  144.3282  158.5537 H   0  0  0  0  0  0  0  0  0  0  0  0
  151.3320  143.3099  156.8603 H   0  0  0  0  0  0  0  0  0  0  0  0
  150.2577  142.6916  158.1085 H   0  0  0  0  0  0  0  0  0  0  0  0
  153.4445  137.9895  155.9583 H   0  0  0  0  0  0  0  0  0  0  0  0
  1  2  1  0  0  0  0
  1 22  1  0  0  0  0
  1 23  1  0  0  0  0
  1 24  1  0  0  0  0
  2  3  1  0  0  0  0
  2  4  1  0  0  0  0
  2  5  1  0  0  0  0
  3 25  1  0  0  0  0
  3 26  1  0  0  0  0
  3 27  1  0  0  0  0
  4 28  1  0  0  0  0
  4 29  1  0  0  0  0
  4 30  1  0  0  0  0
  5  6  1  0  0  0  0
  5 31  1  0  0  0  0
  5 32  1  0  0  0  0
  6  7  2  0  0  0  0
  6  8  1  0  0  0  0
  8  9  1  0  0  0  0
  8 33  1  0  0  0  0
  9 10  1  0  0  0  0
  9 34  1  0  0  0  0
  9 35  1  0  0  0  0
 10 21  1  0  0  0  0
 10 11  2  0  0  0  0
 11 12  1  0  0  0  0
 11 36  1  0  0  0  0
 12 13  2  0  0  0  0
 12 37  1  0  0  0  0
 13 14  1  0  0  0  0
 13 20  1  0  0  0  0
 14 19  1  0  0  0  0
 14 15  1  0  0  0  0
 15 16  1  0  0  0  0
 15 38  1  0  0  0  0
 15 39  1  0  0  0  0
 16 17  1  0  0  0  0
 16 40  1  0  0  0  0
 16 41  1  0  0  0  0
 17 18  1  0  0  0  0
 18 19  1  0  0  0  0
 18 42  1  0  0  0  0
 18 43  1  0  0  0  0
 19 44  1  0  0  0  0
 19 45  1  0  0  0  0
 20 21  2  0  0  0  0
 21 46  1  0  0  0  0
M  END
> <s_m_source_file>
AV-unprocessed.smi

> <i_m_source_file_index>
455

> <i_lp_mmshare_version>
43012

> <i_f3d_flags>
0

> <s_epik_input>
W0NIM11DKFtDSDNdKShbQ0gzXSlbQ0gyXUMoPU8pW05IXVtDSDJdYzFbY0hdW2NIXWMobltjSF0xKU4yW0NIMl1bQ0gyXU9bQ0gyXVtDSDJdMg==

> <s_epik_cmdline>
J2VwaWtfcHl0aG9uJywgJy1waCcsICc3LjAnLCAnLXRuJywgJzgnLCAnLW1hJywgJzIwMCcsICctbWV0YWxfYmluZGluZycsICctaW1hZScsICc8aW5maWxlLm1hZT4nLCAnLW9tYWUnLCAnPG91dGZpbGUubWFlPic=

> <r_lp_tautomer_probability>
1

> <r_epik_Ionization_Penalty>
0.00557649

> <r_epik_Ionization_Penalty_Charging>
0

> <r_epik_Ionization_Penalty_Neutral>
0.00557649

> <r_epik_State_Penalty>
0.00408419

> <r_epik_Charging_Adjusted_Penalty>
0.00408419

> <i_epik_Tot_Q>
0

> <i_epik_Tot_abs_Q>
0

> <r_epik_Metal_State_Penalty>
-0

> <b_epik_Metal_Only>
0

> <s_lp_Force_Field>
OPLS_2005

> <r_lp_Energy>
18.1118

> <b_lp_Chiralities_Consistent>
1

> <s_lp_Variant>
AV-unprocessed.smi:455-1

> <Gold.Version>
5.8.1

> <Gold.Id.Protein>
6NUR|6NUR_protein|mol2

> <Gold.PLP.Fitness>
43.4229

> <Gold.PLP.PLP>
-38.9997

> <Gold.PLP.part.hbond>
-2.7621

> <Gold.PLP.part.metal>
0.0000

> <Gold.PLP.part.buried>
-2.5941

> <Gold.PLP.part.nonpolar>
-33.8106

> <Gold.PLP.part.repulsive>
0.1051

> <Gold.PLP.ligand.clash>
0.0000

> <Gold.PLP.ligand.torsion>
0.9618

> <Gold.PLP.Chemscore.Hbond>
2.0000

> <Gold.PLP.Chemscore.CHOScore>
0.0000

> <Gold.PLP.Chemscore.Metal>
0.0000

> <Gold.Chemscore.Hbonds>
donor molecule, donor type, donor heavy atom, donor atom, acceptor molecule, acceptor atom, score
      L1  H     8    33       P1  7948  1.00
      P1  H  7997  8009       L1    20  1.00

> <Gold.PLP.Chemscore.Internal.Correction>
0.3468

> <Gold.Rescore>
     Score         DG    S(hbond)    S(metal)    S(lipo)     H(rot)  DE(clash)    DE(int)     intcor
     16.51     -17.66       1.43        0.00      98.50       1.62       0.18       0.97       ----

> <Gold.Chemscore.Fitness>
16.5098

> <Gold.Chemscore.DG>
-17.6553

> <Gold.Chemscore.ZeroCoef>
-5.4800

> <Gold.Chemscore.Hbond>
1.4338

> <Gold.Chemscore.Metal>
0.0000

> <Gold.Chemscore.Lipo>
98.5007

> <Gold.Chemscore.Internal_Hbond>
0.0000

> <Gold.Chemscore.DEClash>
0.1766

> <Gold.Chemscore.DEInternal>
0.9689

> <Gold.Chemscore.Rot>
1.6164

> <Gold.Chemscore.Internal.Correction>
   9.000000E+99

> <Gold.Chemscore.Hbonds>
donor molecule, donor type, donor heavy atom, donor atom, acceptor molecule, acceptor atom, score
      L1  H     8    33       P1  7948  0.49
      P1  H  7997  8009       L1    20  0.29

> <Gold.Chemscore.Hbond.Weighted>
-4.7888

> <Gold.Chemscore.Metal.Weighted>
-0.0000

> <Gold.Chemscore.Lipo.Weighted>
-11.5246

> <Gold.Chemscore.Internal_Hbond.Weighted>
0.0000

> <Gold.Chemscore.DEClash.Weighted>
0.1766

> <Gold.Chemscore.DEInternal.Weighted>
0.9689

> <Gold.Chemscore.Rot.Weighted>
4.1381

> <Gold.Chemscore.Internal.Correction.Weighted>
   9.000000E+99

> <Gold.Protein.RotatedTorsions>
[ 6907 6896 6895 6894 ] final  -17.18 input  -60.11 | X-H torsion
[ 7974 7965 7964 7962 ] final   -7.95 input  175.53 | X-H torsion
[ 8008 7997 7996 7995 ] final  172.19 input   59.86 | X-H torsion
[ 10167 10162 10161 10158 ] final  108.50 input  -65.29 | X-H torsion
[ 10718 10713 10712 10709 ] final  143.79 input   66.30 | X-H torsion
[ 10763 10752 10751 10750 ] final  145.18 input  -60.55 | X-H torsion
[ 11005 11000 10999 10996 ] final  148.01 input  -57.11 | X-H torsion

> <Gold.Protein.ActiveResidues>
 VAL166  LYS551  ARG553  GLY616  TRP617  ASP618  TYR619  PRO620  LYS621  CYS622 
 ASP623  PHE694  ASN695  SER759  ASP760  ASP761  ALA762  ILE779  LEU786  VAL792 
 PHE793  MET794  SER795  GLU796  ALA797  LYS798  CYS799  TRP800  GLU811  SER814 

> <Gold.Protein.RotatedAtoms>
  151.2973  135.0759  159.9225 H   0  0  0  0  0  0  0  0  0  0  0  0  # atno 6907 bound_to 6896
  152.5304  133.9869  159.7843 H   0  0  0  0  0  0  0  0  0  0  0  0  # atno 6908 bound_to 6896
  151.0150  133.5878  159.2708 H   0  0  0  0  0  0  0  0  0  0  0  0  # atno 6909 bound_to 6896
  146.2293  140.2395  142.8343 H   0  0  0  0  0  0  0  0  0  0  0  0  # atno 7974 bound_to 7965
  156.1199  140.1492  156.9219 H   0  0  0  0  0  0  0  0  0  0  0  0  # atno 8008 bound_to 7997
  154.4828  140.0874  156.7458 H   0  0  0  0  0  0  0  0  0  0  0  0  # atno 8009 bound_to 7997
  155.4447  140.3432  155.4296 H   0  0  0  0  0  0  0  0  0  0  0  0  # atno 8010 bound_to 7997
  139.6841  144.7115  151.1463 H   0  0  0  0  0  0  0  0  0  0  0  0  # atno 10167 bound_to 10162
  157.3648  131.0970  151.0882 H   0  0  0  0  0  0  0  0  0  0  0  0  # atno 10718 bound_to 10713
  154.0011  135.2923  155.3402 H   0  0  0  0  0  0  0  0  0  0  0  0  # atno 10763 bound_to 10752
  154.7158  135.5130  153.8739 H   0  0  0  0  0  0  0  0  0  0  0  0  # atno 10764 bound_to 10752
  153.0765  135.6665  154.0253 H   0  0  0  0  0  0  0  0  0  0  0  0  # atno 10765 bound_to 10752
  140.0923  134.9033  157.1670 H   0  0  0  0  0  0  0  0  0  0  0  0  # atno 11005 bound_to 11000
  144.9495  140.8163  143.5580 LP  0  0  0  0  0  0  0  0  0  0  0  0  # atno 17320 bound_to 7965
  145.2355  139.2096  143.5020 LP  0  0  0  0  0  0  0  0  0  0  0  0  # atno 17321 bound_to 7965
  140.7662  143.5655  150.9052 LP  0  0  0  0  0  0  0  0  0  0  0  0  # atno 17342 bound_to 10162
  139.9329  143.6472  152.3072 LP  0  0  0  0  0  0  0  0  0  0  0  0  # atno 17343 bound_to 10162
  157.2008  130.6394  149.5738 LP  0  0  0  0  0  0  0  0  0  0  0  0  # atno 17370 bound_to 10713
  155.9744  130.4691  150.6384 LP  0  0  0  0  0  0  0  0  0  0  0  0  # atno 17371 bound_to 10713
  140.3334  134.2784  155.7224 LP  0  0  0  0  0  0  0  0  0  0  0  0  # atno 17394 bound_to 11000
  141.2082  133.7785  157.0075 LP  0  0  0  0  0  0  0  0  0  0  0  0  # atno 17395 bound_to 11000

$$$$
