AV-unprocessed.smi:144|AV-procd|sdf|1196|dock3
  -GOLD-   2262018353D 1   1.00000     0.00000
 Structure written by MMmdl.
 46 48  0  0  0  0  0  0  0  0  1 V2000
  153.1880  137.7241  160.3792 O   0  0  0  0  0  0  0  0  0  0  0  0
  153.9523  138.5307  160.9067 C   0  0  0  0  0  0  0  0  0  0  0  0
  155.0186  137.9973  161.8817 C   0  0  0  0  0  0  0  0  0  0  0  0
  154.9456  136.5443  162.1623 N   0  0  0  0  0  0  0  0  0  0  0  0
  154.9406  135.6391  161.0717 C   0  0  0  0  0  0  0  0  0  0  0  0
  154.9949  136.0416  159.9089 O   0  0  0  0  0  0  0  0  0  0  0  0
  154.8500  134.2268  161.4246 C   0  0  0  0  0  0  0  0  0  0  0  0
  154.8330  133.2980  160.4537 F   0  0  0  0  0  0  0  0  0  0  0  0
  154.7724  133.8369  162.7135 C   0  0  0  0  0  0  0  0  0  0  0  0
  154.7770  134.7317  163.7681 N   0  0  0  0  0  0  0  0  0  0  0  0
  154.6712  134.2623  165.2028 C   0  0  1  0  0  0  0  0  0  0  0  0
  153.5024  133.2819  165.3534 C   0  0  0  0  0  0  0  0  0  0  0  0
  154.1904  131.9479  165.1616 C   0  0  0  0  0  0  0  0  0  0  0  0
  155.5457  132.2058  165.8108 C   0  0  0  0  0  0  0  0  0  0  0  0
  155.8402  133.5762  165.5488 O   0  0  0  0  0  0  0  0  0  0  0  0
  154.8543  136.1169  163.5085 C   0  0  0  0  0  0  0  0  0  0  0  0
  154.8257  136.9331  164.4322 O   0  0  0  0  0  0  0  0  0  0  0  0
  153.9028  139.8622  160.7010 N   0  0  0  0  0  0  0  0  0  0  0  0
  153.0321  140.6021  159.8574 C   0  0  0  0  0  0  0  0  0  0  0  0
  152.8350  141.9619  160.1709 C   0  0  0  0  0  0  0  0  0  0  0  0
  152.0001  142.7719  159.3717 C   0  0  0  0  0  0  0  0  0  0  0  0
  151.7703  144.2350  159.7197 C   0  0  0  0  0  0  0  0  0  0  0  0
  152.3478  145.0226  158.8119 F   0  0  0  0  0  0  0  0  0  0  0  0
  150.4611  144.4818  159.7318 F   0  0  0  0  0  0  0  0  0  0  0  0
  152.2744  144.5383  160.9165 F   0  0  0  0  0  0  0  0  0  0  0  0
  151.3608  142.2098  158.2471 C   0  0  0  0  0  0  0  0  0  0  0  0
  151.5655  140.8552  157.9075 C   0  0  0  0  0  0  0  0  0  0  0  0
  150.8964  140.2392  156.6877 C   0  0  0  0  0  0  0  0  0  0  0  0
  151.8258  139.7641  155.8584 F   0  0  0  0  0  0  0  0  0  0  0  0
  150.1115  139.2340  157.0746 F   0  0  0  0  0  0  0  0  0  0  0  0
  150.1539  141.1257  156.0233 F   0  0  0  0  0  0  0  0  0  0  0  0
  152.4048  140.0573  158.7125 C   0  0  0  0  0  0  0  0  0  0  0  0
  155.9997  138.2672  161.4879 H   0  0  0  0  0  0  0  0  0  0  0  0
  154.9468  138.5716  162.8067 H   0  0  0  0  0  0  0  0  0  0  0  0
  154.6974  132.7784  162.9135 H   0  0  0  0  0  0  0  0  0  0  0  0
  154.5784  135.1632  165.8114 H   0  0  0  0  0  0  0  0  0  0  0  0
  153.1067  133.3657  166.3664 H   0  0  0  0  0  0  0  0  0  0  0  0
  152.6984  133.4756  164.6421 H   0  0  0  0  0  0  0  0  0  0  0  0
  153.6504  131.1173  165.6167 H   0  0  0  0  0  0  0  0  0  0  0  0
  154.3131  131.7348  164.0990 H   0  0  0  0  0  0  0  0  0  0  0  0
  155.4812  132.0638  166.8904 H   0  0  0  0  0  0  0  0  0  0  0  0
  156.3266  131.5484  165.4279 H   0  0  0  0  0  0  0  0  0  0  0  0
  154.5259  140.4154  161.2711 H   0  0  0  0  0  0  0  0  0  0  0  0
  153.3230  142.3813  161.0387 H   0  0  0  0  0  0  0  0  0  0  0  0
  150.7150  142.8300  157.6436 H   0  0  0  0  0  0  0  0  0  0  0  0
  152.5636  139.0294  158.4248 H   0  0  0  0  0  0  0  0  0  0  0  0
  1  2  2  0  0  0  0
  2  3  1  0  0  0  0
  2 18  1  0  0  0  0
  3  4  1  0  0  0  0
  3 33  1  0  0  0  0
  3 34  1  0  0  0  0
  4 16  1  0  0  0  0
  4  5  1  0  0  0  0
  5  6  2  0  0  0  0
  5  7  1  0  0  0  0
  7  8  1  0  0  0  0
  7  9  2  0  0  0  0
  9 10  1  0  0  0  0
  9 35  1  0  0  0  0
 10 11  1  0  0  0  0
 10 16  1  0  0  0  0
 11 15  1  0  0  0  0
 11 12  1  0  0  0  0
 11 36  1  0  0  0  0
 12 13  1  0  0  0  0
 12 37  1  0  0  0  0
 12 38  1  0  0  0  0
 13 14  1  0  0  0  0
 13 39  1  0  0  0  0
 13 40  1  0  0  0  0
 14 15  1  0  0  0  0
 14 41  1  0  0  0  0
 14 42  1  0  0  0  0
 16 17  2  0  0  0  0
 18 19  1  0  0  0  0
 18 43  1  0  0  0  0
 19 32  1  0  0  0  0
 19 20  2  0  0  0  0
 20 21  1  0  0  0  0
 20 44  1  0  0  0  0
 21 22  1  0  0  0  0
 21 26  2  0  0  0  0
 22 23  1  0  0  0  0
 22 24  1  0  0  0  0
 22 25  1  0  0  0  0
 26 27  1  0  0  0  0
 26 45  1  0  0  0  0
 27 28  1  0  0  0  0
 27 32  2  0  0  0  0
 28 29  1  0  0  0  0
 28 30  1  0  0  0  0
 28 31  1  0  0  0  0
 32 46  1  0  0  0  0
M  END
> <s_m_source_file>
AV-unprocessed.smi

> <i_m_source_file_index>
144

> <i_lp_mmshare_version>
43012

> <i_f3d_flags>
0

> <s_epik_input>
RkMoRikoRiljKFtjSF0xKVtjSF1jKEMoRikoRilGKVtjSF1jMVtOSF1DKD1PKVtDSDJdbjJjKD1PKWMoRilbY0hdbihjMj1PKVtDQEBIXTNbQ0gyXVtDSDJdW0NIMl1PMw==

> <s_epik_cmdline>
J2VwaWtfcHl0aG9uJywgJy1waCcsICc3LjAnLCAnLXRuJywgJzgnLCAnLW1hJywgJzIwMCcsICctbWV0YWxfYmluZGluZycsICctaW1hZScsICc8aW5maWxlLm1hZT4nLCAnLW9tYWUnLCAnPG91dGZpbGUubWFlPic=

> <r_lp_tautomer_probability>
1

> <r_epik_Ionization_Penalty>
3.68082e-06

> <r_epik_Ionization_Penalty_Charging>
3.88729e-08

> <r_epik_Ionization_Penalty_Neutral>
3.64194e-06

> <r_epik_State_Penalty>
-0

> <r_epik_Charging_Adjusted_Penalty>
3.88729e-08

> <i_epik_Tot_Q>
0

> <i_epik_Tot_abs_Q>
0

> <r_epik_Metal_State_Penalty>
-0

> <b_epik_Metal_Only>
0

> <s_epik_Chemistry_Notes>
This compound contains an acetal/aminal-like group ( X-CH(R)-Y where X, Y are N, S, or O) that may be acid/base labile, releasing an aldehyde.

> <s_lp_Force_Field>
OPLS_2005

> <r_lp_Energy>
36.4766

> <b_lp_Chiralities_Consistent>
1

> <s_lp_Variant>
AV-unprocessed.smi:144-2

> <Gold.Version>
5.8.1

> <Gold.Id.Protein>
6NUR|6NUR_protein|mol2

> <Gold.PLP.Fitness>
59.2681

> <Gold.PLP.PLP>
-60.0989

> <Gold.PLP.part.hbond>
0.0000

> <Gold.PLP.part.metal>
0.0000

> <Gold.PLP.part.buried>
-6.1075

> <Gold.PLP.part.nonpolar>
-53.7721

> <Gold.PLP.part.repulsive>
0.2126

> <Gold.PLP.ligand.clash>
0.3612

> <Gold.PLP.ligand.torsion>
0.5957

> <Gold.PLP.Chemscore.Hbond>
0.0000

> <Gold.PLP.Chemscore.CHOScore>
0.0000

> <Gold.PLP.Chemscore.Metal>
0.0000

> <Gold.PLP.Chemscore.Internal.Correction>
0.7219

> <Gold.Rescore>
     Score         DG    S(hbond)    S(metal)    S(lipo)     H(rot)  DE(clash)    DE(int)     intcor
      6.95     -13.08       0.00        0.00     105.02       1.83       0.28       5.85       ----

> <Gold.Chemscore.Fitness>
6.9489

> <Gold.Chemscore.DG>
-13.0765

> <Gold.Chemscore.ZeroCoef>
-5.4800

> <Gold.Chemscore.Hbond>
0.0000

> <Gold.Chemscore.Metal>
0.0000

> <Gold.Chemscore.Lipo>
105.0225

> <Gold.Chemscore.Internal_Hbond>
0.0000

> <Gold.Chemscore.DEClash>
0.2753

> <Gold.Chemscore.DEInternal>
5.8523

> <Gold.Chemscore.Rot>
1.8325

> <Gold.Chemscore.Internal.Correction>
   9.000000E+99

> <Gold.Chemscore.Hbond.Weighted>
-0.0000

> <Gold.Chemscore.Metal.Weighted>
-0.0000

> <Gold.Chemscore.Lipo.Weighted>
-12.2876

> <Gold.Chemscore.Internal_Hbond.Weighted>
0.0000

> <Gold.Chemscore.DEClash.Weighted>
0.2753

> <Gold.Chemscore.DEInternal.Weighted>
5.8523

> <Gold.Chemscore.Rot.Weighted>
4.6911

> <Gold.Chemscore.Internal.Correction.Weighted>
   9.000000E+99

> <Gold.Protein.RotatedTorsions>
[ 6907 6896 6895 6894 ] final  165.54 input  -60.11 | X-H torsion
[ 7974 7965 7964 7962 ] final -131.48 input  175.53 | X-H torsion
[ 8008 7997 7996 7995 ] final -165.27 input   59.86 | X-H torsion
[ 10167 10162 10161 10158 ] final -178.06 input  -65.29 | X-H torsion
[ 10718 10713 10712 10709 ] final   36.82 input   66.30 | X-H torsion
[ 10763 10752 10751 10750 ] final  -36.55 input  -60.55 | X-H torsion
[ 11005 11000 10999 10996 ] final  167.59 input  -57.11 | X-H torsion

> <Gold.Protein.ActiveResidues>
 VAL166  LYS551  ARG553  GLY616  TRP617  ASP618  TYR619  PRO620  LYS621  CYS622 
 ASP623  PHE694  ASN695  SER759  ASP760  ASP761  ALA762  ILE779  LEU786  VAL792 
 PHE793  MET794  SER795  GLU796  ALA797  LYS798  CYS799  TRP800  GLU811  SER814 

> <Gold.Protein.RotatedAtoms>
  151.8928  133.3520  159.3803 H   0  0  0  0  0  0  0  0  0  0  0  0  # atno 6907 bound_to 6896
  150.7099  134.4907  159.5523 H   0  0  0  0  0  0  0  0  0  0  0  0  # atno 6908 bound_to 6896
  152.2480  134.8162  160.0501 H   0  0  0  0  0  0  0  0  0  0  0  0  # atno 6909 bound_to 6896
  144.9376  140.7201  143.4867 H   0  0  0  0  0  0  0  0  0  0  0  0  # atno 7974 bound_to 7965
  155.8474  140.0957  157.1697 H   0  0  0  0  0  0  0  0  0  0  0  0  # atno 8008 bound_to 7997
  154.3984  140.1389  156.3864 H   0  0  0  0  0  0  0  0  0  0  0  0  # atno 8009 bound_to 7997
  155.7999  140.3453  155.5399 H   0  0  0  0  0  0  0  0  0  0  0  0  # atno 8010 bound_to 7997
  139.5450  144.2259  152.0970 H   0  0  0  0  0  0  0  0  0  0  0  0  # atno 10167 bound_to 10162
  157.3395  130.7540  149.6902 H   0  0  0  0  0  0  0  0  0  0  0  0  # atno 10718 bound_to 10713
  153.8816  135.6821  153.4766 H   0  0  0  0  0  0  0  0  0  0  0  0  # atno 10763 bound_to 10752
  153.1230  135.4731  154.9225 H   0  0  0  0  0  0  0  0  0  0  0  0  # atno 10764 bound_to 10752
  154.7666  135.3226  154.8226 H   0  0  0  0  0  0  0  0  0  0  0  0  # atno 10765 bound_to 10752
  140.2784  134.7770  157.3737 H   0  0  0  0  0  0  0  0  0  0  0  0  # atno 11005 bound_to 11000
  145.3043  139.1840  143.4673 LP  0  0  0  0  0  0  0  0  0  0  0  0  # atno 17320 bound_to 7965
  146.3272  140.3038  142.8622 LP  0  0  0  0  0  0  0  0  0  0  0  0  # atno 17321 bound_to 7965
  140.1745  144.4904  150.6562 LP  0  0  0  0  0  0  0  0  0  0  0  0  # atno 17342 bound_to 10162
  140.6695  143.2280  151.5660 LP  0  0  0  0  0  0  0  0  0  0  0  0  # atno 17343 bound_to 10162
  155.9706  130.4172  150.4266 LP  0  0  0  0  0  0  0  0  0  0  0  0  # atno 17370 bound_to 10713
  157.2312  131.0504  151.2491 LP  0  0  0  0  0  0  0  0  0  0  0  0  # atno 17371 bound_to 10713
  140.1306  134.5100  155.8108 LP  0  0  0  0  0  0  0  0  0  0  0  0  # atno 17394 bound_to 11000
  141.2166  133.6788  156.7033 LP  0  0  0  0  0  0  0  0  0  0  0  0  # atno 17395 bound_to 11000

$$$$
