AV-unprocessed.smi:810|AV-procd|sdf|3809|dock5
  -GOLD-   22720 1253D 1   1.00000     0.00000
 Structure written by MMmdl.
 34 35  0  0  0  0  0  0  0  0  1 V2000
  150.5772  140.9992  157.4983 O   0  0  0  0  0  0  0  0  0  0  0  0
  150.2040  142.0554  156.9888 C   0  0  0  0  0  0  0  0  0  0  0  0
  150.4012  143.2801  157.5059 N   0  0  0  0  0  0  0  0  0  0  0  0
  151.0724  143.6353  158.7071 C   0  0  0  0  0  0  0  0  0  0  0  0
  151.2269  144.9640  159.1716 C   0  0  0  0  0  0  0  0  0  0  0  0
  151.8997  145.1840  160.3889 C   0  0  0  0  0  0  0  0  0  0  0  0
  152.3864  144.0702  161.1001 C   0  0  0  0  0  0  0  0  0  0  0  0
  152.2337  142.7978  160.6767 N   0  0  0  0  0  0  0  0  0  0  0  0
  151.5871  142.5944  159.5092 C   0  0  0  0  0  0  0  0  0  0  0  0
  149.5201  142.1218  155.8375 N   0  0  0  0  0  0  0  0  0  0  0  0
  149.1094  140.9766  155.0287 C   0  0  2  0  0  0  0  0  0  0  0  0
  150.3524  140.1708  154.6036 C   0  0  0  0  0  0  0  0  0  0  0  0
  150.0643  138.6845  154.3340 C   0  0  0  0  0  0  0  0  0  0  0  0
  149.1733  138.5616  153.2466 O   0  0  0  0  0  0  0  0  0  0  0  0
  148.2858  141.3767  153.8160 C   0  0  0  0  0  0  0  0  0  0  0  0
  146.9514  142.0684  153.9653 C   0  0  0  0  0  0  0  0  0  0  0  0
  147.0129  140.6439  153.4632 C   0  0  0  0  0  0  0  0  0  0  0  0
  149.9643  144.0451  157.0129 H   0  0  0  0  0  0  0  0  0  0  0  0
  150.8354  145.8119  158.6315 H   0  0  0  0  0  0  0  0  0  0  0  0
  152.0365  146.1849  160.7708 H   0  0  0  0  0  0  0  0  0  0  0  0
  152.9066  144.2045  162.0370 H   0  0  0  0  0  0  0  0  0  0  0  0
  151.4816  141.5638  159.2028 H   0  0  0  0  0  0  0  0  0  0  0  0
  149.2508  143.0338  155.4988 H   0  0  0  0  0  0  0  0  0  0  0  0
  148.4927  140.3167  155.6424 H   0  0  0  0  0  0  0  0  0  0  0  0
  150.7689  140.6141  153.6978 H   0  0  0  0  0  0  0  0  0  0  0  0
  151.1263  140.2613  155.3672 H   0  0  0  0  0  0  0  0  0  0  0  0
  150.9794  138.1403  154.0994 H   0  0  0  0  0  0  0  0  0  0  0  0
  149.6197  138.2145  155.2117 H   0  0  0  0  0  0  0  0  0  0  0  0
  149.3910  137.7778  152.7657 H   0  0  0  0  0  0  0  0  0  0  0  0
  148.8903  141.6957  152.9688 H   0  0  0  0  0  0  0  0  0  0  0  0
  146.5703  142.2284  154.9721 H   0  0  0  0  0  0  0  0  0  0  0  0
  146.7077  142.8472  153.2456 H   0  0  0  0  0  0  0  0  0  0  0  0
  146.8078  140.4722  152.4087 H   0  0  0  0  0  0  0  0  0  0  0  0
  146.6739  139.8604  154.1382 H   0  0  0  0  0  0  0  0  0  0  0  0
  1  2  2  0  0  0  0
  2  3  1  0  0  0  0
  2 10  1  0  0  0  0
  3  4  1  0  0  0  0
  3 18  1  0  0  0  0
  4  9  1  0  0  0  0
  4  5  2  0  0  0  0
  5  6  1  0  0  0  0
  5 19  1  0  0  0  0
  6  7  2  0  0  0  0
  6 20  1  0  0  0  0
  7  8  1  0  0  0  0
  7 21  1  0  0  0  0
  8  9  2  0  0  0  0
  9 22  1  0  0  0  0
 10 11  1  0  0  0  0
 10 23  1  0  0  0  0
 11 12  1  0  0  0  0
 11 15  1  0  0  0  0
 11 24  1  0  0  0  0
 12 13  1  0  0  0  0
 12 25  1  0  0  0  0
 12 26  1  0  0  0  0
 13 14  1  0  0  0  0
 13 27  1  0  0  0  0
 13 28  1  0  0  0  0
 14 29  1  0  0  0  0
 15 17  1  0  0  0  0
 15 16  1  0  0  0  0
 15 30  1  0  0  0  0
 16 17  1  0  0  0  0
 16 31  1  0  0  0  0
 16 32  1  0  0  0  0
 17 33  1  0  0  0  0
 17 34  1  0  0  0  0
M  END
> <s_m_source_file>
AV-unprocessed.smi

> <i_m_source_file_index>
810

> <i_lp_mmshare_version>
43012

> <i_f3d_flags>
0

> <s_epik_input>
W09IXVtDSDJdW0NIMl1bQ0BIXShbQ0hdMVtDSDJdW0NIMl0xKVtOSF1DKD1PKVtOSF1jMltjSF1bY0hdW2NIXW5bY0hdMg==

> <s_epik_cmdline>
J2VwaWtfcHl0aG9uJywgJy1waCcsICc3LjAnLCAnLXRuJywgJzgnLCAnLW1hJywgJzIwMCcsICctbWV0YWxfYmluZGluZycsICctaW1hZScsICc8aW5maWxlLm1hZT4nLCAnLW9tYWUnLCAnPG91dGZpbGUubWFlPic=

> <r_epik_Ionization_Penalty>
0.00486911

> <r_epik_Ionization_Penalty_Charging>
0

> <r_epik_Ionization_Penalty_Neutral>
0.00486911

> <r_epik_State_Penalty>
0.00350304

> <r_epik_Charging_Adjusted_Penalty>
0.00350304

> <i_epik_Tot_Q>
0

> <i_epik_Tot_abs_Q>
0

> <r_epik_Metal_State_Penalty>
-0

> <b_epik_Metal_Only>
0

> <s_lp_Force_Field>
OPLS_2005

> <r_lp_Energy>
17.5915

> <b_lp_Chiralities_Consistent>
1

> <s_lp_Variant>
AV-unprocessed.smi:810-1

> <Gold.Version>
5.8.1

> <Gold.Id.Protein>
6NUR|6NUR_protein|mol2

> <Gold.PLP.Fitness>
47.8495

> <Gold.PLP.PLP>
-39.5631

> <Gold.PLP.part.hbond>
-3.9921

> <Gold.PLP.part.metal>
0.0000

> <Gold.PLP.part.buried>
-2.7041

> <Gold.PLP.part.nonpolar>
-32.0562

> <Gold.PLP.part.repulsive>
0.2044

> <Gold.PLP.ligand.clash>
0.0000

> <Gold.PLP.ligand.torsion>
0.9081

> <Gold.PLP.Chemscore.Hbond>
3.0000

> <Gold.PLP.Chemscore.CHOScore>
0.0000

> <Gold.PLP.Chemscore.Metal>
0.0000

> <Gold.Chemscore.Hbonds>
donor molecule, donor type, donor heavy atom, donor atom, acceptor molecule, acceptor atom, score
      L1  H     3    18       P1  8028  1.00
      L1  H    10    23       P1  8028  1.00
      L1  H    14    29       P1  7948  1.00

> <Gold.PLP.Chemscore.Internal.Correction>
1.1027

> <Gold.Rescore>
     Score         DG    S(hbond)    S(metal)    S(lipo)     H(rot)  DE(clash)    DE(int)     intcor
     17.80     -20.45       2.88        0.00      96.26       2.31       0.11       2.54       ----

> <Gold.Chemscore.Fitness>
17.7981

> <Gold.Chemscore.DG>
-20.4484

> <Gold.Chemscore.ZeroCoef>
-5.4800

> <Gold.Chemscore.Hbond>
2.8799

> <Gold.Chemscore.Metal>
0.0000

> <Gold.Chemscore.Lipo>
96.2592

> <Gold.Chemscore.Internal_Hbond>
0.0000

> <Gold.Chemscore.DEClash>
0.1056

> <Gold.Chemscore.DEInternal>
2.5448

> <Gold.Chemscore.Rot>
2.3097

> <Gold.Chemscore.Internal.Correction>
   9.000000E+99

> <Gold.Chemscore.Hbonds>
donor molecule, donor type, donor heavy atom, donor atom, acceptor molecule, acceptor atom, score
      L1  H     3    18       P1  8028  0.88
      L1  H    10    23       P1  8028  0.98
      L1  H    14    29       P1  7948  0.86

> <Gold.Chemscore.Hbond.Weighted>
-9.6188

> <Gold.Chemscore.Metal.Weighted>
-0.0000

> <Gold.Chemscore.Lipo.Weighted>
-11.2623

> <Gold.Chemscore.Internal_Hbond.Weighted>
0.0000

> <Gold.Chemscore.DEClash.Weighted>
0.1056

> <Gold.Chemscore.DEInternal.Weighted>
2.5448

> <Gold.Chemscore.Rot.Weighted>
5.9127

> <Gold.Chemscore.Internal.Correction.Weighted>
   9.000000E+99

> <Gold.Protein.RotatedTorsions>
[ 6907 6896 6895 6894 ] final  173.12 input  -60.11 | X-H torsion
[ 7974 7965 7964 7962 ] final  170.44 input  175.53 | X-H torsion
[ 8008 7997 7996 7995 ] final  120.47 input   59.86 | X-H torsion
[ 10167 10162 10161 10158 ] final  175.16 input  -65.29 | X-H torsion
[ 10718 10713 10712 10709 ] final  145.83 input   66.30 | X-H torsion
[ 10763 10752 10751 10750 ] final   -8.67 input  -60.55 | X-H torsion
[ 11005 11000 10999 10996 ] final -150.09 input  -57.11 | X-H torsion

> <Gold.Protein.ActiveResidues>
 VAL166  LYS551  ARG553  GLY616  TRP617  ASP618  TYR619  PRO620  LYS621  CYS622 
 ASP623  PHE694  ASN695  SER759  ASP760  ASP761  ALA762  ILE779  LEU786  VAL792 
 PHE793  MET794  SER795  GLU796  ALA797  LYS798  CYS799  TRP800  GLU811  SER814 

> <Gold.Protein.RotatedAtoms>
  151.7734  133.3343  159.3450 H   0  0  0  0  0  0  0  0  0  0  0  0  # atno 6907 bound_to 6896
  150.7453  134.5998  159.6040 H   0  0  0  0  0  0  0  0  0  0  0  0  # atno 6908 bound_to 6896
  152.3326  134.7242  160.0337 H   0  0  0  0  0  0  0  0  0  0  0  0  # atno 6909 bound_to 6896
  144.7324  139.9202  143.6419 H   0  0  0  0  0  0  0  0  0  0  0  0  # atno 7974 bound_to 7965
  156.2644  140.2830  156.1154 H   0  0  0  0  0  0  0  0  0  0  0  0  # atno 8008 bound_to 7997
  155.1212  140.0392  157.2768 H   0  0  0  0  0  0  0  0  0  0  0  0  # atno 8009 bound_to 7997
  154.6669  140.2579  155.7054 H   0  0  0  0  0  0  0  0  0  0  0  0  # atno 8010 bound_to 7997
  139.5167  144.3063  152.0332 H   0  0  0  0  0  0  0  0  0  0  0  0  # atno 10167 bound_to 10162
  157.3405  131.0935  151.1086 H   0  0  0  0  0  0  0  0  0  0  0  0  # atno 10718 bound_to 10713
  153.4438  135.7014  153.6152 H   0  0  0  0  0  0  0  0  0  0  0  0  # atno 10763 bound_to 10752
  153.4516  135.3757  155.2287 H   0  0  0  0  0  0  0  0  0  0  0  0  # atno 10764 bound_to 10752
  154.8728  135.3998  154.3840 H   0  0  0  0  0  0  0  0  0  0  0  0  # atno 10765 bound_to 10752
  140.7438  134.3484  157.5141 H   0  0  0  0  0  0  0  0  0  0  0  0  # atno 11005 bound_to 11000
  146.0935  139.3926  143.0391 LP  0  0  0  0  0  0  0  0  0  0  0  0  # atno 17320 bound_to 7965
  145.7678  140.9909  143.1166 LP  0  0  0  0  0  0  0  0  0  0  0  0  # atno 17321 bound_to 7965
  140.2509  144.4170  150.6222 LP  0  0  0  0  0  0  0  0  0  0  0  0  # atno 17342 bound_to 10162
  140.6225  143.2178  151.6664 LP  0  0  0  0  0  0  0  0  0  0  0  0  # atno 17343 bound_to 10162
  157.2300  130.6521  149.5846 LP  0  0  0  0  0  0  0  0  0  0  0  0  # atno 17370 bound_to 10713
  155.9707  130.4602  150.6063 LP  0  0  0  0  0  0  0  0  0  0  0  0  # atno 17371 bound_to 10713
  139.8801  134.9098  156.2999 LP  0  0  0  0  0  0  0  0  0  0  0  0  # atno 17394 bound_to 11000
  140.9812  133.7266  156.0675 LP  0  0  0  0  0  0  0  0  0  0  0  0  # atno 17395 bound_to 11000

$$$$
