AV-unprocessed.smi:3097|AV-procd|sdf|11799|dock4
  -GOLD-   2272017173D 1   1.00000     0.00000
 Structure written by MMmdl.
 35 35  0  0  0  0  0  0  0  0  2 V2000
  147.6815  140.8700  153.6973 C   0  0  0  0  0  0  0  0  0  0  0  0
  147.1014  139.4524  153.7220 C   0  0  0  0  0  0  0  0  0  0  0  0
  146.9566  138.8554  152.3170 C   0  0  0  0  0  0  0  0  0  0  0  0
  146.7312  137.4063  152.3780 N   0  0  0  0  0  0  0  0  0  0  0  0
  145.5726  136.7999  152.7017 C   0  0  0  0  0  0  0  0  0  0  0  0
  144.4939  137.5413  153.0209 N   0  3  0  0  0  0  0  0  0  0  0  0
  143.1740  137.0164  153.3901 C   0  0  0  0  0  0  0  0  0  0  0  0
  145.4869  135.4543  152.7050 N   0  0  0  0  0  0  0  0  0  0  0  0
  146.5614  134.5126  152.3536 C   0  0  0  0  0  0  0  0  0  0  0  0
  146.0790  133.0535  152.3994 C   0  0  0  0  0  0  0  0  0  0  0  0
  145.2679  132.7036  151.2480 N   0  0  0  0  0  0  0  0  0  0  0  0
  145.6828  132.2672  150.0071 C   0  0  0  0  0  0  0  0  0  0  0  0
  144.5627  132.0621  149.2537 C   0  0  0  0  0  0  0  0  0  0  0  0
  143.4972  132.4121  150.1294 C   0  0  0  0  0  0  0  0  0  0  0  0
  143.9223  132.7914  151.3239 N   0  0  0  0  0  0  0  0  0  0  0  0
  147.7739  141.2698  154.7074 H   0  0  0  0  0  0  0  0  0  0  0  0
  147.0431  141.5470  153.1291 H   0  0  0  0  0  0  0  0  0  0  0  0
  148.6725  140.8819  153.2428 H   0  0  0  0  0  0  0  0  0  0  0  0
  147.7442  138.8134  154.3278 H   0  0  0  0  0  0  0  0  0  0  0  0
  146.1293  139.4690  154.2164 H   0  0  0  0  0  0  0  0  0  0  0  0
  146.1213  139.3224  151.7942 H   0  0  0  0  0  0  0  0  0  0  0  0
  147.8560  139.0480  151.7312 H   0  0  0  0  0  0  0  0  0  0  0  0
  147.5171  136.8223  152.1277 H   0  0  0  0  0  0  0  0  0  0  0  0
  142.4872  137.8375  153.5959 H   0  0  0  0  0  0  0  0  0  0  0  0
  143.2471  136.3950  154.2829 H   0  0  0  0  0  0  0  0  0  0  0  0
  142.7616  136.4162  152.5787 H   0  0  0  0  0  0  0  0  0  0  0  0
  144.5948  135.0408  152.9360 H   0  0  0  0  0  0  0  0  0  0  0  0
  146.9919  134.7593  151.3829 H   0  0  0  0  0  0  0  0  0  0  0  0
  147.3590  134.6443  153.0848 H   0  0  0  0  0  0  0  0  0  0  0  0
  146.9339  132.3773  152.4387 H   0  0  0  0  0  0  0  0  0  0  0  0
  145.4974  132.8724  153.3042 H   0  0  0  0  0  0  0  0  0  0  0  0
  146.7280  132.1376  149.7672 H   0  0  0  0  0  0  0  0  0  0  0  0
  144.5121  131.7184  148.2311 H   0  0  0  0  0  0  0  0  0  0  0  0
  142.4349  132.3975  149.9355 H   0  0  0  0  0  0  0  0  0  0  0  0
  144.5886  138.5468  153.0098 H   0  0  0  0  0  0  0  0  0  0  0  0
  1  2  1  0  0  0  0
  1 16  1  0  0  0  0
  1 17  1  0  0  0  0
  1 18  1  0  0  0  0
  2  3  1  0  0  0  0
  2 19  1  0  0  0  0
  2 20  1  0  0  0  0
  3  4  1  0  0  0  0
  3 21  1  0  0  0  0
  3 22  1  0  0  0  0
  4  5  1  0  0  0  0
  4 23  1  0  0  0  0
  5  6  2  0  0  0  0
  5  8  1  0  0  0  0
  6  7  1  0  0  0  0
  6 35  1  0  0  0  0
  7 24  1  0  0  0  0
  7 25  1  0  0  0  0
  7 26  1  0  0  0  0
  8  9  1  0  0  0  0
  8 27  1  0  0  0  0
  9 10  1  0  0  0  0
  9 28  1  0  0  0  0
  9 29  1  0  0  0  0
 10 11  1  0  0  0  0
 10 30  1  0  0  0  0
 10 31  1  0  0  0  0
 11 15  1  0  0  0  0
 11 12  1  0  0  0  0
 12 13  2  0  0  0  0
 12 32  1  0  0  0  0
 13 14  1  0  0  0  0
 13 33  1  0  0  0  0
 14 15  2  0  0  0  0
 14 34  1  0  0  0  0
M  CHG  1   6   1
M  END
> <s_m_source_file>
AV-unprocessed.smi

> <i_m_source_file_index>
3097

> <i_lp_mmshare_version>
43012

> <i_f3d_flags>
0

> <s_epik_input>
W0NIM11bQ0gyXVtDSDJdW05IXS9DKD1OXFtDSDNdKVtOSF1bQ0gyXVtDSDJdbjFbY0hdW2NIXVtjSF1uMQ==

> <s_epik_cmdline>
J2VwaWtfcHl0aG9uJywgJy1waCcsICc3LjAnLCAnLXRuJywgJzgnLCAnLW1hJywgJzIwMCcsICctbWV0YWxfYmluZGluZycsICctaW1hZScsICc8aW5maWxlLm1hZT4nLCAnLW9tYWUnLCAnPG91dGZpbGUubWFlPic=

> <r_lp_tautomer_probability>
1

> <r_epik_Ionization_Penalty>
4.40305e-05

> <r_epik_Ionization_Penalty_Charging>
1.64417e-07

> <r_epik_Ionization_Penalty_Neutral>
4.38661e-05

> <r_epik_State_Penalty>
-0

> <r_epik_Charging_Adjusted_Penalty>
1.64417e-07

> <i_epik_Tot_Q>
1

> <i_epik_Tot_abs_Q>
1

> <r_epik_Metal_State_Penalty>
-0

> <b_epik_Metal_Only>
0

> <s_epik_Chemistry_Notes>
This compound has an imine and may undergo hydrolysis.

> <s_lp_Force_Field>
OPLS_2005

> <r_lp_Energy>
5.03608

> <b_lp_Chiralities_Consistent>
1

> <s_lp_Variant>
AV-unprocessed.smi:3097-2

> <Gold.Version>
5.8.1

> <Gold.Id.Protein>
6NUR|6NUR_protein|mol2

> <Gold.PLP.Fitness>
47.7169

> <Gold.PLP.PLP>
-29.6285

> <Gold.PLP.part.hbond>
-3.0000

> <Gold.PLP.part.metal>
0.0000

> <Gold.PLP.part.buried>
-2.0190

> <Gold.PLP.part.nonpolar>
-25.8252

> <Gold.PLP.part.repulsive>
0.2591

> <Gold.PLP.ligand.clash>
0.0000

> <Gold.PLP.ligand.torsion>
0.5808

> <Gold.PLP.Chemscore.Hbond>
4.0000

> <Gold.PLP.Chemscore.CHOScore>
2.4126

> <Gold.PLP.Chemscore.Metal>
0.0000

> <Gold.Chemscore.Hbonds>
donor molecule, donor type, donor heavy atom, donor atom, acceptor molecule, acceptor atom, score
      L1  H     4    23       P1  7948  2.00
      L1  H     6    35       P1 10175  1.13
      L1  C    12    32       P1 10747  0.77
      L1  C    14    34       P1 10186  0.92
      L1  C    14    34       P1 10952  0.76

> <Gold.PLP.Chemscore.Internal.Correction>
0.0120

> <Gold.Rescore>
     Score         DG    S(hbond)    S(metal)    S(lipo)     H(rot)  DE(clash)    DE(int)     intcor
     14.26     -15.39       1.97        0.00      69.12       1.86       0.31       0.83       ----

> <Gold.Chemscore.Fitness>
14.2573

> <Gold.Chemscore.DG>
-15.3924

> <Gold.Chemscore.ZeroCoef>
-5.4800

> <Gold.Chemscore.Hbond>
1.9691

> <Gold.Chemscore.Metal>
0.0000

> <Gold.Chemscore.Lipo>
69.1219

> <Gold.Chemscore.Internal_Hbond>
0.0000

> <Gold.Chemscore.DEClash>
0.3071

> <Gold.Chemscore.DEInternal>
0.8280

> <Gold.Chemscore.Rot>
1.8561

> <Gold.Chemscore.Internal.Correction>
   9.000000E+99

> <Gold.Chemscore.Hbonds>
donor molecule, donor type, donor heavy atom, donor atom, acceptor molecule, acceptor atom, score
      L1  H     4    23       P1  7948  0.96
      L1  H     6    35       P1 10175  0.56

> <Gold.Chemscore.Hbond.Weighted>
-6.5769

> <Gold.Chemscore.Metal.Weighted>
-0.0000

> <Gold.Chemscore.Lipo.Weighted>
-8.0873

> <Gold.Chemscore.Internal_Hbond.Weighted>
0.0000

> <Gold.Chemscore.DEClash.Weighted>
0.3071

> <Gold.Chemscore.DEInternal.Weighted>
0.8280

> <Gold.Chemscore.Rot.Weighted>
4.7517

> <Gold.Chemscore.Internal.Correction.Weighted>
   9.000000E+99

> <Gold.Protein.RotatedTorsions>
[ 6907 6896 6895 6894 ] final  147.64 input  -60.11 | X-H torsion
[ 7974 7965 7964 7962 ] final  -66.92 input  175.53 | X-H torsion
[ 8008 7997 7996 7995 ] final   33.87 input   59.86 | X-H torsion
[ 10167 10162 10161 10158 ] final  -52.43 input  -65.29 | X-H torsion
[ 10718 10713 10712 10709 ] final  144.19 input   66.30 | X-H torsion
[ 10763 10752 10751 10750 ] final -151.37 input  -60.55 | X-H torsion
[ 11005 11000 10999 10996 ] final   92.58 input  -57.11 | X-H torsion

> <Gold.Protein.ActiveResidues>
 VAL166  LYS551  ARG553  GLY616  TRP617  ASP618  TYR619  PRO620  LYS621  CYS622 
 ASP623  PHE694  ASN695  SER759  ASP760  ASP761  ALA762  ILE779  LEU786  VAL792 
 PHE793  MET794  SER795  GLU796  ALA797  LYS798  CYS799  TRP800  GLU811  SER814 

> <Gold.Protein.RotatedAtoms>
  152.1521  133.4528  159.4818 H   0  0  0  0  0  0  0  0  0  0  0  0  # atno 6907 bound_to 6896
  150.6897  134.2176  159.4393 H   0  0  0  0  0  0  0  0  0  0  0  0  # atno 6908 bound_to 6896
  152.0073  134.9895  160.0617 H   0  0  0  0  0  0  0  0  0  0  0  0  # atno 6909 bound_to 6896
  145.7358  140.8976  143.0556 H   0  0  0  0  0  0  0  0  0  0  0  0  # atno 7974 bound_to 7965
  155.1457  140.3270  155.4442 H   0  0  0  0  0  0  0  0  0  0  0  0  # atno 8008 bound_to 7997
  156.2590  140.1986  156.6521 H   0  0  0  0  0  0  0  0  0  0  0  0  # atno 8009 bound_to 7997
  154.6510  140.0558  156.9941 H   0  0  0  0  0  0  0  0  0  0  0  0  # atno 8010 bound_to 7997
  140.6538  143.2584  151.4647 H   0  0  0  0  0  0  0  0  0  0  0  0  # atno 10167 bound_to 10162
  157.3601  131.0964  151.0922 H   0  0  0  0  0  0  0  0  0  0  0  0  # atno 10718 bound_to 10713
  154.8062  135.3261  154.7425 H   0  0  0  0  0  0  0  0  0  0  0  0  # atno 10763 bound_to 10752
  153.8083  135.6898  153.4849 H   0  0  0  0  0  0  0  0  0  0  0  0  # atno 10764 bound_to 10752
  153.1809  135.4587  154.9971 H   0  0  0  0  0  0  0  0  0  0  0  0  # atno 10765 bound_to 10752
  139.8821  134.8741  156.3593 H   0  0  0  0  0  0  0  0  0  0  0  0  # atno 11005 bound_to 11000
  144.6882  139.9392  143.7474 LP  0  0  0  0  0  0  0  0  0  0  0  0  # atno 17320 bound_to 7965
  146.0495  139.3497  143.0648 LP  0  0  0  0  0  0  0  0  0  0  0  0  # atno 17321 bound_to 7965
  139.5757  144.1825  152.1899 LP  0  0  0  0  0  0  0  0  0  0  0  0  # atno 17342 bound_to 10162
  140.1135  144.5436  150.6909 LP  0  0  0  0  0  0  0  0  0  0  0  0  # atno 17343 bound_to 10162
  157.2065  130.6418  149.5758 LP  0  0  0  0  0  0  0  0  0  0  0  0  # atno 17370 bound_to 10713
  155.9736  130.4674  150.6322 LP  0  0  0  0  0  0  0  0  0  0  0  0  # atno 17371 bound_to 10713
  140.9540  133.7432  156.0311 LP  0  0  0  0  0  0  0  0  0  0  0  0  # atno 17394 bound_to 11000
  140.8070  134.3443  157.5423 LP  0  0  0  0  0  0  0  0  0  0  0  0  # atno 17395 bound_to 11000

$$$$
