AV-unprocessed.smi:72|AV-procd|sdf|742|dock4
  -GOLD-   2262017 73D 1   1.00000     0.00000
 Structure written by MMmdl.
 28 29  0  0  0  0  0  0  0  0  2 V2000
  154.5463  138.0606  154.9438 N   0  0  0  0  0  0  0  0  0  0  0  0
  153.3096  138.3064  154.9471 C   0  0  0  0  0  0  0  0  0  0  0  0
  152.3854  137.3761  154.3358 N   0  0  0  0  0  0  0  0  0  0  0  0
  151.1244  137.6826  154.3446 C   0  0  0  0  0  0  0  0  0  0  0  0
  150.6395  138.9241  154.9323 N   0  0  0  0  0  0  0  0  0  0  0  0
  149.1649  139.2653  154.9527 C   0  0  1  0  0  0  0  0  0  0  0  0
  148.7820  139.5958  156.2574 O   0  0  0  0  0  0  0  0  0  0  0  0
  148.0227  140.8009  156.2552 C   0  0  1  0  0  0  0  0  0  0  0  0
  148.1728  141.5126  157.6085 C   0  0  0  0  0  0  0  0  0  0  0  0
  149.5373  141.7333  157.8954 O   0  0  0  0  0  0  0  0  0  0  0  0
  148.6347  141.5739  155.0869 C   0  0  2  0  0  0  0  0  0  0  0  0
  147.8049  142.6156  154.6076 O   0  0  0  0  0  0  0  0  0  0  0  0
  148.8872  140.4814  154.0546 C   0  0  2  0  0  0  0  0  0  0  0  0
  147.7697  140.2455  153.2181 O   0  0  0  0  0  0  0  0  0  0  0  0
  151.5644  139.8011  155.5580 C   0  0  0  0  0  0  0  0  0  0  0  0
  151.1278  140.8201  156.0942 O   0  0  0  0  0  0  0  0  0  0  0  0
  152.8864  139.4718  155.5477 N   0  5  0  0  0  0  0  0  0  0  0  0
  148.6371  138.3583  154.6532 H   0  0  0  0  0  0  0  0  0  0  0  0
  146.9777  140.5709  156.0376 H   0  0  0  0  0  0  0  0  0  0  0  0
  149.5920  141.9987  155.3931 H   0  0  0  0  0  0  0  0  0  0  0  0
  149.7464  140.7142  153.4236 H   0  0  0  0  0  0  0  0  0  0  0  0
  154.7706  137.1897  154.4851 H   0  0  0  0  0  0  0  0  0  0  0  0
  150.3572  137.0333  153.9217 H   0  0  0  0  0  0  0  0  0  0  0  0
  147.6235  142.4544  157.6239 H   0  0  0  0  0  0  0  0  0  0  0  0
  147.7691  140.8894  158.4068 H   0  0  0  0  0  0  0  0  0  0  0  0
  150.0264  140.9673  157.6367 H   0  0  0  0  0  0  0  0  0  0  0  0
  148.0116  143.4041  155.0853 H   0  0  0  0  0  0  0  0  0  0  0  0
  148.0833  140.0996  152.3383 H   0  0  0  0  0  0  0  0  0  0  0  0
  1  2  2  0  0  0  0
  1 22  1  0  0  0  0
  2 17  1  0  0  0  0
  2  3  1  0  0  0  0
  3  4  2  0  0  0  0
  4  5  1  0  0  0  0
  4 23  1  0  0  0  0
  5  6  1  0  0  0  0
  5 15  1  0  0  0  0
  6 18  1  0  0  0  0
  6 13  1  0  0  0  0
  6  7  1  0  0  0  0
  7  8  1  0  0  0  0
  8 19  1  0  0  0  0
  8  9  1  0  0  0  0
  8 11  1  0  0  0  0
  9 10  1  0  0  0  0
  9 24  1  0  0  0  0
  9 25  1  0  0  0  0
 10 26  1  0  0  0  0
 11 20  1  0  0  0  0
 11 12  1  0  0  0  0
 11 13  1  0  0  0  0
 12 27  1  0  0  0  0
 13 21  1  0  0  0  0
 13 14  1  0  0  0  0
 14 28  1  0  0  0  0
 15 16  2  0  0  0  0
 15 17  1  0  0  0  0
M  CHG  1  17  -1
M  END
> <s_m_source_file>
AV-unprocessed.smi

> <i_m_source_file_index>
72

> <i_lp_mmshare_version>
43012

> <i_f3d_flags>
0

> <s_epik_input>
W05IMl1jMW5bY0hdbihjKD1PKW4xKVtDQEBIXTJPW0NASF0oW0NIMl1bT0hdKVtDQEBIXShbT0hdKVtDQEhdMltPSF0=

> <s_epik_cmdline>
J2VwaWtfcHl0aG9uJywgJy1waCcsICc3LjAnLCAnLXRuJywgJzgnLCAnLW1hJywgJzIwMCcsICctbWV0YWxfYmluZGluZycsICctaW1hZScsICc8aW5maWxlLm1hZT4nLCAnLW9tYWUnLCAnPG91dGZpbGUubWFlPic=

> <r_lp_tautomer_probability>
7.17554e-07

> <r_epik_Ionization_Penalty>
12.8705

> <r_epik_Ionization_Penalty_Charging>
5.64144

> <r_epik_Ionization_Penalty_Neutral>
7.22905

> <r_epik_State_Penalty>
3.30104

> <r_epik_Charging_Adjusted_Penalty>
8.94249

> <i_epik_Tot_Q>
-1

> <i_epik_Tot_abs_Q>
1

> <r_epik_Metal_State_Penalty>
0.529074

> <b_epik_Metal_Only>
1

> <s_epik_Chemistry_Notes>
This compound contains an acetal/aminal-like group ( X-CH(R)-Y where X, Y are N, S, or O) that may be acid/base labile, releasing an aldehyde.

> <s_lp_Force_Field>
OPLS_2005

> <r_lp_Energy>
36.1714

> <b_lp_Chiralities_Consistent>
1

> <s_lp_Variant>
AV-unprocessed.smi:72-80

> <Gold.Version>
5.8.1

> <Gold.Id.Protein>
6NUR|6NUR_protein|mol2

> <Gold.PLP.Fitness>
44.3100

> <Gold.PLP.PLP>
-27.6365

> <Gold.PLP.part.hbond>
-5.8302

> <Gold.PLP.part.metal>
0.0000

> <Gold.PLP.part.buried>
-1.8333

> <Gold.PLP.part.nonpolar>
-20.2690

> <Gold.PLP.part.repulsive>
0.1535

> <Gold.PLP.ligand.clash>
0.0000

> <Gold.PLP.ligand.torsion>
0.1607

> <Gold.PLP.Chemscore.Hbond>
4.6320

> <Gold.PLP.Chemscore.CHOScore>
1.0257

> <Gold.PLP.Chemscore.Metal>
0.0000

> <Gold.Chemscore.Hbonds>
donor molecule, donor type, donor heavy atom, donor atom, acceptor molecule, acceptor atom, score
      L1  H    12    27       P1  8028  1.00
      L1  H    14    28       P1  7957  0.96
      P1  H  7997  8009       L1    17  2.00
      P1  H 10752 10763       L1     3  0.72
      L1  C     4    23       P1  7948  0.78
      L1  C     4    23       P1  7949  0.11

> <Gold.PLP.Chemscore.Internal.Correction>
0.0217

> <Gold.Rescore>
     Score         DG    S(hbond)    S(metal)    S(lipo)     H(rot)  DE(clash)    DE(int)     intcor
      2.60      -8.50       3.30        0.00      20.05       4.04       0.23       5.67       ----

> <Gold.Chemscore.Fitness>
2.5951

> <Gold.Chemscore.DG>
-8.5020

> <Gold.Chemscore.ZeroCoef>
-5.4800

> <Gold.Chemscore.Hbond>
3.2990

> <Gold.Chemscore.Metal>
0.0000

> <Gold.Chemscore.Lipo>
20.0538

> <Gold.Chemscore.Internal_Hbond>
0.0000

> <Gold.Chemscore.DEClash>
0.2347

> <Gold.Chemscore.DEInternal>
5.6722

> <Gold.Chemscore.Rot>
4.0403

> <Gold.Chemscore.Internal.Correction>
   9.000000E+99

> <Gold.Chemscore.Hbonds>
donor molecule, donor type, donor heavy atom, donor atom, acceptor molecule, acceptor atom, score
      L1  H    12    27       P1  8028  0.74
      L1  H    14    28       P1  7957  0.92
      P1  H  7997  8009       L1    17  0.35
      P1  H 10752 10763       L1     3  0.65

> <Gold.Chemscore.Hbond.Weighted>
-11.0188

> <Gold.Chemscore.Metal.Weighted>
-0.0000

> <Gold.Chemscore.Lipo.Weighted>
-2.3463

> <Gold.Chemscore.Internal_Hbond.Weighted>
0.0000

> <Gold.Chemscore.DEClash.Weighted>
0.2347

> <Gold.Chemscore.DEInternal.Weighted>
5.6722

> <Gold.Chemscore.Rot.Weighted>
10.3431

> <Gold.Chemscore.Internal.Correction.Weighted>
   9.000000E+99

> <Gold.Protein.RotatedTorsions>
[ 6907 6896 6895 6894 ] final -153.62 input  -60.11 | X-H torsion
[ 7974 7965 7964 7962 ] final   73.66 input  175.53 | X-H torsion
[ 8008 7997 7996 7995 ] final -147.62 input   59.86 | X-H torsion
[ 10167 10162 10161 10158 ] final -126.76 input  -65.29 | X-H torsion
[ 10718 10713 10712 10709 ] final   72.15 input   66.30 | X-H torsion
[ 10763 10752 10751 10750 ] final   38.44 input  -60.55 | X-H torsion
[ 11005 11000 10999 10996 ] final  -62.47 input  -57.11 | X-H torsion

> <Gold.Protein.ActiveResidues>
 VAL166  LYS551  ARG553  GLY616  TRP617  ASP618  TYR619  PRO620  LYS621  CYS622 
 ASP623  PHE694  ASN695  SER759  ASP760  ASP761  ALA762  ILE779  LEU786  VAL792 
 PHE793  MET794  SER795  GLU796  ALA797  LYS798  CYS799  TRP800  GLU811  SER814 

> <Gold.Protein.RotatedAtoms>
  151.2453  133.4378  159.2608 H   0  0  0  0  0  0  0  0  0  0  0  0  # atno 6907 bound_to 6896
  151.0667  134.9772  159.8298 H   0  0  0  0  0  0  0  0  0  0  0  0  # atno 6908 bound_to 6896
  152.5406  134.2401  159.8911 H   0  0  0  0  0  0  0  0  0  0  0  0  # atno 6909 bound_to 6896
  145.7381  139.2710  143.1502 H   0  0  0  0  0  0  0  0  0  0  0  0  # atno 7974 bound_to 7965
  155.5785  140.0641  157.2789 H   0  0  0  0  0  0  0  0  0  0  0  0  # atno 8008 bound_to 7997
  154.4340  140.1856  156.0998 H   0  0  0  0  0  0  0  0  0  0  0  0  # atno 8009 bound_to 7997
  156.0323  140.3305  155.7157 H   0  0  0  0  0  0  0  0  0  0  0  0  # atno 8010 bound_to 7997
  139.9680  143.5876  152.2422 H   0  0  0  0  0  0  0  0  0  0  0  0  # atno 10167 bound_to 10162
  157.6487  130.9564  150.0889 H   0  0  0  0  0  0  0  0  0  0  0  0  # atno 10718 bound_to 10713
  153.0001  135.6249  154.2305 H   0  0  0  0  0  0  0  0  0  0  0  0  # atno 10763 bound_to 10752
  154.2047  135.2802  155.2980 H   0  0  0  0  0  0  0  0  0  0  0  0  # atno 10764 bound_to 10752
  154.5655  135.5692  153.7105 H   0  0  0  0  0  0  0  0  0  0  0  0  # atno 10765 bound_to 10752
  141.1361  133.6640  156.5532 H   0  0  0  0  0  0  0  0  0  0  0  0  # atno 11005 bound_to 11000
  146.0474  140.8104  142.9798 LP  0  0  0  0  0  0  0  0  0  0  0  0  # atno 17320 bound_to 7965
  144.6877  140.3002  143.7264 LP  0  0  0  0  0  0  0  0  0  0  0  0  # atno 17321 bound_to 7965
  139.6502  144.7660  151.2162 LP  0  0  0  0  0  0  0  0  0  0  0  0  # atno 17342 bound_to 10162
  140.7531  143.6173  150.8548 LP  0  0  0  0  0  0  0  0  0  0  0  0  # atno 17343 bound_to 10162
  156.1843  130.3651  149.8993 LP  0  0  0  0  0  0  0  0  0  0  0  0  # atno 17370 bound_to 10713
  156.6937  130.8906  151.3591 LP  0  0  0  0  0  0  0  0  0  0  0  0  # atno 17371 bound_to 10713
  140.4047  134.7325  157.4800 LP  0  0  0  0  0  0  0  0  0  0  0  0  # atno 17394 bound_to 11000
  140.0470  134.6184  155.8908 LP  0  0  0  0  0  0  0  0  0  0  0  0  # atno 17395 bound_to 11000

$$$$
