AV-unprocessed.smi:235|AV-procd|sdf|1806|dock5
  -GOLD-   2262020383D 1   1.00000     0.00000
 Structure written by MMmdl.
 54 58  0  0  0  0  0  0  0  0  1 V2000
  147.0627  137.4032  161.4513 O   0  0  0  0  0  0  0  0  0  0  0  0
  147.6999  136.7073  160.6591 C   0  0  0  0  0  0  0  0  0  0  0  0
  148.3297  137.2003  159.5828 N   0  0  0  0  0  0  0  0  0  0  0  0
  148.3481  138.5715  159.1894 C   0  0  0  0  0  0  0  0  0  0  0  0
  147.7426  138.9252  157.8486 C   0  0  0  0  0  0  0  0  0  0  0  0
  149.2357  138.9566  158.0258 C   0  0  0  0  0  0  0  0  0  0  0  0
  147.8110  135.1889  160.8709 C   0  0  1  0  0  0  0  0  0  0  0  0
  146.9700  134.7222  162.0702 C   0  0  0  0  0  0  0  0  0  0  0  0
  146.6269  133.2759  161.7288 C   0  0  0  0  0  0  0  0  0  0  0  0
  146.4556  133.3041  160.2107 C   0  0  0  0  0  0  0  0  0  0  0  0
  147.2596  134.4279  159.7460 N   0  0  0  0  0  0  0  0  0  0  0  0
  147.8821  134.3518  158.5388 C   0  0  0  0  0  0  0  0  0  0  0  0
  149.1236  134.8880  158.3926 N   0  0  0  0  0  0  0  0  0  0  0  0
  149.7560  134.8283  157.2177 C   0  0  0  0  0  0  0  0  0  0  0  0
  149.3371  134.2897  156.0719 N   0  0  0  0  0  0  0  0  0  0  0  0
  148.0906  133.7545  156.2067 C   0  0  0  0  0  0  0  0  0  0  0  0
  147.2988  133.7405  157.3907 C   0  0  0  0  0  0  0  0  0  0  0  0
  146.0827  133.1165  157.1327 N   0  0  0  0  0  0  0  0  0  0  0  0
  146.1556  132.7747  155.8755 C   0  0  0  0  0  0  0  0  0  0  0  0
  147.3302  133.1151  155.2446 N   0  0  0  0  0  0  0  0  0  0  0  0
  147.6828  132.8572  153.8606 C   0  0  0  0  0  0  0  0  0  0  0  0
  146.6936  131.9091  153.1502 C   0  0  2  0  0  0  0  0  0  0  0  0
  147.4162  130.7518  152.7812 O   0  0  0  0  0  0  0  0  0  0  0  0
  146.0273  132.5108  151.8930 C   0  0  1  0  0  0  0  0  0  0  0  0
  144.9426  131.6321  151.2672 C   0  0  0  0  0  0  0  0  0  0  0  0
  144.0912  132.6195  150.4861 C   0  0  0  0  0  0  0  0  0  0  0  0
  144.4425  133.9761  151.1021 C   0  0  0  0  0  0  0  0  0  0  0  0
  145.2795  133.6759  152.2098 O   0  0  0  0  0  0  0  0  0  0  0  0
  148.8257  136.5510  158.9896 H   0  0  0  0  0  0  0  0  0  0  0  0
  148.2455  139.3183  159.9755 H   0  0  0  0  0  0  0  0  0  0  0  0
  147.3238  138.1179  157.2504 H   0  0  0  0  0  0  0  0  0  0  0  0
  147.2253  139.8792  157.7693 H   0  0  0  0  0  0  0  0  0  0  0  0
  149.7155  139.9326  158.0621 H   0  0  0  0  0  0  0  0  0  0  0  0
  149.8149  138.1709  157.5444 H   0  0  0  0  0  0  0  0  0  0  0  0
  148.8508  134.8961  161.0290 H   0  0  0  0  0  0  0  0  0  0  0  0
  147.5063  134.8091  163.0155 H   0  0  0  0  0  0  0  0  0  0  0  0
  146.0476  135.3000  162.1564 H   0  0  0  0  0  0  0  0  0  0  0  0
  147.4650  132.6298  161.9939 H   0  0  0  0  0  0  0  0  0  0  0  0
  145.7416  132.9110  162.2504 H   0  0  0  0  0  0  0  0  0  0  0  0
  146.7608  132.3547  159.7678 H   0  0  0  0  0  0  0  0  0  0  0  0
  145.4135  133.4861  159.9451 H   0  0  0  0  0  0  0  0  0  0  0  0
  150.7384  135.2761  157.1925 H   0  0  0  0  0  0  0  0  0  0  0  0
  145.3522  132.2562  155.3728 H   0  0  0  0  0  0  0  0  0  0  0  0
  147.7358  133.8114  153.3341 H   0  0  0  0  0  0  0  0  0  0  0  0
  148.6889  132.4361  153.8435 H   0  0  0  0  0  0  0  0  0  0  0  0
  145.9188  131.5984  153.8521 H   0  0  0  0  0  0  0  0  0  0  0  0
  148.0930  131.0034  152.1716 H   0  0  0  0  0  0  0  0  0  0  0  0
  146.7812  132.7611  151.1437 H   0  0  0  0  0  0  0  0  0  0  0  0
  145.3503  130.8377  150.6412 H   0  0  0  0  0  0  0  0  0  0  0  0
  144.3386  131.1682  152.0484 H   0  0  0  0  0  0  0  0  0  0  0  0
  144.3460  132.6063  149.4257 H   0  0  0  0  0  0  0  0  0  0  0  0
  143.0298  132.3884  150.5805 H   0  0  0  0  0  0  0  0  0  0  0  0
  144.9942  134.5913  150.3902 H   0  0  0  0  0  0  0  0  0  0  0  0
  143.5610  134.5322  151.4217 H   0  0  0  0  0  0  0  0  0  0  0  0
  1  2  2  0  0  0  0
  2  3  1  0  0  0  0
  2  7  1  0  0  0  0
  3  4  1  0  0  0  0
  3 29  1  0  0  0  0
  4  6  1  0  0  0  0
  4  5  1  0  0  0  0
  4 30  1  0  0  0  0
  5  6  1  0  0  0  0
  5 31  1  0  0  0  0
  5 32  1  0  0  0  0
  6 33  1  0  0  0  0
  6 34  1  0  0  0  0
  7 11  1  0  0  0  0
  7  8  1  0  0  0  0
  7 35  1  0  0  0  0
  8  9  1  0  0  0  0
  8 36  1  0  0  0  0
  8 37  1  0  0  0  0
  9 10  1  0  0  0  0
  9 38  1  0  0  0  0
  9 39  1  0  0  0  0
 10 11  1  0  0  0  0
 10 40  1  0  0  0  0
 10 41  1  0  0  0  0
 11 12  1  0  0  0  0
 12 17  1  0  0  0  0
 12 13  2  0  0  0  0
 13 14  1  0  0  0  0
 14 15  2  0  0  0  0
 14 42  1  0  0  0  0
 15 16  1  0  0  0  0
 16 20  1  0  0  0  0
 16 17  2  0  0  0  0
 17 18  1  0  0  0  0
 18 19  2  0  0  0  0
 19 20  1  0  0  0  0
 19 43  1  0  0  0  0
 20 21  1  0  0  0  0
 21 22  1  0  0  0  0
 21 44  1  0  0  0  0
 21 45  1  0  0  0  0
 22 23  1  0  0  0  0
 22 24  1  0  0  0  0
 22 46  1  0  0  0  0
 23 47  1  0  0  0  0
 24 28  1  0  0  0  0
 24 25  1  0  0  0  0
 24 48  1  0  0  0  0
 25 26  1  0  0  0  0
 25 49  1  0  0  0  0
 25 50  1  0  0  0  0
 26 27  1  0  0  0  0
 26 51  1  0  0  0  0
 26 52  1  0  0  0  0
 27 28  1  0  0  0  0
 27 53  1  0  0  0  0
 27 54  1  0  0  0  0
M  END
> <s_m_source_file>
AV-unprocessed.smi

> <i_m_source_file_index>
235

> <i_lp_mmshare_version>
43012

> <i_f3d_flags>
0

> <s_epik_input>
W0NIMl0xW0NIMl1bQ0hdMVtOSF1DKD1PKVtDQEBIXTJbQ0gyXVtDSDJdW0NIMl1OMmMobltjSF1uMyljKGMzNCluW2NIXW40W0NIMl1bQ0BIXShbT0hdKVtDQEBIXTVbQ0gyXVtDSDJdW0NIMl1PNQ==

> <s_epik_cmdline>
J2VwaWtfcHl0aG9uJywgJy1waCcsICc3LjAnLCAnLXRuJywgJzgnLCAnLW1hJywgJzIwMCcsICctbWV0YWxfYmluZGluZycsICctaW1hZScsICc8aW5maWxlLm1hZT4nLCAnLW9tYWUnLCAnPG91dGZpbGUubWFlPic=

> <r_lp_tautomer_probability>
1

> <r_epik_Ionization_Penalty>
0.000526714

> <r_epik_Ionization_Penalty_Charging>
0

> <r_epik_Ionization_Penalty_Neutral>
0.000526714

> <r_epik_State_Penalty>
0.000272704

> <r_epik_Charging_Adjusted_Penalty>
0.000272704

> <i_epik_Tot_Q>
0

> <i_epik_Tot_abs_Q>
0

> <r_epik_Metal_State_Penalty>
-0

> <b_epik_Metal_Only>
0

> <s_lp_Force_Field>
OPLS_2005

> <r_lp_Energy>
59.6109

> <b_lp_Chiralities_Consistent>
1

> <s_lp_Variant>
AV-unprocessed.smi:235-6

> <Gold.Version>
5.8.1

> <Gold.Id.Protein>
6NUR|6NUR_protein|mol2

> <Gold.PLP.Fitness>
45.6733

> <Gold.PLP.PLP>
-33.3388

> <Gold.PLP.part.hbond>
-4.0000

> <Gold.PLP.part.metal>
0.0000

> <Gold.PLP.part.buried>
-6.8345

> <Gold.PLP.part.nonpolar>
-23.5722

> <Gold.PLP.part.repulsive>
0.3566

> <Gold.PLP.ligand.clash>
0.0000

> <Gold.PLP.ligand.torsion>
1.1960

> <Gold.PLP.Chemscore.Hbond>
3.7920

> <Gold.PLP.Chemscore.CHOScore>
1.0000

> <Gold.PLP.Chemscore.Metal>
0.0000

> <Gold.Chemscore.Hbonds>
donor molecule, donor type, donor heavy atom, donor atom, acceptor molecule, acceptor atom, score
      L1  H    23    47       P1 10747  0.86
      P1  H  6896  6908       L1    13  0.39
      P1  H  6931  6943       L1     1  0.09
      P1  H  6934  6947       L1     1  1.00
      L1  C    19    43       P1 10957  0.42

> <Gold.PLP.Chemscore.Internal.Correction>
0.3506

> <Gold.Rescore>
     Score         DG    S(hbond)    S(metal)    S(lipo)     H(rot)  DE(clash)    DE(int)     intcor
     15.21     -17.97       3.30        0.00      71.23       2.68       0.03       2.73       ----

> <Gold.Chemscore.Fitness>
15.2121

> <Gold.Chemscore.DG>
-17.9736

> <Gold.Chemscore.ZeroCoef>
-5.4800

> <Gold.Chemscore.Hbond>
3.2965

> <Gold.Chemscore.Metal>
0.0000

> <Gold.Chemscore.Lipo>
71.2293

> <Gold.Chemscore.Internal_Hbond>
0.0000

> <Gold.Chemscore.DEClash>
0.0348

> <Gold.Chemscore.DEInternal>
2.7267

> <Gold.Chemscore.Rot>
2.6760

> <Gold.Chemscore.Internal.Correction>
   9.000000E+99

> <Gold.Chemscore.Hbonds>
donor molecule, donor type, donor heavy atom, donor atom, acceptor molecule, acceptor atom, score
      L1  H    23    47       P1 10747  0.79
      P1  H  6896  6908       L1    13  0.02
      P1  H  6934  6947       L1     1  0.62

> <Gold.Chemscore.Hbond.Weighted>
-11.0104

> <Gold.Chemscore.Metal.Weighted>
-0.0000

> <Gold.Chemscore.Lipo.Weighted>
-8.3338

> <Gold.Chemscore.Internal_Hbond.Weighted>
0.0000

> <Gold.Chemscore.DEClash.Weighted>
0.0348

> <Gold.Chemscore.DEInternal.Weighted>
2.7267

> <Gold.Chemscore.Rot.Weighted>
6.8506

> <Gold.Chemscore.Internal.Correction.Weighted>
   9.000000E+99

> <Gold.Protein.RotatedTorsions>
[ 6907 6896 6895 6894 ] final  128.02 input  -60.11 | X-H torsion
[ 7974 7965 7964 7962 ] final   55.69 input  175.53 | X-H torsion
[ 8008 7997 7996 7995 ] final   47.48 input   59.86 | X-H torsion
[ 10167 10162 10161 10158 ] final   57.74 input  -65.29 | X-H torsion
[ 10718 10713 10712 10709 ] final  171.89 input   66.30 | X-H torsion
[ 10763 10752 10751 10750 ] final  -55.00 input  -60.55 | X-H torsion
[ 11005 11000 10999 10996 ] final   41.50 input  -57.11 | X-H torsion

> <Gold.Protein.ActiveResidues>
 VAL166  LYS551  ARG553  GLY616  TRP617  ASP618  TYR619  PRO620  LYS621  CYS622 
 ASP623  PHE694  ASN695  SER759  ASP760  ASP761  ALA762  ILE779  LEU786  VAL792 
 PHE793  MET794  SER795  GLU796  ALA797  LYS798  CYS799  TRP800  GLU811  SER814 

> <Gold.Protein.RotatedAtoms>
  152.3759  133.6480  159.6122 H   0  0  0  0  0  0  0  0  0  0  0  0  # atno 6907 bound_to 6896
  150.7703  133.9194  159.3402 H   0  0  0  0  0  0  0  0  0  0  0  0  # atno 6908 bound_to 6896
  151.7009  135.0931  160.0302 H   0  0  0  0  0  0  0  0  0  0  0  0  # atno 6909 bound_to 6896
  145.9477  139.3944  143.0325 H   0  0  0  0  0  0  0  0  0  0  0  0  # atno 7974 bound_to 7965
  155.3698  140.3423  155.4243 H   0  0  0  0  0  0  0  0  0  0  0  0  # atno 8008 bound_to 7997
  156.1668  140.1619  156.8551 H   0  0  0  0  0  0  0  0  0  0  0  0  # atno 8009 bound_to 7997
  154.5193  140.0771  156.8124 H   0  0  0  0  0  0  0  0  0  0  0  0  # atno 8010 bound_to 7997
  140.1947  144.4049  150.6555 H   0  0  0  0  0  0  0  0  0  0  0  0  # atno 10167 bound_to 10162
  156.9870  131.0136  151.2867 H   0  0  0  0  0  0  0  0  0  0  0  0  # atno 10718 bound_to 10713
  154.1838  135.6439  153.5041 H   0  0  0  0  0  0  0  0  0  0  0  0  # atno 10763 bound_to 10752
  153.0052  135.5412  154.6487 H   0  0  0  0  0  0  0  0  0  0  0  0  # atno 10764 bound_to 10752
  154.5858  135.2929  155.0659 H   0  0  0  0  0  0  0  0  0  0  0  0  # atno 10765 bound_to 10752
  140.1829  134.4082  155.8190 H   0  0  0  0  0  0  0  0  0  0  0  0  # atno 11005 bound_to 11000
  145.8213  140.9677  143.0897 LP  0  0  0  0  0  0  0  0  0  0  0  0  # atno 17320 bound_to 7965
  144.6790  140.0045  143.7484 LP  0  0  0  0  0  0  0  0  0  0  0  0  # atno 17321 bound_to 7965
  140.6432  143.2208  151.6245 LP  0  0  0  0  0  0  0  0  0  0  0  0  # atno 17342 bound_to 10162
  139.5241  144.3112  152.0991 LP  0  0  0  0  0  0  0  0  0  0  0  0  # atno 17343 bound_to 10162
  157.5486  130.8167  149.8117 LP  0  0  0  0  0  0  0  0  0  0  0  0  # atno 17370 bound_to 10713
  156.0222  130.3791  150.1928 LP  0  0  0  0  0  0  0  0  0  0  0  0  # atno 17371 bound_to 10713
  141.2224  133.7009  156.7961 LP  0  0  0  0  0  0  0  0  0  0  0  0  # atno 17394 bound_to 11000
  140.2247  134.8731  157.3414 LP  0  0  0  0  0  0  0  0  0  0  0  0  # atno 17395 bound_to 11000

$$$$
