AV-unprocessed.smi:1998|AV-procd|sdf|8090|dock4
  -GOLD-   2272010303D 1   1.00000     0.00000
 Structure written by MMmdl.
 47 48  0  0  0  0  0  0  0  0  1 V2000
  153.3722  132.5524  164.6653 C   0  0  0  0  0  0  0  0  0  0  0  0
  153.7376  133.8586  164.0240 C   0  0  0  0  0  0  0  0  0  0  0  0
  153.7800  135.1493  164.6212 C   0  0  0  0  0  0  0  0  0  0  0  0
  154.1537  135.9806  163.6035 C   0  0  0  0  0  0  0  0  0  0  0  0
  154.3696  137.4586  163.5989 C   0  0  0  0  0  0  0  0  0  0  0  0
  154.3203  135.1901  162.4795 N   0  0  0  0  0  0  0  0  0  0  0  0
  154.7326  135.5781  161.1369 C   0  0  0  0  0  0  0  0  0  0  0  0
  153.8833  136.7397  160.6185 C   0  0  0  0  0  0  0  0  0  0  0  0
  152.7217  136.5456  160.2616 O   0  0  0  0  0  0  0  0  0  0  0  0
  154.4698  137.9456  160.6221 N   0  0  0  0  0  0  0  0  0  0  0  0
  153.8093  139.2278  160.3897 C   0  0  0  0  0  0  0  0  0  0  0  0
  154.7172  140.4323  160.7827 C   0  0  0  0  0  0  0  0  0  0  0  0
  155.2871  140.1424  162.1916 C   0  0  0  0  0  0  0  0  0  0  0  0
  155.9147  140.4262  159.7983 C   0  0  0  0  0  0  0  0  0  0  0  0
  153.9723  141.7207  160.7078 N   0  0  0  0  0  0  0  0  0  0  0  0
  153.0198  141.8186  159.5962 C   0  0  0  0  0  0  0  0  0  0  0  0
  152.4002  143.2213  159.4916 C   0  0  0  0  0  0  0  0  0  0  0  0
  151.7717  143.5618  160.7217 O   0  0  0  0  0  0  0  0  0  0  0  0
  152.6719  143.5266  161.8228 C   0  0  0  0  0  0  0  0  0  0  0  0
  153.2940  142.1247  161.9434 C   0  0  0  0  0  0  0  0  0  0  0  0
  154.0651  133.8888  162.7425 N   0  0  0  0  0  0  0  0  0  0  0  0
  153.2318  132.6678  165.7401 H   0  0  0  0  0  0  0  0  0  0  0  0
  154.1496  131.8044  164.5135 H   0  0  0  0  0  0  0  0  0  0  0  0
  152.4445  132.1582  164.2497 H   0  0  0  0  0  0  0  0  0  0  0  0
  153.5639  135.4239  165.6430 H   0  0  0  0  0  0  0  0  0  0  0  0
  154.1817  137.8823  164.5856 H   0  0  0  0  0  0  0  0  0  0  0  0
  153.6997  137.9472  162.8913 H   0  0  0  0  0  0  0  0  0  0  0  0
  155.3947  137.7035  163.3207 H   0  0  0  0  0  0  0  0  0  0  0  0
  155.7851  135.8655  161.1435 H   0  0  0  0  0  0  0  0  0  0  0  0
  154.6392  134.7165  160.4751 H   0  0  0  0  0  0  0  0  0  0  0  0
  155.4298  137.9904  160.9325 H   0  0  0  0  0  0  0  0  0  0  0  0
  153.5372  139.2728  159.3353 H   0  0  0  0  0  0  0  0  0  0  0  0
  152.8568  139.2734  160.9209 H   0  0  0  0  0  0  0  0  0  0  0  0
  155.8411  139.2031  162.2022 H   0  0  0  0  0  0  0  0  0  0  0  0
  154.5024  140.0520  162.9423 H   0  0  0  0  0  0  0  0  0  0  0  0
  155.9761  140.9184  162.5244 H   0  0  0  0  0  0  0  0  0  0  0  0
  156.3463  139.4298  159.6966 H   0  0  0  0  0  0  0  0  0  0  0  0
  156.7247  141.0755  160.1307 H   0  0  0  0  0  0  0  0  0  0  0  0
  155.6193  140.7567  158.8022 H   0  0  0  0  0  0  0  0  0  0  0  0
  153.5027  141.5972  158.6462 H   0  0  0  0  0  0  0  0  0  0  0  0
  152.2190  141.0897  159.7215 H   0  0  0  0  0  0  0  0  0  0  0  0
  153.1642  143.9589  159.2445 H   0  0  0  0  0  0  0  0  0  0  0  0
  151.6587  143.2492  158.6931 H   0  0  0  0  0  0  0  0  0  0  0  0
  153.4485  144.2816  161.6928 H   0  0  0  0  0  0  0  0  0  0  0  0
  152.1294  143.7797  162.7338 H   0  0  0  0  0  0  0  0  0  0  0  0
  152.5116  141.4088  162.1958 H   0  0  0  0  0  0  0  0  0  0  0  0
  153.9888  142.1446  162.7808 H   0  0  0  0  0  0  0  0  0  0  0  0
  1  2  1  0  0  0  0
  1 22  1  0  0  0  0
  1 23  1  0  0  0  0
  1 24  1  0  0  0  0
  2 21  2  0  0  0  0
  2  3  1  0  0  0  0
  3  4  2  0  0  0  0
  3 25  1  0  0  0  0
  4  5  1  0  0  0  0
  4  6  1  0  0  0  0
  5 26  1  0  0  0  0
  5 27  1  0  0  0  0
  5 28  1  0  0  0  0
  6  7  1  0  0  0  0
  6 21  1  0  0  0  0
  7  8  1  0  0  0  0
  7 29  1  0  0  0  0
  7 30  1  0  0  0  0
  8  9  2  0  0  0  0
  8 10  1  0  0  0  0
 10 11  1  0  0  0  0
 10 31  1  0  0  0  0
 11 12  1  0  0  0  0
 11 32  1  0  0  0  0
 11 33  1  0  0  0  0
 12 13  1  0  0  0  0
 12 14  1  0  0  0  0
 12 15  1  0  0  0  0
 13 34  1  0  0  0  0
 13 35  1  0  0  0  0
 13 36  1  0  0  0  0
 14 37  1  0  0  0  0
 14 38  1  0  0  0  0
 14 39  1  0  0  0  0
 15 20  1  0  0  0  0
 15 16  1  0  0  0  0
 16 17  1  0  0  0  0
 16 40  1  0  0  0  0
 16 41  1  0  0  0  0
 17 18  1  0  0  0  0
 17 42  1  0  0  0  0
 17 43  1  0  0  0  0
 18 19  1  0  0  0  0
 19 20  1  0  0  0  0
 19 44  1  0  0  0  0
 19 45  1  0  0  0  0
 20 46  1  0  0  0  0
 20 47  1  0  0  0  0
M  END
> <s_m_source_file>
AV-unprocessed.smi

> <i_m_source_file_index>
1998

> <i_lp_mmshare_version>
43012

> <i_f3d_flags>
0

> <s_epik_input>
W0NIM11jMVtjSF1jKFtDSDNdKW4objEpW0NIMl1DKD1PKVtOSF1bQ0gyXUMoW0NIM10pKFtDSDNdKU4yW0NIMl1bQ0gyXU9bQ0gyXVtDSDJdMg==

> <s_epik_cmdline>
J2VwaWtfcHl0aG9uJywgJy1waCcsICc3LjAnLCAnLXRuJywgJzgnLCAnLW1hJywgJzIwMCcsICctbWV0YWxfYmluZGluZycsICctaW1hZScsICc8aW5maWxlLm1hZT4nLCAnLW9tYWUnLCAnPG91dGZpbGUubWFlPic=

> <r_lp_tautomer_probability>
1

> <r_epik_Ionization_Penalty>
0.197271

> <r_epik_Ionization_Penalty_Charging>
0

> <r_epik_Ionization_Penalty_Neutral>
0.197271

> <r_epik_State_Penalty>
0.186684

> <r_epik_Charging_Adjusted_Penalty>
0.186684

> <i_epik_Tot_Q>
0

> <i_epik_Tot_abs_Q>
0

> <r_epik_Metal_State_Penalty>
0.186642

> <b_epik_Metal_Only>
0

> <s_lp_Force_Field>
OPLS_2005

> <r_lp_Energy>
37.8286

> <b_lp_Chiralities_Consistent>
1

> <s_lp_Variant>
AV-unprocessed.smi:1998-1

> <Gold.Version>
5.8.1

> <Gold.Id.Protein>
6NUR|6NUR_protein|mol2

> <Gold.PLP.Fitness>
43.3946

> <Gold.PLP.PLP>
-42.8175

> <Gold.PLP.part.hbond>
-1.2710

> <Gold.PLP.part.metal>
0.0000

> <Gold.PLP.part.buried>
-3.5567

> <Gold.PLP.part.nonpolar>
-37.3009

> <Gold.PLP.part.repulsive>
0.0921

> <Gold.PLP.ligand.clash>
0.0000

> <Gold.PLP.ligand.torsion>
1.2538

> <Gold.PLP.Chemscore.Hbond>
1.0000

> <Gold.PLP.Chemscore.CHOScore>
0.0000

> <Gold.PLP.Chemscore.Metal>
0.0000

> <Gold.Chemscore.Hbonds>
donor molecule, donor type, donor heavy atom, donor atom, acceptor molecule, acceptor atom, score
      P1  H  6896  6907       L1     9  1.00

> <Gold.PLP.Chemscore.Internal.Correction>
0.0848

> <Gold.Rescore>
     Score         DG    S(hbond)    S(metal)    S(lipo)     H(rot)  DE(clash)    DE(int)     intcor
     17.84     -18.41       1.00        0.00     118.45       1.67       0.04       0.52       ----

> <Gold.Chemscore.Fitness>
17.8412

> <Gold.Chemscore.DG>
-18.4090

> <Gold.Chemscore.ZeroCoef>
-5.4800

> <Gold.Chemscore.Hbond>
0.9992

> <Gold.Chemscore.Metal>
0.0000

> <Gold.Chemscore.Lipo>
118.4455

> <Gold.Chemscore.Internal_Hbond>
0.0000

> <Gold.Chemscore.DEClash>
0.0440

> <Gold.Chemscore.DEInternal>
0.5237

> <Gold.Chemscore.Rot>
1.6666

> <Gold.Chemscore.Internal.Correction>
   9.000000E+99

> <Gold.Chemscore.Hbonds>
donor molecule, donor type, donor heavy atom, donor atom, acceptor molecule, acceptor atom, score
      P1  H  6896  6907       L1     9  1.00

> <Gold.Chemscore.Hbond.Weighted>
-3.3374

> <Gold.Chemscore.Metal.Weighted>
-0.0000

> <Gold.Chemscore.Lipo.Weighted>
-13.8581

> <Gold.Chemscore.Internal_Hbond.Weighted>
0.0000

> <Gold.Chemscore.DEClash.Weighted>
0.0440

> <Gold.Chemscore.DEInternal.Weighted>
0.5237

> <Gold.Chemscore.Rot.Weighted>
4.2666

> <Gold.Chemscore.Internal.Correction.Weighted>
   9.000000E+99

> <Gold.Protein.RotatedTorsions>
[ 6907 6896 6895 6894 ] final   23.60 input  -60.11 | X-H torsion
[ 7974 7965 7964 7962 ] final  -38.19 input  175.53 | X-H torsion
[ 8008 7997 7996 7995 ] final   68.85 input   59.86 | X-H torsion
[ 10167 10162 10161 10158 ] final   -2.19 input  -65.29 | X-H torsion
[ 10718 10713 10712 10709 ] final   78.37 input   66.30 | X-H torsion
[ 10763 10752 10751 10750 ] final  178.31 input  -60.55 | X-H torsion
[ 11005 11000 10999 10996 ] final  -87.73 input  -57.11 | X-H torsion

> <Gold.Protein.ActiveResidues>
 VAL166  LYS551  ARG553  GLY616  TRP617  ASP618  TYR619  PRO620  LYS621  CYS622 
 ASP623  PHE694  ASN695  SER759  ASP760  ASP761  ALA762  ILE779  LEU786  VAL792 
 PHE793  MET794  SER795  GLU796  ALA797  LYS798  CYS799  TRP800  GLU811  SER814 

> <Gold.Protein.RotatedAtoms>
  151.9448  135.0196  160.0537 H   0  0  0  0  0  0  0  0  0  0  0  0  # atno 6907 bound_to 6896
  152.2005  133.4833  159.5064 H   0  0  0  0  0  0  0  0  0  0  0  0  # atno 6908 bound_to 6896
  150.6953  134.1514  159.4184 H   0  0  0  0  0  0  0  0  0  0  0  0  # atno 6909 bound_to 6896
  146.0509  140.6483  142.9042 H   0  0  0  0  0  0  0  0  0  0  0  0  # atno 7974 bound_to 7965
  155.7146  140.3494  155.4989 H   0  0  0  0  0  0  0  0  0  0  0  0  # atno 8008 bound_to 7997
  155.9325  140.1087  157.1143 H   0  0  0  0  0  0  0  0  0  0  0  0  # atno 8009 bound_to 7997
  154.4088  140.1228  156.4808 H   0  0  0  0  0  0  0  0  0  0  0  0  # atno 8010 bound_to 7997
  140.6841  143.6687  150.8204 H   0  0  0  0  0  0  0  0  0  0  0  0  # atno 10167 bound_to 10162
  157.6742  130.9865  150.1776 H   0  0  0  0  0  0  0  0  0  0  0  0  # atno 10718 bound_to 10713
  154.5060  135.2786  155.1382 H   0  0  0  0  0  0  0  0  0  0  0  0  # atno 10763 bound_to 10752
  154.2996  135.6250  153.5423 H   0  0  0  0  0  0  0  0  0  0  0  0  # atno 10764 bound_to 10752
  152.9910  135.5693  154.5514 H   0  0  0  0  0  0  0  0  0  0  0  0  # atno 10765 bound_to 10752
  141.1612  133.7528  156.9348 H   0  0  0  0  0  0  0  0  0  0  0  0  # atno 11005 bound_to 11000
  144.7122  140.4080  143.7072 LP  0  0  0  0  0  0  0  0  0  0  0  0  # atno 17320 bound_to 7965
  145.6726  139.1602  143.2746 LP  0  0  0  0  0  0  0  0  0  0  0  0  # atno 17321 bound_to 7965
  140.0391  143.5364  152.2726 LP  0  0  0  0  0  0  0  0  0  0  0  0  # atno 17342 bound_to 10162
  139.6185  144.7624  151.2793 LP  0  0  0  0  0  0  0  0  0  0  0  0  # atno 17343 bound_to 10162
  156.2516  130.3701  149.8226 LP  0  0  0  0  0  0  0  0  0  0  0  0  # atno 17370 bound_to 10713
  156.5997  130.8541  151.3429 LP  0  0  0  0  0  0  0  0  0  0  0  0  # atno 17371 bound_to 10713
  140.1361  134.9324  157.2404 LP  0  0  0  0  0  0  0  0  0  0  0  0  # atno 17394 bound_to 11000
  140.2893  134.3259  155.7320 LP  0  0  0  0  0  0  0  0  0  0  0  0  # atno 17395 bound_to 11000

$$$$
