AV-unprocessed.smi:26|AV-procd|sdf|186|dock1
  -GOLD-   2262015453D 1   1.00000     0.00000
 Structure written by MMmdl.
 58 61  0  0  0  0  0  0  0  0  1 V2000
  148.5222  142.2417  157.8651 C   0  0  0  0  0  0  0  0  0  0  0  0
  149.1935  140.9093  157.9762 C   0  0  0  0  0  0  0  0  0  0  0  0
  148.6396  139.7014  158.2777 C   0  0  0  0  0  0  0  0  0  0  0  0
  149.6660  138.7194  158.2793 C   0  0  0  0  0  0  0  0  0  0  0  0
  149.5497  137.2682  158.5781 C   0  0  0  0  0  0  0  0  0  0  0  0
  150.5128  136.5617  158.8806 O   0  0  0  0  0  0  0  0  0  0  0  0
  148.1297  136.6769  158.4934 C   0  0  0  0  0  0  0  0  0  0  0  0
  147.8251  135.7629  159.5879 N   0  0  0  0  0  0  0  0  0  0  0  0
  147.7152  136.3075  160.8923 C   0  0  0  0  0  0  0  0  0  0  0  0
  147.8667  137.5101  161.1146 O   0  0  0  0  0  0  0  0  0  0  0  0
  147.4260  135.3296  161.9354 C   0  0  0  0  0  0  0  0  0  0  0  0
  147.3035  135.7349  163.2108 F   0  0  0  0  0  0  0  0  0  0  0  0
  147.2833  134.0192  161.6426 C   0  0  0  0  0  0  0  0  0  0  0  0
  147.3975  133.5144  160.3583 N   0  0  0  0  0  0  0  0  0  0  0  0
  147.2516  132.0346  160.0839 C   0  0  1  0  0  0  0  0  0  0  0  0
  148.3074  131.2440  160.8651 C   0  0  0  0  0  0  0  0  0  0  0  0
  147.5378  130.8240  162.0989 C   0  0  0  0  0  0  0  0  0  0  0  0
  146.1390  130.6151  161.5312 C   0  0  0  0  0  0  0  0  0  0  0  0
  145.9926  131.6125  160.5243 O   0  0  0  0  0  0  0  0  0  0  0  0
  147.6923  134.3856  159.2867 C   0  0  0  0  0  0  0  0  0  0  0  0
  147.8418  133.9529  158.1417 O   0  0  0  0  0  0  0  0  0  0  0  0
  150.8433  139.3543  157.9544 C   0  0  0  0  0  0  0  0  0  0  0  0
  152.2245  138.7774  157.8049 C   0  0  0  0  0  0  0  0  0  0  0  0
  150.5599  140.7167  157.7776 N   0  0  0  0  0  0  0  0  0  0  0  0
  151.5108  141.7902  157.4460 C   0  0  1  0  0  0  0  0  0  0  0  0
  151.0230  142.6197  156.2406 C   0  0  0  0  0  0  0  0  0  0  0  0
  151.9466  142.5822  158.6831 C   0  0  0  0  0  0  0  0  0  0  0  0
  152.5194  141.8908  159.7747 C   0  0  0  0  0  0  0  0  0  0  0  0
  152.9423  142.5860  160.9239 C   0  0  0  0  0  0  0  0  0  0  0  0
  152.8019  143.9843  160.9920 C   0  0  0  0  0  0  0  0  0  0  0  0
  152.2407  144.6851  159.9085 C   0  0  0  0  0  0  0  0  0  0  0  0
  151.8183  143.9899  158.7587 C   0  0  0  0  0  0  0  0  0  0  0  0
  147.4544  142.1564  158.0680 H   0  0  0  0  0  0  0  0  0  0  0  0
  148.6354  142.6545  156.8624 H   0  0  0  0  0  0  0  0  0  0  0  0
  148.9388  142.9507  158.5811 H   0  0  0  0  0  0  0  0  0  0  0  0
  147.5917  139.5440  158.4871 H   0  0  0  0  0  0  0  0  0  0  0  0
  147.3750  137.4649  158.4952 H   0  0  0  0  0  0  0  0  0  0  0  0
  147.9863  136.1419  157.5534 H   0  0  0  0  0  0  0  0  0  0  0  0
  147.0771  133.3432  162.4589 H   0  0  0  0  0  0  0  0  0  0  0  0
  147.3184  131.9119  159.0018 H   0  0  0  0  0  0  0  0  0  0  0  0
  148.5930  130.3706  160.2775 H   0  0  0  0  0  0  0  0  0  0  0  0
  149.1993  131.8353  161.0760 H   0  0  0  0  0  0  0  0  0  0  0  0
  147.9431  129.9300  162.5730 H   0  0  0  0  0  0  0  0  0  0  0  0
  147.5326  131.6294  162.8343 H   0  0  0  0  0  0  0  0  0  0  0  0
  146.0617  129.6316  161.0657 H   0  0  0  0  0  0  0  0  0  0  0  0
  145.3603  130.6945  162.2900 H   0  0  0  0  0  0  0  0  0  0  0  0
  152.2106  137.9191  157.1332 H   0  0  0  0  0  0  0  0  0  0  0  0
  152.6042  138.4414  158.7697 H   0  0  0  0  0  0  0  0  0  0  0  0
  152.9487  139.4738  157.3954 H   0  0  0  0  0  0  0  0  0  0  0  0
  152.4372  141.3310  157.1076 H   0  0  0  0  0  0  0  0  0  0  0  0
  151.7973  143.3054  155.8960 H   0  0  0  0  0  0  0  0  0  0  0  0
  150.1341  143.2080  156.4629 H   0  0  0  0  0  0  0  0  0  0  0  0
  150.7780  141.9678  155.4015 H   0  0  0  0  0  0  0  0  0  0  0  0
  152.6360  140.8176  159.7349 H   0  0  0  0  0  0  0  0  0  0  0  0
  153.3751  142.0458  161.7528 H   0  0  0  0  0  0  0  0  0  0  0  0
  153.1259  144.5184  161.8729 H   0  0  0  0  0  0  0  0  0  0  0  0
  152.1344  145.7588  159.9582 H   0  0  0  0  0  0  0  0  0  0  0  0
  151.3926  144.5567  157.9451 H   0  0  0  0  0  0  0  0  0  0  0  0
  1  2  1  0  0  0  0
  1 33  1  0  0  0  0
  1 34  1  0  0  0  0
  1 35  1  0  0  0  0
  2 24  1  0  0  0  0
  2  3  2  0  0  0  0
  3  4  1  0  0  0  0
  3 36  1  0  0  0  0
  4  5  1  0  0  0  0
  4 22  2  0  0  0  0
  5  6  2  0  0  0  0
  5  7  1  0  0  0  0
  7  8  1  0  0  0  0
  7 37  1  0  0  0  0
  7 38  1  0  0  0  0
  8 20  1  0  0  0  0
  8  9  1  0  0  0  0
  9 10  2  0  0  0  0
  9 11  1  0  0  0  0
 11 12  1  0  0  0  0
 11 13  2  0  0  0  0
 13 14  1  0  0  0  0
 13 39  1  0  0  0  0
 14 15  1  0  0  0  0
 14 20  1  0  0  0  0
 15 19  1  0  0  0  0
 15 16  1  0  0  0  0
 15 40  1  0  0  0  0
 16 17  1  0  0  0  0
 16 41  1  0  0  0  0
 16 42  1  0  0  0  0
 17 18  1  0  0  0  0
 17 43  1  0  0  0  0
 17 44  1  0  0  0  0
 18 19  1  0  0  0  0
 18 45  1  0  0  0  0
 18 46  1  0  0  0  0
 20 21  2  0  0  0  0
 22 23  1  0  0  0  0
 22 24  1  0  0  0  0
 23 47  1  0  0  0  0
 23 48  1  0  0  0  0
 23 49  1  0  0  0  0
 24 25  1  0  0  0  0
 25 26  1  0  0  0  0
 25 27  1  0  0  0  0
 25 50  1  0  0  0  0
 26 51  1  0  0  0  0
 26 52  1  0  0  0  0
 26 53  1  0  0  0  0
 27 32  1  0  0  0  0
 27 28  2  0  0  0  0
 28 29  1  0  0  0  0
 28 54  1  0  0  0  0
 29 30  2  0  0  0  0
 29 55  1  0  0  0  0
 30 31  1  0  0  0  0
 30 56  1  0  0  0  0
 31 32  2  0  0  0  0
 31 57  1  0  0  0  0
 32 58  1  0  0  0  0
M  END
> <s_m_source_file>
AV-unprocessed.smi

> <i_m_source_file_index>
26

> <i_lp_mmshare_version>
43012

> <i_f3d_flags>
0

> <s_epik_input>
W2NIXTFbY0hdW2NIXVtjSF1bY0hdYzFbQ0BASF0oW0NIM10pbjJjKFtDSDNdKWMoW2NIXWMyW0NIM10pQyg9TylbQ0gyXW4zYyg9TyljKEYpW2NIXW4oYzM9TylbQ0BASF00W0NIMl1bQ0gyXVtDSDJdTzQ=

> <s_epik_cmdline>
J2VwaWtfcHl0aG9uJywgJy1waCcsICc3LjAnLCAnLXRuJywgJzgnLCAnLW1hJywgJzIwMCcsICctbWV0YWxfYmluZGluZycsICctaW1hZScsICc8aW5maWxlLm1hZT4nLCAnLW9tYWUnLCAnPG91dGZpbGUubWFlPic=

> <r_lp_tautomer_probability>
1

> <r_epik_Ionization_Penalty>
5.02402e-09

> <r_epik_Ionization_Penalty_Charging>
5.01743e-09

> <r_epik_Ionization_Penalty_Neutral>
6.58831e-12

> <r_epik_State_Penalty>
-0

> <r_epik_Charging_Adjusted_Penalty>
5.01743e-09

> <i_epik_Tot_Q>
0

> <i_epik_Tot_abs_Q>
0

> <r_epik_Metal_State_Penalty>
-0

> <b_epik_Metal_Only>
0

> <s_epik_Chemistry_Notes>
This compound contains an acetal/aminal-like group ( X-CH(R)-Y where X, Y are N, S, or O) that may be acid/base labile, releasing an aldehyde.

> <s_lp_Force_Field>
OPLS_2005

> <r_lp_Energy>
50.594

> <b_lp_Chiralities_Consistent>
1

> <s_lp_Variant>
AV-unprocessed.smi:26-4

> <Gold.Version>
5.8.1

> <Gold.Id.Protein>
6NUR|6NUR_protein|mol2

> <Gold.PLP.Fitness>
62.2073

> <Gold.PLP.PLP>
-55.4070

> <Gold.PLP.part.hbond>
-3.0000

> <Gold.PLP.part.metal>
0.0000

> <Gold.PLP.part.buried>
-6.2770

> <Gold.PLP.part.nonpolar>
-46.4488

> <Gold.PLP.part.repulsive>
0.0000

> <Gold.PLP.ligand.clash>
0.0000

> <Gold.PLP.ligand.torsion>
0.8784

> <Gold.PLP.Chemscore.Hbond>
2.6720

> <Gold.PLP.Chemscore.CHOScore>
0.0000

> <Gold.PLP.Chemscore.Metal>
0.0000

> <Gold.Chemscore.Hbonds>
donor molecule, donor type, donor heavy atom, donor atom, acceptor molecule, acceptor atom, score
      P1  H  6896  6908       L1     6  1.00
      P1  H  6931  6943       L1    10  0.78
      P1  H  6934  6947       L1    10  0.70

> <Gold.PLP.Chemscore.Internal.Correction>
0.5412

> <Gold.Rescore>
     Score         DG    S(hbond)    S(metal)    S(lipo)     H(rot)  DE(clash)    DE(int)     intcor
     20.03     -24.78       2.61        0.00     130.59       1.84       1.69       3.06       ----

> <Gold.Chemscore.Fitness>
20.0294

> <Gold.Chemscore.DG>
-24.7833

> <Gold.Chemscore.ZeroCoef>
-5.4800

> <Gold.Chemscore.Hbond>
2.6120

> <Gold.Chemscore.Metal>
0.0000

> <Gold.Chemscore.Lipo>
130.5910

> <Gold.Chemscore.Internal_Hbond>
0.0000

> <Gold.Chemscore.DEClash>
1.6946

> <Gold.Chemscore.DEInternal>
3.0593

> <Gold.Chemscore.Rot>
1.8359

> <Gold.Chemscore.Internal.Correction>
   9.000000E+99

> <Gold.Chemscore.Hbonds>
donor molecule, donor type, donor heavy atom, donor atom, acceptor molecule, acceptor atom, score
      P1  H  6896  6908       L1     6  0.99
      P1  H  6931  6943       L1    10  0.76
      P1  H  6934  6947       L1    10  0.70

> <Gold.Chemscore.Hbond.Weighted>
-8.7241

> <Gold.Chemscore.Metal.Weighted>
-0.0000

> <Gold.Chemscore.Lipo.Weighted>
-15.2792

> <Gold.Chemscore.Internal_Hbond.Weighted>
0.0000

> <Gold.Chemscore.DEClash.Weighted>
1.6946

> <Gold.Chemscore.DEInternal.Weighted>
3.0593

> <Gold.Chemscore.Rot.Weighted>
4.7000

> <Gold.Chemscore.Internal.Correction.Weighted>
   9.000000E+99

> <Gold.Protein.RotatedTorsions>
[ 6907 6896 6895 6894 ] final -155.76 input  -60.11 | X-H torsion
[ 7974 7965 7964 7962 ] final  -15.23 input  175.53 | X-H torsion
[ 8008 7997 7996 7995 ] final   66.85 input   59.86 | X-H torsion
[ 10167 10162 10161 10158 ] final -139.31 input  -65.29 | X-H torsion
[ 10718 10713 10712 10709 ] final   85.28 input   66.30 | X-H torsion
[ 10763 10752 10751 10750 ] final -113.23 input  -60.55 | X-H torsion
[ 11005 11000 10999 10996 ] final   19.06 input  -57.11 | X-H torsion

> <Gold.Protein.ActiveResidues>
 VAL166  LYS551  ARG553  GLY616  TRP617  ASP618  TYR619  PRO620  LYS621  CYS622 
 ASP623  PHE694  ASN695  SER759  ASP760  ASP761  ALA762  ILE779  LEU786  VAL792 
 PHE793  MET794  SER795  GLU796  ALA797  LYS798  CYS799  TRP800  GLU811  SER814 

> <Gold.Protein.RotatedAtoms>
  151.2774  133.4226  159.2624 H   0  0  0  0  0  0  0  0  0  0  0  0  # atno 6907 bound_to 6896
  151.0391  134.9595  159.8162 H   0  0  0  0  0  0  0  0  0  0  0  0  # atno 6908 bound_to 6896
  152.5361  134.2732  159.9032 H   0  0  0  0  0  0  0  0  0  0  0  0  # atno 6909 bound_to 6896
  146.2041  140.3463  142.8413 H   0  0  0  0  0  0  0  0  0  0  0  0  # atno 7974 bound_to 7965
  155.6838  140.3496  155.4866 H   0  0  0  0  0  0  0  0  0  0  0  0  # atno 8008 bound_to 7997
  155.9584  140.1132  157.0939 H   0  0  0  0  0  0  0  0  0  0  0  0  # atno 8009 bound_to 7997
  154.4137  140.1180  156.5132 H   0  0  0  0  0  0  0  0  0  0  0  0  # atno 8010 bound_to 7997
  139.8392  143.7344  152.2664 H   0  0  0  0  0  0  0  0  0  0  0  0  # atno 10167 bound_to 10162
  157.6912  131.0168  150.2798 H   0  0  0  0  0  0  0  0  0  0  0  0  # atno 10718 bound_to 10713
  154.8387  135.4462  154.1317 H   0  0  0  0  0  0  0  0  0  0  0  0  # atno 10763 bound_to 10752
  153.2526  135.6928  153.7669 H   0  0  0  0  0  0  0  0  0  0  0  0  # atno 10764 bound_to 10752
  153.6976  135.3377  155.3193 H   0  0  0  0  0  0  0  0  0  0  0  0  # atno 10765 bound_to 10752
  140.4179  134.1550  155.7671 H   0  0  0  0  0  0  0  0  0  0  0  0  # atno 11005 bound_to 11000
  144.8750  140.7324  143.6023 LP  0  0  0  0  0  0  0  0  0  0  0  0  # atno 17320 bound_to 7965
  145.3383  139.1739  143.4500 LP  0  0  0  0  0  0  0  0  0  0  0  0  # atno 17321 bound_to 7965
  139.7576  144.7516  151.0412 LP  0  0  0  0  0  0  0  0  0  0  0  0  # atno 17342 bound_to 10162
  140.7799  143.4788  151.0046 LP  0  0  0  0  0  0  0  0  0  0  0  0  # atno 17343 bound_to 10162
  156.3347  130.3806  149.7461 LP  0  0  0  0  0  0  0  0  0  0  0  0  # atno 17370 bound_to 10713
  156.4989  130.8119  151.3124 LP  0  0  0  0  0  0  0  0  0  0  0  0  # atno 17371 bound_to 10713
  141.1796  133.8442  157.1305 LP  0  0  0  0  0  0  0  0  0  0  0  0  # atno 17394 bound_to 11000
  140.0221  134.9941  157.0613 LP  0  0  0  0  0  0  0  0  0  0  0  0  # atno 17395 bound_to 11000

$$$$
