AV-unprocessed.smi:1100|AV-procd|sdf|4762|dock1
  -GOLD-   22720 3303D 1   1.00000     0.00000
 Structure written by MMmdl.
 44 45  0  0  0  0  0  0  0  0  2 V2000
  150.5767  135.8958  155.1319 C   0  0  0  0  0  0  0  0  0  0  0  0
  149.9218  137.2987  155.0887 C   0  0  1  0  0  0  0  0  0  0  0  0
  150.8919  138.3186  154.4293 C   0  0  0  0  0  0  0  0  0  0  0  0
  150.8476  139.6412  155.0475 N   0  0  0  0  0  0  0  0  0  0  0  0
  151.2451  139.9187  156.2975 C   0  0  0  0  0  0  0  0  0  0  0  0
  151.6788  139.0622  157.0676 O   0  0  0  0  0  0  0  0  0  0  0  0
  151.1039  141.2300  156.5675 N   0  0  0  0  0  0  0  0  0  0  0  0
  151.4592  141.9438  157.7222 C   0  0  0  0  0  0  0  0  0  0  0  0
  152.3111  141.2807  158.6866 C   0  0  0  0  0  0  0  0  0  0  0  0
  152.6862  141.8941  159.8259 C   0  0  0  0  0  0  0  0  0  0  0  0
  152.2503  143.2563  160.1420 C   0  0  0  0  0  0  0  0  0  0  0  0
  152.5899  143.8316  161.1765 O   0  0  0  0  0  0  0  0  0  0  0  0
  151.4419  143.8458  159.2145 N   0  0  0  0  0  0  0  0  0  0  0  0
  150.9454  145.2052  159.4434 C   0  0  0  0  0  0  0  0  0  0  0  0
  151.0547  143.1973  158.0256 C   0  0  0  0  0  0  0  0  0  0  0  0
  148.5890  137.3051  154.3990 N   0  3  0  0  0  0  0  0  0  0  0  0
  147.5218  136.5250  155.0866 C   0  0  0  0  0  0  0  0  0  0  0  0
  146.1978  136.5745  154.3047 C   0  0  0  0  0  0  0  0  0  0  0  0
  145.7970  137.9228  154.1162 O   0  0  0  0  0  0  0  0  0  0  0  0
  146.7542  138.6457  153.3578 C   0  0  0  0  0  0  0  0  0  0  0  0
  148.0909  138.6802  154.1166 C   0  0  0  0  0  0  0  0  0  0  0  0
  151.5641  135.9200  155.5923 H   0  0  0  0  0  0  0  0  0  0  0  0
  150.6943  135.4808  154.1305 H   0  0  0  0  0  0  0  0  0  0  0  0
  149.9977  135.1915  155.7291 H   0  0  0  0  0  0  0  0  0  0  0  0
  149.7481  137.5969  156.1239 H   0  0  0  0  0  0  0  0  0  0  0  0
  151.9160  137.9511  154.5022 H   0  0  0  0  0  0  0  0  0  0  0  0
  150.6919  138.4511  153.3672 H   0  0  0  0  0  0  0  0  0  0  0  0
  150.4992  140.3997  154.4794 H   0  0  0  0  0  0  0  0  0  0  0  0
  150.6925  141.7927  155.8372 H   0  0  0  0  0  0  0  0  0  0  0  0
  152.6558  140.2752  158.4939 H   0  0  0  0  0  0  0  0  0  0  0  0
  153.3227  141.3706  160.5241 H   0  0  0  0  0  0  0  0  0  0  0  0
  150.2693  145.5473  158.6593 H   0  0  0  0  0  0  0  0  0  0  0  0
  151.7755  145.9116  159.4886 H   0  0  0  0  0  0  0  0  0  0  0  0
  150.3988  145.2617  160.3860 H   0  0  0  0  0  0  0  0  0  0  0  0
  150.4078  143.7941  157.4033 H   0  0  0  0  0  0  0  0  0  0  0  0
  147.8021  135.4764  155.1784 H   0  0  0  0  0  0  0  0  0  0  0  0
  147.3765  136.9158  156.0951 H   0  0  0  0  0  0  0  0  0  0  0  0
  146.2955  136.0720  153.3410 H   0  0  0  0  0  0  0  0  0  0  0  0
  145.4177  136.0504  154.8575 H   0  0  0  0  0  0  0  0  0  0  0  0
  146.8751  138.1961  152.3707 H   0  0  0  0  0  0  0  0  0  0  0  0
  146.3854  139.6597  153.2017 H   0  0  0  0  0  0  0  0  0  0  0  0
  147.9676  139.2232  155.0552 H   0  0  0  0  0  0  0  0  0  0  0  0
  148.8007  139.2459  153.5171 H   0  0  0  0  0  0  0  0  0  0  0  0
  148.7295  136.8544  153.5061 H   0  0  0  0  0  0  0  0  0  0  0  0
  1  2  1  0  0  0  0
  1 22  1  0  0  0  0
  1 23  1  0  0  0  0
  1 24  1  0  0  0  0
  2  3  1  0  0  0  0
  2 16  1  0  0  0  0
  2 25  1  0  0  0  0
  3  4  1  0  0  0  0
  3 26  1  0  0  0  0
  3 27  1  0  0  0  0
  4  5  1  0  0  0  0
  4 28  1  0  0  0  0
  5  6  2  0  0  0  0
  5  7  1  0  0  0  0
  7  8  1  0  0  0  0
  7 29  1  0  0  0  0
  8 15  2  0  0  0  0
  8  9  1  0  0  0  0
  9 10  2  0  0  0  0
  9 30  1  0  0  0  0
 10 11  1  0  0  0  0
 10 31  1  0  0  0  0
 11 12  2  0  0  0  0
 11 13  1  0  0  0  0
 13 14  1  0  0  0  0
 13 15  1  0  0  0  0
 14 32  1  0  0  0  0
 14 33  1  0  0  0  0
 14 34  1  0  0  0  0
 15 35  1  0  0  0  0
 16 21  1  0  0  0  0
 16 17  1  0  0  0  0
 16 44  1  0  0  0  0
 17 18  1  0  0  0  0
 17 36  1  0  0  0  0
 17 37  1  0  0  0  0
 18 19  1  0  0  0  0
 18 38  1  0  0  0  0
 18 39  1  0  0  0  0
 19 20  1  0  0  0  0
 20 21  1  0  0  0  0
 20 40  1  0  0  0  0
 20 41  1  0  0  0  0
 21 42  1  0  0  0  0
 21 43  1  0  0  0  0
M  CHG  1  16   1
M  END
> <s_m_source_file>
AV-unprocessed.smi

> <i_m_source_file_index>
1100

> <i_lp_mmshare_version>
43012

> <i_f3d_flags>
0

> <s_epik_input>
W0NIMl0xW0NIMl1PW0NIMl1bQ0gyXU4xW0NASF0oW0NIM10pW0NIMl1bTkhdQyg9TylbTkhdYzJbY0hdW2NIXWMoPU8pbihbQ0gzXSlbY0hdMg==

> <s_epik_cmdline>
J2VwaWtfcHl0aG9uJywgJy1waCcsICc3LjAnLCAnLXRuJywgJzgnLCAnLW1hJywgJzIwMCcsICctbWV0YWxfYmluZGluZycsICctaW1hZScsICc8aW5maWxlLm1hZT4nLCAnLW9tYWUnLCAnPG91dGZpbGUubWFlPic=

> <r_lp_tautomer_probability>
1

> <r_epik_Ionization_Penalty>
0.602556

> <r_epik_Ionization_Penalty_Charging>
0.602536

> <r_epik_Ionization_Penalty_Neutral>
1.99507e-05

> <r_epik_State_Penalty>
0.617039

> <r_epik_Charging_Adjusted_Penalty>
1.21958

> <i_epik_Tot_Q>
1

> <i_epik_Tot_abs_Q>
1

> <r_epik_Metal_State_Penalty>
0.619464

> <b_epik_Metal_Only>
0

> <s_lp_Force_Field>
OPLS_2005

> <r_lp_Energy>
33.6123

> <b_lp_Chiralities_Consistent>
1

> <s_lp_Variant>
AV-unprocessed.smi:1100-4

> <Gold.Version>
5.8.1

> <Gold.Id.Protein>
6NUR|6NUR_protein|mol2

> <Gold.PLP.Fitness>
43.9088

> <Gold.PLP.PLP>
-36.1378

> <Gold.PLP.part.hbond>
-1.0000

> <Gold.PLP.part.metal>
0.0000

> <Gold.PLP.part.buried>
-5.0833

> <Gold.PLP.part.nonpolar>
-30.6297

> <Gold.PLP.part.repulsive>
1.5531

> <Gold.PLP.ligand.clash>
0.0000

> <Gold.PLP.ligand.torsion>
0.6404

> <Gold.PLP.Chemscore.Hbond>
2.0000

> <Gold.PLP.Chemscore.CHOScore>
0.9977

> <Gold.PLP.Chemscore.Metal>
0.0000

> <Gold.Chemscore.Hbonds>
donor molecule, donor type, donor heavy atom, donor atom, acceptor molecule, acceptor atom, score
      L1  H    16    44       P1  7948  2.00
      L1  C    15    35       P1  8028  1.00

> <Gold.PLP.Chemscore.Internal.Correction>
0.0586

> <Gold.Rescore>
     Score         DG    S(hbond)    S(metal)    S(lipo)     H(rot)  DE(clash)    DE(int)     intcor
     11.63     -14.10       1.00        0.00      78.84       1.54       0.21       2.25       ----

> <Gold.Chemscore.Fitness>
11.6322

> <Gold.Chemscore.DG>
-14.1000

> <Gold.Chemscore.ZeroCoef>
-5.4800

> <Gold.Chemscore.Hbond>
0.9994

> <Gold.Chemscore.Metal>
0.0000

> <Gold.Chemscore.Lipo>
78.8379

> <Gold.Chemscore.Internal_Hbond>
0.0000

> <Gold.Chemscore.DEClash>
0.2141

> <Gold.Chemscore.DEInternal>
2.2537

> <Gold.Chemscore.Rot>
1.5398

> <Gold.Chemscore.Internal.Correction>
   9.000000E+99

> <Gold.Chemscore.Hbonds>
donor molecule, donor type, donor heavy atom, donor atom, acceptor molecule, acceptor atom, score
      L1  H    16    44       P1  7948  1.00

> <Gold.Chemscore.Hbond.Weighted>
-3.3379

> <Gold.Chemscore.Metal.Weighted>
-0.0000

> <Gold.Chemscore.Lipo.Weighted>
-9.2240

> <Gold.Chemscore.Internal_Hbond.Weighted>
0.0000

> <Gold.Chemscore.DEClash.Weighted>
0.2141

> <Gold.Chemscore.DEInternal.Weighted>
2.2537

> <Gold.Chemscore.Rot.Weighted>
3.9420

> <Gold.Chemscore.Internal.Correction.Weighted>
   9.000000E+99

> <Gold.Protein.RotatedTorsions>
[ 6907 6896 6895 6894 ] final  -16.30 input  -60.11 | X-H torsion
[ 7974 7965 7964 7962 ] final -125.82 input  175.53 | X-H torsion
[ 8008 7997 7996 7995 ] final  -72.51 input   59.86 | X-H torsion
[ 10167 10162 10161 10158 ] final   67.79 input  -65.29 | X-H torsion
[ 10718 10713 10712 10709 ] final -142.56 input   66.30 | X-H torsion
[ 10763 10752 10751 10750 ] final   22.08 input  -60.55 | X-H torsion
[ 11005 11000 10999 10996 ] final -102.82 input  -57.11 | X-H torsion

> <Gold.Protein.ActiveResidues>
 VAL166  LYS551  ARG553  GLY616  TRP617  ASP618  TYR619  PRO620  LYS621  CYS622 
 ASP623  PHE694  ASN695  SER759  ASP760  ASP761  ALA762  ILE779  LEU786  VAL792 
 PHE793  MET794  SER795  GLU796  ALA797  LYS798  CYS799  TRP800  GLU811  SER814 

> <Gold.Protein.RotatedAtoms>
  151.3107  135.0793  159.9271 H   0  0  0  0  0  0  0  0  0  0  0  0  # atno 6907 bound_to 6896
  152.5278  133.9739  159.7785 H   0  0  0  0  0  0  0  0  0  0  0  0  # atno 6908 bound_to 6896
  151.0042  133.5975  159.2721 H   0  0  0  0  0  0  0  0  0  0  0  0  # atno 6909 bound_to 6896
  144.9936  140.7755  143.4539 H   0  0  0  0  0  0  0  0  0  0  0  0  # atno 7974 bound_to 7965
  154.5172  140.0796  156.8104 H   0  0  0  0  0  0  0  0  0  0  0  0  # atno 8008 bound_to 7997
  155.3654  140.3420  155.4223 H   0  0  0  0  0  0  0  0  0  0  0  0  # atno 8009 bound_to 7997
  156.1641  140.1598  156.8549 H   0  0  0  0  0  0  0  0  0  0  0  0  # atno 8010 bound_to 7997
  140.0857  144.5032  150.7132 H   0  0  0  0  0  0  0  0  0  0  0  0  # atno 10167 bound_to 10162
  156.3474  130.7670  151.1817 H   0  0  0  0  0  0  0  0  0  0  0  0  # atno 10718 bound_to 10713
  153.0944  135.6655  153.9792 H   0  0  0  0  0  0  0  0  0  0  0  0  # atno 10763 bound_to 10752
  153.9380  135.2997  155.3445 H   0  0  0  0  0  0  0  0  0  0  0  0  # atno 10764 bound_to 10752
  154.7361  135.5101  153.9118 H   0  0  0  0  0  0  0  0  0  0  0  0  # atno 10765 bound_to 10752
  141.1173  133.8589  157.1408 H   0  0  0  0  0  0  0  0  0  0  0  0  # atno 11005 bound_to 11000
  145.2251  139.2141  143.5072 LP  0  0  0  0  0  0  0  0  0  0  0  0  # atno 17320 bound_to 7965
  146.3437  140.2117  142.8590 LP  0  0  0  0  0  0  0  0  0  0  0  0  # atno 17321 bound_to 7965
  140.7055  143.2464  151.4740 LP  0  0  0  0  0  0  0  0  0  0  0  0  # atno 17342 bound_to 10162
  139.5753  144.1832  152.1895 LP  0  0  0  0  0  0  0  0  0  0  0  0  # atno 17343 bound_to 10162
  157.7456  131.0437  150.4757 LP  0  0  0  0  0  0  0  0  0  0  0  0  # atno 17370 bound_to 10713
  156.4947  130.4103  149.6386 LP  0  0  0  0  0  0  0  0  0  0  0  0  # atno 17371 bound_to 10713
  140.0104  134.9990  157.0382 LP  0  0  0  0  0  0  0  0  0  0  0  0  # atno 17394 bound_to 11000
  140.4610  134.1484  155.7191 LP  0  0  0  0  0  0  0  0  0  0  0  0  # atno 17395 bound_to 11000

$$$$
