AV-unprocessed.smi:1544|AV-procd|sdf|6212|dock1
  -GOLD-   22720 6383D 1   1.00000     0.00000
 Structure written by MMmdl.
 41 42  0  0  0  0  0  0  0  0  1 V2000
  146.2275  138.5816  154.3738 O   0  0  0  0  0  0  0  0  0  0  0  0
  147.0417  138.1517  153.5571 C   0  0  0  0  0  0  0  0  0  0  0  0
  148.3370  138.5054  153.4943 N   0  0  0  0  0  0  0  0  0  0  0  0
  149.0291  139.4506  154.2985 C   0  0  0  0  0  0  0  0  0  0  0  0
  148.3929  140.4540  155.0672 C   0  0  0  0  0  0  0  0  0  0  0  0
  149.1875  141.3466  155.8116 C   0  0  0  0  0  0  0  0  0  0  0  0
  150.5894  141.2163  155.7612 C   0  0  0  0  0  0  0  0  0  0  0  0
  151.3591  142.0925  156.4979 O   0  0  0  0  0  0  0  0  0  0  0  0
  150.7803  142.7068  157.6462 C   0  0  0  0  0  0  0  0  0  0  0  0
  151.8405  143.5652  158.3462 C   0  0  0  0  0  0  0  0  0  0  0  0
  152.7917  142.7734  158.8397 F   0  0  0  0  0  0  0  0  0  0  0  0
  152.3959  144.4107  157.4783 F   0  0  0  0  0  0  0  0  0  0  0  0
  151.2911  144.2502  159.3490 F   0  0  0  0  0  0  0  0  0  0  0  0
  151.2065  140.2673  155.0146 N   0  0  0  0  0  0  0  0  0  0  0  0
  150.4388  139.4158  154.3020 C   0  0  0  0  0  0  0  0  0  0  0  0
  146.7404  137.2408  152.6201 N   0  0  0  0  0  0  0  0  0  0  0  0
  145.4301  136.6231  152.4356 C   0  0  2  0  0  0  0  0  0  0  0  0
  145.0388  135.8514  153.7105 C   0  0  0  0  0  0  0  0  0  0  0  0
  143.6848  135.1417  153.5459 C   0  0  0  0  0  0  0  0  0  0  0  0
  143.6925  134.2102  152.3219 C   0  0  1  0  0  0  0  0  0  0  0  0
  142.4134  133.6344  152.1611 O   0  0  0  0  0  0  0  0  0  0  0  0
  144.0747  134.9785  151.0453 C   0  0  0  0  0  0  0  0  0  0  0  0
  145.4295  135.6861  151.2089 C   0  0  0  0  0  0  0  0  0  0  0  0
  148.9068  137.9968  152.8341 H   0  0  0  0  0  0  0  0  0  0  0  0
  147.3198  140.5649  155.0898 H   0  0  0  0  0  0  0  0  0  0  0  0
  148.7285  142.1203  156.4094 H   0  0  0  0  0  0  0  0  0  0  0  0
  149.9358  143.3334  157.3545 H   0  0  0  0  0  0  0  0  0  0  0  0
  150.4105  141.9460  158.3358 H   0  0  0  0  0  0  0  0  0  0  0  0
  150.9705  138.6773  153.7196 H   0  0  0  0  0  0  0  0  0  0  0  0
  147.4745  136.9422  151.9948 H   0  0  0  0  0  0  0  0  0  0  0  0
  144.6912  137.4113  152.2773 H   0  0  0  0  0  0  0  0  0  0  0  0
  145.8061  135.1124  153.9460 H   0  0  0  0  0  0  0  0  0  0  0  0
  144.9939  136.5321  154.5615 H   0  0  0  0  0  0  0  0  0  0  0  0
  143.4533  134.5736  154.4477 H   0  0  0  0  0  0  0  0  0  0  0  0
  142.8962  135.8881  153.4392 H   0  0  0  0  0  0  0  0  0  0  0  0
  144.4069  133.4024  152.4860 H   0  0  0  0  0  0  0  0  0  0  0  0
  141.9302  134.1464  151.5306 H   0  0  0  0  0  0  0  0  0  0  0  0
  144.1145  134.2981  150.1940 H   0  0  0  0  0  0  0  0  0  0  0  0
  143.3076  135.7193  150.8145 H   0  0  0  0  0  0  0  0  0  0  0  0
  145.6554  136.2484  150.3021 H   0  0  0  0  0  0  0  0  0  0  0  0
  146.2176  134.9388  151.3128 H   0  0  0  0  0  0  0  0  0  0  0  0
  1  2  2  0  0  0  0
  2  3  1  0  0  0  0
  2 16  1  0  0  0  0
  3  4  1  0  0  0  0
  3 24  1  0  0  0  0
  4 15  1  0  0  0  0
  4  5  2  0  0  0  0
  5  6  1  0  0  0  0
  5 25  1  0  0  0  0
  6  7  2  0  0  0  0
  6 26  1  0  0  0  0
  7  8  1  0  0  0  0
  7 14  1  0  0  0  0
  8  9  1  0  0  0  0
  9 10  1  0  0  0  0
  9 27  1  0  0  0  0
  9 28  1  0  0  0  0
 10 11  1  0  0  0  0
 10 12  1  0  0  0  0
 10 13  1  0  0  0  0
 14 15  2  0  0  0  0
 15 29  1  0  0  0  0
 16 17  1  0  0  0  0
 16 30  1  0  0  0  0
 17 23  1  0  0  0  0
 17 18  1  0  0  0  0
 17 31  1  0  0  0  0
 18 19  1  0  0  0  0
 18 32  1  0  0  0  0
 18 33  1  0  0  0  0
 19 20  1  0  0  0  0
 19 34  1  0  0  0  0
 19 35  1  0  0  0  0
 20 21  1  0  0  0  0
 20 22  1  0  0  0  0
 20 36  1  0  0  0  0
 21 37  1  0  0  0  0
 22 23  1  0  0  0  0
 22 38  1  0  0  0  0
 22 39  1  0  0  0  0
 23 40  1  0  0  0  0
 23 41  1  0  0  0  0
M  END
> <s_m_source_file>
AV-unprocessed.smi

> <i_m_source_file_index>
1544

> <i_lp_mmshare_version>
43012

> <i_f3d_flags>
0

> <s_epik_input>
W0NIMl0xW0NIMl1bQ0BIXShbT0hdKVtDSDJdW0NIMl1bQ0BIXTFbTkhdQyg9TylbTkhdYzJbY0hdW2NIXWMobltjSF0yKU9bQ0gyXUMoRikoRilG

> <s_epik_cmdline>
J2VwaWtfcHl0aG9uJywgJy1waCcsICc3LjAnLCAnLXRuJywgJzgnLCAnLW1hJywgJzIwMCcsICctbWV0YWxfYmluZGluZycsICctaW1hZScsICc8aW5maWxlLm1hZT4nLCAnLW9tYWUnLCAnPG91dGZpbGUubWFlPic=

> <r_lp_tautomer_probability>
1

> <r_epik_Ionization_Penalty>
4.43219e-05

> <r_epik_Ionization_Penalty_Charging>
0

> <r_epik_Ionization_Penalty_Neutral>
4.43219e-05

> <r_epik_State_Penalty>
-0

> <r_epik_Charging_Adjusted_Penalty>
0

> <i_epik_Tot_Q>
0

> <i_epik_Tot_abs_Q>
0

> <r_epik_Metal_State_Penalty>
-0

> <b_epik_Metal_Only>
0

> <s_lp_Force_Field>
OPLS_2005

> <r_lp_Energy>
9.52155

> <b_lp_Chiralities_Consistent>
1

> <s_lp_Variant>
AV-unprocessed.smi:1544-1

> <Gold.Version>
5.8.1

> <Gold.Id.Protein>
6NUR|6NUR_protein|mol2

> <Gold.PLP.Fitness>
49.6066

> <Gold.PLP.PLP>
-42.3891

> <Gold.PLP.part.hbond>
-4.6426

> <Gold.PLP.part.metal>
0.0000

> <Gold.PLP.part.buried>
-4.9396

> <Gold.PLP.part.nonpolar>
-33.9723

> <Gold.PLP.part.repulsive>
0.3059

> <Gold.PLP.ligand.clash>
0.0000

> <Gold.PLP.ligand.torsion>
0.4566

> <Gold.PLP.Chemscore.Hbond>
2.6820

> <Gold.PLP.Chemscore.CHOScore>
0.0000

> <Gold.PLP.Chemscore.Metal>
0.0000

> <Gold.Chemscore.Hbonds>
donor molecule, donor type, donor heavy atom, donor atom, acceptor molecule, acceptor atom, score
      L1  H     3    24       P1  7948  0.83
      L1  H    16    30       P1  7948  0.96
      L1  H    21    37       P1 10186  0.22
      P1  H  7989  7998       L1    14  0.25

> <Gold.PLP.Chemscore.Internal.Correction>
0.0847

> <Gold.Rescore>
     Score         DG    S(hbond)    S(metal)    S(lipo)     H(rot)  DE(clash)    DE(int)     intcor
     12.12     -13.94       1.88        0.00      69.24       2.31       0.16       1.65       ----

> <Gold.Chemscore.Fitness>
12.1244

> <Gold.Chemscore.DG>
-13.9408

> <Gold.Chemscore.ZeroCoef>
-5.4800

> <Gold.Chemscore.Hbond>
1.8788

> <Gold.Chemscore.Metal>
0.0000

> <Gold.Chemscore.Lipo>
69.2427

> <Gold.Chemscore.Internal_Hbond>
0.0000

> <Gold.Chemscore.DEClash>
0.1638

> <Gold.Chemscore.DEInternal>
1.6526

> <Gold.Chemscore.Rot>
2.3109

> <Gold.Chemscore.Internal.Correction>
   9.000000E+99

> <Gold.Chemscore.Hbonds>
donor molecule, donor type, donor heavy atom, donor atom, acceptor molecule, acceptor atom, score
      L1  H     3    24       P1  7948  0.81
      L1  H    16    30       P1  7948  0.92

> <Gold.Chemscore.Hbond.Weighted>
-6.2752

> <Gold.Chemscore.Metal.Weighted>
-0.0000

> <Gold.Chemscore.Lipo.Weighted>
-8.1014

> <Gold.Chemscore.Internal_Hbond.Weighted>
0.0000

> <Gold.Chemscore.DEClash.Weighted>
0.1638

> <Gold.Chemscore.DEInternal.Weighted>
1.6526

> <Gold.Chemscore.Rot.Weighted>
5.9158

> <Gold.Chemscore.Internal.Correction.Weighted>
   9.000000E+99

> <Gold.Protein.RotatedTorsions>
[ 6907 6896 6895 6894 ] final  163.19 input  -60.11 | X-H torsion
[ 7974 7965 7964 7962 ] final  161.71 input  175.53 | X-H torsion
[ 8008 7997 7996 7995 ] final  -71.62 input   59.86 | X-H torsion
[ 10167 10162 10161 10158 ] final -159.15 input  -65.29 | X-H torsion
[ 10718 10713 10712 10709 ] final  170.70 input   66.30 | X-H torsion
[ 10763 10752 10751 10750 ] final -134.88 input  -60.55 | X-H torsion
[ 11005 11000 10999 10996 ] final  -95.74 input  -57.11 | X-H torsion

> <Gold.Protein.ActiveResidues>
 VAL166  LYS551  ARG553  GLY616  TRP617  ASP618  TYR619  PRO620  LYS621  CYS622 
 ASP623  PHE694  ASN695  SER759  ASP760  ASP761  ALA762  ILE779  LEU786  VAL792 
 PHE793  MET794  SER795  GLU796  ALA797  LYS798  CYS799  TRP800  GLU811  SER814 

> <Gold.Protein.RotatedAtoms>
  151.9290  133.3606  159.3923 H   0  0  0  0  0  0  0  0  0  0  0  0  # atno 6907 bound_to 6896
  150.7021  134.4557  159.5366 H   0  0  0  0  0  0  0  0  0  0  0  0  # atno 6908 bound_to 6896
  152.2194  134.8427  160.0538 H   0  0  0  0  0  0  0  0  0  0  0  0  # atno 6909 bound_to 6896
  144.7672  139.7936  143.6310 H   0  0  0  0  0  0  0  0  0  0  0  0  # atno 7974 bound_to 7965
  154.5102  140.0812  156.7975 H   0  0  0  0  0  0  0  0  0  0  0  0  # atno 8008 bound_to 7997
  155.3802  140.3427  155.4228 H   0  0  0  0  0  0  0  0  0  0  0  0  # atno 8009 bound_to 7997
  156.1564  140.1574  156.8673 H   0  0  0  0  0  0  0  0  0  0  0  0  # atno 8010 bound_to 7997
  139.6637  143.9867  152.2241 H   0  0  0  0  0  0  0  0  0  0  0  0  # atno 10167 bound_to 10162
  157.0042  131.0185  151.2822 H   0  0  0  0  0  0  0  0  0  0  0  0  # atno 10718 bound_to 10713
  154.8712  135.3721  154.4807 H   0  0  0  0  0  0  0  0  0  0  0  0  # atno 10763 bound_to 10752
  153.5461  135.7025  153.5618 H   0  0  0  0  0  0  0  0  0  0  0  0  # atno 10764 bound_to 10752
  153.3758  135.4009  155.1786 H   0  0  0  0  0  0  0  0  0  0  0  0  # atno 10765 bound_to 10752
  141.1433  133.8047  157.0476 H   0  0  0  0  0  0  0  0  0  0  0  0  # atno 11005 bound_to 11000
  146.1790  139.4973  142.9879 LP  0  0  0  0  0  0  0  0  0  0  0  0  # atno 17320 bound_to 7965
  145.6433  141.0279  143.1800 LP  0  0  0  0  0  0  0  0  0  0  0  0  # atno 17321 bound_to 7965
  139.9613  144.6556  150.8076 LP  0  0  0  0  0  0  0  0  0  0  0  0  # atno 17342 bound_to 10162
  140.7590  143.3120  151.2822 LP  0  0  0  0  0  0  0  0  0  0  0  0  # atno 17343 bound_to 10162
  157.5368  130.8094  149.7981 LP  0  0  0  0  0  0  0  0  0  0  0  0  # atno 17370 bound_to 10713
  156.0160  130.3814  150.2111 LP  0  0  0  0  0  0  0  0  0  0  0  0  # atno 17371 bound_to 10713
  140.0652  134.9733  157.1374 LP  0  0  0  0  0  0  0  0  0  0  0  0  # atno 17394 bound_to 11000
  140.3790  134.2308  155.7172 LP  0  0  0  0  0  0  0  0  0  0  0  0  # atno 17395 bound_to 11000

$$$$
