AV-unprocessed.smi:1739|AV-procd|sdf|7005|dock5
  -GOLD-   22720 8213D 1   1.00000     0.00000
 Structure written by MMmdl.
 41 42  0  0  0  0  0  0  0  0  1 V2000
  144.0280  132.5859  150.2939 C   0  0  0  0  0  0  0  0  0  0  0  0
  145.1527  133.6234  150.4000 C   0  0  0  0  0  0  0  0  0  0  0  0
  144.7508  134.7832  151.1726 N   0  0  0  0  0  0  0  0  0  0  0  0
  145.4760  135.9296  151.4316 C   0  0  0  0  0  0  0  0  0  0  0  0
  144.6609  136.7189  152.1928 C   0  0  0  0  0  0  0  0  0  0  0  0
  144.9080  138.0030  152.7413 N   0  0  0  0  0  0  0  0  0  0  0  0
  145.9749  138.3912  153.4589 C   0  0  0  0  0  0  0  0  0  0  0  0
  146.9439  137.6805  153.7268 O   0  0  0  0  0  0  0  0  0  0  0  0
  145.8599  139.6682  153.8512 N   0  0  0  0  0  0  0  0  0  0  0  0
  146.8448  140.3972  154.6448 C   0  0  0  0  0  0  0  0  0  0  0  0
  148.0590  140.7597  153.7630 C   0  0  0  0  0  0  0  0  0  0  0  0
  149.1991  141.3624  154.6036 C   0  0  0  0  0  0  0  0  0  0  0  0
  149.5550  140.4142  155.6657 N   0  0  0  0  0  0  0  0  0  0  0  0
  150.7154  139.7148  155.6640 C   0  0  0  0  0  0  0  0  0  0  0  0
  150.9667  138.6787  156.7618 C   0  0  0  0  0  0  0  0  0  0  0  0
  151.5858  139.8721  154.8076 O   0  0  0  0  0  0  0  0  0  0  0  0
  148.4503  140.2263  156.6141 C   0  0  0  0  0  0  0  0  0  0  0  0
  147.2701  139.5675  155.8780 C   0  0  0  0  0  0  0  0  0  0  0  0
  143.4563  135.9869  152.3564 C   0  0  0  0  0  0  0  0  0  0  0  0
  143.5167  134.8192  151.7344 N   0  0  0  0  0  0  0  0  0  0  0  0
  144.3574  131.7150  149.7270 H   0  0  0  0  0  0  0  0  0  0  0  0
  143.1542  132.9985  149.7885 H   0  0  0  0  0  0  0  0  0  0  0  0
  143.7151  132.2426  151.2802 H   0  0  0  0  0  0  0  0  0  0  0  0
  146.0295  133.1774  150.8708 H   0  0  0  0  0  0  0  0  0  0  0  0
  145.4596  133.9540  149.4070 H   0  0  0  0  0  0  0  0  0  0  0  0
  146.4802  136.0694  151.0596 H   0  0  0  0  0  0  0  0  0  0  0  0
  144.1925  138.6961  152.5775 H   0  0  0  0  0  0  0  0  0  0  0  0
  145.0292  140.1751  153.5824 H   0  0  0  0  0  0  0  0  0  0  0  0
  146.4043  141.3327  154.9957 H   0  0  0  0  0  0  0  0  0  0  0  0
  148.4268  139.8678  153.2528 H   0  0  0  0  0  0  0  0  0  0  0  0
  147.7603  141.4614  152.9834 H   0  0  0  0  0  0  0  0  0  0  0  0
  150.0430  141.6135  153.9597 H   0  0  0  0  0  0  0  0  0  0  0  0
  148.8785  142.3041  155.0513 H   0  0  0  0  0  0  0  0  0  0  0  0
  150.1877  137.9155  156.7601 H   0  0  0  0  0  0  0  0  0  0  0  0
  150.9971  139.1542  157.7425 H   0  0  0  0  0  0  0  0  0  0  0  0
  151.9229  138.1782  156.6054 H   0  0  0  0  0  0  0  0  0  0  0  0
  148.7197  139.6344  157.4876 H   0  0  0  0  0  0  0  0  0  0  0  0
  148.1463  141.1981  157.0060 H   0  0  0  0  0  0  0  0  0  0  0  0
  146.4275  139.4488  156.5604 H   0  0  0  0  0  0  0  0  0  0  0  0
  147.5599  138.5625  155.5670 H   0  0  0  0  0  0  0  0  0  0  0  0
  142.5588  136.2574  152.8931 H   0  0  0  0  0  0  0  0  0  0  0  0
  1  2  1  0  0  0  0
  1 21  1  0  0  0  0
  1 22  1  0  0  0  0
  1 23  1  0  0  0  0
  2  3  1  0  0  0  0
  2 24  1  0  0  0  0
  2 25  1  0  0  0  0
  3 20  1  0  0  0  0
  3  4  1  0  0  0  0
  4  5  2  0  0  0  0
  4 26  1  0  0  0  0
  5  6  1  0  0  0  0
  5 19  1  0  0  0  0
  6  7  1  0  0  0  0
  6 27  1  0  0  0  0
  7  8  2  0  0  0  0
  7  9  1  0  0  0  0
  9 10  1  0  0  0  0
  9 28  1  0  0  0  0
 10 18  1  0  0  0  0
 10 11  1  0  0  0  0
 10 29  1  0  0  0  0
 11 12  1  0  0  0  0
 11 30  1  0  0  0  0
 11 31  1  0  0  0  0
 12 13  1  0  0  0  0
 12 32  1  0  0  0  0
 12 33  1  0  0  0  0
 13 14  1  0  0  0  0
 13 17  1  0  0  0  0
 14 15  1  0  0  0  0
 14 16  2  0  0  0  0
 15 34  1  0  0  0  0
 15 35  1  0  0  0  0
 15 36  1  0  0  0  0
 17 18  1  0  0  0  0
 17 37  1  0  0  0  0
 17 38  1  0  0  0  0
 18 39  1  0  0  0  0
 18 40  1  0  0  0  0
 19 20  2  0  0  0  0
 19 41  1  0  0  0  0
M  END
> <s_m_source_file>
AV-unprocessed.smi

> <i_m_source_file_index>
1739

> <i_lp_mmshare_version>
43012

> <i_f3d_flags>
0

> <s_epik_input>
W0NIM11bQ0gyXW4xW2NIXWMoW2NIXW4xKVtOSF1DKD1PKVtOSF1bQ0hdMltDSDJdW0NIMl1OKEMoPU8pW0NIM10pW0NIMl1bQ0gyXTI=

> <s_epik_cmdline>
J2VwaWtfcHl0aG9uJywgJy1waCcsICc3LjAnLCAnLXRuJywgJzgnLCAnLW1hJywgJzIwMCcsICctbWV0YWxfYmluZGluZycsICctaW1hZScsICc8aW5maWxlLm1hZT4nLCAnLW9tYWUnLCAnPG91dGZpbGUubWFlPic=

> <r_lp_tautomer_probability>
1

> <r_epik_Ionization_Penalty>
0.000185887

> <r_epik_Ionization_Penalty_Charging>
0

> <r_epik_Ionization_Penalty_Neutral>
0.000185887

> <r_epik_State_Penalty>
-0

> <r_epik_Charging_Adjusted_Penalty>
0

> <i_epik_Tot_Q>
0

> <i_epik_Tot_abs_Q>
0

> <r_epik_Metal_State_Penalty>
-0

> <b_epik_Metal_Only>
0

> <s_lp_Force_Field>
OPLS_2005

> <r_lp_Energy>
25.6807

> <b_lp_Chiralities_Consistent>
1

> <s_lp_Variant>
AV-unprocessed.smi:1739-1

> <Gold.Version>
5.8.1

> <Gold.Id.Protein>
6NUR|6NUR_protein|mol2

> <Gold.PLP.Fitness>
40.7704

> <Gold.PLP.PLP>
-29.9514

> <Gold.PLP.part.hbond>
-3.4236

> <Gold.PLP.part.metal>
0.0000

> <Gold.PLP.part.buried>
-3.8199

> <Gold.PLP.part.nonpolar>
-23.7958

> <Gold.PLP.part.repulsive>
0.4997

> <Gold.PLP.ligand.clash>
0.0000

> <Gold.PLP.ligand.torsion>
0.6009

> <Gold.PLP.Chemscore.Hbond>
3.0000

> <Gold.PLP.Chemscore.CHOScore>
1.0000

> <Gold.PLP.Chemscore.Metal>
0.0000

> <Gold.Chemscore.Hbonds>
donor molecule, donor type, donor heavy atom, donor atom, acceptor molecule, acceptor atom, score
      L1  H     6    27       P1 10175  1.00
      L1  H     9    28       P1 10175  1.00
      P1  H  7989  7998       L1    16  1.00
      L1  C     4    26       P1  7948  0.93

> <Gold.PLP.Chemscore.Internal.Correction>
0.0208

> <Gold.Rescore>
     Score         DG    S(hbond)    S(metal)    S(lipo)     H(rot)  DE(clash)    DE(int)     intcor
     16.99     -18.88       2.92        0.00      57.67       1.22       0.07       1.81       ----

> <Gold.Chemscore.Fitness>
16.9905

> <Gold.Chemscore.DG>
-18.8755

> <Gold.Chemscore.ZeroCoef>
-5.4800

> <Gold.Chemscore.Hbond>
2.9229

> <Gold.Chemscore.Metal>
0.0000

> <Gold.Chemscore.Lipo>
57.6706

> <Gold.Chemscore.Internal_Hbond>
0.0000

> <Gold.Chemscore.DEClash>
0.0728

> <Gold.Chemscore.DEInternal>
1.8122

> <Gold.Chemscore.Rot>
1.2166

> <Gold.Chemscore.Internal.Correction>
   9.000000E+99

> <Gold.Chemscore.Hbonds>
donor molecule, donor type, donor heavy atom, donor atom, acceptor molecule, acceptor atom, score
      L1  H     6    27       P1 10175  0.95
      L1  H     9    28       P1 10175  0.96
      P1  H  7989  7998       L1    16  0.98

> <Gold.Chemscore.Hbond.Weighted>
-9.7626

> <Gold.Chemscore.Metal.Weighted>
-0.0000

> <Gold.Chemscore.Lipo.Weighted>
-6.7475

> <Gold.Chemscore.Internal_Hbond.Weighted>
0.0000

> <Gold.Chemscore.DEClash.Weighted>
0.0728

> <Gold.Chemscore.DEInternal.Weighted>
1.8122

> <Gold.Chemscore.Rot.Weighted>
3.1145

> <Gold.Chemscore.Internal.Correction.Weighted>
   9.000000E+99

> <Gold.Protein.RotatedTorsions>
[ 6907 6896 6895 6894 ] final -148.40 input  -60.11 | X-H torsion
[ 7974 7965 7964 7962 ] final -117.26 input  175.53 | X-H torsion
[ 8008 7997 7996 7995 ] final  137.22 input   59.86 | X-H torsion
[ 10167 10162 10161 10158 ] final   47.84 input  -65.29 | X-H torsion
[ 10718 10713 10712 10709 ] final -106.73 input   66.30 | X-H torsion
[ 10763 10752 10751 10750 ] final  159.02 input  -60.55 | X-H torsion
[ 11005 11000 10999 10996 ] final -164.14 input  -57.11 | X-H torsion

> <Gold.Protein.ActiveResidues>
 VAL166  LYS551  ARG553  GLY616  TRP617  ASP618  TYR619  PRO620  LYS621  CYS622 
 ASP623  PHE694  ASN695  SER759  ASP760  ASP761  ALA762  ILE779  LEU786  VAL792 
 PHE793  MET794  SER795  GLU796  ALA797  LYS798  CYS799  TRP800  GLU811  SER814 

> <Gold.Protein.RotatedAtoms>
  151.1692  133.4795  159.2593 H   0  0  0  0  0  0  0  0  0  0  0  0  # atno 6907 bound_to 6896
  151.1373  135.0161  159.8620 H   0  0  0  0  0  0  0  0  0  0  0  0  # atno 6908 bound_to 6896
  152.5461  134.1589  159.8603 H   0  0  0  0  0  0  0  0  0  0  0  0  # atno 6909 bound_to 6896
  145.0872  140.8466  143.4004 H   0  0  0  0  0  0  0  0  0  0  0  0  # atno 7974 bound_to 7965
  156.3002  140.2425  156.3873 H   0  0  0  0  0  0  0  0  0  0  0  0  # atno 8008 bound_to 7997
  154.8646  140.0418  157.1706 H   0  0  0  0  0  0  0  0  0  0  0  0  # atno 8009 bound_to 7997
  154.8860  140.2956  155.5401 H   0  0  0  0  0  0  0  0  0  0  0  0  # atno 8010 bound_to 7997
  140.2995  144.2951  150.6222 H   0  0  0  0  0  0  0  0  0  0  0  0  # atno 10167 bound_to 10162
  156.0404  130.5627  150.7722 H   0  0  0  0  0  0  0  0  0  0  0  0  # atno 10718 bound_to 10713
  154.2252  135.2780  155.2910 H   0  0  0  0  0  0  0  0  0  0  0  0  # atno 10763 bound_to 10752
  154.5669  135.5630  153.7062 H   0  0  0  0  0  0  0  0  0  0  0  0  # atno 10764 bound_to 10752
  153.0032  135.6311  154.2393 H   0  0  0  0  0  0  0  0  0  0  0  0  # atno 10765 bound_to 10752
  140.5902  134.5053  157.5191 H   0  0  0  0  0  0  0  0  0  0  0  0  # atno 11005 bound_to 11000
  145.1108  139.2758  143.5638 LP  0  0  0  0  0  0  0  0  0  0  0  0  # atno 17320 bound_to 7965
  146.3531  140.0703  142.8623 LP  0  0  0  0  0  0  0  0  0  0  0  0  # atno 17321 bound_to 7965
  140.5663  143.2186  151.7677 LP  0  0  0  0  0  0  0  0  0  0  0  0  # atno 17342 bound_to 10162
  139.4918  144.4278  151.9906 LP  0  0  0  0  0  0  0  0  0  0  0  0  # atno 17343 bound_to 10162
  157.5213  131.0931  151.0075 LP  0  0  0  0  0  0  0  0  0  0  0  0  # atno 17370 bound_to 10713
  157.0405  130.5747  149.5355 LP  0  0  0  0  0  0  0  0  0  0  0  0  # atno 17371 bound_to 10713
  139.9277  134.8023  156.1019 LP  0  0  0  0  0  0  0  0  0  0  0  0  # atno 17394 bound_to 11000
  141.0940  133.6703  156.2603 LP  0  0  0  0  0  0  0  0  0  0  0  0  # atno 17395 bound_to 11000

$$$$
