AV-unprocessed.smi:1144|AV-procd|sdf|4879|dock9
  -GOLD-   22720 3453D 1   1.00000     0.00000
 Structure written by MMmdl.
 35 36  0  0  0  0  0  0  0  0  2 V2000
  144.2289  143.3872  154.4256 C   0  0  0  0  0  0  0  0  0  0  0  0
  145.0493  142.1748  154.6319 N   0  3  2  0  0  0  0  0  0  0  0  0
  144.8522  141.5738  155.9705 C   0  0  0  0  0  0  0  0  0  0  0  0
  145.7060  140.3037  156.1152 C   0  0  0  0  0  0  0  0  0  0  0  0
  147.0709  140.6208  155.8712 O   0  0  0  0  0  0  0  0  0  0  0  0
  147.2896  141.1023  154.5481 C   0  0  2  0  0  0  0  0  0  0  0  0
  148.7954  141.3344  154.3636 C   0  0  0  0  0  0  0  0  0  0  0  0
  149.3375  142.1969  155.4027 N   0  0  0  0  0  0  0  0  0  0  0  0
  150.2526  141.7808  156.3506 C   0  0  0  0  0  0  0  0  0  0  0  0
  150.5528  140.4808  156.3266 N   0  0  0  0  0  0  0  0  0  0  0  0
  151.4396  140.0389  157.2447 C   0  0  0  0  0  0  0  0  0  0  0  0
  152.0273  140.9057  158.1871 C   0  0  0  0  0  0  0  0  0  0  0  0
  151.6379  142.2621  158.1187 C   0  0  0  0  0  0  0  0  0  0  0  0
  152.1923  143.3129  159.0688 C   0  0  0  0  0  0  0  0  0  0  0  0
  153.0722  142.7869  159.9219 F   0  0  0  0  0  0  0  0  0  0  0  0
  152.8006  144.2720  158.3710 F   0  0  0  0  0  0  0  0  0  0  0  0
  151.1961  143.8562  159.7689 F   0  0  0  0  0  0  0  0  0  0  0  0
  150.7470  142.6926  157.1952 N   0  0  0  0  0  0  0  0  0  0  0  0
  146.4874  142.4058  154.3628 C   0  0  0  0  0  0  0  0  0  0  0  0
  144.5101  144.1751  155.1259 H   0  0  0  0  0  0  0  0  0  0  0  0
  143.1710  143.1641  154.5684 H   0  0  0  0  0  0  0  0  0  0  0  0
  144.3554  143.7691  153.4121 H   0  0  0  0  0  0  0  0  0  0  0  0
  145.1257  142.2962  156.7414 H   0  0  0  0  0  0  0  0  0  0  0  0
  143.7986  141.3324  156.1159 H   0  0  0  0  0  0  0  0  0  0  0  0
  145.6111  139.9000  157.1233 H   0  0  0  0  0  0  0  0  0  0  0  0
  145.3703  139.5255  155.4277 H   0  0  0  0  0  0  0  0  0  0  0  0
  146.9491  140.3596  153.8235 H   0  0  0  0  0  0  0  0  0  0  0  0
  149.3218  140.3799  154.4014 H   0  0  0  0  0  0  0  0  0  0  0  0
  148.9935  141.7722  153.3844 H   0  0  0  0  0  0  0  0  0  0  0  0
  149.1343  143.1850  155.3617 H   0  0  0  0  0  0  0  0  0  0  0  0
  151.6815  138.9865  157.2275 H   0  0  0  0  0  0  0  0  0  0  0  0
  152.7353  140.5425  158.9171 H   0  0  0  0  0  0  0  0  0  0  0  0
  146.6122  142.7775  153.3449 H   0  0  0  0  0  0  0  0  0  0  0  0
  146.8646  143.1787  155.0348 H   0  0  0  0  0  0  0  0  0  0  0  0
  144.7332  141.4922  153.9577 H   0  0  0  0  0  0  0  0  0  0  0  0
  1  2  1  0  0  0  0
  1 20  1  0  0  0  0
  1 21  1  0  0  0  0
  1 22  1  0  0  0  0
  2 19  1  0  0  0  0
  2  3  1  0  0  0  0
  2 35  1  0  0  0  0
  3  4  1  0  0  0  0
  3 23  1  0  0  0  0
  3 24  1  0  0  0  0
  4  5  1  0  0  0  0
  4 25  1  0  0  0  0
  4 26  1  0  0  0  0
  5  6  1  0  0  0  0
  6  7  1  0  0  0  0
  6 19  1  0  0  0  0
  6 27  1  0  0  0  0
  7  8  1  0  0  0  0
  7 28  1  0  0  0  0
  7 29  1  0  0  0  0
  8  9  1  0  0  0  0
  8 30  1  0  0  0  0
  9 18  1  0  0  0  0
  9 10  2  0  0  0  0
 10 11  1  0  0  0  0
 11 12  2  0  0  0  0
 11 31  1  0  0  0  0
 12 13  1  0  0  0  0
 12 32  1  0  0  0  0
 13 14  1  0  0  0  0
 13 18  2  0  0  0  0
 14 15  1  0  0  0  0
 14 16  1  0  0  0  0
 14 17  1  0  0  0  0
 19 33  1  0  0  0  0
 19 34  1  0  0  0  0
M  CHG  1   2   1
M  END
> <s_m_source_file>
AV-unprocessed.smi

> <i_m_source_file_index>
1144

> <i_lp_mmshare_version>
43012

> <i_f3d_flags>
0

> <s_epik_input>
W0NIM11OMVtDSDJdW0NIMl1PW0NASF0oW0NIMl0xKVtDSDJdW05IXWMybltjSF1bY0hdYyhuMilDKEYpKEYpRg==

> <s_epik_cmdline>
J2VwaWtfcHl0aG9uJywgJy1waCcsICc3LjAnLCAnLXRuJywgJzgnLCAnLW1hJywgJzIwMCcsICctbWV0YWxfYmluZGluZycsICctaW1hZScsICc8aW5maWxlLm1hZT4nLCAnLW9tYWUnLCAnPG91dGZpbGUubWFlPic=

> <r_lp_tautomer_probability>
1

> <r_epik_Ionization_Penalty>
0.178506

> <r_epik_Ionization_Penalty_Charging>
0.178504

> <r_epik_Ionization_Penalty_Neutral>
2.47225e-06

> <r_epik_State_Penalty>
0.167974

> <r_epik_Charging_Adjusted_Penalty>
0.346478

> <i_epik_Tot_Q>
1

> <i_epik_Tot_abs_Q>
1

> <r_epik_Metal_State_Penalty>
0.167974

> <b_epik_Metal_Only>
0

> <s_lp_Force_Field>
OPLS_2005

> <r_lp_Energy>
9.23753

> <b_lp_Chiralities_Consistent>
1

> <s_lp_Variant>
AV-unprocessed.smi:1144-4

> <Gold.Version>
5.8.1

> <Gold.Id.Protein>
6NUR|6NUR_protein|mol2

> <Gold.PLP.Fitness>
42.3159

> <Gold.PLP.PLP>
-33.6723

> <Gold.PLP.part.hbond>
-1.9462

> <Gold.PLP.part.metal>
0.0000

> <Gold.PLP.part.buried>
-3.1740

> <Gold.PLP.part.nonpolar>
-31.3049

> <Gold.PLP.part.repulsive>
0.8384

> <Gold.PLP.ligand.clash>
0.0000

> <Gold.PLP.ligand.torsion>
0.0420

> <Gold.PLP.Chemscore.Hbond>
2.9088

> <Gold.PLP.Chemscore.CHOScore>
0.0000

> <Gold.PLP.Chemscore.Metal>
0.0000

> <Gold.Chemscore.Hbonds>
donor molecule, donor type, donor heavy atom, donor atom, acceptor molecule, acceptor atom, score
      L1  H     2    35       P1 10175  1.89
      L1  H     8    30       P1  8028  1.00

> <Gold.PLP.Chemscore.Internal.Correction>
0.0013

> <Gold.Rescore>
     Score         DG    S(hbond)    S(metal)    S(lipo)     H(rot)  DE(clash)    DE(int)     intcor
     13.27     -14.38       1.60        0.00      59.75       1.34       1.04       0.07       ----

> <Gold.Chemscore.Fitness>
13.2681

> <Gold.Chemscore.DG>
-14.3776

> <Gold.Chemscore.ZeroCoef>
-5.4800

> <Gold.Chemscore.Hbond>
1.5962

> <Gold.Chemscore.Metal>
0.0000

> <Gold.Chemscore.Lipo>
59.7535

> <Gold.Chemscore.Internal_Hbond>
0.0000

> <Gold.Chemscore.DEClash>
1.0426

> <Gold.Chemscore.DEInternal>
0.0669

> <Gold.Chemscore.Rot>
1.3379

> <Gold.Chemscore.Internal.Correction>
   9.000000E+99

> <Gold.Chemscore.Hbonds>
donor molecule, donor type, donor heavy atom, donor atom, acceptor molecule, acceptor atom, score
      L1  H     2    35       P1 10175  0.23
      L1  H     8    30       P1  8028  0.97

> <Gold.Chemscore.Hbond.Weighted>
-5.3315

> <Gold.Chemscore.Metal.Weighted>
-0.0000

> <Gold.Chemscore.Lipo.Weighted>
-6.9912

> <Gold.Chemscore.Internal_Hbond.Weighted>
0.0000

> <Gold.Chemscore.DEClash.Weighted>
1.0426

> <Gold.Chemscore.DEInternal.Weighted>
0.0669

> <Gold.Chemscore.Rot.Weighted>
3.4250

> <Gold.Chemscore.Internal.Correction.Weighted>
   9.000000E+99

> <Gold.Protein.RotatedTorsions>
[ 6907 6896 6895 6894 ] final  -51.51 input  -60.11 | X-H torsion
[ 7974 7965 7964 7962 ] final  -62.87 input  175.53 | X-H torsion
[ 8008 7997 7996 7995 ] final   59.88 input   59.86 | X-H torsion
[ 10167 10162 10161 10158 ] final -111.24 input  -65.29 | X-H torsion
[ 10718 10713 10712 10709 ] final -118.36 input   66.30 | X-H torsion
[ 10763 10752 10751 10750 ] final   10.30 input  -60.55 | X-H torsion
[ 11005 11000 10999 10996 ] final   39.90 input  -57.11 | X-H torsion

> <Gold.Protein.ActiveResidues>
 VAL166  LYS551  ARG553  GLY616  TRP617  ASP618  TYR619  PRO620  LYS621  CYS622 
 ASP623  PHE694  ASN695  SER759  ASP760  ASP761  ALA762  ILE779  LEU786  VAL792 
 PHE793  MET794  SER795  GLU796  ALA797  LYS798  CYS799  TRP800  GLU811  SER814 

> <Gold.Protein.RotatedAtoms>
  150.8604  134.7955  159.7078 H   0  0  0  0  0  0  0  0  0  0  0  0  # atno 6907 bound_to 6896
  152.4643  134.5109  159.9763 H   0  0  0  0  0  0  0  0  0  0  0  0  # atno 6908 bound_to 6896
  151.5213  133.3427  159.2937 H   0  0  0  0  0  0  0  0  0  0  0  0  # atno 6909 bound_to 6896
  145.7860  140.8736  143.0305 H   0  0  0  0  0  0  0  0  0  0  0  0  # atno 7974 bound_to 7965
  155.5733  140.3490  155.4521 H   0  0  0  0  0  0  0  0  0  0  0  0  # atno 8008 bound_to 7997
  156.0428  140.1299  157.0163 H   0  0  0  0  0  0  0  0  0  0  0  0  # atno 8009 bound_to 7997
  154.4399  140.1020  156.6247 H   0  0  0  0  0  0  0  0  0  0  0  0  # atno 8010 bound_to 7997
  140.1357  143.4322  152.1597 H   0  0  0  0  0  0  0  0  0  0  0  0  # atno 10167 bound_to 10162
  156.1100  130.6241  150.9281 H   0  0  0  0  0  0  0  0  0  0  0  0  # atno 10718 bound_to 10713
  153.2046  135.6861  153.8188 H   0  0  0  0  0  0  0  0  0  0  0  0  # atno 10763 bound_to 10752
  153.7442  135.3233  155.3310 H   0  0  0  0  0  0  0  0  0  0  0  0  # atno 10764 bound_to 10752
  154.8190  135.4665  154.0828 H   0  0  0  0  0  0  0  0  0  0  0  0  # atno 10765 bound_to 10752
  140.1983  134.3902  155.8109 H   0  0  0  0  0  0  0  0  0  0  0  0  # atno 11005 bound_to 11000
  144.6789  140.0056  143.7484 LP  0  0  0  0  0  0  0  0  0  0  0  0  # atno 17320 bound_to 7965
  146.0025  139.3103  143.0919 LP  0  0  0  0  0  0  0  0  0  0  0  0  # atno 17321 bound_to 7965
  139.5497  144.7327  151.4473 LP  0  0  0  0  0  0  0  0  0  0  0  0  # atno 17342 bound_to 10162
  140.6790  143.8124  150.7096 LP  0  0  0  0  0  0  0  0  0  0  0  0  # atno 17343 bound_to 10162
  157.6281  131.0924  150.8495 LP  0  0  0  0  0  0  0  0  0  0  0  0  # atno 17370 bound_to 10713
  156.8607  130.5112  149.5304 LP  0  0  0  0  0  0  0  0  0  0  0  0  # atno 17371 bound_to 10713
  141.2227  133.7081  156.8214 LP  0  0  0  0  0  0  0  0  0  0  0  0  # atno 17394 bound_to 11000
  140.2083  134.8846  157.3246 LP  0  0  0  0  0  0  0  0  0  0  0  0  # atno 17395 bound_to 11000

$$$$
