AV-unprocessed.smi:1788|AV-procd|sdf|7211|dock3
  -GOLD-   22720 8453D 1   1.00000     0.00000
 Structure written by MMmdl.
 55 57  0  0  0  0  0  0  0  0  2 V2000
  147.2319  133.0177  151.8222 C   0  0  0  0  0  0  0  0  0  0  0  0
  145.7879  133.4879  151.5736 C   0  0  1  0  0  0  0  0  0  0  0  0
  144.9719  133.6246  152.8726 C   0  0  0  0  0  0  0  0  0  0  0  0
  145.3930  134.8690  153.6670 C   0  0  0  0  0  0  0  0  0  0  0  0
  145.3379  136.1290  152.7890 C   0  0  0  0  0  0  0  0  0  0  0  0
  146.1701  135.9692  151.5686 N   0  3  2  0  0  0  0  0  0  0  0  0
  146.2559  137.2231  150.7786 C   0  0  0  0  0  0  0  0  0  0  0  0
  146.3002  138.4774  151.6730 C   0  0  0  0  0  0  0  0  0  0  0  0
  147.5585  138.5702  152.4045 N   0  0  0  0  0  0  0  0  0  0  0  0
  147.8205  139.4687  153.3644 C   0  0  0  0  0  0  0  0  0  0  0  0
  147.0045  140.3092  153.7421 O   0  0  0  0  0  0  0  0  0  0  0  0
  149.0612  139.3093  153.8564 N   0  0  0  0  0  0  0  0  0  0  0  0
  149.7172  140.0624  154.8677 C   0  0  0  0  0  0  0  0  0  0  0  0
  151.0501  139.8459  155.2880 C   0  0  0  0  0  0  0  0  0  0  0  0
  151.5803  140.6487  156.3158 C   0  0  0  0  0  0  0  0  0  0  0  0
  150.7675  141.6440  156.9078 C   0  0  0  0  0  0  0  0  0  0  0  0
  151.2813  142.4584  157.9402 N   0  0  0  0  0  0  0  0  0  0  0  0
  152.2521  141.8681  158.8601 C   0  0  0  0  0  0  0  0  0  0  0  0
  152.4735  142.7921  160.0694 C   0  0  0  0  0  0  0  0  0  0  0  0
  152.8618  144.0857  159.6188 O   0  0  0  0  0  0  0  0  0  0  0  0
  151.8549  144.6895  158.8134 C   0  0  0  0  0  0  0  0  0  0  0  0
  151.6038  143.8319  157.5608 C   0  0  0  0  0  0  0  0  0  0  0  0
  149.4884  141.8444  156.5062 N   0  0  0  0  0  0  0  0  0  0  0  0
  148.9831  141.0710  155.5229 C   0  0  0  0  0  0  0  0  0  0  0  0
  145.7336  134.7978  150.7602 C   0  0  0  0  0  0  0  0  0  0  0  0
  147.8049  133.7450  152.3970 H   0  0  0  0  0  0  0  0  0  0  0  0
  147.7574  132.8560  150.8806 H   0  0  0  0  0  0  0  0  0  0  0  0
  147.2476  132.0750  152.3701 H   0  0  0  0  0  0  0  0  0  0  0  0
  145.3125  132.7110  150.9733 H   0  0  0  0  0  0  0  0  0  0  0  0
  143.9128  133.7042  152.6238 H   0  0  0  0  0  0  0  0  0  0  0  0
  145.0741  132.7294  153.4866 H   0  0  0  0  0  0  0  0  0  0  0  0
  144.7419  134.9921  154.5330 H   0  0  0  0  0  0  0  0  0  0  0  0
  146.4017  134.7376  154.0601 H   0  0  0  0  0  0  0  0  0  0  0  0
  144.3074  136.3457  152.5028 H   0  0  0  0  0  0  0  0  0  0  0  0
  145.6919  136.9813  153.3701 H   0  0  0  0  0  0  0  0  0  0  0  0
  147.1220  137.1770  150.1163 H   0  0  0  0  0  0  0  0  0  0  0  0
  145.3806  137.3043  150.1321 H   0  0  0  0  0  0  0  0  0  0  0  0
  146.1984  139.3733  151.0601 H   0  0  0  0  0  0  0  0  0  0  0  0
  145.4740  138.4944  152.3844 H   0  0  0  0  0  0  0  0  0  0  0  0
  148.2830  137.9118  152.1562 H   0  0  0  0  0  0  0  0  0  0  0  0
  149.5840  138.5235  153.4978 H   0  0  0  0  0  0  0  0  0  0  0  0
  151.6726  139.0784  154.8555 H   0  0  0  0  0  0  0  0  0  0  0  0
  152.6026  140.4984  156.6288 H   0  0  0  0  0  0  0  0  0  0  0  0
  151.9004  140.8958  159.2079 H   0  0  0  0  0  0  0  0  0  0  0  0
  153.1953  141.7067  158.3362 H   0  0  0  0  0  0  0  0  0  0  0  0
  151.5691  142.8621  160.6765 H   0  0  0  0  0  0  0  0  0  0  0  0
  153.2571  142.3890  160.7111 H   0  0  0  0  0  0  0  0  0  0  0  0
  150.9372  144.8128  159.3909 H   0  0  0  0  0  0  0  0  0  0  0  0
  152.1842  145.6874  158.5236 H   0  0  0  0  0  0  0  0  0  0  0  0
  152.4950  143.8219  156.9318 H   0  0  0  0  0  0  0  0  0  0  0  0
  150.8073  144.2874  156.9738 H   0  0  0  0  0  0  0  0  0  0  0  0
  147.9575  141.2700  155.2475 H   0  0  0  0  0  0  0  0  0  0  0  0
  146.3510  134.6918  149.8688 H   0  0  0  0  0  0  0  0  0  0  0  0
  144.7149  134.9695  150.4084 H   0  0  0  0  0  0  0  0  0  0  0  0
  147.1060  135.7720  151.8930 H   0  0  0  0  0  0  0  0  0  0  0  0
  1  2  1  0  0  0  0
  1 26  1  0  0  0  0
  1 27  1  0  0  0  0
  1 28  1  0  0  0  0
  2 25  1  0  0  0  0
  2  3  1  0  0  0  0
  2 29  1  0  0  0  0
  3  4  1  0  0  0  0
  3 30  1  0  0  0  0
  3 31  1  0  0  0  0
  4  5  1  0  0  0  0
  4 32  1  0  0  0  0
  4 33  1  0  0  0  0
  5  6  1  0  0  0  0
  5 34  1  0  0  0  0
  5 35  1  0  0  0  0
  6  7  1  0  0  0  0
  6 25  1  0  0  0  0
  6 55  1  0  0  0  0
  7  8  1  0  0  0  0
  7 36  1  0  0  0  0
  7 37  1  0  0  0  0
  8  9  1  0  0  0  0
  8 38  1  0  0  0  0
  8 39  1  0  0  0  0
  9 10  1  0  0  0  0
  9 40  1  0  0  0  0
 10 11  2  0  0  0  0
 10 12  1  0  0  0  0
 12 13  1  0  0  0  0
 12 41  1  0  0  0  0
 13 24  1  0  0  0  0
 13 14  2  0  0  0  0
 14 15  1  0  0  0  0
 14 42  1  0  0  0  0
 15 16  2  0  0  0  0
 15 43  1  0  0  0  0
 16 17  1  0  0  0  0
 16 23  1  0  0  0  0
 17 22  1  0  0  0  0
 17 18  1  0  0  0  0
 18 19  1  0  0  0  0
 18 44  1  0  0  0  0
 18 45  1  0  0  0  0
 19 20  1  0  0  0  0
 19 46  1  0  0  0  0
 19 47  1  0  0  0  0
 20 21  1  0  0  0  0
 21 22  1  0  0  0  0
 21 48  1  0  0  0  0
 21 49  1  0  0  0  0
 22 50  1  0  0  0  0
 22 51  1  0  0  0  0
 23 24  2  0  0  0  0
 24 52  1  0  0  0  0
 25 53  1  0  0  0  0
 25 54  1  0  0  0  0
M  CHG  1   6   1
M  END
> <s_m_source_file>
AV-unprocessed.smi

> <i_m_source_file_index>
1788

> <i_lp_mmshare_version>
43012

> <i_f3d_flags>
0

> <s_epik_input>
W0NIM11bQ0BASF0xW0NIMl1bQ0gyXVtDSDJdTihbQ0gyXTEpW0NIMl1bQ0gyXVtOSF1DKD1PKVtOSF1jMltjSF1bY0hdYyhuW2NIXTIpTjNbQ0gyXVtDSDJdT1tDSDJdW0NIMl0z

> <s_epik_cmdline>
J2VwaWtfcHl0aG9uJywgJy1waCcsICc3LjAnLCAnLXRuJywgJzgnLCAnLW1hJywgJzIwMCcsICctbWV0YWxfYmluZGluZycsICctaW1hZScsICc8aW5maWxlLm1hZT4nLCAnLW9tYWUnLCAnPG91dGZpbGUubWFlPic=

> <r_lp_tautomer_probability>
1

> <r_epik_Ionization_Penalty>
0.00340126

> <r_epik_Ionization_Penalty_Charging>
0.00171832

> <r_epik_Ionization_Penalty_Neutral>
0.00168294

> <r_epik_State_Penalty>
-0

> <r_epik_Charging_Adjusted_Penalty>
0.00171832

> <i_epik_Tot_Q>
1

> <i_epik_Tot_abs_Q>
1

> <r_epik_Metal_State_Penalty>
-0

> <b_epik_Metal_Only>
0

> <s_lp_Force_Field>
OPLS_2005

> <r_lp_Energy>
36.4544

> <b_lp_Chiralities_Consistent>
1

> <s_lp_Variant>
AV-unprocessed.smi:1788-2

> <Gold.Version>
5.8.1

> <Gold.Id.Protein>
6NUR|6NUR_protein|mol2

> <Gold.PLP.Fitness>
51.5712

> <Gold.PLP.PLP>
-43.9735

> <Gold.PLP.part.hbond>
-4.0000

> <Gold.PLP.part.metal>
0.0000

> <Gold.PLP.part.buried>
3.4484

> <Gold.PLP.part.nonpolar>
-43.3489

> <Gold.PLP.part.repulsive>
0.9706

> <Gold.PLP.ligand.clash>
0.0000

> <Gold.PLP.ligand.torsion>
0.7910

> <Gold.PLP.Chemscore.Hbond>
2.9200

> <Gold.PLP.Chemscore.CHOScore>
0.0000

> <Gold.PLP.Chemscore.Metal>
0.0000

> <Gold.Chemscore.Hbonds>
donor molecule, donor type, donor heavy atom, donor atom, acceptor molecule, acceptor atom, score
      L1  H     6    55       P1  7948  1.89
      L1  H     9    40       P1  7948  1.00

> <Gold.PLP.Chemscore.Internal.Correction>
0.4198

> <Gold.Rescore>
     Score         DG    S(hbond)    S(metal)    S(lipo)     H(rot)  DE(clash)    DE(int)     intcor
     17.52     -21.33       1.89        0.00     116.35       1.60       1.65       2.16       ----

> <Gold.Chemscore.Fitness>
17.5234

> <Gold.Chemscore.DG>
-21.3289

> <Gold.Chemscore.ZeroCoef>
-5.4800

> <Gold.Chemscore.Hbond>
1.8939

> <Gold.Chemscore.Metal>
0.0000

> <Gold.Chemscore.Lipo>
116.3534

> <Gold.Chemscore.Internal_Hbond>
0.0000

> <Gold.Chemscore.DEClash>
1.6503

> <Gold.Chemscore.DEInternal>
2.1552

> <Gold.Chemscore.Rot>
1.5976

> <Gold.Chemscore.Internal.Correction>
   9.000000E+99

> <Gold.Chemscore.Hbonds>
donor molecule, donor type, donor heavy atom, donor atom, acceptor molecule, acceptor atom, score
      L1  H     6    55       P1  7948  0.91
      L1  H     9    40       P1  7948  0.98

> <Gold.Chemscore.Hbond.Weighted>
-6.3255

> <Gold.Chemscore.Metal.Weighted>
-0.0000

> <Gold.Chemscore.Lipo.Weighted>
-13.6133

> <Gold.Chemscore.Internal_Hbond.Weighted>
0.0000

> <Gold.Chemscore.DEClash.Weighted>
1.6503

> <Gold.Chemscore.DEInternal.Weighted>
2.1552

> <Gold.Chemscore.Rot.Weighted>
4.0899

> <Gold.Chemscore.Internal.Correction.Weighted>
   9.000000E+99

> <Gold.Protein.RotatedTorsions>
[ 6907 6896 6895 6894 ] final -167.44 input  -60.11 | X-H torsion
[ 7974 7965 7964 7962 ] final  126.30 input  175.53 | X-H torsion
[ 8008 7997 7996 7995 ] final  -39.25 input   59.86 | X-H torsion
[ 10167 10162 10161 10158 ] final  -60.23 input  -65.29 | X-H torsion
[ 10718 10713 10712 10709 ] final  133.73 input   66.30 | X-H torsion
[ 10763 10752 10751 10750 ] final  -96.89 input  -60.55 | X-H torsion
[ 11005 11000 10999 10996 ] final   81.47 input  -57.11 | X-H torsion

> <Gold.Protein.ActiveResidues>
 VAL166  LYS551  ARG553  GLY616  TRP617  ASP618  TYR619  PRO620  LYS621  CYS622 
 ASP623  PHE694  ASN695  SER759  ASP760  ASP761  ALA762  ILE779  LEU786  VAL792 
 PHE793  MET794  SER795  GLU796  ALA797  LYS798  CYS799  TRP800  GLU811  SER814 

> <Gold.Protein.RotatedAtoms>
  151.4595  133.3596  159.2806 H   0  0  0  0  0  0  0  0  0  0  0  0  # atno 6907 bound_to 6896
  150.9035  134.8450  159.7387 H   0  0  0  0  0  0  0  0  0  0  0  0  # atno 6908 bound_to 6896
  152.4893  134.4518  159.9629 H   0  0  0  0  0  0  0  0  0  0  0  0  # atno 6909 bound_to 6896
  145.0632  139.3788  143.4995 H   0  0  0  0  0  0  0  0  0  0  0  0  # atno 7974 bound_to 7965
  154.4025  140.1556  156.2833 H   0  0  0  0  0  0  0  0  0  0  0  0  # atno 8008 bound_to 7997
  155.8850  140.3442  155.5893 H   0  0  0  0  0  0  0  0  0  0  0  0  # atno 8009 bound_to 7997
  155.7623  140.0819  157.2139 H   0  0  0  0  0  0  0  0  0  0  0  0  # atno 8010 bound_to 7997
  140.6085  143.2380  151.5765 H   0  0  0  0  0  0  0  0  0  0  0  0  # atno 10167 bound_to 10162
  157.4744  131.1082  150.9762 H   0  0  0  0  0  0  0  0  0  0  0  0  # atno 10718 bound_to 10713
  154.7280  135.5067  153.8917 H   0  0  0  0  0  0  0  0  0  0  0  0  # atno 10763 bound_to 10752
  153.0923  135.6662  153.9839 H   0  0  0  0  0  0  0  0  0  0  0  0  # atno 10764 bound_to 10752
  153.9647  135.3044  155.3410 H   0  0  0  0  0  0  0  0  0  0  0  0  # atno 10765 bound_to 10752
  139.9097  134.7999  156.2045 H   0  0  0  0  0  0  0  0  0  0  0  0  # atno 11005 bound_to 11000
  146.3525  140.0341  142.8648 LP  0  0  0  0  0  0  0  0  0  0  0  0  # atno 17320 bound_to 7965
  145.1382  140.9557  143.4504 LP  0  0  0  0  0  0  0  0  0  0  0  0  # atno 17321 bound_to 7965
  139.5343  144.2826  152.1217 LP  0  0  0  0  0  0  0  0  0  0  0  0  # atno 17342 bound_to 10162
  140.2021  144.4648  150.6426 LP  0  0  0  0  0  0  0  0  0  0  0  0  # atno 17343 bound_to 10162
  157.0517  130.5789  149.5371 LP  0  0  0  0  0  0  0  0  0  0  0  0  # atno 17370 bound_to 10713
  156.0089  130.5179  150.7923 LP  0  0  0  0  0  0  0  0  0  0  0  0  # atno 17371 bound_to 10713
  141.0504  133.6892  156.1761 LP  0  0  0  0  0  0  0  0  0  0  0  0  # atno 17394 bound_to 11000
  140.6819  134.4758  157.5589 LP  0  0  0  0  0  0  0  0  0  0  0  0  # atno 17395 bound_to 11000

$$$$
