AV-unprocessed.smi:2391|AV-procd|sdf|9482|dock9
  -GOLD-   2272013113D 1   1.00000     0.00000
 Structure written by MMmdl.
 35 36  0  0  0  0  0  0  0  0  1 V2000
  145.3500  129.5454  152.3505 O   0  0  0  0  0  0  0  0  0  0  0  0
  146.4643  129.8655  151.9365 C   0  0  0  0  0  0  0  0  0  0  0  0
  146.7625  131.0283  151.3313 N   0  0  0  0  0  0  0  0  0  0  0  0
  145.8916  132.1100  151.0364 C   0  0  0  0  0  0  0  0  0  0  0  0
  144.5359  131.7617  150.8561 C   0  0  0  0  0  0  0  0  0  0  0  0
  143.6178  132.7848  150.5640 C   0  0  0  0  0  0  0  0  0  0  0  0
  144.1211  134.0936  150.4708 C   0  0  0  0  0  0  0  0  0  0  0  0
  145.4283  134.3815  150.6502 N   0  0  0  0  0  0  0  0  0  0  0  0
  146.2963  133.4028  150.9286 N   0  0  0  0  0  0  0  0  0  0  0  0
  147.5472  129.0802  152.0330 N   0  0  0  0  0  0  0  0  0  0  0  0
  147.5963  127.7514  152.6475 C   0  0  1  0  0  0  0  0  0  0  0  0
  148.7045  126.9044  151.9690 C   0  0  0  0  0  0  0  0  0  0  0  0
  148.7200  126.9918  150.4373 C   0  0  0  0  0  0  0  0  0  0  0  0
  149.5622  125.7974  149.9888 C   0  0  0  0  0  0  0  0  0  0  0  0
  149.3548  124.7176  151.0582 C   0  0  0  0  0  0  0  0  0  0  0  0
  148.6109  125.3925  152.2192 C   0  0  0  0  0  0  0  0  0  0  0  0
  147.7826  127.9205  154.1726 C   0  0  0  0  0  0  0  0  0  0  0  0
  146.7530  128.5999  154.6798 F   0  0  0  0  0  0  0  0  0  0  0  0
  147.8286  126.7380  154.7846 F   0  0  0  0  0  0  0  0  0  0  0  0
  148.9061  128.5887  154.4371 F   0  0  0  0  0  0  0  0  0  0  0  0
  147.7225  131.1536  151.0461 H   0  0  0  0  0  0  0  0  0  0  0  0
  144.2045  130.7369  150.9397 H   0  0  0  0  0  0  0  0  0  0  0  0
  142.5688  132.5746  150.4175 H   0  0  0  0  0  0  0  0  0  0  0  0
  143.4666  134.9235  150.2493 H   0  0  0  0  0  0  0  0  0  0  0  0
  148.4184  129.4322  151.6642 H   0  0  0  0  0  0  0  0  0  0  0  0
  146.6421  127.2440  152.4936 H   0  0  0  0  0  0  0  0  0  0  0  0
  149.6777  127.2440  152.3276 H   0  0  0  0  0  0  0  0  0  0  0  0
  147.7057  126.8905  150.0480 H   0  0  0  0  0  0  0  0  0  0  0  0
  149.1222  127.9369  150.0709 H   0  0  0  0  0  0  0  0  0  0  0  0
  149.2874  125.4534  148.9913 H   0  0  0  0  0  0  0  0  0  0  0  0
  150.6144  126.0832  149.9590 H   0  0  0  0  0  0  0  0  0  0  0  0
  148.7748  123.8804  150.6681 H   0  0  0  0  0  0  0  0  0  0  0  0
  150.3164  124.3216  151.3870 H   0  0  0  0  0  0  0  0  0  0  0  0
  149.0277  125.1072  153.1853 H   0  0  0  0  0  0  0  0  0  0  0  0
  147.5666  125.0775  152.2063 H   0  0  0  0  0  0  0  0  0  0  0  0
  1  2  2  0  0  0  0
  2  3  1  0  0  0  0
  2 10  1  0  0  0  0
  3  4  1  0  0  0  0
  3 21  1  0  0  0  0
  4  9  1  0  0  0  0
  4  5  2  0  0  0  0
  5  6  1  0  0  0  0
  5 22  1  0  0  0  0
  6  7  2  0  0  0  0
  6 23  1  0  0  0  0
  7  8  1  0  0  0  0
  7 24  1  0  0  0  0
  8  9  2  0  0  0  0
 10 11  1  0  0  0  0
 10 25  1  0  0  0  0
 11 12  1  0  0  0  0
 11 17  1  0  0  0  0
 11 26  1  0  0  0  0
 12 16  1  0  0  0  0
 12 13  1  0  0  0  0
 12 27  1  0  0  0  0
 13 14  1  0  0  0  0
 13 28  1  0  0  0  0
 13 29  1  0  0  0  0
 14 15  1  0  0  0  0
 14 30  1  0  0  0  0
 14 31  1  0  0  0  0
 15 16  1  0  0  0  0
 15 32  1  0  0  0  0
 15 33  1  0  0  0  0
 16 34  1  0  0  0  0
 16 35  1  0  0  0  0
 17 18  1  0  0  0  0
 17 19  1  0  0  0  0
 17 20  1  0  0  0  0
M  END
> <s_m_source_file>
AV-unprocessed.smi

> <i_m_source_file_index>
2391

> <i_lp_mmshare_version>
43012

> <i_f3d_flags>
0

> <s_epik_input>
W0NIMl0xW0NIMl1bQ0gyXVtDSDJdW0NIXTFbQ0BIXShDKEYpKEYpRilbTkhdQyg9TylbTkhdYzJbY0hdW2NIXVtjSF1ubjI=

> <s_epik_cmdline>
J2VwaWtfcHl0aG9uJywgJy1waCcsICc3LjAnLCAnLXRuJywgJzgnLCAnLW1hJywgJzIwMCcsICctbWV0YWxfYmluZGluZycsICctaW1hZScsICc8aW5maWxlLm1hZT4nLCAnLW9tYWUnLCAnPG91dGZpbGUubWFlPic=

> <r_lp_tautomer_probability>
1

> <r_epik_Ionization_Penalty>
0.00359591

> <r_epik_Ionization_Penalty_Charging>
0

> <r_epik_Ionization_Penalty_Neutral>
0.00359591

> <r_epik_State_Penalty>
0.0123658

> <r_epik_Charging_Adjusted_Penalty>
0.0123658

> <i_epik_Tot_Q>
0

> <i_epik_Tot_abs_Q>
0

> <r_epik_Metal_State_Penalty>
0.0410426

> <b_epik_Metal_Only>
0

> <s_lp_Force_Field>
OPLS_2005

> <r_lp_Energy>
31.4034

> <b_lp_Chiralities_Consistent>
1

> <s_lp_Variant>
AV-unprocessed.smi:2391-2

> <Gold.Version>
5.8.1

> <Gold.Id.Protein>
6NUR|6NUR_protein|mol2

> <Gold.PLP.Fitness>
39.1194

> <Gold.PLP.PLP>
-32.7910

> <Gold.PLP.part.hbond>
-1.7602

> <Gold.PLP.part.metal>
0.0000

> <Gold.PLP.part.buried>
-5.2181

> <Gold.PLP.part.nonpolar>
-27.5168

> <Gold.PLP.part.repulsive>
1.1589

> <Gold.PLP.ligand.clash>
0.0000

> <Gold.PLP.ligand.torsion>
0.7378

> <Gold.PLP.Chemscore.Hbond>
1.6883

> <Gold.PLP.Chemscore.CHOScore>
0.8174

> <Gold.PLP.Chemscore.Metal>
0.0000

> <Gold.Chemscore.Hbonds>
donor molecule, donor type, donor heavy atom, donor atom, acceptor molecule, acceptor atom, score
      L1  H     3    21       P1 10747  0.93
      L1  H    10    25       P1 10747  0.71
      L1  C     7    24       P1 10186  0.67

> <Gold.PLP.Chemscore.Internal.Correction>
0.2866

> <Gold.Rescore>
     Score         DG    S(hbond)    S(metal)    S(lipo)     H(rot)  DE(clash)    DE(int)     intcor
     10.22     -14.39       1.21        0.00      70.81       1.33       0.27       3.90       ----

> <Gold.Chemscore.Fitness>
10.2157

> <Gold.Chemscore.DG>
-14.3925

> <Gold.Chemscore.ZeroCoef>
-5.4800

> <Gold.Chemscore.Hbond>
1.2076

> <Gold.Chemscore.Metal>
0.0000

> <Gold.Chemscore.Lipo>
70.8110

> <Gold.Chemscore.Internal_Hbond>
0.0000

> <Gold.Chemscore.DEClash>
0.2732

> <Gold.Chemscore.DEInternal>
3.9036

> <Gold.Chemscore.Rot>
1.3304

> <Gold.Chemscore.Internal.Correction>
   9.000000E+99

> <Gold.Chemscore.Hbonds>
donor molecule, donor type, donor heavy atom, donor atom, acceptor molecule, acceptor atom, score
      L1  H     3    21       P1 10747  0.87
      L1  H    10    25       P1 10747  0.15

> <Gold.Chemscore.Hbond.Weighted>
-4.0334

> <Gold.Chemscore.Metal.Weighted>
-0.0000

> <Gold.Chemscore.Lipo.Weighted>
-8.2849

> <Gold.Chemscore.Internal_Hbond.Weighted>
0.0000

> <Gold.Chemscore.DEClash.Weighted>
0.2732

> <Gold.Chemscore.DEInternal.Weighted>
3.9036

> <Gold.Chemscore.Rot.Weighted>
3.4057

> <Gold.Chemscore.Internal.Correction.Weighted>
   9.000000E+99

> <Gold.Protein.RotatedTorsions>
[ 6907 6896 6895 6894 ] final   79.74 input  -60.11 | X-H torsion
[ 7974 7965 7964 7962 ] final -125.88 input  175.53 | X-H torsion
[ 8008 7997 7996 7995 ] final -145.68 input   59.86 | X-H torsion
[ 10167 10162 10161 10158 ] final  116.45 input  -65.29 | X-H torsion
[ 10718 10713 10712 10709 ] final   69.00 input   66.30 | X-H torsion
[ 10763 10752 10751 10750 ] final  -19.69 input  -60.55 | X-H torsion
[ 11005 11000 10999 10996 ] final   96.51 input  -57.11 | X-H torsion

> <Gold.Protein.ActiveResidues>
 VAL166  LYS551  ARG553  GLY616  TRP617  ASP618  TYR619  PRO620  LYS621  CYS622 
 ASP623  PHE694  ASN695  SER759  ASP760  ASP761  ALA762  ILE779  LEU786  VAL792 
 PHE793  MET794  SER795  GLU796  ALA797  LYS798  CYS799  TRP800  GLU811  SER814 

> <Gold.Protein.RotatedAtoms>
  152.5210  134.3465  159.9235 H   0  0  0  0  0  0  0  0  0  0  0  0  # atno 6907 bound_to 6896
  151.3415  133.3954  159.2679 H   0  0  0  0  0  0  0  0  0  0  0  0  # atno 6908 bound_to 6896
  150.9800  134.9175  159.7896 H   0  0  0  0  0  0  0  0  0  0  0  0  # atno 6909 bound_to 6896
  144.9930  140.7749  143.4543 H   0  0  0  0  0  0  0  0  0  0  0  0  # atno 7974 bound_to 7965
  155.5471  140.0613  157.2858 H   0  0  0  0  0  0  0  0  0  0  0  0  # atno 8008 bound_to 7997
  154.4433  140.1909  156.0693 H   0  0  0  0  0  0  0  0  0  0  0  0  # atno 8009 bound_to 7997
  156.0543  140.3280  155.7391 H   0  0  0  0  0  0  0  0  0  0  0  0  # atno 8010 bound_to 7997
  139.6246  144.7106  151.2561 H   0  0  0  0  0  0  0  0  0  0  0  0  # atno 10167 bound_to 10162
  157.6321  130.9403  150.0454 H   0  0  0  0  0  0  0  0  0  0  0  0  # atno 10718 bound_to 10713
  153.6088  135.6997  153.5355 H   0  0  0  0  0  0  0  0  0  0  0  0  # atno 10763 bound_to 10752
  153.3034  135.4122  155.1272 H   0  0  0  0  0  0  0  0  0  0  0  0  # atno 10764 bound_to 10752
  154.8568  135.3654  154.5626 H   0  0  0  0  0  0  0  0  0  0  0  0  # atno 10765 bound_to 10752
  139.8781  134.8954  156.4169 H   0  0  0  0  0  0  0  0  0  0  0  0  # atno 11005 bound_to 11000
  145.2259  139.2137  143.5068 LP  0  0  0  0  0  0  0  0  0  0  0  0  # atno 17320 bound_to 7965
  146.3435  140.2127  142.8590 LP  0  0  0  0  0  0  0  0  0  0  0  0  # atno 17321 bound_to 7965
  140.7403  143.6592  150.8179 LP  0  0  0  0  0  0  0  0  0  0  0  0  # atno 17342 bound_to 10162
  140.0208  143.5545  152.2801 LP  0  0  0  0  0  0  0  0  0  0  0  0  # atno 17343 bound_to 10162
  156.1532  130.3642  149.9407 LP  0  0  0  0  0  0  0  0  0  0  0  0  # atno 17370 bound_to 10713
  156.7422  130.9083  151.3633 LP  0  0  0  0  0  0  0  0  0  0  0  0  # atno 17371 bound_to 10713
  140.9161  133.7677  155.9850 LP  0  0  0  0  0  0  0  0  0  0  0  0  # atno 17394 bound_to 11000
  140.8492  134.2974  157.5282 LP  0  0  0  0  0  0  0  0  0  0  0  0  # atno 17395 bound_to 11000

$$$$
