AV-unprocessed.smi:364|AV-procd|sdf|2425|dock3
  -GOLD-   2262022363D 1   1.00000     0.00000
 Structure written by MMmdl.
 37 38  0  0  0  0  0  0  0  0  1 V2000
  152.8756  142.8920  161.2731 C   0  0  0  0  0  0  0  0  0  0  0  0
  151.8686  142.7852  160.1194 C   0  0  2  0  0  0  0  0  0  0  0  0
  151.9926  141.4366  159.3851 C   0  0  0  0  0  0  0  0  0  0  0  0
  150.9877  141.3270  158.2271 C   0  0  0  0  0  0  0  0  0  0  0  0
  151.1394  142.4987  157.2369 C   0  0  1  0  0  0  0  0  0  0  0  0
  150.1248  142.4238  156.1919 N   0  0  0  0  0  0  0  0  0  0  0  0
  150.0237  141.4588  155.2625 C   0  0  0  0  0  0  0  0  0  0  0  0
  150.7956  140.5022  155.2077 O   0  0  0  0  0  0  0  0  0  0  0  0
  148.8887  141.5629  154.2286 C   0  0  0  0  0  0  0  0  0  0  0  0
  147.5655  141.8955  154.7878 N   0  0  0  0  0  0  0  0  0  0  0  0
  146.7842  142.8303  154.0878 C   0  0  0  0  0  0  0  0  0  0  0  0
  145.5687  143.1812  154.5316 C   0  0  0  0  0  0  0  0  0  0  0  0
  145.1158  142.5378  155.7718 C   0  0  0  0  0  0  0  0  0  0  0  0
  145.8247  141.6838  156.4111 N   0  0  0  0  0  0  0  0  0  0  0  0
  147.1006  141.3167  155.9429 C   0  0  0  0  0  0  0  0  0  0  0  0
  147.7847  140.4918  156.5485 O   0  0  0  0  0  0  0  0  0  0  0  0
  151.0186  143.8474  157.9685 C   0  0  0  0  0  0  0  0  0  0  0  0
  152.0244  143.9522  159.1258 C   0  0  0  0  0  0  0  0  0  0  0  0
  153.9022  142.8432  160.9089 H   0  0  0  0  0  0  0  0  0  0  0  0
  152.7380  142.0829  161.9907 H   0  0  0  0  0  0  0  0  0  0  0  0
  152.7572  143.8329  161.8112 H   0  0  0  0  0  0  0  0  0  0  0  0
  150.8680  142.8420  160.5506 H   0  0  0  0  0  0  0  0  0  0  0  0
  153.0055  141.3190  158.9975 H   0  0  0  0  0  0  0  0  0  0  0  0
  151.8334  140.6147  160.0840 H   0  0  0  0  0  0  0  0  0  0  0  0
  151.1295  140.3767  157.7112 H   0  0  0  0  0  0  0  0  0  0  0  0
  149.9737  141.3110  158.6290 H   0  0  0  0  0  0  0  0  0  0  0  0
  152.1290  142.4492  156.7780 H   0  0  0  0  0  0  0  0  0  0  0  0
  149.4474  143.1724  156.1635 H   0  0  0  0  0  0  0  0  0  0  0  0
  149.1744  142.2985  153.4748 H   0  0  0  0  0  0  0  0  0  0  0  0
  148.8377  140.6154  153.6901 H   0  0  0  0  0  0  0  0  0  0  0  0
  147.2278  143.2279  153.1864 H   0  0  0  0  0  0  0  0  0  0  0  0
  144.9174  143.8904  154.0426 H   0  0  0  0  0  0  0  0  0  0  0  0
  144.1236  142.8374  156.1182 H   0  0  0  0  0  0  0  0  0  0  0  0
  151.1791  144.6680  157.2681 H   0  0  0  0  0  0  0  0  0  0  0  0
  150.0067  143.9682  158.3583 H   0  0  0  0  0  0  0  0  0  0  0  0
  151.8872  144.9029  159.6420 H   0  0  0  0  0  0  0  0  0  0  0  0
  153.0388  143.9630  158.7244 H   0  0  0  0  0  0  0  0  0  0  0  0
  1  2  1  0  0  0  0
  1 19  1  0  0  0  0
  1 20  1  0  0  0  0
  1 21  1  0  0  0  0
  2 18  1  0  0  0  0
  2  3  1  0  0  0  0
  2 22  1  0  0  0  0
  3  4  1  0  0  0  0
  3 23  1  0  0  0  0
  3 24  1  0  0  0  0
  4  5  1  0  0  0  0
  4 25  1  0  0  0  0
  4 26  1  0  0  0  0
  5  6  1  0  0  0  0
  5 17  1  0  0  0  0
  5 27  1  0  0  0  0
  6  7  1  0  0  0  0
  6 28  1  0  0  0  0
  7  8  2  0  0  0  0
  7  9  1  0  0  0  0
  9 10  1  0  0  0  0
  9 29  1  0  0  0  0
  9 30  1  0  0  0  0
 10 15  1  0  0  0  0
 10 11  1  0  0  0  0
 11 12  2  0  0  0  0
 11 31  1  0  0  0  0
 12 13  1  0  0  0  0
 12 32  1  0  0  0  0
 13 14  2  0  0  0  0
 13 33  1  0  0  0  0
 14 15  1  0  0  0  0
 15 16  2  0  0  0  0
 17 18  1  0  0  0  0
 17 34  1  0  0  0  0
 17 35  1  0  0  0  0
 18 36  1  0  0  0  0
 18 37  1  0  0  0  0
M  END
> <s_m_source_file>
AV-unprocessed.smi

> <i_m_source_file_index>
364

> <i_lp_mmshare_version>
43012

> <i_f3d_flags>
0

> <s_epik_input>
W0NIM11bQ0BASF0xW0NIMl1bQ0gyXVtDQEhdKFtDSDJdW0NIMl0xKVtOSF1DKD1PKVtDSDJdbjJbY0hdW2NIXVtjSF1uYzI9Tw==

> <s_epik_cmdline>
J2VwaWtfcHl0aG9uJywgJy1waCcsICc3LjAnLCAnLXRuJywgJzgnLCAnLW1hJywgJzIwMCcsICctbWV0YWxfYmluZGluZycsICctaW1hZScsICc8aW5maWxlLm1hZT4nLCAnLW9tYWUnLCAnPG91dGZpbGUubWFlPic=

> <r_lp_tautomer_probability>
1

> <r_epik_Ionization_Penalty>
7.65306e-06

> <r_epik_Ionization_Penalty_Charging>
1.81354e-08

> <r_epik_Ionization_Penalty_Neutral>
7.63492e-06

> <r_epik_State_Penalty>
-0

> <r_epik_Charging_Adjusted_Penalty>
1.81354e-08

> <i_epik_Tot_Q>
0

> <i_epik_Tot_abs_Q>
0

> <r_epik_Metal_State_Penalty>
-0

> <b_epik_Metal_Only>
0

> <s_lp_Force_Field>
OPLS_2005

> <r_lp_Energy>
10.9522

> <b_lp_Chiralities_Consistent>
1

> <s_lp_Variant>
AV-unprocessed.smi:364-1

> <Gold.Version>
5.8.1

> <Gold.Id.Protein>
6NUR|6NUR_protein|mol2

> <Gold.PLP.Fitness>
43.5024

> <Gold.PLP.PLP>
-38.5623

> <Gold.PLP.part.hbond>
-2.0000

> <Gold.PLP.part.metal>
0.0000

> <Gold.PLP.part.buried>
-2.3435

> <Gold.PLP.part.nonpolar>
-33.9625

> <Gold.PLP.part.repulsive>
0.2420

> <Gold.PLP.ligand.clash>
0.0000

> <Gold.PLP.ligand.torsion>
0.4452

> <Gold.PLP.Chemscore.Hbond>
1.9424

> <Gold.PLP.Chemscore.CHOScore>
0.0000

> <Gold.PLP.Chemscore.Metal>
0.0000

> <Gold.Chemscore.Hbonds>
donor molecule, donor type, donor heavy atom, donor atom, acceptor molecule, acceptor atom, score
      L1  H     6    28       P1  8028  1.00
      P1  H  7989  7998       L1     8  0.94

> <Gold.PLP.Chemscore.Internal.Correction>
0.0033

> <Gold.Rescore>
     Score         DG    S(hbond)    S(metal)    S(lipo)     H(rot)  DE(clash)    DE(int)     intcor
     14.79     -16.04       1.00        0.00      94.49       1.50       0.03       1.22       ----

> <Gold.Chemscore.Fitness>
14.7889

> <Gold.Chemscore.DG>
-16.0407

> <Gold.Chemscore.ZeroCoef>
-5.4800

> <Gold.Chemscore.Hbond>
1.0000

> <Gold.Chemscore.Metal>
0.0000

> <Gold.Chemscore.Lipo>
94.4859

> <Gold.Chemscore.Internal_Hbond>
0.0000

> <Gold.Chemscore.DEClash>
0.0270

> <Gold.Chemscore.DEInternal>
1.2248

> <Gold.Chemscore.Rot>
1.4977

> <Gold.Chemscore.Internal.Correction>
   9.000000E+99

> <Gold.Chemscore.Hbonds>
donor molecule, donor type, donor heavy atom, donor atom, acceptor molecule, acceptor atom, score
      L1  H     6    28       P1  8028  0.97
      P1  H  7989  7998       L1     8  0.20

> <Gold.Chemscore.Hbond.Weighted>
-3.3400

> <Gold.Chemscore.Metal.Weighted>
-0.0000

> <Gold.Chemscore.Lipo.Weighted>
-11.0549

> <Gold.Chemscore.Internal_Hbond.Weighted>
0.0000

> <Gold.Chemscore.DEClash.Weighted>
0.0270

> <Gold.Chemscore.DEInternal.Weighted>
1.2248

> <Gold.Chemscore.Rot.Weighted>
3.8341

> <Gold.Chemscore.Internal.Correction.Weighted>
   9.000000E+99

> <Gold.Protein.RotatedTorsions>
[ 6907 6896 6895 6894 ] final   94.78 input  -60.11 | X-H torsion
[ 7974 7965 7964 7962 ] final  -90.16 input  175.53 | X-H torsion
[ 8008 7997 7996 7995 ] final   69.00 input   59.86 | X-H torsion
[ 10167 10162 10161 10158 ] final  179.29 input  -65.29 | X-H torsion
[ 10718 10713 10712 10709 ] final  102.60 input   66.30 | X-H torsion
[ 10763 10752 10751 10750 ] final -171.24 input  -60.55 | X-H torsion
[ 11005 11000 10999 10996 ] final  152.85 input  -57.11 | X-H torsion

> <Gold.Protein.ActiveResidues>
 VAL166  LYS551  ARG553  GLY616  TRP617  ASP618  TYR619  PRO620  LYS621  CYS622 
 ASP623  PHE694  ASN695  SER759  ASP760  ASP761  ALA762  ILE779  LEU786  VAL792 
 PHE793  MET794  SER795  GLU796  ALA797  LYS798  CYS799  TRP800  GLU811  SER814 

> <Gold.Protein.RotatedAtoms>
  152.5448  134.1142  159.8370 H   0  0  0  0  0  0  0  0  0  0  0  0  # atno 6907 bound_to 6896
  151.1205  133.5100  159.2609 H   0  0  0  0  0  0  0  0  0  0  0  0  # atno 6908 bound_to 6896
  151.1784  135.0360  159.8836 H   0  0  0  0  0  0  0  0  0  0  0  0  # atno 6909 bound_to 6896
  145.4301  140.9555  143.2133 H   0  0  0  0  0  0  0  0  0  0  0  0  # atno 7974 bound_to 7965
  155.7170  140.3493  155.4999 H   0  0  0  0  0  0  0  0  0  0  0  0  # atno 8008 bound_to 7997
  155.9304  140.1083  157.1158 H   0  0  0  0  0  0  0  0  0  0  0  0  # atno 8009 bound_to 7997
  154.4084  140.1232  156.4782 H   0  0  0  0  0  0  0  0  0  0  0  0  # atno 8010 bound_to 7997
  139.5330  144.2579  152.0731 H   0  0  0  0  0  0  0  0  0  0  0  0  # atno 10167 bound_to 10162
  157.6797  131.0757  150.5429 H   0  0  0  0  0  0  0  0  0  0  0  0  # atno 10718 bound_to 10713
  154.6327  135.2888  155.0197 H   0  0  0  0  0  0  0  0  0  0  0  0  # atno 10763 bound_to 10752
  154.1352  135.6527  153.4934 H   0  0  0  0  0  0  0  0  0  0  0  0  # atno 10764 bound_to 10752
  153.0287  135.5320  154.7161 H   0  0  0  0  0  0  0  0  0  0  0  0  # atno 10765 bound_to 10752
  140.1345  134.8780  157.2248 H   0  0  0  0  0  0  0  0  0  0  0  0  # atno 11005 bound_to 11000
  144.8188  139.5828  143.6996 LP  0  0  0  0  0  0  0  0  0  0  0  0  # atno 17320 bound_to 7965
  146.2611  139.6413  142.9361 LP  0  0  0  0  0  0  0  0  0  0  0  0  # atno 17321 bound_to 7965
  140.2045  144.4624  150.6415 LP  0  0  0  0  0  0  0  0  0  0  0  0  # atno 17342 bound_to 10162
  140.6520  143.2227  151.6056 LP  0  0  0  0  0  0  0  0  0  0  0  0  # atno 17343 bound_to 10162
  156.5735  130.4286  149.6009 LP  0  0  0  0  0  0  0  0  0  0  0  0  # atno 17370 bound_to 10713
  156.2721  130.7022  151.1823 LP  0  0  0  0  0  0  0  0  0  0  0  0  # atno 17371 bound_to 10713
  140.2800  134.3361  155.7346 LP  0  0  0  0  0  0  0  0  0  0  0  0  # atno 17394 bound_to 11000
  141.2176  133.7473  156.9350 LP  0  0  0  0  0  0  0  0  0  0  0  0  # atno 17395 bound_to 11000

$$$$
