AV-unprocessed.smi:1126|AV-procd|sdf|4838|dock8
  -GOLD-   22720 3403D 1   1.00000     0.00000
 Structure written by MMmdl.
 48 49  0  0  0  0  0  0  0  0  2 V2000
  144.8425  135.5280  151.4207 C   0  0  0  0  0  0  0  0  0  0  0  0
  144.7967  136.1896  152.6729 O   0  0  0  0  0  0  0  0  0  0  0  0
  145.3339  137.5010  152.6163 C   0  0  0  0  0  0  0  0  0  0  0  0
  145.3378  138.0961  154.0327 C   0  0  0  0  0  0  0  0  0  0  0  0
  145.8790  139.4788  154.0640 N   0  3  2  0  0  0  0  0  0  0  0  0
  147.1230  139.6143  153.2639 C   0  0  0  0  0  0  0  0  0  0  0  0
  147.5861  141.0810  153.1953 C   0  0  0  0  0  0  0  0  0  0  0  0
  147.7813  141.6977  154.5931 C   0  0  2  0  0  0  0  0  0  0  0  0
  149.0602  141.1711  155.2852 C   0  0  0  0  0  0  0  0  0  0  0  0
  149.7069  142.1888  156.1069 N   0  0  0  0  0  0  0  0  0  0  0  0
  150.7071  141.9757  156.9770 C   0  0  0  0  0  0  0  0  0  0  0  0
  151.1788  140.8632  157.2110 O   0  0  0  0  0  0  0  0  0  0  0  0
  151.2527  143.2066  157.7032 C   0  0  0  0  0  0  0  0  0  0  0  0
  151.9772  142.8319  158.9049 N   0  0  0  0  0  0  0  0  0  0  0  0
  151.9264  143.4162  160.1531 C   0  0  0  0  0  0  0  0  0  0  0  0
  152.7697  142.7169  160.9694 C   0  0  0  0  0  0  0  0  0  0  0  0
  153.0726  142.9447  162.4223 C   0  0  0  0  0  0  0  0  0  0  0  0
  153.2987  141.7093  160.1135 C   0  0  0  0  0  0  0  0  0  0  0  0
  152.8237  141.7796  158.8805 N   0  0  0  0  0  0  0  0  0  0  0  0
  146.4858  141.4917  155.4056 C   0  0  0  0  0  0  0  0  0  0  0  0
  146.0507  140.0159  155.4397 C   0  0  0  0  0  0  0  0  0  0  0  0
  144.4200  134.5278  151.5193 H   0  0  0  0  0  0  0  0  0  0  0  0
  145.8690  135.4259  151.0661 H   0  0  0  0  0  0  0  0  0  0  0  0
  144.2634  136.0653  150.6688 H   0  0  0  0  0  0  0  0  0  0  0  0
  146.3340  137.4907  152.1827 H   0  0  0  0  0  0  0  0  0  0  0  0
  144.7125  138.1188  151.9662 H   0  0  0  0  0  0  0  0  0  0  0  0
  144.3322  138.0855  154.4558 H   0  0  0  0  0  0  0  0  0  0  0  0
  145.9437  137.4476  154.6672 H   0  0  0  0  0  0  0  0  0  0  0  0
  147.9038  138.9825  153.6891 H   0  0  0  0  0  0  0  0  0  0  0  0
  146.9462  139.2533  152.2499 H   0  0  0  0  0  0  0  0  0  0  0  0
  148.5068  141.1564  152.6160 H   0  0  0  0  0  0  0  0  0  0  0  0
  146.8404  141.6613  152.6500 H   0  0  0  0  0  0  0  0  0  0  0  0
  147.9181  142.7717  154.4579 H   0  0  0  0  0  0  0  0  0  0  0  0
  148.8548  140.2739  155.8700 H   0  0  0  0  0  0  0  0  0  0  0  0
  149.7836  140.8701  154.5268 H   0  0  0  0  0  0  0  0  0  0  0  0
  149.3884  143.1399  155.9854 H   0  0  0  0  0  0  0  0  0  0  0  0
  151.9106  143.7692  157.0388 H   0  0  0  0  0  0  0  0  0  0  0  0
  150.4338  143.8709  157.9827 H   0  0  0  0  0  0  0  0  0  0  0  0
  151.2977  144.2713  160.3545 H   0  0  0  0  0  0  0  0  0  0  0  0
  154.0565  142.5627  162.6951 H   0  0  0  0  0  0  0  0  0  0  0  0
  152.3453  142.4499  163.0659 H   0  0  0  0  0  0  0  0  0  0  0  0
  153.0588  144.0048  162.6763 H   0  0  0  0  0  0  0  0  0  0  0  0
  154.0096  140.9315  160.3515 H   0  0  0  0  0  0  0  0  0  0  0  0
  146.5928  141.8755  156.4197 H   0  0  0  0  0  0  0  0  0  0  0  0
  145.6870  142.0812  154.9534 H   0  0  0  0  0  0  0  0  0  0  0  0
  145.1156  139.9423  155.9937 H   0  0  0  0  0  0  0  0  0  0  0  0
  146.7807  139.4136  155.9819 H   0  0  0  0  0  0  0  0  0  0  0  0
  145.1902  140.0594  153.6066 H   0  0  0  0  0  0  0  0  0  0  0  0
  1  2  1  0  0  0  0
  1 22  1  0  0  0  0
  1 23  1  0  0  0  0
  1 24  1  0  0  0  0
  2  3  1  0  0  0  0
  3  4  1  0  0  0  0
  3 25  1  0  0  0  0
  3 26  1  0  0  0  0
  4  5  1  0  0  0  0
  4 27  1  0  0  0  0
  4 28  1  0  0  0  0
  5 21  1  0  0  0  0
  5  6  1  0  0  0  0
  5 48  1  0  0  0  0
  6  7  1  0  0  0  0
  6 29  1  0  0  0  0
  6 30  1  0  0  0  0
  7  8  1  0  0  0  0
  7 31  1  0  0  0  0
  7 32  1  0  0  0  0
  8  9  1  0  0  0  0
  8 20  1  0  0  0  0
  8 33  1  0  0  0  0
  9 10  1  0  0  0  0
  9 34  1  0  0  0  0
  9 35  1  0  0  0  0
 10 11  1  0  0  0  0
 10 36  1  0  0  0  0
 11 12  2  0  0  0  0
 11 13  1  0  0  0  0
 13 14  1  0  0  0  0
 13 37  1  0  0  0  0
 13 38  1  0  0  0  0
 14 19  1  0  0  0  0
 14 15  1  0  0  0  0
 15 16  2  0  0  0  0
 15 39  1  0  0  0  0
 16 17  1  0  0  0  0
 16 18  1  0  0  0  0
 17 40  1  0  0  0  0
 17 41  1  0  0  0  0
 17 42  1  0  0  0  0
 18 19  2  0  0  0  0
 18 43  1  0  0  0  0
 20 21  1  0  0  0  0
 20 44  1  0  0  0  0
 20 45  1  0  0  0  0
 21 46  1  0  0  0  0
 21 47  1  0  0  0  0
M  CHG  1   5   1
M  END
> <s_m_source_file>
AV-unprocessed.smi

> <i_m_source_file_index>
1126

> <i_lp_mmshare_version>
43012

> <i_f3d_flags>
0

> <s_epik_input>
W0NIM11PW0NIMl1bQ0gyXU4xW0NIMl1bQ0gyXVtDSF0oW0NIMl1bQ0gyXTEpW0NIMl1bTkhdQyg9TylbQ0gyXW4yW2NIXWMoW0NIM10pW2NIXW4y

> <s_epik_cmdline>
J2VwaWtfcHl0aG9uJywgJy1waCcsICc3LjAnLCAnLXRuJywgJzgnLCAnLW1hJywgJzIwMCcsICctbWV0YWxfYmluZGluZycsICctaW1hZScsICc8aW5maWxlLm1hZT4nLCAnLW9tYWUnLCAnPG91dGZpbGUubWFlPic=

> <r_lp_tautomer_probability>
1

> <r_epik_Ionization_Penalty>
0.00992859

> <r_epik_Ionization_Penalty_Charging>
0.00990284

> <r_epik_Ionization_Penalty_Neutral>
2.57527e-05

> <r_epik_State_Penalty>
0.00754525

> <r_epik_Charging_Adjusted_Penalty>
0.0174481

> <i_epik_Tot_Q>
1

> <i_epik_Tot_abs_Q>
1

> <r_epik_Metal_State_Penalty>
0.00754529

> <b_epik_Metal_Only>
0

> <s_lp_Force_Field>
OPLS_2005

> <r_lp_Energy>
20.6922

> <b_lp_Chiralities_Consistent>
1

> <s_lp_Variant>
AV-unprocessed.smi:1126-2

> <Gold.Version>
5.8.1

> <Gold.Id.Protein>
6NUR|6NUR_protein|mol2

> <Gold.PLP.Fitness>
49.0155

> <Gold.PLP.PLP>
-42.0139

> <Gold.PLP.part.hbond>
-2.0000

> <Gold.PLP.part.metal>
0.0000

> <Gold.PLP.part.buried>
-4.8178

> <Gold.PLP.part.nonpolar>
-35.3429

> <Gold.PLP.part.repulsive>
0.2408

> <Gold.PLP.ligand.clash>
0.0000

> <Gold.PLP.ligand.torsion>
1.0493

> <Gold.PLP.Chemscore.Hbond>
3.0000

> <Gold.PLP.Chemscore.CHOScore>
0.0000

> <Gold.PLP.Chemscore.Metal>
0.0000

> <Gold.Chemscore.Hbonds>
donor molecule, donor type, donor heavy atom, donor atom, acceptor molecule, acceptor atom, score
      L1  H     5    48       P1 10175  2.00
      L1  H    10    36       P1  8028  1.00

> <Gold.PLP.Chemscore.Internal.Correction>
0.1001

> <Gold.Rescore>
     Score         DG    S(hbond)    S(metal)    S(lipo)     H(rot)  DE(clash)    DE(int)     intcor
     15.93     -18.52       1.99        0.00     100.49       2.10       0.16       2.43       ----

> <Gold.Chemscore.Fitness>
15.9307

> <Gold.Chemscore.DG>
-18.5207

> <Gold.Chemscore.ZeroCoef>
-5.4800

> <Gold.Chemscore.Hbond>
1.9944

> <Gold.Chemscore.Metal>
0.0000

> <Gold.Chemscore.Lipo>
100.4873

> <Gold.Chemscore.Internal_Hbond>
0.0000

> <Gold.Chemscore.DEClash>
0.1573

> <Gold.Chemscore.DEInternal>
2.4327

> <Gold.Chemscore.Rot>
2.1006

> <Gold.Chemscore.Internal.Correction>
   9.000000E+99

> <Gold.Chemscore.Hbonds>
donor molecule, donor type, donor heavy atom, donor atom, acceptor molecule, acceptor atom, score
      L1  H     5    48       P1 10175  0.99
      L1  H    10    36       P1  8028  1.00

> <Gold.Chemscore.Hbond.Weighted>
-6.6612

> <Gold.Chemscore.Metal.Weighted>
-0.0000

> <Gold.Chemscore.Lipo.Weighted>
-11.7570

> <Gold.Chemscore.Internal_Hbond.Weighted>
0.0000

> <Gold.Chemscore.DEClash.Weighted>
0.1573

> <Gold.Chemscore.DEInternal.Weighted>
2.4327

> <Gold.Chemscore.Rot.Weighted>
5.3775

> <Gold.Chemscore.Internal.Correction.Weighted>
   9.000000E+99

> <Gold.Protein.RotatedTorsions>
[ 6907 6896 6895 6894 ] final   58.74 input  -60.11 | X-H torsion
[ 7974 7965 7964 7962 ] final  -79.40 input  175.53 | X-H torsion
[ 8008 7997 7996 7995 ] final   -9.46 input   59.86 | X-H torsion
[ 10167 10162 10161 10158 ] final  166.22 input  -65.29 | X-H torsion
[ 10718 10713 10712 10709 ] final  -27.64 input   66.30 | X-H torsion
[ 10763 10752 10751 10750 ] final   96.74 input  -60.55 | X-H torsion
[ 11005 11000 10999 10996 ] final -152.07 input  -57.11 | X-H torsion

> <Gold.Protein.ActiveResidues>
 VAL166  LYS551  ARG553  GLY616  TRP617  ASP618  TYR619  PRO620  LYS621  CYS622 
 ASP623  PHE694  ASN695  SER759  ASP760  ASP761  ALA762  ILE779  LEU786  VAL792 
 PHE793  MET794  SER795  GLU796  ALA797  LYS798  CYS799  TRP800  GLU811  SER814 

> <Gold.Protein.RotatedAtoms>
  152.3851  134.6529  160.0128 H   0  0  0  0  0  0  0  0  0  0  0  0  # atno 6907 bound_to 6896
  151.6780  133.3307  159.3220 H   0  0  0  0  0  0  0  0  0  0  0  0  # atno 6908 bound_to 6896
  150.7779  134.6741  159.6452 H   0  0  0  0  0  0  0  0  0  0  0  0  # atno 6909 bound_to 6896
  145.5737  140.9461  143.1381 H   0  0  0  0  0  0  0  0  0  0  0  0  # atno 7974 bound_to 7965
  154.5644  140.2354  155.8286 H   0  0  0  0  0  0  0  0  0  0  0  0  # atno 8008 bound_to 7997
  156.2056  140.3040  155.9579 H   0  0  0  0  0  0  0  0  0  0  0  0  # atno 8009 bound_to 7997
  155.2828  140.0423  157.3007 H   0  0  0  0  0  0  0  0  0  0  0  0  # atno 8010 bound_to 7997
  139.4920  144.4050  151.9366 H   0  0  0  0  0  0  0  0  0  0  0  0  # atno 10167 bound_to 10162
  156.4355  130.4454  149.7088 H   0  0  0  0  0  0  0  0  0  0  0  0  # atno 10718 bound_to 10713
  153.2686  135.4208  155.0965 H   0  0  0  0  0  0  0  0  0  0  0  0  # atno 10763 bound_to 10752
  154.8447  135.3466  154.6277 H   0  0  0  0  0  0  0  0  0  0  0  0  # atno 10764 bound_to 10752
  153.6696  135.7044  153.5208 H   0  0  0  0  0  0  0  0  0  0  0  0  # atno 10765 bound_to 10752
  140.7228  134.3708  157.5180 H   0  0  0  0  0  0  0  0  0  0  0  0  # atno 11005 bound_to 11000
  144.7426  139.7408  143.7305 LP  0  0  0  0  0  0  0  0  0  0  0  0  # atno 17320 bound_to 7965
  146.1766  139.4939  142.9893 LP  0  0  0  0  0  0  0  0  0  0  0  0  # atno 17321 bound_to 7965
  140.3490  144.3112  150.5953 LP  0  0  0  0  0  0  0  0  0  0  0  0  # atno 17342 bound_to 10162
  140.5501  143.2208  151.7941 LP  0  0  0  0  0  0  0  0  0  0  0  0  # atno 17343 bound_to 10162
  156.3973  130.7657  151.2663 LP  0  0  0  0  0  0  0  0  0  0  0  0  # atno 17370 bound_to 10713
  157.7507  131.0250  150.3901 LP  0  0  0  0  0  0  0  0  0  0  0  0  # atno 17371 bound_to 10713
  139.8844  134.8966  156.2705 LP  0  0  0  0  0  0  0  0  0  0  0  0  # atno 17394 bound_to 11000
  140.9989  133.7163  156.0929 LP  0  0  0  0  0  0  0  0  0  0  0  0  # atno 17395 bound_to 11000

$$$$
