AV-unprocessed.smi:1046|AV-procd|sdf|4551|dock3
  -GOLD-   22720 2583D 1   1.00000     0.00000
 Structure written by MMmdl.
 53 55  0  0  0  0  0  0  0  0  2 V2000
  153.5107  142.3181  161.6476 C   0  0  0  0  0  0  0  0  0  0  0  0
  152.8433  142.0955  160.3018 C   0  0  0  0  0  0  0  0  0  0  0  0
  153.1459  140.9245  159.5705 C   0  0  0  0  0  0  0  0  0  0  0  0
  152.5468  140.6794  158.3155 C   0  0  0  0  0  0  0  0  0  0  0  0
  152.6938  139.6163  157.4408 N   0  0  0  0  0  0  0  0  0  0  0  0
  151.8768  139.9679  156.4519 C   0  0  0  0  0  0  0  0  0  0  0  0
  151.2173  141.1352  156.5828 N   0  0  0  0  0  0  0  0  0  0  0  0
  150.2777  141.7251  155.6464 C   0  0  0  0  0  0  0  0  0  0  0  0
  148.8120  141.4751  156.0488 C   0  0  1  0  0  0  0  0  0  0  0  0
  147.9605  142.1427  155.1379 O   0  0  0  0  0  0  0  0  0  0  0  0
  148.4738  139.9706  156.0411 C   0  0  0  0  0  0  0  0  0  0  0  0
  148.3183  139.3585  154.7152 N   0  0  0  0  0  0  0  0  0  0  0  0
  149.6008  139.0764  154.0710 C   0  0  0  0  0  0  0  0  0  0  0  0
  150.3592  137.8963  154.7138 C   0  0  0  0  0  0  0  0  0  0  0  0
  149.5182  136.6713  154.7067 N   0  3  0  0  0  0  0  0  0  0  0  0
  150.2326  135.4909  155.2552 C   0  0  0  0  0  0  0  0  0  0  0  0
  149.4552  134.1792  155.0511 C   0  0  0  0  0  0  0  0  0  0  0  0
  148.6383  134.2750  153.9034 O   0  0  0  0  0  0  0  0  0  0  0  0
  148.2048  136.9305  155.3550 C   0  0  0  0  0  0  0  0  0  0  0  0
  147.5108  138.1358  154.6898 C   0  0  0  0  0  0  0  0  0  0  0  0
  151.6294  141.6455  157.8086 C   0  0  0  0  0  0  0  0  0  0  0  0
  151.3206  142.8147  158.5261 C   0  0  0  0  0  0  0  0  0  0  0  0
  151.9287  143.0443  159.7781 C   0  0  0  0  0  0  0  0  0  0  0  0
  151.5904  144.3102  160.5450 C   0  0  0  0  0  0  0  0  0  0  0  0
  154.1735  141.4917  161.9049 H   0  0  0  0  0  0  0  0  0  0  0  0
  152.7627  142.4040  162.4361 H   0  0  0  0  0  0  0  0  0  0  0  0
  154.1054  143.2314  161.6325 H   0  0  0  0  0  0  0  0  0  0  0  0
  153.8429  140.2019  159.9687 H   0  0  0  0  0  0  0  0  0  0  0  0
  151.7516  139.3416  155.5808 H   0  0  0  0  0  0  0  0  0  0  0  0
  150.4800  142.7947  155.5708 H   0  0  0  0  0  0  0  0  0  0  0  0
  150.4748  141.3004  154.6612 H   0  0  0  0  0  0  0  0  0  0  0  0
  148.6547  141.8990  157.0394 H   0  0  0  0  0  0  0  0  0  0  0  0
  148.2032  143.0554  155.1106 H   0  0  0  0  0  0  0  0  0  0  0  0
  149.2630  139.4470  156.5825 H   0  0  0  0  0  0  0  0  0  0  0  0
  147.5690  139.8147  156.6275 H   0  0  0  0  0  0  0  0  0  0  0  0
  149.4273  138.8523  153.0174 H   0  0  0  0  0  0  0  0  0  0  0  0
  150.2263  139.9698  154.0832 H   0  0  0  0  0  0  0  0  0  0  0  0
  151.2754  137.7123  154.1515 H   0  0  0  0  0  0  0  0  0  0  0  0
  150.6608  138.1353  155.7345 H   0  0  0  0  0  0  0  0  0  0  0  0
  151.2055  135.3927  154.7709 H   0  0  0  0  0  0  0  0  0  0  0  0
  150.4353  135.6499  156.3154 H   0  0  0  0  0  0  0  0  0  0  0  0
  150.1551  133.3566  154.9025 H   0  0  0  0  0  0  0  0  0  0  0  0
  148.8472  133.9201  155.9171 H   0  0  0  0  0  0  0  0  0  0  0  0
  148.7854  135.1161  153.4967 H   0  0  0  0  0  0  0  0  0  0  0  0
  147.5591  136.0586  155.2575 H   0  0  0  0  0  0  0  0  0  0  0  0
  148.3393  137.0996  156.4240 H   0  0  0  0  0  0  0  0  0  0  0  0
  146.5368  138.3050  155.1461 H   0  0  0  0  0  0  0  0  0  0  0  0
  147.2961  137.8808  153.6509 H   0  0  0  0  0  0  0  0  0  0  0  0
  150.6221  143.5282  158.1152 H   0  0  0  0  0  0  0  0  0  0  0  0
  150.8858  144.9332  159.9935 H   0  0  0  0  0  0  0  0  0  0  0  0
  152.4893  144.9004  160.7243 H   0  0  0  0  0  0  0  0  0  0  0  0
  151.1391  144.0651  161.5067 H   0  0  0  0  0  0  0  0  0  0  0  0
  149.3319  136.4653  153.7353 H   0  0  0  0  0  0  0  0  0  0  0  0
  1  2  1  0  0  0  0
  1 25  1  0  0  0  0
  1 26  1  0  0  0  0
  1 27  1  0  0  0  0
  2 23  1  0  0  0  0
  2  3  2  0  0  0  0
  3  4  1  0  0  0  0
  3 28  1  0  0  0  0
  4 21  2  0  0  0  0
  4  5  1  0  0  0  0
  5  6  2  0  0  0  0
  6  7  1  0  0  0  0
  6 29  1  0  0  0  0
  7  8  1  0  0  0  0
  7 21  1  0  0  0  0
  8  9  1  0  0  0  0
  8 30  1  0  0  0  0
  8 31  1  0  0  0  0
  9 10  1  0  0  0  0
  9 11  1  0  0  0  0
  9 32  1  0  0  0  0
 10 33  1  0  0  0  0
 11 12  1  0  0  0  0
 11 34  1  0  0  0  0
 11 35  1  0  0  0  0
 12 20  1  0  0  0  0
 12 13  1  0  0  0  0
 13 14  1  0  0  0  0
 13 36  1  0  0  0  0
 13 37  1  0  0  0  0
 14 15  1  0  0  0  0
 14 38  1  0  0  0  0
 14 39  1  0  0  0  0
 15 16  1  0  0  0  0
 15 19  1  0  0  0  0
 15 53  1  0  0  0  0
 16 17  1  0  0  0  0
 16 40  1  0  0  0  0
 16 41  1  0  0  0  0
 17 18  1  0  0  0  0
 17 42  1  0  0  0  0
 17 43  1  0  0  0  0
 18 44  1  0  0  0  0
 19 20  1  0  0  0  0
 19 45  1  0  0  0  0
 19 46  1  0  0  0  0
 20 47  1  0  0  0  0
 20 48  1  0  0  0  0
 21 22  1  0  0  0  0
 22 23  2  0  0  0  0
 22 49  1  0  0  0  0
 23 24  1  0  0  0  0
 24 50  1  0  0  0  0
 24 51  1  0  0  0  0
 24 52  1  0  0  0  0
M  CHG  1  15   1
M  END
> <s_m_source_file>
AV-unprocessed.smi

> <i_m_source_file_index>
1046

> <i_lp_mmshare_version>
43012

> <i_f3d_flags>
0

> <s_epik_input>
W0NIM11jKFtjSF0xKWMoW0NIM10pW2NIXWMoYzEyKW4oW2NIXW4yKVtDSDJdW0NASF0oW09IXSlbQ0gyXU4zW0NIMl1bQ0gyXU4oW0NIMl1bQ0gyXTMpW0NIMl1bQ0gyXVtPSF0=

> <s_epik_cmdline>
J2VwaWtfcHl0aG9uJywgJy1waCcsICc3LjAnLCAnLXRuJywgJzgnLCAnLW1hJywgJzIwMCcsICctbWV0YWxfYmluZGluZycsICctaW1hZScsICc8aW5maWxlLm1hZT4nLCAnLW9tYWUnLCAnPG91dGZpbGUubWFlPic=

> <r_epik_Ionization_Penalty>
0.218081

> <r_epik_Ionization_Penalty_Charging>
0.0909554

> <r_epik_Ionization_Penalty_Neutral>
0.127126

> <r_epik_State_Penalty>
0.825642

> <r_epik_Charging_Adjusted_Penalty>
0.916597

> <i_epik_Tot_Q>
1

> <i_epik_Tot_abs_Q>
1

> <r_epik_Metal_State_Penalty>
0.740189

> <b_epik_Metal_Only>
0

> <s_lp_Force_Field>
OPLS_2005

> <r_lp_Energy>
34.993

> <b_lp_Chiralities_Consistent>
1

> <s_lp_Variant>
AV-unprocessed.smi:1046-4

> <Gold.Version>
5.8.1

> <Gold.Id.Protein>
6NUR|6NUR_protein|mol2

> <Gold.PLP.Fitness>
58.7831

> <Gold.PLP.PLP>
-45.2826

> <Gold.PLP.part.hbond>
-4.0000

> <Gold.PLP.part.metal>
0.0000

> <Gold.PLP.part.buried>
-4.8793

> <Gold.PLP.part.nonpolar>
-35.2844

> <Gold.PLP.part.repulsive>
0.1409

> <Gold.PLP.ligand.clash>
0.0000

> <Gold.PLP.ligand.torsion>
0.8174

> <Gold.PLP.Chemscore.Hbond>
4.9920

> <Gold.PLP.Chemscore.CHOScore>
0.0000

> <Gold.PLP.Chemscore.Metal>
0.0000

> <Gold.Chemscore.Hbonds>
donor molecule, donor type, donor heavy atom, donor atom, acceptor molecule, acceptor atom, score
      L1  H    10    33       P1  8028  1.00
      L1  H    15    53       P1  7948  2.00
      L1  H    18    44       P1  7948  0.98
      P1  H  7997  8008       L1     5  0.90

> <Gold.PLP.Chemscore.Internal.Correction>
0.1592

> <Gold.Rescore>
     Score         DG    S(hbond)    S(metal)    S(lipo)     H(rot)  DE(clash)    DE(int)     intcor
     19.66     -20.71       2.92        0.00     117.01       3.21       0.10       0.95       ----

> <Gold.Chemscore.Fitness>
19.6613

> <Gold.Chemscore.DG>
-20.7126

> <Gold.Chemscore.ZeroCoef>
-5.4800

> <Gold.Chemscore.Hbond>
2.9190

> <Gold.Chemscore.Metal>
0.0000

> <Gold.Chemscore.Lipo>
117.0060

> <Gold.Chemscore.Internal_Hbond>
0.0000

> <Gold.Chemscore.DEClash>
0.0983

> <Gold.Chemscore.DEInternal>
0.9530

> <Gold.Chemscore.Rot>
3.2058

> <Gold.Chemscore.Internal.Correction>
   9.000000E+99

> <Gold.Chemscore.Hbonds>
donor molecule, donor type, donor heavy atom, donor atom, acceptor molecule, acceptor atom, score
      L1  H    10    33       P1  8028  0.97
      L1  H    15    53       P1  7948  0.90
      L1  H    18    44       P1  7948  0.60
      P1  H  7997  8008       L1     5  0.07

> <Gold.Chemscore.Hbond.Weighted>
-9.7496

> <Gold.Chemscore.Metal.Weighted>
-0.0000

> <Gold.Chemscore.Lipo.Weighted>
-13.6897

> <Gold.Chemscore.Internal_Hbond.Weighted>
0.0000

> <Gold.Chemscore.DEClash.Weighted>
0.0983

> <Gold.Chemscore.DEInternal.Weighted>
0.9530

> <Gold.Chemscore.Rot.Weighted>
8.2067

> <Gold.Chemscore.Internal.Correction.Weighted>
   9.000000E+99

> <Gold.Protein.RotatedTorsions>
[ 6907 6896 6895 6894 ] final -125.23 input  -60.11 | X-H torsion
[ 7974 7965 7964 7962 ] final -179.81 input  175.53 | X-H torsion
[ 8008 7997 7996 7995 ] final  -66.60 input   59.86 | X-H torsion
[ 10167 10162 10161 10158 ] final   84.58 input  -65.29 | X-H torsion
[ 10718 10713 10712 10709 ] final  -42.25 input   66.30 | X-H torsion
[ 10763 10752 10751 10750 ] final  119.37 input  -60.55 | X-H torsion
[ 11005 11000 10999 10996 ] final  111.77 input  -57.11 | X-H torsion

> <Gold.Protein.ActiveResidues>
 VAL166  LYS551  ARG553  GLY616  TRP617  ASP618  TYR619  PRO620  LYS621  CYS622 
 ASP623  PHE694  ASN695  SER759  ASP760  ASP761  ALA762  ILE779  LEU786  VAL792 
 PHE793  MET794  SER795  GLU796  ALA797  LYS798  CYS799  TRP800  GLU811  SER814 

> <Gold.Protein.RotatedAtoms>
  150.8847  133.7324  159.2921 H   0  0  0  0  0  0  0  0  0  0  0  0  # atno 6907 bound_to 6896
  151.4894  135.1055  159.9809 H   0  0  0  0  0  0  0  0  0  0  0  0  # atno 6908 bound_to 6896
  152.4782  133.8144  159.7076 H   0  0  0  0  0  0  0  0  0  0  0  0  # atno 6909 bound_to 6896
  144.7139  140.0661  143.6431 H   0  0  0  0  0  0  0  0  0  0  0  0  # atno 7974 bound_to 7965
  154.4745  140.0909  156.7228 H   0  0  0  0  0  0  0  0  0  0  0  0  # atno 8008 bound_to 7997
  155.4634  140.3462  155.4297 H   0  0  0  0  0  0  0  0  0  0  0  0  # atno 8009 bound_to 7997
  156.1094  140.1443  156.9348 H   0  0  0  0  0  0  0  0  0  0  0  0  # atno 8010 bound_to 7997
  139.9065  144.6298  150.8582 H   0  0  0  0  0  0  0  0  0  0  0  0  # atno 10167 bound_to 10162
  156.2616  130.4197  149.8536 H   0  0  0  0  0  0  0  0  0  0  0  0  # atno 10718 bound_to 10713
  153.5820  135.3482  155.2878 H   0  0  0  0  0  0  0  0  0  0  0  0  # atno 10763 bound_to 10752
  154.8666  135.4184  154.2610 H   0  0  0  0  0  0  0  0  0  0  0  0  # atno 10764 bound_to 10752
  153.3398  135.7049  153.6947 H   0  0  0  0  0  0  0  0  0  0  0  0  # atno 10765 bound_to 10752
  139.8911  134.9515  156.6483 H   0  0  0  0  0  0  0  0  0  0  0  0  # atno 11005 bound_to 11000
  145.9823  139.2950  143.1034 LP  0  0  0  0  0  0  0  0  0  0  0  0  # atno 17320 bound_to 7965
  145.8997  140.9251  143.0509 LP  0  0  0  0  0  0  0  0  0  0  0  0  # atno 17321 bound_to 7965
  140.7695  143.3397  151.2233 LP  0  0  0  0  0  0  0  0  0  0  0  0  # atno 17342 bound_to 10162
  139.6979  143.9581  152.2891 LP  0  0  0  0  0  0  0  0  0  0  0  0  # atno 17343 bound_to 10162
  156.6049  130.8562  151.3441 LP  0  0  0  0  0  0  0  0  0  0  0  0  # atno 17370 bound_to 10713
  157.7252  130.9613  150.1606 LP  0  0  0  0  0  0  0  0  0  0  0  0  # atno 17371 bound_to 10713
  140.7540  133.8873  155.8368 LP  0  0  0  0  0  0  0  0  0  0  0  0  # atno 17394 bound_to 11000
  140.9977  134.1193  157.4348 LP  0  0  0  0  0  0  0  0  0  0  0  0  # atno 17395 bound_to 11000

$$$$
