AV-unprocessed.smi:716|AV-procd|sdf|3486|dock9
  -GOLD-   22720 0483D 1   1.00000     0.00000
 Structure written by MMmdl.
 48 50  0  0  0  0  0  0  0  0  1 V2000
  152.7344  143.2381  158.9394 C   0  0  0  0  0  0  0  0  0  0  0  0
  151.5402  142.9465  158.0284 C   0  0  0  0  0  0  0  0  0  0  0  0
  151.6167  141.6011  157.5874 O   0  0  0  0  0  0  0  0  0  0  0  0
  150.3928  141.1250  157.0403 C   0  0  2  0  0  0  0  0  0  0  0  0
  149.4577  140.5551  158.1147 C   0  0  0  0  0  0  0  0  0  0  0  0
  150.1854  139.2260  157.9090 C   0  0  1  0  0  0  0  0  0  0  0  0
  149.2870  138.0821  157.9970 N   0  0  0  0  0  0  0  0  0  0  0  0
  149.4832  137.0162  158.7853 C   0  0  0  0  0  0  0  0  0  0  0  0
  150.4312  136.9117  159.5630 O   0  0  0  0  0  0  0  0  0  0  0  0
  148.4560  135.8864  158.6701 C   0  0  0  0  0  0  0  0  0  0  0  0
  148.0796  135.3733  159.9939 N   0  0  0  0  0  0  0  0  0  0  0  0
  148.1822  133.9972  160.1171 N   0  0  0  0  0  0  0  0  0  0  0  0
  147.8392  133.3982  161.2099 C   0  0  0  0  0  0  0  0  0  0  0  0
  147.9690  131.9046  161.2535 C   0  0  0  0  0  0  0  0  0  0  0  0
  147.3499  134.1796  162.3297 C   0  0  0  0  0  0  0  0  0  0  0  0
  147.2534  135.5209  162.2088 C   0  0  0  0  0  0  0  0  0  0  0  0
  147.6264  136.2095  160.9755 C   0  0  0  0  0  0  0  0  0  0  0  0
  147.5277  137.4276  160.8276 O   0  0  0  0  0  0  0  0  0  0  0  0
  150.5250  139.6930  156.4661 C   0  0  0  0  0  0  0  0  0  0  0  0
  149.5704  139.3322  155.3191 C   0  0  0  0  0  0  0  0  0  0  0  0
  150.1544  138.1200  154.5885 C   0  0  0  0  0  0  0  0  0  0  0  0
  151.6422  138.0934  154.9436 C   0  0  0  0  0  0  0  0  0  0  0  0
  151.8757  139.2803  155.8831 C   0  0  0  0  0  0  0  0  0  0  0  0
  152.7055  144.2657  159.3025 H   0  0  0  0  0  0  0  0  0  0  0  0
  153.6755  143.0961  158.4076 H   0  0  0  0  0  0  0  0  0  0  0  0
  152.7352  142.5769  159.8061 H   0  0  0  0  0  0  0  0  0  0  0  0
  150.6103  143.1209  158.5707 H   0  0  0  0  0  0  0  0  0  0  0  0
  151.5525  143.6210  157.1710 H   0  0  0  0  0  0  0  0  0  0  0  0
  149.9215  141.8296  156.3529 H   0  0  0  0  0  0  0  0  0  0  0  0
  149.5692  140.9832  159.1109 H   0  0  0  0  0  0  0  0  0  0  0  0
  148.4132  140.5378  157.7978 H   0  0  0  0  0  0  0  0  0  0  0  0
  151.0681  139.1488  158.5486 H   0  0  0  0  0  0  0  0  0  0  0  0
  148.4816  138.0821  157.3875 H   0  0  0  0  0  0  0  0  0  0  0  0
  147.5733  136.2664  158.1525 H   0  0  0  0  0  0  0  0  0  0  0  0
  148.8458  135.0916  158.0311 H   0  0  0  0  0  0  0  0  0  0  0  0
  147.6401  131.5074  162.2139 H   0  0  0  0  0  0  0  0  0  0  0  0
  149.0050  131.5995  161.1033 H   0  0  0  0  0  0  0  0  0  0  0  0
  147.3624  131.4400  160.4755 H   0  0  0  0  0  0  0  0  0  0  0  0
  147.0688  133.6856  163.2480 H   0  0  0  0  0  0  0  0  0  0  0  0
  146.8888  136.1020  163.0431 H   0  0  0  0  0  0  0  0  0  0  0  0
  148.5497  139.1419  155.6521 H   0  0  0  0  0  0  0  0  0  0  0  0
  149.5098  140.1658  154.6182 H   0  0  0  0  0  0  0  0  0  0  0  0
  149.6791  137.2018  154.9313 H   0  0  0  0  0  0  0  0  0  0  0  0
  149.9916  138.1865  153.5125 H   0  0  0  0  0  0  0  0  0  0  0  0
  151.8871  137.1565  155.4449 H   0  0  0  0  0  0  0  0  0  0  0  0
  152.2726  138.1611  154.0565 H   0  0  0  0  0  0  0  0  0  0  0  0
  152.3009  140.1083  155.3145 H   0  0  0  0  0  0  0  0  0  0  0  0
  152.6008  139.0295  156.6580 H   0  0  0  0  0  0  0  0  0  0  0  0
  1  2  1  0  0  0  0
  1 24  1  0  0  0  0
  1 25  1  0  0  0  0
  1 26  1  0  0  0  0
  2  3  1  0  0  0  0
  2 27  1  0  0  0  0
  2 28  1  0  0  0  0
  3  4  1  0  0  0  0
  4 19  1  0  0  0  0
  4  5  1  0  0  0  0
  4 29  1  0  0  0  0
  5  6  1  0  0  0  0
  5 30  1  0  0  0  0
  5 31  1  0  0  0  0
  6  7  1  0  0  0  0
  6 19  1  0  0  0  0
  6 32  1  0  0  0  0
  7  8  1  0  0  0  0
  7 33  1  0  0  0  0
  8  9  2  0  0  0  0
  8 10  1  0  0  0  0
 10 11  1  0  0  0  0
 10 34  1  0  0  0  0
 10 35  1  0  0  0  0
 11 17  1  0  0  0  0
 11 12  1  0  0  0  0
 12 13  2  0  0  0  0
 13 14  1  0  0  0  0
 13 15  1  0  0  0  0
 14 36  1  0  0  0  0
 14 37  1  0  0  0  0
 14 38  1  0  0  0  0
 15 16  2  0  0  0  0
 15 39  1  0  0  0  0
 16 17  1  0  0  0  0
 16 40  1  0  0  0  0
 17 18  2  0  0  0  0
 19 23  1  0  0  0  0
 19 20  1  0  0  0  0
 20 21  1  0  0  0  0
 20 41  1  0  0  0  0
 20 42  1  0  0  0  0
 21 22  1  0  0  0  0
 21 43  1  0  0  0  0
 21 44  1  0  0  0  0
 22 23  1  0  0  0  0
 22 45  1  0  0  0  0
 22 46  1  0  0  0  0
 23 47  1  0  0  0  0
 23 48  1  0  0  0  0
M  END
> <s_m_source_file>
AV-unprocessed.smi

> <i_m_source_file_index>
716

> <i_lp_mmshare_version>
43012

> <i_f3d_flags>
0

> <s_epik_input>
W0NIMl0xW0NIMl1bQ0gyXVtDSDJdQzEyW0NASF0oT1tDSDJdW0NIM10pW0NIMl1bQ0BIXTJbTkhdQyg9TylbQ0gyXW4zbmMoW0NIM10pW2NIXVtjSF1jMz1P

> <s_epik_cmdline>
J2VwaWtfcHl0aG9uJywgJy1waCcsICc3LjAnLCAnLXRuJywgJzgnLCAnLW1hJywgJzIwMCcsICctbWV0YWxfYmluZGluZycsICctaW1hZScsICc8aW5maWxlLm1hZT4nLCAnLW9tYWUnLCAnPG91dGZpbGUubWFlPic=

> <r_lp_tautomer_probability>
1

> <r_epik_Ionization_Penalty>
4.75561e-08

> <r_epik_Ionization_Penalty_Charging>
2.86617e-08

> <r_epik_Ionization_Penalty_Neutral>
1.88944e-08

> <r_epik_State_Penalty>
-0

> <r_epik_Charging_Adjusted_Penalty>
2.86617e-08

> <i_epik_Tot_Q>
0

> <i_epik_Tot_abs_Q>
0

> <r_epik_Metal_State_Penalty>
-0

> <b_epik_Metal_Only>
0

> <s_lp_Force_Field>
OPLS_2005

> <r_lp_Energy>
50.4804

> <b_lp_Chiralities_Consistent>
1

> <s_lp_Variant>
AV-unprocessed.smi:716-1

> <Gold.Version>
5.8.1

> <Gold.Id.Protein>
6NUR|6NUR_protein|mol2

> <Gold.PLP.Fitness>
47.8754

> <Gold.PLP.PLP>
-40.7777

> <Gold.PLP.part.hbond>
-2.8324

> <Gold.PLP.part.metal>
0.0000

> <Gold.PLP.part.buried>
-4.6089

> <Gold.PLP.part.nonpolar>
-33.9826

> <Gold.PLP.part.repulsive>
0.1174

> <Gold.PLP.ligand.clash>
0.0000

> <Gold.PLP.ligand.torsion>
0.6018

> <Gold.PLP.Chemscore.Hbond>
2.6503

> <Gold.PLP.Chemscore.CHOScore>
0.0000

> <Gold.PLP.Chemscore.Metal>
0.0000

> <Gold.Chemscore.Hbonds>
donor molecule, donor type, donor heavy atom, donor atom, acceptor molecule, acceptor atom, score
      P1  H  6896  6908       L1     9  1.00
      P1  H  6931  6943       L1    18  0.70
      P1  H  6934  6947       L1    18  0.98

> <Gold.PLP.Chemscore.Internal.Correction>
0.3506

> <Gold.Rescore>
     Score         DG    S(hbond)    S(metal)    S(lipo)     H(rot)  DE(clash)    DE(int)     intcor
     19.15     -21.14       2.72        0.00      94.09       1.73       0.00       1.98       ----

> <Gold.Chemscore.Fitness>
19.1511

> <Gold.Chemscore.DG>
-21.1370

> <Gold.Chemscore.ZeroCoef>
-5.4800

> <Gold.Chemscore.Hbond>
2.7213

> <Gold.Chemscore.Metal>
0.0000

> <Gold.Chemscore.Lipo>
94.0938

> <Gold.Chemscore.Internal_Hbond>
0.0000

> <Gold.Chemscore.DEClash>
0.0021

> <Gold.Chemscore.DEInternal>
1.9838

> <Gold.Chemscore.Rot>
1.7348

> <Gold.Chemscore.Internal.Correction>
   9.000000E+99

> <Gold.Chemscore.Hbonds>
donor molecule, donor type, donor heavy atom, donor atom, acceptor molecule, acceptor atom, score
      P1  H  6896  6908       L1     9  0.89
      P1  H  6931  6943       L1    18  0.41
      P1  H  6934  6947       L1    18  0.93

> <Gold.Chemscore.Hbond.Weighted>
-9.0892

> <Gold.Chemscore.Metal.Weighted>
-0.0000

> <Gold.Chemscore.Lipo.Weighted>
-11.0090

> <Gold.Chemscore.Internal_Hbond.Weighted>
0.0000

> <Gold.Chemscore.DEClash.Weighted>
0.0021

> <Gold.Chemscore.DEInternal.Weighted>
1.9838

> <Gold.Chemscore.Rot.Weighted>
4.4411

> <Gold.Chemscore.Internal.Correction.Weighted>
   9.000000E+99

> <Gold.Protein.RotatedTorsions>
[ 6907 6896 6895 6894 ] final -151.13 input  -60.11 | X-H torsion
[ 7974 7965 7964 7962 ] final  164.51 input  175.53 | X-H torsion
[ 8008 7997 7996 7995 ] final  148.03 input   59.86 | X-H torsion
[ 10167 10162 10161 10158 ] final  -41.83 input  -65.29 | X-H torsion
[ 10718 10713 10712 10709 ] final  178.54 input   66.30 | X-H torsion
[ 10763 10752 10751 10750 ] final  -29.91 input  -60.55 | X-H torsion
[ 11005 11000 10999 10996 ] final  154.24 input  -57.11 | X-H torsion

> <Gold.Protein.ActiveResidues>
 VAL166  LYS551  ARG553  GLY616  TRP617  ASP618  TYR619  PRO620  LYS621  CYS622 
 ASP623  PHE694  ASN695  SER759  ASP760  ASP761  ALA762  ILE779  LEU786  VAL792 
 PHE793  MET794  SER795  GLU796  ALA797  LYS798  CYS799  TRP800  GLU811  SER814 

> <Gold.Protein.RotatedAtoms>
  151.2086  133.4569  159.2597 H   0  0  0  0  0  0  0  0  0  0  0  0  # atno 6907 bound_to 6896
  151.0999  134.9966  159.8453 H   0  0  0  0  0  0  0  0  0  0  0  0  # atno 6908 bound_to 6896
  152.5442  134.2013  159.8766 H   0  0  0  0  0  0  0  0  0  0  0  0  # atno 6909 bound_to 6896
  144.7542  139.8337  143.6356 H   0  0  0  0  0  0  0  0  0  0  0  0  # atno 7974 bound_to 7965
  156.2805  140.2140  156.5632 H   0  0  0  0  0  0  0  0  0  0  0  0  # atno 8008 bound_to 7997
  154.7196  140.0505  157.0649 H   0  0  0  0  0  0  0  0  0  0  0  0  # atno 8009 bound_to 7997
  155.0497  140.3155  155.4699 H   0  0  0  0  0  0  0  0  0  0  0  0  # atno 8010 bound_to 7997
  140.6989  143.3072  151.3123 H   0  0  0  0  0  0  0  0  0  0  0  0  # atno 10167 bound_to 10162
  156.8891  130.9841  151.3052 H   0  0  0  0  0  0  0  0  0  0  0  0  # atno 10718 bound_to 10713
  153.7724  135.6911  153.4904 H   0  0  0  0  0  0  0  0  0  0  0  0  # atno 10763 bound_to 10752
  153.1866  135.4486  155.0094 H   0  0  0  0  0  0  0  0  0  0  0  0  # atno 10764 bound_to 10752
  154.8113  135.3378  154.7232 H   0  0  0  0  0  0  0  0  0  0  0  0  # atno 10765 bound_to 10752
  140.1471  134.8700  157.2406 H   0  0  0  0  0  0  0  0  0  0  0  0  # atno 11005 bound_to 11000
  146.1531  139.4620  143.0036 LP  0  0  0  0  0  0  0  0  0  0  0  0  # atno 17320 bound_to 7965
  145.6838  141.0184  143.1592 LP  0  0  0  0  0  0  0  0  0  0  0  0  # atno 17321 bound_to 7965
  139.6482  144.0412  152.2606 LP  0  0  0  0  0  0  0  0  0  0  0  0  # atno 17342 bound_to 10162
  139.9939  144.6341  150.7789 LP  0  0  0  0  0  0  0  0  0  0  0  0  # atno 17343 bound_to 10162
  157.6094  130.8572  149.8928 LP  0  0  0  0  0  0  0  0  0  0  0  0  # atno 17370 bound_to 10713
  156.0638  130.3695  150.0923 LP  0  0  0  0  0  0  0  0  0  0  0  0  # atno 17371 bound_to 10713
  140.2650  134.3526  155.7393 LP  0  0  0  0  0  0  0  0  0  0  0  0  # atno 17394 bound_to 11000
  141.2194  133.7391  156.9138 LP  0  0  0  0  0  0  0  0  0  0  0  0  # atno 17395 bound_to 11000

$$$$
