AV-unprocessed.smi:60|AV-procd|sdf|594|dock4
  -GOLD-   2262016493D 1   1.00000     0.00000
 Structure written by MMmdl.
 35 36  0  0  0  0  0  0  0  0  2 V2000
  152.6041  140.0041  155.7470 O   0  0  0  0  0  0  0  0  0  0  0  0
  151.4419  140.3931  155.8590 C   0  0  0  0  0  0  0  0  0  0  0  0
  150.5687  140.3796  154.8095 N   0  5  0  0  0  0  0  0  0  0  0  0
  149.2664  140.7879  154.9017 C   0  0  0  0  0  0  0  0  0  0  0  0
  148.5025  140.7727  153.9355 O   0  0  0  0  0  0  0  0  0  0  0  0
  148.8049  141.2231  156.1110 N   0  0  0  0  0  0  0  0  0  0  0  0
  147.4339  141.6956  156.2616 C   0  0  0  0  0  0  0  0  0  0  0  0
  147.1829  142.1391  157.5620 O   0  0  0  0  0  0  0  0  0  0  0  0
  146.0235  142.9484  157.7178 C   0  0  0  0  0  0  0  0  0  0  0  0
  145.8954  143.3558  159.1903 C   0  0  0  0  0  0  0  0  0  0  0  0
  145.9412  142.2139  160.0194 O   0  0  0  0  0  0  0  0  0  0  0  0
  149.6668  141.2813  157.2184 C   0  0  0  0  0  0  0  0  0  0  0  0
  150.9557  140.8882  157.1522 C   0  0  0  0  0  0  0  0  0  0  0  0
  151.8843  140.9687  158.3557 C   0  0  0  0  0  0  0  0  0  0  0  0
  151.9788  142.3640  158.9456 C   0  0  0  0  0  0  0  0  0  0  0  0
  152.3712  142.5444  160.2890 C   0  0  0  0  0  0  0  0  0  0  0  0
  152.4595  143.8410  160.8324 C   0  0  0  0  0  0  0  0  0  0  0  0
  152.1577  144.9618  160.0348 C   0  0  0  0  0  0  0  0  0  0  0  0
  151.7670  144.7855  158.6931 C   0  0  0  0  0  0  0  0  0  0  0  0
  151.6765  143.4893  158.1499 C   0  0  0  0  0  0  0  0  0  0  0  0
  147.2737  142.5223  155.5674 H   0  0  0  0  0  0  0  0  0  0  0  0
  146.7332  140.9033  155.9939 H   0  0  0  0  0  0  0  0  0  0  0  0
  146.0547  143.8247  157.0681 H   0  0  0  0  0  0  0  0  0  0  0  0
  145.1420  142.3697  157.4394 H   0  0  0  0  0  0  0  0  0  0  0  0
  146.7311  143.9980  159.4690 H   0  0  0  0  0  0  0  0  0  0  0  0
  144.9801  143.9213  159.3669 H   0  0  0  0  0  0  0  0  0  0  0  0
  145.0790  141.8281  160.0469 H   0  0  0  0  0  0  0  0  0  0  0  0
  149.2221  141.6694  158.1230 H   0  0  0  0  0  0  0  0  0  0  0  0
  151.5851  140.2670  159.1351 H   0  0  0  0  0  0  0  0  0  0  0  0
  152.8779  140.6460  158.0418 H   0  0  0  0  0  0  0  0  0  0  0  0
  152.6068  141.6900  160.9064 H   0  0  0  0  0  0  0  0  0  0  0  0
  152.7595  143.9755  161.8612 H   0  0  0  0  0  0  0  0  0  0  0  0
  152.2258  145.9558  160.4517 H   0  0  0  0  0  0  0  0  0  0  0  0
  151.5366  145.6441  158.0800 H   0  0  0  0  0  0  0  0  0  0  0  0
  151.3771  143.3596  157.1199 H   0  0  0  0  0  0  0  0  0  0  0  0
  1  2  2  0  0  0  0
  2 13  1  0  0  0  0
  2  3  1  0  0  0  0
  3  4  1  0  0  0  0
  4  5  2  0  0  0  0
  4  6  1  0  0  0  0
  6  7  1  0  0  0  0
  6 12  1  0  0  0  0
  7  8  1  0  0  0  0
  7 21  1  0  0  0  0
  7 22  1  0  0  0  0
  8  9  1  0  0  0  0
  9 10  1  0  0  0  0
  9 23  1  0  0  0  0
  9 24  1  0  0  0  0
 10 11  1  0  0  0  0
 10 25  1  0  0  0  0
 10 26  1  0  0  0  0
 11 27  1  0  0  0  0
 12 13  2  0  0  0  0
 12 28  1  0  0  0  0
 13 14  1  0  0  0  0
 14 15  1  0  0  0  0
 14 29  1  0  0  0  0
 14 30  1  0  0  0  0
 15 20  1  0  0  0  0
 15 16  2  0  0  0  0
 16 17  1  0  0  0  0
 16 31  1  0  0  0  0
 17 18  2  0  0  0  0
 17 32  1  0  0  0  0
 18 19  1  0  0  0  0
 18 33  1  0  0  0  0
 19 20  2  0  0  0  0
 19 34  1  0  0  0  0
 20 35  1  0  0  0  0
M  CHG  1   3  -1
M  END
> <s_m_source_file>
AV-unprocessed.smi

> <i_m_source_file_index>
60

> <i_lp_mmshare_version>
43012

> <i_f3d_flags>
0

> <s_epik_input>
W09IXVtDSDJdW0NIMl1PW0NIMl1uKGMoPU8pW25IXWMxPU8pW2NIXWMxW0NIMl1jMltjSF1bY0hdW2NIXVtjSF1bY0hdMg==

> <s_epik_cmdline>
J2VwaWtfcHl0aG9uJywgJy1waCcsICc3LjAnLCAnLXRuJywgJzgnLCAnLW1hJywgJzIwMCcsICctbWV0YWxfYmluZGluZycsICctaW1hZScsICc8aW5maWxlLm1hZT4nLCAnLW9tYWUnLCAnPG91dGZpbGUubWFlPic=

> <r_lp_tautomer_probability>
0.999537

> <r_epik_Ionization_Penalty>
3.13547

> <r_epik_Ionization_Penalty_Charging>
5.3765e-08

> <r_epik_Ionization_Penalty_Neutral>
3.13547

> <r_epik_State_Penalty>
3.13458

> <r_epik_Charging_Adjusted_Penalty>
3.13458

> <i_epik_Tot_Q>
-1

> <i_epik_Tot_abs_Q>
1

> <r_epik_Metal_State_Penalty>
0.106912

> <b_epik_Metal_Only>
1

> <s_epik_Chemistry_Notes>
This compound contains an acetal/aminal-like group ( X-CH(R)-Y where X, Y are N, S, or O) that may be acid/base labile, releasing an aldehyde.

> <s_lp_Force_Field>
OPLS_2005

> <r_lp_Energy>
15.9602

> <b_lp_Chiralities_Consistent>
1

> <s_lp_Variant>
AV-unprocessed.smi:60-2

> <Gold.Version>
5.8.1

> <Gold.Id.Protein>
6NUR|6NUR_protein|mol2

> <Gold.PLP.Fitness>
47.4949

> <Gold.PLP.PLP>
-39.2248

> <Gold.PLP.part.hbond>
-3.0000

> <Gold.PLP.part.metal>
0.0000

> <Gold.PLP.part.buried>
-6.0976

> <Gold.PLP.part.nonpolar>
-31.2476

> <Gold.PLP.part.repulsive>
0.4862

> <Gold.PLP.ligand.clash>
0.0000

> <Gold.PLP.ligand.torsion>
0.4234

> <Gold.PLP.Chemscore.Hbond>
3.0000

> <Gold.PLP.Chemscore.CHOScore>
0.0000

> <Gold.PLP.Chemscore.Metal>
0.0000

> <Gold.Chemscore.Hbonds>
donor molecule, donor type, donor heavy atom, donor atom, acceptor molecule, acceptor atom, score
      P1  H  6934  6946       L1    11  1.00
      P1  H  7989  7998       L1     3  1.00
      P1  H  7997  8009       L1     1  1.00

> <Gold.PLP.Chemscore.Internal.Correction>
0.1169

> <Gold.Rescore>
     Score         DG    S(hbond)    S(metal)    S(lipo)     H(rot)  DE(clash)    DE(int)     intcor
     15.43     -16.39       2.65        0.00      87.93       3.22       0.40       0.56       ----

> <Gold.Chemscore.Fitness>
15.4312

> <Gold.Chemscore.DG>
-16.3886

> <Gold.Chemscore.ZeroCoef>
-5.4800

> <Gold.Chemscore.Hbond>
2.6501

> <Gold.Chemscore.Metal>
0.0000

> <Gold.Chemscore.Lipo>
87.9313

> <Gold.Chemscore.Internal_Hbond>
0.0000

> <Gold.Chemscore.DEClash>
0.3991

> <Gold.Chemscore.DEInternal>
0.5584

> <Gold.Chemscore.Rot>
3.2151

> <Gold.Chemscore.Internal.Correction>
   9.000000E+99

> <Gold.Chemscore.Hbonds>
donor molecule, donor type, donor heavy atom, donor atom, acceptor molecule, acceptor atom, score
      P1  H  6934  6946       L1    11  0.26
      P1  H  7989  7998       L1     3  0.29
      P1  H  7997  8009       L1     1  0.96

> <Gold.Chemscore.Hbond.Weighted>
-8.8512

> <Gold.Chemscore.Metal.Weighted>
-0.0000

> <Gold.Chemscore.Lipo.Weighted>
-10.2880

> <Gold.Chemscore.Internal_Hbond.Weighted>
0.0000

> <Gold.Chemscore.DEClash.Weighted>
0.3991

> <Gold.Chemscore.DEInternal.Weighted>
0.5584

> <Gold.Chemscore.Rot.Weighted>
8.2306

> <Gold.Chemscore.Internal.Correction.Weighted>
   9.000000E+99

> <Gold.Protein.RotatedTorsions>
[ 6907 6896 6895 6894 ] final   67.40 input  -60.11 | X-H torsion
[ 7974 7965 7964 7962 ] final   55.06 input  175.53 | X-H torsion
[ 8008 7997 7996 7995 ] final -167.47 input   59.86 | X-H torsion
[ 10167 10162 10161 10158 ] final  -93.52 input  -65.29 | X-H torsion
[ 10718 10713 10712 10709 ] final   79.54 input   66.30 | X-H torsion
[ 10763 10752 10751 10750 ] final   61.11 input  -60.55 | X-H torsion
[ 11005 11000 10999 10996 ] final  -95.05 input  -57.11 | X-H torsion

> <Gold.Protein.ActiveResidues>
 VAL166  LYS551  ARG553  GLY616  TRP617  ASP618  TYR619  PRO620  LYS621  CYS622 
 ASP623  PHE694  ASN695  SER759  ASP760  ASP761  ALA762  ILE779  LEU786  VAL792 
 PHE793  MET794  SER795  GLU796  ALA797  LYS798  CYS799  TRP800  GLU811  SER814 

> <Gold.Protein.RotatedAtoms>
  152.4549  134.5313  159.9811 H   0  0  0  0  0  0  0  0  0  0  0  0  # atno 6907 bound_to 6896
  151.5377  133.3432  159.2937 H   0  0  0  0  0  0  0  0  0  0  0  0  # atno 6908 bound_to 6896
  150.8490  134.7839  159.7056 H   0  0  0  0  0  0  0  0  0  0  0  0  # atno 6909 bound_to 6896
  145.9544  139.4001  143.0286 H   0  0  0  0  0  0  0  0  0  0  0  0  # atno 7974 bound_to 7965
  155.8782  140.1004  157.1504 H   0  0  0  0  0  0  0  0  0  0  0  0  # atno 8008 bound_to 7997
  154.4003  140.1334  156.4226 H   0  0  0  0  0  0  0  0  0  0  0  0  # atno 8009 bound_to 7997
  155.7674  140.3461  155.5231 H   0  0  0  0  0  0  0  0  0  0  0  0  # atno 8010 bound_to 7997
  140.3238  143.3034  152.0017 H   0  0  0  0  0  0  0  0  0  0  0  0  # atno 10167 bound_to 10162
  157.6780  130.9919  150.1948 H   0  0  0  0  0  0  0  0  0  0  0  0  # atno 10718 bound_to 10713
  152.9940  135.5512  154.5981 H   0  0  0  0  0  0  0  0  0  0  0  0  # atno 10763 bound_to 10752
  154.5328  135.2814  155.1167 H   0  0  0  0  0  0  0  0  0  0  0  0  # atno 10764 bound_to 10752
  154.2475  135.6405  153.5281 H   0  0  0  0  0  0  0  0  0  0  0  0  # atno 10765 bound_to 10752
  141.1453  133.7998  157.0381 H   0  0  0  0  0  0  0  0  0  0  0  0  # atno 11005 bound_to 11000
  145.8127  140.9718  143.0940 LP  0  0  0  0  0  0  0  0  0  0  0  0  # atno 17320 bound_to 7965
  144.6802  139.9941  143.7484 LP  0  0  0  0  0  0  0  0  0  0  0  0  # atno 17321 bound_to 7965
  139.4869  144.6290  151.7108 LP  0  0  0  0  0  0  0  0  0  0  0  0  # atno 17342 bound_to 10162
  140.5459  144.0503  150.6107 LP  0  0  0  0  0  0  0  0  0  0  0  0  # atno 17343 bound_to 10162
  156.2651  130.3715  149.8089 LP  0  0  0  0  0  0  0  0  0  0  0  0  # atno 17370 bound_to 10713
  156.5823  130.8471  151.3386 LP  0  0  0  0  0  0  0  0  0  0  0  0  # atno 17371 bound_to 10713
  140.0710  134.9702  157.1467 LP  0  0  0  0  0  0  0  0  0  0  0  0  # atno 17394 bound_to 11000
  140.3711  134.2389  155.7178 LP  0  0  0  0  0  0  0  0  0  0  0  0  # atno 17395 bound_to 11000

$$$$
