AV-unprocessed.smi:573|AV-procd|sdf|2973|dock4
  -GOLD-   2262023483D 1   1.00000     0.00000
 Structure written by MMmdl.
 44 46  0  0  0  0  0  0  0  0  1 V2000
  147.0820  141.9333  155.0365 C   0  0  0  0  0  0  0  0  0  0  0  0
  148.3102  141.5460  154.2034 C   0  0  2  0  0  0  0  0  0  0  0  0
  147.9673  140.4077  153.4402 O   0  0  0  0  0  0  0  0  0  0  0  0
  149.5183  141.2024  155.0918 C   0  0  0  0  0  0  0  0  0  0  0  0
  149.7942  142.2387  156.0710 N   0  0  0  0  0  0  0  0  0  0  0  0
  150.6387  142.2774  157.1745 C   0  0  0  0  0  0  0  0  0  0  0  0
  150.7654  143.3333  157.9763 N   0  0  0  0  0  0  0  0  0  0  0  0
  151.6905  142.8889  158.9024 C   0  0  0  0  0  0  0  0  0  0  0  0
  152.2525  143.5410  160.0233 C   0  0  0  0  0  0  0  0  0  0  0  0
  153.1905  142.8766  160.8402 C   0  0  0  0  0  0  0  0  0  0  0  0
  153.5788  141.5525  160.5503 C   0  0  0  0  0  0  0  0  0  0  0  0
  153.0331  140.8842  159.4374 C   0  0  0  0  0  0  0  0  0  0  0  0
  152.0992  141.5523  158.6227 C   0  0  0  0  0  0  0  0  0  0  0  0
  151.3898  141.1931  157.4800 N   0  0  0  0  0  0  0  0  0  0  0  0
  151.4538  139.9149  156.7851 C   0  0  0  0  0  0  0  0  0  0  0  0
  150.9890  138.7501  157.6748 C   0  0  1  0  0  0  0  0  0  0  0  0
  149.6193  139.0306  158.3223 C   0  0  0  0  0  0  0  0  0  0  0  0
  149.1501  137.8216  159.1402 C   0  0  0  0  0  0  0  0  0  0  0  0
  149.1918  136.5607  158.2699 C   0  0  0  0  0  0  0  0  0  0  0  0
  150.5778  136.4023  157.6251 C   0  0  0  0  0  0  0  0  0  0  0  0
  150.9004  137.5702  156.8774 O   0  0  0  0  0  0  0  0  0  0  0  0
  147.2851  142.8165  155.6429 H   0  0  0  0  0  0  0  0  0  0  0  0
  146.7874  141.1280  155.7104 H   0  0  0  0  0  0  0  0  0  0  0  0
  146.2289  142.1631  154.3972 H   0  0  0  0  0  0  0  0  0  0  0  0
  148.5503  142.3696  153.5297 H   0  0  0  0  0  0  0  0  0  0  0  0
  148.5652  140.3478  152.7107 H   0  0  0  0  0  0  0  0  0  0  0  0
  149.3174  140.2831  155.6430 H   0  0  0  0  0  0  0  0  0  0  0  0
  150.4083  141.0168  154.4895 H   0  0  0  0  0  0  0  0  0  0  0  0
  149.2656  143.0853  155.9197 H   0  0  0  0  0  0  0  0  0  0  0  0
  151.9602  144.5544  160.2550 H   0  0  0  0  0  0  0  0  0  0  0  0
  153.6132  143.3851  161.6944 H   0  0  0  0  0  0  0  0  0  0  0  0
  154.2957  141.0499  161.1832 H   0  0  0  0  0  0  0  0  0  0  0  0
  153.3263  139.8691  159.2142 H   0  0  0  0  0  0  0  0  0  0  0  0
  150.8510  139.9703  155.8781 H   0  0  0  0  0  0  0  0  0  0  0  0
  152.4812  139.7508  156.4587 H   0  0  0  0  0  0  0  0  0  0  0  0
  151.7327  138.5907  158.4579 H   0  0  0  0  0  0  0  0  0  0  0  0
  149.6750  139.9129  158.9605 H   0  0  0  0  0  0  0  0  0  0  0  0
  148.8848  139.2513  157.5467 H   0  0  0  0  0  0  0  0  0  0  0  0
  149.7982  137.6910  160.0078 H   0  0  0  0  0  0  0  0  0  0  0  0
  148.1425  137.9876  159.5219 H   0  0  0  0  0  0  0  0  0  0  0  0
  148.9494  135.6812  158.8669 H   0  0  0  0  0  0  0  0  0  0  0  0
  148.4333  136.6286  157.4891 H   0  0  0  0  0  0  0  0  0  0  0  0
  151.3422  136.2194  158.3817 H   0  0  0  0  0  0  0  0  0  0  0  0
  150.5829  135.5432  156.9543 H   0  0  0  0  0  0  0  0  0  0  0  0
  1  2  1  0  0  0  0
  1 22  1  0  0  0  0
  1 23  1  0  0  0  0
  1 24  1  0  0  0  0
  2  3  1  0  0  0  0
  2  4  1  0  0  0  0
  2 25  1  0  0  0  0
  3 26  1  0  0  0  0
  4  5  1  0  0  0  0
  4 27  1  0  0  0  0
  4 28  1  0  0  0  0
  5  6  1  0  0  0  0
  5 29  1  0  0  0  0
  6 14  1  0  0  0  0
  6  7  2  0  0  0  0
  7  8  1  0  0  0  0
  8 13  2  0  0  0  0
  8  9  1  0  0  0  0
  9 10  2  0  0  0  0
  9 30  1  0  0  0  0
 10 11  1  0  0  0  0
 10 31  1  0  0  0  0
 11 12  2  0  0  0  0
 11 32  1  0  0  0  0
 12 13  1  0  0  0  0
 12 33  1  0  0  0  0
 13 14  1  0  0  0  0
 14 15  1  0  0  0  0
 15 16  1  0  0  0  0
 15 34  1  0  0  0  0
 15 35  1  0  0  0  0
 16 21  1  0  0  0  0
 16 17  1  0  0  0  0
 16 36  1  0  0  0  0
 17 18  1  0  0  0  0
 17 37  1  0  0  0  0
 17 38  1  0  0  0  0
 18 19  1  0  0  0  0
 18 39  1  0  0  0  0
 18 40  1  0  0  0  0
 19 20  1  0  0  0  0
 19 41  1  0  0  0  0
 19 42  1  0  0  0  0
 20 21  1  0  0  0  0
 20 43  1  0  0  0  0
 20 44  1  0  0  0  0
M  END
> <s_m_source_file>
AV-unprocessed.smi

> <i_m_source_file_index>
573

> <i_lp_mmshare_version>
43012

> <i_f3d_flags>
0

> <s_epik_input>
W0NIM11bQ0BIXShbT0hdKVtDSDJdW05IXWMobjEpbihjKGMxMilbY0hdW2NIXVtjSF1bY0hdMilbQ0gyXVtDQEBIXTNbQ0gyXVtDSDJdW0NIMl1bQ0gyXU8z

> <s_epik_cmdline>
J2VwaWtfcHl0aG9uJywgJy1waCcsICc3LjAnLCAnLXRuJywgJzgnLCAnLW1hJywgJzIwMCcsICctbWV0YWxfYmluZGluZycsICctaW1hZScsICc8aW5maWxlLm1hZT4nLCAnLW9tYWUnLCAnPG91dGZpbGUubWFlPic=

> <r_epik_Ionization_Penalty>
1.30635

> <r_epik_Ionization_Penalty_Charging>
0

> <r_epik_Ionization_Penalty_Neutral>
1.30635

> <r_epik_State_Penalty>
1.38073

> <r_epik_Charging_Adjusted_Penalty>
1.38073

> <i_epik_Tot_Q>
0

> <i_epik_Tot_abs_Q>
0

> <r_epik_Metal_State_Penalty>
0.00547412

> <b_epik_Metal_Only>
0

> <s_lp_Force_Field>
OPLS_2005

> <r_lp_Energy>
9.89465

> <b_lp_Chiralities_Consistent>
1

> <s_lp_Variant>
AV-unprocessed.smi:573-7

> <Gold.Version>
5.8.1

> <Gold.Id.Protein>
6NUR|6NUR_protein|mol2

> <Gold.PLP.Fitness>
42.0623

> <Gold.PLP.PLP>
-40.3754

> <Gold.PLP.part.hbond>
-2.0000

> <Gold.PLP.part.metal>
0.0000

> <Gold.PLP.part.buried>
-4.9921

> <Gold.PLP.part.nonpolar>
-33.5151

> <Gold.PLP.part.repulsive>
0.2670

> <Gold.PLP.ligand.clash>
4.0484

> <Gold.PLP.ligand.torsion>
0.1359

> <Gold.PLP.Chemscore.Hbond>
2.0000

> <Gold.PLP.Chemscore.CHOScore>
0.0000

> <Gold.PLP.Chemscore.Metal>
0.0000

> <Gold.Chemscore.Hbonds>
donor molecule, donor type, donor heavy atom, donor atom, acceptor molecule, acceptor atom, score
      L1  H     3    26       P1  7957  1.00
      L1  H     5    29       P1  8028  1.00

> <Gold.PLP.Chemscore.Internal.Correction>
0.0070

> <Gold.Rescore>
     Score         DG    S(hbond)    S(metal)    S(lipo)     H(rot)  DE(clash)    DE(int)     intcor
     17.98     -19.51       1.99        0.00     107.24       2.02       0.07       1.46       ----

> <Gold.Chemscore.Fitness>
17.9829

> <Gold.Chemscore.DG>
-19.5112

> <Gold.Chemscore.ZeroCoef>
-5.4800

> <Gold.Chemscore.Hbond>
1.9943

> <Gold.Chemscore.Metal>
0.0000

> <Gold.Chemscore.Lipo>
107.2440

> <Gold.Chemscore.Internal_Hbond>
0.0000

> <Gold.Chemscore.DEClash>
0.0714

> <Gold.Chemscore.DEInternal>
1.4570

> <Gold.Chemscore.Rot>
2.0224

> <Gold.Chemscore.Internal.Correction>
   9.000000E+99

> <Gold.Chemscore.Hbonds>
donor molecule, donor type, donor heavy atom, donor atom, acceptor molecule, acceptor atom, score
      L1  H     3    26       P1  7957  1.00
      L1  H     5    29       P1  8028  1.00

> <Gold.Chemscore.Hbond.Weighted>
-6.6610

> <Gold.Chemscore.Metal.Weighted>
-0.0000

> <Gold.Chemscore.Lipo.Weighted>
-12.5476

> <Gold.Chemscore.Internal_Hbond.Weighted>
0.0000

> <Gold.Chemscore.DEClash.Weighted>
0.0714

> <Gold.Chemscore.DEInternal.Weighted>
1.4570

> <Gold.Chemscore.Rot.Weighted>
5.1773

> <Gold.Chemscore.Internal.Correction.Weighted>
   9.000000E+99

> <Gold.Protein.RotatedTorsions>
[ 6907 6896 6895 6894 ] final  -49.26 input  -60.11 | X-H torsion
[ 7974 7965 7964 7962 ] final  -54.30 input  175.53 | X-H torsion
[ 8008 7997 7996 7995 ] final  -73.00 input   59.86 | X-H torsion
[ 10167 10162 10161 10158 ] final   78.19 input  -65.29 | X-H torsion
[ 10718 10713 10712 10709 ] final   94.18 input   66.30 | X-H torsion
[ 10763 10752 10751 10750 ] final  -56.51 input  -60.55 | X-H torsion
[ 11005 11000 10999 10996 ] final  -78.15 input  -57.11 | X-H torsion

> <Gold.Protein.ActiveResidues>
 VAL166  LYS551  ARG553  GLY616  TRP617  ASP618  TYR619  PRO620  LYS621  CYS622 
 ASP623  PHE694  ASN695  SER759  ASP760  ASP761  ALA762  ILE779  LEU786  VAL792 
 PHE793  MET794  SER795  GLU796  ALA797  LYS798  CYS799  TRP800  GLU811  SER814 

> <Gold.Protein.RotatedAtoms>
  150.8823  134.8215  159.7233 H   0  0  0  0  0  0  0  0  0  0  0  0  # atno 6907 bound_to 6896
  152.4785  134.4777  159.9665 H   0  0  0  0  0  0  0  0  0  0  0  0  # atno 6908 bound_to 6896
  151.4850  133.3499  159.2880 H   0  0  0  0  0  0  0  0  0  0  0  0  # atno 6909 bound_to 6896
  145.8871  140.8100  142.9810 H   0  0  0  0  0  0  0  0  0  0  0  0  # atno 7974 bound_to 7965
  154.5211  140.0787  156.8174 H   0  0  0  0  0  0  0  0  0  0  0  0  # atno 8008 bound_to 7997
  155.3574  140.3416  155.4222 H   0  0  0  0  0  0  0  0  0  0  0  0  # atno 8009 bound_to 7997
  156.1682  140.1611  156.8481 H   0  0  0  0  0  0  0  0  0  0  0  0  # atno 8010 bound_to 7997
  139.9736  144.5877  150.7963 H   0  0  0  0  0  0  0  0  0  0  0  0  # atno 10167 bound_to 10162
  157.6950  131.0504  150.4147 H   0  0  0  0  0  0  0  0  0  0  0  0  # atno 10718 bound_to 10713
  154.2078  135.6400  153.5106 H   0  0  0  0  0  0  0  0  0  0  0  0  # atno 10763 bound_to 10752
  152.9997  135.5466  154.6248 H   0  0  0  0  0  0  0  0  0  0  0  0  # atno 10764 bound_to 10752
  154.5677  135.2914  155.0832 H   0  0  0  0  0  0  0  0  0  0  0  0  # atno 10765 bound_to 10752
  141.1663  133.7051  156.7928 H   0  0  0  0  0  0  0  0  0  0  0  0  # atno 11005 bound_to 11000
  144.6729  140.1472  143.7432 LP  0  0  0  0  0  0  0  0  0  0  0  0  # atno 17320 bound_to 7965
  145.8953  139.2399  143.1525 LP  0  0  0  0  0  0  0  0  0  0  0  0  # atno 17321 bound_to 7965
  140.7513  143.2971  151.3176 LP  0  0  0  0  0  0  0  0  0  0  0  0  # atno 17342 bound_to 10162
  139.6463  144.0446  152.2593 LP  0  0  0  0  0  0  0  0  0  0  0  0  # atno 17343 bound_to 10162
  156.4528  130.4015  149.6625 LP  0  0  0  0  0  0  0  0  0  0  0  0  # atno 17370 bound_to 10713
  156.3768  130.7559  151.2547 LP  0  0  0  0  0  0  0  0  0  0  0  0  # atno 17371 bound_to 10713
  140.2313  134.8683  157.3479 LP  0  0  0  0  0  0  0  0  0  0  0  0  # atno 17394 bound_to 11000
  140.1888  134.4397  155.7728 LP  0  0  0  0  0  0  0  0  0  0  0  0  # atno 17395 bound_to 11000

$$$$
