AV-unprocessed.smi:2253|AV-procd|sdf|9122|dock8
  -GOLD-   2272012323D 1   1.00000     0.00000
 Structure written by MMmdl.
 51 53  0  0  0  0  0  0  0  0  2 V2000
  147.9782  132.7152  156.1514 C   0  0  0  0  0  0  0  0  0  0  0  0
  148.4753  133.8547  155.3932 N   0  0  0  0  0  0  0  0  0  0  0  0
  149.9204  133.9599  155.5717 C   0  0  0  0  0  0  0  0  0  0  0  0
  150.4755  135.1123  154.7179 C   0  0  0  0  0  0  0  0  0  0  0  0
  149.8278  136.4719  155.0764 C   0  0  0  0  0  0  0  0  0  0  0  0
  150.2641  137.5844  154.1665 N   0  3  2  0  0  0  0  0  0  0  0  0
  151.7335  137.8285  154.0946 C   0  0  0  0  0  0  0  0  0  0  0  0
  152.2675  138.4755  155.3860 C   0  0  0  0  0  0  0  0  0  0  0  0
  151.5464  139.8050  155.6667 C   0  0  2  0  0  0  0  0  0  0  0  0
  151.9995  140.3584  156.9398 N   0  0  0  0  0  0  0  0  0  0  0  0
  151.4503  141.4142  157.5587 C   0  0  0  0  0  0  0  0  0  0  0  0
  150.4691  142.0134  157.1211 O   0  0  0  0  0  0  0  0  0  0  0  0
  152.1110  141.7080  158.6923 N   0  0  0  0  0  0  0  0  0  0  0  0
  151.8936  142.7579  159.6294 C   0  0  0  0  0  0  0  0  0  0  0  0
  151.1077  143.9120  159.3878 C   0  0  0  0  0  0  0  0  0  0  0  0
  150.9858  144.8731  160.4117 C   0  0  0  0  0  0  0  0  0  0  0  0
  151.5793  144.7565  161.6180 N   0  0  0  0  0  0  0  0  0  0  0  0
  152.3275  143.6570  161.8454 C   0  0  0  0  0  0  0  0  0  0  0  0
  152.5146  142.6371  160.8911 C   0  0  0  0  0  0  0  0  0  0  0  0
  153.2817  141.5595  161.1860 F   0  0  0  0  0  0  0  0  0  0  0  0
  150.0192  139.5937  155.6638 C   0  0  0  0  0  0  0  0  0  0  0  0
  149.5567  138.8808  154.3770 C   0  0  0  0  0  0  0  0  0  0  0  0
  148.2927  136.2804  155.0421 C   0  0  0  0  0  0  0  0  0  0  0  0
  147.8365  135.0739  155.8798 C   0  0  0  0  0  0  0  0  0  0  0  0
  148.4400  131.7915  155.8013 H   0  0  0  0  0  0  0  0  0  0  0  0
  146.8998  132.6133  156.0258 H   0  0  0  0  0  0  0  0  0  0  0  0
  148.1899  132.8210  157.2165 H   0  0  0  0  0  0  0  0  0  0  0  0
  150.1630  134.1144  156.6246 H   0  0  0  0  0  0  0  0  0  0  0  0
  150.3933  133.0248  155.2685 H   0  0  0  0  0  0  0  0  0  0  0  0
  151.5523  135.1410  154.8813 H   0  0  0  0  0  0  0  0  0  0  0  0
  150.3202  134.8898  153.6611 H   0  0  0  0  0  0  0  0  0  0  0  0
  150.1205  136.7139  156.0982 H   0  0  0  0  0  0  0  0  0  0  0  0
  152.2900  136.9272  153.8449 H   0  0  0  0  0  0  0  0  0  0  0  0
  151.9223  138.5042  153.2588 H   0  0  0  0  0  0  0  0  0  0  0  0
  152.1423  137.7909  156.2260 H   0  0  0  0  0  0  0  0  0  0  0  0
  153.3401  138.6498  155.2915 H   0  0  0  0  0  0  0  0  0  0  0  0
  151.8054  140.5017  154.8666 H   0  0  0  0  0  0  0  0  0  0  0  0
  152.8012  139.9200  157.3692 H   0  0  0  0  0  0  0  0  0  0  0  0
  152.8900  141.1046  158.9129 H   0  0  0  0  0  0  0  0  0  0  0  0
  150.5992  144.0895  158.4541 H   0  0  0  0  0  0  0  0  0  0  0  0
  150.3938  145.7629  160.2558 H   0  0  0  0  0  0  0  0  0  0  0  0
  152.7928  143.5885  162.8176 H   0  0  0  0  0  0  0  0  0  0  0  0
  149.7167  139.0195  156.5399 H   0  0  0  0  0  0  0  0  0  0  0  0
  149.5106  140.5552  155.7453 H   0  0  0  0  0  0  0  0  0  0  0  0
  149.7722  139.5240  153.5227 H   0  0  0  0  0  0  0  0  0  0  0  0
  148.4753  138.7646  154.3715 H   0  0  0  0  0  0  0  0  0  0  0  0
  147.7774  137.1560  155.4327 H   0  0  0  0  0  0  0  0  0  0  0  0
  147.9566  136.1548  154.0115 H   0  0  0  0  0  0  0  0  0  0  0  0
  146.7531  134.9708  155.8050 H   0  0  0  0  0  0  0  0  0  0  0  0
  148.0709  135.2314  156.9341 H   0  0  0  0  0  0  0  0  0  0  0  0
  150.0010  137.2745  153.2416 H   0  0  0  0  0  0  0  0  0  0  0  0
  1  2  1  0  0  0  0
  1 25  1  0  0  0  0
  1 26  1  0  0  0  0
  1 27  1  0  0  0  0
  2 24  1  0  0  0  0
  2  3  1  0  0  0  0
  3  4  1  0  0  0  0
  3 28  1  0  0  0  0
  3 29  1  0  0  0  0
  4  5  1  0  0  0  0
  4 30  1  0  0  0  0
  4 31  1  0  0  0  0
  5  6  1  0  0  0  0
  5 23  1  0  0  0  0
  5 32  1  0  0  0  0
  6 22  1  0  0  0  0
  6  7  1  0  0  0  0
  6 51  1  0  0  0  0
  7  8  1  0  0  0  0
  7 33  1  0  0  0  0
  7 34  1  0  0  0  0
  8  9  1  0  0  0  0
  8 35  1  0  0  0  0
  8 36  1  0  0  0  0
  9 10  1  0  0  0  0
  9 21  1  0  0  0  0
  9 37  1  0  0  0  0
 10 11  1  0  0  0  0
 10 38  1  0  0  0  0
 11 12  2  0  0  0  0
 11 13  1  0  0  0  0
 13 14  1  0  0  0  0
 13 39  1  0  0  0  0
 14 19  1  0  0  0  0
 14 15  2  0  0  0  0
 15 16  1  0  0  0  0
 15 40  1  0  0  0  0
 16 17  2  0  0  0  0
 16 41  1  0  0  0  0
 17 18  1  0  0  0  0
 18 19  2  0  0  0  0
 18 42  1  0  0  0  0
 19 20  1  0  0  0  0
 21 22  1  0  0  0  0
 21 43  1  0  0  0  0
 21 44  1  0  0  0  0
 22 45  1  0  0  0  0
 22 46  1  0  0  0  0
 23 24  1  0  0  0  0
 23 47  1  0  0  0  0
 23 48  1  0  0  0  0
 24 49  1  0  0  0  0
 24 50  1  0  0  0  0
M  CHG  1   6   1
M  END
> <s_m_source_file>
AV-unprocessed.smi

> <i_m_source_file_index>
2253

> <i_lp_mmshare_version>
43012

> <i_f3d_flags>
0

> <s_epik_input>
W0NIM11OMVtDSDJdW0NIMl1bQ0hdKFtDSDJdW0NIMl0xKU4yW0NIMl1bQ0gyXVtDSF0oW0NIMl1bQ0gyXTIpW05IXUMoPU8pW05IXWMzW2NIXVtjSF1uW2NIXWMzRg==

> <s_epik_cmdline>
J2VwaWtfcHl0aG9uJywgJy1waCcsICc3LjAnLCAnLXRuJywgJzgnLCAnLW1hJywgJzIwMCcsICctbWV0YWxfYmluZGluZycsICctaW1hZScsICc8aW5maWxlLm1hZT4nLCAnLW9tYWUnLCAnPG91dGZpbGUubWFlPic=

> <r_epik_Ionization_Penalty>
1.37522

> <r_epik_Ionization_Penalty_Charging>
0.00081195

> <r_epik_Ionization_Penalty_Neutral>
1.3744

> <r_epik_State_Penalty>
1.55149

> <r_epik_Charging_Adjusted_Penalty>
1.5523

> <i_epik_Tot_Q>
1

> <i_epik_Tot_abs_Q>
1

> <r_epik_Metal_State_Penalty>
1.55158

> <b_epik_Metal_Only>
0

> <s_lp_Force_Field>
OPLS_2005

> <r_lp_Energy>
38.6229

> <b_lp_Chiralities_Consistent>
1

> <s_lp_Variant>
AV-unprocessed.smi:2253-8

> <Gold.Version>
5.8.1

> <Gold.Id.Protein>
6NUR|6NUR_protein|mol2

> <Gold.PLP.Fitness>
47.3614

> <Gold.PLP.PLP>
-41.6676

> <Gold.PLP.part.hbond>
-1.2881

> <Gold.PLP.part.metal>
0.0000

> <Gold.PLP.part.buried>
-6.0042

> <Gold.PLP.part.nonpolar>
-36.9490

> <Gold.PLP.part.repulsive>
3.0357

> <Gold.PLP.ligand.clash>
0.0000

> <Gold.PLP.ligand.torsion>
0.1776

> <Gold.PLP.Chemscore.Hbond>
2.0000

> <Gold.PLP.Chemscore.CHOScore>
0.0000

> <Gold.PLP.Chemscore.Metal>
0.0000

> <Gold.Chemscore.Hbonds>
donor molecule, donor type, donor heavy atom, donor atom, acceptor molecule, acceptor atom, score
      L1  H     6    51       P1  7948  2.00

> <Gold.PLP.Chemscore.Internal.Correction>
0.0490

> <Gold.Rescore>
     Score         DG    S(hbond)    S(metal)    S(lipo)     H(rot)  DE(clash)    DE(int)     intcor
     14.70     -17.41       0.96        0.00     101.74       1.24       0.06       2.65       ----

> <Gold.Chemscore.Fitness>
14.6968

> <Gold.Chemscore.DG>
-17.4138

> <Gold.Chemscore.ZeroCoef>
-5.4800

> <Gold.Chemscore.Hbond>
0.9576

> <Gold.Chemscore.Metal>
0.0000

> <Gold.Chemscore.Lipo>
101.7425

> <Gold.Chemscore.Internal_Hbond>
0.0000

> <Gold.Chemscore.DEClash>
0.0637

> <Gold.Chemscore.DEInternal>
2.6533

> <Gold.Chemscore.Rot>
1.2377

> <Gold.Chemscore.Internal.Correction>
   9.000000E+99

> <Gold.Chemscore.Hbonds>
donor molecule, donor type, donor heavy atom, donor atom, acceptor molecule, acceptor atom, score
      L1  H     6    51       P1  7948  0.25

> <Gold.Chemscore.Hbond.Weighted>
-3.1985

> <Gold.Chemscore.Metal.Weighted>
-0.0000

> <Gold.Chemscore.Lipo.Weighted>
-11.9039

> <Gold.Chemscore.Internal_Hbond.Weighted>
0.0000

> <Gold.Chemscore.DEClash.Weighted>
0.0637

> <Gold.Chemscore.DEInternal.Weighted>
2.6533

> <Gold.Chemscore.Rot.Weighted>
3.1685

> <Gold.Chemscore.Internal.Correction.Weighted>
   9.000000E+99

> <Gold.Protein.RotatedTorsions>
[ 6907 6896 6895 6894 ] final   71.72 input  -60.11 | X-H torsion
[ 7974 7965 7964 7962 ] final  149.07 input  175.53 | X-H torsion
[ 8008 7997 7996 7995 ] final  -66.24 input   59.86 | X-H torsion
[ 10167 10162 10161 10158 ] final    7.16 input  -65.29 | X-H torsion
[ 10718 10713 10712 10709 ] final -175.59 input   66.30 | X-H torsion
[ 10763 10752 10751 10750 ] final  177.99 input  -60.55 | X-H torsion
[ 11005 11000 10999 10996 ] final   82.46 input  -57.11 | X-H torsion

> <Gold.Protein.ActiveResidues>
 VAL166  LYS551  ARG553  GLY616  TRP617  ASP618  TYR619  PRO620  LYS621  CYS622 
 ASP623  PHE694  ASN695  SER759  ASP760  ASP761  ALA762  ILE779  LEU786  VAL792 
 PHE793  MET794  SER795  GLU796  ALA797  LYS798  CYS799  TRP800  GLU811  SER814 

> <Gold.Protein.RotatedAtoms>
  152.4826  134.4679  159.9625 H   0  0  0  0  0  0  0  0  0  0  0  0  # atno 6907 bound_to 6896
  151.4681  133.3570  159.2827 H   0  0  0  0  0  0  0  0  0  0  0  0  # atno 6908 bound_to 6896
  150.8911  134.8340  159.7354 H   0  0  0  0  0  0  0  0  0  0  0  0  # atno 6909 bound_to 6896
  144.8466  139.6234  143.5993 H   0  0  0  0  0  0  0  0  0  0  0  0  # atno 7974 bound_to 7965
  154.4722  140.0916  156.7173 H   0  0  0  0  0  0  0  0  0  0  0  0  # atno 8008 bound_to 7997
  155.4693  140.3464  155.4305 H   0  0  0  0  0  0  0  0  0  0  0  0  # atno 8009 bound_to 7997
  156.1058  140.1434  156.9394 H   0  0  0  0  0  0  0  0  0  0  0  0  # atno 8010 bound_to 7997
  140.6387  143.7824  150.7397 H   0  0  0  0  0  0  0  0  0  0  0  0  # atno 10167 bound_to 10162
  156.8021  130.9556  151.3118 H   0  0  0  0  0  0  0  0  0  0  0  0  # atno 10718 bound_to 10713
  154.5018  135.2784  155.1415 H   0  0  0  0  0  0  0  0  0  0  0  0  # atno 10763 bound_to 10752
  154.3045  135.6241  153.5442 H   0  0  0  0  0  0  0  0  0  0  0  0  # atno 10764 bound_to 10752
  152.9903  135.5705  154.5462 H   0  0  0  0  0  0  0  0  0  0  0  0  # atno 10765 bound_to 10752
  139.9063  134.8073  156.2177 H   0  0  0  0  0  0  0  0  0  0  0  0  # atno 11005 bound_to 11000
  146.2749  139.6728  142.9270 LP  0  0  0  0  0  0  0  0  0  0  0  0  # atno 17320 bound_to 7965
  145.4585  141.0432  143.2765 LP  0  0  0  0  0  0  0  0  0  0  0  0  # atno 17321 bound_to 7965
  140.1451  143.4406  152.2168 LP  0  0  0  0  0  0  0  0  0  0  0  0  # atno 17342 bound_to 10162
  139.5597  144.7397  151.4191 LP  0  0  0  0  0  0  0  0  0  0  0  0  # atno 17343 bound_to 10162
  157.6549  130.8915  149.9707 LP  0  0  0  0  0  0  0  0  0  0  0  0  # atno 17370 bound_to 10713
  156.1095  130.3651  150.0074 LP  0  0  0  0  0  0  0  0  0  0  0  0  # atno 17371 bound_to 10713
  141.0425  133.6930  156.1624 LP  0  0  0  0  0  0  0  0  0  0  0  0  # atno 17394 bound_to 11000
  140.6933  134.4642  157.5588 LP  0  0  0  0  0  0  0  0  0  0  0  0  # atno 17395 bound_to 11000

$$$$
