AV-unprocessed.smi:434|AV-procd|sdf|2553|dock8
  -GOLD-   2262022523D 1   1.00000     0.00000
 Structure written by MMmdl.
 39 41  0  0  0  0  0  0  0  0  1 V2000
  154.1380  141.4105  163.1044 C   0  0  0  0  0  0  0  0  0  0  0  0
  153.4605  142.2303  162.0525 C   0  0  0  0  0  0  0  0  0  0  0  0
  152.8053  143.3550  162.3400 N   0  0  0  0  0  0  0  0  0  0  0  0
  152.3603  143.7714  161.1000 C   0  0  0  0  0  0  0  0  0  0  0  0
  151.6003  144.9041  160.7299 C   0  0  0  0  0  0  0  0  0  0  0  0
  151.2602  145.1251  159.3792 C   0  0  0  0  0  0  0  0  0  0  0  0
  151.6727  144.2183  158.3814 C   0  0  0  0  0  0  0  0  0  0  0  0
  152.4303  143.0831  158.7284 C   0  0  0  0  0  0  0  0  0  0  0  0
  152.7680  142.8673  160.0780 C   0  0  0  0  0  0  0  0  0  0  0  0
  153.4802  141.8743  160.7444 N   0  0  0  0  0  0  0  0  0  0  0  0
  154.1111  140.7056  160.1450 C   0  0  0  0  0  0  0  0  0  0  0  0
  153.0893  139.7132  159.5539 C   0  0  1  0  0  0  0  0  0  0  0  0
  153.2238  139.6960  158.1461 O   0  0  0  0  0  0  0  0  0  0  0  0
  153.3034  138.2860  160.0819 C   0  0  0  0  0  0  0  0  0  0  0  0
  154.6953  138.0309  160.1737 O   0  0  0  0  0  0  0  0  0  0  0  0
  154.9851  136.6770  160.4740 C   0  0  0  0  0  0  0  0  0  0  0  0
  154.8143  136.5235  161.9473 C   0  0  0  0  0  0  0  0  0  0  0  0
  154.4079  137.3705  162.9414 C   0  0  0  0  0  0  0  0  0  0  0  0
  154.4527  136.6213  164.1497 C   0  0  0  0  0  0  0  0  0  0  0  0
  154.8819  135.3720  163.8022 C   0  0  0  0  0  0  0  0  0  0  0  0
  155.1065  135.2956  162.4620 O   0  0  0  0  0  0  0  0  0  0  0  0
  153.9495  141.8274  164.0942 H   0  0  0  0  0  0  0  0  0  0  0  0
  155.2153  141.3990  162.9370 H   0  0  0  0  0  0  0  0  0  0  0  0
  153.7658  140.3865  163.0888 H   0  0  0  0  0  0  0  0  0  0  0  0
  151.2783  145.6040  161.4867 H   0  0  0  0  0  0  0  0  0  0  0  0
  150.6792  145.9945  159.1078 H   0  0  0  0  0  0  0  0  0  0  0  0
  151.4063  144.3942  157.3493 H   0  0  0  0  0  0  0  0  0  0  0  0
  152.7451  142.3855  157.9665 H   0  0  0  0  0  0  0  0  0  0  0  0
  154.8037  141.0414  159.3719 H   0  0  0  0  0  0  0  0  0  0  0  0
  154.7226  140.2136  160.9017 H   0  0  0  0  0  0  0  0  0  0  0  0
  152.0814  140.0446  159.8055 H   0  0  0  0  0  0  0  0  0  0  0  0
  152.3600  139.7044  157.7628 H   0  0  0  0  0  0  0  0  0  0  0  0
  152.8058  138.1404  161.0426 H   0  0  0  0  0  0  0  0  0  0  0  0
  152.8722  137.5671  159.3832 H   0  0  0  0  0  0  0  0  0  0  0  0
  154.3082  136.0093  159.9387 H   0  0  0  0  0  0  0  0  0  0  0  0
  156.0065  136.4279  160.1826 H   0  0  0  0  0  0  0  0  0  0  0  0
  154.1133  138.4017  162.8141 H   0  0  0  0  0  0  0  0  0  0  0  0
  154.2018  136.9534  165.1463 H   0  0  0  0  0  0  0  0  0  0  0  0
  155.0728  134.4636  164.3541 H   0  0  0  0  0  0  0  0  0  0  0  0
  1  2  1  0  0  0  0
  1 22  1  0  0  0  0
  1 23  1  0  0  0  0
  1 24  1  0  0  0  0
  2 10  1  0  0  0  0
  2  3  2  0  0  0  0
  3  4  1  0  0  0  0
  4  9  2  0  0  0  0
  4  5  1  0  0  0  0
  5  6  2  0  0  0  0
  5 25  1  0  0  0  0
  6  7  1  0  0  0  0
  6 26  1  0  0  0  0
  7  8  2  0  0  0  0
  7 27  1  0  0  0  0
  8  9  1  0  0  0  0
  8 28  1  0  0  0  0
  9 10  1  0  0  0  0
 10 11  1  0  0  0  0
 11 12  1  0  0  0  0
 11 29  1  0  0  0  0
 11 30  1  0  0  0  0
 12 13  1  0  0  0  0
 12 14  1  0  0  0  0
 12 31  1  0  0  0  0
 13 32  1  0  0  0  0
 14 15  1  0  0  0  0
 14 33  1  0  0  0  0
 14 34  1  0  0  0  0
 15 16  1  0  0  0  0
 16 17  1  0  0  0  0
 16 35  1  0  0  0  0
 16 36  1  0  0  0  0
 17 21  1  0  0  0  0
 17 18  2  0  0  0  0
 18 19  1  0  0  0  0
 18 37  1  0  0  0  0
 19 20  2  0  0  0  0
 19 38  1  0  0  0  0
 20 21  1  0  0  0  0
 20 39  1  0  0  0  0
M  END
> <s_m_source_file>
AV-unprocessed.smi

> <i_m_source_file_index>
434

> <i_lp_mmshare_version>
43012

> <i_f3d_flags>
0

> <s_epik_input>
W2NIXTFbY0hdW2NIXVtjSF1jKGMxMiluKGMobjIpW0NIM10pW0NIMl1bQ0BIXShbT0hdKVtDSDJdT1tDSDJdYzNbY0hdW2NIXVtjSF1vMw==

> <s_epik_cmdline>
J2VwaWtfcHl0aG9uJywgJy1waCcsICc3LjAnLCAnLXRuJywgJzgnLCAnLW1hJywgJzIwMCcsICctbWV0YWxfYmluZGluZycsICctaW1hZScsICc8aW5maWxlLm1hZT4nLCAnLW9tYWUnLCAnPG91dGZpbGUubWFlPic=

> <r_epik_Ionization_Penalty>
0.126634

> <r_epik_Ionization_Penalty_Charging>
0

> <r_epik_Ionization_Penalty_Neutral>
0.126634

> <r_epik_State_Penalty>
0.116082

> <r_epik_Charging_Adjusted_Penalty>
0.116082

> <i_epik_Tot_Q>
0

> <i_epik_Tot_abs_Q>
0

> <r_epik_Metal_State_Penalty>
0.00012822

> <b_epik_Metal_Only>
0

> <s_lp_Force_Field>
OPLS_2005

> <r_lp_Energy>
9.69126

> <b_lp_Chiralities_Consistent>
1

> <s_lp_Variant>
AV-unprocessed.smi:434-2

> <Gold.Version>
5.8.1

> <Gold.Id.Protein>
6NUR|6NUR_protein|mol2

> <Gold.PLP.Fitness>
55.1740

> <Gold.PLP.PLP>
-54.3106

> <Gold.PLP.part.hbond>
-1.0000

> <Gold.PLP.part.metal>
0.0000

> <Gold.PLP.part.buried>
-5.7524

> <Gold.PLP.part.nonpolar>
-47.0557

> <Gold.PLP.part.repulsive>
0.1374

> <Gold.PLP.ligand.clash>
0.0000

> <Gold.PLP.ligand.torsion>
1.0988

> <Gold.PLP.Chemscore.Hbond>
1.0000

> <Gold.PLP.Chemscore.CHOScore>
0.0000

> <Gold.PLP.Chemscore.Metal>
0.0000

> <Gold.Chemscore.Hbonds>
donor molecule, donor type, donor heavy atom, donor atom, acceptor molecule, acceptor atom, score
      P1  H  7997  8008       L1    13  1.00

> <Gold.PLP.Chemscore.Internal.Correction>
0.0611

> <Gold.Rescore>
     Score         DG    S(hbond)    S(metal)    S(lipo)     H(rot)  DE(clash)    DE(int)     intcor
     17.97     -19.26       0.98        0.00     141.43       2.36       0.11       1.17       ----

> <Gold.Chemscore.Fitness>
17.9715

> <Gold.Chemscore.DG>
-19.2554

> <Gold.Chemscore.ZeroCoef>
-5.4800

> <Gold.Chemscore.Hbond>
0.9782

> <Gold.Chemscore.Metal>
0.0000

> <Gold.Chemscore.Lipo>
141.4317

> <Gold.Chemscore.Internal_Hbond>
0.0000

> <Gold.Chemscore.DEClash>
0.1116

> <Gold.Chemscore.DEInternal>
1.1723

> <Gold.Chemscore.Rot>
2.3591

> <Gold.Chemscore.Internal.Correction>
   9.000000E+99

> <Gold.Chemscore.Hbonds>
donor molecule, donor type, donor heavy atom, donor atom, acceptor molecule, acceptor atom, score
      P1  H  7997  8008       L1    13  0.98

> <Gold.Chemscore.Hbond.Weighted>
-3.2671

> <Gold.Chemscore.Metal.Weighted>
-0.0000

> <Gold.Chemscore.Lipo.Weighted>
-16.5475

> <Gold.Chemscore.Internal_Hbond.Weighted>
0.0000

> <Gold.Chemscore.DEClash.Weighted>
0.1116

> <Gold.Chemscore.DEInternal.Weighted>
1.1723

> <Gold.Chemscore.Rot.Weighted>
6.0393

> <Gold.Chemscore.Internal.Correction.Weighted>
   9.000000E+99

> <Gold.Protein.RotatedTorsions>
[ 6907 6896 6895 6894 ] final  118.56 input  -60.11 | X-H torsion
[ 7974 7965 7964 7962 ] final  -96.07 input  175.53 | X-H torsion
[ 8008 7997 7996 7995 ] final  -94.36 input   59.86 | X-H torsion
[ 10167 10162 10161 10158 ] final  162.96 input  -65.29 | X-H torsion
[ 10718 10713 10712 10709 ] final   -0.59 input   66.30 | X-H torsion
[ 10763 10752 10751 10750 ] final  -54.16 input  -60.55 | X-H torsion
[ 11005 11000 10999 10996 ] final   88.70 input  -57.11 | X-H torsion

> <Gold.Protein.ActiveResidues>
 VAL166  LYS551  ARG553  GLY616  TRP617  ASP618  TYR619  PRO620  LYS621  CYS622 
 ASP623  PHE694  ASN695  SER759  ASP760  ASP761  ALA762  ILE779  LEU786  VAL792 
 PHE793  MET794  SER795  GLU796  ALA797  LYS798  CYS799  TRP800  GLU811  SER814 

> <Gold.Protein.RotatedAtoms>
  152.4534  133.7675  159.6780 H   0  0  0  0  0  0  0  0  0  0  0  0  # atno 6907 bound_to 6896
  150.8453  133.7861  159.3051 H   0  0  0  0  0  0  0  0  0  0  0  0  # atno 6908 bound_to 6896
  151.5473  135.1070  159.9993 H   0  0  0  0  0  0  0  0  0  0  0  0  # atno 6909 bound_to 6896
  145.3517  140.9477  143.2550 H   0  0  0  0  0  0  0  0  0  0  0  0  # atno 7974 bound_to 7965
  154.7474  140.0490  157.0864 H   0  0  0  0  0  0  0  0  0  0  0  0  # atno 8008 bound_to 7997
  155.0101  140.3135  155.4814 H   0  0  0  0  0  0  0  0  0  0  0  0  # atno 8009 bound_to 7997
  156.2878  140.2186  156.5214 H   0  0  0  0  0  0  0  0  0  0  0  0  # atno 8010 bound_to 7997
  139.4867  144.4385  151.8982 H   0  0  0  0  0  0  0  0  0  0  0  0  # atno 10167 bound_to 10162
  156.8182  130.5447  149.5700 H   0  0  0  0  0  0  0  0  0  0  0  0  # atno 10718 bound_to 10713
  154.1704  135.6460  153.5008 H   0  0  0  0  0  0  0  0  0  0  0  0  # atno 10763 bound_to 10752
  153.0086  135.5382  154.6619 H   0  0  0  0  0  0  0  0  0  0  0  0  # atno 10764 bound_to 10752
  154.5956  135.2938  155.0561 H   0  0  0  0  0  0  0  0  0  0  0  0  # atno 10765 bound_to 10752
  139.8891  134.8504  156.3038 H   0  0  0  0  0  0  0  0  0  0  0  0  # atno 11005 bound_to 11000
  144.8712  139.5035  143.6766 LP  0  0  0  0  0  0  0  0  0  0  0  0  # atno 17320 bound_to 7965
  146.2965  139.7294  142.9123 LP  0  0  0  0  0  0  0  0  0  0  0  0  # atno 17321 bound_to 7965
  140.3835  144.2706  150.5906 LP  0  0  0  0  0  0  0  0  0  0  0  0  # atno 17342 bound_to 10162
  140.5211  143.2265  151.8387 LP  0  0  0  0  0  0  0  0  0  0  0  0  # atno 17343 bound_to 10162
  156.1004  130.5964  150.9884 LP  0  0  0  0  0  0  0  0  0  0  0  0  # atno 17370 bound_to 10713
  157.6470  131.0902  150.8131 LP  0  0  0  0  0  0  0  0  0  0  0  0  # atno 17371 bound_to 10713
  140.9896  133.7217  156.0793 LP  0  0  0  0  0  0  0  0  0  0  0  0  # atno 17394 bound_to 11000
  140.7643  134.3904  157.5520 LP  0  0  0  0  0  0  0  0  0  0  0  0  # atno 17395 bound_to 11000

$$$$
