AV-unprocessed.smi:149|AV-procd|sdf|1236|dock7
  -GOLD-   2262018443D 1   1.00000     0.00000
 Structure written by MMmdl.
 60 64  0  0  0  0  0  0  0  0  2 V2000
  146.1549  131.7255  149.6997 C   0  0  0  0  0  0  0  0  0  0  0  0
  145.2862  131.6978  150.9739 C   0  0  2  0  0  0  0  0  0  0  0  0
  144.7178  133.0957  151.2714 C   0  0  0  0  0  0  0  0  0  0  0  0
  145.5826  133.6772  152.2909 N   0  0  0  0  0  0  0  0  0  0  0  0
  145.7602  135.0207  152.3826 C   0  0  0  0  0  0  0  0  0  0  0  0
  145.7327  135.7624  151.2436 N   0  0  0  0  0  0  0  0  0  0  0  0
  145.9092  137.0859  151.2915 C   0  0  0  0  0  0  0  0  0  0  0  0
  146.1268  137.8598  152.3554 N   0  0  0  0  0  0  0  0  0  0  0  0
  146.1631  137.1250  153.5035 C   0  0  0  0  0  0  0  0  0  0  0  0
  145.9982  135.7134  153.6066 C   0  0  0  0  0  0  0  0  0  0  0  0
  146.1305  135.3245  154.9352 N   0  0  0  0  0  0  0  0  0  0  0  0
  146.3560  136.4376  155.5771 C   0  0  0  0  0  0  0  0  0  0  0  0
  146.3610  137.5723  154.7990 N   0  0  0  0  0  0  0  0  0  0  0  0
  146.6244  138.9109  155.2415 C   0  0  0  0  0  0  0  0  0  0  0  0
  146.8102  140.0512  154.2350 C   0  0  0  0  0  0  0  0  0  0  0  0
  147.8938  140.6868  155.1345 C   0  0  0  0  0  0  0  0  0  0  0  0
  149.1586  141.1319  154.3843 C   0  0  0  0  0  0  0  0  0  0  0  0
  149.7914  140.0438  153.7419 O   0  0  0  0  0  0  0  0  0  0  0  0
  147.4421  141.8748  156.0130 C   0  0  0  0  0  0  0  0  0  0  0  0
  148.4260  142.2930  156.9374 O   0  0  0  0  0  0  0  0  0  0  0  0
  147.9892  139.3034  155.8147 C   0  0  0  0  0  0  0  0  0  0  0  0
  146.6346  132.7388  152.6517 C   0  0  0  0  0  0  0  0  0  0  0  0
  146.0626  131.3704  152.2659 C   0  0  2  0  0  0  0  0  0  0  0  0
  147.0645  130.2746  152.1380 N   0  3  0  0  0  0  0  0  0  0  0  0
  147.8316  130.0122  153.3828 C   0  0  0  0  0  0  0  0  0  0  0  0
  148.8636  128.8933  153.1579 C   0  0  0  0  0  0  0  0  0  0  0  0
  148.2076  127.7177  152.7028 O   0  0  0  0  0  0  0  0  0  0  0  0
  147.5446  127.9291  151.4638 C   0  0  0  0  0  0  0  0  0  0  0  0
  146.4660  129.0106  151.6369 C   0  0  0  0  0  0  0  0  0  0  0  0
  146.9895  132.4204  149.7956 H   0  0  0  0  0  0  0  0  0  0  0  0
  145.5659  132.0390  148.8374 H   0  0  0  0  0  0  0  0  0  0  0  0
  146.5648  130.7430  149.4667 H   0  0  0  0  0  0  0  0  0  0  0  0
  144.4711  130.9896  150.8218 H   0  0  0  0  0  0  0  0  0  0  0  0
  144.6735  133.7095  150.3706 H   0  0  0  0  0  0  0  0  0  0  0  0
  143.7082  133.0188  151.6762 H   0  0  0  0  0  0  0  0  0  0  0  0
  145.8695  137.5986  150.3418 H   0  0  0  0  0  0  0  0  0  0  0  0
  146.5215  136.4601  156.6446 H   0  0  0  0  0  0  0  0  0  0  0  0
  145.8300  139.1485  155.9498 H   0  0  0  0  0  0  0  0  0  0  0  0
  147.2052  139.7010  153.2800 H   0  0  0  0  0  0  0  0  0  0  0  0
  145.9214  140.6646  154.0833 H   0  0  0  0  0  0  0  0  0  0  0  0
  148.9162  141.8708  153.6198 H   0  0  0  0  0  0  0  0  0  0  0  0
  149.8707  141.6088  155.0584 H   0  0  0  0  0  0  0  0  0  0  0  0
  149.5828  140.0758  152.8207 H   0  0  0  0  0  0  0  0  0  0  0  0
  147.1859  142.7391  155.3998 H   0  0  0  0  0  0  0  0  0  0  0  0
  146.5463  141.6177  156.5791 H   0  0  0  0  0  0  0  0  0  0  0  0
  148.7136  143.1605  156.6974 H   0  0  0  0  0  0  0  0  0  0  0  0
  148.0269  139.3314  156.9040 H   0  0  0  0  0  0  0  0  0  0  0  0
  148.7982  138.6901  155.4140 H   0  0  0  0  0  0  0  0  0  0  0  0
  147.5409  132.9634  152.0873 H   0  0  0  0  0  0  0  0  0  0  0  0
  146.8635  132.7968  153.7166 H   0  0  0  0  0  0  0  0  0  0  0  0
  145.3437  131.0850  153.0368 H   0  0  0  0  0  0  0  0  0  0  0  0
  148.3574  130.9098  153.7073 H   0  0  0  0  0  0  0  0  0  0  0  0
  147.1454  129.7336  154.1843 H   0  0  0  0  0  0  0  0  0  0  0  0
  149.6225  129.2024  152.4373 H   0  0  0  0  0  0  0  0  0  0  0  0
  149.3834  128.6687  154.0894 H   0  0  0  0  0  0  0  0  0  0  0  0
  148.2636  128.2127  150.6933 H   0  0  0  0  0  0  0  0  0  0  0  0
  147.0881  126.9921  151.1442 H   0  0  0  0  0  0  0  0  0  0  0  0
  145.7044  128.6639  152.3373 H   0  0  0  0  0  0  0  0  0  0  0  0
  145.9670  129.1745  150.6823 H   0  0  0  0  0  0  0  0  0  0  0  0
  147.7361  130.5776  151.4472 H   0  0  0  0  0  0  0  0  0  0  0  0
  1  2  1  0  0  0  0
  1 30  1  0  0  0  0
  1 31  1  0  0  0  0
  1 32  1  0  0  0  0
  2 23  1  0  0  0  0
  2  3  1  0  0  0  0
  2 33  1  0  0  0  0
  3  4  1  0  0  0  0
  3 34  1  0  0  0  0
  3 35  1  0  0  0  0
  4  5  1  0  0  0  0
  4 22  1  0  0  0  0
  5 10  1  0  0  0  0
  5  6  2  0  0  0  0
  6  7  1  0  0  0  0
  7  8  2  0  0  0  0
  7 36  1  0  0  0  0
  8  9  1  0  0  0  0
  9 13  1  0  0  0  0
  9 10  2  0  0  0  0
 10 11  1  0  0  0  0
 11 12  2  0  0  0  0
 12 13  1  0  0  0  0
 12 37  1  0  0  0  0
 13 14  1  0  0  0  0
 14 21  1  0  0  0  0
 14 15  1  0  0  0  0
 14 38  1  0  0  0  0
 15 16  1  0  0  0  0
 15 39  1  0  0  0  0
 15 40  1  0  0  0  0
 16 17  1  0  0  0  0
 16 19  1  0  0  0  0
 16 21  1  0  0  0  0
 17 18  1  0  0  0  0
 17 41  1  0  0  0  0
 17 42  1  0  0  0  0
 18 43  1  0  0  0  0
 19 20  1  0  0  0  0
 19 44  1  0  0  0  0
 19 45  1  0  0  0  0
 20 46  1  0  0  0  0
 21 47  1  0  0  0  0
 21 48  1  0  0  0  0
 22 23  1  0  0  0  0
 22 49  1  0  0  0  0
 22 50  1  0  0  0  0
 23 24  1  0  0  0  0
 23 51  1  0  0  0  0
 24 29  1  0  0  0  0
 24 25  1  0  0  0  0
 24 60  1  0  0  0  0
 25 26  1  0  0  0  0
 25 52  1  0  0  0  0
 25 53  1  0  0  0  0
 26 27  1  0  0  0  0
 26 54  1  0  0  0  0
 26 55  1  0  0  0  0
 27 28  1  0  0  0  0
 28 29  1  0  0  0  0
 28 56  1  0  0  0  0
 28 57  1  0  0  0  0
 29 58  1  0  0  0  0
 29 59  1  0  0  0  0
M  CHG  1  24   1
M  END
> <s_m_source_file>
AV-unprocessed.smi

> <i_m_source_file_index>
149

> <i_lp_mmshare_version>
43012

> <i_f3d_flags>
0

> <s_epik_input>
W0NIMl0xW0NIMl1PW0NIMl1bQ0gyXU4xW0NAQEhdMltDSDJdTihbQ0gyXVtDQEhdMltDSDNdKWMobltjSF1uMyljKGMzNCluW2NIXW40W0NIXShbQ0gyXTUpW0NIMl1DNShbQ0gyXVtPSF0pW0NIMl1bT0hd

> <s_epik_cmdline>
J2VwaWtfcHl0aG9uJywgJy1waCcsICc3LjAnLCAnLXRuJywgJzgnLCAnLW1hJywgJzIwMCcsICctbWV0YWxfYmluZGluZycsICctaW1hZScsICc8aW5maWxlLm1hZT4nLCAnLW9tYWUnLCAnPG91dGZpbGUubWFlPic=

> <r_lp_tautomer_probability>
1

> <r_epik_Ionization_Penalty>
0.404847

> <r_epik_Ionization_Penalty_Charging>
0.404623

> <r_epik_Ionization_Penalty_Neutral>
0.000224096

> <r_epik_State_Penalty>
0.238803

> <r_epik_Charging_Adjusted_Penalty>
0.643425

> <i_epik_Tot_Q>
1

> <i_epik_Tot_abs_Q>
1

> <r_epik_Metal_State_Penalty>
0.239083

> <b_epik_Metal_Only>
0

> <s_lp_Force_Field>
OPLS_2005

> <r_lp_Energy>
71.321

> <b_lp_Chiralities_Consistent>
1

> <s_lp_Variant>
AV-unprocessed.smi:149-3

> <Gold.Version>
5.8.1

> <Gold.Id.Protein>
6NUR|6NUR_protein|mol2

> <Gold.PLP.Fitness>
51.0249

> <Gold.PLP.PLP>
-39.5173

> <Gold.PLP.part.hbond>
-3.8266

> <Gold.PLP.part.metal>
0.0000

> <Gold.PLP.part.buried>
-3.0991

> <Gold.PLP.part.nonpolar>
-32.3905

> <Gold.PLP.part.repulsive>
0.6850

> <Gold.PLP.ligand.clash>
0.0000

> <Gold.PLP.ligand.torsion>
1.1325

> <Gold.PLP.Chemscore.Hbond>
3.5263

> <Gold.PLP.Chemscore.CHOScore>
0.8356

> <Gold.PLP.Chemscore.Metal>
0.0000

> <Gold.Chemscore.Hbonds>
donor molecule, donor type, donor heavy atom, donor atom, acceptor molecule, acceptor atom, score
      L1  H    18    43       P1  7957  1.00
      L1  H    20    46       P1  8028  1.00
      L1  H    24    60       P1 10747  1.00
      P1  H  7989  7998       L1    18  0.45
      L1  C     7    36       P1 10171  0.74

> <Gold.PLP.Chemscore.Internal.Correction>
0.6868

> <Gold.Rescore>
     Score         DG    S(hbond)    S(metal)    S(lipo)     H(rot)  DE(clash)    DE(int)     intcor
     15.53     -18.16       2.97        0.00      91.26       3.09       0.28       2.35       ----

> <Gold.Chemscore.Fitness>
15.5321

> <Gold.Chemscore.DG>
-18.1563

> <Gold.Chemscore.ZeroCoef>
-5.4800

> <Gold.Chemscore.Hbond>
2.9678

> <Gold.Chemscore.Metal>
0.0000

> <Gold.Chemscore.Lipo>
91.2593

> <Gold.Chemscore.Internal_Hbond>
0.0000

> <Gold.Chemscore.DEClash>
0.2772

> <Gold.Chemscore.DEInternal>
2.3470

> <Gold.Chemscore.Rot>
3.0912

> <Gold.Chemscore.Internal.Correction>
   9.000000E+99

> <Gold.Chemscore.Hbonds>
donor molecule, donor type, donor heavy atom, donor atom, acceptor molecule, acceptor atom, score
      L1  H    18    43       P1  7957  1.00
      L1  H    20    46       P1  8028  0.81
      L1  H    24    60       P1 10747  1.00
      P1  H  7989  7998       L1    18  0.01

> <Gold.Chemscore.Hbond.Weighted>
-9.9124

> <Gold.Chemscore.Metal.Weighted>
-0.0000

> <Gold.Chemscore.Lipo.Weighted>
-10.6773

> <Gold.Chemscore.Internal_Hbond.Weighted>
0.0000

> <Gold.Chemscore.DEClash.Weighted>
0.2772

> <Gold.Chemscore.DEInternal.Weighted>
2.3470

> <Gold.Chemscore.Rot.Weighted>
7.9135

> <Gold.Chemscore.Internal.Correction.Weighted>
   9.000000E+99

> <Gold.Protein.RotatedTorsions>
[ 6907 6896 6895 6894 ] final  -53.23 input  -60.11 | X-H torsion
[ 7974 7965 7964 7962 ] final -133.48 input  175.53 | X-H torsion
[ 8008 7997 7996 7995 ] final  -94.57 input   59.86 | X-H torsion
[ 10167 10162 10161 10158 ] final -119.73 input  -65.29 | X-H torsion
[ 10718 10713 10712 10709 ] final   -0.71 input   66.30 | X-H torsion
[ 10763 10752 10751 10750 ] final   16.73 input  -60.55 | X-H torsion
[ 11005 11000 10999 10996 ] final   59.33 input  -57.11 | X-H torsion

> <Gold.Protein.ActiveResidues>
 VAL166  LYS551  ARG553  GLY616  TRP617  ASP618  TYR619  PRO620  LYS621  CYS622 
 ASP623  PHE694  ASN695  SER759  ASP760  ASP761  ALA762  ILE779  LEU786  VAL792 
 PHE793  MET794  SER795  GLU796  ALA797  LYS798  CYS799  TRP800  GLU811  SER814 

> <Gold.Protein.RotatedAtoms>
  150.8446  134.7750  159.6959 H   0  0  0  0  0  0  0  0  0  0  0  0  # atno 6907 bound_to 6896
  152.4525  134.5359  159.9834 H   0  0  0  0  0  0  0  0  0  0  0  0  # atno 6908 bound_to 6896
  151.5492  133.3382  159.2985 H   0  0  0  0  0  0  0  0  0  0  0  0  # atno 6909 bound_to 6896
  144.9189  140.6989  143.4978 H   0  0  0  0  0  0  0  0  0  0  0  0  # atno 7974 bound_to 7965
  154.7501  140.0488  157.0886 H   0  0  0  0  0  0  0  0  0  0  0  0  # atno 8008 bound_to 7997
  155.0067  140.3131  155.4826 H   0  0  0  0  0  0  0  0  0  0  0  0  # atno 8009 bound_to 7997
  156.2883  140.2191  156.5180 H   0  0  0  0  0  0  0  0  0  0  0  0  # atno 8010 bound_to 7997
  140.0435  143.5130  152.2118 H   0  0  0  0  0  0  0  0  0  0  0  0  # atno 10167 bound_to 10162
  156.8163  130.5441  149.5702 H   0  0  0  0  0  0  0  0  0  0  0  0  # atno 10718 bound_to 10713
  153.1403  135.6758  153.9037 H   0  0  0  0  0  0  0  0  0  0  0  0  # atno 10763 bound_to 10752
  153.8496  135.3095  155.3433 H   0  0  0  0  0  0  0  0  0  0  0  0  # atno 10764 bound_to 10752
  154.7782  135.4903  153.9872 H   0  0  0  0  0  0  0  0  0  0  0  0  # atno 10765 bound_to 10752
  140.0311  134.6010  155.9505 H   0  0  0  0  0  0  0  0  0  0  0  0  # atno 11005 bound_to 11000
  145.3329  139.1754  143.4527 LP  0  0  0  0  0  0  0  0  0  0  0  0  # atno 17320 bound_to 7965
  146.3195  140.3361  142.8644 LP  0  0  0  0  0  0  0  0  0  0  0  0  # atno 17321 bound_to 7965
  139.5998  144.7579  151.3198 LP  0  0  0  0  0  0  0  0  0  0  0  0  # atno 17342 bound_to 10162
  140.7249  143.7031  150.7829 LP  0  0  0  0  0  0  0  0  0  0  0  0  # atno 17343 bound_to 10162
  156.1014  130.5972  150.9901 LP  0  0  0  0  0  0  0  0  0  0  0  0  # atno 17370 bound_to 10713
  157.6480  131.0901  150.8113 LP  0  0  0  0  0  0  0  0  0  0  0  0  # atno 17371 bound_to 10713
  141.1832  133.6550  156.5105 LP  0  0  0  0  0  0  0  0  0  0  0  0  # atno 17394 bound_to 11000
  140.4223  134.7176  157.4897 LP  0  0  0  0  0  0  0  0  0  0  0  0  # atno 17395 bound_to 11000

$$$$
