AV-unprocessed.smi:3307|AV-procd|sdf|12707|dock5
  -GOLD-   2272019 43D 1   1.00000     0.00000
 Structure written by MMmdl.
 31 32  0  0  0  0  0  0  0  0  2 V2000
  153.6069  141.0223  160.9984 C   0  0  0  0  0  0  0  0  0  0  0  0
  153.0244  142.2400  160.3437 C   0  0  0  0  0  0  0  0  0  0  0  0
  152.8515  143.5403  160.8950 C   0  0  0  0  0  0  0  0  0  0  0  0
  152.2821  144.2626  159.8845 C   0  0  0  0  0  0  0  0  0  0  0  0
  151.8581  145.6940  159.8459 C   0  0  0  0  0  0  0  0  0  0  0  0
  152.1425  143.4049  158.8081 N   0  0  0  0  0  0  0  0  0  0  0  0
  151.6009  143.6723  157.4856 C   0  0  0  0  0  0  0  0  0  0  0  0
  151.2967  142.3814  156.7027 C   0  0  1  0  0  0  0  0  0  0  0  0
  150.5266  141.3101  157.4820 C   0  0  0  0  0  0  0  0  0  0  0  0
  149.8799  140.4872  156.3747 C   0  0  0  0  0  0  0  0  0  0  0  0
  149.5328  141.5346  155.3143 C   0  0  0  0  0  0  0  0  0  0  0  0
  150.4874  142.6471  155.4966 N   0  3  0  0  0  0  0  0  0  0  0  0
  152.5972  142.1660  159.0941 N   0  0  0  0  0  0  0  0  0  0  0  0
  153.8904  141.2272  162.0308 H   0  0  0  0  0  0  0  0  0  0  0  0
  154.4985  140.6815  160.4716 H   0  0  0  0  0  0  0  0  0  0  0  0
  152.8900  140.2009  161.0089 H   0  0  0  0  0  0  0  0  0  0  0  0
  153.1068  143.8896  161.8846 H   0  0  0  0  0  0  0  0  0  0  0  0
  152.0570  146.1838  160.7993 H   0  0  0  0  0  0  0  0  0  0  0  0
  150.7900  145.7782  159.6447 H   0  0  0  0  0  0  0  0  0  0  0  0
  152.3959  146.2399  159.0713 H   0  0  0  0  0  0  0  0  0  0  0  0
  150.6942  144.2699  157.5948 H   0  0  0  0  0  0  0  0  0  0  0  0
  152.3111  144.2910  156.9363 H   0  0  0  0  0  0  0  0  0  0  0  0
  152.2333  141.9400  156.3592 H   0  0  0  0  0  0  0  0  0  0  0  0
  151.1686  140.7152  158.1329 H   0  0  0  0  0  0  0  0  0  0  0  0
  149.7532  141.7700  158.0993 H   0  0  0  0  0  0  0  0  0  0  0  0
  150.6043  139.7778  155.9722 H   0  0  0  0  0  0  0  0  0  0  0  0
  149.0107  139.9240  156.7155 H   0  0  0  0  0  0  0  0  0  0  0  0
  149.5811  141.1303  154.3030 H   0  0  0  0  0  0  0  0  0  0  0  0
  148.5248  141.9176  155.4765 H   0  0  0  0  0  0  0  0  0  0  0  0
  149.9635  143.5009  155.6250 H   0  0  0  0  0  0  0  0  0  0  0  0
  151.0899  142.7368  154.6909 H   0  0  0  0  0  0  0  0  0  0  0  0
  1  2  1  0  0  0  0
  1 14  1  0  0  0  0
  1 15  1  0  0  0  0
  1 16  1  0  0  0  0
  2 13  2  0  0  0  0
  2  3  1  0  0  0  0
  3  4  2  0  0  0  0
  3 17  1  0  0  0  0
  4  5  1  0  0  0  0
  4  6  1  0  0  0  0
  5 18  1  0  0  0  0
  5 19  1  0  0  0  0
  5 20  1  0  0  0  0
  6  7  1  0  0  0  0
  6 13  1  0  0  0  0
  7  8  1  0  0  0  0
  7 21  1  0  0  0  0
  7 22  1  0  0  0  0
  8 12  1  0  0  0  0
  8  9  1  0  0  0  0
  8 23  1  0  0  0  0
  9 10  1  0  0  0  0
  9 24  1  0  0  0  0
  9 25  1  0  0  0  0
 10 11  1  0  0  0  0
 10 26  1  0  0  0  0
 10 27  1  0  0  0  0
 11 12  1  0  0  0  0
 11 28  1  0  0  0  0
 11 29  1  0  0  0  0
 12 30  1  0  0  0  0
 12 31  1  0  0  0  0
M  CHG  1  12   1
M  END
> <s_m_source_file>
AV-unprocessed.smi

> <i_m_source_file_index>
3307

> <i_lp_mmshare_version>
43012

> <i_f3d_flags>
0

> <s_epik_input>
W0NIM11jMVtjSF1jKFtDSDNdKW4objEpW0NIMl1bQ0BASF0yW0NIMl1bQ0gyXVtDSDJdW05IXTI=

> <s_epik_cmdline>
J2VwaWtfcHl0aG9uJywgJy1waCcsICc3LjAnLCAnLXRuJywgJzgnLCAnLW1hJywgJzIwMCcsICctbWV0YWxfYmluZGluZycsICctaW1hZScsICc8aW5maWxlLm1hZT4nLCAnLW9tYWUnLCAnPG91dGZpbGUubWFlPic=

> <r_lp_tautomer_probability>
1

> <r_epik_Ionization_Penalty>
0.000974324

> <r_epik_Ionization_Penalty_Charging>
0.000863359

> <r_epik_Ionization_Penalty_Neutral>
0.000110964

> <r_epik_State_Penalty>
-0

> <r_epik_Charging_Adjusted_Penalty>
0.000863359

> <i_epik_Tot_Q>
1

> <i_epik_Tot_abs_Q>
1

> <r_epik_Metal_State_Penalty>
-0

> <b_epik_Metal_Only>
0

> <s_lp_Force_Field>
OPLS_2005

> <r_lp_Energy>
22.7328

> <b_lp_Chiralities_Consistent>
1

> <s_lp_Variant>
AV-unprocessed.smi:3307-2

> <Gold.Version>
5.8.1

> <Gold.Id.Protein>
6NUR|6NUR_protein|mol2

> <Gold.PLP.Fitness>
39.1324

> <Gold.PLP.PLP>
-33.6482

> <Gold.PLP.part.hbond>
-0.8813

> <Gold.PLP.part.metal>
0.0000

> <Gold.PLP.part.buried>
-4.3963

> <Gold.PLP.part.nonpolar>
-28.7497

> <Gold.PLP.part.repulsive>
0.1701

> <Gold.PLP.ligand.clash>
0.0000

> <Gold.PLP.ligand.torsion>
0.2579

> <Gold.PLP.Chemscore.Hbond>
2.0000

> <Gold.PLP.Chemscore.CHOScore>
0.0000

> <Gold.PLP.Chemscore.Metal>
0.0000

> <Gold.Chemscore.Hbonds>
donor molecule, donor type, donor heavy atom, donor atom, acceptor molecule, acceptor atom, score
      L1  H    12    30       P1  8028  2.00

> <Gold.PLP.Chemscore.Internal.Correction>
0.0001

> <Gold.Rescore>
     Score         DG    S(hbond)    S(metal)    S(lipo)     H(rot)  DE(clash)    DE(int)     intcor
     16.02     -16.40       1.00        0.00      90.26       1.16       0.13       0.24       ----

> <Gold.Chemscore.Fitness>
16.0210

> <Gold.Chemscore.DG>
-16.3956

> <Gold.Chemscore.ZeroCoef>
-5.4800

> <Gold.Chemscore.Hbond>
0.9975

> <Gold.Chemscore.Metal>
0.0000

> <Gold.Chemscore.Lipo>
90.2616

> <Gold.Chemscore.Internal_Hbond>
0.0000

> <Gold.Chemscore.DEClash>
0.1337

> <Gold.Chemscore.DEInternal>
0.2409

> <Gold.Chemscore.Rot>
1.1628

> <Gold.Chemscore.Internal.Correction>
   9.000000E+99

> <Gold.Chemscore.Hbonds>
donor molecule, donor type, donor heavy atom, donor atom, acceptor molecule, acceptor atom, score
      L1  H    12    30       P1  8028  0.99

> <Gold.Chemscore.Hbond.Weighted>
-3.3318

> <Gold.Chemscore.Metal.Weighted>
-0.0000

> <Gold.Chemscore.Lipo.Weighted>
-10.5606

> <Gold.Chemscore.Internal_Hbond.Weighted>
0.0000

> <Gold.Chemscore.DEClash.Weighted>
0.1337

> <Gold.Chemscore.DEInternal.Weighted>
0.2409

> <Gold.Chemscore.Rot.Weighted>
2.9768

> <Gold.Chemscore.Internal.Correction.Weighted>
   9.000000E+99

> <Gold.Protein.RotatedTorsions>
[ 6907 6896 6895 6894 ] final -147.36 input  -60.11 | X-H torsion
[ 7974 7965 7964 7962 ] final    6.11 input  175.53 | X-H torsion
[ 8008 7997 7996 7995 ] final   52.85 input   59.86 | X-H torsion
[ 10167 10162 10161 10158 ] final   61.24 input  -65.29 | X-H torsion
[ 10718 10713 10712 10709 ] final  -13.42 input   66.30 | X-H torsion
[ 10763 10752 10751 10750 ] final   81.55 input  -60.55 | X-H torsion
[ 11005 11000 10999 10996 ] final    8.90 input  -57.11 | X-H torsion

> <Gold.Protein.ActiveResidues>
 VAL166  LYS551  ARG553  GLY616  TRP617  ASP618  TYR619  PRO620  LYS621  CYS622 
 ASP623  PHE694  ASN695  SER759  ASP760  ASP761  ALA762  ILE779  LEU786  VAL792 
 PHE793  MET794  SER795  GLU796  ALA797  LYS798  CYS799  TRP800  GLU811  SER814 

> <Gold.Protein.RotatedAtoms>
  151.1545  133.4885  159.2594 H   0  0  0  0  0  0  0  0  0  0  0  0  # atno 6907 bound_to 6896
  151.1519  135.0231  159.8682 H   0  0  0  0  0  0  0  0  0  0  0  0  # atno 6908 bound_to 6896
  152.5463  134.1428  159.8539 H   0  0  0  0  0  0  0  0  0  0  0  0  # atno 6909 bound_to 6896
  146.2437  140.0283  142.8392 H   0  0  0  0  0  0  0  0  0  0  0  0  # atno 7974 bound_to 7965
  155.4586  140.3461  155.4310 H   0  0  0  0  0  0  0  0  0  0  0  0  # atno 8008 bound_to 7997
  156.1175  140.1478  156.9281 H   0  0  0  0  0  0  0  0  0  0  0  0  # atno 8009 bound_to 7997
  154.4799  140.0873  156.7332 H   0  0  0  0  0  0  0  0  0  0  0  0  # atno 8010 bound_to 7997
  140.1569  144.4408  150.6729 H   0  0  0  0  0  0  0  0  0  0  0  0  # atno 10167 bound_to 10162
  156.6305  130.4900  149.6131 H   0  0  0  0  0  0  0  0  0  0  0  0  # atno 10718 bound_to 10713
  153.1126  135.4761  154.9062 H   0  0  0  0  0  0  0  0  0  0  0  0  # atno 10763 bound_to 10752
  154.7496  135.3103  154.8583 H   0  0  0  0  0  0  0  0  0  0  0  0  # atno 10764 bound_to 10752
  153.9168  135.6859  153.4802 H   0  0  0  0  0  0  0  0  0  0  0  0  # atno 10765 bound_to 10752
  140.5318  134.0459  155.7876 H   0  0  0  0  0  0  0  0  0  0  0  0  # atno 11005 bound_to 11000
  145.1178  140.9444  143.4618 LP  0  0  0  0  0  0  0  0  0  0  0  0  # atno 17320 bound_to 7965
  145.0511  139.3181  143.5928 LP  0  0  0  0  0  0  0  0  0  0  0  0  # atno 17321 bound_to 7965
  140.6667  143.2270  151.5725 LP  0  0  0  0  0  0  0  0  0  0  0  0  # atno 17342 bound_to 10162
  139.5399  144.2676  152.1329 LP  0  0  0  0  0  0  0  0  0  0  0  0  # atno 17343 bound_to 10162
  156.2238  130.6753  151.1395 LP  0  0  0  0  0  0  0  0  0  0  0  0  # atno 17370 bound_to 10713
  157.7201  131.0686  150.6170 LP  0  0  0  0  0  0  0  0  0  0  0  0  # atno 17371 bound_to 10713
  141.1277  133.9355  157.2601 LP  0  0  0  0  0  0  0  0  0  0  0  0  # atno 17394 bound_to 11000
  139.9550  135.0167  156.9102 LP  0  0  0  0  0  0  0  0  0  0  0  0  # atno 17395 bound_to 11000

$$$$
