AV-unprocessed.smi:1423|AV-procd|sdf|5794|dock5
  -GOLD-   22720 5443D 1   1.00000     0.00000
 Structure written by MMmdl.
 43 44  0  0  0  0  0  0  0  0  1 V2000
  150.6452  142.7879  157.5198 C   0  0  0  0  0  0  0  0  0  0  0  0
  149.4541  142.0665  157.8156 O   0  0  0  0  0  0  0  0  0  0  0  0
  148.9309  141.2393  156.8430 C   0  0  0  0  0  0  0  0  0  0  0  0
  147.7587  140.5135  157.1326 C   0  0  0  0  0  0  0  0  0  0  0  0
  147.2176  139.6673  156.1453 C   0  0  0  0  0  0  0  0  0  0  0  0
  147.8683  139.5752  154.8906 C   0  0  0  0  0  0  0  0  0  0  0  0
  147.4369  138.7687  153.8005 N   0  0  0  0  0  0  0  0  0  0  0  0
  146.4092  137.9052  153.7249 C   0  0  0  0  0  0  0  0  0  0  0  0
  145.6488  137.6101  154.6459 O   0  0  0  0  0  0  0  0  0  0  0  0
  146.3081  137.3884  152.4920 N   0  0  0  0  0  0  0  0  0  0  0  0
  145.2909  136.4356  152.0584 C   0  0  0  0  0  0  0  0  0  0  0  0
  145.4269  135.1023  152.8104 C   0  0  0  0  0  0  0  0  0  0  0  0
  144.4384  134.0580  152.2630 C   0  0  0  0  0  0  0  0  0  0  0  0
  144.6509  133.8392  150.8280 N   0  0  0  0  0  0  0  0  0  0  0  0
  143.7627  132.7465  150.3685 C   0  0  0  0  0  0  0  0  0  0  0  0
  143.8116  132.4725  148.8600 C   0  0  0  0  0  0  0  0  0  0  0  0
  142.7147  132.7556  148.1532 N   0  0  0  0  0  0  0  0  0  0  0  0
  144.8273  132.0151  148.3404 O   0  0  0  0  0  0  0  0  0  0  0  0
  144.4389  135.0898  150.0842 C   0  0  0  0  0  0  0  0  0  0  0  0
  145.4279  136.1719  150.5528 C   0  0  0  0  0  0  0  0  0  0  0  0
  149.0374  140.3420  154.7045 C   0  0  0  0  0  0  0  0  0  0  0  0
  149.5618  141.1536  155.6463 N   0  0  0  0  0  0  0  0  0  0  0  0
  150.9261  143.3907  158.3831 H   0  0  0  0  0  0  0  0  0  0  0  0
  150.5038  143.4651  156.6763 H   0  0  0  0  0  0  0  0  0  0  0  0
  151.4751  142.1138  157.3027 H   0  0  0  0  0  0  0  0  0  0  0  0
  147.2819  140.6035  158.0974 H   0  0  0  0  0  0  0  0  0  0  0  0
  146.3224  139.1153  156.3805 H   0  0  0  0  0  0  0  0  0  0  0  0
  147.9666  138.8888  152.9495 H   0  0  0  0  0  0  0  0  0  0  0  0
  146.9776  137.6835  151.7966 H   0  0  0  0  0  0  0  0  0  0  0  0
  144.2994  136.8530  152.2449 H   0  0  0  0  0  0  0  0  0  0  0  0
  146.4455  134.7220  152.7177 H   0  0  0  0  0  0  0  0  0  0  0  0
  145.2487  135.2516  153.8760 H   0  0  0  0  0  0  0  0  0  0  0  0
  144.5819  133.1219  152.8041 H   0  0  0  0  0  0  0  0  0  0  0  0
  143.4117  134.3780  152.4504 H   0  0  0  0  0  0  0  0  0  0  0  0
  144.0451  131.8182  150.8674 H   0  0  0  0  0  0  0  0  0  0  0  0
  142.7350  132.9587  150.6707 H   0  0  0  0  0  0  0  0  0  0  0  0
  142.6999  132.5936  147.1570 H   0  0  0  0  0  0  0  0  0  0  0  0
  141.9025  133.1331  148.6198 H   0  0  0  0  0  0  0  0  0  0  0  0
  144.5892  134.9382  149.0154 H   0  0  0  0  0  0  0  0  0  0  0  0
  143.4112  135.4344  150.2128 H   0  0  0  0  0  0  0  0  0  0  0  0
  145.2554  137.0938  149.9959 H   0  0  0  0  0  0  0  0  0  0  0  0
  146.4459  135.8555  150.3189 H   0  0  0  0  0  0  0  0  0  0  0  0
  149.5716  140.3062  153.7661 H   0  0  0  0  0  0  0  0  0  0  0  0
  1  2  1  0  0  0  0
  1 23  1  0  0  0  0
  1 24  1  0  0  0  0
  1 25  1  0  0  0  0
  2  3  1  0  0  0  0
  3 22  1  0  0  0  0
  3  4  2  0  0  0  0
  4  5  1  0  0  0  0
  4 26  1  0  0  0  0
  5  6  2  0  0  0  0
  5 27  1  0  0  0  0
  6  7  1  0  0  0  0
  6 21  1  0  0  0  0
  7  8  1  0  0  0  0
  7 28  1  0  0  0  0
  8  9  2  0  0  0  0
  8 10  1  0  0  0  0
 10 11  1  0  0  0  0
 10 29  1  0  0  0  0
 11 20  1  0  0  0  0
 11 12  1  0  0  0  0
 11 30  1  0  0  0  0
 12 13  1  0  0  0  0
 12 31  1  0  0  0  0
 12 32  1  0  0  0  0
 13 14  1  0  0  0  0
 13 33  1  0  0  0  0
 13 34  1  0  0  0  0
 14 15  1  0  0  0  0
 14 19  1  0  0  0  0
 15 16  1  0  0  0  0
 15 35  1  0  0  0  0
 15 36  1  0  0  0  0
 16 17  1  0  0  0  0
 16 18  2  0  0  0  0
 17 37  1  0  0  0  0
 17 38  1  0  0  0  0
 19 20  1  0  0  0  0
 19 39  1  0  0  0  0
 19 40  1  0  0  0  0
 20 41  1  0  0  0  0
 20 42  1  0  0  0  0
 21 22  2  0  0  0  0
 21 43  1  0  0  0  0
M  END
> <s_m_source_file>
AV-unprocessed.smi

> <i_m_source_file_index>
1423

> <i_lp_mmshare_version>
43012

> <i_f3d_flags>
0

> <s_epik_input>
W0NIM11PYzFbY0hdW2NIXWMoW2NIXW4xKVtOSF1DKD1PKVtOSF1bQ0hdMltDSDJdW0NIMl1OKFtDSDJdW0NIMl0yKVtDSDJdQyg9TylbTkgyXQ==

> <s_epik_cmdline>
J2VwaWtfcHl0aG9uJywgJy1waCcsICc3LjAnLCAnLXRuJywgJzgnLCAnLW1hJywgJzIwMCcsICctbWV0YWxfYmluZGluZycsICctaW1hZScsICc8aW5maWxlLm1hZT4nLCAnLW9tYWUnLCAnPG91dGZpbGUubWFlPic=

> <r_lp_tautomer_probability>
1

> <r_epik_Ionization_Penalty>
0.16483

> <r_epik_Ionization_Penalty_Charging>
0

> <r_epik_Ionization_Penalty_Neutral>
0.16483

> <r_epik_State_Penalty>
0.154069

> <r_epik_Charging_Adjusted_Penalty>
0.154069

> <i_epik_Tot_Q>
0

> <i_epik_Tot_abs_Q>
0

> <r_epik_Metal_State_Penalty>
0.171364

> <b_epik_Metal_Only>
0

> <s_lp_Force_Field>
OPLS_2005

> <r_lp_Energy>
14.563

> <b_lp_Chiralities_Consistent>
1

> <s_lp_Variant>
AV-unprocessed.smi:1423-1

> <Gold.Version>
5.8.1

> <Gold.Id.Protein>
6NUR|6NUR_protein|mol2

> <Gold.PLP.Fitness>
42.7272

> <Gold.PLP.PLP>
-32.5583

> <Gold.PLP.part.hbond>
-5.8404

> <Gold.PLP.part.metal>
0.0000

> <Gold.PLP.part.buried>
-2.5992

> <Gold.PLP.part.nonpolar>
-24.2761

> <Gold.PLP.part.repulsive>
1.5134

> <Gold.PLP.ligand.clash>
0.0000

> <Gold.PLP.ligand.torsion>
0.0922

> <Gold.PLP.Chemscore.Hbond>
2.4484

> <Gold.PLP.Chemscore.CHOScore>
1.0000

> <Gold.PLP.Chemscore.Metal>
0.0000

> <Gold.Chemscore.Hbonds>
donor molecule, donor type, donor heavy atom, donor atom, acceptor molecule, acceptor atom, score
      L1  H    17    37       P1 10195  0.82
      L1  H    17    38       P1 10186  1.00
      L1  C    21    43       P1  7957  0.78

> <Gold.PLP.Chemscore.Internal.Correction>
0.0079

> <Gold.Rescore>
     Score         DG    S(hbond)    S(metal)    S(lipo)     H(rot)  DE(clash)    DE(int)     intcor
     11.98     -14.46       2.25        0.00      62.71       2.29       0.72       1.76       ----

> <Gold.Chemscore.Fitness>
11.9831

> <Gold.Chemscore.DG>
-14.4643

> <Gold.Chemscore.ZeroCoef>
-5.4800

> <Gold.Chemscore.Hbond>
2.2521

> <Gold.Chemscore.Metal>
0.0000

> <Gold.Chemscore.Lipo>
62.7127

> <Gold.Chemscore.Internal_Hbond>
0.0000

> <Gold.Chemscore.DEClash>
0.7208

> <Gold.Chemscore.DEInternal>
1.7604

> <Gold.Chemscore.Rot>
2.2949

> <Gold.Chemscore.Internal.Correction>
   9.000000E+99

> <Gold.Chemscore.Hbonds>
donor molecule, donor type, donor heavy atom, donor atom, acceptor molecule, acceptor atom, score
      L1  H    10    29       P1  7948  0.02
      L1  H    17    37       P1 10195  0.81
      L1  H    17    38       P1 10186  0.98

> <Gold.Chemscore.Hbond.Weighted>
-7.5220

> <Gold.Chemscore.Metal.Weighted>
-0.0000

> <Gold.Chemscore.Lipo.Weighted>
-7.3374

> <Gold.Chemscore.Internal_Hbond.Weighted>
0.0000

> <Gold.Chemscore.DEClash.Weighted>
0.7208

> <Gold.Chemscore.DEInternal.Weighted>
1.7604

> <Gold.Chemscore.Rot.Weighted>
5.8750

> <Gold.Chemscore.Internal.Correction.Weighted>
   9.000000E+99

> <Gold.Protein.RotatedTorsions>
[ 6907 6896 6895 6894 ] final  133.09 input  -60.11 | X-H torsion
[ 7974 7965 7964 7962 ] final  154.49 input  175.53 | X-H torsion
[ 8008 7997 7996 7995 ] final  -97.14 input   59.86 | X-H torsion
[ 10167 10162 10161 10158 ] final  -43.48 input  -65.29 | X-H torsion
[ 10718 10713 10712 10709 ] final  176.48 input   66.30 | X-H torsion
[ 10763 10752 10751 10750 ] final   33.51 input  -60.55 | X-H torsion
[ 11005 11000 10999 10996 ] final  147.90 input  -57.11 | X-H torsion

> <Gold.Protein.ActiveResidues>
 VAL166  LYS551  ARG553  GLY616  TRP617  ASP618  TYR619  PRO620  LYS621  CYS622 
 ASP623  PHE694  ASN695  SER759  ASP760  ASP761  ALA762  ILE779  LEU786  VAL792 
 PHE793  MET794  SER795  GLU796  ALA797  LYS798  CYS799  TRP800  GLU811  SER814 

> <Gold.Protein.RotatedAtoms>
  152.3256  133.5901  159.5773 H   0  0  0  0  0  0  0  0  0  0  0  0  # atno 6907 bound_to 6896
  150.7395  133.9945  159.3627 H   0  0  0  0  0  0  0  0  0  0  0  0  # atno 6908 bound_to 6896
  151.7826  135.0758  160.0427 H   0  0  0  0  0  0  0  0  0  0  0  0  # atno 6909 bound_to 6896
  144.8085  139.6941  143.6152 H   0  0  0  0  0  0  0  0  0  0  0  0  # atno 7974 bound_to 7965
  154.7837  140.0465  157.1147 H   0  0  0  0  0  0  0  0  0  0  0  0  # atno 8008 bound_to 7997
  154.9674  140.3085  155.4984 H   0  0  0  0  0  0  0  0  0  0  0  0  # atno 8009 bound_to 7997
  156.2940  140.2259  156.4764 H   0  0  0  0  0  0  0  0  0  0  0  0  # atno 8010 bound_to 7997
  140.6932  143.2980  151.3358 H   0  0  0  0  0  0  0  0  0  0  0  0  # atno 10167 bound_to 10162
  156.9195  130.9936  151.3007 H   0  0  0  0  0  0  0  0  0  0  0  0  # atno 10718 bound_to 10713
  153.0208  135.6385  154.1523 H   0  0  0  0  0  0  0  0  0  0  0  0  # atno 10763 bound_to 10752
  154.1258  135.2843  155.3199 H   0  0  0  0  0  0  0  0  0  0  0  0  # atno 10764 bound_to 10752
  154.6231  135.5518  153.7659 H   0  0  0  0  0  0  0  0  0  0  0  0  # atno 10765 bound_to 10752
  140.0914  134.9038  157.1657 H   0  0  0  0  0  0  0  0  0  0  0  0  # atno 11005 bound_to 11000
  146.2380  139.5944  142.9510 LP  0  0  0  0  0  0  0  0  0  0  0  0  # atno 17320 bound_to 7965
  145.5380  141.0423  143.2346 LP  0  0  0  0  0  0  0  0  0  0  0  0  # atno 17321 bound_to 7965
  139.6357  144.0634  152.2514 LP  0  0  0  0  0  0  0  0  0  0  0  0  # atno 17342 bound_to 10162
  140.0124  144.6214  150.7636 LP  0  0  0  0  0  0  0  0  0  0  0  0  # atno 17343 bound_to 10162
  157.5916  130.8448  149.8668 LP  0  0  0  0  0  0  0  0  0  0  0  0  # atno 17370 bound_to 10713
  156.0497  130.3720  150.1230 LP  0  0  0  0  0  0  0  0  0  0  0  0  # atno 17371 bound_to 10713
  140.3347  134.2771  155.7222 LP  0  0  0  0  0  0  0  0  0  0  0  0  # atno 17394 bound_to 11000
  141.2079  133.7793  157.0091 LP  0  0  0  0  0  0  0  0  0  0  0  0  # atno 17395 bound_to 11000

$$$$
