AV-unprocessed.smi:2329|AV-procd|sdf|9302|dock1
  -GOLD-   2272012523D 1   1.00000     0.00000
 Structure written by MMmdl.
 45 48  0  0  0  0  0  0  0  0  1 V2000
  151.5602  145.6458  160.0301 C   0  0  0  0  0  0  0  0  0  0  0  0
  152.0598  144.2439  160.3082 C   0  0  0  0  0  0  0  0  0  0  0  0
  152.5873  143.8979  161.5680 C   0  0  0  0  0  0  0  0  0  0  0  0
  153.0344  142.5783  161.7598 C   0  0  0  0  0  0  0  0  0  0  0  0
  152.9366  141.6658  160.6919 C   0  0  0  0  0  0  0  0  0  0  0  0
  152.3953  142.0946  159.4593 C   0  0  0  0  0  0  0  0  0  0  0  0
  152.3353  141.0976  158.4517 N   0  0  0  0  0  0  0  0  0  0  0  0
  151.6470  141.1168  157.2937 C   0  0  0  0  0  0  0  0  0  0  0  0
  151.0135  142.0812  156.8688 O   0  0  0  0  0  0  0  0  0  0  0  0
  151.7068  139.9641  156.6046 N   0  0  0  0  0  0  0  0  0  0  0  0
  151.0767  139.6548  155.3201 C   0  0  2  0  0  0  0  0  0  0  0  0
  149.7176  140.3396  155.1725 C   0  0  1  0  0  0  0  0  0  0  0  0
  149.1913  141.4324  154.3121 C   0  0  0  0  0  0  0  0  0  0  0  0
  147.8755  140.7406  153.8672 C   0  0  0  0  0  0  0  0  0  0  0  0
  147.9867  139.3622  154.2972 O   0  0  0  0  0  0  0  0  0  0  0  0
  149.3799  139.1279  154.3297 C   0  0  2  0  0  0  0  0  0  0  0  0
  150.2530  138.3076  155.2999 C   0  0  0  0  0  0  0  0  0  0  0  0
  150.9439  137.0714  154.7113 C   0  0  0  0  0  0  0  0  0  0  0  0
  151.0176  135.9791  155.7857 C   0  0  0  0  0  0  0  0  0  0  0  0
  150.4811  136.6093  157.0669 C   0  0  0  0  0  0  0  0  0  0  0  0
  149.6133  137.7710  156.5921 C   0  0  0  0  0  0  0  0  0  0  0  0
  151.9666  143.3692  159.2838 N   0  0  0  0  0  0  0  0  0  0  0  0
  151.5830  146.2603  160.9304 H   0  0  0  0  0  0  0  0  0  0  0  0
  150.5336  145.6181  159.6638 H   0  0  0  0  0  0  0  0  0  0  0  0
  152.1825  146.1249  159.2739 H   0  0  0  0  0  0  0  0  0  0  0  0
  152.6487  144.6216  162.3673 H   0  0  0  0  0  0  0  0  0  0  0  0
  153.4452  142.2704  162.7099 H   0  0  0  0  0  0  0  0  0  0  0  0
  153.2736  140.6478  160.8231 H   0  0  0  0  0  0  0  0  0  0  0  0
  152.8329  140.2439  158.6568 H   0  0  0  0  0  0  0  0  0  0  0  0
  152.2605  139.2243  157.0120 H   0  0  0  0  0  0  0  0  0  0  0  0
  151.7267  139.8042  154.4529 H   0  0  0  0  0  0  0  0  0  0  0  0
  149.1874  140.3438  156.1296 H   0  0  0  0  0  0  0  0  0  0  0  0
  149.0142  142.3570  154.8619 H   0  0  0  0  0  0  0  0  0  0  0  0
  149.8506  141.6393  153.4679 H   0  0  0  0  0  0  0  0  0  0  0  0
  146.9988  141.1964  154.3282 H   0  0  0  0  0  0  0  0  0  0  0  0
  147.7553  140.7938  152.7844 H   0  0  0  0  0  0  0  0  0  0  0  0
  149.8021  139.1563  153.3185 H   0  0  0  0  0  0  0  0  0  0  0  0
  150.3932  136.6954  153.8482 H   0  0  0  0  0  0  0  0  0  0  0  0
  151.9425  137.3135  154.3487 H   0  0  0  0  0  0  0  0  0  0  0  0
  150.3894  135.1365  155.4953 H   0  0  0  0  0  0  0  0  0  0  0  0
  152.0319  135.6013  155.9180 H   0  0  0  0  0  0  0  0  0  0  0  0
  149.9312  135.9001  157.6859 H   0  0  0  0  0  0  0  0  0  0  0  0
  151.3116  136.9904  157.6618 H   0  0  0  0  0  0  0  0  0  0  0  0
  149.5157  138.5198  157.3779 H   0  0  0  0  0  0  0  0  0  0  0  0
  148.6070  137.4067  156.3811 H   0  0  0  0  0  0  0  0  0  0  0  0
  1  2  1  0  0  0  0
  1 23  1  0  0  0  0
  1 24  1  0  0  0  0
  1 25  1  0  0  0  0
  2 22  1  0  0  0  0
  2  3  2  0  0  0  0
  3  4  1  0  0  0  0
  3 26  1  0  0  0  0
  4  5  2  0  0  0  0
  4 27  1  0  0  0  0
  5  6  1  0  0  0  0
  5 28  1  0  0  0  0
  6  7  1  0  0  0  0
  6 22  2  0  0  0  0
  7  8  1  0  0  0  0
  7 29  1  0  0  0  0
  8  9  2  0  0  0  0
  8 10  1  0  0  0  0
 10 11  1  0  0  0  0
 10 30  1  0  0  0  0
 11 17  1  0  0  0  0
 11 12  1  0  0  0  0
 11 31  1  0  0  0  0
 12 16  1  0  0  0  0
 12 13  1  0  0  0  0
 12 32  1  0  0  0  0
 13 14  1  0  0  0  0
 13 33  1  0  0  0  0
 13 34  1  0  0  0  0
 14 15  1  0  0  0  0
 14 35  1  0  0  0  0
 14 36  1  0  0  0  0
 15 16  1  0  0  0  0
 16 17  1  0  0  0  0
 16 37  1  0  0  0  0
 17 21  1  0  0  0  0
 17 18  1  0  0  0  0
 18 19  1  0  0  0  0
 18 38  1  0  0  0  0
 18 39  1  0  0  0  0
 19 20  1  0  0  0  0
 19 40  1  0  0  0  0
 19 41  1  0  0  0  0
 20 21  1  0  0  0  0
 20 42  1  0  0  0  0
 20 43  1  0  0  0  0
 21 44  1  0  0  0  0
 21 45  1  0  0  0  0
M  END
> <s_m_source_file>
AV-unprocessed.smi

> <i_m_source_file_index>
2329

> <i_lp_mmshare_version>
43012

> <i_f3d_flags>
0

> <s_epik_input>
W0NIM11jMVtjSF1bY0hdW2NIXWMobjEpW05IXUMoPU8pW05IXVtDQEBIXTJbQ0BASF0oW0NIMl1bQ0gyXU8zKVtDQEhdM0MyNFtDSDJdW0NIMl1bQ0gyXVtDSDJdNA==

> <s_epik_cmdline>
J2VwaWtfcHl0aG9uJywgJy1waCcsICc3LjAnLCAnLXRuJywgJzgnLCAnLW1hJywgJzIwMCcsICctbWV0YWxfYmluZGluZycsICctaW1hZScsICc8aW5maWxlLm1hZT4nLCAnLW9tYWUnLCAnPG91dGZpbGUubWFlPic=

> <r_lp_tautomer_probability>
1

> <r_epik_Ionization_Penalty>
8.97002e-05

> <r_epik_Ionization_Penalty_Charging>
0

> <r_epik_Ionization_Penalty_Neutral>
8.97002e-05

> <r_epik_State_Penalty>
-0

> <r_epik_Charging_Adjusted_Penalty>
0

> <i_epik_Tot_Q>
0

> <i_epik_Tot_abs_Q>
0

> <r_epik_Metal_State_Penalty>
-0

> <b_epik_Metal_Only>
0

> <s_lp_Force_Field>
OPLS_2005

> <r_lp_Energy>
86.3971

> <b_lp_Chiralities_Consistent>
1

> <s_lp_Variant>
AV-unprocessed.smi:2329-1

> <Gold.Version>
5.8.1

> <Gold.Id.Protein>
6NUR|6NUR_protein|mol2

> <Gold.PLP.Fitness>
43.4036

> <Gold.PLP.PLP>
-43.6563

> <Gold.PLP.part.hbond>
0.0000

> <Gold.PLP.part.metal>
0.0000

> <Gold.PLP.part.buried>
-4.7277

> <Gold.PLP.part.nonpolar>
-39.1063

> <Gold.PLP.part.repulsive>
0.4226

> <Gold.PLP.ligand.clash>
0.0000

> <Gold.PLP.ligand.torsion>
0.2662

> <Gold.PLP.Chemscore.Hbond>
0.0000

> <Gold.PLP.Chemscore.CHOScore>
0.0000

> <Gold.PLP.Chemscore.Metal>
0.0000

> <Gold.PLP.Chemscore.Internal.Correction>
0.2797

> <Gold.Rescore>
     Score         DG    S(hbond)    S(metal)    S(lipo)     H(rot)  DE(clash)    DE(int)     intcor
     13.38     -16.41       0.00        0.00     115.28       1.00       0.12       2.91       ----

> <Gold.Chemscore.Fitness>
13.3781

> <Gold.Chemscore.DG>
-16.4082

> <Gold.Chemscore.ZeroCoef>
-5.4800

> <Gold.Chemscore.Hbond>
0.0000

> <Gold.Chemscore.Metal>
0.0000

> <Gold.Chemscore.Lipo>
115.2837

> <Gold.Chemscore.Internal_Hbond>
0.0000

> <Gold.Chemscore.DEClash>
0.1240

> <Gold.Chemscore.DEInternal>
2.9060

> <Gold.Chemscore.Rot>
1.0000

> <Gold.Chemscore.Internal.Correction>
   9.000000E+99

> <Gold.Chemscore.Hbond.Weighted>
-0.0000

> <Gold.Chemscore.Metal.Weighted>
-0.0000

> <Gold.Chemscore.Lipo.Weighted>
-13.4882

> <Gold.Chemscore.Internal_Hbond.Weighted>
0.0000

> <Gold.Chemscore.DEClash.Weighted>
0.1240

> <Gold.Chemscore.DEInternal.Weighted>
2.9060

> <Gold.Chemscore.Rot.Weighted>
2.5600

> <Gold.Chemscore.Internal.Correction.Weighted>
   9.000000E+99

> <Gold.Protein.RotatedTorsions>
[ 6907 6896 6895 6894 ] final  140.56 input  -60.11 | X-H torsion
[ 7974 7965 7964 7962 ] final   86.29 input  175.53 | X-H torsion
[ 8008 7997 7996 7995 ] final -124.50 input   59.86 | X-H torsion
[ 10167 10162 10161 10158 ] final  155.40 input  -65.29 | X-H torsion
[ 10718 10713 10712 10709 ] final   -1.54 input   66.30 | X-H torsion
[ 10763 10752 10751 10750 ] final  160.01 input  -60.55 | X-H torsion
[ 11005 11000 10999 10996 ] final -127.61 input  -57.11 | X-H torsion

> <Gold.Protein.ActiveResidues>
 VAL166  LYS551  ARG553  GLY616  TRP617  ASP618  TYR619  PRO620  LYS621  CYS622 
 ASP623  PHE694  ASN695  SER759  ASP760  ASP761  ALA762  ILE779  LEU786  VAL792 
 PHE793  MET794  SER795  GLU796  ALA797  LYS798  CYS799  TRP800  GLU811  SER814 

> <Gold.Protein.RotatedAtoms>
  152.2415  133.5140  159.5272 H   0  0  0  0  0  0  0  0  0  0  0  0  # atno 6907 bound_to 6896
  150.7066  134.1082  159.3999 H   0  0  0  0  0  0  0  0  0  0  0  0  # atno 6908 bound_to 6896
  151.9003  135.0381  160.0556 H   0  0  0  0  0  0  0  0  0  0  0  0  # atno 6909 bound_to 6896
  145.5742  139.2317  143.2389 H   0  0  0  0  0  0  0  0  0  0  0  0  # atno 7974 bound_to 7965
  155.1979  140.0415  157.2912 H   0  0  0  0  0  0  0  0  0  0  0  0  # atno 8008 bound_to 7997
  154.6094  140.2473  155.7660 H   0  0  0  0  0  0  0  0  0  0  0  0  # atno 8009 bound_to 7997
  156.2370  140.2918  156.0349 H   0  0  0  0  0  0  0  0  0  0  0  0  # atno 8010 bound_to 7997
  139.4821  144.5102  151.8037 H   0  0  0  0  0  0  0  0  0  0  0  0  # atno 10167 bound_to 10162
  156.8041  130.5403  149.5717 H   0  0  0  0  0  0  0  0  0  0  0  0  # atno 10718 bound_to 10713
  154.2407  135.2775  155.2855 H   0  0  0  0  0  0  0  0  0  0  0  0  # atno 10763 bound_to 10752
  154.5547  135.5664  153.6957 H   0  0  0  0  0  0  0  0  0  0  0  0  # atno 10764 bound_to 10752
  153.0000  135.6283  154.2551 H   0  0  0  0  0  0  0  0  0  0  0  0  # atno 10765 bound_to 10752
  140.9585  134.0968  157.3992 H   0  0  0  0  0  0  0  0  0  0  0  0  # atno 11005 bound_to 11000
  146.1763  140.6568  142.9210 LP  0  0  0  0  0  0  0  0  0  0  0  0  # atno 17320 bound_to 7965
  144.7424  140.4977  143.6860 LP  0  0  0  0  0  0  0  0  0  0  0  0  # atno 17321 bound_to 7965
  140.4604  144.1730  150.5906 LP  0  0  0  0  0  0  0  0  0  0  0  0  # atno 17342 bound_to 10162
  140.4491  143.2494  151.9372 LP  0  0  0  0  0  0  0  0  0  0  0  0  # atno 17343 bound_to 10162
  156.1083  130.6021  151.0007 LP  0  0  0  0  0  0  0  0  0  0  0  0  # atno 17370 bound_to 10713
  157.6539  131.0892  150.7991 LP  0  0  0  0  0  0  0  0  0  0  0  0  # atno 17371 bound_to 10713
  139.8870  135.0086  156.6534 LP  0  0  0  0  0  0  0  0  0  0  0  0  # atno 17394 bound_to 11000
  140.7501  133.8904  155.8341 LP  0  0  0  0  0  0  0  0  0  0  0  0  # atno 17395 bound_to 11000

$$$$
