AV-unprocessed.smi:261|AV-procd|sdf|1992|dock8
  -GOLD-   2262021183D 1   1.00000     0.00000
 Structure written by MMmdl.
 51 54  0  0  0  0  0  0  0  0  1 V2000
  150.5318  130.4302  156.0571 C   0  0  0  0  0  0  0  0  0  0  0  0
  150.9970  131.6859  156.5239 O   0  0  0  0  0  0  0  0  0  0  0  0
  150.0879  132.7502  156.2845 C   0  0  2  0  0  0  0  0  0  0  0  0
  149.8930  133.0577  154.7990 C   0  0  0  0  0  0  0  0  0  0  0  0
  149.4674  134.5373  154.7640 C   0  0  1  0  0  0  0  0  0  0  0  0
  147.9399  134.6968  154.7071 C   0  0  0  0  0  0  0  0  0  0  0  0
  147.4395  135.3243  153.6403 N   0  0  0  0  0  0  0  0  0  0  0  0
  147.2178  134.2498  155.5972 O   0  0  0  0  0  0  0  0  0  0  0  0
  149.9929  135.1018  156.0105 N   0  0  0  0  0  0  0  0  0  0  0  0
  150.6492  136.2796  155.9360 C   0  0  0  0  0  0  0  0  0  0  0  0
  151.3067  136.6226  154.7972 N   0  0  0  0  0  0  0  0  0  0  0  0
  151.9657  137.7839  154.7340 C   0  0  0  0  0  0  0  0  0  0  0  0
  152.0931  138.7244  155.6734 N   0  0  0  0  0  0  0  0  0  0  0  0
  151.4339  138.3770  156.8162 C   0  0  0  0  0  0  0  0  0  0  0  0
  150.6933  137.1817  157.0295 C   0  0  0  0  0  0  0  0  0  0  0  0
  150.1583  137.1710  158.3108 N   0  0  0  0  0  0  0  0  0  0  0  0
  150.5570  138.3015  158.8269 C   0  0  0  0  0  0  0  0  0  0  0  0
  151.3370  139.0826  158.0023 N   0  0  0  0  0  0  0  0  0  0  0  0
  151.9192  140.3758  158.3247 C   0  0  0  0  0  0  0  0  0  0  0  0
  150.9891  141.5706  158.0164 C   0  0  2  0  0  0  0  0  0  0  0  0
  151.2091  141.9928  156.6851 O   0  0  0  0  0  0  0  0  0  0  0  0
  151.1886  142.7797  158.9533 C   0  0  1  0  0  0  0  0  0  0  0  0
  152.5397  143.4825  158.8094 C   0  0  0  0  0  0  0  0  0  0  0  0
  152.2551  144.9090  159.2574 C   0  0  0  0  0  0  0  0  0  0  0  0
  150.7270  144.9912  159.2965 C   0  0  0  0  0  0  0  0  0  0  0  0
  150.2817  143.8211  158.6274 O   0  0  0  0  0  0  0  0  0  0  0  0
  150.6526  134.0703  156.8000 C   0  0  0  0  0  0  0  0  0  0  0  0
  149.1251  132.5595  156.7626 H   0  0  0  0  0  0  0  0  0  0  0  0
  149.8968  135.0181  153.8829 H   0  0  0  0  0  0  0  0  0  0  0  0
  151.2683  129.6608  156.2882 H   0  0  0  0  0  0  0  0  0  0  0  0
  150.3813  130.4329  154.9771 H   0  0  0  0  0  0  0  0  0  0  0  0
  149.5943  130.1534  156.5410 H   0  0  0  0  0  0  0  0  0  0  0  0
  150.8433  132.9462  154.2749 H   0  0  0  0  0  0  0  0  0  0  0  0
  149.1780  132.3866  154.3214 H   0  0  0  0  0  0  0  0  0  0  0  0
  146.4423  135.4558  153.5527 H   0  0  0  0  0  0  0  0  0  0  0  0
  148.0632  135.6654  152.9232 H   0  0  0  0  0  0  0  0  0  0  0  0
  152.4633  137.9881  153.7973 H   0  0  0  0  0  0  0  0  0  0  0  0
  150.3005  138.5946  159.8348 H   0  0  0  0  0  0  0  0  0  0  0  0
  152.2044  140.3778  159.3777 H   0  0  0  0  0  0  0  0  0  0  0  0
  152.8468  140.4771  157.7602 H   0  0  0  0  0  0  0  0  0  0  0  0
  149.9564  141.2275  158.0863 H   0  0  0  0  0  0  0  0  0  0  0  0
  151.9031  142.6349  156.6854 H   0  0  0  0  0  0  0  0  0  0  0  0
  151.0360  142.4945  159.9961 H   0  0  0  0  0  0  0  0  0  0  0  0
  153.3243  143.0033  159.3958 H   0  0  0  0  0  0  0  0  0  0  0  0
  152.8568  143.4861  157.7655 H   0  0  0  0  0  0  0  0  0  0  0  0
  152.6779  145.1156  160.2412 H   0  0  0  0  0  0  0  0  0  0  0  0
  152.6770  145.6264  158.5526 H   0  0  0  0  0  0  0  0  0  0  0  0
  150.3678  144.9724  160.3267 H   0  0  0  0  0  0  0  0  0  0  0  0
  150.3413  145.8914  158.8178 H   0  0  0  0  0  0  0  0  0  0  0  0
  150.4551  134.2027  157.8642 H   0  0  0  0  0  0  0  0  0  0  0  0
  151.7337  134.1050  156.6518 H   0  0  0  0  0  0  0  0  0  0  0  0
  1  2  1  0  0  0  0
  1 30  1  0  0  0  0
  1 31  1  0  0  0  0
  1 32  1  0  0  0  0
  2  3  1  0  0  0  0
  3 28  1  0  0  0  0
  3 27  1  0  0  0  0
  3  4  1  0  0  0  0
  4  5  1  0  0  0  0
  4 33  1  0  0  0  0
  4 34  1  0  0  0  0
  5 29  1  0  0  0  0
  5  6  1  0  0  0  0
  5  9  1  0  0  0  0
  6  7  1  0  0  0  0
  6  8  2  0  0  0  0
  7 35  1  0  0  0  0
  7 36  1  0  0  0  0
  9 10  1  0  0  0  0
  9 27  1  0  0  0  0
 10 15  1  0  0  0  0
 10 11  2  0  0  0  0
 11 12  1  0  0  0  0
 12 13  2  0  0  0  0
 12 37  1  0  0  0  0
 13 14  1  0  0  0  0
 14 18  1  0  0  0  0
 14 15  2  0  0  0  0
 15 16  1  0  0  0  0
 16 17  2  0  0  0  0
 17 18  1  0  0  0  0
 17 38  1  0  0  0  0
 18 19  1  0  0  0  0
 19 20  1  0  0  0  0
 19 39  1  0  0  0  0
 19 40  1  0  0  0  0
 20 21  1  0  0  0  0
 20 22  1  0  0  0  0
 20 41  1  0  0  0  0
 21 42  1  0  0  0  0
 22 26  1  0  0  0  0
 22 23  1  0  0  0  0
 22 43  1  0  0  0  0
 23 24  1  0  0  0  0
 23 44  1  0  0  0  0
 23 45  1  0  0  0  0
 24 25  1  0  0  0  0
 24 46  1  0  0  0  0
 24 47  1  0  0  0  0
 25 26  1  0  0  0  0
 25 48  1  0  0  0  0
 25 49  1  0  0  0  0
 27 50  1  0  0  0  0
 27 51  1  0  0  0  0
M  END
> <s_m_source_file>
AV-unprocessed.smi

> <i_m_source_file_index>
261

> <i_lp_mmshare_version>
43012

> <i_f3d_flags>
0

> <s_epik_input>
W0NIM11PW0NASF0xW0NIMl1bQ0BASF0oQyg9TylbTkgyXSlOKFtDSDJdMSljKG5bY0hdbjIpYyhjMjMpbltjSF1uM1tDSDJdW0NASF0oW09IXSlbQ0BASF00W0NIMl1bQ0gyXVtDSDJdTzQ=

> <s_epik_cmdline>
J2VwaWtfcHl0aG9uJywgJy1waCcsICc3LjAnLCAnLXRuJywgJzgnLCAnLW1hJywgJzIwMCcsICctbWV0YWxfYmluZGluZycsICctaW1hZScsICc8aW5maWxlLm1hZT4nLCAnLW9tYWUnLCAnPG91dGZpbGUubWFlPic=

> <r_lp_tautomer_probability>
1

> <r_epik_Ionization_Penalty>
0.000713824

> <r_epik_Ionization_Penalty_Charging>
0

> <r_epik_Ionization_Penalty_Neutral>
0.000713824

> <r_epik_State_Penalty>
0.000402132

> <r_epik_Charging_Adjusted_Penalty>
0.000402132

> <i_epik_Tot_Q>
0

> <i_epik_Tot_abs_Q>
0

> <r_epik_Metal_State_Penalty>
-0

> <b_epik_Metal_Only>
0

> <s_lp_Force_Field>
OPLS_2005

> <r_lp_Energy>
43.7776

> <b_lp_Chiralities_Consistent>
1

> <s_lp_Variant>
AV-unprocessed.smi:261-10

> <Gold.Version>
5.8.1

> <Gold.Id.Protein>
6NUR|6NUR_protein|mol2

> <Gold.PLP.Fitness>
43.8918

> <Gold.PLP.PLP>
-40.2881

> <Gold.PLP.part.hbond>
-1.9799

> <Gold.PLP.part.metal>
0.0000

> <Gold.PLP.part.buried>
-8.6506

> <Gold.PLP.part.nonpolar>
-30.2802

> <Gold.PLP.part.repulsive>
0.4005

> <Gold.PLP.ligand.clash>
0.0000

> <Gold.PLP.ligand.torsion>
1.3452

> <Gold.PLP.Chemscore.Hbond>
1.9750

> <Gold.PLP.Chemscore.CHOScore>
0.0000

> <Gold.PLP.Chemscore.Metal>
0.0000

> <Gold.Chemscore.Hbonds>
donor molecule, donor type, donor heavy atom, donor atom, acceptor molecule, acceptor atom, score
      L1  H     7    36       P1  7948  0.88
      P1  H 10752 10763       L1    11  0.55

> <Gold.PLP.Chemscore.Internal.Correction>
0.3690

> <Gold.Rescore>
     Score         DG    S(hbond)    S(metal)    S(lipo)     H(rot)  DE(clash)    DE(int)     intcor
      9.77     -10.84       1.26        0.00      88.19       3.57       0.02       1.05       ----

> <Gold.Chemscore.Fitness>
9.7707

> <Gold.Chemscore.DG>
-10.8403

> <Gold.Chemscore.ZeroCoef>
-5.4800

> <Gold.Chemscore.Hbond>
1.2550

> <Gold.Chemscore.Metal>
0.0000

> <Gold.Chemscore.Lipo>
88.1874

> <Gold.Chemscore.Internal_Hbond>
0.0000

> <Gold.Chemscore.DEClash>
0.0234

> <Gold.Chemscore.DEInternal>
1.0462

> <Gold.Chemscore.Rot>
3.5740

> <Gold.Chemscore.Internal.Correction>
   9.000000E+99

> <Gold.Chemscore.Hbonds>
donor molecule, donor type, donor heavy atom, donor atom, acceptor molecule, acceptor atom, score
      L1  H     7    36       P1  7948  0.86
      P1  H 10752 10763       L1    11  0.03

> <Gold.Chemscore.Hbond.Weighted>
-4.1918

> <Gold.Chemscore.Metal.Weighted>
-0.0000

> <Gold.Chemscore.Lipo.Weighted>
-10.3179

> <Gold.Chemscore.Internal_Hbond.Weighted>
0.0000

> <Gold.Chemscore.DEClash.Weighted>
0.0234

> <Gold.Chemscore.DEInternal.Weighted>
1.0462

> <Gold.Chemscore.Rot.Weighted>
9.1495

> <Gold.Chemscore.Internal.Correction.Weighted>
   9.000000E+99

> <Gold.Protein.RotatedTorsions>
[ 6907 6896 6895 6894 ] final -134.14 input  -60.11 | X-H torsion
[ 7974 7965 7964 7962 ] final  119.12 input  175.53 | X-H torsion
[ 8008 7997 7996 7995 ] final -174.66 input   59.86 | X-H torsion
[ 10167 10162 10161 10158 ] final -100.18 input  -65.29 | X-H torsion
[ 10718 10713 10712 10709 ] final    0.01 input   66.30 | X-H torsion
[ 10763 10752 10751 10750 ] final   42.04 input  -60.55 | X-H torsion
[ 11005 11000 10999 10996 ] final   19.93 input  -57.11 | X-H torsion

> <Gold.Protein.ActiveResidues>
 VAL166  LYS551  ARG553  GLY616  TRP617  ASP618  TYR619  PRO620  LYS621  CYS622 
 ASP623  PHE694  ASN695  SER759  ASP760  ASP761  ALA762  ILE779  LEU786  VAL792 
 PHE793  MET794  SER795  GLU796  ALA797  LYS798  CYS799  TRP800  GLU811  SER814 

> <Gold.Protein.RotatedAtoms>
  150.9823  133.6233  159.2720 H   0  0  0  0  0  0  0  0  0  0  0  0  # atno 6907 bound_to 6896
  151.3484  135.0878  159.9404 H   0  0  0  0  0  0  0  0  0  0  0  0  # atno 6908 bound_to 6896
  152.5219  133.9420  159.7685 H   0  0  0  0  0  0  0  0  0  0  0  0  # atno 6909 bound_to 6896
  145.1469  139.3234  143.4587 H   0  0  0  0  0  0  0  0  0  0  0  0  # atno 7974 bound_to 7965
  155.9728  140.1166  157.0796 H   0  0  0  0  0  0  0  0  0  0  0  0  # atno 8008 bound_to 7997
  154.4161  140.1160  156.5398 H   0  0  0  0  0  0  0  0  0  0  0  0  # atno 8009 bound_to 7997
  155.6573  140.3473  155.4772 H   0  0  0  0  0  0  0  0  0  0  0  0  # atno 8010 bound_to 7997
  140.2546  143.3449  152.0683 H   0  0  0  0  0  0  0  0  0  0  0  0  # atno 10167 bound_to 10162
  156.8270  130.5476  149.5691 H   0  0  0  0  0  0  0  0  0  0  0  0  # atno 10718 bound_to 10713
  152.9893  135.6143  154.2886 H   0  0  0  0  0  0  0  0  0  0  0  0  # atno 10763 bound_to 10752
  154.2612  135.2782  155.2779 H   0  0  0  0  0  0  0  0  0  0  0  0  # atno 10764 bound_to 10752
  154.5204  135.5816  153.6733 H   0  0  0  0  0  0  0  0  0  0  0  0  # atno 10765 bound_to 10752
  140.4083  134.1646  155.7666 H   0  0  0  0  0  0  0  0  0  0  0  0  # atno 11005 bound_to 11000
  146.3499  140.1529  142.8592 LP  0  0  0  0  0  0  0  0  0  0  0  0  # atno 17320 bound_to 7965
  145.0472  140.8990  143.5017 LP  0  0  0  0  0  0  0  0  0  0  0  0  # atno 17321 bound_to 7965
  139.5035  144.6757  151.6133 LP  0  0  0  0  0  0  0  0  0  0  0  0  # atno 17342 bound_to 10162
  140.6014  143.9603  150.6388 LP  0  0  0  0  0  0  0  0  0  0  0  0  # atno 17343 bound_to 10162
  156.0956  130.5929  150.9807 LP  0  0  0  0  0  0  0  0  0  0  0  0  # atno 17370 bound_to 10713
  157.6426  131.0908  150.8219 LP  0  0  0  0  0  0  0  0  0  0  0  0  # atno 17371 bound_to 10713
  141.1831  133.8371  157.1187 LP  0  0  0  0  0  0  0  0  0  0  0  0  # atno 17394 bound_to 11000
  140.0286  134.9912  157.0736 LP  0  0  0  0  0  0  0  0  0  0  0  0  # atno 17395 bound_to 11000

$$$$
