AV-unprocessed.smi:1895|AV-procd|sdf|7680|dock10
  -GOLD-   22720 9423D 1   1.00000     0.00000
 Structure written by MMmdl.
 36 37  0  0  0  0  0  0  0  0  1 V2000
  154.1490  141.1660  160.6599 C   0  0  0  0  0  0  0  0  0  0  0  0
  153.2340  142.1933  160.0620 C   0  0  0  0  0  0  0  0  0  0  0  0
  152.8009  143.4246  160.6285 C   0  0  0  0  0  0  0  0  0  0  0  0
  151.9809  143.9640  159.6779 C   0  0  0  0  0  0  0  0  0  0  0  0
  151.2107  145.2437  159.6851 C   0  0  0  0  0  0  0  0  0  0  0  0
  151.9546  143.0736  158.6184 N   0  0  0  0  0  0  0  0  0  0  0  0
  151.2171  143.1565  157.3657 C   0  0  0  0  0  0  0  0  0  0  0  0
  150.3644  141.9051  157.1506 C   0  0  0  0  0  0  0  0  0  0  0  0
  150.6262  140.8678  157.7590 O   0  0  0  0  0  0  0  0  0  0  0  0
  149.3664  142.0108  156.2603 N   0  0  0  0  0  0  0  0  0  0  0  0
  148.5443  140.9049  155.7866 C   0  0  0  0  0  0  0  0  0  0  0  0
  147.2662  141.4117  155.0952 C   0  0  2  0  0  0  0  0  0  0  0  0
  147.5030  142.1831  153.7951 C   0  0  0  0  0  0  0  0  0  0  0  0
  146.2995  143.1091  153.7018 C   0  0  0  0  0  0  0  0  0  0  0  0
  145.6419  143.0142  155.0818 C   0  0  0  0  0  0  0  0  0  0  0  0
  146.6019  142.3671  155.9048 O   0  0  0  0  0  0  0  0  0  0  0  0
  152.7247  141.9895  158.8585 N   0  0  0  0  0  0  0  0  0  0  0  0
  154.5749  141.5174  161.5998 H   0  0  0  0  0  0  0  0  0  0  0  0
  154.9756  140.9353  159.9876 H   0  0  0  0  0  0  0  0  0  0  0  0
  153.6145  140.2381  160.8650 H   0  0  0  0  0  0  0  0  0  0  0  0
  153.0510  143.8463  161.5907 H   0  0  0  0  0  0  0  0  0  0  0  0
  151.4326  145.8264  160.5791 H   0  0  0  0  0  0  0  0  0  0  0  0
  150.1379  145.0512  159.6693 H   0  0  0  0  0  0  0  0  0  0  0  0
  151.4599  145.8546  158.8175 H   0  0  0  0  0  0  0  0  0  0  0  0
  150.5865  144.0462  157.3831 H   0  0  0  0  0  0  0  0  0  0  0  0
  151.9146  143.2752  156.5350 H   0  0  0  0  0  0  0  0  0  0  0  0
  149.2239  142.9070  155.8165 H   0  0  0  0  0  0  0  0  0  0  0  0
  149.1172  140.2681  155.1108 H   0  0  0  0  0  0  0  0  0  0  0  0
  148.2822  140.2881  156.6467 H   0  0  0  0  0  0  0  0  0  0  0  0
  146.5823  140.5810  154.9099 H   0  0  0  0  0  0  0  0  0  0  0  0
  148.4150  142.7773  153.8678 H   0  0  0  0  0  0  0  0  0  0  0  0
  147.6003  141.5247  152.9309 H   0  0  0  0  0  0  0  0  0  0  0  0
  146.6164  144.1289  153.4807 H   0  0  0  0  0  0  0  0  0  0  0  0
  145.6071  142.7955  152.9201 H   0  0  0  0  0  0  0  0  0  0  0  0
  145.3690  143.9895  155.4851 H   0  0  0  0  0  0  0  0  0  0  0  0
  144.7405  142.4015  155.0346 H   0  0  0  0  0  0  0  0  0  0  0  0
  1  2  1  0  0  0  0
  1 18  1  0  0  0  0
  1 19  1  0  0  0  0
  1 20  1  0  0  0  0
  2 17  2  0  0  0  0
  2  3  1  0  0  0  0
  3  4  2  0  0  0  0
  3 21  1  0  0  0  0
  4  5  1  0  0  0  0
  4  6  1  0  0  0  0
  5 22  1  0  0  0  0
  5 23  1  0  0  0  0
  5 24  1  0  0  0  0
  6  7  1  0  0  0  0
  6 17  1  0  0  0  0
  7  8  1  0  0  0  0
  7 25  1  0  0  0  0
  7 26  1  0  0  0  0
  8  9  2  0  0  0  0
  8 10  1  0  0  0  0
 10 11  1  0  0  0  0
 10 27  1  0  0  0  0
 11 12  1  0  0  0  0
 11 28  1  0  0  0  0
 11 29  1  0  0  0  0
 12 16  1  0  0  0  0
 12 13  1  0  0  0  0
 12 30  1  0  0  0  0
 13 14  1  0  0  0  0
 13 31  1  0  0  0  0
 13 32  1  0  0  0  0
 14 15  1  0  0  0  0
 14 33  1  0  0  0  0
 14 34  1  0  0  0  0
 15 16  1  0  0  0  0
 15 35  1  0  0  0  0
 15 36  1  0  0  0  0
M  END
> <s_m_source_file>
AV-unprocessed.smi

> <i_m_source_file_index>
1895

> <i_lp_mmshare_version>
43012

> <i_f3d_flags>
0

> <s_epik_input>
W0NIM11jMVtjSF1jKFtDSDNdKW4objEpW0NIMl1DKD1PKVtOSF1bQ0gyXVtDQEBIXTJbQ0gyXVtDSDJdW0NIMl1PMg==

> <s_epik_cmdline>
J2VwaWtfcHl0aG9uJywgJy1waCcsICc3LjAnLCAnLXRuJywgJzgnLCAnLW1hJywgJzIwMCcsICctbWV0YWxfYmluZGluZycsICctaW1hZScsICc8aW5maWxlLm1hZT4nLCAnLW9tYWUnLCAnPG91dGZpbGUubWFlPic=

> <r_lp_tautomer_probability>
1

> <r_epik_Ionization_Penalty>
0.000408438

> <r_epik_Ionization_Penalty_Charging>
0

> <r_epik_Ionization_Penalty_Neutral>
0.000408438

> <r_epik_State_Penalty>
-0

> <r_epik_Charging_Adjusted_Penalty>
0

> <i_epik_Tot_Q>
0

> <i_epik_Tot_abs_Q>
0

> <r_epik_Metal_State_Penalty>
-0

> <b_epik_Metal_Only>
0

> <s_lp_Force_Field>
OPLS_2005

> <r_lp_Energy>
14.7864

> <b_lp_Chiralities_Consistent>
1

> <s_lp_Variant>
AV-unprocessed.smi:1895-1

> <Gold.Version>
5.8.1

> <Gold.Id.Protein>
6NUR|6NUR_protein|mol2

> <Gold.PLP.Fitness>
41.7993

> <Gold.PLP.PLP>
-39.6653

> <Gold.PLP.part.hbond>
-1.0000

> <Gold.PLP.part.metal>
0.0000

> <Gold.PLP.part.buried>
-6.3447

> <Gold.PLP.part.nonpolar>
-32.5081

> <Gold.PLP.part.repulsive>
0.2125

> <Gold.PLP.ligand.clash>
0.0000

> <Gold.PLP.ligand.torsion>
0.4407

> <Gold.PLP.Chemscore.Hbond>
1.0000

> <Gold.PLP.Chemscore.CHOScore>
0.0000

> <Gold.PLP.Chemscore.Metal>
0.0000

> <Gold.Chemscore.Hbonds>
donor molecule, donor type, donor heavy atom, donor atom, acceptor molecule, acceptor atom, score
      L1  H    10    27       P1  8028  1.00

> <Gold.PLP.Chemscore.Internal.Correction>
0.0153

> <Gold.Rescore>
     Score         DG    S(hbond)    S(metal)    S(lipo)     H(rot)  DE(clash)    DE(int)     intcor
     13.86     -15.66       1.00        0.00      92.13       1.54       0.01       1.79       ----

> <Gold.Chemscore.Fitness>
13.8577

> <Gold.Chemscore.DG>
-15.6597

> <Gold.Chemscore.ZeroCoef>
-5.4800

> <Gold.Chemscore.Hbond>
0.9998

> <Gold.Chemscore.Metal>
0.0000

> <Gold.Chemscore.Lipo>
92.1313

> <Gold.Chemscore.Internal_Hbond>
0.0000

> <Gold.Chemscore.DEClash>
0.0133

> <Gold.Chemscore.DEInternal>
1.7886

> <Gold.Chemscore.Rot>
1.5387

> <Gold.Chemscore.Internal.Correction>
   9.000000E+99

> <Gold.Chemscore.Hbonds>
donor molecule, donor type, donor heavy atom, donor atom, acceptor molecule, acceptor atom, score
      L1  H    10    27       P1  8028  0.99

> <Gold.Chemscore.Hbond.Weighted>
-3.3395

> <Gold.Chemscore.Metal.Weighted>
-0.0000

> <Gold.Chemscore.Lipo.Weighted>
-10.7794

> <Gold.Chemscore.Internal_Hbond.Weighted>
0.0000

> <Gold.Chemscore.DEClash.Weighted>
0.0133

> <Gold.Chemscore.DEInternal.Weighted>
1.7886

> <Gold.Chemscore.Rot.Weighted>
3.9392

> <Gold.Chemscore.Internal.Correction.Weighted>
   9.000000E+99

> <Gold.Protein.RotatedTorsions>
[ 6907 6896 6895 6894 ] final  151.47 input  -60.11 | X-H torsion
[ 7974 7965 7964 7962 ] final -144.60 input  175.53 | X-H torsion
[ 8008 7997 7996 7995 ] final   77.62 input   59.86 | X-H torsion
[ 10167 10162 10161 10158 ] final   72.04 input  -65.29 | X-H torsion
[ 10718 10713 10712 10709 ] final    7.35 input   66.30 | X-H torsion
[ 10763 10752 10751 10750 ] final   47.63 input  -60.55 | X-H torsion
[ 11005 11000 10999 10996 ] final   54.41 input  -57.11 | X-H torsion

> <Gold.Protein.ActiveResidues>
 VAL166  LYS551  ARG553  GLY616  TRP617  ASP618  TYR619  PRO620  LYS621  CYS622 
 ASP623  PHE694  ASN695  SER759  ASP760  ASP761  ALA762  ILE779  LEU786  VAL792 
 PHE793  MET794  SER795  GLU796  ALA797  LYS798  CYS799  TRP800  GLU811  SER814 

> <Gold.Protein.RotatedAtoms>
  152.1002  133.4245  159.4583 H   0  0  0  0  0  0  0  0  0  0  0  0  # atno 6907 bound_to 6896
  150.6864  134.2770  159.4620 H   0  0  0  0  0  0  0  0  0  0  0  0  # atno 6908 bound_to 6896
  152.0629  134.9582  160.0625 H   0  0  0  0  0  0  0  0  0  0  0  0  # atno 6909 bound_to 6896
  144.8286  140.5689  143.5530 H   0  0  0  0  0  0  0  0  0  0  0  0  # atno 7974 bound_to 7965
  155.8442  140.3461  155.5651 H   0  0  0  0  0  0  0  0  0  0  0  0  # atno 8008 bound_to 7997
  155.8108  140.0898  157.1924 H   0  0  0  0  0  0  0  0  0  0  0  0  # atno 8009 bound_to 7997
  154.4006  140.1448  156.3372 H   0  0  0  0  0  0  0  0  0  0  0  0  # atno 8010 bound_to 7997
  140.0396  144.5400  150.7444 H   0  0  0  0  0  0  0  0  0  0  0  0  # atno 10167 bound_to 10162
  156.9356  130.5842  149.5651 H   0  0  0  0  0  0  0  0  0  0  0  0  # atno 10718 bound_to 10713
  152.9798  135.5970  154.3795 H   0  0  0  0  0  0  0  0  0  0  0  0  # atno 10763 bound_to 10752
  154.3460  135.2767  155.2399 H   0  0  0  0  0  0  0  0  0  0  0  0  # atno 10764 bound_to 10752
  154.4459  135.6001  153.6215 H   0  0  0  0  0  0  0  0  0  0  0  0  # atno 10765 bound_to 10752
  140.0689  134.5498  155.9069 H   0  0  0  0  0  0  0  0  0  0  0  0  # atno 11005 bound_to 11000
  145.4945  139.1486  143.3691 LP  0  0  0  0  0  0  0  0  0  0  0  0  # atno 17320 bound_to 7965
  146.2590  140.5084  142.8861 LP  0  0  0  0  0  0  0  0  0  0  0  0  # atno 17321 bound_to 7965
  140.7266  143.2643  151.4099 LP  0  0  0  0  0  0  0  0  0  0  0  0  # atno 17342 bound_to 10162
  139.6022  144.1271  152.2211 LP  0  0  0  0  0  0  0  0  0  0  0  0  # atno 17343 bound_to 10162
  156.0427  130.5508  150.8810 LP  0  0  0  0  0  0  0  0  0  0  0  0  # atno 17370 bound_to 10713
  157.5819  131.0946  150.9258 LP  0  0  0  0  0  0  0  0  0  0  0  0  # atno 17371 bound_to 10713
  141.2004  133.6612  156.5893 LP  0  0  0  0  0  0  0  0  0  0  0  0  # atno 17394 bound_to 11000
  140.3657  134.7649  157.4565 LP  0  0  0  0  0  0  0  0  0  0  0  0  # atno 17395 bound_to 11000

$$$$
