AV-unprocessed.smi:763|AV-procd|sdf|3636|dock4
  -GOLD-   22720 1 33D 1   1.00000     0.00000
 Structure written by MMmdl.
 44 45  0  0  0  0  0  0  0  0  1 V2000
  145.6592  130.7996  151.3890 C   0  0  0  0  0  0  0  0  0  0  0  0
  145.4529  132.1576  151.0421 O   0  0  0  0  0  0  0  0  0  0  0  0
  146.5511  132.9807  151.3974 C   0  0  0  0  0  0  0  0  0  0  0  0
  146.1590  133.8460  152.6055 C   0  0  0  0  0  0  0  0  0  0  0  0
  147.3051  134.4154  153.2389 O   0  0  0  0  0  0  0  0  0  0  0  0
  148.2009  133.6029  153.9100 C   0  0  0  0  0  0  0  0  0  0  0  0
  148.0532  132.2569  153.8223 N   0  0  0  0  0  0  0  0  0  0  0  0
  148.9334  131.4689  154.4731 C   0  0  0  0  0  0  0  0  0  0  0  0
  150.0027  131.9746  155.2349 C   0  0  0  0  0  0  0  0  0  0  0  0
  150.1591  133.3698  155.3236 C   0  0  0  0  0  0  0  0  0  0  0  0
  149.2427  134.2080  154.6503 C   0  0  0  0  0  0  0  0  0  0  0  0
  149.3378  135.6044  154.6913 N   0  0  0  0  0  0  0  0  0  0  0  0
  150.4942  136.6107  155.5063 S   0  0  0  0  0  0  0  0  0  0  0  0
  149.7245  137.2775  156.5670 O   0  0  0  0  0  0  0  0  0  0  0  0
  151.6225  135.7307  155.8490 O   0  0  0  0  0  0  0  0  0  0  0  0
  150.9905  137.8216  154.1686 C   0  0  2  0  0  0  0  0  0  0  0  0
  152.3081  138.5357  154.5346 C   0  0  0  0  0  0  0  0  0  0  0  0
  152.1158  139.5510  155.6751 C   0  0  0  0  0  0  0  0  0  0  0  0
  151.0438  140.5920  155.3137 C   0  0  0  0  0  0  0  0  0  0  0  0
  149.7101  139.9233  154.9424 C   0  0  0  0  0  0  0  0  0  0  0  0
  149.9057  138.8743  153.8288 C   0  0  2  0  0  0  0  0  0  0  0  0
  148.6762  138.2609  153.4984 O   0  0  0  0  0  0  0  0  0  0  0  0
  144.7884  130.2114  151.1000 H   0  0  0  0  0  0  0  0  0  0  0  0
  145.8013  130.6843  152.4643 H   0  0  0  0  0  0  0  0  0  0  0  0
  146.5288  130.3888  150.8745 H   0  0  0  0  0  0  0  0  0  0  0  0
  147.4340  132.3767  151.6086 H   0  0  0  0  0  0  0  0  0  0  0  0
  146.7974  133.6302  150.5560 H   0  0  0  0  0  0  0  0  0  0  0  0
  145.4429  134.6174  152.3183 H   0  0  0  0  0  0  0  0  0  0  0  0
  145.6401  133.2280  153.3384 H   0  0  0  0  0  0  0  0  0  0  0  0
  148.7820  130.4035  154.3816 H   0  0  0  0  0  0  0  0  0  0  0  0
  150.6869  131.3084  155.7391 H   0  0  0  0  0  0  0  0  0  0  0  0
  150.9765  133.7741  155.9002 H   0  0  0  0  0  0  0  0  0  0  0  0
  148.6505  136.0929  154.1349 H   0  0  0  0  0  0  0  0  0  0  0  0
  151.1813  137.2272  153.2755 H   0  0  0  0  0  0  0  0  0  0  0  0
  153.0769  137.8107  154.8019 H   0  0  0  0  0  0  0  0  0  0  0  0
  152.6874  139.0584  153.6555 H   0  0  0  0  0  0  0  0  0  0  0  0
  151.8329  139.0353  156.5934 H   0  0  0  0  0  0  0  0  0  0  0  0
  153.0605  140.0532  155.8848 H   0  0  0  0  0  0  0  0  0  0  0  0
  150.8953  141.2791  156.1472 H   0  0  0  0  0  0  0  0  0  0  0  0
  151.3930  141.1959  154.4753 H   0  0  0  0  0  0  0  0  0  0  0  0
  149.2722  139.4751  155.8328 H   0  0  0  0  0  0  0  0  0  0  0  0
  149.0019  140.6845  154.6125 H   0  0  0  0  0  0  0  0  0  0  0  0
  150.2282  139.4045  152.9317 H   0  0  0  0  0  0  0  0  0  0  0  0
  148.8535  137.4674  153.0171 H   0  0  0  0  0  0  0  0  0  0  0  0
  1  2  1  0  0  0  0
  1 23  1  0  0  0  0
  1 24  1  0  0  0  0
  1 25  1  0  0  0  0
  2  3  1  0  0  0  0
  3  4  1  0  0  0  0
  3 26  1  0  0  0  0
  3 27  1  0  0  0  0
  4  5  1  0  0  0  0
  4 28  1  0  0  0  0
  4 29  1  0  0  0  0
  5  6  1  0  0  0  0
  6 11  1  0  0  0  0
  6  7  2  0  0  0  0
  7  8  1  0  0  0  0
  8  9  2  0  0  0  0
  8 30  1  0  0  0  0
  9 10  1  0  0  0  0
  9 31  1  0  0  0  0
 10 11  2  0  0  0  0
 10 32  1  0  0  0  0
 11 12  1  0  0  0  0
 12 13  1  0  0  0  0
 12 33  1  0  0  0  0
 13 14  2  0  0  0  0
 13 15  2  0  0  0  0
 13 16  1  0  0  0  0
 16 21  1  0  0  0  0
 16 17  1  0  0  0  0
 16 34  1  0  0  0  0
 17 18  1  0  0  0  0
 17 35  1  0  0  0  0
 17 36  1  0  0  0  0
 18 19  1  0  0  0  0
 18 37  1  0  0  0  0
 18 38  1  0  0  0  0
 19 20  1  0  0  0  0
 19 39  1  0  0  0  0
 19 40  1  0  0  0  0
 20 21  1  0  0  0  0
 20 41  1  0  0  0  0
 20 42  1  0  0  0  0
 21 22  1  0  0  0  0
 21 43  1  0  0  0  0
 22 44  1  0  0  0  0
M  END
> <s_m_source_file>
AV-unprocessed.smi

> <i_m_source_file_index>
763

> <i_lp_mmshare_version>
43012

> <i_f3d_flags>
0

> <s_epik_input>
W0NIM11PW0NIMl1bQ0gyXU9jMW5bY0hdW2NIXVtjSF1jMVtOSF1TKD1PKSg9TylbQ0BASF0yW0NIMl1bQ0gyXVtDSDJdW0NIMl1bQ0BIXTJbT0hd

> <s_epik_cmdline>
J2VwaWtfcHl0aG9uJywgJy1waCcsICc3LjAnLCAnLXRuJywgJzgnLCAnLW1hJywgJzIwMCcsICctbWV0YWxfYmluZGluZycsICctaW1hZScsICc8aW5maWxlLm1hZT4nLCAnLW9tYWUnLCAnPG91dGZpbGUubWFlPic=

> <r_epik_Ionization_Penalty>
0.124685

> <r_epik_Ionization_Penalty_Charging>
0

> <r_epik_Ionization_Penalty_Neutral>
0.124685

> <r_epik_State_Penalty>
0.114154

> <r_epik_Charging_Adjusted_Penalty>
0.114154

> <i_epik_Tot_Q>
0

> <i_epik_Tot_abs_Q>
0

> <r_epik_Metal_State_Penalty>
0.443785

> <b_epik_Metal_Only>
0

> <s_lp_Force_Field>
OPLS_2005

> <r_lp_Energy>
4.78457

> <b_lp_Chiralities_Consistent>
1

> <s_lp_Variant>
AV-unprocessed.smi:763-3

> <Gold.Version>
5.8.1

> <Gold.Id.Protein>
6NUR|6NUR_protein|mol2

> <Gold.PLP.Fitness>
42.3326

> <Gold.PLP.PLP>
-37.8968

> <Gold.PLP.part.hbond>
-3.4780

> <Gold.PLP.part.metal>
0.0000

> <Gold.PLP.part.buried>
-3.5052

> <Gold.PLP.part.nonpolar>
-33.7133

> <Gold.PLP.part.repulsive>
3.0999

> <Gold.PLP.ligand.clash>
0.0000

> <Gold.PLP.ligand.torsion>
1.5961

> <Gold.PLP.Chemscore.Hbond>
2.0983

> <Gold.PLP.Chemscore.CHOScore>
0.0000

> <Gold.PLP.Chemscore.Metal>
0.0000

> <Gold.Chemscore.Hbonds>
donor molecule, donor type, donor heavy atom, donor atom, acceptor molecule, acceptor atom, score
      L1  H    12    33       P1  7948  0.13
      L1  H    22    44       P1  7948  1.00
      P1  H 10752 10764       L1    15  1.00

> <Gold.PLP.Chemscore.Internal.Correction>
1.3331

> <Gold.Rescore>
     Score         DG    S(hbond)    S(metal)    S(lipo)     H(rot)  DE(clash)    DE(int)     intcor
     10.88     -16.66       2.12        0.00      87.60       2.41       1.74       4.03       ----

> <Gold.Chemscore.Fitness>
10.8841

> <Gold.Chemscore.DG>
-16.6580

> <Gold.Chemscore.ZeroCoef>
-5.4800

> <Gold.Chemscore.Hbond>
2.1216

> <Gold.Chemscore.Metal>
0.0000

> <Gold.Chemscore.Lipo>
87.6003

> <Gold.Chemscore.Internal_Hbond>
0.0000

> <Gold.Chemscore.DEClash>
1.7409

> <Gold.Chemscore.DEInternal>
4.0330

> <Gold.Chemscore.Rot>
2.4052

> <Gold.Chemscore.Internal.Correction>
   9.000000E+99

> <Gold.Chemscore.Hbonds>
donor molecule, donor type, donor heavy atom, donor atom, acceptor molecule, acceptor atom, score
      L1  H    12    33       P1  7948  0.13
      L1  H    22    44       P1  7948  1.00
      P1  H 10752 10764       L1    15  0.94

> <Gold.Chemscore.Hbond.Weighted>
-7.0862

> <Gold.Chemscore.Metal.Weighted>
-0.0000

> <Gold.Chemscore.Lipo.Weighted>
-10.2492

> <Gold.Chemscore.Internal_Hbond.Weighted>
0.0000

> <Gold.Chemscore.DEClash.Weighted>
1.7409

> <Gold.Chemscore.DEInternal.Weighted>
4.0330

> <Gold.Chemscore.Rot.Weighted>
6.1574

> <Gold.Chemscore.Internal.Correction.Weighted>
   9.000000E+99

> <Gold.Protein.RotatedTorsions>
[ 6907 6896 6895 6894 ] final -116.77 input  -60.11 | X-H torsion
[ 7974 7965 7964 7962 ] final  -18.12 input  175.53 | X-H torsion
[ 8008 7997 7996 7995 ] final  -53.48 input   59.86 | X-H torsion
[ 10167 10162 10161 10158 ] final  174.87 input  -65.29 | X-H torsion
[ 10718 10713 10712 10709 ] final  176.49 input   66.30 | X-H torsion
[ 10763 10752 10751 10750 ] final  -19.40 input  -60.55 | X-H torsion
[ 11005 11000 10999 10996 ] final  -39.06 input  -57.11 | X-H torsion

> <Gold.Protein.ActiveResidues>
 VAL166  LYS551  ARG553  GLY616  TRP617  ASP618  TYR619  PRO620  LYS621  CYS622 
 ASP623  PHE694  ASN695  SER759  ASP760  ASP761  ALA762  ILE779  LEU786  VAL792 
 PHE793  MET794  SER795  GLU796  ALA797  LYS798  CYS799  TRP800  GLU811  SER814 

> <Gold.Protein.RotatedAtoms>
  150.8083  133.8469  159.3194 H   0  0  0  0  0  0  0  0  0  0  0  0  # atno 6907 bound_to 6896
  151.6262  135.1025  160.0121 H   0  0  0  0  0  0  0  0  0  0  0  0  # atno 6908 bound_to 6896
  152.4174  133.7020  159.6486 H   0  0  0  0  0  0  0  0  0  0  0  0  # atno 6909 bound_to 6896
  146.1908  140.3876  142.8459 H   0  0  0  0  0  0  0  0  0  0  0  0  # atno 7974 bound_to 7965
  154.4134  140.1199  156.5160 H   0  0  0  0  0  0  0  0  0  0  0  0  # atno 8008 bound_to 7997
  155.6750  140.3496  155.4814 H   0  0  0  0  0  0  0  0  0  0  0  0  # atno 8009 bound_to 7997
  155.9600  140.1121  157.0894 H   0  0  0  0  0  0  0  0  0  0  0  0  # atno 8010 bound_to 7997
  139.5157  144.3097  152.0303 H   0  0  0  0  0  0  0  0  0  0  0  0  # atno 10167 bound_to 10162
  156.9193  130.9935  151.3007 H   0  0  0  0  0  0  0  0  0  0  0  0  # atno 10718 bound_to 10713
  153.6042  135.6998  153.5372 H   0  0  0  0  0  0  0  0  0  0  0  0  # atno 10763 bound_to 10752
  153.3071  135.4112  155.1303 H   0  0  0  0  0  0  0  0  0  0  0  0  # atno 10764 bound_to 10752
  154.8576  135.3663  154.5579 H   0  0  0  0  0  0  0  0  0  0  0  0  # atno 10765 bound_to 10752
  141.0074  133.6925  156.2136 H   0  0  0  0  0  0  0  0  0  0  0  0  # atno 11005 bound_to 11000
  144.8483  140.6962  143.6185 LP  0  0  0  0  0  0  0  0  0  0  0  0  # atno 17320 bound_to 7965
  145.3799  139.1639  143.4286 LP  0  0  0  0  0  0  0  0  0  0  0  0  # atno 17321 bound_to 7965
  140.2542  144.4137  150.6210 LP  0  0  0  0  0  0  0  0  0  0  0  0  # atno 17342 bound_to 10162
  140.6203  143.2176  151.6707 LP  0  0  0  0  0  0  0  0  0  0  0  0  # atno 17343 bound_to 10162
  157.5918  130.8449  149.8670 LP  0  0  0  0  0  0  0  0  0  0  0  0  # atno 17370 bound_to 10713
  156.0498  130.3720  150.1228 LP  0  0  0  0  0  0  0  0  0  0  0  0  # atno 17371 bound_to 10713
  140.6790  134.4787  157.5588 LP  0  0  0  0  0  0  0  0  0  0  0  0  # atno 17394 bound_to 11000
  139.9071  134.8426  156.1666 LP  0  0  0  0  0  0  0  0  0  0  0  0  # atno 17395 bound_to 11000

$$$$
