AV-unprocessed.smi:1307|AV-procd|sdf|5436|dock3
  -GOLD-   22720 5 03D 1   1.00000     0.00000
 Structure written by MMmdl.
 41 41  0  0  0  0  0  0  0  0  1 V2000
  147.3835  133.3257  161.6000 C   0  0  0  0  0  0  0  0  0  0  0  0
  147.0956  134.6248  162.3747 C   0  0  0  0  0  0  0  0  0  0  0  0
  145.5714  134.8155  162.5053 C   0  0  0  0  0  0  0  0  0  0  0  0
  147.7979  135.8556  161.7388 C   0  0  2  0  0  0  0  0  0  0  0  0
  147.5214  137.1701  162.4885 C   0  0  0  0  0  0  0  0  0  0  0  0
  147.3733  136.0333  160.3499 N   0  0  0  0  0  0  0  0  0  0  0  0
  148.1544  135.9259  159.2638 C   0  0  0  0  0  0  0  0  0  0  0  0
  149.3545  135.6525  159.3150 O   0  0  0  0  0  0  0  0  0  0  0  0
  147.4496  136.1419  157.9143 C   0  0  0  0  0  0  0  0  0  0  0  0
  148.2058  137.0062  156.9731 N   0  0  0  0  0  0  0  0  0  0  0  0
  148.9479  136.4178  155.9013 C   0  0  0  0  0  0  0  0  0  0  0  0
  148.9968  134.8886  155.7658 C   0  0  0  0  0  0  0  0  0  0  0  0
  149.7694  134.5202  154.7428 F   0  0  0  0  0  0  0  0  0  0  0  0
  149.5032  134.3047  156.8516 F   0  0  0  0  0  0  0  0  0  0  0  0
  147.7809  134.3952  155.5291 F   0  0  0  0  0  0  0  0  0  0  0  0
  149.6235  137.2055  155.0445 C   0  0  0  0  0  0  0  0  0  0  0  0
  149.5941  138.6337  155.1978 C   0  0  0  0  0  0  0  0  0  0  0  0
  148.9024  139.2055  156.2094 C   0  0  0  0  0  0  0  0  0  0  0  0
  148.8425  140.6716  156.4084 C   0  0  0  0  0  0  0  0  0  0  0  0
  149.3136  141.3858  155.3783 N   0  0  0  0  0  0  0  0  0  0  0  0
  148.4184  141.2686  157.3980 O   0  0  0  0  0  0  0  0  0  0  0  0
  148.1526  138.3671  157.1800 C   0  0  0  0  0  0  0  0  0  0  0  0
  147.5108  138.8235  158.1313 O   0  0  0  0  0  0  0  0  0  0  0  0
  147.0712  133.4084  160.5585 H   0  0  0  0  0  0  0  0  0  0  0  0
  146.8513  132.4810  162.0384 H   0  0  0  0  0  0  0  0  0  0  0  0
  148.4424  133.0704  161.6135 H   0  0  0  0  0  0  0  0  0  0  0  0
  147.4890  134.4948  163.3839 H   0  0  0  0  0  0  0  0  0  0  0  0
  145.1136  135.0163  161.5362 H   0  0  0  0  0  0  0  0  0  0  0  0
  145.3200  135.6422  163.1699 H   0  0  0  0  0  0  0  0  0  0  0  0
  145.0971  133.9246  162.9179 H   0  0  0  0  0  0  0  0  0  0  0  0
  148.8750  135.6835  161.7742 H   0  0  0  0  0  0  0  0  0  0  0  0
  147.9284  137.1541  163.4990 H   0  0  0  0  0  0  0  0  0  0  0  0
  146.4518  137.3704  162.5598 H   0  0  0  0  0  0  0  0  0  0  0  0
  147.9831  138.0153  161.9765 H   0  0  0  0  0  0  0  0  0  0  0  0
  146.3994  136.2552  160.2032 H   0  0  0  0  0  0  0  0  0  0  0  0
  147.2095  135.1697  157.4942 H   0  0  0  0  0  0  0  0  0  0  0  0
  146.4625  136.5654  158.1096 H   0  0  0  0  0  0  0  0  0  0  0  0
  150.1993  136.7822  154.2350 H   0  0  0  0  0  0  0  0  0  0  0  0
  150.1435  139.2179  154.4746 H   0  0  0  0  0  0  0  0  0  0  0  0
  149.3094  142.3946  155.4177 H   0  0  0  0  0  0  0  0  0  0  0  0
  149.6672  140.9093  154.5613 H   0  0  0  0  0  0  0  0  0  0  0  0
  1  2  1  0  0  0  0
  1 24  1  0  0  0  0
  1 25  1  0  0  0  0
  1 26  1  0  0  0  0
  2  3  1  0  0  0  0
  2  4  1  0  0  0  0
  2 27  1  0  0  0  0
  3 28  1  0  0  0  0
  3 29  1  0  0  0  0
  3 30  1  0  0  0  0
  4  5  1  0  0  0  0
  4  6  1  0  0  0  0
  4 31  1  0  0  0  0
  5 32  1  0  0  0  0
  5 33  1  0  0  0  0
  5 34  1  0  0  0  0
  6  7  1  0  0  0  0
  6 35  1  0  0  0  0
  7  8  2  0  0  0  0
  7  9  1  0  0  0  0
  9 10  1  0  0  0  0
  9 36  1  0  0  0  0
  9 37  1  0  0  0  0
 10 22  1  0  0  0  0
 10 11  1  0  0  0  0
 11 12  1  0  0  0  0
 11 16  2  0  0  0  0
 12 13  1  0  0  0  0
 12 14  1  0  0  0  0
 12 15  1  0  0  0  0
 16 17  1  0  0  0  0
 16 38  1  0  0  0  0
 17 18  2  0  0  0  0
 17 39  1  0  0  0  0
 18 19  1  0  0  0  0
 18 22  1  0  0  0  0
 19 20  1  0  0  0  0
 19 21  2  0  0  0  0
 20 40  1  0  0  0  0
 20 41  1  0  0  0  0
 22 23  2  0  0  0  0
M  END
> <s_m_source_file>
AV-unprocessed.smi

> <i_m_source_file_index>
1307

> <i_lp_mmshare_version>
43012

> <i_f3d_flags>
0

> <s_epik_input>
W0NIM11bQ0hdKFtDSDNdKVtDQEhdKFtDSDNdKVtOSF1DKD1PKVtDSDJdbjFjKEMoRikoRilGKVtjSF1bY0hdYyhjMT1PKUMoPU8pW05IMl0=

> <s_epik_cmdline>
J2VwaWtfcHl0aG9uJywgJy1waCcsICc3LjAnLCAnLXRuJywgJzgnLCAnLW1hJywgJzIwMCcsICctbWV0YWxfYmluZGluZycsICctaW1hZScsICc8aW5maWxlLm1hZT4nLCAnLW9tYWUnLCAnPG91dGZpbGUubWFlPic=

> <r_lp_tautomer_probability>
1

> <r_epik_Ionization_Penalty>
2.05992e-06

> <r_epik_Ionization_Penalty_Charging>
8.21357e-10

> <r_epik_Ionization_Penalty_Neutral>
2.0591e-06

> <r_epik_State_Penalty>
-0

> <r_epik_Charging_Adjusted_Penalty>
8.21357e-10

> <i_epik_Tot_Q>
0

> <i_epik_Tot_abs_Q>
0

> <r_epik_Metal_State_Penalty>
-0

> <b_epik_Metal_Only>
0

> <s_lp_Force_Field>
OPLS_2005

> <r_lp_Energy>
26.4012

> <b_lp_Chiralities_Consistent>
1

> <s_lp_Variant>
AV-unprocessed.smi:1307-1

> <Gold.Version>
5.8.1

> <Gold.Id.Protein>
6NUR|6NUR_protein|mol2

> <Gold.PLP.Fitness>
34.9320

> <Gold.PLP.PLP>
-30.1551

> <Gold.PLP.part.hbond>
-3.1240

> <Gold.PLP.part.metal>
0.0000

> <Gold.PLP.part.buried>
-4.8176

> <Gold.PLP.part.nonpolar>
-22.0757

> <Gold.PLP.part.repulsive>
0.2659

> <Gold.PLP.ligand.clash>
3.9633

> <Gold.PLP.ligand.torsion>
0.5412

> <Gold.PLP.Chemscore.Hbond>
1.9280

> <Gold.PLP.Chemscore.CHOScore>
0.0000

> <Gold.PLP.Chemscore.Metal>
0.0000

> <Gold.Chemscore.Hbonds>
donor molecule, donor type, donor heavy atom, donor atom, acceptor molecule, acceptor atom, score
      L1  H    20    40       P1  8028  0.15
      P1  H  6896  6908       L1     8  1.00

> <Gold.PLP.Chemscore.Internal.Correction>
4.0386

> <Gold.Rescore>
     Score         DG    S(hbond)    S(metal)    S(lipo)     H(rot)  DE(clash)    DE(int)     intcor
      8.15     -13.77       1.99        0.00      57.18       1.97       0.08       5.54       ----

> <Gold.Chemscore.Fitness>
8.1476

> <Gold.Chemscore.DG>
-13.7705

> <Gold.Chemscore.ZeroCoef>
-5.4800

> <Gold.Chemscore.Hbond>
1.9910

> <Gold.Chemscore.Metal>
0.0000

> <Gold.Chemscore.Lipo>
57.1755

> <Gold.Chemscore.Internal_Hbond>
0.0000

> <Gold.Chemscore.DEClash>
0.0811

> <Gold.Chemscore.DEInternal>
5.5418

> <Gold.Chemscore.Rot>
1.9723

> <Gold.Chemscore.Internal.Correction>
   9.000000E+99

> <Gold.Chemscore.Hbonds>
donor molecule, donor type, donor heavy atom, donor atom, acceptor molecule, acceptor atom, score
      L1  H    20    40       P1  8028  0.16
      P1  H  6896  6908       L1     8  1.00

> <Gold.Chemscore.Hbond.Weighted>
-6.6499

> <Gold.Chemscore.Metal.Weighted>
-0.0000

> <Gold.Chemscore.Lipo.Weighted>
-6.6895

> <Gold.Chemscore.Internal_Hbond.Weighted>
0.0000

> <Gold.Chemscore.DEClash.Weighted>
0.0811

> <Gold.Chemscore.DEInternal.Weighted>
5.5418

> <Gold.Chemscore.Rot.Weighted>
5.0490

> <Gold.Chemscore.Internal.Correction.Weighted>
   9.000000E+99

> <Gold.Protein.RotatedTorsions>
[ 6907 6896 6895 6894 ] final -176.35 input  -60.11 | X-H torsion
[ 7974 7965 7964 7962 ] final   88.92 input  175.53 | X-H torsion
[ 8008 7997 7996 7995 ] final   72.32 input   59.86 | X-H torsion
[ 10167 10162 10161 10158 ] final  140.63 input  -65.29 | X-H torsion
[ 10718 10713 10712 10709 ] final  162.70 input   66.30 | X-H torsion
[ 10763 10752 10751 10750 ] final  154.03 input  -60.55 | X-H torsion
[ 11005 11000 10999 10996 ] final  -84.94 input  -57.11 | X-H torsion

> <Gold.Protein.ActiveResidues>
 VAL166  LYS551  ARG553  GLY616  TRP617  ASP618  TYR619  PRO620  LYS621  CYS622 
 ASP623  PHE694  ASN695  SER759  ASP760  ASP761  ALA762  ILE779  LEU786  VAL792 
 PHE793  MET794  SER795  GLU796  ALA797  LYS798  CYS799  TRP800  GLU811  SER814 

> <Gold.Protein.RotatedAtoms>
  151.6034  133.3354  159.3051 H   0  0  0  0  0  0  0  0  0  0  0  0  # atno 6907 bound_to 6896
  150.8196  134.7399  159.6771 H   0  0  0  0  0  0  0  0  0  0  0  0  # atno 6908 bound_to 6896
  152.4290  134.5820  160.0002 H   0  0  0  0  0  0  0  0  0  0  0  0  # atno 6909 bound_to 6896
  145.5393  139.2287  143.2575 H   0  0  0  0  0  0  0  0  0  0  0  0  # atno 7974 bound_to 7965
  155.7671  140.3485  155.5228 H   0  0  0  0  0  0  0  0  0  0  0  0  # atno 8008 bound_to 7997
  155.8858  140.1009  157.1474 H   0  0  0  0  0  0  0  0  0  0  0  0  # atno 8009 bound_to 7997
  154.4029  140.1314  156.4240 H   0  0  0  0  0  0  0  0  0  0  0  0  # atno 8010 bound_to 7997
  139.5043  144.6222  151.6024 H   0  0  0  0  0  0  0  0  0  0  0  0  # atno 10167 bound_to 10162
  157.1189  131.0487  151.2424 H   0  0  0  0  0  0  0  0  0  0  0  0  # atno 10718 bound_to 10713
  154.1458  135.2818  155.3148 H   0  0  0  0  0  0  0  0  0  0  0  0  # atno 10763 bound_to 10752
  154.6253  135.5453  153.7624 H   0  0  0  0  0  0  0  0  0  0  0  0  # atno 10764 bound_to 10752
  153.0236  135.6449  154.1604 H   0  0  0  0  0  0  0  0  0  0  0  0  # atno 10765 bound_to 10752
  141.1646  133.7373  156.8942 H   0  0  0  0  0  0  0  0  0  0  0  0  # atno 11005 bound_to 11000
  146.1992  140.6212  142.9110 LP  0  0  0  0  0  0  0  0  0  0  0  0  # atno 17320 bound_to 7965
  144.7585  140.5366  143.6752 LP  0  0  0  0  0  0  0  0  0  0  0  0  # atno 17321 bound_to 7965
  140.5928  143.9750  150.6335 LP  0  0  0  0  0  0  0  0  0  0  0  0  # atno 17342 bound_to 10162
  140.2936  143.3308  152.1039 LP  0  0  0  0  0  0  0  0  0  0  0  0  # atno 17343 bound_to 10162
  157.4494  130.7589  149.7138 LP  0  0  0  0  0  0  0  0  0  0  0  0  # atno 17370 bound_to 10713
  155.9833  130.4002  150.3371 LP  0  0  0  0  0  0  0  0  0  0  0  0  # atno 17371 bound_to 10713
  140.1627  134.9154  157.2735 LP  0  0  0  0  0  0  0  0  0  0  0  0  # atno 17394 bound_to 11000
  140.2592  134.3591  155.7413 LP  0  0  0  0  0  0  0  0  0  0  0  0  # atno 17395 bound_to 11000

$$$$
