AV-unprocessed.smi:92|AV-procd|sdf|841|dock3
  -GOLD-   2262017273D 1   1.00000     0.00000
 Structure written by MMmdl.
 61 64  0  0  0  0  0  0  0  0  2 V2000
  152.8653  142.5600  159.4353 C   0  0  0  0  0  0  0  0  0  0  0  0
  152.4411  141.0943  159.2637 C   0  0  0  0  0  0  0  0  0  0  0  0
  151.5410  140.8937  158.1000 N   0  3  2  0  0  0  0  0  0  0  0  0
  150.3706  141.8080  158.0987 C   0  0  0  0  0  0  0  0  0  0  0  0
  149.5346  141.6471  156.8191 C   0  0  0  0  0  0  0  0  0  0  0  0
  149.0758  140.1798  156.6188 C   0  0  1  0  0  0  0  0  0  0  0  0
  148.2532  139.9687  155.4159 N   0  0  0  0  0  0  0  0  0  0  0  0
  148.7554  140.5186  154.1590 C   0  0  0  0  0  0  0  0  0  0  0  0
  147.8030  138.7039  155.2526 C   0  0  0  0  0  0  0  0  0  0  0  0
  147.9966  137.7844  156.2343 N   0  0  0  0  0  0  0  0  0  0  0  0
  147.5213  136.5441  156.0852 C   0  0  0  0  0  0  0  0  0  0  0  0
  146.8343  136.0304  155.0618 N   0  0  0  0  0  0  0  0  0  0  0  0
  146.6389  136.9554  154.0774 C   0  0  0  0  0  0  0  0  0  0  0  0
  147.0894  138.3041  154.0934 C   0  0  0  0  0  0  0  0  0  0  0  0
  146.6978  138.9556  152.9319 N   0  0  0  0  0  0  0  0  0  0  0  0
  146.0449  138.0425  152.2657 C   0  0  0  0  0  0  0  0  0  0  0  0
  145.9658  136.8094  152.8763 N   0  0  0  0  0  0  0  0  0  0  0  0
  145.2843  135.6459  152.3845 C   0  0  0  0  0  0  0  0  0  0  0  0
  145.8918  134.2456  152.5003 C   0  0  0  0  0  0  0  0  0  0  0  0
  145.2188  133.8556  151.1635 C   0  0  0  0  0  0  0  0  0  0  0  0
  146.1002  133.0050  150.2320 C   0  0  0  0  0  0  0  0  0  0  0  0
  146.3033  131.7027  150.7407 O   0  0  0  0  0  0  0  0  0  0  0  0
  143.8462  133.1703  151.3326 C   0  0  0  0  0  0  0  0  0  0  0  0
  143.1953  132.9615  150.0961 O   0  0  0  0  0  0  0  0  0  0  0  0
  145.1970  135.3762  150.8831 C   0  0  0  0  0  0  0  0  0  0  0  0
  150.3194  139.2506  156.6551 C   0  0  1  0  0  0  0  0  0  0  0  0
  151.2281  139.3663  155.4126 C   0  0  0  0  0  0  0  0  0  0  0  0
  151.1202  139.4766  157.9534 C   0  0  0  0  0  0  0  0  0  0  0  0
  153.5980  142.6538  160.2371 H   0  0  0  0  0  0  0  0  0  0  0  0
  152.0250  143.2045  159.6917 H   0  0  0  0  0  0  0  0  0  0  0  0
  153.3225  142.9474  158.5243 H   0  0  0  0  0  0  0  0  0  0  0  0
  153.3472  140.5038  159.1216 H   0  0  0  0  0  0  0  0  0  0  0  0
  151.9687  140.7196  160.1730 H   0  0  0  0  0  0  0  0  0  0  0  0
  149.7518  141.6094  158.9753 H   0  0  0  0  0  0  0  0  0  0  0  0
  150.6980  142.8443  158.1735 H   0  0  0  0  0  0  0  0  0  0  0  0
  148.6779  142.3170  156.8975 H   0  0  0  0  0  0  0  0  0  0  0  0
  150.1075  141.9881  155.9563 H   0  0  0  0  0  0  0  0  0  0  0  0
  148.4470  139.9181  157.4717 H   0  0  0  0  0  0  0  0  0  0  0  0
  148.1967  140.1390  153.3018 H   0  0  0  0  0  0  0  0  0  0  0  0
  149.8076  140.2680  154.0183 H   0  0  0  0  0  0  0  0  0  0  0  0
  148.6586  141.6040  154.1501 H   0  0  0  0  0  0  0  0  0  0  0  0
  147.7159  135.8676  156.9043 H   0  0  0  0  0  0  0  0  0  0  0  0
  145.5926  138.2509  151.3069 H   0  0  0  0  0  0  0  0  0  0  0  0
  144.2860  135.6547  152.8250 H   0  0  0  0  0  0  0  0  0  0  0  0
  146.9815  134.2475  152.4465 H   0  0  0  0  0  0  0  0  0  0  0  0
  145.5506  133.6791  153.3674 H   0  0  0  0  0  0  0  0  0  0  0  0
  145.6374  132.8996  149.2502 H   0  0  0  0  0  0  0  0  0  0  0  0
  147.0698  133.4746  150.0639 H   0  0  0  0  0  0  0  0  0  0  0  0
  147.2282  131.5103  150.7157 H   0  0  0  0  0  0  0  0  0  0  0  0
  143.9462  132.2109  151.8410 H   0  0  0  0  0  0  0  0  0  0  0  0
  143.1808  133.7713  151.9529 H   0  0  0  0  0  0  0  0  0  0  0  0
  142.5483  133.6399  149.9774 H   0  0  0  0  0  0  0  0  0  0  0  0
  144.2863  135.7479  150.4124 H   0  0  0  0  0  0  0  0  0  0  0  0
  146.0812  135.7196  150.3430 H   0  0  0  0  0  0  0  0  0  0  0  0
  149.9694  138.2186  156.6911 H   0  0  0  0  0  0  0  0  0  0  0  0
  151.6632  140.3603  155.3128 H   0  0  0  0  0  0  0  0  0  0  0  0
  150.6832  139.1526  154.4930 H   0  0  0  0  0  0  0  0  0  0  0  0
  152.0525  138.6549  155.4677 H   0  0  0  0  0  0  0  0  0  0  0  0
  151.9956  138.8257  157.9563 H   0  0  0  0  0  0  0  0  0  0  0  0
  150.5179  139.1907  158.8175 H   0  0  0  0  0  0  0  0  0  0  0  0
  152.0859  141.1099  157.2773 H   0  0  0  0  0  0  0  0  0  0  0  0
  1  2  1  0  0  0  0
  1 29  1  0  0  0  0
  1 30  1  0  0  0  0
  1 31  1  0  0  0  0
  2  3  1  0  0  0  0
  2 32  1  0  0  0  0
  2 33  1  0  0  0  0
  3 28  1  0  0  0  0
  3  4  1  0  0  0  0
  3 61  1  0  0  0  0
  4  5  1  0  0  0  0
  4 34  1  0  0  0  0
  4 35  1  0  0  0  0
  5  6  1  0  0  0  0
  5 36  1  0  0  0  0
  5 37  1  0  0  0  0
  6  7  1  0  0  0  0
  6 26  1  0  0  0  0
  6 38  1  0  0  0  0
  7  8  1  0  0  0  0
  7  9  1  0  0  0  0
  8 39  1  0  0  0  0
  8 40  1  0  0  0  0
  8 41  1  0  0  0  0
  9 14  1  0  0  0  0
  9 10  2  0  0  0  0
 10 11  1  0  0  0  0
 11 12  2  0  0  0  0
 11 42  1  0  0  0  0
 12 13  1  0  0  0  0
 13 17  1  0  0  0  0
 13 14  2  0  0  0  0
 14 15  1  0  0  0  0
 15 16  2  0  0  0  0
 16 17  1  0  0  0  0
 16 43  1  0  0  0  0
 17 18  1  0  0  0  0
 18 25  1  0  0  0  0
 18 19  1  0  0  0  0
 18 44  1  0  0  0  0
 19 20  1  0  0  0  0
 19 45  1  0  0  0  0
 19 46  1  0  0  0  0
 20 21  1  0  0  0  0
 20 23  1  0  0  0  0
 20 25  1  0  0  0  0
 21 22  1  0  0  0  0
 21 47  1  0  0  0  0
 21 48  1  0  0  0  0
 22 49  1  0  0  0  0
 23 24  1  0  0  0  0
 23 50  1  0  0  0  0
 23 51  1  0  0  0  0
 24 52  1  0  0  0  0
 25 53  1  0  0  0  0
 25 54  1  0  0  0  0
 26 27  1  0  0  0  0
 26 28  1  0  0  0  0
 26 55  1  0  0  0  0
 27 56  1  0  0  0  0
 27 57  1  0  0  0  0
 27 58  1  0  0  0  0
 28 59  1  0  0  0  0
 28 60  1  0  0  0  0
M  CHG  1   3   1
M  END
> <s_m_source_file>
AV-unprocessed.smi

> <i_m_source_file_index>
92

> <i_lp_mmshare_version>
43012

> <i_f3d_flags>
0

> <s_epik_input>
W0NIM11bQ0gyXU4xW0NIMl1bQ0gyXVtDQEhdKFtDQEBIXShbQ0gzXSlbQ0gyXTEpTihbQ0gzXSljKG5bY0hdbjIpYyhjMjMpbltjSF1uM1tDSF0oW0NIMl00KVtDSDJdQzQoW0NIMl1bT0hdKVtDSDJdW09IXQ==

> <s_epik_cmdline>
J2VwaWtfcHl0aG9uJywgJy1waCcsICc3LjAnLCAnLXRuJywgJzgnLCAnLW1hJywgJzIwMCcsICctbWV0YWxfYmluZGluZycsICctaW1hZScsICc8aW5maWxlLm1hZT4nLCAnLW9tYWUnLCAnPG91dGZpbGUubWFlPic=

> <r_lp_tautomer_probability>
1

> <r_epik_Ionization_Penalty>
0.00235514

> <r_epik_Ionization_Penalty_Charging>
0.00137877

> <r_epik_Ionization_Penalty_Neutral>
0.000976366

> <r_epik_State_Penalty>
-0

> <r_epik_Charging_Adjusted_Penalty>
0.00137877

> <i_epik_Tot_Q>
1

> <i_epik_Tot_abs_Q>
1

> <r_epik_Metal_State_Penalty>
-0

> <b_epik_Metal_Only>
0

> <s_lp_Force_Field>
OPLS_2005

> <r_lp_Energy>
54.7459

> <b_lp_Chiralities_Consistent>
1

> <s_lp_Variant>
AV-unprocessed.smi:92-1

> <Gold.Version>
5.8.1

> <Gold.Id.Protein>
6NUR|6NUR_protein|mol2

> <Gold.PLP.Fitness>
45.4770

> <Gold.PLP.PLP>
-38.0089

> <Gold.PLP.part.hbond>
-2.0000

> <Gold.PLP.part.metal>
0.0000

> <Gold.PLP.part.buried>
-5.5246

> <Gold.PLP.part.nonpolar>
-31.5410

> <Gold.PLP.part.repulsive>
0.4720

> <Gold.PLP.ligand.clash>
0.0000

> <Gold.PLP.ligand.torsion>
1.2196

> <Gold.PLP.Chemscore.Hbond>
2.0000

> <Gold.PLP.Chemscore.CHOScore>
1.0000

> <Gold.PLP.Chemscore.Metal>
0.0000

> <Gold.Chemscore.Hbonds>
donor molecule, donor type, donor heavy atom, donor atom, acceptor molecule, acceptor atom, score
      L1  H    22    49       P1 10747  1.00
      L1  H    24    52       P1 10186  1.00
      L1  C    16    43       P1 10171  1.00

> <Gold.PLP.Chemscore.Internal.Correction>
0.9074

> <Gold.Rescore>
     Score         DG    S(hbond)    S(metal)    S(lipo)     H(rot)  DE(clash)    DE(int)     intcor
      8.97     -14.06       2.00        0.00      93.22       3.51       0.05       5.04       ----

> <Gold.Chemscore.Fitness>
8.9710

> <Gold.Chemscore.DG>
-14.0619

> <Gold.Chemscore.ZeroCoef>
-5.4800

> <Gold.Chemscore.Hbond>
1.9978

> <Gold.Chemscore.Metal>
0.0000

> <Gold.Chemscore.Lipo>
93.2227

> <Gold.Chemscore.Internal_Hbond>
0.0000

> <Gold.Chemscore.DEClash>
0.0462

> <Gold.Chemscore.DEInternal>
5.0448

> <Gold.Chemscore.Rot>
3.5147

> <Gold.Chemscore.Internal.Correction>
   9.000000E+99

> <Gold.Chemscore.Hbonds>
donor molecule, donor type, donor heavy atom, donor atom, acceptor molecule, acceptor atom, score
      L1  H    22    49       P1 10747  1.00
      L1  H    24    52       P1 10186  1.00

> <Gold.Chemscore.Hbond.Weighted>
-6.6726

> <Gold.Chemscore.Metal.Weighted>
-0.0000

> <Gold.Chemscore.Lipo.Weighted>
-10.9071

> <Gold.Chemscore.Internal_Hbond.Weighted>
0.0000

> <Gold.Chemscore.DEClash.Weighted>
0.0462

> <Gold.Chemscore.DEInternal.Weighted>
5.0448

> <Gold.Chemscore.Rot.Weighted>
8.9977

> <Gold.Chemscore.Internal.Correction.Weighted>
   9.000000E+99

> <Gold.Protein.RotatedTorsions>
[ 6907 6896 6895 6894 ] final  -98.40 input  -60.11 | X-H torsion
[ 7974 7965 7964 7962 ] final   79.02 input  175.53 | X-H torsion
[ 8008 7997 7996 7995 ] final   23.10 input   59.86 | X-H torsion
[ 10167 10162 10161 10158 ] final    3.39 input  -65.29 | X-H torsion
[ 10718 10713 10712 10709 ] final -148.30 input   66.30 | X-H torsion
[ 10763 10752 10751 10750 ] final   16.38 input  -60.55 | X-H torsion
[ 11005 11000 10999 10996 ] final  148.34 input  -57.11 | X-H torsion

> <Gold.Protein.ActiveResidues>
 VAL166  LYS551  ARG553  GLY616  TRP617  ASP618  TYR619  PRO620  LYS621  CYS622 
 ASP623  PHE694  ASN695  SER759  ASP760  ASP761  ALA762  ILE779  LEU786  VAL792 
 PHE793  MET794  SER795  GLU796  ALA797  LYS798  CYS799  TRP800  GLU811  SER814 

> <Gold.Protein.RotatedAtoms>
  150.7046  134.1200  159.4031 H   0  0  0  0  0  0  0  0  0  0  0  0  # atno 6907 bound_to 6896
  151.9186  135.0305  160.0529 H   0  0  0  0  0  0  0  0  0  0  0  0  # atno 6908 bound_to 6896
  152.2275  133.4996  159.5234 H   0  0  0  0  0  0  0  0  0  0  0  0  # atno 6909 bound_to 6896
  145.6696  139.2493  143.1876 H   0  0  0  0  0  0  0  0  0  0  0  0  # atno 7974 bound_to 7965
  154.9758  140.3096  155.4968 H   0  0  0  0  0  0  0  0  0  0  0  0  # atno 8008 bound_to 7997
  156.2960  140.2275  156.4793 H   0  0  0  0  0  0  0  0  0  0  0  0  # atno 8009 bound_to 7997
  154.7834  140.0444  157.1133 H   0  0  0  0  0  0  0  0  0  0  0  0  # atno 8010 bound_to 7997
  140.6588  143.7358  150.7701 H   0  0  0  0  0  0  0  0  0  0  0  0  # atno 10167 bound_to 10162
  156.4185  130.8017  151.2238 H   0  0  0  0  0  0  0  0  0  0  0  0  # atno 10718 bound_to 10713
  153.1436  135.6765  153.8989 H   0  0  0  0  0  0  0  0  0  0  0  0  # atno 10763 bound_to 10752
  153.8438  135.3102  155.3429 H   0  0  0  0  0  0  0  0  0  0  0  0  # atno 10764 bound_to 10752
  154.7807  135.4890  153.9923 H   0  0  0  0  0  0  0  0  0  0  0  0  # atno 10765 bound_to 10752
  140.0951  134.9017  157.1711 H   0  0  0  0  0  0  0  0  0  0  0  0  # atno 11005 bound_to 11000
  146.1056  140.7490  142.9528 LP  0  0  0  0  0  0  0  0  0  0  0  0  # atno 17320 bound_to 7965
  144.7061  140.3857  143.7117 LP  0  0  0  0  0  0  0  0  0  0  0  0  # atno 17321 bound_to 7965
  140.1023  143.4776  152.2418 LP  0  0  0  0  0  0  0  0  0  0  0  0  # atno 17342 bound_to 10162
  139.5817  144.7513  151.3624 LP  0  0  0  0  0  0  0  0  0  0  0  0  # atno 17343 bound_to 10162
  157.7508  131.0235  150.3838 LP  0  0  0  0  0  0  0  0  0  0  0  0  # atno 17370 bound_to 10713
  156.4151  130.3942  149.6864 LP  0  0  0  0  0  0  0  0  0  0  0  0  # atno 17371 bound_to 10713
  140.3297  134.2823  155.7230 LP  0  0  0  0  0  0  0  0  0  0  0  0  # atno 17394 bound_to 11000
  141.2090  133.7762  157.0026 LP  0  0  0  0  0  0  0  0  0  0  0  0  # atno 17395 bound_to 11000

$$$$
