AV-unprocessed.smi:2226|AV-procd|sdf|9020|dock8
  -GOLD-   2272012223D 1   1.00000     0.00000
 Structure written by MMmdl.
 39 41  0  0  0  0  0  0  0  0  3 V2000
  146.8202  139.0917  152.9222 C   0  0  0  0  0  0  0  0  0  0  0  0
  146.3924  140.2445  153.7501 N   0  3  2  0  0  0  0  0  0  0  0  0
  147.0894  141.5180  153.4518 C   0  0  1  0  0  0  0  0  0  0  0  0
  146.2757  142.6903  154.0464 C   0  0  0  0  0  0  0  0  0  0  0  0
  145.9418  142.5266  155.5418 C   0  0  0  0  0  0  0  0  0  0  0  0
  145.5392  141.0842  155.9069 C   0  0  0  0  0  0  0  0  0  0  0  0
  146.3904  139.9963  155.2114 C   0  0  2  0  0  0  0  0  0  0  0  0
  147.8300  139.8297  155.7603 C   0  0  0  0  0  0  0  0  0  0  0  0
  148.8575  140.8897  155.2932 C   0  0  2  0  0  0  0  0  0  0  0  0
  149.0478  141.9269  156.3042 N   0  0  0  0  0  0  0  0  0  0  0  0
  149.7417  141.8170  157.4465 C   0  0  0  0  0  0  0  0  0  0  0  0
  150.2856  140.7492  157.7370 O   0  0  0  0  0  0  0  0  0  0  0  0
  149.7675  142.9559  158.1735 N   0  5  0  0  0  0  0  0  0  0  0  0
  150.8152  143.2139  158.9727 C   0  0  0  0  0  0  0  0  0  0  0  0
  151.8574  142.4112  159.1944 N   0  0  0  0  0  0  0  0  0  0  0  0
  152.6757  143.0906  160.0839 C   0  0  0  0  0  0  0  0  0  0  0  0
  152.0805  144.2885  160.3713 C   0  0  0  0  0  0  0  0  0  0  0  0
  150.9046  144.3765  159.6789 O   0  0  0  0  0  0  0  0  0  0  0  0
  148.5775  141.4641  153.8782 C   0  0  0  0  0  0  0  0  0  0  0  0
  147.8609  138.8200  153.0980 H   0  0  0  0  0  0  0  0  0  0  0  0
  146.7059  139.3221  151.8626 H   0  0  0  0  0  0  0  0  0  0  0  0
  146.2026  138.2195  153.1376 H   0  0  0  0  0  0  0  0  0  0  0  0
  147.0729  141.6578  152.3700 H   0  0  0  0  0  0  0  0  0  0  0  0
  146.7928  143.6361  153.8809 H   0  0  0  0  0  0  0  0  0  0  0  0
  145.3366  142.7647  153.4964 H   0  0  0  0  0  0  0  0  0  0  0  0
  146.7767  142.8534  156.1520 H   0  0  0  0  0  0  0  0  0  0  0  0
  145.1328  143.2070  155.8089 H   0  0  0  0  0  0  0  0  0  0  0  0
  145.5616  140.9525  156.9893 H   0  0  0  0  0  0  0  0  0  0  0  0
  144.4990  140.9399  155.6119 H   0  0  0  0  0  0  0  0  0  0  0  0
  145.8724  139.0519  155.3846 H   0  0  0  0  0  0  0  0  0  0  0  0
  147.8134  139.7620  156.8490 H   0  0  0  0  0  0  0  0  0  0  0  0
  148.1950  138.8561  155.4320 H   0  0  0  0  0  0  0  0  0  0  0  0
  149.8185  140.3738  155.2427 H   0  0  0  0  0  0  0  0  0  0  0  0
  148.6177  142.8214  156.1199 H   0  0  0  0  0  0  0  0  0  0  0  0
  153.6060  142.6719  160.4382 H   0  0  0  0  0  0  0  0  0  0  0  0
  152.3407  145.1276  160.9986 H   0  0  0  0  0  0  0  0  0  0  0  0
  149.1002  140.8284  153.1627 H   0  0  0  0  0  0  0  0  0  0  0  0
  149.0354  142.4457  153.7525 H   0  0  0  0  0  0  0  0  0  0  0  0
  145.4264  140.3984  153.4985 H   0  0  0  0  0  0  0  0  0  0  0  0
  1  2  1  0  0  0  0
  1 20  1  0  0  0  0
  1 21  1  0  0  0  0
  1 22  1  0  0  0  0
  2  7  1  0  0  0  0
  2  3  1  0  0  0  0
  2 39  1  0  0  0  0
  3 19  1  0  0  0  0
  3  4  1  0  0  0  0
  3 23  1  0  0  0  0
  4  5  1  0  0  0  0
  4 24  1  0  0  0  0
  4 25  1  0  0  0  0
  5  6  1  0  0  0  0
  5 26  1  0  0  0  0
  5 27  1  0  0  0  0
  6  7  1  0  0  0  0
  6 28  1  0  0  0  0
  6 29  1  0  0  0  0
  7  8  1  0  0  0  0
  7 30  1  0  0  0  0
  8  9  1  0  0  0  0
  8 31  1  0  0  0  0
  8 32  1  0  0  0  0
  9 10  1  0  0  0  0
  9 19  1  0  0  0  0
  9 33  1  0  0  0  0
 10 34  1  0  0  0  0
 10 11  1  0  0  0  0
 11 13  1  0  0  0  0
 11 12  2  0  0  0  0
 13 14  1  0  0  0  0
 14 18  1  0  0  0  0
 14 15  2  0  0  0  0
 15 16  1  0  0  0  0
 16 35  1  0  0  0  0
 16 17  2  0  0  0  0
 17 36  1  0  0  0  0
 17 18  1  0  0  0  0
 19 37  1  0  0  0  0
 19 38  1  0  0  0  0
M  CHG  1   2   1
M  CHG  1  13  -1
M  END
> <s_m_source_file>
AV-unprocessed.smi

> <i_m_source_file_index>
2226

> <i_lp_mmshare_version>
43012

> <i_f3d_flags>
0

> <s_epik_input>
W0NIMl0xW0NIMl1bQ0gyXVtDQEhdKE4oW0NIM10pW0NIXTEyKVtDSDJdW0NASF0oW0NIMl0yKVtOSF1DKD1PKVtOSF1jM25bY0hdW2NIXW8z

> <s_epik_cmdline>
J2VwaWtfcHl0aG9uJywgJy1waCcsICc3LjAnLCAnLXRuJywgJzgnLCAnLW1hJywgJzIwMCcsICctbWV0YWxfYmluZGluZycsICctaW1hZScsICc8aW5maWxlLm1hZT4nLCAnLW9tYWUnLCAnPG91dGZpbGUubWFlPic=

> <r_lp_tautomer_probability>
0.107061

> <r_epik_Ionization_Penalty>
10.5612

> <r_epik_Ionization_Penalty_Charging>
7.48913

> <r_epik_Ionization_Penalty_Neutral>
3.07202

> <r_epik_State_Penalty>
5.6431

> <r_epik_Charging_Adjusted_Penalty>
13.1322

> <i_epik_Tot_Q>
0

> <i_epik_Tot_abs_Q>
2

> <r_epik_Metal_State_Penalty>
1.58163

> <b_epik_Metal_Only>
1

> <s_lp_Force_Field>
OPLS_2005

> <r_lp_Energy>
26.6809

> <b_lp_Chiralities_Consistent>
1

> <s_lp_Variant>
AV-unprocessed.smi:2226-20

> <Gold.Version>
5.8.1

> <Gold.Id.Protein>
6NUR|6NUR_protein|mol2

> <Gold.PLP.Fitness>
38.0869

> <Gold.PLP.PLP>
-29.9353

> <Gold.PLP.part.hbond>
-2.0000

> <Gold.PLP.part.metal>
0.0000

> <Gold.PLP.part.buried>
-4.3850

> <Gold.PLP.part.nonpolar>
-23.9338

> <Gold.PLP.part.repulsive>
0.7464

> <Gold.PLP.ligand.clash>
0.0000

> <Gold.PLP.ligand.torsion>
0.4497

> <Gold.PLP.Chemscore.Hbond>
3.0000

> <Gold.PLP.Chemscore.CHOScore>
0.0000

> <Gold.PLP.Chemscore.Metal>
0.0000

> <Gold.Chemscore.Hbonds>
donor molecule, donor type, donor heavy atom, donor atom, acceptor molecule, acceptor atom, score
      L1  H     2    39       P1 10175  2.00
      L1  H    10    34       P1  8028  0.96

> <Gold.PLP.Chemscore.Internal.Correction>
0.0510

> <Gold.Rescore>
     Score         DG    S(hbond)    S(metal)    S(lipo)     H(rot)  DE(clash)    DE(int)     intcor
     15.16     -17.63       1.96        0.00      69.66       1.00       0.63       1.84       ----

> <Gold.Chemscore.Fitness>
15.1645

> <Gold.Chemscore.DG>
-17.6289

> <Gold.Chemscore.ZeroCoef>
-5.4800

> <Gold.Chemscore.Hbond>
1.9635

> <Gold.Chemscore.Metal>
0.0000

> <Gold.Chemscore.Lipo>
69.6648

> <Gold.Chemscore.Internal_Hbond>
0.0000

> <Gold.Chemscore.DEClash>
0.6262

> <Gold.Chemscore.DEInternal>
1.8382

> <Gold.Chemscore.Rot>
1.0000

> <Gold.Chemscore.Internal.Correction>
   9.000000E+99

> <Gold.Chemscore.Hbonds>
donor molecule, donor type, donor heavy atom, donor atom, acceptor molecule, acceptor atom, score
      L1  H     2    39       P1 10175  0.94
      L1  H    10    34       P1  8028  0.90

> <Gold.Chemscore.Hbond.Weighted>
-6.5581

> <Gold.Chemscore.Metal.Weighted>
-0.0000

> <Gold.Chemscore.Lipo.Weighted>
-8.1508

> <Gold.Chemscore.Internal_Hbond.Weighted>
0.0000

> <Gold.Chemscore.DEClash.Weighted>
0.6262

> <Gold.Chemscore.DEInternal.Weighted>
1.8382

> <Gold.Chemscore.Rot.Weighted>
2.5600

> <Gold.Chemscore.Internal.Correction.Weighted>
   9.000000E+99

> <Gold.Protein.RotatedTorsions>
[ 6907 6896 6895 6894 ] final   42.32 input  -60.11 | X-H torsion
[ 7974 7965 7964 7962 ] final   -1.04 input  175.53 | X-H torsion
[ 8008 7997 7996 7995 ] final   -9.98 input   59.86 | X-H torsion
[ 10167 10162 10161 10158 ] final  -34.42 input  -65.29 | X-H torsion
[ 10718 10713 10712 10709 ] final -132.08 input   66.30 | X-H torsion
[ 10763 10752 10751 10750 ] final -125.10 input  -60.55 | X-H torsion
[ 11005 11000 10999 10996 ] final   29.24 input  -57.11 | X-H torsion

> <Gold.Protein.ActiveResidues>
 VAL166  LYS551  ARG553  GLY616  TRP617  ASP618  TYR619  PRO620  LYS621  CYS622 
 ASP623  PHE694  ASN695  SER759  ASP760  ASP761  ALA762  ILE779  LEU786  VAL792 
 PHE793  MET794  SER795  GLU796  ALA797  LYS798  CYS799  TRP800  GLU811  SER814 

> <Gold.Protein.RotatedAtoms>
  152.2063  134.8542  160.0502 H   0  0  0  0  0  0  0  0  0  0  0  0  # atno 6907 bound_to 6896
  151.9377  133.3624  159.3962 H   0  0  0  0  0  0  0  0  0  0  0  0  # atno 6908 bound_to 6896
  150.6966  134.4396  159.5330 H   0  0  0  0  0  0  0  0  0  0  0  0  # atno 6909 bound_to 6896
  146.2421  140.1361  142.8336 H   0  0  0  0  0  0  0  0  0  0  0  0  # atno 7974 bound_to 7965
  154.5596  140.2341  155.8356 H   0  0  0  0  0  0  0  0  0  0  0  0  # atno 8008 bound_to 7997
  156.2018  140.3050  155.9502 H   0  0  0  0  0  0  0  0  0  0  0  0  # atno 8009 bound_to 7997
  155.2914  140.0427  157.3014 H   0  0  0  0  0  0  0  0  0  0  0  0  # atno 8010 bound_to 7997
  140.7186  143.3549  151.2080 H   0  0  0  0  0  0  0  0  0  0  0  0  # atno 10167 bound_to 10162
  156.2309  130.7037  151.0857 H   0  0  0  0  0  0  0  0  0  0  0  0  # atno 10718 bound_to 10713
  154.8732  135.4041  154.3213 H   0  0  0  0  0  0  0  0  0  0  0  0  # atno 10763 bound_to 10752
  153.4041  135.7019  153.6410 H   0  0  0  0  0  0  0  0  0  0  0  0  # atno 10764 bound_to 10752
  153.5141  135.3701  155.2571 H   0  0  0  0  0  0  0  0  0  0  0  0  # atno 10765 bound_to 10752
  140.3071  134.2691  155.7741 H   0  0  0  0  0  0  0  0  0  0  0  0  # atno 11005 bound_to 11000
  145.0286  140.8852  143.5123 LP  0  0  0  0  0  0  0  0  0  0  0  0  # atno 17320 bound_to 7965
  145.1421  139.2566  143.5485 LP  0  0  0  0  0  0  0  0  0  0  0  0  # atno 17321 bound_to 7965
  139.7088  143.9411  152.2938 LP  0  0  0  0  0  0  0  0  0  0  0  0  # atno 17342 bound_to 10162
  139.9129  144.6846  150.8543 LP  0  0  0  0  0  0  0  0  0  0  0  0  # atno 17343 bound_to 10162
  157.7132  131.0723  150.6423 LP  0  0  0  0  0  0  0  0  0  0  0  0  # atno 17370 bound_to 10713
  156.6491  130.4480  149.5726 LP  0  0  0  0  0  0  0  0  0  0  0  0  # atno 17371 bound_to 10713
  141.2116  133.7684  156.9853 LP  0  0  0  0  0  0  0  0  0  0  0  0  # atno 17394 bound_to 11000
  140.1057  134.9508  157.1991 LP  0  0  0  0  0  0  0  0  0  0  0  0  # atno 17395 bound_to 11000

$$$$
