AV-unprocessed.smi:273|AV-procd|sdf|2057|dock3
  -GOLD-   2262021303D 1   1.00000     0.00000
 Structure written by MMmdl.
 59 62  0  0  0  0  0  0  0  0  1 V2000
  145.2737  131.0477  151.7023 C   0  0  0  0  0  0  0  0  0  0  0  0
  146.2189  130.2609  152.6196 C   0  0  0  0  0  0  0  0  0  0  0  0
  147.5229  130.9055  152.7205 N   0  0  0  0  0  0  0  0  0  0  0  0
  148.1841  131.1390  153.8649 C   0  0  0  0  0  0  0  0  0  0  0  0
  147.7321  130.8375  154.9695 O   0  0  0  0  0  0  0  0  0  0  0  0
  149.5642  131.8095  153.7289 C   0  0  0  0  0  0  0  0  0  0  0  0
  150.3843  131.7521  155.0374 C   0  0  0  0  0  0  0  0  0  0  0  0
  149.9105  132.7677  156.0940 C   0  0  0  0  0  0  0  0  0  0  0  0
  149.8497  134.1171  155.5338 N   0  0  0  0  0  0  0  0  0  0  0  0
  149.7829  135.1099  156.4580 C   0  0  0  0  0  0  0  0  0  0  0  0
  148.8004  135.0961  157.3991 N   0  0  0  0  0  0  0  0  0  0  0  0
  148.7296  136.0632  158.3183 C   0  0  0  0  0  0  0  0  0  0  0  0
  149.5236  137.1234  158.4765 N   0  0  0  0  0  0  0  0  0  0  0  0
  150.5084  137.1470  157.5340 C   0  0  0  0  0  0  0  0  0  0  0  0
  150.7082  136.1917  156.4971 C   0  0  0  0  0  0  0  0  0  0  0  0
  151.8012  136.5614  155.7210 N   0  0  0  0  0  0  0  0  0  0  0  0
  152.2288  137.6636  156.2737 C   0  0  0  0  0  0  0  0  0  0  0  0
  151.5158  138.0819  157.3742 N   0  0  0  0  0  0  0  0  0  0  0  0
  151.7641  139.2691  158.1749 C   0  0  0  0  0  0  0  0  0  0  0  0
  151.5809  140.5968  157.3946 C   0  0  1  0  0  0  0  0  0  0  0  0
  150.3780  140.5132  156.4195 C   0  0  0  0  0  0  0  0  0  0  0  0
  150.7738  140.0996  155.1288 O   0  0  0  0  0  0  0  0  0  0  0  0
  151.4567  141.7907  158.3815 C   0  0  1  0  0  0  0  0  0  0  0  0
  152.6086  141.9328  159.3632 C   0  0  0  0  0  0  0  0  0  0  0  0
  152.4482  143.3671  159.8546 C   0  0  0  0  0  0  0  0  0  0  0  0
  151.9000  144.0891  158.7588 O   0  0  0  0  0  0  0  0  0  0  0  0
  151.4808  143.1844  157.7424 C   0  0  0  0  0  0  0  0  0  0  0  0
  149.0249  134.2547  154.3320 C   0  0  0  0  0  0  0  0  0  0  0  0
  149.4746  133.2710  153.2353 C   0  0  0  0  0  0  0  0  0  0  0  0
  144.2929  130.5740  151.6583 H   0  0  0  0  0  0  0  0  0  0  0  0
  145.6606  131.1011  150.6843 H   0  0  0  0  0  0  0  0  0  0  0  0
  145.1342  132.0673  152.0623 H   0  0  0  0  0  0  0  0  0  0  0  0
  145.7915  130.1985  153.6206 H   0  0  0  0  0  0  0  0  0  0  0  0
  146.3273  129.2349  152.2643 H   0  0  0  0  0  0  0  0  0  0  0  0
  147.9618  131.1846  151.8550 H   0  0  0  0  0  0  0  0  0  0  0  0
  150.1165  131.2464  152.9747 H   0  0  0  0  0  0  0  0  0  0  0  0
  150.3590  130.7461  155.4585 H   0  0  0  0  0  0  0  0  0  0  0  0
  151.4312  131.9513  154.8048 H   0  0  0  0  0  0  0  0  0  0  0  0
  148.9231  132.4976  156.4687 H   0  0  0  0  0  0  0  0  0  0  0  0
  150.5816  132.7228  156.9508 H   0  0  0  0  0  0  0  0  0  0  0  0
  147.9219  135.9733  159.0296 H   0  0  0  0  0  0  0  0  0  0  0  0
  153.0845  138.2022  155.8930 H   0  0  0  0  0  0  0  0  0  0  0  0
  151.1000  139.2496  159.0399 H   0  0  0  0  0  0  0  0  0  0  0  0
  152.7793  139.1832  158.5616 H   0  0  0  0  0  0  0  0  0  0  0  0
  152.4826  140.7446  156.7981 H   0  0  0  0  0  0  0  0  0  0  0  0
  149.6401  139.7850  156.7534 H   0  0  0  0  0  0  0  0  0  0  0  0
  149.8643  141.4728  156.3550 H   0  0  0  0  0  0  0  0  0  0  0  0
  150.9435  139.1702  155.1488 H   0  0  0  0  0  0  0  0  0  0  0  0
  150.5327  141.6894  158.9533 H   0  0  0  0  0  0  0  0  0  0  0  0
  152.5725  141.2136  160.1816 H   0  0  0  0  0  0  0  0  0  0  0  0
  153.5637  141.8181  158.8484 H   0  0  0  0  0  0  0  0  0  0  0  0
  151.7415  143.4082  160.6844 H   0  0  0  0  0  0  0  0  0  0  0  0
  153.3906  143.8016  160.1893 H   0  0  0  0  0  0  0  0  0  0  0  0
  152.2087  143.2256  156.9311 H   0  0  0  0  0  0  0  0  0  0  0  0
  150.5103  143.4780  157.3422 H   0  0  0  0  0  0  0  0  0  0  0  0
  147.9784  134.0892  154.5886 H   0  0  0  0  0  0  0  0  0  0  0  0
  149.0985  135.2728  153.9472 H   0  0  0  0  0  0  0  0  0  0  0  0
  150.4556  133.5780  152.8707 H   0  0  0  0  0  0  0  0  0  0  0  0
  148.8032  133.3439  152.3789 H   0  0  0  0  0  0  0  0  0  0  0  0
  1  2  1  0  0  0  0
  1 30  1  0  0  0  0
  1 31  1  0  0  0  0
  1 32  1  0  0  0  0
  2  3  1  0  0  0  0
  2 33  1  0  0  0  0
  2 34  1  0  0  0  0
  3  4  1  0  0  0  0
  3 35  1  0  0  0  0
  4  5  2  0  0  0  0
  4  6  1  0  0  0  0
  6 29  1  0  0  0  0
  6  7  1  0  0  0  0
  6 36  1  0  0  0  0
  7  8  1  0  0  0  0
  7 37  1  0  0  0  0
  7 38  1  0  0  0  0
  8  9  1  0  0  0  0
  8 39  1  0  0  0  0
  8 40  1  0  0  0  0
  9 10  1  0  0  0  0
  9 28  1  0  0  0  0
 10 15  1  0  0  0  0
 10 11  2  0  0  0  0
 11 12  1  0  0  0  0
 12 13  2  0  0  0  0
 12 41  1  0  0  0  0
 13 14  1  0  0  0  0
 14 18  1  0  0  0  0
 14 15  2  0  0  0  0
 15 16  1  0  0  0  0
 16 17  2  0  0  0  0
 17 18  1  0  0  0  0
 17 42  1  0  0  0  0
 18 19  1  0  0  0  0
 19 20  1  0  0  0  0
 19 43  1  0  0  0  0
 19 44  1  0  0  0  0
 20 21  1  0  0  0  0
 20 23  1  0  0  0  0
 20 45  1  0  0  0  0
 21 22  1  0  0  0  0
 21 46  1  0  0  0  0
 21 47  1  0  0  0  0
 22 48  1  0  0  0  0
 23 27  1  0  0  0  0
 23 24  1  0  0  0  0
 23 49  1  0  0  0  0
 24 25  1  0  0  0  0
 24 50  1  0  0  0  0
 24 51  1  0  0  0  0
 25 26  1  0  0  0  0
 25 52  1  0  0  0  0
 25 53  1  0  0  0  0
 26 27  1  0  0  0  0
 27 54  1  0  0  0  0
 27 55  1  0  0  0  0
 28 29  1  0  0  0  0
 28 56  1  0  0  0  0
 28 57  1  0  0  0  0
 29 58  1  0  0  0  0
 29 59  1  0  0  0  0
M  END
> <s_m_source_file>
AV-unprocessed.smi

> <i_m_source_file_index>
273

> <i_lp_mmshare_version>
43012

> <i_f3d_flags>
0

> <s_epik_input>
W0NIM11bQ0gyXVtOSF1DKD1PKVtDSF0xW0NIMl1bQ0gyXU4oW0NIMl1bQ0gyXTEpYyhuW2NIXW4yKWMoYzIzKW5bY0hdbjNbQ0gyXVtDQEhdKFtDSDJdW09IXSlbQ0BASF00W0NIMl1bQ0gyXU9bQ0gyXTQ=

> <s_epik_cmdline>
J2VwaWtfcHl0aG9uJywgJy1waCcsICc3LjAnLCAnLXRuJywgJzgnLCAnLW1hJywgJzIwMCcsICctbWV0YWxfYmluZGluZycsICctaW1hZScsICc8aW5maWxlLm1hZT4nLCAnLW9tYWUnLCAnPG91dGZpbGUubWFlPic=

> <r_lp_tautomer_probability>
1

> <r_epik_Ionization_Penalty>
0.00226556

> <r_epik_Ionization_Penalty_Charging>
0

> <r_epik_Ionization_Penalty_Neutral>
0.00226556

> <r_epik_State_Penalty>
0.00139883

> <r_epik_Charging_Adjusted_Penalty>
0.00139883

> <i_epik_Tot_Q>
0

> <i_epik_Tot_abs_Q>
0

> <r_epik_Metal_State_Penalty>
-0

> <b_epik_Metal_Only>
0

> <s_lp_Force_Field>
OPLS_2005

> <r_lp_Energy>
41.2023

> <b_lp_Chiralities_Consistent>
1

> <s_lp_Variant>
AV-unprocessed.smi:273-4

> <Gold.Version>
5.8.1

> <Gold.Id.Protein>
6NUR|6NUR_protein|mol2

> <Gold.PLP.Fitness>
48.2135

> <Gold.PLP.PLP>
-41.2502

> <Gold.PLP.part.hbond>
-3.0000

> <Gold.PLP.part.metal>
0.0000

> <Gold.PLP.part.buried>
-7.7807

> <Gold.PLP.part.nonpolar>
-29.7172

> <Gold.PLP.part.repulsive>
0.1335

> <Gold.PLP.ligand.clash>
0.0000

> <Gold.PLP.ligand.torsion>
1.3450

> <Gold.PLP.Chemscore.Hbond>
3.0000

> <Gold.PLP.Chemscore.CHOScore>
0.0000

> <Gold.PLP.Chemscore.Metal>
0.0000

> <Gold.Chemscore.Hbonds>
donor molecule, donor type, donor heavy atom, donor atom, acceptor molecule, acceptor atom, score
      L1  H     3    35       P1 10747  1.00
      P1  H  7989  7998       L1    22  1.00
      P1  H 10752 10764       L1    16  0.99

> <Gold.PLP.Chemscore.Internal.Correction>
0.6533

> <Gold.Rescore>
     Score         DG    S(hbond)    S(metal)    S(lipo)     H(rot)  DE(clash)    DE(int)     intcor
     16.90     -19.19       2.87        0.00     105.77       3.22       0.23       2.06       ----

> <Gold.Chemscore.Fitness>
16.8995

> <Gold.Chemscore.DG>
-19.1901

> <Gold.Chemscore.ZeroCoef>
-5.4800

> <Gold.Chemscore.Hbond>
2.8711

> <Gold.Chemscore.Metal>
0.0000

> <Gold.Chemscore.Lipo>
105.7697

> <Gold.Chemscore.Internal_Hbond>
0.0000

> <Gold.Chemscore.DEClash>
0.2315

> <Gold.Chemscore.DEInternal>
2.0590

> <Gold.Chemscore.Rot>
3.2244

> <Gold.Chemscore.Internal.Correction>
   9.000000E+99

> <Gold.Chemscore.Hbonds>
donor molecule, donor type, donor heavy atom, donor atom, acceptor molecule, acceptor atom, score
      L1  H     3    35       P1 10747  0.97
      P1  H  7989  7998       L1    22  0.68
      P1  H 10752 10764       L1    16  0.81

> <Gold.Chemscore.Hbond.Weighted>
-9.5895

> <Gold.Chemscore.Metal.Weighted>
-0.0000

> <Gold.Chemscore.Lipo.Weighted>
-12.3751

> <Gold.Chemscore.Internal_Hbond.Weighted>
0.0000

> <Gold.Chemscore.DEClash.Weighted>
0.2315

> <Gold.Chemscore.DEInternal.Weighted>
2.0590

> <Gold.Chemscore.Rot.Weighted>
8.2545

> <Gold.Chemscore.Internal.Correction.Weighted>
   9.000000E+99

> <Gold.Protein.RotatedTorsions>
[ 6907 6896 6895 6894 ] final   23.83 input  -60.11 | X-H torsion
[ 7974 7965 7964 7962 ] final  175.96 input  175.53 | X-H torsion
[ 8008 7997 7996 7995 ] final  123.28 input   59.86 | X-H torsion
[ 10167 10162 10161 10158 ] final  -39.78 input  -65.29 | X-H torsion
[ 10718 10713 10712 10709 ] final -137.59 input   66.30 | X-H torsion
[ 10763 10752 10751 10750 ] final  -24.13 input  -60.55 | X-H torsion
[ 11005 11000 10999 10996 ] final -121.97 input  -57.11 | X-H torsion

> <Gold.Protein.ActiveResidues>
 VAL166  LYS551  ARG553  GLY616  TRP617  ASP618  TYR619  PRO620  LYS621  CYS622 
 ASP623  PHE694  ASN695  SER759  ASP760  ASP761  ALA762  ILE779  LEU786  VAL792 
 PHE793  MET794  SER795  GLU796  ALA797  LYS798  CYS799  TRP800  GLU811  SER814 

> <Gold.Protein.RotatedAtoms>
  151.9484  135.0181  160.0540 H   0  0  0  0  0  0  0  0  0  0  0  0  # atno 6907 bound_to 6896
  152.1975  133.4812  159.5049 H   0  0  0  0  0  0  0  0  0  0  0  0  # atno 6908 bound_to 6896
  150.6947  134.1550  159.4197 H   0  0  0  0  0  0  0  0  0  0  0  0  # atno 6909 bound_to 6896
  144.7192  140.0025  143.6440 H   0  0  0  0  0  0  0  0  0  0  0  0  # atno 7974 bound_to 7965
  156.2760  140.2766  156.1603 H   0  0  0  0  0  0  0  0  0  0  0  0  # atno 8008 bound_to 7997
  155.0761  140.0387  157.2642 H   0  0  0  0  0  0  0  0  0  0  0  0  # atno 8009 bound_to 7997
  154.7001  140.2647  155.6733 H   0  0  0  0  0  0  0  0  0  0  0  0  # atno 8010 bound_to 7997
  140.7054  143.3193  151.2831 H   0  0  0  0  0  0  0  0  0  0  0  0  # atno 10167 bound_to 10162
  156.2899  130.7369  151.1391 H   0  0  0  0  0  0  0  0  0  0  0  0  # atno 10718 bound_to 10713
  153.6789  135.6968  153.5124 H   0  0  0  0  0  0  0  0  0  0  0  0  # atno 10763 bound_to 10752
  153.2500  135.4278  155.0787 H   0  0  0  0  0  0  0  0  0  0  0  0  # atno 10764 bound_to 10752
  154.8406  135.3529  154.6332 H   0  0  0  0  0  0  0  0  0  0  0  0  # atno 10765 bound_to 10752
  141.0031  134.0374  157.3512 H   0  0  0  0  0  0  0  0  0  0  0  0  # atno 11005 bound_to 11000
  146.0323  139.3346  143.0747 LP  0  0  0  0  0  0  0  0  0  0  0  0  # atno 17320 bound_to 7965
  145.8437  140.9567  143.0786 LP  0  0  0  0  0  0  0  0  0  0  0  0  # atno 17321 bound_to 7965
  139.6642  144.0134  152.2712 LP  0  0  0  0  0  0  0  0  0  0  0  0  # atno 17342 bound_to 10162
  139.9712  144.6492  150.7987 LP  0  0  0  0  0  0  0  0  0  0  0  0  # atno 17343 bound_to 10162
  157.7339  131.0586  150.5551 LP  0  0  0  0  0  0  0  0  0  0  0  0  # atno 17370 bound_to 10713
  156.5667  130.4269  149.6038 LP  0  0  0  0  0  0  0  0  0  0  0  0  # atno 17371 bound_to 10713
  139.9049  135.0176  156.7439 LP  0  0  0  0  0  0  0  0  0  0  0  0  # atno 17394 bound_to 11000
  140.6857  133.9434  155.7936 LP  0  0  0  0  0  0  0  0  0  0  0  0  # atno 17395 bound_to 11000

$$$$
