AV-unprocessed.smi:95|AV-procd|sdf|856|dock7
  -GOLD-   2262017303D 1   1.00000     0.00000
 Structure written by MMmdl.
 41 44  0  0  0  0  0  0  0  0  1 V2000
  152.1305  136.6127  155.8590 O   0  0  0  0  0  0  0  0  0  0  0  0
  151.0179  136.9971  155.4939 C   0  0  0  0  0  0  0  0  0  0  0  0
  149.8425  136.1343  155.4520 C   0  0  0  0  0  0  0  0  0  0  0  0
  149.9522  134.8440  155.8113 F   0  0  0  0  0  0  0  0  0  0  0  0
  148.6406  136.6100  155.0597 C   0  0  0  0  0  0  0  0  0  0  0  0
  148.4373  137.9254  154.6739 N   0  0  0  0  0  0  0  0  0  0  0  0
  147.0754  138.4417  154.2579 C   0  0  1  0  0  0  0  0  0  0  0  0
  147.1134  138.9712  152.8110 C   0  0  0  0  0  0  0  0  0  0  0  0
  145.9582  138.2409  152.1553 C   0  0  0  0  0  0  0  0  0  0  0  0
  145.9041  136.9504  152.9588 C   0  0  0  0  0  0  0  0  0  0  0  0
  146.1414  137.3999  154.2861 O   0  0  0  0  0  0  0  0  0  0  0  0
  149.5180  138.8344  154.6940 C   0  0  0  0  0  0  0  0  0  0  0  0
  149.3505  140.0165  154.3847 O   0  0  0  0  0  0  0  0  0  0  0  0
  150.7812  138.3328  155.0891 N   0  0  0  0  0  0  0  0  0  0  0  0
  151.9067  139.2539  155.1448 C   0  0  0  0  0  0  0  0  0  0  0  0
  151.8461  140.3034  156.2493 C   0  0  0  0  0  0  0  0  0  0  0  0
  150.9679  141.3986  156.1278 C   0  0  0  0  0  0  0  0  0  0  0  0
  150.9243  142.3431  157.1691 C   0  0  0  0  0  0  0  0  0  0  0  0
  151.7544  142.1559  158.2929 C   0  0  0  0  0  0  0  0  0  0  0  0
  151.7339  143.0855  159.3532 C   0  0  0  0  0  0  0  0  0  0  0  0
  152.5649  142.8937  160.4720 C   0  0  0  0  0  0  0  0  0  0  0  0
  153.4141  141.7736  160.5296 C   0  0  0  0  0  0  0  0  0  0  0  0
  153.4317  140.8462  159.4697 C   0  0  0  0  0  0  0  0  0  0  0  0
  152.6069  141.0186  158.3377 C   0  0  0  0  0  0  0  0  0  0  0  0
  152.6383  140.1171  157.3305 N   0  0  0  0  0  0  0  0  0  0  0  0
  147.8139  135.9164  155.0579 H   0  0  0  0  0  0  0  0  0  0  0  0
  146.8050  139.1924  155.0029 H   0  0  0  0  0  0  0  0  0  0  0  0
  147.0049  140.0560  152.7882 H   0  0  0  0  0  0  0  0  0  0  0  0
  148.0555  138.6990  152.3325 H   0  0  0  0  0  0  0  0  0  0  0  0
  145.0335  138.8036  152.2895 H   0  0  0  0  0  0  0  0  0  0  0  0
  146.1075  138.0745  151.0882 H   0  0  0  0  0  0  0  0  0  0  0  0
  144.9462  136.4373  152.8731 H   0  0  0  0  0  0  0  0  0  0  0  0
  146.6927  136.2646  152.6462 H   0  0  0  0  0  0  0  0  0  0  0  0
  152.8072  138.6443  155.2400 H   0  0  0  0  0  0  0  0  0  0  0  0
  152.0081  139.7408  154.1745 H   0  0  0  0  0  0  0  0  0  0  0  0
  150.3421  141.5151  155.2550 H   0  0  0  0  0  0  0  0  0  0  0  0
  150.2635  143.1949  157.1029 H   0  0  0  0  0  0  0  0  0  0  0  0
  151.0829  143.9467  159.3124 H   0  0  0  0  0  0  0  0  0  0  0  0
  152.5510  143.6050  161.2849 H   0  0  0  0  0  0  0  0  0  0  0  0
  154.0530  141.6245  161.3876 H   0  0  0  0  0  0  0  0  0  0  0  0
  154.0884  139.9905  159.5269 H   0  0  0  0  0  0  0  0  0  0  0  0
  1  2  2  0  0  0  0
  2 14  1  0  0  0  0
  2  3  1  0  0  0  0
  3  4  1  0  0  0  0
  3  5  2  0  0  0  0
  5  6  1  0  0  0  0
  5 26  1  0  0  0  0
  6  7  1  0  0  0  0
  6 12  1  0  0  0  0
  7 11  1  0  0  0  0
  7  8  1  0  0  0  0
  7 27  1  0  0  0  0
  8  9  1  0  0  0  0
  8 28  1  0  0  0  0
  8 29  1  0  0  0  0
  9 10  1  0  0  0  0
  9 30  1  0  0  0  0
  9 31  1  0  0  0  0
 10 11  1  0  0  0  0
 10 32  1  0  0  0  0
 10 33  1  0  0  0  0
 12 13  2  0  0  0  0
 12 14  1  0  0  0  0
 14 15  1  0  0  0  0
 15 16  1  0  0  0  0
 15 34  1  0  0  0  0
 15 35  1  0  0  0  0
 16 25  1  0  0  0  0
 16 17  2  0  0  0  0
 17 18  1  0  0  0  0
 17 36  1  0  0  0  0
 18 19  2  0  0  0  0
 18 37  1  0  0  0  0
 19 24  1  0  0  0  0
 19 20  1  0  0  0  0
 20 21  2  0  0  0  0
 20 38  1  0  0  0  0
 21 22  1  0  0  0  0
 21 39  1  0  0  0  0
 22 23  2  0  0  0  0
 22 40  1  0  0  0  0
 23 24  1  0  0  0  0
 23 41  1  0  0  0  0
 24 25  2  0  0  0  0
M  END
> <s_m_source_file>
AV-unprocessed.smi

> <i_m_source_file_index>
95

> <i_lp_mmshare_version>
43012

> <i_f3d_flags>
0

> <s_epik_input>
TzFbQ0gyXVtDSDJdW0NIMl1bQ0BIXTFuKFtjSF1jKEYpYzI9TyljKD1PKW4yW0NIMl1jKFtjSF1bY0hdMyluYyhjMzQpW2NIXVtjSF1bY0hdW2NIXTQ=

> <s_epik_cmdline>
J2VwaWtfcHl0aG9uJywgJy1waCcsICc3LjAnLCAnLXRuJywgJzgnLCAnLW1hJywgJzIwMCcsICctbWV0YWxfYmluZGluZycsICctaW1hZScsICc8aW5maWxlLm1hZT4nLCAnLW9tYWUnLCAnPG91dGZpbGUubWFlPic=

> <r_lp_tautomer_probability>
1

> <r_epik_Ionization_Penalty>
0.0274176

> <r_epik_Ionization_Penalty_Charging>
1.11818e-08

> <r_epik_Ionization_Penalty_Neutral>
0.0274176

> <r_epik_State_Penalty>
0.0224396

> <r_epik_Charging_Adjusted_Penalty>
0.0224396

> <i_epik_Tot_Q>
0

> <i_epik_Tot_abs_Q>
0

> <r_epik_Metal_State_Penalty>
2.28695e-05

> <b_epik_Metal_Only>
0

> <s_epik_Chemistry_Notes>
This compound contains an acetal/aminal-like group ( X-CH(R)-Y where X, Y are N, S, or O) that may be acid/base labile, releasing an aldehyde.

> <s_lp_Force_Field>
OPLS_2005

> <r_lp_Energy>
34.6925

> <b_lp_Chiralities_Consistent>
1

> <s_lp_Variant>
AV-unprocessed.smi:95-2

> <Gold.Version>
5.8.1

> <Gold.Id.Protein>
6NUR|6NUR_protein|mol2

> <Gold.PLP.Fitness>
49.1149

> <Gold.PLP.PLP>
-43.6904

> <Gold.PLP.part.hbond>
-2.0000

> <Gold.PLP.part.metal>
0.0000

> <Gold.PLP.part.buried>
-3.4365

> <Gold.PLP.part.nonpolar>
-38.9645

> <Gold.PLP.part.repulsive>
0.2254

> <Gold.PLP.ligand.clash>
0.0000

> <Gold.PLP.ligand.torsion>
0.2946

> <Gold.PLP.Chemscore.Hbond>
2.0000

> <Gold.PLP.Chemscore.CHOScore>
0.0000

> <Gold.PLP.Chemscore.Metal>
0.0000

> <Gold.Chemscore.Hbonds>
donor molecule, donor type, donor heavy atom, donor atom, acceptor molecule, acceptor atom, score
      P1  H  7997  8010       L1    25  1.00
      P1  H 10752 10763       L1     1  1.00

> <Gold.PLP.Chemscore.Internal.Correction>
0.0137

> <Gold.Rescore>
     Score         DG    S(hbond)    S(metal)    S(lipo)     H(rot)  DE(clash)    DE(int)     intcor
     17.00     -20.08       1.53        0.00     114.06       1.50       0.20       2.88       ----

> <Gold.Chemscore.Fitness>
16.9999

> <Gold.Chemscore.DG>
-20.0848

> <Gold.Chemscore.ZeroCoef>
-5.4800

> <Gold.Chemscore.Hbond>
1.5259

> <Gold.Chemscore.Metal>
0.0000

> <Gold.Chemscore.Lipo>
114.0554

> <Gold.Chemscore.Internal_Hbond>
0.0000

> <Gold.Chemscore.DEClash>
0.2049

> <Gold.Chemscore.DEInternal>
2.8800

> <Gold.Chemscore.Rot>
1.4985

> <Gold.Chemscore.Internal.Correction>
   9.000000E+99

> <Gold.Chemscore.Hbonds>
donor molecule, donor type, donor heavy atom, donor atom, acceptor molecule, acceptor atom, score
      P1  H  7997  8010       L1    25  0.32
      P1  H 10752 10763       L1     1  0.98

> <Gold.Chemscore.Hbond.Weighted>
-5.0965

> <Gold.Chemscore.Metal.Weighted>
-0.0000

> <Gold.Chemscore.Lipo.Weighted>
-13.3445

> <Gold.Chemscore.Internal_Hbond.Weighted>
0.0000

> <Gold.Chemscore.DEClash.Weighted>
0.2049

> <Gold.Chemscore.DEInternal.Weighted>
2.8800

> <Gold.Chemscore.Rot.Weighted>
3.8362

> <Gold.Chemscore.Internal.Correction.Weighted>
   9.000000E+99

> <Gold.Protein.RotatedTorsions>
[ 6907 6896 6895 6894 ] final -152.47 input  -60.11 | X-H torsion
[ 7974 7965 7964 7962 ] final -122.91 input  175.53 | X-H torsion
[ 8008 7997 7996 7995 ] final   57.55 input   59.86 | X-H torsion
[ 10167 10162 10161 10158 ] final   26.72 input  -65.29 | X-H torsion
[ 10718 10713 10712 10709 ] final  -70.90 input   66.30 | X-H torsion
[ 10763 10752 10751 10750 ] final   91.64 input  -60.55 | X-H torsion
[ 11005 11000 10999 10996 ] final -102.04 input  -57.11 | X-H torsion

> <Gold.Protein.ActiveResidues>
 VAL166  LYS551  ARG553  GLY616  TRP617  ASP618  TYR619  PRO620  LYS621  CYS622 
 ASP623  PHE694  ASN695  SER759  ASP760  ASP761  ALA762  ILE779  LEU786  VAL792 
 PHE793  MET794  SER795  GLU796  ALA797  LYS798  CYS799  TRP800  GLU811  SER814 

> <Gold.Protein.RotatedAtoms>
  151.2282  133.4465  159.2602 H   0  0  0  0  0  0  0  0  0  0  0  0  # atno 6907 bound_to 6896
  151.0819  134.9864  159.8370 H   0  0  0  0  0  0  0  0  0  0  0  0  # atno 6908 bound_to 6896
  152.5425  134.2221  159.8844 H   0  0  0  0  0  0  0  0  0  0  0  0  # atno 6909 bound_to 6896
  145.0244  140.8015  143.4362 H   0  0  0  0  0  0  0  0  0  0  0  0  # atno 7974 bound_to 7965
  155.5357  140.3483  155.4436 H   0  0  0  0  0  0  0  0  0  0  0  0  # atno 8008 bound_to 7997
  156.0687  140.1357  156.9881 H   0  0  0  0  0  0  0  0  0  0  0  0  # atno 8009 bound_to 7997
  154.4517  140.0970  156.6611 H   0  0  0  0  0  0  0  0  0  0  0  0  # atno 8010 bound_to 7997
  140.4999  144.0331  150.6329 H   0  0  0  0  0  0  0  0  0  0  0  0  # atno 10167 bound_to 10162
  156.0387  130.4340  150.2364 H   0  0  0  0  0  0  0  0  0  0  0  0  # atno 10718 bound_to 10713
  153.2105  135.4390  155.0374 H   0  0  0  0  0  0  0  0  0  0  0  0  # atno 10763 bound_to 10752
  154.8197  135.3332  154.7076 H   0  0  0  0  0  0  0  0  0  0  0  0  # atno 10764 bound_to 10752
  153.7514  135.6998  153.5000 H   0  0  0  0  0  0  0  0  0  0  0  0  # atno 10765 bound_to 10752
  141.1206  133.8526  157.1309 H   0  0  0  0  0  0  0  0  0  0  0  0  # atno 11005 bound_to 11000
  145.1853  139.2329  143.5271 LP  0  0  0  0  0  0  0  0  0  0  0  0  # atno 17320 bound_to 7965
  146.3490  140.1637  142.8590 LP  0  0  0  0  0  0  0  0  0  0  0  0  # atno 17321 bound_to 7965
  140.3624  143.2900  152.0368 LP  0  0  0  0  0  0  0  0  0  0  0  0  # atno 17342 bound_to 10162
  139.4870  144.6292  151.7103 LP  0  0  0  0  0  0  0  0  0  0  0  0  # atno 17343 bound_to 10162
  157.0461  131.0049  151.3268 LP  0  0  0  0  0  0  0  0  0  0  0  0  # atno 17370 bound_to 10713
  157.5174  130.7976  149.7771 LP  0  0  0  0  0  0  0  0  0  0  0  0  # atno 17371 bound_to 10713
  140.0160  134.9967  157.0494 LP  0  0  0  0  0  0  0  0  0  0  0  0  # atno 17394 bound_to 11000
  140.4519  134.1574  155.7182 LP  0  0  0  0  0  0  0  0  0  0  0  0  # atno 17395 bound_to 11000

$$$$
