AV-unprocessed.smi:2439|AV-procd|sdf|9608|dock8
  -GOLD-   2272013243D 1   1.00000     0.00000
 Structure written by MMmdl.
 41 43  0  0  0  0  0  0  0  0  2 V2000
  151.7662  143.1460  161.1522 N   0  0  0  0  0  0  0  0  0  0  0  0
  152.4956  142.3209  160.7976 C   0  0  0  0  0  0  0  0  0  0  0  0
  153.4147  141.2807  160.3521 C   0  0  0  0  0  0  0  0  0  0  0  0
  154.5840  141.0363  161.1026 C   0  0  0  0  0  0  0  0  0  0  0  0
  155.4758  140.0353  160.6764 C   0  0  0  0  0  0  0  0  0  0  0  0
  155.1599  139.3142  159.5110 C   0  0  0  0  0  0  0  0  0  0  0  0
  154.0455  139.5380  158.7837 N   0  0  0  0  0  0  0  0  0  0  0  0
  153.1806  140.5012  159.1871 C   0  0  0  0  0  0  0  0  0  0  0  0
  152.0256  140.7107  158.4100 N   0  0  0  0  0  0  0  0  0  0  0  0
  151.9216  140.2410  157.0333 C   0  0  0  0  0  0  0  0  0  0  0  0
  150.5063  140.4167  156.4563 C   0  0  1  0  0  0  0  0  0  0  0  0
  149.9627  141.8380  156.7211 C   0  0  0  0  0  0  0  0  0  0  0  0
  148.6518  142.0532  156.0617 N   0  3  2  0  0  0  0  0  0  0  0  0
  147.5147  141.4174  156.7817 C   0  0  0  0  0  0  0  0  0  0  0  0
  146.1761  141.7312  156.0978 C   0  0  0  0  0  0  0  0  0  0  0  0
  146.1993  141.2812  154.6330 C   0  0  0  0  0  0  0  0  0  0  0  0
  147.3754  141.9439  153.9027 C   0  0  0  0  0  0  0  0  0  0  0  0
  148.7248  141.7079  154.6147 C   0  0  2  0  0  0  0  0  0  0  0  0
  149.2949  140.2871  154.4214 C   0  0  0  0  0  0  0  0  0  0  0  0
  150.5699  140.2053  155.0485 O   0  0  0  0  0  0  0  0  0  0  0  0
  154.7995  141.6064  161.9950 H   0  0  0  0  0  0  0  0  0  0  0  0
  156.3787  139.8249  161.2304 H   0  0  0  0  0  0  0  0  0  0  0  0
  155.8191  138.5378  159.1520 H   0  0  0  0  0  0  0  0  0  0  0  0
  151.2766  141.2783  158.7808 H   0  0  0  0  0  0  0  0  0  0  0  0
  152.6512  140.7674  156.4168 H   0  0  0  0  0  0  0  0  0  0  0  0
  152.2067  139.1891  157.0044 H   0  0  0  0  0  0  0  0  0  0  0  0
  149.8398  139.6791  156.9045 H   0  0  0  0  0  0  0  0  0  0  0  0
  149.8796  142.0278  157.7920 H   0  0  0  0  0  0  0  0  0  0  0  0
  150.6655  142.5755  156.3309 H   0  0  0  0  0  0  0  0  0  0  0  0
  147.6496  140.3374  156.8378 H   0  0  0  0  0  0  0  0  0  0  0  0
  147.4902  141.7825  157.8091 H   0  0  0  0  0  0  0  0  0  0  0  0
  145.3617  141.2353  156.6271 H   0  0  0  0  0  0  0  0  0  0  0  0
  145.9752  142.8018  156.1530 H   0  0  0  0  0  0  0  0  0  0  0  0
  146.2854  140.1955  154.5777 H   0  0  0  0  0  0  0  0  0  0  0  0
  145.2600  141.5436  154.1451 H   0  0  0  0  0  0  0  0  0  0  0  0
  147.4245  141.5908  152.8721 H   0  0  0  0  0  0  0  0  0  0  0  0
  147.1898  143.0174  153.8445 H   0  0  0  0  0  0  0  0  0  0  0  0
  149.4418  142.3964  154.1644 H   0  0  0  0  0  0  0  0  0  0  0  0
  148.6290  139.5207  154.8197 H   0  0  0  0  0  0  0  0  0  0  0  0
  149.4191  140.0744  153.3593 H   0  0  0  0  0  0  0  0  0  0  0  0
  148.4716  143.0462  156.1061 H   0  0  0  0  0  0  0  0  0  0  0  0
  1  2  3  0  0  0  0
  2  3  1  0  0  0  0
  3  8  1  0  0  0  0
  3  4  2  0  0  0  0
  4  5  1  0  0  0  0
  4 21  1  0  0  0  0
  5  6  2  0  0  0  0
  5 22  1  0  0  0  0
  6  7  1  0  0  0  0
  6 23  1  0  0  0  0
  7  8  2  0  0  0  0
  8  9  1  0  0  0  0
  9 10  1  0  0  0  0
  9 24  1  0  0  0  0
 10 11  1  0  0  0  0
 10 25  1  0  0  0  0
 10 26  1  0  0  0  0
 11 20  1  0  0  0  0
 11 12  1  0  0  0  0
 11 27  1  0  0  0  0
 12 13  1  0  0  0  0
 12 28  1  0  0  0  0
 12 29  1  0  0  0  0
 13 18  1  0  0  0  0
 13 14  1  0  0  0  0
 13 41  1  0  0  0  0
 14 15  1  0  0  0  0
 14 30  1  0  0  0  0
 14 31  1  0  0  0  0
 15 16  1  0  0  0  0
 15 32  1  0  0  0  0
 15 33  1  0  0  0  0
 16 17  1  0  0  0  0
 16 34  1  0  0  0  0
 16 35  1  0  0  0  0
 17 18  1  0  0  0  0
 17 36  1  0  0  0  0
 17 37  1  0  0  0  0
 18 19  1  0  0  0  0
 18 38  1  0  0  0  0
 19 20  1  0  0  0  0
 19 39  1  0  0  0  0
 19 40  1  0  0  0  0
M  CHG  1  13   1
M  END
> <s_m_source_file>
AV-unprocessed.smi

> <i_m_source_file_index>
2439

> <i_lp_mmshare_version>
43012

> <i_f3d_flags>
0

> <s_epik_input>
TiNDYzFbY0hdW2NIXVtjSF1uYzFbTkhdW0NIMl1bQ0BIXShbQ0gyXTIpT1tDSDJdW0NAQEhdKE4yMylbQ0gyXVtDSDJdW0NIMl1bQ0gyXTM=

> <s_epik_cmdline>
J2VwaWtfcHl0aG9uJywgJy1waCcsICc3LjAnLCAnLXRuJywgJzgnLCAnLW1hJywgJzIwMCcsICctbWV0YWxfYmluZGluZycsICctaW1hZScsICc8aW5maWxlLm1hZT4nLCAnLW9tYWUnLCAnPG91dGZpbGUubWFlPic=

> <r_epik_Ionization_Penalty>
0.0803594

> <r_epik_Ionization_Penalty_Charging>
0.0803403

> <r_epik_Ionization_Penalty_Neutral>
1.90988e-05

> <r_epik_State_Penalty>
0.0711481

> <r_epik_Charging_Adjusted_Penalty>
0.151488

> <i_epik_Tot_Q>
1

> <i_epik_Tot_abs_Q>
1

> <r_epik_Metal_State_Penalty>
0.0711482

> <b_epik_Metal_Only>
0

> <s_lp_Force_Field>
OPLS_2005

> <r_lp_Energy>
31.3602

> <b_lp_Chiralities_Consistent>
1

> <s_lp_Variant>
AV-unprocessed.smi:2439-6

> <Gold.Version>
5.8.1

> <Gold.Id.Protein>
6NUR|6NUR_protein|mol2

> <Gold.PLP.Fitness>
47.7189

> <Gold.PLP.PLP>
-36.5171

> <Gold.PLP.part.hbond>
-3.7598

> <Gold.PLP.part.metal>
0.0000

> <Gold.PLP.part.buried>
-3.4399

> <Gold.PLP.part.nonpolar>
-29.7781

> <Gold.PLP.part.repulsive>
0.3375

> <Gold.PLP.ligand.clash>
0.0000

> <Gold.PLP.ligand.torsion>
0.1747

> <Gold.PLP.Chemscore.Hbond>
3.8500

> <Gold.PLP.Chemscore.CHOScore>
0.0000

> <Gold.PLP.Chemscore.Metal>
0.0000

> <Gold.Chemscore.Hbonds>
donor molecule, donor type, donor heavy atom, donor atom, acceptor molecule, acceptor atom, score
      L1  H    13    41       P1  8028  2.00
      P1  H  7989  7998       L1    20  0.85
      P1  H  7997  8009       L1     7  1.00

> <Gold.PLP.Chemscore.Internal.Correction>
0.0012

> <Gold.Rescore>
     Score         DG    S(hbond)    S(metal)    S(lipo)     H(rot)  DE(clash)    DE(int)     intcor
     18.70     -18.87       2.17        0.00      80.09       1.27       0.07       0.10       ----

> <Gold.Chemscore.Fitness>
18.6974

> <Gold.Chemscore.DG>
-18.8651

> <Gold.Chemscore.ZeroCoef>
-5.4800

> <Gold.Chemscore.Hbond>
2.1721

> <Gold.Chemscore.Metal>
0.0000

> <Gold.Chemscore.Lipo>
80.0936

> <Gold.Chemscore.Internal_Hbond>
0.0000

> <Gold.Chemscore.DEClash>
0.0684

> <Gold.Chemscore.DEInternal>
0.0994

> <Gold.Chemscore.Rot>
1.2659

> <Gold.Chemscore.Internal.Correction>
   9.000000E+99

> <Gold.Chemscore.Hbonds>
donor molecule, donor type, donor heavy atom, donor atom, acceptor molecule, acceptor atom, score
      L1  H    13    41       P1  8028  0.91
      P1  H  6933  6945       L1     1  0.01
      P1  H  7989  7998       L1    20  0.14
      P1  H  7997  8009       L1     7  0.32

> <Gold.Chemscore.Hbond.Weighted>
-7.2549

> <Gold.Chemscore.Metal.Weighted>
-0.0000

> <Gold.Chemscore.Lipo.Weighted>
-9.3710

> <Gold.Chemscore.Internal_Hbond.Weighted>
0.0000

> <Gold.Chemscore.DEClash.Weighted>
0.0684

> <Gold.Chemscore.DEInternal.Weighted>
0.0994

> <Gold.Chemscore.Rot.Weighted>
3.2408

> <Gold.Chemscore.Internal.Correction.Weighted>
   9.000000E+99

> <Gold.Protein.RotatedTorsions>
[ 6907 6896 6895 6894 ] final   65.08 input  -60.11 | X-H torsion
[ 7974 7965 7964 7962 ] final   68.24 input  175.53 | X-H torsion
[ 8008 7997 7996 7995 ] final  152.56 input   59.86 | X-H torsion
[ 10167 10162 10161 10158 ] final  152.41 input  -65.29 | X-H torsion
[ 10718 10713 10712 10709 ] final   43.85 input   66.30 | X-H torsion
[ 10763 10752 10751 10750 ] final  -45.53 input  -60.55 | X-H torsion
[ 11005 11000 10999 10996 ] final -130.76 input  -57.11 | X-H torsion

> <Gold.Protein.ActiveResidues>
 VAL166  LYS551  ARG553  GLY616  TRP617  ASP618  TYR619  PRO620  LYS621  CYS622 
 ASP623  PHE694  ASN695  SER759  ASP760  ASP761  ALA762  ILE779  LEU786  VAL792 
 PHE793  MET794  SER795  GLU796  ALA797  LYS798  CYS799  TRP800  GLU811  SER814 

> <Gold.Protein.RotatedAtoms>
  152.4381  134.5647  159.9903 H   0  0  0  0  0  0  0  0  0  0  0  0  # atno 6907 bound_to 6896
  151.5752  133.3379  159.3005 H   0  0  0  0  0  0  0  0  0  0  0  0  # atno 6908 bound_to 6896
  150.8282  134.7557  159.6895 H   0  0  0  0  0  0  0  0  0  0  0  0  # atno 6909 bound_to 6896
  145.8050  139.3002  143.1132 H   0  0  0  0  0  0  0  0  0  0  0  0  # atno 7974 bound_to 7965
  156.2623  140.2017  156.6352 H   0  0  0  0  0  0  0  0  0  0  0  0  # atno 8008 bound_to 7997
  154.6652  140.0556  157.0130 H   0  0  0  0  0  0  0  0  0  0  0  0  # atno 8009 bound_to 7997
  155.1218  140.3225  155.4498 H   0  0  0  0  0  0  0  0  0  0  0  0  # atno 8010 bound_to 7997
  139.4833  144.5360  151.7644 H   0  0  0  0  0  0  0  0  0  0  0  0  # atno 10167 bound_to 10162
  157.4204  130.7966  149.7510 H   0  0  0  0  0  0  0  0  0  0  0  0  # atno 10718 bound_to 10713
  154.0300  135.6658  153.4780 H   0  0  0  0  0  0  0  0  0  0  0  0  # atno 10763 bound_to 10752
  153.0544  135.5065  154.7942 H   0  0  0  0  0  0  0  0  0  0  0  0  # atno 10764 bound_to 10752
  154.6884  135.3057  154.9480 H   0  0  0  0  0  0  0  0  0  0  0  0  # atno 10765 bound_to 10752
  140.9317  134.1310  157.4228 H   0  0  0  0  0  0  0  0  0  0  0  0  # atno 11005 bound_to 11000
  145.9837  140.8661  143.0101 LP  0  0  0  0  0  0  0  0  0  0  0  0  # atno 17320 bound_to 7965
  144.6764  140.2117  143.7376 LP  0  0  0  0  0  0  0  0  0  0  0  0  # atno 17321 bound_to 7965
  140.4893  144.1334  150.5947 LP  0  0  0  0  0  0  0  0  0  0  0  0  # atno 17342 bound_to 10162
  140.4189  143.2621  151.9740 LP  0  0  0  0  0  0  0  0  0  0  0  0  # atno 17343 bound_to 10162
  155.9879  130.3963  150.3144 LP  0  0  0  0  0  0  0  0  0  0  0  0  # atno 17370 bound_to 10713
  157.1291  131.0267  151.2977 LP  0  0  0  0  0  0  0  0  0  0  0  0  # atno 17371 bound_to 10713
  139.8798  135.0007  156.6027 LP  0  0  0  0  0  0  0  0  0  0  0  0  # atno 17394 bound_to 11000
  140.7853  133.8626  155.8601 LP  0  0  0  0  0  0  0  0  0  0  0  0  # atno 17395 bound_to 11000

$$$$
