AV-unprocessed.smi:1575|AV-procd|sdf|6340|dock2
  -GOLD-   22720 6553D 1   1.00000     0.00000
 Structure written by MMmdl.
 41 41  0  0  0  0  0  0  0  0  1 V2000
  145.9205  137.5003  151.9590 C   0  0  0  0  0  0  0  0  0  0  0  0
  146.4442  136.1483  152.0747 N   0  0  0  0  0  0  0  0  0  0  0  0
  145.7628  135.1170  152.5938 C   0  0  0  0  0  0  0  0  0  0  0  0
  144.6171  135.2227  153.0355 O   0  0  0  0  0  0  0  0  0  0  0  0
  146.5008  133.7677  152.6370 C   0  0  1  0  0  0  0  0  0  0  0  0
  146.6994  133.2891  151.1790 C   0  0  0  0  0  0  0  0  0  0  0  0
  145.4443  132.6839  150.5092 C   0  0  0  0  0  0  0  0  0  0  0  0
  144.8765  131.5394  151.3619 C   0  0  0  0  0  0  0  0  0  0  0  0
  145.7201  132.1969  149.0767 C   0  0  0  0  0  0  0  0  0  0  0  0
  147.8141  133.9355  153.2596 N   0  0  0  0  0  0  0  0  0  0  0  0
  148.3831  133.0730  154.1158 C   0  0  0  0  0  0  0  0  0  0  0  0
  147.8623  132.0056  154.4427 O   0  0  0  0  0  0  0  0  0  0  0  0
  149.7578  133.4758  154.6669 C   0  0  0  0  0  0  0  0  0  0  0  0
  150.3954  132.4034  155.4441 N   0  0  0  0  0  0  0  0  0  0  0  0
  150.6763  131.1798  154.8530 C   0  0  0  0  0  0  0  0  0  0  0  0
  151.2473  130.1456  155.5148 C   0  0  0  0  0  0  0  0  0  0  0  0
  151.6031  130.2765  156.9237 C   0  0  0  0  0  0  0  0  0  0  0  0
  152.1236  129.3985  157.6082 O   0  0  0  0  0  0  0  0  0  0  0  0
  151.3038  131.5215  157.4827 N   0  0  0  0  0  0  0  0  0  0  0  0
  150.7148  132.5911  156.8067 C   0  0  0  0  0  0  0  0  0  0  0  0
  150.4902  133.6473  157.3969 O   0  0  0  0  0  0  0  0  0  0  0  0
  151.5304  131.6585  158.4569 H   0  0  0  0  0  0  0  0  0  0  0  0
  146.6854  138.1615  151.5520 H   0  0  0  0  0  0  0  0  0  0  0  0
  145.6201  137.8866  152.9338 H   0  0  0  0  0  0  0  0  0  0  0  0
  145.0571  137.5253  151.2928 H   0  0  0  0  0  0  0  0  0  0  0  0
  147.3811  135.9843  151.7357 H   0  0  0  0  0  0  0  0  0  0  0  0
  145.9036  133.0470  153.1978 H   0  0  0  0  0  0  0  0  0  0  0  0
  147.0510  134.1212  150.5665 H   0  0  0  0  0  0  0  0  0  0  0  0
  147.5004  132.5476  151.1552 H   0  0  0  0  0  0  0  0  0  0  0  0
  144.6712  133.4512  150.4566 H   0  0  0  0  0  0  0  0  0  0  0  0
  145.5912  130.7207  151.4537 H   0  0  0  0  0  0  0  0  0  0  0  0
  143.9634  131.1366  150.9223 H   0  0  0  0  0  0  0  0  0  0  0  0
  144.6308  131.8812  152.3677 H   0  0  0  0  0  0  0  0  0  0  0  0
  146.5221  131.4582  149.0565 H   0  0  0  0  0  0  0  0  0  0  0  0
  146.0041  133.0182  148.4192 H   0  0  0  0  0  0  0  0  0  0  0  0
  144.8331  131.7342  148.6432 H   0  0  0  0  0  0  0  0  0  0  0  0
  148.3101  134.7888  153.0474 H   0  0  0  0  0  0  0  0  0  0  0  0
  150.3884  133.7632  153.8242 H   0  0  0  0  0  0  0  0  0  0  0  0
  149.6663  134.3760  155.2786 H   0  0  0  0  0  0  0  0  0  0  0  0
  150.4258  131.0357  153.8117 H   0  0  0  0  0  0  0  0  0  0  0  0
  151.4408  129.2161  154.9993 H   0  0  0  0  0  0  0  0  0  0  0  0
  1  2  1  0  0  0  0
  1 23  1  0  0  0  0
  1 24  1  0  0  0  0
  1 25  1  0  0  0  0
  2  3  1  0  0  0  0
  2 26  1  0  0  0  0
  3  4  2  0  0  0  0
  3  5  1  0  0  0  0
  5  6  1  0  0  0  0
  5 10  1  0  0  0  0
  5 27  1  0  0  0  0
  6  7  1  0  0  0  0
  6 28  1  0  0  0  0
  6 29  1  0  0  0  0
  7  8  1  0  0  0  0
  7  9  1  0  0  0  0
  7 30  1  0  0  0  0
  8 31  1  0  0  0  0
  8 32  1  0  0  0  0
  8 33  1  0  0  0  0
  9 34  1  0  0  0  0
  9 35  1  0  0  0  0
  9 36  1  0  0  0  0
 10 11  1  0  0  0  0
 10 37  1  0  0  0  0
 11 12  2  0  0  0  0
 11 13  1  0  0  0  0
 13 14  1  0  0  0  0
 13 38  1  0  0  0  0
 13 39  1  0  0  0  0
 14 20  1  0  0  0  0
 14 15  1  0  0  0  0
 15 16  2  0  0  0  0
 15 40  1  0  0  0  0
 16 17  1  0  0  0  0
 16 41  1  0  0  0  0
 17 18  2  0  0  0  0
 17 19  1  0  0  0  0
 19 22  1  0  0  0  0
 19 20  1  0  0  0  0
 20 21  2  0  0  0  0
M  END
> <s_m_source_file>
AV-unprocessed.smi

> <i_m_source_file_index>
1575

> <i_lp_mmshare_version>
43012

> <i_f3d_flags>
0

> <s_epik_input>
W0NIM11bTkhdQyg9TylbQ0BIXShbQ0gyXVtDSF0oW0NIM10pW0NIM10pW05IXUMoPU8pW0NIMl1uMVtjSF1bY0hdYyg9TylbbkhdYzE9Tw==

> <s_epik_cmdline>
J2VwaWtfcHl0aG9uJywgJy1waCcsICc3LjAnLCAnLXRuJywgJzgnLCAnLW1hJywgJzIwMCcsICctbWV0YWxfYmluZGluZycsICctaW1hZScsICc8aW5maWxlLm1hZT4nLCAnLW9tYWUnLCAnPG91dGZpbGUubWFlPic=

> <r_lp_tautomer_probability>
0.999537

> <r_epik_Ionization_Penalty>
0.00357166

> <r_epik_Ionization_Penalty_Charging>
0.00357161

> <r_epik_Ionization_Penalty_Neutral>
5.44484e-08

> <r_epik_State_Penalty>
0.00253761

> <r_epik_Charging_Adjusted_Penalty>
0.00610921

> <i_epik_Tot_Q>
0

> <i_epik_Tot_abs_Q>
0

> <r_epik_Metal_State_Penalty>
0.368734

> <b_epik_Metal_Only>
0

> <s_lp_Force_Field>
OPLS_2005

> <r_lp_Energy>
5.11716

> <b_lp_Chiralities_Consistent>
1

> <s_lp_Variant>
AV-unprocessed.smi:1575-2

> <Gold.Version>
5.8.1

> <Gold.Id.Protein>
6NUR|6NUR_protein|mol2

> <Gold.PLP.Fitness>
39.2366

> <Gold.PLP.PLP>
-31.9355

> <Gold.PLP.part.hbond>
-2.9053

> <Gold.PLP.part.metal>
0.0000

> <Gold.PLP.part.buried>
-2.8571

> <Gold.PLP.part.nonpolar>
-25.4753

> <Gold.PLP.part.repulsive>
0.2284

> <Gold.PLP.ligand.clash>
0.0000

> <Gold.PLP.ligand.torsion>
0.5806

> <Gold.PLP.Chemscore.Hbond>
2.7600

> <Gold.PLP.Chemscore.CHOScore>
0.0000

> <Gold.PLP.Chemscore.Metal>
0.0000

> <Gold.Chemscore.Hbonds>
donor molecule, donor type, donor heavy atom, donor atom, acceptor molecule, acceptor atom, score
      L1  H     2    26       P1  7948  1.00
      L1  H    10    37       P1  7948  1.00
      P1  H  6896  6907       L1    21  0.86

> <Gold.PLP.Chemscore.Internal.Correction>
0.1823

> <Gold.Rescore>
     Score         DG    S(hbond)    S(metal)    S(lipo)     H(rot)  DE(clash)    DE(int)     intcor
     11.17     -13.32       2.35        0.00      61.35       2.81       0.06       2.10       ----

> <Gold.Chemscore.Fitness>
11.1653

> <Gold.Chemscore.DG>
-13.3217

> <Gold.Chemscore.ZeroCoef>
-5.4800

> <Gold.Chemscore.Hbond>
2.3502

> <Gold.Chemscore.Metal>
0.0000

> <Gold.Chemscore.Lipo>
61.3547

> <Gold.Chemscore.Internal_Hbond>
0.0000

> <Gold.Chemscore.DEClash>
0.0605

> <Gold.Chemscore.DEInternal>
2.0960

> <Gold.Chemscore.Rot>
2.8072

> <Gold.Chemscore.Internal.Correction>
   9.000000E+99

> <Gold.Chemscore.Hbonds>
donor molecule, donor type, donor heavy atom, donor atom, acceptor molecule, acceptor atom, score
      L1  H     2    26       P1  7948  0.92
      L1  H    10    37       P1  7948  0.68
      P1  H  6896  6907       L1    21  0.82

> <Gold.Chemscore.Hbond.Weighted>
-7.8496

> <Gold.Chemscore.Metal.Weighted>
-0.0000

> <Gold.Chemscore.Lipo.Weighted>
-7.1785

> <Gold.Chemscore.Internal_Hbond.Weighted>
0.0000

> <Gold.Chemscore.DEClash.Weighted>
0.0605

> <Gold.Chemscore.DEInternal.Weighted>
2.0960

> <Gold.Chemscore.Rot.Weighted>
7.1864

> <Gold.Chemscore.Internal.Correction.Weighted>
   9.000000E+99

> <Gold.Protein.RotatedTorsions>
[ 6907 6896 6895 6894 ] final -128.33 input  -60.11 | X-H torsion
[ 7974 7965 7964 7962 ] final   43.40 input  175.53 | X-H torsion
[ 8008 7997 7996 7995 ] final  -71.64 input   59.86 | X-H torsion
[ 10167 10162 10161 10158 ] final  -90.32 input  -65.29 | X-H torsion
[ 10718 10713 10712 10709 ] final  -89.16 input   66.30 | X-H torsion
[ 10763 10752 10751 10750 ] final   93.68 input  -60.55 | X-H torsion
[ 11005 11000 10999 10996 ] final  167.49 input  -57.11 | X-H torsion

> <Gold.Protein.ActiveResidues>
 VAL166  LYS551  ARG553  GLY616  TRP617  ASP618  TYR619  PRO620  LYS621  CYS622 
 ASP623  PHE694  ASN695  SER759  ASP760  ASP761  ALA762  ILE779  LEU786  VAL792 
 PHE793  MET794  SER795  GLU796  ALA797  LYS798  CYS799  TRP800  GLU811  SER814 

> <Gold.Protein.RotatedAtoms>
  150.9167  133.6930  159.2841 H   0  0  0  0  0  0  0  0  0  0  0  0  # atno 6907 bound_to 6896
  151.4398  135.1018  159.9676 H   0  0  0  0  0  0  0  0  0  0  0  0  # atno 6908 bound_to 6896
  152.4958  133.8578  159.7290 H   0  0  0  0  0  0  0  0  0  0  0  0  # atno 6909 bound_to 6896
  146.0658  139.5191  142.9629 H   0  0  0  0  0  0  0  0  0  0  0  0  # atno 7974 bound_to 7965
  154.5104  140.0812  156.7978 H   0  0  0  0  0  0  0  0  0  0  0  0  # atno 8008 bound_to 7997
  155.3798  140.3427  155.4228 H   0  0  0  0  0  0  0  0  0  0  0  0  # atno 8009 bound_to 7997
  156.1566  140.1575  156.8670 H   0  0  0  0  0  0  0  0  0  0  0  0  # atno 8010 bound_to 7997
  140.3561  143.2866  151.9670 H   0  0  0  0  0  0  0  0  0  0  0  0  # atno 10167 bound_to 10162
  155.9984  130.4862  150.5129 H   0  0  0  0  0  0  0  0  0  0  0  0  # atno 10718 bound_to 10713
  153.2330  135.4317  155.0616 H   0  0  0  0  0  0  0  0  0  0  0  0  # atno 10763 bound_to 10752
  154.8305  135.3384  154.6760 H   0  0  0  0  0  0  0  0  0  0  0  0  # atno 10764 bound_to 10752
  153.7186  135.7018  153.5075 H   0  0  0  0  0  0  0  0  0  0  0  0  # atno 10765 bound_to 10752
  140.2774  134.7778  157.3728 H   0  0  0  0  0  0  0  0  0  0  0  0  # atno 11005 bound_to 11000
  145.6479  141.0270  143.1776 LP  0  0  0  0  0  0  0  0  0  0  0  0  # atno 17320 bound_to 7965
  144.7202  139.8058  143.7385 LP  0  0  0  0  0  0  0  0  0  0  0  0  # atno 17321 bound_to 7965
  139.4820  144.6034  151.7565 LP  0  0  0  0  0  0  0  0  0  0  0  0  # atno 17342 bound_to 10162
  140.5173  144.0934  150.6012 LP  0  0  0  0  0  0  0  0  0  0  0  0  # atno 17343 bound_to 10162
  157.3100  131.0662  151.2008 LP  0  0  0  0  0  0  0  0  0  0  0  0  # atno 17370 bound_to 10713
  157.2957  130.6818  149.6137 LP  0  0  0  0  0  0  0  0  0  0  0  0  # atno 17371 bound_to 10713
  140.1316  134.5088  155.8101 LP  0  0  0  0  0  0  0  0  0  0  0  0  # atno 17394 bound_to 11000
  141.2168  133.6792  156.7049 LP  0  0  0  0  0  0  0  0  0  0  0  0  # atno 17395 bound_to 11000

$$$$
