AV-unprocessed.smi:166|AV-procd|sdf|1390|dock10
  -GOLD-   2262019133D 1   1.00000     0.00000
 Structure written by MMmdl.
 54 58  0  0  0  0  0  0  0  0  1 V2000
  143.9809  134.7692  149.9380 O   0  0  0  0  0  0  0  0  0  0  0  0
  144.3647  133.8098  150.9058 C   0  0  1  0  0  0  0  0  0  0  0  0
  143.9755  134.3299  152.3116 C   0  0  0  0  0  0  0  0  0  0  0  0
  144.6459  135.5652  152.6907 N   0  0  0  0  0  0  0  0  0  0  0  0
  144.4534  136.8112  152.1365 C   0  0  0  0  0  0  0  0  0  0  0  0
  145.1800  137.7672  152.6475 N   0  0  0  0  0  0  0  0  0  0  0  0
  145.9465  137.1297  153.6154 C   0  0  0  0  0  0  0  0  0  0  0  0
  146.9438  137.5564  154.5371 C   0  0  0  0  0  0  0  0  0  0  0  0
  147.3889  138.8244  154.6579 N   0  0  0  0  0  0  0  0  0  0  0  0
  147.5287  139.5048  153.3743 C   0  0  0  0  0  0  0  0  0  0  0  0
  147.7943  141.0048  153.5827 C   0  0  0  0  0  0  0  0  0  0  0  0
  148.9974  141.2252  154.5135 C   0  0  0  0  0  0  0  0  0  0  0  0
  148.7989  140.4752  155.8424 C   0  0  2  0  0  0  0  0  0  0  0  0
  149.9842  140.6428  156.6091 O   0  0  0  0  0  0  0  0  0  0  0  0
  150.4038  141.9908  156.7566 C   0  0  0  0  0  0  0  0  0  0  0  0
  151.5866  142.0317  157.6999 C   0  0  0  0  0  0  0  0  0  0  0  0
  151.3755  142.2798  159.1765 C   0  0  0  0  0  0  0  0  0  0  0  0
  152.0345  143.3341  158.3240 C   0  0  0  0  0  0  0  0  0  0  0  0
  148.5198  138.9826  155.5694 C   0  0  0  0  0  0  0  0  0  0  0  0
  147.4848  136.6298  155.3653 N   0  0  0  0  0  0  0  0  0  0  0  0
  147.0868  135.3560  155.2917 C   0  0  0  0  0  0  0  0  0  0  0  0
  146.1762  134.8107  154.4819 N   0  0  0  0  0  0  0  0  0  0  0  0
  145.6230  135.7442  153.6551 C   0  0  0  0  0  0  0  0  0  0  0  0
  143.6905  132.4772  150.5752 C   0  0  0  0  0  0  0  0  0  0  0  0
  144.8219  131.4656  150.7024 C   0  0  0  0  0  0  0  0  0  0  0  0
  145.9333  132.1867  150.2030 O   0  0  0  0  0  0  0  0  0  0  0  0
  145.8678  133.4948  150.7537 C   0  0  0  0  0  0  0  0  0  0  0  0
  143.0565  134.6713  149.7671 H   0  0  0  0  0  0  0  0  0  0  0  0
  142.8985  134.4935  152.3699 H   0  0  0  0  0  0  0  0  0  0  0  0
  144.2086  133.5753  153.0641 H   0  0  0  0  0  0  0  0  0  0  0  0
  143.7508  136.9924  151.3363 H   0  0  0  0  0  0  0  0  0  0  0  0
  148.3493  139.0556  152.8130 H   0  0  0  0  0  0  0  0  0  0  0  0
  146.6229  139.3694  152.7813 H   0  0  0  0  0  0  0  0  0  0  0  0
  147.9684  141.4902  152.6221 H   0  0  0  0  0  0  0  0  0  0  0  0
  146.9098  141.4760  154.0134 H   0  0  0  0  0  0  0  0  0  0  0  0
  149.9057  140.8716  154.0236 H   0  0  0  0  0  0  0  0  0  0  0  0
  149.1372  142.2904  154.7001 H   0  0  0  0  0  0  0  0  0  0  0  0
  147.9520  140.9212  156.3675 H   0  0  0  0  0  0  0  0  0  0  0  0
  150.6855  142.4153  155.7917 H   0  0  0  0  0  0  0  0  0  0  0  0
  149.6070  142.6056  157.1741 H   0  0  0  0  0  0  0  0  0  0  0  0
  152.3710  141.3191  157.4512 H   0  0  0  0  0  0  0  0  0  0  0  0
  150.3607  142.4731  159.5188 H   0  0  0  0  0  0  0  0  0  0  0  0
  152.0052  141.7297  159.8728 H   0  0  0  0  0  0  0  0  0  0  0  0
  153.1043  143.4877  158.4500 H   0  0  0  0  0  0  0  0  0  0  0  0
  151.4594  144.2295  158.0971 H   0  0  0  0  0  0  0  0  0  0  0  0
  148.3051  138.4551  156.4991 H   0  0  0  0  0  0  0  0  0  0  0  0
  149.4088  138.5233  155.1368 H   0  0  0  0  0  0  0  0  0  0  0  0
  147.5670  134.6760  155.9798 H   0  0  0  0  0  0  0  0  0  0  0  0
  142.8451  132.2424  151.2228 H   0  0  0  0  0  0  0  0  0  0  0  0
  143.3262  132.4685  149.5464 H   0  0  0  0  0  0  0  0  0  0  0  0
  144.9933  131.1949  151.7457 H   0  0  0  0  0  0  0  0  0  0  0  0
  144.6407  130.5544  150.1321 H   0  0  0  0  0  0  0  0  0  0  0  0
  146.4040  134.2122  150.1311 H   0  0  0  0  0  0  0  0  0  0  0  0
  146.3663  133.4639  151.7225 H   0  0  0  0  0  0  0  0  0  0  0  0
  1  2  1  0  0  0  0
  1 28  1  0  0  0  0
  2 27  1  0  0  0  0
  2  3  1  0  0  0  0
  2 24  1  0  0  0  0
  3  4  1  0  0  0  0
  3 29  1  0  0  0  0
  3 30  1  0  0  0  0
  4 23  1  0  0  0  0
  4  5  1  0  0  0  0
  5  6  2  0  0  0  0
  5 31  1  0  0  0  0
  6  7  1  0  0  0  0
  7 23  2  0  0  0  0
  7  8  1  0  0  0  0
  8  9  1  0  0  0  0
  8 20  2  0  0  0  0
  9 19  1  0  0  0  0
  9 10  1  0  0  0  0
 10 11  1  0  0  0  0
 10 32  1  0  0  0  0
 10 33  1  0  0  0  0
 11 12  1  0  0  0  0
 11 34  1  0  0  0  0
 11 35  1  0  0  0  0
 12 13  1  0  0  0  0
 12 36  1  0  0  0  0
 12 37  1  0  0  0  0
 13 14  1  0  0  0  0
 13 19  1  0  0  0  0
 13 38  1  0  0  0  0
 14 15  1  0  0  0  0
 15 16  1  0  0  0  0
 15 39  1  0  0  0  0
 15 40  1  0  0  0  0
 16 18  1  0  0  0  0
 16 17  1  0  0  0  0
 16 41  1  0  0  0  0
 17 18  1  0  0  0  0
 17 42  1  0  0  0  0
 17 43  1  0  0  0  0
 18 44  1  0  0  0  0
 18 45  1  0  0  0  0
 19 46  1  0  0  0  0
 19 47  1  0  0  0  0
 20 21  1  0  0  0  0
 21 22  2  0  0  0  0
 21 48  1  0  0  0  0
 22 23  1  0  0  0  0
 24 25  1  0  0  0  0
 24 49  1  0  0  0  0
 24 50  1  0  0  0  0
 25 26  1  0  0  0  0
 25 51  1  0  0  0  0
 25 52  1  0  0  0  0
 26 27  1  0  0  0  0
 27 53  1  0  0  0  0
 27 54  1  0  0  0  0
M  END
> <s_m_source_file>
AV-unprocessed.smi

> <i_m_source_file_index>
166

> <i_lp_mmshare_version>
43012

> <i_f3d_flags>
0

> <s_epik_input>
W0NIMl0xT1tDSDJdW0NIMl1bQ0BAXTEoW09IXSlbQ0gyXW4oW2NIXW4yKWMoYzIzKW5bY0hdbmMzTjRbQ0gyXVtDSDJdW0NIMl1bQ0BIXShbQ0gyXTQpT1tDSDJdW0NIXTVbQ0gyXVtDSDJdNQ==

> <s_epik_cmdline>
J2VwaWtfcHl0aG9uJywgJy1waCcsICc3LjAnLCAnLXRuJywgJzgnLCAnLW1hJywgJzIwMCcsICctbWV0YWxfYmluZGluZycsICctaW1hZScsICc8aW5maWxlLm1hZT4nLCAnLW9tYWUnLCAnPG91dGZpbGUubWFlPic=

> <r_lp_tautomer_probability>
1

> <r_epik_Ionization_Penalty>
0.00342552

> <r_epik_Ionization_Penalty_Charging>
0

> <r_epik_Ionization_Penalty_Neutral>
0.00342552

> <r_epik_State_Penalty>
0.0022204

> <r_epik_Charging_Adjusted_Penalty>
0.0022204

> <i_epik_Tot_Q>
0

> <i_epik_Tot_abs_Q>
0

> <r_epik_Metal_State_Penalty>
-0

> <b_epik_Metal_Only>
0

> <s_lp_Force_Field>
OPLS_2005

> <r_lp_Energy>
47.3104

> <b_lp_Chiralities_Consistent>
1

> <s_lp_Variant>
AV-unprocessed.smi:166-3

> <Gold.Version>
5.8.1

> <Gold.Id.Protein>
6NUR|6NUR_protein|mol2

> <Gold.PLP.Fitness>
40.6423

> <Gold.PLP.PLP>
-35.5466

> <Gold.PLP.part.hbond>
-1.3637

> <Gold.PLP.part.metal>
0.0000

> <Gold.PLP.part.buried>
-5.4495

> <Gold.PLP.part.nonpolar>
-30.2992

> <Gold.PLP.part.repulsive>
0.9879

> <Gold.PLP.ligand.clash>
0.0000

> <Gold.PLP.ligand.torsion>
0.7499

> <Gold.PLP.Chemscore.Hbond>
1.0000

> <Gold.PLP.Chemscore.CHOScore>
0.9326

> <Gold.PLP.Chemscore.Metal>
0.0000

> <Gold.Chemscore.Hbonds>
donor molecule, donor type, donor heavy atom, donor atom, acceptor molecule, acceptor atom, score
      L1  H     1    28       P1 10186  0.91
      L1  C     5    31       P1 10171  0.95

> <Gold.PLP.Chemscore.Internal.Correction>
0.7976

> <Gold.Rescore>
     Score         DG    S(hbond)    S(metal)    S(lipo)     H(rot)  DE(clash)    DE(int)     intcor
     12.20     -13.99       0.97        0.00     103.75       2.68       0.40       1.39       ----

> <Gold.Chemscore.Fitness>
12.1967

> <Gold.Chemscore.DG>
-13.9898

> <Gold.Chemscore.ZeroCoef>
-5.4800

> <Gold.Chemscore.Hbond>
0.9689

> <Gold.Chemscore.Metal>
0.0000

> <Gold.Chemscore.Lipo>
103.7495

> <Gold.Chemscore.Internal_Hbond>
0.0000

> <Gold.Chemscore.DEClash>
0.4000

> <Gold.Chemscore.DEInternal>
1.3931

> <Gold.Chemscore.Rot>
2.6817

> <Gold.Chemscore.Internal.Correction>
   9.000000E+99

> <Gold.Chemscore.Hbonds>
donor molecule, donor type, donor heavy atom, donor atom, acceptor molecule, acceptor atom, score
      L1  H     1    28       P1 10186  0.76

> <Gold.Chemscore.Hbond.Weighted>
-3.2362

> <Gold.Chemscore.Metal.Weighted>
-0.0000

> <Gold.Chemscore.Lipo.Weighted>
-12.1387

> <Gold.Chemscore.Internal_Hbond.Weighted>
0.0000

> <Gold.Chemscore.DEClash.Weighted>
0.4000

> <Gold.Chemscore.DEInternal.Weighted>
1.3931

> <Gold.Chemscore.Rot.Weighted>
6.8651

> <Gold.Chemscore.Internal.Correction.Weighted>
   9.000000E+99

> <Gold.Protein.RotatedTorsions>
[ 6907 6896 6895 6894 ] final -138.29 input  -60.11 | X-H torsion
[ 7974 7965 7964 7962 ] final  128.12 input  175.53 | X-H torsion
[ 8008 7997 7996 7995 ] final -126.67 input   59.86 | X-H torsion
[ 10167 10162 10161 10158 ] final   70.56 input  -65.29 | X-H torsion
[ 10718 10713 10712 10709 ] final  -85.38 input   66.30 | X-H torsion
[ 10763 10752 10751 10750 ] final  -39.44 input  -60.55 | X-H torsion
[ 11005 11000 10999 10996 ] final  -88.24 input  -57.11 | X-H torsion

> <Gold.Protein.ActiveResidues>
 VAL166  LYS551  ARG553  GLY616  TRP617  ASP618  TYR619  PRO620  LYS621  CYS622 
 ASP623  PHE694  ASN695  SER759  ASP760  ASP761  ALA762  ILE779  LEU786  VAL792 
 PHE793  MET794  SER795  GLU796  ALA797  LYS798  CYS799  TRP800  GLU811  SER814 

> <Gold.Protein.RotatedAtoms>
  151.0331  133.5772  159.2658 H   0  0  0  0  0  0  0  0  0  0  0  0  # atno 6907 bound_to 6896
  151.2847  135.0723  159.9192 H   0  0  0  0  0  0  0  0  0  0  0  0  # atno 6908 bound_to 6896
  152.5349  134.0040  159.7962 H   0  0  0  0  0  0  0  0  0  0  0  0  # atno 6909 bound_to 6896
  145.0430  139.3947  143.5092 H   0  0  0  0  0  0  0  0  0  0  0  0  # atno 7974 bound_to 7965
  155.2335  140.0426  157.2965 H   0  0  0  0  0  0  0  0  0  0  0  0  # atno 8008 bound_to 7997
  154.5873  140.2417  155.7939 H   0  0  0  0  0  0  0  0  0  0  0  0  # atno 8009 bound_to 7997
  156.2235  140.2962  156.0019 H   0  0  0  0  0  0  0  0  0  0  0  0  # atno 8010 bound_to 7997
  140.0556  144.5276  150.7331 H   0  0  0  0  0  0  0  0  0  0  0  0  # atno 10167 bound_to 10162
  155.9997  130.4729  150.4554 H   0  0  0  0  0  0  0  0  0  0  0  0  # atno 10718 bound_to 10713
  153.9294  135.6773  153.4746 H   0  0  0  0  0  0  0  0  0  0  0  0  # atno 10763 bound_to 10752
  153.0987  135.4838  154.8825 H   0  0  0  0  0  0  0  0  0  0  0  0  # atno 10764 bound_to 10752
  154.7436  135.3167  154.8641 H   0  0  0  0  0  0  0  0  0  0  0  0  # atno 10765 bound_to 10752
  141.1605  133.7558  156.9423 H   0  0  0  0  0  0  0  0  0  0  0  0  # atno 11005 bound_to 11000
  146.3511  140.0041  142.8673 LP  0  0  0  0  0  0  0  0  0  0  0  0  # atno 17320 bound_to 7965
  145.1623  140.9679  143.4370 LP  0  0  0  0  0  0  0  0  0  0  0  0  # atno 17321 bound_to 7965
  140.7196  143.2576  151.4321 LP  0  0  0  0  0  0  0  0  0  0  0  0  # atno 17342 bound_to 10162
  139.5926  144.1467  152.2106 LP  0  0  0  0  0  0  0  0  0  0  0  0  # atno 17343 bound_to 10162
  157.2583  131.0561  151.2336 LP  0  0  0  0  0  0  0  0  0  0  0  0  # atno 17370 bound_to 10713
  157.3460  130.7058  149.6411 LP  0  0  0  0  0  0  0  0  0  0  0  0  # atno 17371 bound_to 10713
  140.1313  134.9354  157.2341 LP  0  0  0  0  0  0  0  0  0  0  0  0  # atno 17394 bound_to 11000
  140.2949  134.3198  155.7305 LP  0  0  0  0  0  0  0  0  0  0  0  0  # atno 17395 bound_to 11000

$$$$
