AV-unprocessed.smi:1999|AV-procd|sdf|8097|dock10
  -GOLD-   2272010313D 1   1.00000     0.00000
 Structure written by MMmdl.
 37 38  0  0  0  0  0  0  0  0  2 V2000
  144.1280  143.8077  162.7467 C   0  0  0  0  0  0  0  0  0  0  0  0
  144.9261  143.3646  161.5687 C   0  0  0  0  0  0  0  0  0  0  0  0
  144.9048  142.1103  161.1115 N   0  0  0  0  0  0  0  0  0  0  0  0
  145.7313  141.9415  160.0101 N   0  0  0  0  0  0  0  0  0  0  0  0
  146.3710  143.0650  159.6553 C   0  0  0  0  0  0  0  0  0  0  0  0
  147.2156  143.1140  158.6120 N   0  5  0  0  0  0  0  0  0  0  0  0
  147.5011  141.9874  157.9201 C   0  0  0  0  0  0  0  0  0  0  0  0
  147.0138  140.8706  158.1109 O   0  0  0  0  0  0  0  0  0  0  0  0
  148.4069  142.1662  156.9479 N   0  0  0  0  0  0  0  0  0  0  0  0
  148.9262  141.1360  156.0496 C   0  0  1  0  0  0  0  0  0  0  0  0
  148.4175  141.3785  154.6200 C   0  0  0  0  0  0  0  0  0  0  0  0
  150.4681  141.1247  156.0981 C   0  0  0  0  0  0  0  0  0  0  0  0
  151.1259  140.1558  155.2187 N   0  0  0  0  0  0  0  0  0  0  0  0
  152.4320  139.7315  155.7181 C   0  0  0  0  0  0  0  0  0  0  0  0
  153.0915  138.6958  154.7906 C   0  0  0  0  0  0  0  0  0  0  0  0
  152.2223  137.5811  154.6188 O   0  0  0  0  0  0  0  0  0  0  0  0
  150.9554  137.9521  154.0854 C   0  0  0  0  0  0  0  0  0  0  0  0
  150.2878  138.9797  155.0152 C   0  0  0  0  0  0  0  0  0  0  0  0
  145.9742  144.4504  160.6718 S   0  0  0  0  0  0  0  0  0  0  0  0
  144.6672  143.5827  163.6669 H   0  0  0  0  0  0  0  0  0  0  0  0
  143.1660  143.2948  162.7678 H   0  0  0  0  0  0  0  0  0  0  0  0
  143.9486  144.8818  162.6986 H   0  0  0  0  0  0  0  0  0  0  0  0
  148.7812  143.0966  156.8328 H   0  0  0  0  0  0  0  0  0  0  0  0
  148.5594  140.1595  156.3670 H   0  0  0  0  0  0  0  0  0  0  0  0
  148.7900  140.6144  153.9376 H   0  0  0  0  0  0  0  0  0  0  0  0
  148.7406  142.3494  154.2428 H   0  0  0  0  0  0  0  0  0  0  0  0
  147.3282  141.3515  154.5786 H   0  0  0  0  0  0  0  0  0  0  0  0
  150.8411  142.1260  155.8777 H   0  0  0  0  0  0  0  0  0  0  0  0
  150.7657  140.9183  157.1273 H   0  0  0  0  0  0  0  0  0  0  0  0
  153.0997  140.5877  155.8076 H   0  0  0  0  0  0  0  0  0  0  0  0
  152.3273  139.3077  156.7179 H   0  0  0  0  0  0  0  0  0  0  0  0
  153.3210  139.1392  153.8203 H   0  0  0  0  0  0  0  0  0  0  0  0
  154.0337  138.3511  155.2165 H   0  0  0  0  0  0  0  0  0  0  0  0
  151.0798  138.3620  153.0818 H   0  0  0  0  0  0  0  0  0  0  0  0
  150.3325  137.0625  153.9935 H   0  0  0  0  0  0  0  0  0  0  0  0
  150.0715  138.5085  155.9754 H   0  0  0  0  0  0  0  0  0  0  0  0
  149.3285  139.2777  154.5907 H   0  0  0  0  0  0  0  0  0  0  0  0
  1  2  1  0  0  0  0
  1 20  1  0  0  0  0
  1 21  1  0  0  0  0
  1 22  1  0  0  0  0
  2 19  1  0  0  0  0
  2  3  2  0  0  0  0
  3  4  1  0  0  0  0
  4  5  2  0  0  0  0
  5  6  1  0  0  0  0
  5 19  1  0  0  0  0
  6  7  1  0  0  0  0
  7  8  2  0  0  0  0
  7  9  1  0  0  0  0
  9 10  1  0  0  0  0
  9 23  1  0  0  0  0
 10 11  1  0  0  0  0
 10 12  1  0  0  0  0
 10 24  1  0  0  0  0
 11 25  1  0  0  0  0
 11 26  1  0  0  0  0
 11 27  1  0  0  0  0
 12 13  1  0  0  0  0
 12 28  1  0  0  0  0
 12 29  1  0  0  0  0
 13 18  1  0  0  0  0
 13 14  1  0  0  0  0
 14 15  1  0  0  0  0
 14 30  1  0  0  0  0
 14 31  1  0  0  0  0
 15 16  1  0  0  0  0
 15 32  1  0  0  0  0
 15 33  1  0  0  0  0
 16 17  1  0  0  0  0
 17 18  1  0  0  0  0
 17 34  1  0  0  0  0
 17 35  1  0  0  0  0
 18 36  1  0  0  0  0
 18 37  1  0  0  0  0
M  CHG  1   6  -1
M  END
> <s_m_source_file>
AV-unprocessed.smi

> <i_m_source_file_index>
1999

> <i_lp_mmshare_version>
43012

> <i_f3d_flags>
0

> <s_epik_input>
W0NIM11jMW5uYyhzMSlbTkhdQyg9TylbTkhdW0NASF0oW0NIM10pW0NIMl1OMltDSDJdW0NIMl1PW0NIMl1bQ0gyXTI=

> <s_epik_cmdline>
J2VwaWtfcHl0aG9uJywgJy1waCcsICc3LjAnLCAnLXRuJywgJzgnLCAnLW1hJywgJzIwMCcsICctbWV0YWxfYmluZGluZycsICctaW1hZScsICc8aW5maWxlLm1hZT4nLCAnLW9tYWUnLCAnPG91dGZpbGUubWFlPic=

> <r_lp_tautomer_probability>
1

> <r_epik_Ionization_Penalty>
3.74165

> <r_epik_Ionization_Penalty_Charging>
3.28066

> <r_epik_Ionization_Penalty_Neutral>
0.460988

> <r_epik_State_Penalty>
3.48767

> <r_epik_Charging_Adjusted_Penalty>
6.76834

> <i_epik_Tot_Q>
-1

> <i_epik_Tot_abs_Q>
1

> <r_epik_Metal_State_Penalty>
0.700129

> <b_epik_Metal_Only>
1

> <s_lp_Force_Field>
OPLS_2005

> <r_lp_Energy>
23.1918

> <b_lp_Chiralities_Consistent>
1

> <s_lp_Variant>
AV-unprocessed.smi:1999-6

> <Gold.Version>
5.8.1

> <Gold.Id.Protein>
6NUR|6NUR_protein|mol2

> <Gold.PLP.Fitness>
45.7746

> <Gold.PLP.PLP>
-35.8560

> <Gold.PLP.part.hbond>
-5.3248

> <Gold.PLP.part.metal>
0.0000

> <Gold.PLP.part.buried>
-4.5397

> <Gold.PLP.part.nonpolar>
-27.1565

> <Gold.PLP.part.repulsive>
0.3191

> <Gold.PLP.ligand.clash>
0.0000

> <Gold.PLP.ligand.torsion>
0.4168

> <Gold.PLP.Chemscore.Hbond>
3.5745

> <Gold.PLP.Chemscore.CHOScore>
0.0000

> <Gold.PLP.Chemscore.Metal>
0.0000

> <Gold.Chemscore.Hbonds>
donor molecule, donor type, donor heavy atom, donor atom, acceptor molecule, acceptor atom, score
      L1  H     9    23       P1  8028  0.93
      P1  H  6934  6946       L1     4  0.95
      P1  H  7989  7998       L1    13  1.00
      P1  H 10752 10765       L1    16  0.68

> <Gold.PLP.Chemscore.Internal.Correction>
0.0286

> <Gold.Rescore>
     Score         DG    S(hbond)    S(metal)    S(lipo)     H(rot)  DE(clash)    DE(int)     intcor
     12.72     -15.86       1.83        0.00      70.46       1.56       0.24       2.90       ----

> <Gold.Chemscore.Fitness>
12.7172

> <Gold.Chemscore.DG>
-15.8622

> <Gold.Chemscore.ZeroCoef>
-5.4800

> <Gold.Chemscore.Hbond>
1.8326

> <Gold.Chemscore.Metal>
0.0000

> <Gold.Chemscore.Lipo>
70.4571

> <Gold.Chemscore.Internal_Hbond>
0.0000

> <Gold.Chemscore.DEClash>
0.2443

> <Gold.Chemscore.DEInternal>
2.9007

> <Gold.Chemscore.Rot>
1.5556

> <Gold.Chemscore.Internal.Correction>
   9.000000E+99

> <Gold.Chemscore.Hbonds>
donor molecule, donor type, donor heavy atom, donor atom, acceptor molecule, acceptor atom, score
      L1  H     9    23       P1  8028  0.71
      P1  H  6934  6946       L1     4  0.14
      P1  H  7989  7998       L1    13  0.16
      P1  H 10752 10765       L1    16  0.63

> <Gold.Chemscore.Hbond.Weighted>
-6.1210

> <Gold.Chemscore.Metal.Weighted>
-0.0000

> <Gold.Chemscore.Lipo.Weighted>
-8.2435

> <Gold.Chemscore.Internal_Hbond.Weighted>
0.0000

> <Gold.Chemscore.DEClash.Weighted>
0.2443

> <Gold.Chemscore.DEInternal.Weighted>
2.9007

> <Gold.Chemscore.Rot.Weighted>
3.9823

> <Gold.Chemscore.Internal.Correction.Weighted>
   9.000000E+99

> <Gold.Protein.RotatedTorsions>
[ 6907 6896 6895 6894 ] final   40.43 input  -60.11 | X-H torsion
[ 7974 7965 7964 7962 ] final  144.85 input  175.53 | X-H torsion
[ 8008 7997 7996 7995 ] final   79.60 input   59.86 | X-H torsion
[ 10167 10162 10161 10158 ] final  157.22 input  -65.29 | X-H torsion
[ 10718 10713 10712 10709 ] final  -58.65 input   66.30 | X-H torsion
[ 10763 10752 10751 10750 ] final  165.35 input  -60.55 | X-H torsion
[ 11005 11000 10999 10996 ] final -140.64 input  -57.11 | X-H torsion

> <Gold.Protein.ActiveResidues>
 VAL166  LYS551  ARG553  GLY616  TRP617  ASP618  TYR619  PRO620  LYS621  CYS622 
 ASP623  PHE694  ASN695  SER759  ASP760  ASP761  ALA762  ILE779  LEU786  VAL792 
 PHE793  MET794  SER795  GLU796  ALA797  LYS798  CYS799  TRP800  GLU811  SER814 

> <Gold.Protein.RotatedAtoms>
  152.1824  134.8742  160.0524 H   0  0  0  0  0  0  0  0  0  0  0  0  # atno 6907 bound_to 6896
  151.9661  133.3706  159.4062 H   0  0  0  0  0  0  0  0  0  0  0  0  # atno 6908 bound_to 6896
  150.6920  134.4112  159.5206 H   0  0  0  0  0  0  0  0  0  0  0  0  # atno 6909 bound_to 6896
  144.8801  139.5712  143.5846 H   0  0  0  0  0  0  0  0  0  0  0  0  # atno 7974 bound_to 7965
  155.8719  140.3448  155.5827 H   0  0  0  0  0  0  0  0  0  0  0  0  # atno 8008 bound_to 7997
  155.7817  140.0859  157.2075 H   0  0  0  0  0  0  0  0  0  0  0  0  # atno 8009 bound_to 7997
  154.4018  140.1499  156.3047 H   0  0  0  0  0  0  0  0  0  0  0  0  # atno 8010 bound_to 7997
  139.4822  144.4937  151.8270 H   0  0  0  0  0  0  0  0  0  0  0  0  # atno 10167 bound_to 10162
  156.1119  130.4174  150.0607 H   0  0  0  0  0  0  0  0  0  0  0  0  # atno 10718 bound_to 10713
  154.3226  135.2755  155.2512 H   0  0  0  0  0  0  0  0  0  0  0  0  # atno 10763 bound_to 10752
  154.4858  135.5846  153.6426 H   0  0  0  0  0  0  0  0  0  0  0  0  # atno 10764 bound_to 10752
  152.9875  135.6122  154.3412 H   0  0  0  0  0  0  0  0  0  0  0  0  # atno 10765 bound_to 10752
  140.8402  134.2411  157.4814 H   0  0  0  0  0  0  0  0  0  0  0  0  # atno 11005 bound_to 11000
  146.2989  139.7364  142.9106 LP  0  0  0  0  0  0  0  0  0  0  0  0  # atno 17320 bound_to 7965
  145.3969  141.0380  143.3092 LP  0  0  0  0  0  0  0  0  0  0  0  0  # atno 17321 bound_to 7965
  140.4424  144.1968  150.5892 LP  0  0  0  0  0  0  0  0  0  0  0  0  # atno 17342 bound_to 10162
  140.4670  143.2427  151.9142 LP  0  0  0  0  0  0  0  0  0  0  0  0  # atno 17343 bound_to 10162
  156.8568  130.9478  151.3621 LP  0  0  0  0  0  0  0  0  0  0  0  0  # atno 17370 bound_to 10713
  157.6300  130.8722  149.9258 LP  0  0  0  0  0  0  0  0  0  0  0  0  # atno 17371 bound_to 10713
  139.8703  134.9631  156.4452 LP  0  0  0  0  0  0  0  0  0  0  0  0  # atno 17394 bound_to 11000
  140.8903  133.7853  155.9564 LP  0  0  0  0  0  0  0  0  0  0  0  0  # atno 17395 bound_to 11000

$$$$
