AV-unprocessed.smi:481|AV-procd|sdf|2683|dock1
  -GOLD-   2262023113D 1   1.00000     0.00000
 Structure written by MMmdl.
 42 44  0  0  0  0  0  0  0  0  2 V2000
  149.5066  130.8173  154.2505 C   0  0  0  0  0  0  0  0  0  0  0  0
  148.3199  131.5729  154.0635 O   0  0  0  0  0  0  0  0  0  0  0  0
  148.5045  132.7556  153.2981 C   0  0  0  0  0  0  0  0  0  0  0  0
  149.3070  133.8185  154.0680 C   0  0  0  0  0  0  0  0  0  0  0  0
  148.4531  134.5770  154.9762 N   0  0  0  0  0  0  0  0  0  0  0  0
  147.3830  135.3478  154.6561 C   0  0  0  0  0  0  0  0  0  0  0  0
  147.0036  135.4778  153.3127 N   0  0  0  0  0  0  0  0  0  0  0  0
  145.9625  136.2197  152.9327 N   0  0  0  0  0  0  0  0  0  0  0  0
  145.0422  135.7589  152.1486 C   0  0  0  0  0  0  0  0  0  0  0  0
  145.0245  134.4552  151.4516 C   0  0  0  0  0  0  0  0  0  0  0  0
  146.1791  133.8924  150.8577 C   0  0  0  0  0  0  0  0  0  0  0  0
  146.1110  132.6471  150.2040 C   0  0  0  0  0  0  0  0  0  0  0  0
  144.8869  131.9575  150.1270 C   0  0  0  0  0  0  0  0  0  0  0  0
  143.7293  132.5177  150.6988 C   0  0  0  0  0  0  0  0  0  0  0  0
  143.7978  133.7631  151.3530 C   0  0  0  0  0  0  0  0  0  0  0  0
  146.7830  135.9216  155.7049 N   0  0  0  0  0  0  0  0  0  0  0  0
  147.5400  135.4792  156.7791 C   0  0  0  0  0  0  0  0  0  0  0  0
  148.5565  134.6767  156.3658 C   0  0  0  0  0  0  0  0  0  0  0  0
  149.5477  134.0650  157.2768 C   0  0  0  0  0  0  0  0  0  0  0  0
  150.4582  133.3617  156.8430 O   0  0  0  0  0  0  0  0  0  0  0  0
  149.3108  134.3881  158.5879 N   0  5  0  0  0  0  0  0  0  0  0  0
  148.2911  135.1916  159.0529 C   0  0  0  0  0  0  0  0  0  0  0  0
  148.1500  135.4345  160.2521 O   0  0  0  0  0  0  0  0  0  0  0  0
  147.4012  135.7437  158.1688 N   0  0  0  0  0  0  0  0  0  0  0  0
  146.3068  136.6007  158.6335 C   0  0  0  0  0  0  0  0  0  0  0  0
  149.2683  129.8944  154.7789 H   0  0  0  0  0  0  0  0  0  0  0  0
  150.2422  131.3565  154.8467 H   0  0  0  0  0  0  0  0  0  0  0  0
  149.9607  130.5472  153.2963 H   0  0  0  0  0  0  0  0  0  0  0  0
  148.9682  132.5241  152.3381 H   0  0  0  0  0  0  0  0  0  0  0  0
  147.5152  133.1544  153.0721 H   0  0  0  0  0  0  0  0  0  0  0  0
  150.1101  133.3436  154.6313 H   0  0  0  0  0  0  0  0  0  0  0  0
  149.8026  134.5156  153.3947 H   0  0  0  0  0  0  0  0  0  0  0  0
  147.7745  135.3678  152.6696 H   0  0  0  0  0  0  0  0  0  0  0  0
  144.1722  136.3958  151.9876 H   0  0  0  0  0  0  0  0  0  0  0  0
  147.1261  134.4104  150.8952 H   0  0  0  0  0  0  0  0  0  0  0  0
  146.9990  132.2224  149.7598 H   0  0  0  0  0  0  0  0  0  0  0  0
  144.8350  131.0017  149.6265 H   0  0  0  0  0  0  0  0  0  0  0  0
  142.7881  131.9915  150.6375 H   0  0  0  0  0  0  0  0  0  0  0  0
  142.9012  134.1788  151.7902 H   0  0  0  0  0  0  0  0  0  0  0  0
  146.7020  137.4828  159.1387 H   0  0  0  0  0  0  0  0  0  0  0  0
  145.6694  136.0615  159.3356 H   0  0  0  0  0  0  0  0  0  0  0  0
  145.6707  136.9483  157.8198 H   0  0  0  0  0  0  0  0  0  0  0  0
  1  2  1  0  0  0  0
  1 26  1  0  0  0  0
  1 27  1  0  0  0  0
  1 28  1  0  0  0  0
  2  3  1  0  0  0  0
  3  4  1  0  0  0  0
  3 29  1  0  0  0  0
  3 30  1  0  0  0  0
  4  5  1  0  0  0  0
  4 31  1  0  0  0  0
  4 32  1  0  0  0  0
  5 18  1  0  0  0  0
  5  6  1  0  0  0  0
  6  7  1  0  0  0  0
  6 16  2  0  0  0  0
  7  8  1  0  0  0  0
  7 33  1  0  0  0  0
  8  9  2  0  0  0  0
  9 10  1  0  0  0  0
  9 34  1  0  0  0  0
 10 15  1  0  0  0  0
 10 11  2  0  0  0  0
 11 12  1  0  0  0  0
 11 35  1  0  0  0  0
 12 13  2  0  0  0  0
 12 36  1  0  0  0  0
 13 14  1  0  0  0  0
 13 37  1  0  0  0  0
 14 15  2  0  0  0  0
 14 38  1  0  0  0  0
 15 39  1  0  0  0  0
 16 17  1  0  0  0  0
 17 24  1  0  0  0  0
 17 18  2  0  0  0  0
 18 19  1  0  0  0  0
 19 20  2  0  0  0  0
 19 21  1  0  0  0  0
 21 22  1  0  0  0  0
 22 23  2  0  0  0  0
 22 24  1  0  0  0  0
 24 25  1  0  0  0  0
 25 40  1  0  0  0  0
 25 41  1  0  0  0  0
 25 42  1  0  0  0  0
M  CHG  1  21  -1
M  END
> <s_m_source_file>
AV-unprocessed.smi

> <i_m_source_file_index>
481

> <i_lp_mmshare_version>
43012

> <i_f3d_flags>
0

> <s_epik_input>
W0NIM11uMWMoPU8pW25IXWMoPU8pYyhjMTIpbihbQ0gyXVtDSDJdT1tDSDNdKWMobjIpW05IXS9OPVtDSF0vYzNbY0hdW2NIXVtjSF1bY0hdW2NIXTM=

> <s_epik_cmdline>
J2VwaWtfcHl0aG9uJywgJy1waCcsICc3LjAnLCAnLXRuJywgJzgnLCAnLW1hJywgJzIwMCcsICctbWV0YWxfYmluZGluZycsICctaW1hZScsICc8aW5maWxlLm1hZT4nLCAnLW9tYWUnLCAnPG91dGZpbGUubWFlPic=

> <r_epik_Ionization_Penalty>
4.48471

> <r_epik_Ionization_Penalty_Charging>
4.58449e-09

> <r_epik_Ionization_Penalty_Neutral>
4.48471

> <r_epik_State_Penalty>
4.48428

> <r_epik_Charging_Adjusted_Penalty>
4.48428

> <i_epik_Tot_Q>
-1

> <i_epik_Tot_abs_Q>
1

> <r_epik_Metal_State_Penalty>
0.811551

> <b_epik_Metal_Only>
1

> <s_epik_Chemistry_Notes>
This compound has an imine and may undergo hydrolysis.

> <s_lp_Force_Field>
OPLS_2005

> <r_lp_Energy>
49.411

> <b_lp_Chiralities_Consistent>
1

> <s_lp_Variant>
AV-unprocessed.smi:481-4

> <Gold.Version>
5.8.1

> <Gold.Id.Protein>
6NUR|6NUR_protein|mol2

> <Gold.PLP.Fitness>
40.8181

> <Gold.PLP.PLP>
-32.4559

> <Gold.PLP.part.hbond>
-2.3753

> <Gold.PLP.part.metal>
0.0000

> <Gold.PLP.part.buried>
-4.8551

> <Gold.PLP.part.nonpolar>
-25.5682

> <Gold.PLP.part.repulsive>
0.2221

> <Gold.PLP.ligand.clash>
0.0000

> <Gold.PLP.ligand.torsion>
0.6640

> <Gold.PLP.Chemscore.Hbond>
3.0000

> <Gold.PLP.Chemscore.CHOScore>
0.0000

> <Gold.PLP.Chemscore.Metal>
0.0000

> <Gold.Chemscore.Hbonds>
donor molecule, donor type, donor heavy atom, donor atom, acceptor molecule, acceptor atom, score
      L1  H     7    33       P1  7948  0.88
      P1  H  6896  6908       L1    21  2.00

> <Gold.PLP.Chemscore.Internal.Correction>
0.6904

> <Gold.Rescore>
     Score         DG    S(hbond)    S(metal)    S(lipo)     H(rot)  DE(clash)    DE(int)     intcor
     13.86     -15.69       1.78        0.00      69.73       1.52       0.26       1.57       ----

> <Gold.Chemscore.Fitness>
13.8613

> <Gold.Chemscore.DG>
-15.6941

> <Gold.Chemscore.ZeroCoef>
-5.4800

> <Gold.Chemscore.Hbond>
1.7826

> <Gold.Chemscore.Metal>
0.0000

> <Gold.Chemscore.Lipo>
69.7349

> <Gold.Chemscore.Internal_Hbond>
0.0000

> <Gold.Chemscore.DEClash>
0.2614

> <Gold.Chemscore.DEInternal>
1.5713

> <Gold.Chemscore.Rot>
1.5230

> <Gold.Chemscore.Internal.Correction>
   9.000000E+99

> <Gold.Chemscore.Hbonds>
donor molecule, donor type, donor heavy atom, donor atom, acceptor molecule, acceptor atom, score
      L1  H     7    33       P1  7948  0.86
      P1  H  6896  6908       L1    21  0.62

> <Gold.Chemscore.Hbond.Weighted>
-5.9539

> <Gold.Chemscore.Metal.Weighted>
-0.0000

> <Gold.Chemscore.Lipo.Weighted>
-8.1590

> <Gold.Chemscore.Internal_Hbond.Weighted>
0.0000

> <Gold.Chemscore.DEClash.Weighted>
0.2614

> <Gold.Chemscore.DEInternal.Weighted>
1.5713

> <Gold.Chemscore.Rot.Weighted>
3.8989

> <Gold.Chemscore.Internal.Correction.Weighted>
   9.000000E+99

> <Gold.Protein.RotatedTorsions>
[ 6907 6896 6895 6894 ] final  145.14 input  -60.11 | X-H torsion
[ 7974 7965 7964 7962 ] final -112.04 input  175.53 | X-H torsion
[ 8008 7997 7996 7995 ] final  -22.20 input   59.86 | X-H torsion
[ 10167 10162 10161 10158 ] final -165.75 input  -65.29 | X-H torsion
[ 10718 10713 10712 10709 ] final  147.23 input   66.30 | X-H torsion
[ 10763 10752 10751 10750 ] final  -51.87 input  -60.55 | X-H torsion
[ 11005 11000 10999 10996 ] final  145.21 input  -57.11 | X-H torsion

> <Gold.Protein.ActiveResidues>
 VAL166  LYS551  ARG553  GLY616  TRP617  ASP618  TYR619  PRO620  LYS621  CYS622 
 ASP623  PHE694  ASN695  SER759  ASP760  ASP761  ALA762  ILE779  LEU786  VAL792 
 PHE793  MET794  SER795  GLU796  ALA797  LYS798  CYS799  TRP800  GLU811  SER814 

> <Gold.Protein.RotatedAtoms>
  152.1847  133.4731  159.4976 H   0  0  0  0  0  0  0  0  0  0  0  0  # atno 6907 bound_to 6896
  150.6940  134.1789  159.4250 H   0  0  0  0  0  0  0  0  0  0  0  0  # atno 6908 bound_to 6896
  151.9701  135.0080  160.0603 H   0  0  0  0  0  0  0  0  0  0  0  0  # atno 6909 bound_to 6896
  145.1488  140.8818  143.3659 H   0  0  0  0  0  0  0  0  0  0  0  0  # atno 7974 bound_to 7965
  154.4659  140.2014  156.0121 H   0  0  0  0  0  0  0  0  0  0  0  0  # atno 8008 bound_to 7997
  156.0925  140.3256  155.7805 H   0  0  0  0  0  0  0  0  0  0  0  0  # atno 8009 bound_to 7997
  155.4933  140.0548  157.2941 H   0  0  0  0  0  0  0  0  0  0  0  0  # atno 8010 bound_to 7997
  139.6161  144.0717  152.1889 H   0  0  0  0  0  0  0  0  0  0  0  0  # atno 10167 bound_to 10162
  157.3235  131.0908  151.1221 H   0  0  0  0  0  0  0  0  0  0  0  0  # atno 10718 bound_to 10713
  154.1335  135.6516  153.4927 H   0  0  0  0  0  0  0  0  0  0  0  0  # atno 10763 bound_to 10752
  153.0187  135.5298  154.6977 H   0  0  0  0  0  0  0  0  0  0  0  0  # atno 10764 bound_to 10752
  154.6218  135.2965  155.0288 H   0  0  0  0  0  0  0  0  0  0  0  0  # atno 10765 bound_to 10752
  140.0694  134.9160  157.1319 H   0  0  0  0  0  0  0  0  0  0  0  0  # atno 11005 bound_to 11000
  145.0453  139.3226  143.5956 LP  0  0  0  0  0  0  0  0  0  0  0  0  # atno 17320 bound_to 7965
  146.3497  139.9841  142.8692 LP  0  0  0  0  0  0  0  0  0  0  0  0  # atno 17321 bound_to 7965
  140.0348  144.6053  150.7459 LP  0  0  0  0  0  0  0  0  0  0  0  0  # atno 17342 bound_to 10162
  140.7352  143.2737  151.3807 LP  0  0  0  0  0  0  0  0  0  0  0  0  # atno 17343 bound_to 10162
  157.2497  130.6608  149.5926 LP  0  0  0  0  0  0  0  0  0  0  0  0  # atno 17370 bound_to 10713
  155.9688  130.4542  150.5841 LP  0  0  0  0  0  0  0  0  0  0  0  0  # atno 17371 bound_to 10713
  140.3650  134.2452  155.7183 LP  0  0  0  0  0  0  0  0  0  0  0  0  # atno 17394 bound_to 11000
  141.2005  133.7984  157.0483 LP  0  0  0  0  0  0  0  0  0  0  0  0  # atno 17395 bound_to 11000

$$$$
