AV-unprocessed.smi:1211|AV-procd|sdf|5080|dock5
  -GOLD-   22720 4133D 1   1.00000     0.00000
 Structure written by MMmdl.
 48 50  0  0  0  0  0  0  0  0  2 V2000
  147.6826  132.9508  152.5013 C   0  0  0  0  0  0  0  0  0  0  0  0
  146.3404  132.9939  151.7890 C   0  0  0  0  0  0  0  0  0  0  0  0
  145.6688  131.7846  151.5093 C   0  0  0  0  0  0  0  0  0  0  0  0
  144.4288  131.8253  150.8494 C   0  0  0  0  0  0  0  0  0  0  0  0
  143.9096  133.0818  150.4944 C   0  0  0  0  0  0  0  0  0  0  0  0
  144.5446  134.2423  150.7570 N   0  0  0  0  0  0  0  0  0  0  0  0
  145.7416  134.2207  151.3953 C   0  0  0  0  0  0  0  0  0  0  0  0
  146.4661  135.4056  151.7086 N   0  0  0  0  0  0  0  0  0  0  0  0
  145.9917  136.5828  152.1532 C   0  0  0  0  0  0  0  0  0  0  0  0
  144.8088  136.8366  152.3800 O   0  0  0  0  0  0  0  0  0  0  0  0
  146.9817  137.4720  152.3189 N   0  0  0  0  0  0  0  0  0  0  0  0
  146.8187  138.8433  152.8021 C   0  0  0  0  0  0  0  0  0  0  0  0
  147.6884  139.1702  154.0588 C   0  0  1  0  0  0  0  0  0  0  0  0
  148.8843  138.2481  154.0729 N   0  3  0  0  0  0  0  0  0  0  0  0
  150.2267  138.8789  154.2144 C   0  0  0  0  0  0  0  0  0  0  0  0
  151.3472  137.8295  154.1016 C   0  0  0  0  0  0  0  0  0  0  0  0
  151.1510  136.7960  155.0548 O   0  0  0  0  0  0  0  0  0  0  0  0
  149.9256  136.1138  154.8361 C   0  0  0  0  0  0  0  0  0  0  0  0
  148.7609  137.0991  155.0142 C   0  0  0  0  0  0  0  0  0  0  0  0
  148.0704  140.6775  154.0629 C   0  0  0  0  0  0  0  0  0  0  0  0
  146.8100  141.4993  154.3503 C   0  0  0  0  0  0  0  0  0  0  0  0
  145.8012  140.5295  155.4974 S   0  0  0  0  0  0  0  0  0  0  0  0
  146.8254  139.0402  155.3361 C   0  0  0  0  0  0  0  0  0  0  0  0
  147.9794  131.9260  152.7271 H   0  0  0  0  0  0  0  0  0  0  0  0
  147.6333  133.4999  153.4421 H   0  0  0  0  0  0  0  0  0  0  0  0
  148.4597  133.3953  151.8787 H   0  0  0  0  0  0  0  0  0  0  0  0
  146.0964  130.8347  151.7953 H   0  0  0  0  0  0  0  0  0  0  0  0
  143.8900  130.9175  150.6214 H   0  0  0  0  0  0  0  0  0  0  0  0
  142.9598  133.1582  149.9861 H   0  0  0  0  0  0  0  0  0  0  0  0
  147.4642  135.3452  151.5743 H   0  0  0  0  0  0  0  0  0  0  0  0
  147.9243  137.1690  152.1227 H   0  0  0  0  0  0  0  0  0  0  0  0
  146.9910  139.5505  151.9908 H   0  0  0  0  0  0  0  0  0  0  0  0
  145.7614  138.9669  153.0334 H   0  0  0  0  0  0  0  0  0  0  0  0
  150.4035  139.6060  153.4233 H   0  0  0  0  0  0  0  0  0  0  0  0
  150.2953  139.4009  155.1694 H   0  0  0  0  0  0  0  0  0  0  0  0
  151.3828  137.4076  153.0958 H   0  0  0  0  0  0  0  0  0  0  0  0
  152.3159  138.2955  154.2824 H   0  0  0  0  0  0  0  0  0  0  0  0
  149.9107  135.6615  153.8431 H   0  0  0  0  0  0  0  0  0  0  0  0
  149.8423  135.3011  155.5580 H   0  0  0  0  0  0  0  0  0  0  0  0
  148.7547  137.4561  156.0445 H   0  0  0  0  0  0  0  0  0  0  0  0
  147.8269  136.5624  154.8582 H   0  0  0  0  0  0  0  0  0  0  0  0
  148.7474  140.9068  154.8847 H   0  0  0  0  0  0  0  0  0  0  0  0
  148.5689  140.9978  153.1488 H   0  0  0  0  0  0  0  0  0  0  0  0
  147.0496  142.4742  154.7759 H   0  0  0  0  0  0  0  0  0  0  0  0
  146.2408  141.6748  153.4374 H   0  0  0  0  0  0  0  0  0  0  0  0
  146.1979  138.1485  155.3373 H   0  0  0  0  0  0  0  0  0  0  0  0
  147.4577  138.9918  156.2232 H   0  0  0  0  0  0  0  0  0  0  0  0
  148.8964  137.8419  153.1484 H   0  0  0  0  0  0  0  0  0  0  0  0
  1  2  1  0  0  0  0
  1 24  1  0  0  0  0
  1 25  1  0  0  0  0
  1 26  1  0  0  0  0
  2  7  1  0  0  0  0
  2  3  2  0  0  0  0
  3  4  1  0  0  0  0
  3 27  1  0  0  0  0
  4  5  2  0  0  0  0
  4 28  1  0  0  0  0
  5  6  1  0  0  0  0
  5 29  1  0  0  0  0
  6  7  2  0  0  0  0
  7  8  1  0  0  0  0
  8  9  1  0  0  0  0
  8 30  1  0  0  0  0
  9 10  2  0  0  0  0
  9 11  1  0  0  0  0
 11 12  1  0  0  0  0
 11 31  1  0  0  0  0
 12 13  1  0  0  0  0
 12 32  1  0  0  0  0
 12 33  1  0  0  0  0
 13 23  1  0  0  0  0
 13 14  1  0  0  0  0
 13 20  1  0  0  0  0
 14 19  1  0  0  0  0
 14 15  1  0  0  0  0
 14 48  1  0  0  0  0
 15 16  1  0  0  0  0
 15 34  1  0  0  0  0
 15 35  1  0  0  0  0
 16 17  1  0  0  0  0
 16 36  1  0  0  0  0
 16 37  1  0  0  0  0
 17 18  1  0  0  0  0
 18 19  1  0  0  0  0
 18 38  1  0  0  0  0
 18 39  1  0  0  0  0
 19 40  1  0  0  0  0
 19 41  1  0  0  0  0
 20 21  1  0  0  0  0
 20 42  1  0  0  0  0
 20 43  1  0  0  0  0
 21 22  1  0  0  0  0
 21 44  1  0  0  0  0
 21 45  1  0  0  0  0
 22 23  1  0  0  0  0
 23 46  1  0  0  0  0
 23 47  1  0  0  0  0
M  CHG  1  14   1
M  END
> <s_m_source_file>
AV-unprocessed.smi

> <i_m_source_file_index>
1211

> <i_lp_mmshare_version>
43012

> <i_f3d_flags>
0

> <s_epik_input>
W0NIM11jMVtjSF1bY0hdW2NIXW5jMVtOSF1DKD1PKVtOSF1bQ0gyXVtDQF0yKFtDSDJdW0NIMl1TW0NIMl0yKU4zW0NIMl1bQ0gyXU9bQ0gyXVtDSDJdMw==

> <s_epik_cmdline>
J2VwaWtfcHl0aG9uJywgJy1waCcsICc3LjAnLCAnLXRuJywgJzgnLCAnLW1hJywgJzIwMCcsICctbWV0YWxfYmluZGluZycsICctaW1hZScsICc8aW5maWxlLm1hZT4nLCAnLW9tYWUnLCAnPG91dGZpbGUubWFlPic=

> <r_epik_Ionization_Penalty>
2.03223

> <r_epik_Ionization_Penalty_Charging>
2.03219

> <r_epik_Ionization_Penalty_Neutral>
4.05816e-05

> <r_epik_State_Penalty>
2.16328

> <r_epik_Charging_Adjusted_Penalty>
4.19546

> <i_epik_Tot_Q>
1

> <i_epik_Tot_abs_Q>
1

> <r_epik_Metal_State_Penalty>
2.16328

> <b_epik_Metal_Only>
0

> <s_lp_Force_Field>
OPLS_2005

> <r_lp_Energy>
45.8952

> <b_lp_Chiralities_Consistent>
1

> <s_lp_Variant>
AV-unprocessed.smi:1211-3

> <Gold.Version>
5.8.1

> <Gold.Id.Protein>
6NUR|6NUR_protein|mol2

> <Gold.PLP.Fitness>
45.3733

> <Gold.PLP.PLP>
-35.5254

> <Gold.PLP.part.hbond>
-2.9863

> <Gold.PLP.part.metal>
0.0000

> <Gold.PLP.part.buried>
-4.1008

> <Gold.PLP.part.nonpolar>
-30.0050

> <Gold.PLP.part.repulsive>
0.6370

> <Gold.PLP.ligand.clash>
0.0000

> <Gold.PLP.ligand.torsion>
2.9665

> <Gold.PLP.Chemscore.Hbond>
4.2125

> <Gold.PLP.Chemscore.CHOScore>
1.0000

> <Gold.PLP.Chemscore.Metal>
0.0000

> <Gold.Chemscore.Hbonds>
donor molecule, donor type, donor heavy atom, donor atom, acceptor molecule, acceptor atom, score
      L1  H     8    30       P1  7948  0.88
      L1  H    11    31       P1  7948  0.67
      L1  H    14    48       P1  7948  1.95
      P1  H 10752 10763       L1    17  0.54
      L1  C     5    29       P1 10186  1.00

> <Gold.PLP.Chemscore.Internal.Correction>
0.1435

> <Gold.Rescore>
     Score         DG    S(hbond)    S(metal)    S(lipo)     H(rot)  DE(clash)    DE(int)     intcor
     18.59     -21.94       3.09        0.00      84.94       1.48       0.36       2.99       ----

> <Gold.Chemscore.Fitness>
18.5856

> <Gold.Chemscore.DG>
-21.9350

> <Gold.Chemscore.ZeroCoef>
-5.4800

> <Gold.Chemscore.Hbond>
3.0871

> <Gold.Chemscore.Metal>
0.0000

> <Gold.Chemscore.Lipo>
84.9403

> <Gold.Chemscore.Internal_Hbond>
0.0000

> <Gold.Chemscore.DEClash>
0.3624

> <Gold.Chemscore.DEInternal>
2.9870

> <Gold.Chemscore.Rot>
1.4820

> <Gold.Chemscore.Internal.Correction>
   9.000000E+99

> <Gold.Chemscore.Hbonds>
donor molecule, donor type, donor heavy atom, donor atom, acceptor molecule, acceptor atom, score
      L1  H     8    30       P1  7948  0.78
      L1  H    11    31       P1  7948  0.66
      L1  H    14    48       P1  7948  0.90
      P1  H 10752 10763       L1    17  0.11

> <Gold.Chemscore.Hbond.Weighted>
-10.3109

> <Gold.Chemscore.Metal.Weighted>
-0.0000

> <Gold.Chemscore.Lipo.Weighted>
-9.9380

> <Gold.Chemscore.Internal_Hbond.Weighted>
0.0000

> <Gold.Chemscore.DEClash.Weighted>
0.3624

> <Gold.Chemscore.DEInternal.Weighted>
2.9870

> <Gold.Chemscore.Rot.Weighted>
3.7939

> <Gold.Chemscore.Internal.Correction.Weighted>
   9.000000E+99

> <Gold.Protein.RotatedTorsions>
[ 6907 6896 6895 6894 ] final   87.99 input  -60.11 | X-H torsion
[ 7974 7965 7964 7962 ] final  173.42 input  175.53 | X-H torsion
[ 8008 7997 7996 7995 ] final -154.57 input   59.86 | X-H torsion
[ 10167 10162 10161 10158 ] final   20.35 input  -65.29 | X-H torsion
[ 10718 10713 10712 10709 ] final   71.49 input   66.30 | X-H torsion
[ 10763 10752 10751 10750 ] final   60.68 input  -60.55 | X-H torsion
[ 11005 11000 10999 10996 ] final  140.16 input  -57.11 | X-H torsion

> <Gold.Protein.ActiveResidues>
 VAL166  LYS551  ARG553  GLY616  TRP617  ASP618  TYR619  PRO620  LYS621  CYS622 
 ASP623  PHE694  ASN695  SER759  ASP760  ASP761  ALA762  ILE779  LEU786  VAL792 
 PHE793  MET794  SER795  GLU796  ALA797  LYS798  CYS799  TRP800  GLU811  SER814 

> <Gold.Protein.RotatedAtoms>
  152.5419  134.2191  159.8780 H   0  0  0  0  0  0  0  0  0  0  0  0  # atno 6907 bound_to 6896
  151.2169  133.4517  159.2607 H   0  0  0  0  0  0  0  0  0  0  0  0  # atno 6908 bound_to 6896
  151.0843  134.9890  159.8427 H   0  0  0  0  0  0  0  0  0  0  0  0  # atno 6909 bound_to 6896
  144.7244  139.9644  143.6435 H   0  0  0  0  0  0  0  0  0  0  0  0  # atno 7974 bound_to 7965
  155.6884  140.0752  157.2457 H   0  0  0  0  0  0  0  0  0  0  0  0  # atno 8008 bound_to 7997
  154.4093  140.1669  156.2112 H   0  0  0  0  0  0  0  0  0  0  0  0  # atno 8009 bound_to 7997
  155.9473  140.3380  155.6381 H   0  0  0  0  0  0  0  0  0  0  0  0  # atno 8010 bound_to 7997
  140.5510  143.9508  150.6578 H   0  0  0  0  0  0  0  0  0  0  0  0  # atno 10167 bound_to 10162
  157.6454  130.9531  150.0796 H   0  0  0  0  0  0  0  0  0  0  0  0  # atno 10718 bound_to 10713
  152.9928  135.5528  154.5912 H   0  0  0  0  0  0  0  0  0  0  0  0  # atno 10763 bound_to 10752
  154.5273  135.2811  155.1212 H   0  0  0  0  0  0  0  0  0  0  0  0  # atno 10764 bound_to 10752
  154.2542  135.6393  153.5304 H   0  0  0  0  0  0  0  0  0  0  0  0  # atno 10765 bound_to 10752
  140.0307  134.9353  157.0657 H   0  0  0  0  0  0  0  0  0  0  0  0  # atno 11005 bound_to 11000
  146.0612  139.3605  143.0580 LP  0  0  0  0  0  0  0  0  0  0  0  0  # atno 17320 bound_to 7965
  145.8090  140.9735  143.0958 LP  0  0  0  0  0  0  0  0  0  0  0  0  # atno 17321 bound_to 7965
  140.2934  143.3309  152.1040 LP  0  0  0  0  0  0  0  0  0  0  0  0  # atno 17342 bound_to 10162
  139.5027  144.6741  151.6171 LP  0  0  0  0  0  0  0  0  0  0  0  0  # atno 17343 bound_to 10162
  156.1776  130.3649  149.9078 LP  0  0  0  0  0  0  0  0  0  0  0  0  # atno 17370 bound_to 10713
  156.7039  130.8943  151.3602 LP  0  0  0  0  0  0  0  0  0  0  0  0  # atno 17371 bound_to 10713
  140.4230  134.1860  155.7165 LP  0  0  0  0  0  0  0  0  0  0  0  0  # atno 17394 bound_to 11000
  141.1829  133.8375  157.1192 LP  0  0  0  0  0  0  0  0  0  0  0  0  # atno 17395 bound_to 11000

$$$$
