AV-unprocessed.smi:148|AV-procd|sdf|1209|dock3
  -GOLD-   2262018383D 1   1.00000     0.00000
 Structure written by MMmdl.
 63 67  0  0  0  0  0  0  0  0  1 V2000
  145.7526  132.7125  160.5489 O   0  0  0  0  0  0  0  0  0  0  0  0
  146.1854  133.6518  159.5873 C   0  0  0  0  0  0  0  0  0  0  0  0
  147.6817  133.9891  159.7879 C   0  0  1  0  0  0  0  0  0  0  0  0
  148.3345  134.3748  158.4366 C   0  0  0  0  0  0  0  0  0  0  0  0
  148.2553  133.3237  157.4379 N   0  0  0  0  0  0  0  0  0  0  0  0
  147.8179  132.0319  157.6304 C   0  0  0  0  0  0  0  0  0  0  0  0
  147.8330  131.2750  156.5671 N   0  0  0  0  0  0  0  0  0  0  0  0
  148.3249  132.1083  155.5711 C   0  0  0  0  0  0  0  0  0  0  0  0
  148.6016  131.9371  154.1902 C   0  0  0  0  0  0  0  0  0  0  0  0
  148.3834  130.7624  153.5608 N   0  0  0  0  0  0  0  0  0  0  0  0
  149.0141  129.6654  154.2974 C   0  0  0  0  0  0  0  0  0  0  0  0
  149.0634  128.3864  153.4565 C   0  0  0  0  0  0  0  0  0  0  0  0
  147.6536  128.0180  152.9911 C   0  0  0  0  0  0  0  0  0  0  0  0
  147.0267  129.1966  152.2340 C   0  0  0  0  0  0  0  0  0  0  0  0
  147.0147  130.5078  153.0663 C   0  0  2  0  0  0  0  0  0  0  0  0
  146.4151  131.6900  152.2254 C   0  0  1  0  0  0  0  0  0  0  0  0
  145.0806  131.3871  151.5186 C   0  0  0  0  0  0  0  0  0  0  0  0
  144.4789  132.7436  151.1343 C   0  0  0  0  0  0  0  0  0  0  0  0
  145.1872  133.7872  152.0054 C   0  0  0  0  0  0  0  0  0  0  0  0
  146.0767  133.0006  152.9742 C   0  0  1  0  0  0  0  0  0  0  0  0
  145.3436  132.7423  154.1574 O   0  0  0  0  0  0  0  0  0  0  0  0
  149.0943  132.9994  153.4995 N   0  0  0  0  0  0  0  0  0  0  0  0
  149.3135  134.1576  154.1297 C   0  0  0  0  0  0  0  0  0  0  0  0
  149.1068  134.4626  155.4133 N   0  0  0  0  0  0  0  0  0  0  0  0
  148.6048  133.3972  156.1018 C   0  0  0  0  0  0  0  0  0  0  0  0
  147.9362  135.0459  160.8997 C   0  0  2  0  0  0  0  0  0  0  0  0
  146.9841  134.9899  162.0962 C   0  0  0  0  0  0  0  0  0  0  0  0
  146.4948  136.4294  162.2521 C   0  0  0  0  0  0  0  0  0  0  0  0
  147.5068  137.2052  161.6313 O   0  0  0  0  0  0  0  0  0  0  0  0
  147.8784  136.5123  160.4518 C   0  0  0  0  0  0  0  0  0  0  0  0
  145.8586  133.0901  161.4088 H   0  0  0  0  0  0  0  0  0  0  0  0
  146.0020  133.2443  158.5931 H   0  0  0  0  0  0  0  0  0  0  0  0
  145.5558  134.5346  159.6876 H   0  0  0  0  0  0  0  0  0  0  0  0
  148.1702  133.0762  160.1325 H   0  0  0  0  0  0  0  0  0  0  0  0
  147.8576  135.2630  158.0213 H   0  0  0  0  0  0  0  0  0  0  0  0
  149.3845  134.6300  158.5849 H   0  0  0  0  0  0  0  0  0  0  0  0
  147.4759  131.6680  158.5883 H   0  0  0  0  0  0  0  0  0  0  0  0
  150.0277  129.9456  154.5898 H   0  0  0  0  0  0  0  0  0  0  0  0
  148.4582  129.4767  155.2172 H   0  0  0  0  0  0  0  0  0  0  0  0
  149.7130  128.5363  152.5932 H   0  0  0  0  0  0  0  0  0  0  0  0
  149.4946  127.5709  154.0375 H   0  0  0  0  0  0  0  0  0  0  0  0
  147.6873  127.1350  152.3526 H   0  0  0  0  0  0  0  0  0  0  0  0
  147.0349  127.7606  153.8516 H   0  0  0  0  0  0  0  0  0  0  0  0
  147.5759  129.3588  151.3054 H   0  0  0  0  0  0  0  0  0  0  0  0
  146.0156  128.9077  151.9494 H   0  0  0  0  0  0  0  0  0  0  0  0
  146.3787  130.3312  153.9343 H   0  0  0  0  0  0  0  0  0  0  0  0
  147.1312  131.9333  151.4380 H   0  0  0  0  0  0  0  0  0  0  0  0
  145.2051  130.7442  150.6465 H   0  0  0  0  0  0  0  0  0  0  0  0
  144.4033  130.8798  152.2074 H   0  0  0  0  0  0  0  0  0  0  0  0
  144.6533  132.9577  150.0792 H   0  0  0  0  0  0  0  0  0  0  0  0
  143.4006  132.7505  151.2956 H   0  0  0  0  0  0  0  0  0  0  0  0
  145.8140  134.4143  151.3700 H   0  0  0  0  0  0  0  0  0  0  0  0
  144.4884  134.4511  152.5161 H   0  0  0  0  0  0  0  0  0  0  0  0
  146.9533  133.5917  153.2302 H   0  0  0  0  0  0  0  0  0  0  0  0
  144.5054  132.3784  153.9169 H   0  0  0  0  0  0  0  0  0  0  0  0
  149.7136  134.9530  153.5183 H   0  0  0  0  0  0  0  0  0  0  0  0
  148.9292  134.8804  161.3186 H   0  0  0  0  0  0  0  0  0  0  0  0
  146.1548  134.2935  161.9759 H   0  0  0  0  0  0  0  0  0  0  0  0
  147.5324  134.6808  162.9873 H   0  0  0  0  0  0  0  0  0  0  0  0
  145.5520  136.5755  161.7227 H   0  0  0  0  0  0  0  0  0  0  0  0
  146.3495  136.7146  163.2942 H   0  0  0  0  0  0  0  0  0  0  0  0
  148.8324  136.8695  160.0635 H   0  0  0  0  0  0  0  0  0  0  0  0
  147.1175  136.6850  159.6910 H   0  0  0  0  0  0  0  0  0  0  0  0
  1  2  1  0  0  0  0
  1 31  1  0  0  0  0
  2  3  1  0  0  0  0
  2 32  1  0  0  0  0
  2 33  1  0  0  0  0
  3  4  1  0  0  0  0
  3 26  1  0  0  0  0
  3 34  1  0  0  0  0
  4  5  1  0  0  0  0
  4 35  1  0  0  0  0
  4 36  1  0  0  0  0
  5 25  1  0  0  0  0
  5  6  1  0  0  0  0
  6  7  2  0  0  0  0
  6 37  1  0  0  0  0
  7  8  1  0  0  0  0
  8 25  2  0  0  0  0
  8  9  1  0  0  0  0
  9 10  1  0  0  0  0
  9 22  2  0  0  0  0
 10 15  1  0  0  0  0
 10 11  1  0  0  0  0
 11 12  1  0  0  0  0
 11 38  1  0  0  0  0
 11 39  1  0  0  0  0
 12 13  1  0  0  0  0
 12 40  1  0  0  0  0
 12 41  1  0  0  0  0
 13 14  1  0  0  0  0
 13 42  1  0  0  0  0
 13 43  1  0  0  0  0
 14 15  1  0  0  0  0
 14 44  1  0  0  0  0
 14 45  1  0  0  0  0
 15 16  1  0  0  0  0
 15 46  1  0  0  0  0
 16 20  1  0  0  0  0
 16 17  1  0  0  0  0
 16 47  1  0  0  0  0
 17 18  1  0  0  0  0
 17 48  1  0  0  0  0
 17 49  1  0  0  0  0
 18 19  1  0  0  0  0
 18 50  1  0  0  0  0
 18 51  1  0  0  0  0
 19 20  1  0  0  0  0
 19 52  1  0  0  0  0
 19 53  1  0  0  0  0
 20 21  1  0  0  0  0
 20 54  1  0  0  0  0
 21 55  1  0  0  0  0
 22 23  1  0  0  0  0
 23 24  2  0  0  0  0
 23 56  1  0  0  0  0
 24 25  1  0  0  0  0
 26 30  1  0  0  0  0
 26 27  1  0  0  0  0
 26 57  1  0  0  0  0
 27 28  1  0  0  0  0
 27 58  1  0  0  0  0
 27 59  1  0  0  0  0
 28 29  1  0  0  0  0
 28 60  1  0  0  0  0
 28 61  1  0  0  0  0
 29 30  1  0  0  0  0
 30 62  1  0  0  0  0
 30 63  1  0  0  0  0
M  END
> <s_m_source_file>
AV-unprocessed.smi

> <i_m_source_file_index>
148

> <i_lp_mmshare_version>
43012

> <i_f3d_flags>
0

> <s_epik_input>
W0NIMl0xT1tDSDJdW0NIMl1bQ0BIXTFbQ0BIXShbQ0gyXVtPSF0pW0NIMl1uKFtjSF1uMiljKGMyMyluW2NIXW5jM040W0NIMl1bQ0gyXVtDSDJdW0NIMl1bQ0BIXTRbQ0BASF01W0NIMl1bQ0gyXVtDSDJdW0NASF01W09IXQ==

> <s_epik_cmdline>
J2VwaWtfcHl0aG9uJywgJy1waCcsICc3LjAnLCAnLXRuJywgJzgnLCAnLW1hJywgJzIwMCcsICctbWV0YWxfYmluZGluZycsICctaW1hZScsICc8aW5maWxlLm1hZT4nLCAnLW9tYWUnLCAnPG91dGZpbGUubWFlPic=

> <r_lp_tautomer_probability>
1

> <r_epik_Ionization_Penalty>
0.00556303

> <r_epik_Ionization_Penalty_Charging>
0

> <r_epik_Ionization_Penalty_Neutral>
0.00556303

> <r_epik_State_Penalty>
0.00401767

> <r_epik_Charging_Adjusted_Penalty>
0.00401767

> <i_epik_Tot_Q>
0

> <i_epik_Tot_abs_Q>
0

> <r_epik_Metal_State_Penalty>
-0

> <b_epik_Metal_Only>
0

> <s_lp_Force_Field>
OPLS_2005

> <r_lp_Energy>
71.0858

> <b_lp_Chiralities_Consistent>
1

> <s_lp_Variant>
AV-unprocessed.smi:148-8

> <Gold.Version>
5.8.1

> <Gold.Id.Protein>
6NUR|6NUR_protein|mol2

> <Gold.PLP.Fitness>
46.2000

> <Gold.PLP.PLP>
-38.9507

> <Gold.PLP.part.hbond>
-3.0000

> <Gold.PLP.part.metal>
0.0000

> <Gold.PLP.part.buried>
-4.9460

> <Gold.PLP.part.nonpolar>
-31.1140

> <Gold.PLP.part.repulsive>
0.3400

> <Gold.PLP.ligand.clash>
0.0853

> <Gold.PLP.ligand.torsion>
1.3751

> <Gold.PLP.Chemscore.Hbond>
2.6400

> <Gold.PLP.Chemscore.CHOScore>
0.4435

> <Gold.PLP.Chemscore.Metal>
0.0000

> <Gold.Chemscore.Hbonds>
donor molecule, donor type, donor heavy atom, donor atom, acceptor molecule, acceptor atom, score
      L1  H    21    55       P1 10957  0.66
      P1  H  6931  6943       L1    29  0.94
      P1  H  6934  6947       L1    29  0.80
      L1  C    23    56       P1  7948  0.34

> <Gold.PLP.Chemscore.Internal.Correction>
0.8342

> <Gold.Rescore>
     Score         DG    S(hbond)    S(metal)    S(lipo)     H(rot)  DE(clash)    DE(int)     intcor
     11.67     -14.61       1.84        0.00      98.14       3.32       0.33       2.60       ----

> <Gold.Chemscore.Fitness>
11.6688

> <Gold.Chemscore.DG>
-14.6071

> <Gold.Chemscore.ZeroCoef>
-5.4800

> <Gold.Chemscore.Hbond>
1.8399

> <Gold.Chemscore.Metal>
0.0000

> <Gold.Chemscore.Lipo>
98.1359

> <Gold.Chemscore.Internal_Hbond>
0.0000

> <Gold.Chemscore.DEClash>
0.3340

> <Gold.Chemscore.DEInternal>
2.6043

> <Gold.Chemscore.Rot>
3.3203

> <Gold.Chemscore.Internal.Correction>
   9.000000E+99

> <Gold.Chemscore.Hbonds>
donor molecule, donor type, donor heavy atom, donor atom, acceptor molecule, acceptor atom, score
      L1  H    21    55       P1 10957  0.23
      P1  H  6931  6943       L1    29  0.27
      P1  H  6934  6947       L1    29  0.27

> <Gold.Chemscore.Hbond.Weighted>
-6.1452

> <Gold.Chemscore.Metal.Weighted>
-0.0000

> <Gold.Chemscore.Lipo.Weighted>
-11.4819

> <Gold.Chemscore.Internal_Hbond.Weighted>
0.0000

> <Gold.Chemscore.DEClash.Weighted>
0.3340

> <Gold.Chemscore.DEInternal.Weighted>
2.6043

> <Gold.Chemscore.Rot.Weighted>
8.5000

> <Gold.Chemscore.Internal.Correction.Weighted>
   9.000000E+99

> <Gold.Protein.RotatedTorsions>
[ 6907 6896 6895 6894 ] final  -88.47 input  -60.11 | X-H torsion
[ 7974 7965 7964 7962 ] final  -24.06 input  175.53 | X-H torsion
[ 8008 7997 7996 7995 ] final -166.93 input   59.86 | X-H torsion
[ 10167 10162 10161 10158 ] final   31.52 input  -65.29 | X-H torsion
[ 10718 10713 10712 10709 ] final   65.18 input   66.30 | X-H torsion
[ 10763 10752 10751 10750 ] final  119.91 input  -60.55 | X-H torsion
[ 11005 11000 10999 10996 ] final  -39.99 input  -57.11 | X-H torsion

> <Gold.Protein.ActiveResidues>
 VAL166  LYS551  ARG553  GLY616  TRP617  ASP618  TYR619  PRO620  LYS621  CYS622 
 ASP623  PHE694  ASN695  SER759  ASP760  ASP761  ALA762  ILE779  LEU786  VAL792 
 PHE793  MET794  SER795  GLU796  ALA797  LYS798  CYS799  TRP800  GLU811  SER814 

> <Gold.Protein.RotatedAtoms>
  150.6869  134.2737  159.4598 H   0  0  0  0  0  0  0  0  0  0  0  0  # atno 6907 bound_to 6896
  152.0657  134.9563  160.0584 H   0  0  0  0  0  0  0  0  0  0  0  0  # atno 6908 bound_to 6896
  152.0973  133.4196  159.4608 H   0  0  0  0  0  0  0  0  0  0  0  0  # atno 6909 bound_to 6896
  146.1578  140.4701  142.8584 H   0  0  0  0  0  0  0  0  0  0  0  0  # atno 7974 bound_to 7965
  155.8707  140.0993  157.1552 H   0  0  0  0  0  0  0  0  0  0  0  0  # atno 8008 bound_to 7997
  154.3997  140.1347  156.4137 H   0  0  0  0  0  0  0  0  0  0  0  0  # atno 8009 bound_to 7997
  155.7754  140.3460  155.5271 H   0  0  0  0  0  0  0  0  0  0  0  0  # atno 8010 bound_to 7997
  140.4581  144.0947  150.6206 H   0  0  0  0  0  0  0  0  0  0  0  0  # atno 10167 bound_to 10162
  157.6089  130.9200  149.9943 H   0  0  0  0  0  0  0  0  0  0  0  0  # atno 10718 bound_to 10713
  153.5903  135.3467  155.2908 H   0  0  0  0  0  0  0  0  0  0  0  0  # atno 10763 bound_to 10752
  154.8653  135.4203  154.2523 H   0  0  0  0  0  0  0  0  0  0  0  0  # atno 10764 bound_to 10752
  153.3329  135.7045  153.7003 H   0  0  0  0  0  0  0  0  0  0  0  0  # atno 10765 bound_to 10752
  141.0142  133.6893  156.2261 H   0  0  0  0  0  0  0  0  0  0  0  0  # atno 11005 bound_to 11000
  144.7986  140.6170  143.6493 LP  0  0  0  0  0  0  0  0  0  0  0  0  # atno 17320 bound_to 7965
  145.4665  139.1507  143.3837 LP  0  0  0  0  0  0  0  0  0  0  0  0  # atno 17321 bound_to 7965
  140.4126  143.2649  151.9814 LP  0  0  0  0  0  0  0  0  0  0  0  0  # atno 17342 bound_to 10162
  139.4803  144.5902  151.7785 LP  0  0  0  0  0  0  0  0  0  0  0  0  # atno 17343 bound_to 10162
  156.1184  130.3647  149.9928 LP  0  0  0  0  0  0  0  0  0  0  0  0  # atno 17370 bound_to 10713
  156.8013  130.9291  151.3646 LP  0  0  0  0  0  0  0  0  0  0  0  0  # atno 17371 bound_to 10713
  140.6683  134.4895  157.5586 LP  0  0  0  0  0  0  0  0  0  0  0  0  # atno 17394 bound_to 11000
  139.9107  134.8351  156.1539 LP  0  0  0  0  0  0  0  0  0  0  0  0  # atno 17395 bound_to 11000

$$$$
