AV-unprocessed.smi:3009|AV-procd|sdf|11452|dock4
  -GOLD-   2272016383D 1   1.00000     0.00000
 Structure written by MMmdl.
 44 45  0  0  0  0  0  0  0  0  2 V2000
  143.6775  132.7886  151.1200 C   0  0  0  0  0  0  0  0  0  0  0  0
  144.9678  133.5575  151.4497 C   0  0  0  0  0  0  0  0  0  0  0  0
  144.8108  135.0439  151.0956 C   0  0  0  0  0  0  0  0  0  0  0  0
  146.1947  132.9555  150.7306 C   0  0  0  0  0  0  0  0  0  0  0  0
  147.1123  132.2275  151.6448 N   0  3  2  0  0  0  0  0  0  0  0  0
  146.4993  131.0316  152.2742 C   0  0  0  0  0  0  0  0  0  0  0  0
  147.5145  130.3227  153.1850 C   0  0  0  0  0  0  0  0  0  0  0  0
  147.9963  131.2370  154.1608 O   0  0  0  0  0  0  0  0  0  0  0  0
  148.6816  132.3389  153.5746 C   0  0  2  0  0  0  0  0  0  0  0  0
  149.2396  133.2183  154.7078 C   0  0  0  0  0  0  0  0  0  0  0  0
  149.4697  134.5907  154.2699 N   0  0  0  0  0  0  0  0  0  0  0  0
  150.2281  135.4864  154.9169 C   0  0  0  0  0  0  0  0  0  0  0  0
  150.8137  135.2438  155.9724 O   0  0  0  0  0  0  0  0  0  0  0  0
  150.2537  136.6627  154.2700 N   0  0  0  0  0  0  0  0  0  0  0  0
  150.9638  137.8330  154.6385 C   0  0  0  0  0  0  0  0  0  0  0  0
  150.6188  139.1504  154.2313 C   0  0  0  0  0  0  0  0  0  0  0  0
  151.4623  140.0455  154.7246 N   0  0  0  0  0  0  0  0  0  0  0  0
  152.3439  139.3120  155.4408 N   0  0  0  0  0  0  0  0  0  0  0  0
  152.0804  137.9603  155.4164 C   0  0  0  0  0  0  0  0  0  0  0  0
  147.6948  133.1146  152.6804 C   0  0  0  0  0  0  0  0  0  0  0  0
  153.1118  139.7433  155.9353 H   0  0  0  0  0  0  0  0  0  0  0  0
  143.4712  132.8013  150.0493 H   0  0  0  0  0  0  0  0  0  0  0  0
  142.8185  133.2286  151.6273 H   0  0  0  0  0  0  0  0  0  0  0  0
  143.7410  131.7470  151.4350 H   0  0  0  0  0  0  0  0  0  0  0  0
  145.1219  133.5085  152.5269 H   0  0  0  0  0  0  0  0  0  0  0  0
  144.6475  135.1830  150.0265 H   0  0  0  0  0  0  0  0  0  0  0  0
  145.7003  135.6104  151.3730 H   0  0  0  0  0  0  0  0  0  0  0  0
  143.9646  135.4867  151.6217 H   0  0  0  0  0  0  0  0  0  0  0  0
  145.8354  132.2721  149.9595 H   0  0  0  0  0  0  0  0  0  0  0  0
  146.7543  133.7330  150.2081 H   0  0  0  0  0  0  0  0  0  0  0  0
  145.6258  131.3309  152.8558 H   0  0  0  0  0  0  0  0  0  0  0  0
  146.1526  130.3325  151.5143 H   0  0  0  0  0  0  0  0  0  0  0  0
  147.0402  129.4829  153.6929 H   0  0  0  0  0  0  0  0  0  0  0  0
  148.3447  129.9161  152.6052 H   0  0  0  0  0  0  0  0  0  0  0  0
  149.5070  131.9699  152.9626 H   0  0  0  0  0  0  0  0  0  0  0  0
  148.5586  133.2172  155.5605 H   0  0  0  0  0  0  0  0  0  0  0  0
  150.1845  132.8107  155.0679 H   0  0  0  0  0  0  0  0  0  0  0  0
  149.0219  134.8763  153.4112 H   0  0  0  0  0  0  0  0  0  0  0  0
  149.7141  136.7269  153.4192 H   0  0  0  0  0  0  0  0  0  0  0  0
  149.8010  139.4802  153.6074 H   0  0  0  0  0  0  0  0  0  0  0  0
  152.6953  137.2422  155.9383 H   0  0  0  0  0  0  0  0  0  0  0  0
  148.2141  133.9449  152.1999 H   0  0  0  0  0  0  0  0  0  0  0  0
  146.8933  133.5434  153.2844 H   0  0  0  0  0  0  0  0  0  0  0  0
  147.8860  131.9048  151.0812 H   0  0  0  0  0  0  0  0  0  0  0  0
  1  2  1  0  0  0  0
  1 22  1  0  0  0  0
  1 23  1  0  0  0  0
  1 24  1  0  0  0  0
  2  3  1  0  0  0  0
  2  4  1  0  0  0  0
  2 25  1  0  0  0  0
  3 26  1  0  0  0  0
  3 27  1  0  0  0  0
  3 28  1  0  0  0  0
  4  5  1  0  0  0  0
  4 29  1  0  0  0  0
  4 30  1  0  0  0  0
  5 20  1  0  0  0  0
  5  6  1  0  0  0  0
  5 44  1  0  0  0  0
  6  7  1  0  0  0  0
  6 31  1  0  0  0  0
  6 32  1  0  0  0  0
  7  8  1  0  0  0  0
  7 33  1  0  0  0  0
  7 34  1  0  0  0  0
  8  9  1  0  0  0  0
  9 10  1  0  0  0  0
  9 20  1  0  0  0  0
  9 35  1  0  0  0  0
 10 11  1  0  0  0  0
 10 36  1  0  0  0  0
 10 37  1  0  0  0  0
 11 12  1  0  0  0  0
 11 38  1  0  0  0  0
 12 13  2  0  0  0  0
 12 14  1  0  0  0  0
 14 15  1  0  0  0  0
 14 39  1  0  0  0  0
 15 19  2  0  0  0  0
 15 16  1  0  0  0  0
 16 17  2  0  0  0  0
 16 40  1  0  0  0  0
 17 18  1  0  0  0  0
 18 21  1  0  0  0  0
 18 19  1  0  0  0  0
 19 41  1  0  0  0  0
 20 42  1  0  0  0  0
 20 43  1  0  0  0  0
M  CHG  1   5   1
M  END
> <s_m_source_file>
AV-unprocessed.smi

> <i_m_source_file_index>
3009

> <i_lp_mmshare_version>
43012

> <i_f3d_flags>
0

> <s_epik_input>
W0NIM11bQ0hdKFtDSDNdKVtDSDJdTjFbQ0gyXVtDSDJdT1tDQEhdKFtDSDJdMSlbQ0gyXVtOSF1DKD1PKVtOSF1jMltjSF1uW25IXVtjSF0y

> <s_epik_cmdline>
J2VwaWtfcHl0aG9uJywgJy1waCcsICc3LjAnLCAnLXRuJywgJzgnLCAnLW1hJywgJzIwMCcsICctbWV0YWxfYmluZGluZycsICctaW1hZScsICc8aW5maWxlLm1hZT4nLCAnLW9tYWUnLCAnPG91dGZpbGUubWFlPic=

> <r_lp_tautomer_probability>
0.5

> <r_epik_Ionization_Penalty>
0.0974064

> <r_epik_Ionization_Penalty_Charging>
0.0973651

> <r_epik_Ionization_Penalty_Neutral>
4.13573e-05

> <r_epik_State_Penalty>
0.0874853

> <r_epik_Charging_Adjusted_Penalty>
0.18485

> <i_epik_Tot_Q>
1

> <i_epik_Tot_abs_Q>
1

> <r_epik_Metal_State_Penalty>
0.0874855

> <b_epik_Metal_Only>
0

> <s_lp_Force_Field>
OPLS_2005

> <r_lp_Energy>
20.2975

> <b_lp_Chiralities_Consistent>
1

> <s_lp_Variant>
AV-unprocessed.smi:3009-4

> <Gold.Version>
5.8.1

> <Gold.Id.Protein>
6NUR|6NUR_protein|mol2

> <Gold.PLP.Fitness>
49.8530

> <Gold.PLP.PLP>
-37.3859

> <Gold.PLP.part.hbond>
-4.8151

> <Gold.PLP.part.metal>
0.0000

> <Gold.PLP.part.buried>
-5.2932

> <Gold.PLP.part.nonpolar>
-28.0785

> <Gold.PLP.part.repulsive>
0.4483

> <Gold.PLP.ligand.clash>
0.0000

> <Gold.PLP.ligand.torsion>
1.1632

> <Gold.PLP.Chemscore.Hbond>
3.9199

> <Gold.PLP.Chemscore.CHOScore>
0.9908

> <Gold.PLP.Chemscore.Metal>
0.0000

> <Gold.Chemscore.Hbonds>
donor molecule, donor type, donor heavy atom, donor atom, acceptor molecule, acceptor atom, score
      L1  H     5    44       P1 10747  1.00
      L1  H    11    38       P1  7948  0.90
      L1  H    14    39       P1  7948  1.00
      P1  H  7989  7998       L1    17  0.83
      L1  C    16    40       P1  7957  1.00

> <Gold.PLP.Chemscore.Internal.Correction>
0.0614

> <Gold.Rescore>
     Score         DG    S(hbond)    S(metal)    S(lipo)     H(rot)  DE(clash)    DE(int)     intcor
     18.14     -20.49       2.94        0.00      83.64       1.80       0.28       2.07       ----

> <Gold.Chemscore.Fitness>
18.1369

> <Gold.Chemscore.DG>
-20.4896

> <Gold.Chemscore.ZeroCoef>
-5.4800

> <Gold.Chemscore.Hbond>
2.9409

> <Gold.Chemscore.Metal>
0.0000

> <Gold.Chemscore.Lipo>
83.6378

> <Gold.Chemscore.Internal_Hbond>
0.0000

> <Gold.Chemscore.DEClash>
0.2824

> <Gold.Chemscore.DEInternal>
2.0703

> <Gold.Chemscore.Rot>
1.7963

> <Gold.Chemscore.Internal.Correction>
   9.000000E+99

> <Gold.Chemscore.Hbonds>
donor molecule, donor type, donor heavy atom, donor atom, acceptor molecule, acceptor atom, score
      L1  H     5    44       P1 10747  1.00
      L1  H    11    38       P1  7948  0.19
      L1  H    14    39       P1  7948  0.50
      P1  H  7989  7998       L1    17  0.18

> <Gold.Chemscore.Hbond.Weighted>
-9.8225

> <Gold.Chemscore.Metal.Weighted>
-0.0000

> <Gold.Chemscore.Lipo.Weighted>
-9.7856

> <Gold.Chemscore.Internal_Hbond.Weighted>
0.0000

> <Gold.Chemscore.DEClash.Weighted>
0.2824

> <Gold.Chemscore.DEInternal.Weighted>
2.0703

> <Gold.Chemscore.Rot.Weighted>
4.5985

> <Gold.Chemscore.Internal.Correction.Weighted>
   9.000000E+99

> <Gold.Protein.RotatedTorsions>
[ 6907 6896 6895 6894 ] final   87.42 input  -60.11 | X-H torsion
[ 7974 7965 7964 7962 ] final -168.91 input  175.53 | X-H torsion
[ 8008 7997 7996 7995 ] final  151.47 input   59.86 | X-H torsion
[ 10167 10162 10161 10158 ] final -155.56 input  -65.29 | X-H torsion
[ 10718 10713 10712 10709 ] final    3.25 input   66.30 | X-H torsion
[ 10763 10752 10751 10750 ] final   57.32 input  -60.55 | X-H torsion
[ 11005 11000 10999 10996 ] final   39.08 input  -57.11 | X-H torsion

> <Gold.Protein.ActiveResidues>
 VAL166  LYS551  ARG553  GLY616  TRP617  ASP618  TYR619  PRO620  LYS621  CYS622 
 ASP623  PHE694  ASN695  SER759  ASP760  ASP761  ALA762  ILE779  LEU786  VAL792 
 PHE793  MET794  SER795  GLU796  ALA797  LYS798  CYS799  TRP800  GLU811  SER814 

> <Gold.Protein.RotatedAtoms>
  152.5411  134.2279  159.8813 H   0  0  0  0  0  0  0  0  0  0  0  0  # atno 6907 bound_to 6896
  151.2252  133.4473  159.2609 H   0  0  0  0  0  0  0  0  0  0  0  0  # atno 6908 bound_to 6896
  151.0767  134.9846  159.8391 H   0  0  0  0  0  0  0  0  0  0  0  0  # atno 6909 bound_to 6896
  144.7194  140.2300  143.6305 H   0  0  0  0  0  0  0  0  0  0  0  0  # atno 7974 bound_to 7965
  156.2672  140.2047  156.6180 H   0  0  0  0  0  0  0  0  0  0  0  0  # atno 8008 bound_to 7997
  154.6779  140.0543  157.0259 H   0  0  0  0  0  0  0  0  0  0  0  0  # atno 8009 bound_to 7997
  155.1043  140.3209  155.4541 H   0  0  0  0  0  0  0  0  0  0  0  0  # atno 8010 bound_to 7997
  139.6921  143.9403  152.2390 H   0  0  0  0  0  0  0  0  0  0  0  0  # atno 10167 bound_to 10162
  156.8751  130.5633  149.5655 H   0  0  0  0  0  0  0  0  0  0  0  0  # atno 10718 bound_to 10713
  152.9848  135.5645  154.5372 H   0  0  0  0  0  0  0  0  0  0  0  0  # atno 10763 bound_to 10752
  154.4833  135.2789  155.1556 H   0  0  0  0  0  0  0  0  0  0  0  0  # atno 10764 bound_to 10752
  154.3055  135.6299  153.5496 H   0  0  0  0  0  0  0  0  0  0  0  0  # atno 10765 bound_to 10752
  140.2063  134.3809  155.8071 H   0  0  0  0  0  0  0  0  0  0  0  0  # atno 11005 bound_to 11000
  145.8420  139.2134  143.1822 LP  0  0  0  0  0  0  0  0  0  0  0  0  # atno 17320 bound_to 7965
  146.0338  140.8232  142.9863 LP  0  0  0  0  0  0  0  0  0  0  0  0  # atno 17321 bound_to 7965
  139.9222  144.6792  150.8449 LP  0  0  0  0  0  0  0  0  0  0  0  0  # atno 17342 bound_to 10162
  140.7685  143.3367  151.2294 LP  0  0  0  0  0  0  0  0  0  0  0  0  # atno 17343 bound_to 10162
  156.0706  130.5740  150.9376 LP  0  0  0  0  0  0  0  0  0  0  0  0  # atno 17370 bound_to 10713
  157.6173  131.0932  150.8686 LP  0  0  0  0  0  0  0  0  0  0  0  0  # atno 17371 bound_to 10713
  141.2227  133.7120  156.8343 LP  0  0  0  0  0  0  0  0  0  0  0  0  # atno 17394 bound_to 11000
  140.1999  134.8905  157.3157 LP  0  0  0  0  0  0  0  0  0  0  0  0  # atno 17395 bound_to 11000

$$$$
