AV-unprocessed.smi:1768|AV-procd|sdf|7148|dock2
  -GOLD-   22720 8383D 1   1.00000     0.00000
 Structure written by MMmdl.
 32 33  0  0  0  0  0  0  0  0  2 V2000
  148.7340  141.4662  154.4382 C   0  0  0  0  0  0  0  0  0  0  0  0
  149.9488  140.7860  154.9696 C   0  0  0  0  0  0  0  0  0  0  0  0
  150.6762  139.9352  154.2416 N   0  0  0  0  0  0  0  0  0  0  0  0
  151.7551  139.4298  154.9526 N   0  0  0  0  0  0  0  0  0  0  0  0
  151.8216  139.8939  156.2085 C   0  0  0  0  0  0  0  0  0  0  0  0
  152.7934  139.5281  157.0606 N   0  5  0  0  0  0  0  0  0  0  0  0
  152.5886  139.6088  158.3953 C   0  0  0  0  0  0  0  0  0  0  0  0
  151.6302  139.1434  159.0161 O   0  0  0  0  0  0  0  0  0  0  0  0
  153.5553  140.2681  159.0503 N   0  0  0  0  0  0  0  0  0  0  0  0
  153.6082  140.5200  160.4887 C   0  0  1  0  0  0  0  0  0  0  0  0
  154.9419  140.0024  161.0569 C   0  0  0  0  0  0  0  0  0  0  0  0
  153.4140  142.0272  160.7430 C   0  0  2  0  0  0  0  0  0  0  0  0
  153.3308  142.4246  162.2182 C   0  0  0  0  0  0  0  0  0  0  0  0
  152.5151  143.7088  162.2039 C   0  0  0  0  0  0  0  0  0  0  0  0
  151.9084  143.7508  160.7994 C   0  0  0  0  0  0  0  0  0  0  0  0
  152.1539  142.4627  160.2549 O   0  0  0  0  0  0  0  0  0  0  0  0
  150.5366  141.0350  156.6049 S   0  0  0  0  0  0  0  0  0  0  0  0
  147.8917  140.7743  154.4359 H   0  0  0  0  0  0  0  0  0  0  0  0
  148.9094  141.8115  153.4190 H   0  0  0  0  0  0  0  0  0  0  0  0
  148.4793  142.3262  155.0578 H   0  0  0  0  0  0  0  0  0  0  0  0
  154.3167  140.6351  158.4987 H   0  0  0  0  0  0  0  0  0  0  0  0
  152.7897  139.9848  160.9738 H   0  0  0  0  0  0  0  0  0  0  0  0
  154.9940  140.1401  162.1367 H   0  0  0  0  0  0  0  0  0  0  0  0
  155.7904  140.5237  160.6126 H   0  0  0  0  0  0  0  0  0  0  0  0
  155.0682  138.9371  160.8620 H   0  0  0  0  0  0  0  0  0  0  0  0
  154.2003  142.6020  160.2489 H   0  0  0  0  0  0  0  0  0  0  0  0
  152.7962  141.6609  162.7847 H   0  0  0  0  0  0  0  0  0  0  0  0
  154.3131  142.5540  162.6732 H   0  0  0  0  0  0  0  0  0  0  0  0
  151.7438  143.6856  162.9742 H   0  0  0  0  0  0  0  0  0  0  0  0
  153.1401  144.5848  162.3805 H   0  0  0  0  0  0  0  0  0  0  0  0
  150.8421  143.9773  160.8092 H   0  0  0  0  0  0  0  0  0  0  0  0
  152.4106  144.5004  160.1864 H   0  0  0  0  0  0  0  0  0  0  0  0
  1  2  1  0  0  0  0
  1 18  1  0  0  0  0
  1 19  1  0  0  0  0
  1 20  1  0  0  0  0
  2 17  1  0  0  0  0
  2  3  2  0  0  0  0
  3  4  1  0  0  0  0
  4  5  2  0  0  0  0
  5  6  1  0  0  0  0
  5 17  1  0  0  0  0
  6  7  1  0  0  0  0
  7  8  2  0  0  0  0
  7  9  1  0  0  0  0
  9 10  1  0  0  0  0
  9 21  1  0  0  0  0
 10 11  1  0  0  0  0
 10 12  1  0  0  0  0
 10 22  1  0  0  0  0
 11 23  1  0  0  0  0
 11 24  1  0  0  0  0
 11 25  1  0  0  0  0
 12 16  1  0  0  0  0
 12 13  1  0  0  0  0
 12 26  1  0  0  0  0
 13 14  1  0  0  0  0
 13 27  1  0  0  0  0
 13 28  1  0  0  0  0
 14 15  1  0  0  0  0
 14 29  1  0  0  0  0
 14 30  1  0  0  0  0
 15 16  1  0  0  0  0
 15 31  1  0  0  0  0
 15 32  1  0  0  0  0
M  CHG  1   6  -1
M  END
> <s_m_source_file>
AV-unprocessed.smi

> <i_m_source_file_index>
1768

> <i_lp_mmshare_version>
43012

> <i_f3d_flags>
0

> <s_epik_input>
W0NIM11jMW5uYyhzMSlbTkhdQyg9TylbTkhdW0NASF0oW0NIM10pW0NAQEhdMltDSDJdW0NIMl1bQ0gyXU8y

> <s_epik_cmdline>
J2VwaWtfcHl0aG9uJywgJy1waCcsICc3LjAnLCAnLXRuJywgJzgnLCAnLW1hJywgJzIwMCcsICctbWV0YWxfYmluZGluZycsICctaW1hZScsICc8aW5maWxlLm1hZT4nLCAnLW9tYWUnLCAnPG91dGZpbGUubWFlPic=

> <r_lp_tautomer_probability>
1

> <r_epik_Ionization_Penalty>
4.3376

> <r_epik_Ionization_Penalty_Charging>
4.19392

> <r_epik_Ionization_Penalty_Neutral>
0.143681

> <r_epik_State_Penalty>
4.19342

> <r_epik_Charging_Adjusted_Penalty>
8.38735

> <i_epik_Tot_Q>
-1

> <i_epik_Tot_abs_Q>
1

> <r_epik_Metal_State_Penalty>
0.686065

> <b_epik_Metal_Only>
1

> <s_lp_Force_Field>
OPLS_2005

> <r_lp_Energy>
16.4206

> <b_lp_Chiralities_Consistent>
1

> <s_lp_Variant>
AV-unprocessed.smi:1768-6

> <Gold.Version>
5.8.1

> <Gold.Id.Protein>
6NUR|6NUR_protein|mol2

> <Gold.PLP.Fitness>
43.5055

> <Gold.PLP.PLP>
-37.2605

> <Gold.PLP.part.hbond>
-3.0000

> <Gold.PLP.part.metal>
0.0000

> <Gold.PLP.part.buried>
-4.2254

> <Gold.PLP.part.nonpolar>
-30.5257

> <Gold.PLP.part.repulsive>
0.4374

> <Gold.PLP.ligand.clash>
0.0000

> <Gold.PLP.ligand.torsion>
0.6460

> <Gold.PLP.Chemscore.Hbond>
2.5000

> <Gold.PLP.Chemscore.CHOScore>
0.0000

> <Gold.PLP.Chemscore.Metal>
0.0000

> <Gold.Chemscore.Hbonds>
donor molecule, donor type, donor heavy atom, donor atom, acceptor molecule, acceptor atom, score
      P1  H  7989  7998       L1     3  0.50
      P1  H  7997  8009       L1     6  2.00

> <Gold.PLP.Chemscore.Internal.Correction>
0.0369

> <Gold.Rescore>
     Score         DG    S(hbond)    S(metal)    S(lipo)     H(rot)  DE(clash)    DE(int)     intcor
     14.22     -14.76       0.87        0.00      82.41       1.28       0.03       0.52       ----

> <Gold.Chemscore.Fitness>
14.2151

> <Gold.Chemscore.DG>
-14.7640

> <Gold.Chemscore.ZeroCoef>
-5.4800

> <Gold.Chemscore.Hbond>
0.8720

> <Gold.Chemscore.Metal>
0.0000

> <Gold.Chemscore.Lipo>
82.4117

> <Gold.Chemscore.Internal_Hbond>
0.0000

> <Gold.Chemscore.DEClash>
0.0310

> <Gold.Chemscore.DEInternal>
0.5180

> <Gold.Chemscore.Rot>
1.2776

> <Gold.Chemscore.Internal.Correction>
   9.000000E+99

> <Gold.Chemscore.Hbonds>
donor molecule, donor type, donor heavy atom, donor atom, acceptor molecule, acceptor atom, score
      P1  H  7989  7998       L1     3  0.01
      P1  H  7997  8009       L1     6  0.66

> <Gold.Chemscore.Hbond.Weighted>
-2.9125

> <Gold.Chemscore.Metal.Weighted>
-0.0000

> <Gold.Chemscore.Lipo.Weighted>
-9.6422

> <Gold.Chemscore.Internal_Hbond.Weighted>
0.0000

> <Gold.Chemscore.DEClash.Weighted>
0.0310

> <Gold.Chemscore.DEInternal.Weighted>
0.5180

> <Gold.Chemscore.Rot.Weighted>
3.2706

> <Gold.Chemscore.Internal.Correction.Weighted>
   9.000000E+99

> <Gold.Protein.RotatedTorsions>
[ 6907 6896 6895 6894 ] final  -68.69 input  -60.11 | X-H torsion
[ 7974 7965 7964 7962 ] final  128.67 input  175.53 | X-H torsion
[ 8008 7997 7996 7995 ] final -167.37 input   59.86 | X-H torsion
[ 10167 10162 10161 10158 ] final   62.98 input  -65.29 | X-H torsion
[ 10718 10713 10712 10709 ] final  168.38 input   66.30 | X-H torsion
[ 10763 10752 10751 10750 ] final  -70.63 input  -60.55 | X-H torsion
[ 11005 11000 10999 10996 ] final   60.54 input  -57.11 | X-H torsion

> <Gold.Protein.ActiveResidues>
 VAL166  LYS551  ARG553  GLY616  TRP617  ASP618  TYR619  PRO620  LYS621  CYS622 
 ASP623  PHE694  ASN695  SER759  ASP760  ASP761  ALA762  ILE779  LEU786  VAL792 
 PHE793  MET794  SER795  GLU796  ALA797  LYS798  CYS799  TRP800  GLU811  SER814 

> <Gold.Protein.RotatedAtoms>
  150.7343  134.5704  159.5887 H   0  0  0  0  0  0  0  0  0  0  0  0  # atno 6907 bound_to 6896
  152.3144  134.7454  160.0338 H   0  0  0  0  0  0  0  0  0  0  0  0  # atno 6908 bound_to 6896
  151.7991  133.3332  159.3558 H   0  0  0  0  0  0  0  0  0  0  0  0  # atno 6909 bound_to 6896
  145.0370  139.3996  143.5121 H   0  0  0  0  0  0  0  0  0  0  0  0  # atno 7974 bound_to 7965
  155.8768  140.1002  157.1513 H   0  0  0  0  0  0  0  0  0  0  0  0  # atno 8008 bound_to 7997
  154.4001  140.1336  156.4210 H   0  0  0  0  0  0  0  0  0  0  0  0  # atno 8009 bound_to 7997
  155.7688  140.3461  155.5238 H   0  0  0  0  0  0  0  0  0  0  0  0  # atno 8010 bound_to 7997
  140.1380  144.4580  150.6827 H   0  0  0  0  0  0  0  0  0  0  0  0  # atno 10167 bound_to 10162
  157.0380  131.0278  151.2723 H   0  0  0  0  0  0  0  0  0  0  0  0  # atno 10718 bound_to 10713
  154.4203  135.5988  153.6006 H   0  0  0  0  0  0  0  0  0  0  0  0  # atno 10763 bound_to 10752
  152.9793  135.5951  154.3962 H   0  0  0  0  0  0  0  0  0  0  0  0  # atno 10764 bound_to 10752
  154.3787  135.2841  155.2202 H   0  0  0  0  0  0  0  0  0  0  0  0  # atno 10765 bound_to 10752
  140.0225  134.6132  155.9620 H   0  0  0  0  0  0  0  0  0  0  0  0  # atno 11005 bound_to 11000
  146.3505  139.9950  142.8682 LP  0  0  0  0  0  0  0  0  0  0  0  0  # atno 17320 bound_to 7965
  145.1697  140.9714  143.4329 LP  0  0  0  0  0  0  0  0  0  0  0  0  # atno 17321 bound_to 7965
  140.6777  143.2312  151.5464 LP  0  0  0  0  0  0  0  0  0  0  0  0  # atno 17342 bound_to 10162
  139.5486  144.2455  152.1488 LP  0  0  0  0  0  0  0  0  0  0  0  0  # atno 17343 bound_to 10162
  157.5126  130.7948  149.7722 LP  0  0  0  0  0  0  0  0  0  0  0  0  # atno 17370 bound_to 10713
  156.0047  130.3861  150.2474 LP  0  0  0  0  0  0  0  0  0  0  0  0  # atno 17371 bound_to 10713
  141.1782  133.6543  156.4914 LP  0  0  0  0  0  0  0  0  0  0  0  0  # atno 17394 bound_to 11000
  140.4363  134.7056  157.4968 LP  0  0  0  0  0  0  0  0  0  0  0  0  # atno 17395 bound_to 11000

$$$$
