AV-unprocessed.smi:1410|AV-procd|sdf|5734|dock3
  -GOLD-   22720 5363D 1   1.00000     0.00000
 Structure written by MMmdl.
 41 42  0  0  0  0  0  0  0  0  3 V2000
  144.7913  132.7904  148.6468 N   0  0  0  0  0  0  0  0  0  0  0  0
  144.1192  132.6844  149.7952 C   0  0  0  0  0  0  0  0  0  0  0  0
  143.6422  131.6180  150.1797 O   0  0  0  0  0  0  0  0  0  0  0  0
  143.9822  133.9578  150.6364 C   0  0  0  0  0  0  0  0  0  0  0  0
  144.7068  133.8781  151.9310 N   0  3  2  0  0  0  0  0  0  0  0  0
  144.3776  134.9964  152.8547 C   0  0  0  0  0  0  0  0  0  0  0  0
  145.0324  134.7878  154.2312 C   0  0  0  0  0  0  0  0  0  0  0  0
  146.5596  134.6017  154.1250 C   0  0  2  0  0  0  0  0  0  0  0  0
  147.2426  135.8459  153.7685 N   0  0  0  0  0  0  0  0  0  0  0  0
  147.0555  137.0308  154.3689 C   0  0  0  0  0  0  0  0  0  0  0  0
  146.2481  137.2068  155.2804 O   0  0  0  0  0  0  0  0  0  0  0  0
  147.8448  137.9791  153.8341 N   0  0  0  0  0  0  0  0  0  0  0  0
  147.9404  139.3559  154.1785 C   0  0  0  0  0  0  0  0  0  0  0  0
  149.2284  139.9366  154.1879 C   0  0  0  0  0  0  0  0  0  0  0  0
  149.3780  141.2952  154.5335 C   0  0  0  0  0  0  0  0  0  0  0  0
  148.2930  142.0288  154.8612 N   0  3  0  0  0  0  0  0  0  0  0  0
  147.0442  141.5159  154.8804 C   0  0  0  0  0  0  0  0  0  0  0  0
  146.8326  140.1629  154.5449 C   0  0  0  0  0  0  0  0  0  0  0  0
  146.8789  133.4977  153.1016 C   0  0  0  0  0  0  0  0  0  0  0  0
  146.1738  133.7328  151.7529 C   0  0  0  0  0  0  0  0  0  0  0  0
  144.9109  131.9768  148.0597 H   0  0  0  0  0  0  0  0  0  0  0  0
  145.1823  133.6782  148.3659 H   0  0  0  0  0  0  0  0  0  0  0  0
  144.3921  134.7708  150.0357 H   0  0  0  0  0  0  0  0  0  0  0  0
  142.9308  134.1949  150.8082 H   0  0  0  0  0  0  0  0  0  0  0  0
  144.7058  135.9413  152.4192 H   0  0  0  0  0  0  0  0  0  0  0  0
  143.2974  135.0707  152.9836 H   0  0  0  0  0  0  0  0  0  0  0  0
  144.7888  135.6207  154.8918 H   0  0  0  0  0  0  0  0  0  0  0  0
  144.5984  133.9019  154.6970 H   0  0  0  0  0  0  0  0  0  0  0  0
  146.9413  134.2800  155.0958 H   0  0  0  0  0  0  0  0  0  0  0  0
  147.9267  135.7930  153.0279 H   0  0  0  0  0  0  0  0  0  0  0  0
  148.4068  137.6924  153.0460 H   0  0  0  0  0  0  0  0  0  0  0  0
  150.0980  139.3506  153.9273 H   0  0  0  0  0  0  0  0  0  0  0  0
  150.3260  141.8125  154.5590 H   0  0  0  0  0  0  0  0  0  0  0  0
  146.2564  142.1972  155.1670 H   0  0  0  0  0  0  0  0  0  0  0  0
  145.8274  139.7731  154.5874 H   0  0  0  0  0  0  0  0  0  0  0  0
  147.9566  133.4177  152.9531 H   0  0  0  0  0  0  0  0  0  0  0  0
  146.5582  132.5360  153.5045 H   0  0  0  0  0  0  0  0  0  0  0  0
  146.3823  132.8899  151.0927 H   0  0  0  0  0  0  0  0  0  0  0  0
  146.5720  134.6228  151.2633 H   0  0  0  0  0  0  0  0  0  0  0  0
  144.3886  133.0275  152.3741 H   0  0  0  0  0  0  0  0  0  0  0  0
  148.4226  143.0101  155.1087 H   0  0  0  0  0  0  0  0  0  0  0  0
  1  2  1  0  0  0  0
  1 21  1  0  0  0  0
  1 22  1  0  0  0  0
  2  3  2  0  0  0  0
  2  4  1  0  0  0  0
  4  5  1  0  0  0  0
  4 23  1  0  0  0  0
  4 24  1  0  0  0  0
  5 20  1  0  0  0  0
  5  6  1  0  0  0  0
  5 40  1  0  0  0  0
  6  7  1  0  0  0  0
  6 25  1  0  0  0  0
  6 26  1  0  0  0  0
  7  8  1  0  0  0  0
  7 27  1  0  0  0  0
  7 28  1  0  0  0  0
  8  9  1  0  0  0  0
  8 19  1  0  0  0  0
  8 29  1  0  0  0  0
  9 10  1  0  0  0  0
  9 30  1  0  0  0  0
 10 11  2  0  0  0  0
 10 12  1  0  0  0  0
 12 13  1  0  0  0  0
 12 31  1  0  0  0  0
 13 18  1  0  0  0  0
 13 14  2  0  0  0  0
 14 15  1  0  0  0  0
 14 32  1  0  0  0  0
 15 16  2  0  0  0  0
 15 33  1  0  0  0  0
 16 17  1  0  0  0  0
 16 41  1  0  0  0  0
 17 18  2  0  0  0  0
 17 34  1  0  0  0  0
 18 35  1  0  0  0  0
 19 20  1  0  0  0  0
 19 36  1  0  0  0  0
 19 37  1  0  0  0  0
 20 38  1  0  0  0  0
 20 39  1  0  0  0  0
M  CHG  1   5   1
M  CHG  1  16   1
M  END
> <s_m_source_file>
AV-unprocessed.smi

> <i_m_source_file_index>
1410

> <i_lp_mmshare_version>
43012

> <i_f3d_flags>
0

> <s_epik_input>
W05IMl1DKD1PKVtDSDJdTjFbQ0gyXVtDSDJdW0NIXShbQ0gyXVtDSDJdMSlbTkhdQyg9TylbTkhdYzJbY0hdW2NIXW5bY0hdW2NIXTI=

> <s_epik_cmdline>
J2VwaWtfcHl0aG9uJywgJy1waCcsICc3LjAnLCAnLXRuJywgJzgnLCAnLW1hJywgJzIwMCcsICctbWV0YWxfYmluZGluZycsICctaW1hZScsICc8aW5maWxlLm1hZT4nLCAnLW9tYWUnLCAnPG91dGZpbGUubWFlPic=

> <r_epik_Ionization_Penalty>
1.97414

> <r_epik_Ionization_Penalty_Charging>
1.97408

> <r_epik_Ionization_Penalty_Neutral>
5.94508e-05

> <r_epik_State_Penalty>
2.00676

> <r_epik_Charging_Adjusted_Penalty>
3.98084

> <i_epik_Tot_Q>
2

> <i_epik_Tot_abs_Q>
2

> <r_epik_Metal_State_Penalty>
2.12108

> <b_epik_Metal_Only>
0

> <s_lp_Force_Field>
OPLS_2005

> <r_lp_Energy>
26.1476

> <b_lp_Chiralities_Consistent>
1

> <s_lp_Variant>
AV-unprocessed.smi:1410-6

> <Gold.Version>
5.8.1

> <Gold.Id.Protein>
6NUR|6NUR_protein|mol2

> <Gold.PLP.Fitness>
43.4318

> <Gold.PLP.PLP>
-27.0238

> <Gold.PLP.part.hbond>
-5.0000

> <Gold.PLP.part.metal>
0.0000

> <Gold.PLP.part.buried>
-2.8784

> <Gold.PLP.part.nonpolar>
-19.1045

> <Gold.PLP.part.repulsive>
1.2899

> <Gold.PLP.ligand.clash>
0.0000

> <Gold.PLP.ligand.torsion>
0.4397

> <Gold.PLP.Chemscore.Hbond>
5.7540

> <Gold.PLP.Chemscore.CHOScore>
0.0000

> <Gold.PLP.Chemscore.Metal>
0.0000

> <Gold.Chemscore.Hbonds>
donor molecule, donor type, donor heavy atom, donor atom, acceptor molecule, acceptor atom, score
      L1  H     1    22       P1  7921  1.00
      L1  H     9    30       P1  7948  1.00
      L1  H    12    31       P1  7948  0.96
      L1  H    16    41       P1  8028  2.00
      P1  H 10785 10796       L1     3  0.71

> <Gold.PLP.Chemscore.Internal.Correction>
0.0255

> <Gold.Rescore>
     Score         DG    S(hbond)    S(metal)    S(lipo)     H(rot)  DE(clash)    DE(int)     intcor
     19.34     -21.45       4.51        0.00      51.35       1.99       0.47       1.63       ----

> <Gold.Chemscore.Fitness>
19.3403

> <Gold.Chemscore.DG>
-21.4473

> <Gold.Chemscore.ZeroCoef>
-5.4800

> <Gold.Chemscore.Hbond>
4.5066

> <Gold.Chemscore.Metal>
0.0000

> <Gold.Chemscore.Lipo>
51.3497

> <Gold.Chemscore.Internal_Hbond>
0.0000

> <Gold.Chemscore.DEClash>
0.4731

> <Gold.Chemscore.DEInternal>
1.6338

> <Gold.Chemscore.Rot>
1.9894

> <Gold.Chemscore.Internal.Correction>
   9.000000E+99

> <Gold.Chemscore.Hbonds>
donor molecule, donor type, donor heavy atom, donor atom, acceptor molecule, acceptor atom, score
      L1  H     1    22       P1  7921  0.74
      L1  H     9    30       P1  7948  0.98
      L1  H    12    31       P1  7948  0.91
      L1  H    16    41       P1  8028  1.00
      P1  H 10785 10796       L1     3  0.67

> <Gold.Chemscore.Hbond.Weighted>
-15.0521

> <Gold.Chemscore.Metal.Weighted>
-0.0000

> <Gold.Chemscore.Lipo.Weighted>
-6.0079

> <Gold.Chemscore.Internal_Hbond.Weighted>
0.0000

> <Gold.Chemscore.DEClash.Weighted>
0.4731

> <Gold.Chemscore.DEInternal.Weighted>
1.6338

> <Gold.Chemscore.Rot.Weighted>
5.0927

> <Gold.Chemscore.Internal.Correction.Weighted>
   9.000000E+99

> <Gold.Protein.RotatedTorsions>
[ 6907 6896 6895 6894 ] final  -28.58 input  -60.11 | X-H torsion
[ 7974 7965 7964 7962 ] final  121.10 input  175.53 | X-H torsion
[ 8008 7997 7996 7995 ] final   74.74 input   59.86 | X-H torsion
[ 10167 10162 10161 10158 ] final  130.35 input  -65.29 | X-H torsion
[ 10718 10713 10712 10709 ] final  -30.65 input   66.30 | X-H torsion
[ 10763 10752 10751 10750 ] final  171.62 input  -60.55 | X-H torsion
[ 11005 11000 10999 10996 ] final  -60.43 input  -57.11 | X-H torsion

> <Gold.Protein.ActiveResidues>
 VAL166  LYS551  ARG553  GLY616  TRP617  ASP618  TYR619  PRO620  LYS621  CYS622 
 ASP623  PHE694  ASN695  SER759  ASP760  ASP761  ALA762  ILE779  LEU786  VAL792 
 PHE793  MET794  SER795  GLU796  ALA797  LYS798  CYS799  TRP800  GLU811  SER814 

> <Gold.Protein.RotatedAtoms>
  151.1311  135.0130  159.8582 H   0  0  0  0  0  0  0  0  0  0  0  0  # atno 6907 bound_to 6896
  152.5451  134.1610  159.8568 H   0  0  0  0  0  0  0  0  0  0  0  0  # atno 6908 bound_to 6896
  151.1676  133.4759  159.2627 H   0  0  0  0  0  0  0  0  0  0  0  0  # atno 6909 bound_to 6896
  145.1233  139.3375  143.4703 H   0  0  0  0  0  0  0  0  0  0  0  0  # atno 7974 bound_to 7965
  155.8028  140.3476  155.5413 H   0  0  0  0  0  0  0  0  0  0  0  0  # atno 8008 bound_to 7997
  155.8520  140.0958  157.1689 H   0  0  0  0  0  0  0  0  0  0  0  0  # atno 8009 bound_to 7997
  154.4008  140.1374  156.3843 H   0  0  0  0  0  0  0  0  0  0  0  0  # atno 8010 bound_to 7997
  139.5434  144.6751  151.4551 H   0  0  0  0  0  0  0  0  0  0  0  0  # atno 10167 bound_to 10162
  156.3972  130.4383  149.7350 H   0  0  0  0  0  0  0  0  0  0  0  0  # atno 10718 bound_to 10713
  154.4145  135.2757  155.2015 H   0  0  0  0  0  0  0  0  0  0  0  0  # atno 10763 bound_to 10752
  154.3987  135.6049  153.5888 H   0  0  0  0  0  0  0  0  0  0  0  0  # atno 10764 bound_to 10752
  152.9832  135.5921  154.4432 H   0  0  0  0  0  0  0  0  0  0  0  0  # atno 10765 bound_to 10752
  141.1287  133.6622  156.5222 H   0  0  0  0  0  0  0  0  0  0  0  0  # atno 11005 bound_to 11000
  146.3519  140.1201  142.8600 LP  0  0  0  0  0  0  0  0  0  0  0  0  # atno 17320 bound_to 7965
  145.0716  140.9159  143.4878 LP  0  0  0  0  0  0  0  0  0  0  0  0  # atno 17321 bound_to 7965
  140.6673  143.8370  150.6957 LP  0  0  0  0  0  0  0  0  0  0  0  0  # atno 17342 bound_to 10162
  140.1783  143.4136  152.1951 LP  0  0  0  0  0  0  0  0  0  0  0  0  # atno 17343 bound_to 10162
  156.4380  130.7847  151.2868 LP  0  0  0  0  0  0  0  0  0  0  0  0  # atno 17370 bound_to 10713
  157.7502  131.0133  150.3421 LP  0  0  0  0  0  0  0  0  0  0  0  0  # atno 17371 bound_to 10713
  140.4283  134.7125  157.4928 LP  0  0  0  0  0  0  0  0  0  0  0  0  # atno 17394 bound_to 11000
  140.0311  134.6404  155.9105 LP  0  0  0  0  0  0  0  0  0  0  0  0  # atno 17395 bound_to 11000

$$$$
