AV-unprocessed.smi:671|AV-procd|sdf|3284|dock8
  -GOLD-   22720 0243D 1   1.00000     0.00000
 Structure written by MMmdl.
 50 51  0  0  0  0  0  0  0  0  2 V2000
  147.2427  142.0043  154.0386 C   0  0  0  0  0  0  0  0  0  0  0  0
  148.4884  141.5406  154.7156 C   0  0  0  0  0  0  0  0  0  0  0  0
  149.2060  142.2869  155.5976 N   0  3  0  0  0  0  0  0  0  0  0  0
  150.2714  141.5971  156.0296 N   0  0  0  0  0  0  0  0  0  0  0  0
  151.1756  142.2240  156.9941 C   0  0  0  0  0  0  0  0  0  0  0  0
  150.2993  140.3632  155.4508 C   0  0  0  0  0  0  0  0  0  0  0  0
  151.3459  139.3286  155.7071 C   0  0  0  0  0  0  0  0  0  0  0  0
  149.1716  140.3227  154.6209 C   0  0  0  0  0  0  0  0  0  0  0  0
  148.7618  139.1577  153.7635 C   0  0  0  0  0  0  0  0  0  0  0  0
  147.5414  138.3896  154.3183 C   0  0  1  0  0  0  0  0  0  0  0  0
  146.2279  139.1714  154.1588 C   0  0  0  0  0  0  0  0  0  0  0  0
  147.4059  137.0994  153.6387 N   0  0  0  0  0  0  0  0  0  0  0  0
  146.3909  136.2187  153.7094 C   0  0  0  0  0  0  0  0  0  0  0  0
  145.4038  136.4251  154.4122 O   0  0  0  0  0  0  0  0  0  0  0  0
  146.5541  135.1116  152.9642 N   0  0  0  0  0  0  0  0  0  0  0  0
  145.5994  134.0084  152.8526 C   0  0  1  0  0  0  0  0  0  0  0  0
  144.7062  134.2236  151.6230 C   0  0  0  0  0  0  0  0  0  0  0  0
  145.3460  133.3896  150.5171 C   0  0  0  0  0  0  0  0  0  0  0  0
  145.8765  132.1533  151.2380 C   0  0  0  0  0  0  0  0  0  0  0  0
  146.2643  132.6167  152.6540 C   0  0  1  0  0  0  0  0  0  0  0  0
  147.7843  132.5440  152.8971 C   0  0  0  0  0  0  0  0  0  0  0  0
  147.4116  142.0966  152.9655 H   0  0  0  0  0  0  0  0  0  0  0  0
  146.9321  142.9749  154.4267 H   0  0  0  0  0  0  0  0  0  0  0  0
  146.4352  141.2910  154.2042 H   0  0  0  0  0  0  0  0  0  0  0  0
  152.1875  141.8472  156.8438 H   0  0  0  0  0  0  0  0  0  0  0  0
  150.8419  141.9821  158.0033 H   0  0  0  0  0  0  0  0  0  0  0  0
  151.1734  143.3061  156.8560 H   0  0  0  0  0  0  0  0  0  0  0  0
  151.2189  138.4785  155.0386 H   0  0  0  0  0  0  0  0  0  0  0  0
  151.2787  138.9726  156.7351 H   0  0  0  0  0  0  0  0  0  0  0  0
  152.3400  139.7445  155.5438 H   0  0  0  0  0  0  0  0  0  0  0  0
  148.5449  139.4938  152.7489 H   0  0  0  0  0  0  0  0  0  0  0  0
  149.6090  138.4789  153.6613 H   0  0  0  0  0  0  0  0  0  0  0  0
  147.6817  138.2145  155.3861 H   0  0  0  0  0  0  0  0  0  0  0  0
  146.2581  140.1196  154.6959 H   0  0  0  0  0  0  0  0  0  0  0  0
  145.3846  138.6036  154.5533 H   0  0  0  0  0  0  0  0  0  0  0  0
  146.0196  139.3884  153.1104 H   0  0  0  0  0  0  0  0  0  0  0  0
  148.1838  136.8328  153.0524 H   0  0  0  0  0  0  0  0  0  0  0  0
  147.4056  135.0263  152.4295 H   0  0  0  0  0  0  0  0  0  0  0  0
  144.9668  133.9939  153.7423 H   0  0  0  0  0  0  0  0  0  0  0  0
  143.7076  133.8361  151.8301 H   0  0  0  0  0  0  0  0  0  0  0  0
  144.5933  135.2727  151.3453 H   0  0  0  0  0  0  0  0  0  0  0  0
  144.6454  133.1418  149.7192 H   0  0  0  0  0  0  0  0  0  0  0  0
  146.1775  133.9372  150.0728 H   0  0  0  0  0  0  0  0  0  0  0  0
  145.0824  131.4086  151.3063 H   0  0  0  0  0  0  0  0  0  0  0  0
  146.7029  131.6913  150.6965 H   0  0  0  0  0  0  0  0  0  0  0  0
  145.8018  131.9252  153.3599 H   0  0  0  0  0  0  0  0  0  0  0  0
  148.3343  133.1879  152.2099 H   0  0  0  0  0  0  0  0  0  0  0  0
  148.1502  131.5267  152.7557 H   0  0  0  0  0  0  0  0  0  0  0  0
  148.0370  132.8391  153.9157 H   0  0  0  0  0  0  0  0  0  0  0  0
  149.0236  143.2277  155.9239 H   0  0  0  0  0  0  0  0  0  0  0  0
  1  2  1  0  0  0  0
  1 22  1  0  0  0  0
  1 23  1  0  0  0  0
  1 24  1  0  0  0  0
  2  8  1  0  0  0  0
  2  3  2  0  0  0  0
  3  4  1  0  0  0  0
  3 50  1  0  0  0  0
  4  5  1  0  0  0  0
  4  6  1  0  0  0  0
  5 25  1  0  0  0  0
  5 26  1  0  0  0  0
  5 27  1  0  0  0  0
  6  7  1  0  0  0  0
  6  8  2  0  0  0  0
  7 28  1  0  0  0  0
  7 29  1  0  0  0  0
  7 30  1  0  0  0  0
  8  9  1  0  0  0  0
  9 10  1  0  0  0  0
  9 31  1  0  0  0  0
  9 32  1  0  0  0  0
 10 11  1  0  0  0  0
 10 12  1  0  0  0  0
 10 33  1  0  0  0  0
 11 34  1  0  0  0  0
 11 35  1  0  0  0  0
 11 36  1  0  0  0  0
 12 13  1  0  0  0  0
 12 37  1  0  0  0  0
 13 14  2  0  0  0  0
 13 15  1  0  0  0  0
 15 16  1  0  0  0  0
 15 38  1  0  0  0  0
 16 20  1  0  0  0  0
 16 17  1  0  0  0  0
 16 39  1  0  0  0  0
 17 18  1  0  0  0  0
 17 40  1  0  0  0  0
 17 41  1  0  0  0  0
 18 19  1  0  0  0  0
 18 42  1  0  0  0  0
 18 43  1  0  0  0  0
 19 20  1  0  0  0  0
 19 44  1  0  0  0  0
 19 45  1  0  0  0  0
 20 21  1  0  0  0  0
 20 46  1  0  0  0  0
 21 47  1  0  0  0  0
 21 48  1  0  0  0  0
 21 49  1  0  0  0  0
M  CHG  1   3   1
M  END
> <s_m_source_file>
AV-unprocessed.smi

> <i_m_source_file_index>
671

> <i_lp_mmshare_version>
43012

> <i_f3d_flags>
0

> <s_epik_input>
W0NIM11jMW5uKFtDSDNdKWMoW0NIM10pYzFbQ0gyXVtDQEhdKFtDSDNdKVtOSF1DKD1PKVtOSF1bQ0BASF0yW0NIMl1bQ0gyXVtDSDJdW0NASF0yW0NIM10=

> <s_epik_cmdline>
J2VwaWtfcHl0aG9uJywgJy1waCcsICc3LjAnLCAnLXRuJywgJzgnLCAnLW1hJywgJzIwMCcsICctbWV0YWxfYmluZGluZycsICctaW1hZScsICc8aW5maWxlLm1hZT4nLCAnLW9tYWUnLCAnPG91dGZpbGUubWFlPic=

> <r_lp_tautomer_probability>
1

> <r_epik_Ionization_Penalty>
2.28705

> <r_epik_Ionization_Penalty_Charging>
2.28698

> <r_epik_Ionization_Penalty_Neutral>
6.23157e-05

> <r_epik_State_Penalty>
2.43671

> <r_epik_Charging_Adjusted_Penalty>
4.72369

> <i_epik_Tot_Q>
1

> <i_epik_Tot_abs_Q>
1

> <r_epik_Metal_State_Penalty>
2.44911

> <b_epik_Metal_Only>
0

> <s_lp_Force_Field>
OPLS_2005

> <r_lp_Energy>
36.9698

> <b_lp_Chiralities_Consistent>
1

> <s_lp_Variant>
AV-unprocessed.smi:671-12

> <Gold.Version>
5.8.1

> <Gold.Id.Protein>
6NUR|6NUR_protein|mol2

> <Gold.PLP.Fitness>
45.2153

> <Gold.PLP.PLP>
-35.2939

> <Gold.PLP.part.hbond>
-2.6820

> <Gold.PLP.part.metal>
0.0000

> <Gold.PLP.part.buried>
-3.4267

> <Gold.PLP.part.nonpolar>
-30.8730

> <Gold.PLP.part.repulsive>
0.1986

> <Gold.PLP.ligand.clash>
0.0000

> <Gold.PLP.ligand.torsion>
0.7270

> <Gold.PLP.Chemscore.Hbond>
3.7840

> <Gold.PLP.Chemscore.CHOScore>
0.0000

> <Gold.PLP.Chemscore.Metal>
0.0000

> <Gold.Chemscore.Hbonds>
donor molecule, donor type, donor heavy atom, donor atom, acceptor molecule, acceptor atom, score
      L1  H     3    50       P1  8028  1.95
      L1  H    12    37       P1  7948  1.00
      L1  H    15    38       P1  7948  0.78

> <Gold.PLP.Chemscore.Internal.Correction>
0.0234

> <Gold.Rescore>
     Score         DG    S(hbond)    S(metal)    S(lipo)     H(rot)  DE(clash)    DE(int)     intcor
     18.18     -20.40       2.65        0.00      84.89       1.51       0.30       1.92       ----

> <Gold.Chemscore.Fitness>
18.1787

> <Gold.Chemscore.DG>
-20.4021

> <Gold.Chemscore.ZeroCoef>
-5.4800

> <Gold.Chemscore.Hbond>
2.6481

> <Gold.Chemscore.Metal>
0.0000

> <Gold.Chemscore.Lipo>
84.8902

> <Gold.Chemscore.Internal_Hbond>
0.0000

> <Gold.Chemscore.DEClash>
0.3032

> <Gold.Chemscore.DEInternal>
1.9202

> <Gold.Chemscore.Rot>
1.5057

> <Gold.Chemscore.Internal.Correction>
   9.000000E+99

> <Gold.Chemscore.Hbonds>
donor molecule, donor type, donor heavy atom, donor atom, acceptor molecule, acceptor atom, score
      L1  H     3    50       P1  8028  0.87
      L1  H    12    37       P1  7948  0.94
      L1  H    15    38       P1  7948  0.74

> <Gold.Chemscore.Hbond.Weighted>
-8.8446

> <Gold.Chemscore.Metal.Weighted>
-0.0000

> <Gold.Chemscore.Lipo.Weighted>
-9.9321

> <Gold.Chemscore.Internal_Hbond.Weighted>
0.0000

> <Gold.Chemscore.DEClash.Weighted>
0.3032

> <Gold.Chemscore.DEInternal.Weighted>
1.9202

> <Gold.Chemscore.Rot.Weighted>
3.8547

> <Gold.Chemscore.Internal.Correction.Weighted>
   9.000000E+99

> <Gold.Protein.RotatedTorsions>
[ 6907 6896 6895 6894 ] final -179.50 input  -60.11 | X-H torsion
[ 7974 7965 7964 7962 ] final  -31.11 input  175.53 | X-H torsion
[ 8008 7997 7996 7995 ] final  152.83 input   59.86 | X-H torsion
[ 10167 10162 10161 10158 ] final  -49.71 input  -65.29 | X-H torsion
[ 10718 10713 10712 10709 ] final  121.50 input   66.30 | X-H torsion
[ 10763 10752 10751 10750 ] final   15.01 input  -60.55 | X-H torsion
[ 11005 11000 10999 10996 ] final -102.64 input  -57.11 | X-H torsion

> <Gold.Protein.ActiveResidues>
 VAL166  LYS551  ARG553  GLY616  TRP617  ASP618  TYR619  PRO620  LYS621  CYS622 
 ASP623  PHE694  ASN695  SER759  ASP760  ASP761  ALA762  ILE779  LEU786  VAL792 
 PHE793  MET794  SER795  GLU796  ALA797  LYS798  CYS799  TRP800  GLU811  SER814 

> <Gold.Protein.RotatedAtoms>
  151.6544  133.3319  159.3159 H   0  0  0  0  0  0  0  0  0  0  0  0  # atno 6907 bound_to 6896
  150.7944  134.6997  159.6552 H   0  0  0  0  0  0  0  0  0  0  0  0  # atno 6908 bound_to 6896
  152.4029  134.6260  160.0114 H   0  0  0  0  0  0  0  0  0  0  0  0  # atno 6909 bound_to 6896
  146.1092  140.5625  142.8785 H   0  0  0  0  0  0  0  0  0  0  0  0  # atno 7974 bound_to 7965
  156.2610  140.2010  156.6396 H   0  0  0  0  0  0  0  0  0  0  0  0  # atno 8008 bound_to 7997
  154.6620  140.0559  157.0097 H   0  0  0  0  0  0  0  0  0  0  0  0  # atno 8009 bound_to 7997
  155.1262  140.3229  155.4488 H   0  0  0  0  0  0  0  0  0  0  0  0  # atno 8010 bound_to 7997
  140.6672  143.2686  151.4254 H   0  0  0  0  0  0  0  0  0  0  0  0  # atno 10167 bound_to 10162
  157.5813  131.1074  150.8181 H   0  0  0  0  0  0  0  0  0  0  0  0  # atno 10718 bound_to 10713
  153.1566  135.6788  153.8803 H   0  0  0  0  0  0  0  0  0  0  0  0  # atno 10763 bound_to 10752
  153.8212  135.3130  155.3411 H   0  0  0  0  0  0  0  0  0  0  0  0  # atno 10764 bound_to 10752
  154.7902  135.4839  154.0124 H   0  0  0  0  0  0  0  0  0  0  0  0  # atno 10765 bound_to 10752
  141.1181  133.8574  157.1385 H   0  0  0  0  0  0  0  0  0  0  0  0  # atno 11005 bound_to 11000
  144.7497  140.5160  143.6810 LP  0  0  0  0  0  0  0  0  0  0  0  0  # atno 17320 bound_to 7965
  145.5698  139.1483  143.3295 LP  0  0  0  0  0  0  0  0  0  0  0  0  # atno 17321 bound_to 7965
  139.5925  144.1467  152.2106 LP  0  0  0  0  0  0  0  0  0  0  0  0  # atno 17342 bound_to 10162
  140.0826  144.5688  150.7111 LP  0  0  0  0  0  0  0  0  0  0  0  0  # atno 17343 bound_to 10162
  156.8627  130.5119  149.5302 LP  0  0  0  0  0  0  0  0  0  0  0  0  # atno 17370 bound_to 10713
  156.0859  130.5858  150.9647 LP  0  0  0  0  0  0  0  0  0  0  0  0  # atno 17371 bound_to 10713
  140.0117  134.9985  157.0408 LP  0  0  0  0  0  0  0  0  0  0  0  0  # atno 17394 bound_to 11000
  140.4589  134.1505  155.7189 LP  0  0  0  0  0  0  0  0  0  0  0  0  # atno 17395 bound_to 11000

$$$$
