AV-unprocessed.smi:2881|AV-procd|sdf|11065|dock10
  -GOLD-   2272015543D 1   1.00000     0.00000
 Structure written by MMmdl.
 40 42  0  0  0  0  0  0  0  0  1 V2000
  145.5008  135.9349  151.7714 C   0  0  0  0  0  0  0  0  0  0  0  0
  146.1535  137.2529  152.0676 C   0  0  0  0  0  0  0  0  0  0  0  0
  146.0435  138.0434  153.2490 C   0  0  0  0  0  0  0  0  0  0  0  0
  146.8335  139.1317  153.0033 C   0  0  0  0  0  0  0  0  0  0  0  0
  147.1532  140.3294  153.8399 C   0  0  0  0  0  0  0  0  0  0  0  0
  148.6645  140.5285  153.9546 C   0  0  0  0  0  0  0  0  0  0  0  0
  149.1861  141.5560  153.5222 O   0  0  0  0  0  0  0  0  0  0  0  0
  149.3553  139.5377  154.5386 N   0  0  0  0  0  0  0  0  0  0  0  0
  150.7959  139.5492  154.7798 C   0  0  2  0  0  0  0  0  0  0  0  0
  151.5167  138.2545  154.3261 C   0  0  2  0  0  0  0  0  0  0  0  0
  150.8315  136.9947  154.8977 C   0  0  0  0  0  0  0  0  0  0  0  0
  151.1674  137.0811  156.3981 C   0  0  0  0  0  0  0  0  0  0  0  0
  152.0206  138.3620  156.4841 C   0  0  1  0  0  0  0  0  0  0  0  0
  152.7860  138.3041  155.1670 C   0  0  0  0  0  0  0  0  0  0  0  0
  151.1110  139.5988  156.2982 C   0  0  1  0  0  0  0  0  0  0  0  0
  151.7838  140.9122  156.7407 C   0  0  0  0  0  0  0  0  0  0  0  0
  150.9047  141.9988  156.5381 O   0  0  0  0  0  0  0  0  0  0  0  0
  147.3505  138.9513  151.7401 N   0  0  0  0  0  0  0  0  0  0  0  0
  146.9420  137.8080  151.1594 N   0  0  0  0  0  0  0  0  0  0  0  0
  147.9737  139.5908  151.2679 H   0  0  0  0  0  0  0  0  0  0  0  0
  145.0071  135.5325  152.6562 H   0  0  0  0  0  0  0  0  0  0  0  0
  146.2325  135.1987  151.4378 H   0  0  0  0  0  0  0  0  0  0  0  0
  144.7485  136.0373  150.9891 H   0  0  0  0  0  0  0  0  0  0  0  0
  145.4743  137.8396  154.1439 H   0  0  0  0  0  0  0  0  0  0  0  0
  146.7258  140.2095  154.8360 H   0  0  0  0  0  0  0  0  0  0  0  0
  146.7018  141.2264  153.4138 H   0  0  0  0  0  0  0  0  0  0  0  0
  148.8453  138.7312  154.8683 H   0  0  0  0  0  0  0  0  0  0  0  0
  151.2395  140.4087  154.2728 H   0  0  0  0  0  0  0  0  0  0  0  0
  151.6868  138.2052  153.2500 H   0  0  0  0  0  0  0  0  0  0  0  0
  149.7590  136.9578  154.7081 H   0  0  0  0  0  0  0  0  0  0  0  0
  151.2680  136.0940  154.4641 H   0  0  0  0  0  0  0  0  0  0  0  0
  150.2752  137.1309  157.0234 H   0  0  0  0  0  0  0  0  0  0  0  0
  151.7435  136.2091  156.7102 H   0  0  0  0  0  0  0  0  0  0  0  0
  152.6443  138.4027  157.3776 H   0  0  0  0  0  0  0  0  0  0  0  0
  153.4082  137.4128  155.0666 H   0  0  0  0  0  0  0  0  0  0  0  0
  153.3984  139.1864  154.9754 H   0  0  0  0  0  0  0  0  0  0  0  0
  150.2072  139.4665  156.8963 H   0  0  0  0  0  0  0  0  0  0  0  0
  152.0369  140.8700  157.8003 H   0  0  0  0  0  0  0  0  0  0  0  0
  152.7103  141.0916  156.1948 H   0  0  0  0  0  0  0  0  0  0  0  0
  151.2616  142.5531  155.8610 H   0  0  0  0  0  0  0  0  0  0  0  0
  1 21  1  0  0  0  0
  1 22  1  0  0  0  0
  1 23  1  0  0  0  0
  1  2  1  0  0  0  0
  2 19  2  0  0  0  0
  2  3  1  0  0  0  0
  3  4  2  0  0  0  0
  3 24  1  0  0  0  0
  4 18  1  0  0  0  0
  4  5  1  0  0  0  0
  5  6  1  0  0  0  0
  5 25  1  0  0  0  0
  5 26  1  0  0  0  0
  6  7  2  0  0  0  0
  6  8  1  0  0  0  0
  8  9  1  0  0  0  0
  8 27  1  0  0  0  0
  9 15  1  0  0  0  0
  9 10  1  0  0  0  0
  9 28  1  0  0  0  0
 10 14  1  0  0  0  0
 10 11  1  0  0  0  0
 10 29  1  0  0  0  0
 11 12  1  0  0  0  0
 11 30  1  0  0  0  0
 11 31  1  0  0  0  0
 12 13  1  0  0  0  0
 12 32  1  0  0  0  0
 12 33  1  0  0  0  0
 13 14  1  0  0  0  0
 13 15  1  0  0  0  0
 13 34  1  0  0  0  0
 14 35  1  0  0  0  0
 14 36  1  0  0  0  0
 15 16  1  0  0  0  0
 15 37  1  0  0  0  0
 16 17  1  0  0  0  0
 16 38  1  0  0  0  0
 16 39  1  0  0  0  0
 17 40  1  0  0  0  0
 18 19  1  0  0  0  0
 18 20  1  0  0  0  0
M  END
> <s_m_source_file>
AV-unprocessed.smi

> <i_m_source_file_index>
2881

> <i_lp_mmshare_version>
43012

> <i_f3d_flags>
0

> <s_epik_input>
W0NIM11jMVtjSF1jKG5bbkhdMSlbQ0gyXUMoPU8pW05IXVtDQEhdKFtDQEBIXTIzKVtDQEhdKFtDSDJdW09IXSlbQ0BASF0oW0NIMl0zKVtDSDJdW0NIMl0y

> <s_epik_cmdline>
J2VwaWtfcHl0aG9uJywgJy1waCcsICc3LjAnLCAnLXRuJywgJzgnLCAnLW1hJywgJzIwMCcsICctbWV0YWxfYmluZGluZycsICctaW1hZScsICc8aW5maWxlLm1hZT4nLCAnLW9tYWUnLCAnPG91dGZpbGUubWFlPic=

> <r_lp_tautomer_probability>
0.5

> <r_epik_Ionization_Penalty>
0.00013396

> <r_epik_Ionization_Penalty_Charging>
0

> <r_epik_Ionization_Penalty_Neutral>
0.00013396

> <r_epik_State_Penalty>
0.41068

> <r_epik_Charging_Adjusted_Penalty>
0.41068

> <i_epik_Tot_Q>
0

> <i_epik_Tot_abs_Q>
0

> <r_epik_Metal_State_Penalty>
0.41066

> <b_epik_Metal_Only>
0

> <s_lp_Force_Field>
OPLS_2005

> <r_lp_Energy>
46.7591

> <b_lp_Chiralities_Consistent>
1

> <s_lp_Variant>
AV-unprocessed.smi:2881-11

> <Gold.Version>
5.8.1

> <Gold.Id.Protein>
6NUR|6NUR_protein|mol2

> <Gold.PLP.Fitness>
38.9545

> <Gold.PLP.PLP>
-32.2823

> <Gold.PLP.part.hbond>
-3.4033

> <Gold.PLP.part.metal>
0.0000

> <Gold.PLP.part.buried>
-3.4568

> <Gold.PLP.part.nonpolar>
-27.5623

> <Gold.PLP.part.repulsive>
2.5062

> <Gold.PLP.ligand.clash>
0.0000

> <Gold.PLP.ligand.torsion>
0.1443

> <Gold.PLP.Chemscore.Hbond>
2.3120

> <Gold.PLP.Chemscore.CHOScore>
0.0000

> <Gold.PLP.Chemscore.Metal>
0.0000

> <Gold.Chemscore.Hbonds>
donor molecule, donor type, donor heavy atom, donor atom, acceptor molecule, acceptor atom, score
      L1  H    18    20       P1  7957  0.88
      P1  H  7954  7966       L1    19  0.70
      P1  H  8011  8017       L1     7  0.82

> <Gold.PLP.Chemscore.Internal.Correction>
0.0248

> <Gold.Rescore>
     Score         DG    S(hbond)    S(metal)    S(lipo)     H(rot)  DE(clash)    DE(int)     intcor
     15.43     -16.08       2.03        0.00      82.32       2.28       0.52       0.12       ----

> <Gold.Chemscore.Fitness>
15.4315

> <Gold.Chemscore.DG>
-16.0762

> <Gold.Chemscore.ZeroCoef>
-5.4800

> <Gold.Chemscore.Hbond>
2.0331

> <Gold.Chemscore.Metal>
0.0000

> <Gold.Chemscore.Lipo>
82.3151

> <Gold.Chemscore.Internal_Hbond>
0.0000

> <Gold.Chemscore.DEClash>
0.5221

> <Gold.Chemscore.DEInternal>
0.1226

> <Gold.Chemscore.Rot>
2.2755

> <Gold.Chemscore.Internal.Correction>
   9.000000E+99

> <Gold.Chemscore.Hbonds>
donor molecule, donor type, donor heavy atom, donor atom, acceptor molecule, acceptor atom, score
      L1  H    18    20       P1  7957  0.81
      P1  H  7954  7966       L1    19  0.07
      P1  H  8011  8017       L1     7  0.80

> <Gold.Chemscore.Hbond.Weighted>
-6.7905

> <Gold.Chemscore.Metal.Weighted>
-0.0000

> <Gold.Chemscore.Lipo.Weighted>
-9.6309

> <Gold.Chemscore.Internal_Hbond.Weighted>
0.0000

> <Gold.Chemscore.DEClash.Weighted>
0.5221

> <Gold.Chemscore.DEInternal.Weighted>
0.1226

> <Gold.Chemscore.Rot.Weighted>
5.8252

> <Gold.Chemscore.Internal.Correction.Weighted>
   9.000000E+99

> <Gold.Protein.RotatedTorsions>
[ 6907 6896 6895 6894 ] final -123.89 input  -60.11 | X-H torsion
[ 7974 7965 7964 7962 ] final  -90.46 input  175.53 | X-H torsion
[ 8008 7997 7996 7995 ] final  173.23 input   59.86 | X-H torsion
[ 10167 10162 10161 10158 ] final  142.45 input  -65.29 | X-H torsion
[ 10718 10713 10712 10709 ] final -149.41 input   66.30 | X-H torsion
[ 10763 10752 10751 10750 ] final   45.28 input  -60.55 | X-H torsion
[ 11005 11000 10999 10996 ] final -134.19 input  -57.11 | X-H torsion

> <Gold.Protein.ActiveResidues>
 VAL166  LYS551  ARG553  GLY616  TRP617  ASP618  TYR619  PRO620  LYS621  CYS622 
 ASP623  PHE694  ASN695  SER759  ASP760  ASP761  ALA762  ILE779  LEU786  VAL792 
 PHE793  MET794  SER795  GLU796  ALA797  LYS798  CYS799  TRP800  GLU811  SER814 

> <Gold.Protein.RotatedAtoms>
  150.8715  133.7499  159.2959 H   0  0  0  0  0  0  0  0  0  0  0  0  # atno 6907 bound_to 6896
  151.5109  135.1063  159.9863 H   0  0  0  0  0  0  0  0  0  0  0  0  # atno 6908 bound_to 6896
  152.4698  133.7959  159.6983 H   0  0  0  0  0  0  0  0  0  0  0  0  # atno 6909 bound_to 6896
  145.4261  140.9553  143.2154 H   0  0  0  0  0  0  0  0  0  0  0  0  # atno 7974 bound_to 7965
  156.1096  140.1465  156.9356 H   0  0  0  0  0  0  0  0  0  0  0  0  # atno 8008 bound_to 7997
  154.4758  140.0895  156.7301 H   0  0  0  0  0  0  0  0  0  0  0  0  # atno 8009 bound_to 7997
  155.4619  140.3438  155.4316 H   0  0  0  0  0  0  0  0  0  0  0  0  # atno 8010 bound_to 7997
  139.4994  144.6106  151.6280 H   0  0  0  0  0  0  0  0  0  0  0  0  # atno 10167 bound_to 10162
  156.4328  130.8084  151.2311 H   0  0  0  0  0  0  0  0  0  0  0  0  # atno 10718 bound_to 10713
  152.9827  135.6044  154.3411 H   0  0  0  0  0  0  0  0  0  0  0  0  # atno 10763 bound_to 10752
  154.3107  135.2771  155.2569 H   0  0  0  0  0  0  0  0  0  0  0  0  # atno 10764 bound_to 10752
  154.4779  135.5924  153.6424 H   0  0  0  0  0  0  0  0  0  0  0  0  # atno 10765 bound_to 10752
  140.9013  134.1687  157.4458 H   0  0  0  0  0  0  0  0  0  0  0  0  # atno 11005 bound_to 11000
  144.8213  139.5787  143.6985 LP  0  0  0  0  0  0  0  0  0  0  0  0  # atno 17320 bound_to 7965
  146.2631  139.6457  142.9348 LP  0  0  0  0  0  0  0  0  0  0  0  0  # atno 17321 bound_to 7965
  140.5780  143.9995  150.6252 LP  0  0  0  0  0  0  0  0  0  0  0  0  # atno 17342 bound_to 10162
  140.3135  143.3183  152.0855 LP  0  0  0  0  0  0  0  0  0  0  0  0  # atno 17343 bound_to 10162
  157.7508  131.0193  150.3661 LP  0  0  0  0  0  0  0  0  0  0  0  0  # atno 17370 bound_to 10713
  156.4002  130.3914  149.6965 LP  0  0  0  0  0  0  0  0  0  0  0  0  # atno 17371 bound_to 10713
  139.8742  134.9899  156.5478 LP  0  0  0  0  0  0  0  0  0  0  0  0  # atno 17394 bound_to 11000
  140.8227  133.8341  155.8910 LP  0  0  0  0  0  0  0  0  0  0  0  0  # atno 17395 bound_to 11000

$$$$
