AV-unprocessed.smi:630|AV-procd|sdf|3121|dock8
  -GOLD-   22720 0 43D 1   1.00000     0.00000
 Structure written by MMmdl.
 36 37  0  0  0  0  0  0  0  0  2 V2000
  151.6638  138.8207  155.4037 N   0  0  0  0  0  0  0  0  0  0  0  0
  152.0768  138.2056  156.5151 C   0  0  0  0  0  0  0  0  0  0  0  0
  152.5037  137.0522  156.5017 O   0  0  0  0  0  0  0  0  0  0  0  0
  152.0050  139.0029  157.8321 C   0  0  2  0  0  0  0  0  0  0  0  0
  152.9567  140.2212  157.7403 C   0  0  0  0  0  0  0  0  0  0  0  0
  152.6419  141.3178  158.7709 C   0  0  0  0  0  0  0  0  0  0  0  0
  153.3421  141.1547  160.1298 C   0  0  0  0  0  0  0  0  0  0  0  0
  153.4862  139.7140  160.6477 C   0  0  0  0  0  0  0  0  0  0  0  0
  152.2632  138.8103  160.4229 C   0  0  0  0  0  0  0  0  0  0  0  0
  152.2683  138.0834  159.0593 C   0  0  1  0  0  0  0  0  0  0  0  0
  151.2523  137.0262  159.1118 N   0  0  0  0  0  0  0  0  0  0  0  0
  149.9610  137.1606  159.4497 C   0  0  0  0  0  0  0  0  0  0  0  0
  149.5089  138.2681  159.7482 O   0  0  0  0  0  0  0  0  0  0  0  0
  149.2731  135.9962  159.4250 N   0  5  0  0  0  0  0  0  0  0  0  0
  148.1741  135.8509  160.1831 C   0  0  0  0  0  0  0  0  0  0  0  0
  147.8384  136.7056  161.1566 N   0  0  0  0  0  0  0  0  0  0  0  0
  146.6553  136.3617  161.8132 C   0  0  0  0  0  0  0  0  0  0  0  0
  146.0708  135.2249  161.3210 C   0  0  0  0  0  0  0  0  0  0  0  0
  146.9953  134.5474  160.0110 S   0  0  0  0  0  0  0  0  0  0  0  0
  151.6658  138.3222  154.5259 H   0  0  0  0  0  0  0  0  0  0  0  0
  151.3226  139.7697  155.4503 H   0  0  0  0  0  0  0  0  0  0  0  0
  150.9868  139.3878  157.9155 H   0  0  0  0  0  0  0  0  0  0  0  0
  154.0010  139.9131  157.8121 H   0  0  0  0  0  0  0  0  0  0  0  0
  152.8535  140.6718  156.7514 H   0  0  0  0  0  0  0  0  0  0  0  0
  152.9316  142.2855  158.3600 H   0  0  0  0  0  0  0  0  0  0  0  0
  151.5633  141.3827  158.9186 H   0  0  0  0  0  0  0  0  0  0  0  0
  154.3384  141.5948  160.0739 H   0  0  0  0  0  0  0  0  0  0  0  0
  152.8002  141.7493  160.8661 H   0  0  0  0  0  0  0  0  0  0  0  0
  154.3685  139.2489  160.2065 H   0  0  0  0  0  0  0  0  0  0  0  0
  153.6960  139.7642  161.7168 H   0  0  0  0  0  0  0  0  0  0  0  0
  152.2767  138.0523  161.2078 H   0  0  0  0  0  0  0  0  0  0  0  0
  151.3364  139.3668  160.5678 H   0  0  0  0  0  0  0  0  0  0  0  0
  153.2539  137.6325  158.9305 H   0  0  0  0  0  0  0  0  0  0  0  0
  151.5622  136.0958  158.8727 H   0  0  0  0  0  0  0  0  0  0  0  0
  146.3015  136.9847  162.6211 H   0  0  0  0  0  0  0  0  0  0  0  0
  145.1590  134.7474  161.6460 H   0  0  0  0  0  0  0  0  0  0  0  0
  1  2  1  0  0  0  0
  1 20  1  0  0  0  0
  1 21  1  0  0  0  0
  2  3  2  0  0  0  0
  2  4  1  0  0  0  0
  4 10  1  0  0  0  0
  4  5  1  0  0  0  0
  4 22  1  0  0  0  0
  5  6  1  0  0  0  0
  5 23  1  0  0  0  0
  5 24  1  0  0  0  0
  6  7  1  0  0  0  0
  6 25  1  0  0  0  0
  6 26  1  0  0  0  0
  7  8  1  0  0  0  0
  7 27  1  0  0  0  0
  7 28  1  0  0  0  0
  8  9  1  0  0  0  0
  8 29  1  0  0  0  0
  8 30  1  0  0  0  0
  9 10  1  0  0  0  0
  9 31  1  0  0  0  0
  9 32  1  0  0  0  0
 10 11  1  0  0  0  0
 10 33  1  0  0  0  0
 11 12  1  0  0  0  0
 11 34  1  0  0  0  0
 12 13  2  0  0  0  0
 12 14  1  0  0  0  0
 14 15  1  0  0  0  0
 15 19  1  0  0  0  0
 15 16  2  0  0  0  0
 16 17  1  0  0  0  0
 17 18  2  0  0  0  0
 17 35  1  0  0  0  0
 18 19  1  0  0  0  0
 18 36  1  0  0  0  0
M  CHG  1  14  -1
M  END
> <s_m_source_file>
AV-unprocessed.smi

> <i_m_source_file_index>
630

> <i_lp_mmshare_version>
43012

> <i_f3d_flags>
0

> <s_epik_input>
W05IMl1DKD1PKVtDQEBIXTFbQ0gyXVtDSDJdW0NIMl1bQ0gyXVtDSDJdW0NASF0xW05IXUMoPU8pW05IXWMybltjSF1bY0hdczI=

> <s_epik_cmdline>
J2VwaWtfcHl0aG9uJywgJy1waCcsICc3LjAnLCAnLXRuJywgJzgnLCAnLW1hJywgJzIwMCcsICctbWV0YWxfYmluZGluZycsICctaW1hZScsICc8aW5maWxlLm1hZT4nLCAnLW9tYWUnLCAnPG91dGZpbGUubWFlPic=

> <r_lp_tautomer_probability>
0.999

> <r_epik_Ionization_Penalty>
8.29606

> <r_epik_Ionization_Penalty_Charging>
6.67551

> <r_epik_Ionization_Penalty_Neutral>
1.62055

> <r_epik_State_Penalty>
6.67568

> <r_epik_Charging_Adjusted_Penalty>
13.3512

> <i_epik_Tot_Q>
-1

> <i_epik_Tot_abs_Q>
1

> <r_epik_Metal_State_Penalty>
2.59802

> <b_epik_Metal_Only>
1

> <s_lp_Force_Field>
OPLS_2005

> <r_lp_Energy>
8.76486

> <b_lp_Chiralities_Consistent>
1

> <s_lp_Variant>
AV-unprocessed.smi:630-5

> <Gold.Version>
5.8.1

> <Gold.Id.Protein>
6NUR|6NUR_protein|mol2

> <Gold.PLP.Fitness>
47.2747

> <Gold.PLP.PLP>
-32.6882

> <Gold.PLP.part.hbond>
-6.1363

> <Gold.PLP.part.metal>
0.0000

> <Gold.PLP.part.buried>
-4.9564

> <Gold.PLP.part.nonpolar>
-22.3772

> <Gold.PLP.part.repulsive>
0.2002

> <Gold.PLP.ligand.clash>
0.0000

> <Gold.PLP.ligand.torsion>
0.3815

> <Gold.PLP.Chemscore.Hbond>
5.0947

> <Gold.PLP.Chemscore.CHOScore>
0.0000

> <Gold.PLP.Chemscore.Metal>
0.0000

> <Gold.Chemscore.Hbonds>
donor molecule, donor type, donor heavy atom, donor atom, acceptor molecule, acceptor atom, score
      P1  H  6896  6908       L1    14  2.00
      P1  H  6931  6943       L1    16  0.84
      P1  H  6934  6947       L1    16  0.02
      P1  H 10752 10764       L1     3  0.18

> <Gold.PLP.Chemscore.Internal.Correction>
0.0652

> <Gold.Rescore>
     Score         DG    S(hbond)    S(metal)    S(lipo)     H(rot)  DE(clash)    DE(int)     intcor
     16.38     -19.87       3.35        0.00      60.27       1.50       0.00       3.49       ----

> <Gold.Chemscore.Fitness>
16.3768

> <Gold.Chemscore.DG>
-19.8668

> <Gold.Chemscore.ZeroCoef>
-5.4800

> <Gold.Chemscore.Hbond>
3.3492

> <Gold.Chemscore.Metal>
0.0000

> <Gold.Chemscore.Lipo>
60.2715

> <Gold.Chemscore.Internal_Hbond>
0.0000

> <Gold.Chemscore.DEClash>
0.0015

> <Gold.Chemscore.DEInternal>
3.4886

> <Gold.Chemscore.Rot>
1.5044

> <Gold.Chemscore.Internal.Correction>
   9.000000E+99

> <Gold.Chemscore.Hbonds>
donor molecule, donor type, donor heavy atom, donor atom, acceptor molecule, acceptor atom, score
      P1  H  6896  6908       L1    14  0.29
      P1  H  6931  6943       L1    16  0.81
      P1  H 10752 10764       L1     3  0.17

> <Gold.Chemscore.Hbond.Weighted>
-11.1863

> <Gold.Chemscore.Metal.Weighted>
-0.0000

> <Gold.Chemscore.Lipo.Weighted>
-7.0518

> <Gold.Chemscore.Internal_Hbond.Weighted>
0.0000

> <Gold.Chemscore.DEClash.Weighted>
0.0015

> <Gold.Chemscore.DEInternal.Weighted>
3.4886

> <Gold.Chemscore.Rot.Weighted>
3.8512

> <Gold.Chemscore.Internal.Correction.Weighted>
   9.000000E+99

> <Gold.Protein.RotatedTorsions>
[ 6907 6896 6895 6894 ] final  177.92 input  -60.11 | X-H torsion
[ 7974 7965 7964 7962 ] final   -5.60 input  175.53 | X-H torsion
[ 8008 7997 7996 7995 ] final   61.79 input   59.86 | X-H torsion
[ 10167 10162 10161 10158 ] final   61.26 input  -65.29 | X-H torsion
[ 10718 10713 10712 10709 ] final  -49.55 input   66.30 | X-H torsion
[ 10763 10752 10751 10750 ] final  -49.66 input  -60.55 | X-H torsion
[ 11005 11000 10999 10996 ] final  -54.54 input  -57.11 | X-H torsion

> <Gold.Protein.ActiveResidues>
 VAL166  LYS551  ARG553  GLY616  TRP617  ASP618  TYR619  PRO620  LYS621  CYS622 
 ASP623  PHE694  ASN695  SER759  ASP760  ASP761  ALA762  ILE779  LEU786  VAL792 
 PHE793  MET794  SER795  GLU796  ALA797  LYS798  CYS799  TRP800  GLU811  SER814 

> <Gold.Protein.RotatedAtoms>
  151.6962  133.3311  159.3254 H   0  0  0  0  0  0  0  0  0  0  0  0  # atno 6907 bound_to 6896
  150.7756  134.6656  159.6372 H   0  0  0  0  0  0  0  0  0  0  0  0  # atno 6908 bound_to 6896
  152.3797  134.6612  160.0199 H   0  0  0  0  0  0  0  0  0  0  0  0  # atno 6909 bound_to 6896
  146.2349  140.2045  142.8334 H   0  0  0  0  0  0  0  0  0  0  0  0  # atno 7974 bound_to 7965
  155.6040  140.3494  155.4602 H   0  0  0  0  0  0  0  0  0  0  0  0  # atno 8008 bound_to 7997
  156.0206  140.1253  157.0386 H   0  0  0  0  0  0  0  0  0  0  0  0  # atno 8009 bound_to 7997
  154.4314  140.1063  156.5944 H   0  0  0  0  0  0  0  0  0  0  0  0  # atno 8010 bound_to 7997
  140.1567  144.4410  150.6731 H   0  0  0  0  0  0  0  0  0  0  0  0  # atno 10167 bound_to 10162
  156.1883  130.4152  149.9407 H   0  0  0  0  0  0  0  0  0  0  0  0  # atno 10718 bound_to 10713
  154.0976  135.6568  153.4863 H   0  0  0  0  0  0  0  0  0  0  0  0  # atno 10763 bound_to 10752
  153.0300  135.5217  154.7318 H   0  0  0  0  0  0  0  0  0  0  0  0  # atno 10764 bound_to 10752
  154.6461  135.2995  155.0014 H   0  0  0  0  0  0  0  0  0  0  0  0  # atno 10765 bound_to 10752
  141.1031  133.6616  156.4336 H   0  0  0  0  0  0  0  0  0  0  0  0  # atno 11005 bound_to 11000
  144.9756  140.8410  143.5429 LP  0  0  0  0  0  0  0  0  0  0  0  0  # atno 17320 bound_to 7965
  145.2032  139.2242  143.5182 LP  0  0  0  0  0  0  0  0  0  0  0  0  # atno 17321 bound_to 7965
  140.6669  143.2271  151.5721 LP  0  0  0  0  0  0  0  0  0  0  0  0  # atno 17342 bound_to 10162
  139.5400  144.2673  152.1331 LP  0  0  0  0  0  0  0  0  0  0  0  0  # atno 17343 bound_to 10162
  156.7156  130.8987  151.3613 LP  0  0  0  0  0  0  0  0  0  0  0  0  # atno 17370 bound_to 10713
  157.6913  130.9236  150.0521 LP  0  0  0  0  0  0  0  0  0  0  0  0  # atno 17371 bound_to 10713
  140.4972  134.6520  157.5234 LP  0  0  0  0  0  0  0  0  0  0  0  0  # atno 17394 bound_to 11000
  139.9890  134.7016  155.9723 LP  0  0  0  0  0  0  0  0  0  0  0  0  # atno 17395 bound_to 11000

$$$$
