AV-unprocessed.smi:670|AV-procd|sdf|3269|dock4
  -GOLD-   22720 0223D 1   1.00000     0.00000
 Structure written by MMmdl.
 45 46  0  0  0  0  0  0  0  0  1 V2000
  150.1979  142.5557  157.9844 C   0  0  0  0  0  0  0  0  0  0  0  0
  151.1878  142.1215  159.0778 C   0  0  2  0  0  0  0  0  0  0  0  0
  152.2239  143.2319  159.3449 C   0  0  0  0  0  0  0  0  0  0  0  0
  153.2271  142.8245  160.4344 C   0  0  0  0  0  0  0  0  0  0  0  0
  153.9284  141.5088  160.0709 C   0  0  0  0  0  0  0  0  0  0  0  0
  152.9062  140.3921  159.8130 C   0  0  0  0  0  0  0  0  0  0  0  0
  151.8903  140.7916  158.7207 C   0  0  1  0  0  0  0  0  0  0  0  0
  150.8856  139.7917  158.6098 O   0  0  0  0  0  0  0  0  0  0  0  0
  150.3640  139.6093  157.3015 C   0  0  0  0  0  0  0  0  0  0  0  0
  150.0718  138.1191  157.0775 C   0  0  0  0  0  0  0  0  0  0  0  0
  148.9181  137.6787  157.8547 N   0  0  0  0  0  0  0  0  0  0  0  0
  148.9776  137.0352  159.0305 C   0  0  0  0  0  0  0  0  0  0  0  0
  150.0366  136.7477  159.5905 O   0  0  0  0  0  0  0  0  0  0  0  0
  147.6292  136.6388  159.6492 C   0  0  0  0  0  0  0  0  0  0  0  0
  147.7646  135.8260  160.8667 N   0  0  0  0  0  0  0  0  0  0  0  0
  148.2850  136.5136  161.9529 N   0  0  0  0  0  0  0  0  0  0  0  0
  148.4354  135.9126  163.0845 C   0  0  0  0  0  0  0  0  0  0  0  0
  148.9507  136.6310  164.1357 O   0  0  0  0  0  0  0  0  0  0  0  0
  148.0742  134.5213  163.2472 C   0  0  0  0  0  0  0  0  0  0  0  0
  147.5745  133.8581  162.1815 C   0  0  0  0  0  0  0  0  0  0  0  0
  147.3901  134.5097  160.8834 C   0  0  0  0  0  0  0  0  0  0  0  0
  146.9392  133.9294  159.8959 O   0  0  0  0  0  0  0  0  0  0  0  0
  149.8611  136.7686  163.9244 H   0  0  0  0  0  0  0  0  0  0  0  0
  150.7028  142.7070  157.0301 H   0  0  0  0  0  0  0  0  0  0  0  0
  149.7032  143.4899  158.2517 H   0  0  0  0  0  0  0  0  0  0  0  0
  149.4190  141.8077  157.8339 H   0  0  0  0  0  0  0  0  0  0  0  0
  150.6188  141.9675  159.9963 H   0  0  0  0  0  0  0  0  0  0  0  0
  152.7625  143.4624  158.4247 H   0  0  0  0  0  0  0  0  0  0  0  0
  151.7176  144.1504  159.6436 H   0  0  0  0  0  0  0  0  0  0  0  0
  153.9659  143.6141  160.5741 H   0  0  0  0  0  0  0  0  0  0  0  0
  152.7087  142.7131  161.3874 H   0  0  0  0  0  0  0  0  0  0  0  0
  154.5438  141.6544  159.1822 H   0  0  0  0  0  0  0  0  0  0  0  0
  154.6062  141.2149  160.8726 H   0  0  0  0  0  0  0  0  0  0  0  0
  153.4372  139.4831  159.5326 H   0  0  0  0  0  0  0  0  0  0  0  0
  152.3754  140.1653  160.7386 H   0  0  0  0  0  0  0  0  0  0  0  0
  152.4049  140.9152  157.7657 H   0  0  0  0  0  0  0  0  0  0  0  0
  149.4402  140.1798  157.1970 H   0  0  0  0  0  0  0  0  0  0  0  0
  151.0575  139.9712  156.5424 H   0  0  0  0  0  0  0  0  0  0  0  0
  149.9359  137.9090  156.0151 H   0  0  0  0  0  0  0  0  0  0  0  0
  150.9303  137.5298  157.3997 H   0  0  0  0  0  0  0  0  0  0  0  0
  148.0066  137.8695  157.4648 H   0  0  0  0  0  0  0  0  0  0  0  0
  147.0452  137.5360  159.8631 H   0  0  0  0  0  0  0  0  0  0  0  0
  147.0605  136.0935  158.8937 H   0  0  0  0  0  0  0  0  0  0  0  0
  148.2053  134.0318  164.2011 H   0  0  0  0  0  0  0  0  0  0  0  0
  147.3013  132.8187  162.2882 H   0  0  0  0  0  0  0  0  0  0  0  0
  1  2  1  0  0  0  0
  1 24  1  0  0  0  0
  1 25  1  0  0  0  0
  1 26  1  0  0  0  0
  2  7  1  0  0  0  0
  2  3  1  0  0  0  0
  2 27  1  0  0  0  0
  3  4  1  0  0  0  0
  3 28  1  0  0  0  0
  3 29  1  0  0  0  0
  4  5  1  0  0  0  0
  4 30  1  0  0  0  0
  4 31  1  0  0  0  0
  5  6  1  0  0  0  0
  5 32  1  0  0  0  0
  5 33  1  0  0  0  0
  6  7  1  0  0  0  0
  6 34  1  0  0  0  0
  6 35  1  0  0  0  0
  7  8  1  0  0  0  0
  7 36  1  0  0  0  0
  8  9  1  0  0  0  0
  9 10  1  0  0  0  0
  9 37  1  0  0  0  0
  9 38  1  0  0  0  0
 10 11  1  0  0  0  0
 10 39  1  0  0  0  0
 10 40  1  0  0  0  0
 11 12  1  0  0  0  0
 11 41  1  0  0  0  0
 12 13  2  0  0  0  0
 12 14  1  0  0  0  0
 14 42  1  0  0  0  0
 14 43  1  0  0  0  0
 14 15  1  0  0  0  0
 15 16  1  0  0  0  0
 15 21  1  0  0  0  0
 16 17  2  0  0  0  0
 17 18  1  0  0  0  0
 17 19  1  0  0  0  0
 18 23  1  0  0  0  0
 19 44  1  0  0  0  0
 19 20  2  0  0  0  0
 20 45  1  0  0  0  0
 20 21  1  0  0  0  0
 21 22  2  0  0  0  0
M  END
> <s_m_source_file>
AV-unprocessed.smi

> <i_m_source_file_index>
670

> <i_lp_mmshare_version>
43012

> <i_f3d_flags>
0

> <s_epik_input>
W0NIM11bQ0BASF0xW0NIMl1bQ0gyXVtDSDJdW0NIMl1bQ0BIXTFPW0NIMl1bQ0gyXVtOSF1DKD1PKVtDSDJdbjJbbkhdYyg9TylbY0hdW2NIXWMyPU8=

> <s_epik_cmdline>
J2VwaWtfcHl0aG9uJywgJy1waCcsICc3LjAnLCAnLXRuJywgJzgnLCAnLW1hJywgJzIwMCcsICctbWV0YWxfYmluZGluZycsICctaW1hZScsICc8aW5maWxlLm1hZT4nLCAnLW9tYWUnLCAnPG91dGZpbGUubWFlPic=

> <r_lp_tautomer_probability>
0.9996

> <r_epik_Ionization_Penalty>
2.12726

> <r_epik_Ionization_Penalty_Charging>
3.83395e-08

> <r_epik_Ionization_Penalty_Neutral>
2.12726

> <r_epik_State_Penalty>
1.70432

> <r_epik_Charging_Adjusted_Penalty>
1.70432

> <i_epik_Tot_Q>
0

> <i_epik_Tot_abs_Q>
0

> <r_epik_Metal_State_Penalty>
1.70432

> <b_epik_Metal_Only>
0

> <s_lp_Force_Field>
OPLS_2005

> <r_lp_Energy>
21.1157

> <b_lp_Chiralities_Consistent>
1

> <s_lp_Variant>
AV-unprocessed.smi:670-5

> <Gold.Version>
5.8.1

> <Gold.Id.Protein>
6NUR|6NUR_protein|mol2

> <Gold.PLP.Fitness>
49.7794

> <Gold.PLP.PLP>
-45.3145

> <Gold.PLP.part.hbond>
-4.1090

> <Gold.PLP.part.metal>
0.0000

> <Gold.PLP.part.buried>
-5.8011

> <Gold.PLP.part.nonpolar>
-36.9266

> <Gold.PLP.part.repulsive>
0.0486

> <Gold.PLP.ligand.clash>
0.0000

> <Gold.PLP.ligand.torsion>
0.9465

> <Gold.PLP.Chemscore.Hbond>
2.1095

> <Gold.PLP.Chemscore.CHOScore>
0.0000

> <Gold.PLP.Chemscore.Metal>
0.0000

> <Gold.Chemscore.Hbonds>
donor molecule, donor type, donor heavy atom, donor atom, acceptor molecule, acceptor atom, score
      P1  H  6896  6909       L1    13  1.00
      P1  H  6931  6943       L1    16  1.00

> <Gold.PLP.Chemscore.Internal.Correction>
0.0295

> <Gold.Rescore>
     Score         DG    S(hbond)    S(metal)    S(lipo)     H(rot)  DE(clash)    DE(int)     intcor
     13.66     -14.96       1.86        0.00      95.42       3.09       0.00       1.30       ----

> <Gold.Chemscore.Fitness>
13.6605

> <Gold.Chemscore.DG>
-14.9619

> <Gold.Chemscore.ZeroCoef>
-5.4800

> <Gold.Chemscore.Hbond>
1.8647

> <Gold.Chemscore.Metal>
0.0000

> <Gold.Chemscore.Lipo>
95.4210

> <Gold.Chemscore.Internal_Hbond>
0.0000

> <Gold.Chemscore.DEClash>
0.0047

> <Gold.Chemscore.DEInternal>
1.2967

> <Gold.Chemscore.Rot>
3.0901

> <Gold.Chemscore.Internal.Correction>
   9.000000E+99

> <Gold.Chemscore.Hbonds>
donor molecule, donor type, donor heavy atom, donor atom, acceptor molecule, acceptor atom, score
      P1  H  6896  6909       L1    13  0.97
      P1  H  6931  6943       L1    16  0.85

> <Gold.Chemscore.Hbond.Weighted>
-6.2283

> <Gold.Chemscore.Metal.Weighted>
-0.0000

> <Gold.Chemscore.Lipo.Weighted>
-11.1643

> <Gold.Chemscore.Internal_Hbond.Weighted>
0.0000

> <Gold.Chemscore.DEClash.Weighted>
0.0047

> <Gold.Chemscore.DEInternal.Weighted>
1.2967

> <Gold.Chemscore.Rot.Weighted>
7.9106

> <Gold.Chemscore.Internal.Correction.Weighted>
   9.000000E+99

> <Gold.Protein.RotatedTorsions>
[ 6907 6896 6895 6894 ] final   86.04 input  -60.11 | X-H torsion
[ 7974 7965 7964 7962 ] final  -70.59 input  175.53 | X-H torsion
[ 8008 7997 7996 7995 ] final  -46.50 input   59.86 | X-H torsion
[ 10167 10162 10161 10158 ] final -120.46 input  -65.29 | X-H torsion
[ 10718 10713 10712 10709 ] final -176.43 input   66.30 | X-H torsion
[ 10763 10752 10751 10750 ] final   92.14 input  -60.55 | X-H torsion
[ 11005 11000 10999 10996 ] final   51.36 input  -57.11 | X-H torsion

> <Gold.Protein.ActiveResidues>
 VAL166  LYS551  ARG553  GLY616  TRP617  ASP618  TYR619  PRO620  LYS621  CYS622 
 ASP623  PHE694  ASN695  SER759  ASP760  ASP761  ALA762  ILE779  LEU786  VAL792 
 PHE793  MET794  SER795  GLU796  ALA797  LYS798  CYS799  TRP800  GLU811  SER814 

> <Gold.Protein.RotatedAtoms>
  152.5387  134.2492  159.8891 H   0  0  0  0  0  0  0  0  0  0  0  0  # atno 6907 bound_to 6896
  151.2456  133.4370  159.2617 H   0  0  0  0  0  0  0  0  0  0  0  0  # atno 6908 bound_to 6896
  151.0586  134.9735  159.8305 H   0  0  0  0  0  0  0  0  0  0  0  0  # atno 6909 bound_to 6896
  145.6890  140.9160  143.0792 H   0  0  0  0  0  0  0  0  0  0  0  0  # atno 7974 bound_to 7965
  154.4008  140.1370  156.4021 H   0  0  0  0  0  0  0  0  0  0  0  0  # atno 8008 bound_to 7997
  155.7814  140.3481  155.5279 H   0  0  0  0  0  0  0  0  0  0  0  0  # atno 8009 bound_to 7997
  155.8670  140.0965  157.1566 H   0  0  0  0  0  0  0  0  0  0  0  0  # atno 8010 bound_to 7997
  140.0356  143.5204  152.2155 H   0  0  0  0  0  0  0  0  0  0  0  0  # atno 10167 bound_to 10162
  156.8146  130.9598  151.3114 H   0  0  0  0  0  0  0  0  0  0  0  0  # atno 10718 bound_to 10713
  153.2159  135.4372  155.0434 H   0  0  0  0  0  0  0  0  0  0  0  0  # atno 10763 bound_to 10752
  154.8225  135.3344  154.6999 H   0  0  0  0  0  0  0  0  0  0  0  0  # atno 10764 bound_to 10752
  153.7434  135.7003  153.5017 H   0  0  0  0  0  0  0  0  0  0  0  0  # atno 10765 bound_to 10752
  140.0939  134.5172  155.8826 H   0  0  0  0  0  0  0  0  0  0  0  0  # atno 11005 bound_to 11000
  144.7002  139.8796  143.7446 LP  0  0  0  0  0  0  0  0  0  0  0  0  # atno 17320 bound_to 7965
  146.0898  139.3888  143.0413 LP  0  0  0  0  0  0  0  0  0  0  0  0  # atno 17321 bound_to 7965
  139.6047  144.7593  151.3089 LP  0  0  0  0  0  0  0  0  0  0  0  0  # atno 17342 bound_to 10162
  140.7283  143.6940  150.7899 LP  0  0  0  0  0  0  0  0  0  0  0  0  # atno 17343 bound_to 10162
  157.6488  130.8867  149.9592 LP  0  0  0  0  0  0  0  0  0  0  0  0  # atno 17370 bound_to 10713
  156.1024  130.3655  150.0193 LP  0  0  0  0  0  0  0  0  0  0  0  0  # atno 17371 bound_to 10713
  141.2086  133.6675  156.6382 LP  0  0  0  0  0  0  0  0  0  0  0  0  # atno 17394 bound_to 11000
  140.3314  134.7926  157.4329 LP  0  0  0  0  0  0  0  0  0  0  0  0  # atno 17395 bound_to 11000

$$$$
