AV-unprocessed.smi:409|AV-procd|sdf|2506|dock5
  -GOLD-   2262022453D 1   1.00000     0.00000
 Structure written by MMmdl.
 34 35  0  0  0  0  0  0  0  0  2 V2000
  151.3992  140.8145  156.4430 O   0  0  0  0  0  0  0  0  0  0  0  0
  150.7120  141.7840  156.1182 C   0  0  0  0  0  0  0  0  0  0  0  0
  149.6817  141.6692  154.9867 C   0  0  0  0  0  0  0  0  0  0  0  0
  149.1308  140.3114  154.8502 N   0  0  0  0  0  0  0  0  0  0  0  0
  147.7535  140.1382  155.0735 C   0  0  0  0  0  0  0  0  0  0  0  0
  147.1639  138.9315  154.9735 C   0  0  0  0  0  0  0  0  0  0  0  0
  147.9929  137.7851  154.6225 C   0  0  0  0  0  0  0  0  0  0  0  0
  147.4706  136.6767  154.5213 O   0  0  0  0  0  0  0  0  0  0  0  0
  149.3254  138.0036  154.4206 N   0  5  0  0  0  0  0  0  0  0  0  0
  149.9118  139.2362  154.5290 C   0  0  0  0  0  0  0  0  0  0  0  0
  151.1172  139.4107  154.3455 O   0  0  0  0  0  0  0  0  0  0  0  0
  150.7847  142.9756  156.7305 N   0  0  0  0  0  0  0  0  0  0  0  0
  151.6859  143.3071  157.8297 C   0  0  0  0  0  0  0  0  0  0  0  0
  151.6444  142.2136  158.9173 C   0  0  0  0  0  0  0  0  0  0  0  0
  152.5290  142.5822  160.1194 C   0  0  0  0  0  0  0  0  0  0  0  0
  152.1416  143.9517  160.6989 C   0  0  0  0  0  0  0  0  0  0  0  0
  152.1877  145.0439  159.6188 C   0  0  0  0  0  0  0  0  0  0  0  0
  151.3006  144.6778  158.4177 C   0  0  0  0  0  0  0  0  0  0  0  0
  148.8834  142.3861  155.1823 H   0  0  0  0  0  0  0  0  0  0  0  0
  150.1281  141.9887  154.0430 H   0  0  0  0  0  0  0  0  0  0  0  0
  147.2133  141.0360  155.3350 H   0  0  0  0  0  0  0  0  0  0  0  0
  146.1051  138.8146  155.1514 H   0  0  0  0  0  0  0  0  0  0  0  0
  150.1801  143.7128  156.3985 H   0  0  0  0  0  0  0  0  0  0  0  0
  152.7041  143.3810  157.4423 H   0  0  0  0  0  0  0  0  0  0  0  0
  150.6174  142.0678  159.2557 H   0  0  0  0  0  0  0  0  0  0  0  0
  151.9713  141.2585  158.5049 H   0  0  0  0  0  0  0  0  0  0  0  0
  152.4469  141.8152  160.8901 H   0  0  0  0  0  0  0  0  0  0  0  0
  153.5748  142.5990  159.8101 H   0  0  0  0  0  0  0  0  0  0  0  0
  151.1381  143.8984  161.1229 H   0  0  0  0  0  0  0  0  0  0  0  0
  152.8111  144.2115  161.5194 H   0  0  0  0  0  0  0  0  0  0  0  0
  151.8680  145.9976  160.0395 H   0  0  0  0  0  0  0  0  0  0  0  0
  153.2162  145.1828  159.2834 H   0  0  0  0  0  0  0  0  0  0  0  0
  151.3838  145.4500  157.6519 H   0  0  0  0  0  0  0  0  0  0  0  0
  150.2559  144.6657  158.7320 H   0  0  0  0  0  0  0  0  0  0  0  0
  1  2  2  0  0  0  0
  2  3  1  0  0  0  0
  2 12  1  0  0  0  0
  3  4  1  0  0  0  0
  3 19  1  0  0  0  0
  3 20  1  0  0  0  0
  4 10  1  0  0  0  0
  4  5  1  0  0  0  0
  5  6  2  0  0  0  0
  5 21  1  0  0  0  0
  6  7  1  0  0  0  0
  6 22  1  0  0  0  0
  7  8  2  0  0  0  0
  7  9  1  0  0  0  0
  9 10  1  0  0  0  0
 10 11  2  0  0  0  0
 12 13  1  0  0  0  0
 12 23  1  0  0  0  0
 13 18  1  0  0  0  0
 13 14  1  0  0  0  0
 13 24  1  0  0  0  0
 14 15  1  0  0  0  0
 14 25  1  0  0  0  0
 14 26  1  0  0  0  0
 15 16  1  0  0  0  0
 15 27  1  0  0  0  0
 15 28  1  0  0  0  0
 16 17  1  0  0  0  0
 16 29  1  0  0  0  0
 16 30  1  0  0  0  0
 17 18  1  0  0  0  0
 17 31  1  0  0  0  0
 17 32  1  0  0  0  0
 18 33  1  0  0  0  0
 18 34  1  0  0  0  0
M  CHG  1   9  -1
M  END
> <s_m_source_file>
AV-unprocessed.smi

> <i_m_source_file_index>
409

> <i_lp_mmshare_version>
43012

> <i_f3d_flags>
0

> <s_epik_input>
W0NIMl0xW0NIMl1bQ0gyXVtDSDJdW0NIMl1bQ0hdMVtOSF1DKD1PKVtDSDJdbjJbY0hdW2NIXWMoPU8pW25IXWMyPU8=

> <s_epik_cmdline>
J2VwaWtfcHl0aG9uJywgJy1waCcsICc3LjAnLCAnLXRuJywgJzgnLCAnLW1hJywgJzIwMCcsICctbWV0YWxfYmluZGluZycsICctaW1hZScsICc8aW5maWxlLm1hZT4nLCAnLW9tYWUnLCAnPG91dGZpbGUubWFlPic=

> <r_lp_tautomer_probability>
0.999537

> <r_epik_Ionization_Penalty>
3.11464

> <r_epik_Ionization_Penalty_Charging>
2.89611e-08

> <r_epik_Ionization_Penalty_Neutral>
3.11464

> <r_epik_State_Penalty>
3.11372

> <r_epik_Charging_Adjusted_Penalty>
3.11373

> <i_epik_Tot_Q>
-1

> <i_epik_Tot_abs_Q>
1

> <r_epik_Metal_State_Penalty>
0.463005

> <b_epik_Metal_Only>
1

> <s_lp_Force_Field>
OPLS_2005

> <r_lp_Energy>
17.6148

> <b_lp_Chiralities_Consistent>
1

> <s_lp_Variant>
AV-unprocessed.smi:409-2

> <Gold.Version>
5.8.1

> <Gold.Id.Protein>
6NUR|6NUR_protein|mol2

> <Gold.PLP.Fitness>
39.8603

> <Gold.PLP.PLP>
-34.8472

> <Gold.PLP.part.hbond>
-2.0000

> <Gold.PLP.part.metal>
0.0000

> <Gold.PLP.part.buried>
-5.0624

> <Gold.PLP.part.nonpolar>
-27.5250

> <Gold.PLP.part.repulsive>
0.4944

> <Gold.PLP.ligand.clash>
0.0000

> <Gold.PLP.ligand.torsion>
0.4968

> <Gold.PLP.Chemscore.Hbond>
2.0000

> <Gold.PLP.Chemscore.CHOScore>
0.0000

> <Gold.PLP.Chemscore.Metal>
0.0000

> <Gold.Chemscore.Hbonds>
donor molecule, donor type, donor heavy atom, donor atom, acceptor molecule, acceptor atom, score
      L1  H    12    23       P1  8028  1.00
      P1  H  7989  7998       L1    11  1.00

> <Gold.PLP.Chemscore.Internal.Correction>
0.0067

> <Gold.Rescore>
     Score         DG    S(hbond)    S(metal)    S(lipo)     H(rot)  DE(clash)    DE(int)     intcor
     14.84     -17.27       1.98        0.00      80.83       1.67       0.36       2.07       ----

> <Gold.Chemscore.Fitness>
14.8428

> <Gold.Chemscore.DG>
-17.2733

> <Gold.Chemscore.ZeroCoef>
-5.4800

> <Gold.Chemscore.Hbond>
1.9788

> <Gold.Chemscore.Metal>
0.0000

> <Gold.Chemscore.Lipo>
80.8261

> <Gold.Chemscore.Internal_Hbond>
0.0000

> <Gold.Chemscore.DEClash>
0.3630

> <Gold.Chemscore.DEInternal>
2.0675

> <Gold.Chemscore.Rot>
1.6690

> <Gold.Chemscore.Internal.Correction>
   9.000000E+99

> <Gold.Chemscore.Hbonds>
donor molecule, donor type, donor heavy atom, donor atom, acceptor molecule, acceptor atom, score
      L1  H    12    23       P1  8028  1.00
      P1  H  7989  7998       L1    11  0.97

> <Gold.Chemscore.Hbond.Weighted>
-6.6092

> <Gold.Chemscore.Metal.Weighted>
-0.0000

> <Gold.Chemscore.Lipo.Weighted>
-9.4567

> <Gold.Chemscore.Internal_Hbond.Weighted>
0.0000

> <Gold.Chemscore.DEClash.Weighted>
0.3630

> <Gold.Chemscore.DEInternal.Weighted>
2.0675

> <Gold.Chemscore.Rot.Weighted>
4.2726

> <Gold.Chemscore.Internal.Correction.Weighted>
   9.000000E+99

> <Gold.Protein.RotatedTorsions>
[ 6907 6896 6895 6894 ] final   52.66 input  -60.11 | X-H torsion
[ 7974 7965 7964 7962 ] final  135.04 input  175.53 | X-H torsion
[ 8008 7997 7996 7995 ] final -158.98 input   59.86 | X-H torsion
[ 10167 10162 10161 10158 ] final -155.72 input  -65.29 | X-H torsion
[ 10718 10713 10712 10709 ] final  121.39 input   66.30 | X-H torsion
[ 10763 10752 10751 10750 ] final   71.38 input  -60.55 | X-H torsion
[ 11005 11000 10999 10996 ] final -156.69 input  -57.11 | X-H torsion

> <Gold.Protein.ActiveResidues>
 VAL166  LYS551  ARG553  GLY616  TRP617  ASP618  TYR619  PRO620  LYS621  CYS622 
 ASP623  PHE694  ASN695  SER759  ASP760  ASP761  ALA762  ILE779  LEU786  VAL792 
 PHE793  MET794  SER795  GLU796  ALA797  LYS798  CYS799  TRP800  GLU811  SER814 

> <Gold.Protein.RotatedAtoms>
  152.3256  134.7324  160.0302 H   0  0  0  0  0  0  0  0  0  0  0  0  # atno 6907 bound_to 6896
  151.7758  133.3340  159.3465 H   0  0  0  0  0  0  0  0  0  0  0  0  # atno 6908 bound_to 6896
  150.7394  134.5908  159.6031 H   0  0  0  0  0  0  0  0  0  0  0  0  # atno 6909 bound_to 6896
  144.9703  139.4612  143.5436 H   0  0  0  0  0  0  0  0  0  0  0  0  # atno 7974 bound_to 7965
  155.7557  140.0832  157.2179 H   0  0  0  0  0  0  0  0  0  0  0  0  # atno 8008 bound_to 7997
  154.4008  140.1552  156.2831 H   0  0  0  0  0  0  0  0  0  0  0  0  # atno 8009 bound_to 7997
  155.8888  140.3416  155.5943 H   0  0  0  0  0  0  0  0  0  0  0  0  # atno 8010 bound_to 7997
  139.6908  143.9424  152.2384 H   0  0  0  0  0  0  0  0  0  0  0  0  # atno 10167 bound_to 10162
  157.5821  131.1074  150.8166 H   0  0  0  0  0  0  0  0  0  0  0  0  # atno 10718 bound_to 10713
  153.0395  135.5139  154.7584 H   0  0  0  0  0  0  0  0  0  0  0  0  # atno 10763 bound_to 10752
  154.6533  135.2928  154.9962 H   0  0  0  0  0  0  0  0  0  0  0  0  # atno 10764 bound_to 10752
  154.0839  135.6660  153.4894 H   0  0  0  0  0  0  0  0  0  0  0  0  # atno 10765 bound_to 10752
  140.6728  134.4229  157.5231 H   0  0  0  0  0  0  0  0  0  0  0  0  # atno 11005 bound_to 11000
  146.3380  139.8911  142.8809 LP  0  0  0  0  0  0  0  0  0  0  0  0  # atno 17320 bound_to 7965
  145.2568  141.0063  143.3849 LP  0  0  0  0  0  0  0  0  0  0  0  0  # atno 17321 bound_to 7965
  139.9239  144.6783  150.8432 LP  0  0  0  0  0  0  0  0  0  0  0  0  # atno 17342 bound_to 10162
  140.7682  143.3355  151.2318 LP  0  0  0  0  0  0  0  0  0  0  0  0  # atno 17343 bound_to 10162
  156.8610  130.5113  149.5304 LP  0  0  0  0  0  0  0  0  0  0  0  0  # atno 17370 bound_to 10713
  156.0868  130.5864  150.9662 LP  0  0  0  0  0  0  0  0  0  0  0  0  # atno 17371 bound_to 10713
  139.8976  134.8632  156.2036 LP  0  0  0  0  0  0  0  0  0  0  0  0  # atno 17394 bound_to 11000
  141.0379  133.6953  156.1545 LP  0  0  0  0  0  0  0  0  0  0  0  0  # atno 17395 bound_to 11000

$$$$
