AV-unprocessed.smi:514|AV-procd|sdf|2779|dock2
  -GOLD-   2262023253D 1   1.00000     0.00000
 Structure written by MMmdl.
 44 46  0  0  0  0  0  0  0  0  2 V2000
  149.5852  139.5906  154.2679 C   0  0  0  0  0  0  0  0  0  0  0  0
  151.0317  139.6921  154.7720 C   0  0  0  0  0  0  0  0  0  0  0  0
  151.1568  140.6387  155.8239 O   0  0  0  0  0  0  0  0  0  0  0  0
  151.9385  140.1894  156.9205 C   0  0  0  0  0  0  0  0  0  0  0  0
  151.2215  140.5760  158.2241 C   0  0  0  0  0  0  0  0  0  0  0  0
  151.9853  140.1939  159.4087 N   0  0  0  0  0  0  0  0  0  0  0  0
  152.4664  140.9848  160.4116 C   0  0  0  0  0  0  0  0  0  0  0  0
  152.3061  142.3765  160.4475 N   0  0  0  0  0  0  0  0  0  0  0  0
  152.2364  143.1555  161.6832 C   0  0  0  0  0  0  0  0  0  0  0  0
  151.0243  144.1081  161.6717 C   0  0  0  0  0  0  0  0  0  0  0  0
  151.1482  145.0505  160.5656 N   0  0  0  0  0  0  0  0  0  0  0  0
  151.2039  144.2937  159.3203 C   0  0  0  0  0  0  0  0  0  0  0  0
  152.4152  143.3409  159.3518 C   0  0  0  0  0  0  0  0  0  0  0  0
  153.0792  140.3138  161.3901 N   0  0  0  0  0  0  0  0  0  0  0  0
  153.0034  138.9958  160.9722 C   0  0  0  0  0  0  0  0  0  0  0  0
  152.3404  138.8944  159.7903 C   0  0  0  0  0  0  0  0  0  0  0  0
  152.0688  137.6072  159.1104 C   0  0  0  0  0  0  0  0  0  0  0  0
  151.4492  137.5662  158.0496 O   0  0  0  0  0  0  0  0  0  0  0  0
  152.5758  136.5384  159.8028 N   0  5  0  0  0  0  0  0  0  0  0  0
  153.2571  136.5979  160.9995 C   0  0  0  0  0  0  0  0  0  0  0  0
  153.6739  135.5840  161.5613 O   0  0  0  0  0  0  0  0  0  0  0  0
  153.4830  137.8112  161.5942 N   0  0  0  0  0  0  0  0  0  0  0  0
  154.2059  137.9068  162.8657 C   0  0  0  0  0  0  0  0  0  0  0  0
  149.4908  138.7941  153.5297 H   0  0  0  0  0  0  0  0  0  0  0  0
  149.2528  140.5136  153.7942 H   0  0  0  0  0  0  0  0  0  0  0  0
  148.9014  139.3676  155.0871 H   0  0  0  0  0  0  0  0  0  0  0  0
  151.3336  138.7225  155.1677 H   0  0  0  0  0  0  0  0  0  0  0  0
  151.7184  139.9200  153.9555 H   0  0  0  0  0  0  0  0  0  0  0  0
  152.0725  139.1094  156.8625 H   0  0  0  0  0  0  0  0  0  0  0  0
  152.9337  140.6299  156.8889 H   0  0  0  0  0  0  0  0  0  0  0  0
  151.0195  141.6444  158.2506 H   0  0  0  0  0  0  0  0  0  0  0  0
  150.2383  140.1087  158.2692 H   0  0  0  0  0  0  0  0  0  0  0  0
  152.1500  142.4839  162.5377 H   0  0  0  0  0  0  0  0  0  0  0  0
  153.1641  143.7128  161.8200 H   0  0  0  0  0  0  0  0  0  0  0  0
  150.0926  143.5475  161.5826 H   0  0  0  0  0  0  0  0  0  0  0  0
  150.9761  144.6661  162.6068 H   0  0  0  0  0  0  0  0  0  0  0  0
  150.3484  145.6670  160.5534 H   0  0  0  0  0  0  0  0  0  0  0  0
  150.2738  143.7426  159.1754 H   0  0  0  0  0  0  0  0  0  0  0  0
  151.2968  144.9914  158.4880 H   0  0  0  0  0  0  0  0  0  0  0  0
  153.3354  143.9138  159.4745 H   0  0  0  0  0  0  0  0  0  0  0  0
  152.5157  142.8367  158.3960 H   0  0  0  0  0  0  0  0  0  0  0  0
  153.6310  137.4367  163.6644 H   0  0  0  0  0  0  0  0  0  0  0  0
  154.3997  138.9374  163.1617 H   0  0  0  0  0  0  0  0  0  0  0  0
  155.1724  137.4055  162.7994 H   0  0  0  0  0  0  0  0  0  0  0  0
  1  2  1  0  0  0  0
  1 24  1  0  0  0  0
  1 25  1  0  0  0  0
  1 26  1  0  0  0  0
  2  3  1  0  0  0  0
  2 27  1  0  0  0  0
  2 28  1  0  0  0  0
  3  4  1  0  0  0  0
  4  5  1  0  0  0  0
  4 29  1  0  0  0  0
  4 30  1  0  0  0  0
  5  6  1  0  0  0  0
  5 31  1  0  0  0  0
  5 32  1  0  0  0  0
  6 16  1  0  0  0  0
  6  7  1  0  0  0  0
  7  8  1  0  0  0  0
  7 14  2  0  0  0  0
  8 13  1  0  0  0  0
  8  9  1  0  0  0  0
  9 10  1  0  0  0  0
  9 33  1  0  0  0  0
  9 34  1  0  0  0  0
 10 11  1  0  0  0  0
 10 35  1  0  0  0  0
 10 36  1  0  0  0  0
 11 12  1  0  0  0  0
 11 37  1  0  0  0  0
 12 13  1  0  0  0  0
 12 38  1  0  0  0  0
 12 39  1  0  0  0  0
 13 40  1  0  0  0  0
 13 41  1  0  0  0  0
 14 15  1  0  0  0  0
 15 22  1  0  0  0  0
 15 16  2  0  0  0  0
 16 17  1  0  0  0  0
 17 18  2  0  0  0  0
 17 19  1  0  0  0  0
 19 20  1  0  0  0  0
 20 21  2  0  0  0  0
 20 22  1  0  0  0  0
 22 23  1  0  0  0  0
 23 42  1  0  0  0  0
 23 43  1  0  0  0  0
 23 44  1  0  0  0  0
M  CHG  1  19  -1
M  END
> <s_m_source_file>
AV-unprocessed.smi

> <i_m_source_file_index>
514

> <i_lp_mmshare_version>
43012

> <i_f3d_flags>
0

> <s_epik_input>
W0NIM11uMWMoPU8pW25IXWMoPU8pYyhjMTIpbihbQ0gyXVtDSDJdT1tDSDJdW0NIM10pYyhuMilOM1tDSDJdW0NIMl1bTkhdW0NIMl1bQ0gyXTM=

> <s_epik_cmdline>
J2VwaWtfcHl0aG9uJywgJy1waCcsICc3LjAnLCAnLXRuJywgJzgnLCAnLW1hJywgJzIwMCcsICctbWV0YWxfYmluZGluZycsICctaW1hZScsICc8aW5maWxlLm1hZT4nLCAnLW9tYWUnLCAnPG91dGZpbGUubWFlPic=

> <r_epik_Ionization_Penalty>
8.82895

> <r_epik_Ionization_Penalty_Charging>
0.0771612

> <r_epik_Ionization_Penalty_Neutral>
8.75178

> <r_epik_State_Penalty>
8.91747

> <r_epik_Charging_Adjusted_Penalty>
8.99464

> <i_epik_Tot_Q>
-1

> <i_epik_Tot_abs_Q>
1

> <r_epik_Metal_State_Penalty>
4.86816

> <b_epik_Metal_Only>
1

> <s_lp_Force_Field>
OPLS_2005

> <r_lp_Energy>
52.9187

> <b_lp_Chiralities_Consistent>
1

> <s_lp_Variant>
AV-unprocessed.smi:514-4

> <Gold.Version>
5.8.1

> <Gold.Id.Protein>
6NUR|6NUR_protein|mol2

> <Gold.PLP.Fitness>
48.0387

> <Gold.PLP.PLP>
-44.1912

> <Gold.PLP.part.hbond>
-1.5242

> <Gold.PLP.part.metal>
0.0000

> <Gold.PLP.part.buried>
-5.3633

> <Gold.PLP.part.nonpolar>
-36.5969

> <Gold.PLP.part.repulsive>
0.0077

> <Gold.PLP.ligand.clash>
0.0000

> <Gold.PLP.ligand.torsion>
1.1146

> <Gold.PLP.Chemscore.Hbond>
2.0000

> <Gold.PLP.Chemscore.CHOScore>
0.0000

> <Gold.PLP.Chemscore.Metal>
0.0000

> <Gold.Chemscore.Hbonds>
donor molecule, donor type, donor heavy atom, donor atom, acceptor molecule, acceptor atom, score
      P1  H  6896  6909       L1    19  1.50

> <Gold.PLP.Chemscore.Internal.Correction>
0.0767

> <Gold.Rescore>
     Score         DG    S(hbond)    S(metal)    S(lipo)     H(rot)  DE(clash)    DE(int)     intcor
     10.75     -13.62       0.80        0.00      83.97       1.70       0.01       2.86       ----

> <Gold.Chemscore.Fitness>
10.7486

> <Gold.Chemscore.DG>
-13.6249

> <Gold.Chemscore.ZeroCoef>
-5.4800

> <Gold.Chemscore.Hbond>
0.7966

> <Gold.Chemscore.Metal>
0.0000

> <Gold.Chemscore.Lipo>
83.9664

> <Gold.Chemscore.Internal_Hbond>
0.0000

> <Gold.Chemscore.DEClash>
0.0147

> <Gold.Chemscore.DEInternal>
2.8615

> <Gold.Chemscore.Rot>
1.6953

> <Gold.Chemscore.Internal.Correction>
   9.000000E+99

> <Gold.Chemscore.Hbonds>
donor molecule, donor type, donor heavy atom, donor atom, acceptor molecule, acceptor atom, score
      P1  H  6896  6909       L1    19  0.09

> <Gold.Chemscore.Hbond.Weighted>
-2.6608

> <Gold.Chemscore.Metal.Weighted>
-0.0000

> <Gold.Chemscore.Lipo.Weighted>
-9.8241

> <Gold.Chemscore.Internal_Hbond.Weighted>
0.0000

> <Gold.Chemscore.DEClash.Weighted>
0.0147

> <Gold.Chemscore.DEInternal.Weighted>
2.8615

> <Gold.Chemscore.Rot.Weighted>
4.3399

> <Gold.Chemscore.Internal.Correction.Weighted>
   9.000000E+99

> <Gold.Protein.RotatedTorsions>
[ 6907 6896 6895 6894 ] final  145.21 input  -60.11 | X-H torsion
[ 7974 7965 7964 7962 ] final -176.42 input  175.53 | X-H torsion
[ 8008 7997 7996 7995 ] final -139.88 input   59.86 | X-H torsion
[ 10167 10162 10161 10158 ] final   36.09 input  -65.29 | X-H torsion
[ 10718 10713 10712 10709 ] final  -21.37 input   66.30 | X-H torsion
[ 10763 10752 10751 10750 ] final   55.97 input  -60.55 | X-H torsion
[ 11005 11000 10999 10996 ] final -122.15 input  -57.11 | X-H torsion

> <Gold.Protein.ActiveResidues>
 VAL166  LYS551  ARG553  GLY616  TRP617  ASP618  TYR619  PRO620  LYS621  CYS622 
 ASP623  PHE694  ASN695  SER759  ASP760  ASP761  ALA762  ILE779  LEU786  VAL792 
 PHE793  MET794  SER795  GLU796  ALA797  LYS798  CYS799  TRP800  GLU811  SER814 

> <Gold.Protein.RotatedAtoms>
  152.1838  133.4725  159.4971 H   0  0  0  0  0  0  0  0  0  0  0  0  # atno 6907 bound_to 6896
  150.6939  134.1800  159.4254 H   0  0  0  0  0  0  0  0  0  0  0  0  # atno 6908 bound_to 6896
  151.9712  135.0075  160.0603 H   0  0  0  0  0  0  0  0  0  0  0  0  # atno 6909 bound_to 6896
  144.7127  140.1173  143.6407 H   0  0  0  0  0  0  0  0  0  0  0  0  # atno 7974 bound_to 7965
  155.4521  140.0539  157.3000 H   0  0  0  0  0  0  0  0  0  0  0  0  # atno 8008 bound_to 7997
  154.4773  140.2066  155.9804 H   0  0  0  0  0  0  0  0  0  0  0  0  # atno 8009 bound_to 7997
  156.1151  140.3197  155.8133 H   0  0  0  0  0  0  0  0  0  0  0  0  # atno 8010 bound_to 7997
  140.4160  144.1526  150.6143 H   0  0  0  0  0  0  0  0  0  0  0  0  # atno 10167 bound_to 10162
  156.5191  130.4628  149.6606 H   0  0  0  0  0  0  0  0  0  0  0  0  # atno 10718 bound_to 10713
  152.9824  135.5692  154.5152 H   0  0  0  0  0  0  0  0  0  0  0  0  # atno 10763 bound_to 10752
  154.4649  135.2783  155.1687 H   0  0  0  0  0  0  0  0  0  0  0  0  # atno 10764 bound_to 10752
  154.3259  135.6259  153.5582 H   0  0  0  0  0  0  0  0  0  0  0  0  # atno 10765 bound_to 10752
  141.0017  134.0394  157.3529 H   0  0  0  0  0  0  0  0  0  0  0  0  # atno 11005 bound_to 11000
  145.9402  139.2664  143.1273 LP  0  0  0  0  0  0  0  0  0  0  0  0  # atno 17320 bound_to 7965
  145.9431  140.8964  143.0297 LP  0  0  0  0  0  0  0  0  0  0  0  0  # atno 17321 bound_to 7965
  140.4585  143.2458  151.9251 LP  0  0  0  0  0  0  0  0  0  0  0  0  # atno 17342 bound_to 10162
  139.4782  144.5491  151.8413 LP  0  0  0  0  0  0  0  0  0  0  0  0  # atno 17343 bound_to 10162
  156.3166  130.7258  151.2161 LP  0  0  0  0  0  0  0  0  0  0  0  0  # atno 17370 bound_to 10713
  157.7439  131.0467  150.4906 LP  0  0  0  0  0  0  0  0  0  0  0  0  # atno 17371 bound_to 10713
  139.9042  135.0174  156.7409 LP  0  0  0  0  0  0  0  0  0  0  0  0  # atno 17394 bound_to 11000
  140.6879  133.9416  155.7949 LP  0  0  0  0  0  0  0  0  0  0  0  0  # atno 17395 bound_to 11000

$$$$
