AV-unprocessed.smi:823|AV-procd|sdf|3846|dock1
  -GOLD-   22720 1293D 1   1.00000     0.00000
 Structure written by MMmdl.
 46 47  0  0  0  0  0  0  0  0  1 V2000
  151.0131  144.8612  159.6071 C   0  0  0  0  0  0  0  0  0  0  0  0
  151.9788  143.6889  159.4041 C   0  0  2  0  0  0  0  0  0  0  0  0
  151.4539  142.6804  158.3632 C   0  0  0  0  0  0  0  0  0  0  0  0
  152.3392  141.5213  158.2814 N   0  0  0  0  0  0  0  0  0  0  0  0
  152.1200  140.6637  157.1813 C   0  0  0  0  0  0  0  0  0  0  0  0
  150.9205  140.7537  156.4359 C   0  0  0  0  0  0  0  0  0  0  0  0
  150.7214  139.8852  155.3459 C   0  0  0  0  0  0  0  0  0  0  0  0
  151.7232  138.9435  155.0270 C   0  0  0  0  0  0  0  0  0  0  0  0
  151.5872  137.9706  153.8629 C   0  0  0  0  0  0  0  0  0  0  0  0
  150.6884  136.8491  154.1142 N   0  0  0  0  0  0  0  0  0  0  0  0
  150.9423  135.8350  154.9549 C   0  0  0  0  0  0  0  0  0  0  0  0
  151.9986  135.7235  155.5794 O   0  0  0  0  0  0  0  0  0  0  0  0
  149.8260  134.7915  155.1151 C   0  0  1  0  0  0  0  0  0  0  0  0
  148.5995  135.4765  155.7410 C   0  0  0  0  0  0  0  0  0  0  0  0
  149.4361  134.2622  153.8091 N   0  0  0  0  0  0  0  0  0  0  0  0
  149.3278  132.9594  153.5072 C   0  0  0  0  0  0  0  0  0  0  0  0
  148.9790  132.7609  152.2358 N   0  0  0  0  0  0  0  0  0  0  0  0
  149.5271  132.0405  154.2996 O   0  0  0  0  0  0  0  0  0  0  0  0
  152.8892  138.9357  155.8180 C   0  0  0  0  0  0  0  0  0  0  0  0
  153.0865  139.7677  156.8619 N   0  0  0  0  0  0  0  0  0  0  0  0
  152.6125  140.9103  159.5807 C   0  0  0  0  0  0  0  0  0  0  0  0
  153.0997  141.9719  160.5799 C   0  0  0  0  0  0  0  0  0  0  0  0
  152.1493  143.0293  160.6556 O   0  0  0  0  0  0  0  0  0  0  0  0
  150.8597  145.4088  158.6769 H   0  0  0  0  0  0  0  0  0  0  0  0
  151.4019  145.5629  160.3454 H   0  0  0  0  0  0  0  0  0  0  0  0
  150.0400  144.5148  159.9566 H   0  0  0  0  0  0  0  0  0  0  0  0
  152.9411  144.0860  159.0758 H   0  0  0  0  0  0  0  0  0  0  0  0
  150.4562  142.3381  158.6414 H   0  0  0  0  0  0  0  0  0  0  0  0
  151.3588  143.1817  157.4010 H   0  0  0  0  0  0  0  0  0  0  0  0
  150.1615  141.4831  156.6757 H   0  0  0  0  0  0  0  0  0  0  0  0
  149.8109  139.9514  154.7687 H   0  0  0  0  0  0  0  0  0  0  0  0
  151.2091  138.5216  153.0018 H   0  0  0  0  0  0  0  0  0  0  0  0
  152.5723  137.5950  153.5809 H   0  0  0  0  0  0  0  0  0  0  0  0
  149.7969  136.8616  153.6401 H   0  0  0  0  0  0  0  0  0  0  0  0
  150.1574  133.9756  155.7608 H   0  0  0  0  0  0  0  0  0  0  0  0
  148.8379  135.9010  156.7171 H   0  0  0  0  0  0  0  0  0  0  0  0
  147.7889  134.7623  155.8885 H   0  0  0  0  0  0  0  0  0  0  0  0
  148.2174  136.2824  155.1121 H   0  0  0  0  0  0  0  0  0  0  0  0
  149.2569  134.9381  153.0812 H   0  0  0  0  0  0  0  0  0  0  0  0
  148.8577  131.8231  151.8824 H   0  0  0  0  0  0  0  0  0  0  0  0
  148.8309  133.5555  151.6306 H   0  0  0  0  0  0  0  0  0  0  0  0
  153.6891  138.2405  155.6093 H   0  0  0  0  0  0  0  0  0  0  0  0
  151.7046  140.4351  159.9548 H   0  0  0  0  0  0  0  0  0  0  0  0
  153.3716  140.1332  159.4811 H   0  0  0  0  0  0  0  0  0  0  0  0
  153.2182  141.5297  161.5690 H   0  0  0  0  0  0  0  0  0  0  0  0
  154.0752  142.3636  160.2875 H   0  0  0  0  0  0  0  0  0  0  0  0
  1  2  1  0  0  0  0
  1 24  1  0  0  0  0
  1 25  1  0  0  0  0
  1 26  1  0  0  0  0
  2 23  1  0  0  0  0
  2  3  1  0  0  0  0
  2 27  1  0  0  0  0
  3  4  1  0  0  0  0
  3 28  1  0  0  0  0
  3 29  1  0  0  0  0
  4  5  1  0  0  0  0
  4 21  1  0  0  0  0
  5 20  1  0  0  0  0
  5  6  2  0  0  0  0
  6  7  1  0  0  0  0
  6 30  1  0  0  0  0
  7  8  2  0  0  0  0
  7 31  1  0  0  0  0
  8  9  1  0  0  0  0
  8 19  1  0  0  0  0
  9 10  1  0  0  0  0
  9 32  1  0  0  0  0
  9 33  1  0  0  0  0
 10 11  1  0  0  0  0
 10 34  1  0  0  0  0
 11 12  2  0  0  0  0
 11 13  1  0  0  0  0
 13 14  1  0  0  0  0
 13 15  1  0  0  0  0
 13 35  1  0  0  0  0
 14 36  1  0  0  0  0
 14 37  1  0  0  0  0
 14 38  1  0  0  0  0
 15 16  1  0  0  0  0
 15 39  1  0  0  0  0
 16 17  1  0  0  0  0
 16 18  2  0  0  0  0
 17 40  1  0  0  0  0
 17 41  1  0  0  0  0
 19 20  2  0  0  0  0
 19 42  1  0  0  0  0
 21 22  1  0  0  0  0
 21 43  1  0  0  0  0
 21 44  1  0  0  0  0
 22 23  1  0  0  0  0
 22 45  1  0  0  0  0
 22 46  1  0  0  0  0
M  END
> <s_m_source_file>
AV-unprocessed.smi

> <i_m_source_file_index>
823

> <i_lp_mmshare_version>
43012

> <i_f3d_flags>
0

> <s_epik_input>
W0NIM11bQ0BASF0xW0NIMl1OKFtDSDJdW0NIMl1PMSljMltjSF1bY0hdYyhbY0hdbjIpW0NIMl1bTkhdQyg9TylbQ0BIXShbQ0gzXSlbTkhdQyg9TylbTkgyXQ==

> <s_epik_cmdline>
J2VwaWtfcHl0aG9uJywgJy1waCcsICc3LjAnLCAnLXRuJywgJzgnLCAnLW1hJywgJzIwMCcsICctbWV0YWxfYmluZGluZycsICctaW1hZScsICc8aW5maWxlLm1hZT4nLCAnLW9tYWUnLCAnPG91dGZpbGUubWFlPic=

> <r_lp_tautomer_probability>
1

> <r_epik_Ionization_Penalty>
0.00555043

> <r_epik_Ionization_Penalty_Charging>
0

> <r_epik_Ionization_Penalty_Neutral>
0.00555043

> <r_epik_State_Penalty>
0.00402575

> <r_epik_Charging_Adjusted_Penalty>
0.00402575

> <i_epik_Tot_Q>
0

> <i_epik_Tot_abs_Q>
0

> <r_epik_Metal_State_Penalty>
-0

> <b_epik_Metal_Only>
0

> <s_lp_Force_Field>
OPLS_2005

> <r_lp_Energy>
9.55746

> <b_lp_Chiralities_Consistent>
1

> <s_lp_Variant>
AV-unprocessed.smi:823-3

> <Gold.Version>
5.8.1

> <Gold.Id.Protein>
6NUR|6NUR_protein|mol2

> <Gold.PLP.Fitness>
54.7909

> <Gold.PLP.PLP>
-43.1819

> <Gold.PLP.part.hbond>
-5.9435

> <Gold.PLP.part.metal>
0.0000

> <Gold.PLP.part.buried>
-0.9240

> <Gold.PLP.part.nonpolar>
-34.0058

> <Gold.PLP.part.repulsive>
0.2181

> <Gold.PLP.ligand.clash>
0.0000

> <Gold.PLP.ligand.torsion>
0.5919

> <Gold.PLP.Chemscore.Hbond>
4.1446

> <Gold.PLP.Chemscore.CHOScore>
0.0000

> <Gold.PLP.Chemscore.Metal>
0.0000

> <Gold.Chemscore.Hbonds>
donor molecule, donor type, donor heavy atom, donor atom, acceptor molecule, acceptor atom, score
      L1  H    10    34       P1  7948  0.75
      L1  H    15    39       P1  7948  0.50
      L1  H    17    40       P1 10747  0.80
      P1  H  7997  8010       L1    20  0.71
      P1  H 10752 10763       L1    12  0.31

> <Gold.PLP.Chemscore.Internal.Correction>
0.3590

> <Gold.Rescore>
     Score         DG    S(hbond)    S(metal)    S(lipo)     H(rot)  DE(clash)    DE(int)     intcor
     20.62     -21.68       3.51        0.00      95.39       2.62       0.36       0.70       ----

> <Gold.Chemscore.Fitness>
20.6166

> <Gold.Chemscore.DG>
-21.6759

> <Gold.Chemscore.ZeroCoef>
-5.4800

> <Gold.Chemscore.Hbond>
3.5130

> <Gold.Chemscore.Metal>
0.0000

> <Gold.Chemscore.Lipo>
95.3875

> <Gold.Chemscore.Internal_Hbond>
0.0000

> <Gold.Chemscore.DEClash>
0.3577

> <Gold.Chemscore.DEInternal>
0.7016

> <Gold.Chemscore.Rot>
2.6163

> <Gold.Chemscore.Internal.Correction>
   9.000000E+99

> <Gold.Chemscore.Hbonds>
donor molecule, donor type, donor heavy atom, donor atom, acceptor molecule, acceptor atom, score
      L1  H    10    34       P1  7948  0.39
      L1  H    15    39       P1  7948  0.02
      L1  H    17    40       P1 10747  0.75
      P1  H  7997  8010       L1    20  0.34
      P1  H 10752 10763       L1    12  0.30

> <Gold.Chemscore.Hbond.Weighted>
-11.7333

> <Gold.Chemscore.Metal.Weighted>
-0.0000

> <Gold.Chemscore.Lipo.Weighted>
-11.1603

> <Gold.Chemscore.Internal_Hbond.Weighted>
0.0000

> <Gold.Chemscore.DEClash.Weighted>
0.3577

> <Gold.Chemscore.DEInternal.Weighted>
0.7016

> <Gold.Chemscore.Rot.Weighted>
6.6978

> <Gold.Chemscore.Internal.Correction.Weighted>
   9.000000E+99

> <Gold.Protein.RotatedTorsions>
[ 6907 6896 6895 6894 ] final -135.61 input  -60.11 | X-H torsion
[ 7974 7965 7964 7962 ] final  138.12 input  175.53 | X-H torsion
[ 8008 7997 7996 7995 ] final   44.44 input   59.86 | X-H torsion
[ 10167 10162 10161 10158 ] final  169.75 input  -65.29 | X-H torsion
[ 10718 10713 10712 10709 ] final -119.40 input   66.30 | X-H torsion
[ 10763 10752 10751 10750 ] final   82.33 input  -60.55 | X-H torsion
[ 11005 11000 10999 10996 ] final -168.40 input  -57.11 | X-H torsion

> <Gold.Protein.ActiveResidues>
 VAL166  LYS551  ARG553  GLY616  TRP617  ASP618  TYR619  PRO620  LYS621  CYS622 
 ASP623  PHE694  ASN695  SER759  ASP760  ASP761  ALA762  ILE779  LEU786  VAL792 
 PHE793  MET794  SER795  GLU796  ALA797  LYS798  CYS799  TRP800  GLU811  SER814 

> <Gold.Protein.RotatedAtoms>
  151.0000  133.6065  159.2696 H   0  0  0  0  0  0  0  0  0  0  0  0  # atno 6907 bound_to 6896
  151.3255  135.0828  159.9330 H   0  0  0  0  0  0  0  0  0  0  0  0  # atno 6908 bound_to 6896
  152.5271  133.9639  159.7784 H   0  0  0  0  0  0  0  0  0  0  0  0  # atno 6909 bound_to 6896
  144.9403  139.4939  143.5575 H   0  0  0  0  0  0  0  0  0  0  0  0  # atno 7974 bound_to 7965
  155.3193  140.3396  155.4241 H   0  0  0  0  0  0  0  0  0  0  0  0  # atno 8008 bound_to 7997
  156.1917  140.1700  156.8116 H   0  0  0  0  0  0  0  0  0  0  0  0  # atno 8009 bound_to 7997
  154.5450  140.0717  156.8557 H   0  0  0  0  0  0  0  0  0  0  0  0  # atno 8010 bound_to 7997
  139.5000  144.3672  151.9763 H   0  0  0  0  0  0  0  0  0  0  0  0  # atno 10167 bound_to 10162
  156.1178  130.6300  150.9412 H   0  0  0  0  0  0  0  0  0  0  0  0  # atno 10718 bound_to 10713
  153.1193  135.4732  154.9169 H   0  0  0  0  0  0  0  0  0  0  0  0  # atno 10763 bound_to 10752
  154.7560  135.3118  154.8471 H   0  0  0  0  0  0  0  0  0  0  0  0  # atno 10764 bound_to 10752
  153.9040  135.6872  153.4807 H   0  0  0  0  0  0  0  0  0  0  0  0  # atno 10765 bound_to 10752
  140.5424  134.5509  157.5103 H   0  0  0  0  0  0  0  0  0  0  0  0  # atno 11005 bound_to 11000
  146.3283  139.8417  142.8889 LP  0  0  0  0  0  0  0  0  0  0  0  0  # atno 17320 bound_to 7965
  145.3002  141.0192  143.3613 LP  0  0  0  0  0  0  0  0  0  0  0  0  # atno 17321 bound_to 7965
  140.3108  144.3540  150.6034 LP  0  0  0  0  0  0  0  0  0  0  0  0  # atno 17342 bound_to 10162
  140.5800  143.2173  151.7446 LP  0  0  0  0  0  0  0  0  0  0  0  0  # atno 17343 bound_to 10162
  157.6362  131.0916  150.8344 LP  0  0  0  0  0  0  0  0  0  0  0  0  # atno 17370 bound_to 10713
  156.8445  130.5059  149.5318 LP  0  0  0  0  0  0  0  0  0  0  0  0  # atno 17371 bound_to 10713
  139.9497  134.7639  156.0478 LP  0  0  0  0  0  0  0  0  0  0  0  0  # atno 17394 bound_to 11000
  141.1219  133.6610  156.3237 LP  0  0  0  0  0  0  0  0  0  0  0  0  # atno 17395 bound_to 11000

$$$$
