AV-unprocessed.smi:2158|AV-procd|sdf|8788|dock6
  -GOLD-   2272011563D 1   1.00000     0.00000
 Structure written by MMmdl.
 31 31  0  0  0  0  0  0  0  0  1 V2000
  153.1858  141.5180  160.0145 C   0  0  0  0  0  0  0  0  0  0  0  0
  153.2376  143.0441  159.8509 C   0  0  0  0  0  0  0  0  0  0  0  0
  151.9537  143.6572  159.2562 C   0  0  1  0  0  0  0  0  0  0  0  0
  152.0496  145.1863  159.1618 C   0  0  0  0  0  0  0  0  0  0  0  0
  151.6827  143.1137  157.9259 N   0  0  0  0  0  0  0  0  0  0  0  0
  150.7954  142.1493  157.6338 C   0  0  0  0  0  0  0  0  0  0  0  0
  150.1063  141.5835  158.4840 O   0  0  0  0  0  0  0  0  0  0  0  0
  150.6983  141.7540  156.1531 C   0  0  0  0  0  0  0  0  0  0  0  0
  150.7210  140.2994  155.9390 N   0  0  0  0  0  0  0  0  0  0  0  0
  149.8659  139.7144  155.0157 C   0  0  0  0  0  0  0  0  0  0  0  0
  149.8395  138.3845  154.7621 C   0  0  0  0  0  0  0  0  0  0  0  0
  150.7382  137.4794  155.4704 C   0  0  0  0  0  0  0  0  0  0  0  0
  150.7871  136.2616  155.3132 O   0  0  0  0  0  0  0  0  0  0  0  0
  151.5861  138.1064  156.3873 N   0  0  0  0  0  0  0  0  0  0  0  0
  151.6196  139.4764  156.6523 C   0  0  0  0  0  0  0  0  0  0  0  0
  152.4113  139.9271  157.4795 O   0  0  0  0  0  0  0  0  0  0  0  0
  152.2303  137.5210  156.8988 H   0  0  0  0  0  0  0  0  0  0  0  0
  154.0898  141.1504  160.5002 H   0  0  0  0  0  0  0  0  0  0  0  0
  153.1041  141.0133  159.0517 H   0  0  0  0  0  0  0  0  0  0  0  0
  152.3342  141.2164  160.6248 H   0  0  0  0  0  0  0  0  0  0  0  0
  153.4215  143.4881  160.8297 H   0  0  0  0  0  0  0  0  0  0  0  0
  154.0958  143.3111  159.2331 H   0  0  0  0  0  0  0  0  0  0  0  0
  151.1248  143.4291  159.9286 H   0  0  0  0  0  0  0  0  0  0  0  0
  152.2190  145.6301  160.1432 H   0  0  0  0  0  0  0  0  0  0  0  0
  151.1285  145.6135  158.7636 H   0  0  0  0  0  0  0  0  0  0  0  0
  152.8687  145.4949  158.5115 H   0  0  0  0  0  0  0  0  0  0  0  0
  152.2102  143.5111  157.1620 H   0  0  0  0  0  0  0  0  0  0  0  0
  149.7939  142.1834  155.7172 H   0  0  0  0  0  0  0  0  0  0  0  0
  151.5258  142.2258  155.6214 H   0  0  0  0  0  0  0  0  0  0  0  0
  149.1853  140.3472  154.4639 H   0  0  0  0  0  0  0  0  0  0  0  0
  149.1502  137.9883  154.0305 H   0  0  0  0  0  0  0  0  0  0  0  0
  1  2  1  0  0  0  0
  1 18  1  0  0  0  0
  1 19  1  0  0  0  0
  1 20  1  0  0  0  0
  2  3  1  0  0  0  0
  2 21  1  0  0  0  0
  2 22  1  0  0  0  0
  3  4  1  0  0  0  0
  3  5  1  0  0  0  0
  3 23  1  0  0  0  0
  4 24  1  0  0  0  0
  4 25  1  0  0  0  0
  4 26  1  0  0  0  0
  5  6  1  0  0  0  0
  5 27  1  0  0  0  0
  6  7  2  0  0  0  0
  6  8  1  0  0  0  0
  8  9  1  0  0  0  0
  8 28  1  0  0  0  0
  8 29  1  0  0  0  0
  9 15  1  0  0  0  0
  9 10  1  0  0  0  0
 10 11  2  0  0  0  0
 10 30  1  0  0  0  0
 11 12  1  0  0  0  0
 11 31  1  0  0  0  0
 12 13  2  0  0  0  0
 12 14  1  0  0  0  0
 14 17  1  0  0  0  0
 14 15  1  0  0  0  0
 15 16  2  0  0  0  0
M  END
> <s_m_source_file>
AV-unprocessed.smi

> <i_m_source_file_index>
2158

> <i_lp_mmshare_version>
43012

> <i_f3d_flags>
0

> <s_epik_input>
W0NIM11bQ0gyXVtDQEhdKFtDSDNdKVtOSF1DKD1PKVtDSDJdbjFbY0hdW2NIXWMoPU8pW25IXWMxPU8=

> <s_epik_cmdline>
J2VwaWtfcHl0aG9uJywgJy1waCcsICc3LjAnLCAnLXRuJywgJzgnLCAnLW1hJywgJzIwMCcsICctbWV0YWxfYmluZGluZycsICctaW1hZScsICc8aW5maWxlLm1hZT4nLCAnLW9tYWUnLCAnPG91dGZpbGUubWFlPic=

> <r_lp_tautomer_probability>
0.999537

> <r_epik_Ionization_Penalty>
0.00326083

> <r_epik_Ionization_Penalty_Charging>
0.00326081

> <r_epik_Ionization_Penalty_Neutral>
1.93017e-08

> <r_epik_State_Penalty>
0.00230249

> <r_epik_Charging_Adjusted_Penalty>
0.0055633

> <i_epik_Tot_Q>
0

> <i_epik_Tot_abs_Q>
0

> <r_epik_Metal_State_Penalty>
0.364899

> <b_epik_Metal_Only>
0

> <s_lp_Force_Field>
OPLS_2005

> <r_lp_Energy>
2.92089

> <b_lp_Chiralities_Consistent>
1

> <s_lp_Variant>
AV-unprocessed.smi:2158-2

> <Gold.Version>
5.8.1

> <Gold.Id.Protein>
6NUR|6NUR_protein|mol2

> <Gold.PLP.Fitness>
40.7740

> <Gold.PLP.PLP>
-36.0158

> <Gold.PLP.part.hbond>
-2.0000

> <Gold.PLP.part.metal>
0.0000

> <Gold.PLP.part.buried>
-2.8782

> <Gold.PLP.part.nonpolar>
-31.0240

> <Gold.PLP.part.repulsive>
0.3435

> <Gold.PLP.ligand.clash>
0.0000

> <Gold.PLP.ligand.torsion>
0.6300

> <Gold.PLP.Chemscore.Hbond>
2.0000

> <Gold.PLP.Chemscore.CHOScore>
0.0000

> <Gold.PLP.Chemscore.Metal>
0.0000

> <Gold.Chemscore.Hbonds>
donor molecule, donor type, donor heavy atom, donor atom, acceptor molecule, acceptor atom, score
      P1  H  7997  8009       L1    16  0.75

> <Gold.PLP.Chemscore.Internal.Correction>
0.0183

> <Gold.Rescore>
     Score         DG    S(hbond)    S(metal)    S(lipo)     H(rot)  DE(clash)    DE(int)     intcor
     12.55     -14.75       1.94        0.00      67.41       1.99       0.21       2.00       ----

> <Gold.Chemscore.Fitness>
12.5484

> <Gold.Chemscore.DG>
-14.7520

> <Gold.Chemscore.ZeroCoef>
-5.4800

> <Gold.Chemscore.Hbond>
1.9404

> <Gold.Chemscore.Metal>
0.0000

> <Gold.Chemscore.Lipo>
67.4068

> <Gold.Chemscore.Internal_Hbond>
0.0000

> <Gold.Chemscore.DEClash>
0.2068

> <Gold.Chemscore.DEInternal>
1.9967

> <Gold.Chemscore.Rot>
1.9904

> <Gold.Chemscore.Internal.Correction>
   9.000000E+99

> <Gold.Chemscore.Hbonds>
donor molecule, donor type, donor heavy atom, donor atom, acceptor molecule, acceptor atom, score
      P1  H  7997  8009       L1    16  0.63
      P1  H 10752 10765       L1    13  0.05

> <Gold.Chemscore.Hbond.Weighted>
-6.4808

> <Gold.Chemscore.Metal.Weighted>
-0.0000

> <Gold.Chemscore.Lipo.Weighted>
-7.8866

> <Gold.Chemscore.Internal_Hbond.Weighted>
0.0000

> <Gold.Chemscore.DEClash.Weighted>
0.2068

> <Gold.Chemscore.DEInternal.Weighted>
1.9967

> <Gold.Chemscore.Rot.Weighted>
5.0955

> <Gold.Chemscore.Internal.Correction.Weighted>
   9.000000E+99

> <Gold.Protein.RotatedTorsions>
[ 6907 6896 6895 6894 ] final   -8.43 input  -60.11 | X-H torsion
[ 7974 7965 7964 7962 ] final  -55.88 input  175.53 | X-H torsion
[ 8008 7997 7996 7995 ] final  175.74 input   59.86 | X-H torsion
[ 10167 10162 10161 10158 ] final   20.09 input  -65.29 | X-H torsion
[ 10718 10713 10712 10709 ] final  -13.29 input   66.30 | X-H torsion
[ 10763 10752 10751 10750 ] final  164.33 input  -60.55 | X-H torsion
[ 11005 11000 10999 10996 ] final  120.14 input  -57.11 | X-H torsion

> <Gold.Protein.ActiveResidues>
 VAL166  LYS551  ARG553  GLY616  TRP617  ASP618  TYR619  PRO620  LYS621  CYS622 
 ASP623  PHE694  ASN695  SER759  ASP760  ASP761  ALA762  ILE779  LEU786  VAL792 
 PHE793  MET794  SER795  GLU796  ALA797  LYS798  CYS799  TRP800  GLU811  SER814 

> <Gold.Protein.RotatedAtoms>
  151.4337  135.1012  159.9649 H   0  0  0  0  0  0  0  0  0  0  0  0  # atno 6907 bound_to 6896
  152.4947  133.8593  159.7252 H   0  0  0  0  0  0  0  0  0  0  0  0  # atno 6908 bound_to 6896
  150.9137  133.6907  159.2876 H   0  0  0  0  0  0  0  0  0  0  0  0  # atno 6909 bound_to 6896
  145.8691  140.8229  142.9898 H   0  0  0  0  0  0  0  0  0  0  0  0  # atno 7974 bound_to 7965
  156.0838  140.1401  156.9679 H   0  0  0  0  0  0  0  0  0  0  0  0  # atno 8008 bound_to 7997
  154.4601  140.0946  156.6916 H   0  0  0  0  0  0  0  0  0  0  0  0  # atno 8009 bound_to 7997
  155.5032  140.3451  155.4377 H   0  0  0  0  0  0  0  0  0  0  0  0  # atno 8010 bound_to 7997
  140.5530  143.9475  150.6590 H   0  0  0  0  0  0  0  0  0  0  0  0  # atno 10167 bound_to 10162
  156.6323  130.4905  149.6124 H   0  0  0  0  0  0  0  0  0  0  0  0  # atno 10718 bound_to 10713
  154.3072  135.2758  155.2583 H   0  0  0  0  0  0  0  0  0  0  0  0  # atno 10763 bound_to 10752
  154.4994  135.5812  153.6523 H   0  0  0  0  0  0  0  0  0  0  0  0  # atno 10764 bound_to 10752
  152.9892  135.6154  154.3247 H   0  0  0  0  0  0  0  0  0  0  0  0  # atno 10765 bound_to 10752
  139.9174  134.9633  156.7762 H   0  0  0  0  0  0  0  0  0  0  0  0  # atno 11005 bound_to 11000
  144.6726  140.1211  143.7449 LP  0  0  0  0  0  0  0  0  0  0  0  0  # atno 17320 bound_to 7965
  145.9158  139.2515  143.1410 LP  0  0  0  0  0  0  0  0  0  0  0  0  # atno 17321 bound_to 7965
  140.2906  143.3327  152.1066 LP  0  0  0  0  0  0  0  0  0  0  0  0  # atno 17342 bound_to 10162
  139.5035  144.6757  151.6133 LP  0  0  0  0  0  0  0  0  0  0  0  0  # atno 17343 bound_to 10162
  156.2224  130.6745  151.1382 LP  0  0  0  0  0  0  0  0  0  0  0  0  # atno 17370 bound_to 10713
  157.7196  131.0689  150.6190 LP  0  0  0  0  0  0  0  0  0  0  0  0  # atno 17371 bound_to 10713
  140.6581  133.9670  155.7790 LP  0  0  0  0  0  0  0  0  0  0  0  0  # atno 17394 bound_to 11000
  141.0662  134.0273  157.3590 LP  0  0  0  0  0  0  0  0  0  0  0  0  # atno 17395 bound_to 11000

$$$$
