AV-unprocessed.smi:221|AV-procd|sdf|1700|dock4
  -GOLD-   2262020153D 1   1.00000     0.00000
 Structure written by MMmdl.
 50 53  0  0  0  0  0  0  0  0  1 V2000
  149.6538  142.1246  155.3549 N   0  0  0  0  0  0  0  0  0  0  0  0
  150.5621  141.3646  155.9751 C   0  0  0  0  0  0  0  0  0  0  0  0
  151.2237  140.5284  155.3638 O   0  0  0  0  0  0  0  0  0  0  0  0
  150.7833  141.5528  157.4874 C   0  0  2  0  0  0  0  0  0  0  0  0
  150.9651  143.0335  157.8567 C   0  0  0  0  0  0  0  0  0  0  0  0
  151.7338  142.9604  159.1679 C   0  0  2  0  0  0  0  0  0  0  0  0
  152.3746  144.0937  159.4523 F   0  0  0  0  0  0  0  0  0  0  0  0
  152.6833  141.7894  158.9322 C   0  0  0  0  0  0  0  0  0  0  0  0
  151.9894  140.8932  158.0108 N   0  0  0  0  0  0  0  0  0  0  0  0
  151.8308  139.6276  158.4613 C   0  0  0  0  0  0  0  0  0  0  0  0
  152.8706  138.9760  159.0463 N   0  0  0  0  0  0  0  0  0  0  0  0
  152.7095  137.7237  159.4857 C   0  0  0  0  0  0  0  0  0  0  0  0
  151.6189  136.9547  159.4366 N   0  0  0  0  0  0  0  0  0  0  0  0
  150.5784  137.6083  158.8441 C   0  0  0  0  0  0  0  0  0  0  0  0
  150.6002  138.9338  158.3292 C   0  0  0  0  0  0  0  0  0  0  0  0
  149.3608  139.2598  157.7932 N   0  0  0  0  0  0  0  0  0  0  0  0
  148.6428  138.1863  157.9847 C   0  0  0  0  0  0  0  0  0  0  0  0
  149.2935  137.1497  158.6162 N   0  0  0  0  0  0  0  0  0  0  0  0
  148.7424  135.8499  158.9550 C   0  0  0  0  0  0  0  0  0  0  0  0
  148.1794  135.7600  160.3989 C   0  0  1  0  0  0  0  0  0  0  0  0
  146.9776  136.7132  160.6238 C   0  0  0  0  0  0  0  0  0  0  0  0
  147.1451  137.5159  161.7745 O   0  0  0  0  0  0  0  0  0  0  0  0
  147.7989  134.2955  160.7405 C   0  0  1  0  0  0  0  0  0  0  0  0
  147.2331  134.0893  162.1361 C   0  0  0  0  0  0  0  0  0  0  0  0
  146.5441  132.7366  162.0096 C   0  0  0  0  0  0  0  0  0  0  0  0
  146.0436  132.6927  160.6796 O   0  0  0  0  0  0  0  0  0  0  0  0
  146.6604  133.7086  159.8940 C   0  0  0  0  0  0  0  0  0  0  0  0
  149.8946  141.1782  157.9985 H   0  0  0  0  0  0  0  0  0  0  0  0
  151.0552  142.7418  159.9936 H   0  0  0  0  0  0  0  0  0  0  0  0
  149.4999  142.0146  154.3633 H   0  0  0  0  0  0  0  0  0  0  0  0
  149.1266  142.8082  155.8797 H   0  0  0  0  0  0  0  0  0  0  0  0
  151.5641  143.5520  157.1054 H   0  0  0  0  0  0  0  0  0  0  0  0
  150.0177  143.5640  157.9569 H   0  0  0  0  0  0  0  0  0  0  0  0
  153.5939  142.1311  158.4382 H   0  0  0  0  0  0  0  0  0  0  0  0
  152.9805  141.3187  159.8713 H   0  0  0  0  0  0  0  0  0  0  0  0
  153.5783  137.2735  159.9427 H   0  0  0  0  0  0  0  0  0  0  0  0
  147.6098  138.1234  157.6749 H   0  0  0  0  0  0  0  0  0  0  0  0
  147.9614  135.6068  158.2334 H   0  0  0  0  0  0  0  0  0  0  0  0
  149.5374  135.1198  158.8043 H   0  0  0  0  0  0  0  0  0  0  0  0
  148.9718  136.0531  161.0897 H   0  0  0  0  0  0  0  0  0  0  0  0
  146.8194  137.3497  159.7527 H   0  0  0  0  0  0  0  0  0  0  0  0
  146.0538  136.1570  160.7752 H   0  0  0  0  0  0  0  0  0  0  0  0
  146.9985  136.9802  162.5392 H   0  0  0  0  0  0  0  0  0  0  0  0
  148.6778  133.6577  160.6300 H   0  0  0  0  0  0  0  0  0  0  0  0
  147.9941  134.0913  162.9169 H   0  0  0  0  0  0  0  0  0  0  0  0
  146.5000  134.8627  162.3702 H   0  0  0  0  0  0  0  0  0  0  0  0
  147.2663  131.9290  162.1369 H   0  0  0  0  0  0  0  0  0  0  0  0
  145.7490  132.6000  162.7429 H   0  0  0  0  0  0  0  0  0  0  0  0
  145.9098  134.4684  159.6721 H   0  0  0  0  0  0  0  0  0  0  0  0
  147.0136  133.2982  158.9478 H   0  0  0  0  0  0  0  0  0  0  0  0
  1  2  1  0  0  0  0
  1 30  1  0  0  0  0
  1 31  1  0  0  0  0
  2  3  2  0  0  0  0
  2  4  1  0  0  0  0
  4 28  1  0  0  0  0
  4  9  1  0  0  0  0
  4  5  1  0  0  0  0
  5  6  1  0  0  0  0
  5 32  1  0  0  0  0
  5 33  1  0  0  0  0
  6 29  1  0  0  0  0
  6  7  1  0  0  0  0
  6  8  1  0  0  0  0
  8  9  1  0  0  0  0
  8 34  1  0  0  0  0
  8 35  1  0  0  0  0
  9 10  1  0  0  0  0
 10 15  1  0  0  0  0
 10 11  2  0  0  0  0
 11 12  1  0  0  0  0
 12 13  2  0  0  0  0
 12 36  1  0  0  0  0
 13 14  1  0  0  0  0
 14 18  1  0  0  0  0
 14 15  2  0  0  0  0
 15 16  1  0  0  0  0
 16 17  2  0  0  0  0
 17 18  1  0  0  0  0
 17 37  1  0  0  0  0
 18 19  1  0  0  0  0
 19 20  1  0  0  0  0
 19 38  1  0  0  0  0
 19 39  1  0  0  0  0
 20 21  1  0  0  0  0
 20 23  1  0  0  0  0
 20 40  1  0  0  0  0
 21 22  1  0  0  0  0
 21 41  1  0  0  0  0
 21 42  1  0  0  0  0
 22 43  1  0  0  0  0
 23 27  1  0  0  0  0
 23 24  1  0  0  0  0
 23 44  1  0  0  0  0
 24 25  1  0  0  0  0
 24 45  1  0  0  0  0
 24 46  1  0  0  0  0
 25 26  1  0  0  0  0
 25 47  1  0  0  0  0
 25 48  1  0  0  0  0
 26 27  1  0  0  0  0
 27 49  1  0  0  0  0
 27 50  1  0  0  0  0
M  END
> <s_m_source_file>
AV-unprocessed.smi

> <i_m_source_file_index>
221

> <i_lp_mmshare_version>
43012

> <i_f3d_flags>
0

> <s_epik_input>
W05IMl1DKD1PKVtDQEBIXTFbQ0gyXVtDQEBIXShGKVtDSDJdTjFjKG5bY0hdbjIpYyhjMjMpbltjSF1uM1tDSDJdW0NASF0oW0NIMl1bT0hdKVtDQEBIXTRbQ0gyXVtDSDJdT1tDSDJdNA==

> <s_epik_cmdline>
J2VwaWtfcHl0aG9uJywgJy1waCcsICc3LjAnLCAnLXRuJywgJzgnLCAnLW1hJywgJzIwMCcsICctbWV0YWxfYmluZGluZycsICctaW1hZScsICc8aW5maWxlLm1hZT4nLCAnLW9tYWUnLCAnPG91dGZpbGUubWFlPic=

> <r_lp_tautomer_probability>
1

> <r_epik_Ionization_Penalty>
0.000818822

> <r_epik_Ionization_Penalty_Charging>
0

> <r_epik_Ionization_Penalty_Neutral>
0.000818822

> <r_epik_State_Penalty>
0.000440551

> <r_epik_Charging_Adjusted_Penalty>
0.000440551

> <i_epik_Tot_Q>
0

> <i_epik_Tot_abs_Q>
0

> <r_epik_Metal_State_Penalty>
-0

> <b_epik_Metal_Only>
0

> <s_lp_Force_Field>
OPLS_2005

> <r_lp_Energy>
51.3471

> <b_lp_Chiralities_Consistent>
1

> <s_lp_Variant>
AV-unprocessed.smi:221-15

> <Gold.Version>
5.8.1

> <Gold.Id.Protein>
6NUR|6NUR_protein|mol2

> <Gold.PLP.Fitness>
52.3290

> <Gold.PLP.PLP>
-43.9037

> <Gold.PLP.part.hbond>
-5.0000

> <Gold.PLP.part.metal>
0.0000

> <Gold.PLP.part.buried>
-5.0886

> <Gold.PLP.part.nonpolar>
-33.2729

> <Gold.PLP.part.repulsive>
0.2239

> <Gold.PLP.ligand.clash>
1.2389

> <Gold.PLP.ligand.torsion>
1.5463

> <Gold.PLP.Chemscore.Hbond>
4.1680

> <Gold.PLP.Chemscore.CHOScore>
0.0000

> <Gold.PLP.Chemscore.Metal>
0.0000

> <Gold.Chemscore.Hbonds>
donor molecule, donor type, donor heavy atom, donor atom, acceptor molecule, acceptor atom, score
      L1  H     1    31       P1  8028  0.64
      P1  H  6896  6907       L1    13  1.00
      P1  H  6931  6943       L1    22  0.69
      P1  H  6934  6947       L1    22  0.68
      P1  H  7989  7998       L1     3  0.90

> <Gold.PLP.Chemscore.Internal.Correction>
0.2528

> <Gold.Rescore>
     Score         DG    S(hbond)    S(metal)    S(lipo)     H(rot)  DE(clash)    DE(int)     intcor
     13.18     -16.20       3.42        0.00      75.39       3.72       0.04       2.98       ----

> <Gold.Chemscore.Fitness>
13.1829

> <Gold.Chemscore.DG>
-16.1976

> <Gold.Chemscore.ZeroCoef>
-5.4800

> <Gold.Chemscore.Hbond>
3.4194

> <Gold.Chemscore.Metal>
0.0000

> <Gold.Chemscore.Lipo>
75.3882

> <Gold.Chemscore.Internal_Hbond>
0.0000

> <Gold.Chemscore.DEClash>
0.0383

> <Gold.Chemscore.DEInternal>
2.9764

> <Gold.Chemscore.Rot>
3.7202

> <Gold.Chemscore.Internal.Correction>
   9.000000E+99

> <Gold.Chemscore.Hbonds>
donor molecule, donor type, donor heavy atom, donor atom, acceptor molecule, acceptor atom, score
      L1  H     1    31       P1  8028  0.63
      P1  H  6896  6907       L1    13  0.94
      P1  H  6931  6943       L1    22  0.32
      P1  H  6934  6947       L1    22  0.12
      P1  H  7989  7998       L1     3  0.84

> <Gold.Chemscore.Hbond.Weighted>
-11.4209

> <Gold.Chemscore.Metal.Weighted>
-0.0000

> <Gold.Chemscore.Lipo.Weighted>
-8.8204

> <Gold.Chemscore.Internal_Hbond.Weighted>
0.0000

> <Gold.Chemscore.DEClash.Weighted>
0.0383

> <Gold.Chemscore.DEInternal.Weighted>
2.9764

> <Gold.Chemscore.Rot.Weighted>
9.5237

> <Gold.Chemscore.Internal.Correction.Weighted>
   9.000000E+99

> <Gold.Protein.RotatedTorsions>
[ 6907 6896 6895 6894 ] final   11.33 input  -60.11 | X-H torsion
[ 7974 7965 7964 7962 ] final   39.89 input  175.53 | X-H torsion
[ 8008 7997 7996 7995 ] final  131.35 input   59.86 | X-H torsion
[ 10167 10162 10161 10158 ] final -132.97 input  -65.29 | X-H torsion
[ 10718 10713 10712 10709 ] final -177.85 input   66.30 | X-H torsion
[ 10763 10752 10751 10750 ] final -144.31 input  -60.55 | X-H torsion
[ 11005 11000 10999 10996 ] final  -69.43 input  -57.11 | X-H torsion

> <Gold.Protein.ActiveResidues>
 VAL166  LYS551  ARG553  GLY616  TRP617  ASP618  TYR619  PRO620  LYS621  CYS622 
 ASP623  PHE694  ASN695  SER759  ASP760  ASP761  ALA762  ILE779  LEU786  VAL792 
 PHE793  MET794  SER795  GLU796  ALA797  LYS798  CYS799  TRP800  GLU811  SER814 

> <Gold.Protein.RotatedAtoms>
  151.7527  135.0829  160.0333 H   0  0  0  0  0  0  0  0  0  0  0  0  # atno 6907 bound_to 6896
  152.3406  133.6058  159.5882 H   0  0  0  0  0  0  0  0  0  0  0  0  # atno 6908 bound_to 6896
  150.7477  133.9644  159.3567 H   0  0  0  0  0  0  0  0  0  0  0  0  # atno 6909 bound_to 6896
  146.0948  139.5597  142.9452 H   0  0  0  0  0  0  0  0  0  0  0  0  # atno 7974 bound_to 7965
  156.2968  140.2573  156.2911 H   0  0  0  0  0  0  0  0  0  0  0  0  # atno 8008 bound_to 7997
  154.9509  140.0394  157.2162 H   0  0  0  0  0  0  0  0  0  0  0  0  # atno 8009 bound_to 7997
  154.8037  140.2832  155.5907 H   0  0  0  0  0  0  0  0  0  0  0  0  # atno 8010 bound_to 7997
  139.9031  143.6584  152.2591 H   0  0  0  0  0  0  0  0  0  0  0  0  # atno 10167 bound_to 10162
  156.8356  130.9668  151.3103 H   0  0  0  0  0  0  0  0  0  0  0  0  # atno 10718 bound_to 10713
  154.8433  135.3444  154.6325 H   0  0  0  0  0  0  0  0  0  0  0  0  # atno 10763 bound_to 10752
  153.6935  135.6973  153.5088 H   0  0  0  0  0  0  0  0  0  0  0  0  # atno 10764 bound_to 10752
  153.2577  135.4333  155.0817 H   0  0  0  0  0  0  0  0  0  0  0  0  # atno 10765 bound_to 10752
  141.1554  133.6764  156.6599 H   0  0  0  0  0  0  0  0  0  0  0  0  # atno 11005 bound_to 11000
  145.5969  141.0361  143.2039 LP  0  0  0  0  0  0  0  0  0  0  0  0  # atno 17320 bound_to 7965
  144.7387  139.7510  143.7319 LP  0  0  0  0  0  0  0  0  0  0  0  0  # atno 17321 bound_to 7965
  139.7008  144.7635  151.1276 LP  0  0  0  0  0  0  0  0  0  0  0  0  # atno 17342 bound_to 10162
  140.7702  143.5460  150.9258 LP  0  0  0  0  0  0  0  0  0  0  0  0  # atno 17343 bound_to 10162
  157.6383  130.8785  149.9400 LP  0  0  0  0  0  0  0  0  0  0  0  0  # atno 17370 bound_to 10713
  156.0909  130.3663  150.0397 LP  0  0  0  0  0  0  0  0  0  0  0  0  # atno 17371 bound_to 10713
  140.3256  134.7972  157.4286 LP  0  0  0  0  0  0  0  0  0  0  0  0  # atno 17394 bound_to 11000
  140.1060  134.5409  155.8309 LP  0  0  0  0  0  0  0  0  0  0  0  0  # atno 17395 bound_to 11000

$$$$
