AV-unprocessed.smi:2284|AV-procd|sdf|9202|dock1
  -GOLD-   2272012413D 1   1.00000     0.00000
 Structure written by MMmdl.
 44 45  0  0  0  0  0  0  0  0  1 V2000
  151.1853  144.1554  159.4689 C   0  0  0  0  0  0  0  0  0  0  0  0
  151.9552  142.8539  159.5628 C   0  0  0  0  0  0  0  0  0  0  0  0
  153.2928  142.8467  160.0039 C   0  0  0  0  0  0  0  0  0  0  0  0
  153.9980  141.6327  160.0894 C   0  0  0  0  0  0  0  0  0  0  0  0
  153.3719  140.4199  159.7346 C   0  0  0  0  0  0  0  0  0  0  0  0
  154.1464  139.1184  159.8294 C   0  0  0  0  0  0  0  0  0  0  0  0
  152.0303  140.4138  159.2882 C   0  0  0  0  0  0  0  0  0  0  0  0
  151.4795  139.1940  158.9572 O   0  0  0  0  0  0  0  0  0  0  0  0
  150.0819  139.0063  159.1344 C   0  0  0  0  0  0  0  0  0  0  0  0
  149.8038  137.4968  159.1866 C   0  0  1  0  0  0  0  0  0  0  0  0
  150.8928  136.8920  159.8541 O   0  0  0  0  0  0  0  0  0  0  0  0
  148.4983  137.1686  159.9483 C   0  0  0  0  0  0  0  0  0  0  0  0
  148.4673  135.7701  160.4054 N   0  0  0  0  0  0  0  0  0  0  0  0
  148.4208  134.7878  159.4015 C   0  0  0  0  0  0  0  0  0  0  0  0
  148.4008  133.5268  159.6856 N   0  0  0  0  0  0  0  0  0  0  0  0
  148.4285  133.1131  161.0205 C   0  0  0  0  0  0  0  0  0  0  0  0
  148.4005  131.6114  161.2422 C   0  0  0  0  0  0  0  0  0  0  0  0
  148.4789  134.0143  162.0394 C   0  0  0  0  0  0  0  0  0  0  0  0
  148.5108  133.6217  163.5113 C   0  0  0  0  0  0  0  0  0  0  0  0
  148.5070  135.4536  161.7314 C   0  0  0  0  0  0  0  0  0  0  0  0
  148.5618  136.3222  162.6040 O   0  0  0  0  0  0  0  0  0  0  0  0
  151.3281  141.6430  159.2073 C   0  0  0  0  0  0  0  0  0  0  0  0
  151.8052  145.0072  159.7504 H   0  0  0  0  0  0  0  0  0  0  0  0
  150.3195  144.1305  160.1310 H   0  0  0  0  0  0  0  0  0  0  0  0
  150.8334  144.3130  158.4491 H   0  0  0  0  0  0  0  0  0  0  0  0
  153.7829  143.7696  160.2782 H   0  0  0  0  0  0  0  0  0  0  0  0
  155.0236  141.6372  160.4287 H   0  0  0  0  0  0  0  0  0  0  0  0
  154.2019  138.6384  158.8519 H   0  0  0  0  0  0  0  0  0  0  0  0
  153.6534  138.4340  160.5204 H   0  0  0  0  0  0  0  0  0  0  0  0
  155.1640  139.2836  160.1843 H   0  0  0  0  0  0  0  0  0  0  0  0
  149.7694  139.4733  160.0702 H   0  0  0  0  0  0  0  0  0  0  0  0
  149.5204  139.4653  158.3186 H   0  0  0  0  0  0  0  0  0  0  0  0
  149.7700  137.1136  158.1658 H   0  0  0  0  0  0  0  0  0  0  0  0
  150.9696  137.2748  160.7148 H   0  0  0  0  0  0  0  0  0  0  0  0
  148.3398  137.8703  160.7696 H   0  0  0  0  0  0  0  0  0  0  0  0
  147.6386  137.3382  159.2968 H   0  0  0  0  0  0  0  0  0  0  0  0
  148.4086  135.1643  158.3769 H   0  0  0  0  0  0  0  0  0  0  0  0
  147.5148  131.3258  161.8101 H   0  0  0  0  0  0  0  0  0  0  0  0
  149.2863  131.2894  161.7906 H   0  0  0  0  0  0  0  0  0  0  0  0
  148.3791  131.0701  160.2954 H   0  0  0  0  0  0  0  0  0  0  0  0
  149.4278  133.9849  163.9764 H   0  0  0  0  0  0  0  0  0  0  0  0
  148.4654  132.5456  163.6707 H   0  0  0  0  0  0  0  0  0  0  0  0
  147.6652  134.0661  164.0375 H   0  0  0  0  0  0  0  0  0  0  0  0
  150.3013  141.6812  158.8763 H   0  0  0  0  0  0  0  0  0  0  0  0
  1  2  1  0  0  0  0
  1 23  1  0  0  0  0
  1 24  1  0  0  0  0
  1 25  1  0  0  0  0
  2 22  1  0  0  0  0
  2  3  2  0  0  0  0
  3  4  1  0  0  0  0
  3 26  1  0  0  0  0
  4  5  2  0  0  0  0
  4 27  1  0  0  0  0
  5  6  1  0  0  0  0
  5  7  1  0  0  0  0
  6 28  1  0  0  0  0
  6 29  1  0  0  0  0
  6 30  1  0  0  0  0
  7  8  1  0  0  0  0
  7 22  2  0  0  0  0
  8  9  1  0  0  0  0
  9 10  1  0  0  0  0
  9 31  1  0  0  0  0
  9 32  1  0  0  0  0
 10 11  1  0  0  0  0
 10 12  1  0  0  0  0
 10 33  1  0  0  0  0
 11 34  1  0  0  0  0
 12 13  1  0  0  0  0
 12 35  1  0  0  0  0
 12 36  1  0  0  0  0
 13 20  1  0  0  0  0
 13 14  1  0  0  0  0
 14 15  2  0  0  0  0
 14 37  1  0  0  0  0
 15 16  1  0  0  0  0
 16 17  1  0  0  0  0
 16 18  2  0  0  0  0
 17 38  1  0  0  0  0
 17 39  1  0  0  0  0
 17 40  1  0  0  0  0
 18 19  1  0  0  0  0
 18 20  1  0  0  0  0
 19 41  1  0  0  0  0
 19 42  1  0  0  0  0
 19 43  1  0  0  0  0
 20 21  2  0  0  0  0
 22 44  1  0  0  0  0
M  END
> <s_m_source_file>
AV-unprocessed.smi

> <i_m_source_file_index>
2284

> <i_lp_mmshare_version>
43012

> <i_f3d_flags>
0

> <s_epik_input>
W0NIM11jMVtjSF1bY0hdYyhbQ0gzXSljKFtjSF0xKU9bQ0gyXVtDQEhdKFtPSF0pW0NIMl1uMltjSF1uYyhbQ0gzXSljKFtDSDNdKWMyPU8=

> <s_epik_cmdline>
J2VwaWtfcHl0aG9uJywgJy1waCcsICc3LjAnLCAnLXRuJywgJzgnLCAnLW1hJywgJzIwMCcsICctbWV0YWxfYmluZGluZycsICctaW1hZScsICc8aW5maWxlLm1hZT4nLCAnLW9tYWUnLCAnPG91dGZpbGUubWFlPic=

> <r_lp_tautomer_probability>
1

> <r_epik_Ionization_Penalty>
3.7476e-05

> <r_epik_Ionization_Penalty_Charging>
8.44705e-08

> <r_epik_Ionization_Penalty_Neutral>
3.73915e-05

> <r_epik_State_Penalty>
-0

> <r_epik_Charging_Adjusted_Penalty>
8.44705e-08

> <i_epik_Tot_Q>
0

> <i_epik_Tot_abs_Q>
0

> <r_epik_Metal_State_Penalty>
-0

> <b_epik_Metal_Only>
0

> <s_lp_Force_Field>
OPLS_2005

> <r_lp_Energy>
21.7941

> <b_lp_Chiralities_Consistent>
1

> <s_lp_Variant>
AV-unprocessed.smi:2284-2

> <Gold.Version>
5.8.1

> <Gold.Id.Protein>
6NUR|6NUR_protein|mol2

> <Gold.PLP.Fitness>
52.4193

> <Gold.PLP.PLP>
-45.9682

> <Gold.PLP.part.hbond>
-3.1488

> <Gold.PLP.part.metal>
0.0000

> <Gold.PLP.part.buried>
-5.6577

> <Gold.PLP.part.nonpolar>
-37.8620

> <Gold.PLP.part.repulsive>
0.0000

> <Gold.PLP.ligand.clash>
0.0000

> <Gold.PLP.ligand.torsion>
0.9476

> <Gold.PLP.Chemscore.Hbond>
2.7503

> <Gold.PLP.Chemscore.CHOScore>
0.0000

> <Gold.PLP.Chemscore.Metal>
0.0000

> <Gold.Chemscore.Hbonds>
donor molecule, donor type, donor heavy atom, donor atom, acceptor molecule, acceptor atom, score
      P1  H  6896  6908       L1    11  1.00
      P1  H  6931  6943       L1    21  0.86

> <Gold.PLP.Chemscore.Internal.Correction>
0.0955

> <Gold.Rescore>
     Score         DG    S(hbond)    S(metal)    S(lipo)     H(rot)  DE(clash)    DE(int)     intcor
     20.44     -21.04       2.71        0.00     106.59       2.32       0.00       0.60       ----

> <Gold.Chemscore.Fitness>
20.4443

> <Gold.Chemscore.DG>
-21.0439

> <Gold.Chemscore.ZeroCoef>
-5.4800

> <Gold.Chemscore.Hbond>
2.7069

> <Gold.Chemscore.Metal>
0.0000

> <Gold.Chemscore.Lipo>
106.5930

> <Gold.Chemscore.Internal_Hbond>
0.0000

> <Gold.Chemscore.DEClash>
0.0000

> <Gold.Chemscore.DEInternal>
0.5996

> <Gold.Chemscore.Rot>
2.3236

> <Gold.Chemscore.Internal.Correction>
   9.000000E+99

> <Gold.Chemscore.Hbonds>
donor molecule, donor type, donor heavy atom, donor atom, acceptor molecule, acceptor atom, score
      P1  H  6896  6908       L1    11  0.82
      P1  H  6931  6943       L1    21  0.76

> <Gold.Chemscore.Hbond.Weighted>
-9.0409

> <Gold.Chemscore.Metal.Weighted>
-0.0000

> <Gold.Chemscore.Lipo.Weighted>
-12.4714

> <Gold.Chemscore.Internal_Hbond.Weighted>
0.0000

> <Gold.Chemscore.DEClash.Weighted>
0.0000

> <Gold.Chemscore.DEInternal.Weighted>
0.5996

> <Gold.Chemscore.Rot.Weighted>
5.9484

> <Gold.Chemscore.Internal.Correction.Weighted>
   9.000000E+99

> <Gold.Protein.RotatedTorsions>
[ 6907 6896 6895 6894 ] final -145.53 input  -60.11 | X-H torsion
[ 7974 7965 7964 7962 ] final  144.54 input  175.53 | X-H torsion
[ 8008 7997 7996 7995 ] final   88.60 input   59.86 | X-H torsion
[ 10167 10162 10161 10158 ] final   27.24 input  -65.29 | X-H torsion
[ 10718 10713 10712 10709 ] final  102.21 input   66.30 | X-H torsion
[ 10763 10752 10751 10750 ] final   41.03 input  -60.55 | X-H torsion
[ 11005 11000 10999 10996 ] final    7.56 input  -57.11 | X-H torsion

> <Gold.Protein.ActiveResidues>
 VAL166  LYS551  ARG553  GLY616  TRP617  ASP618  TYR619  PRO620  LYS621  CYS622 
 ASP623  PHE694  ASN695  SER759  ASP760  ASP761  ALA762  ILE779  LEU786  VAL792 
 PHE793  MET794  SER795  GLU796  ALA797  LYS798  CYS799  TRP800  GLU811  SER814 

> <Gold.Protein.RotatedAtoms>
  151.1290  133.5050  159.2599 H   0  0  0  0  0  0  0  0  0  0  0  0  # atno 6907 bound_to 6896
  151.1778  135.0347  159.8789 H   0  0  0  0  0  0  0  0  0  0  0  0  # atno 6908 bound_to 6896
  152.5459  134.1146  159.8426 H   0  0  0  0  0  0  0  0  0  0  0  0  # atno 6909 bound_to 6896
  144.8827  139.5675  143.5835 H   0  0  0  0  0  0  0  0  0  0  0  0  # atno 7974 bound_to 7965
  155.9897  140.3370  155.6741 H   0  0  0  0  0  0  0  0  0  0  0  0  # atno 8008 bound_to 7997
  155.6437  140.0698  157.2628 H   0  0  0  0  0  0  0  0  0  0  0  0  # atno 8009 bound_to 7997
  154.4216  140.1738  156.1588 H   0  0  0  0  0  0  0  0  0  0  0  0  # atno 8010 bound_to 7997
  140.4955  144.0399  150.6313 H   0  0  0  0  0  0  0  0  0  0  0  0  # atno 10167 bound_to 10162
  157.6808  131.0747  150.5369 H   0  0  0  0  0  0  0  0  0  0  0  0  # atno 10718 bound_to 10713
  152.9919  135.6174  154.2721 H   0  0  0  0  0  0  0  0  0  0  0  0  # atno 10763 bound_to 10752
  154.2454  135.2787  155.2839 H   0  0  0  0  0  0  0  0  0  0  0  0  # atno 10764 bound_to 10752
  154.5334  135.5781  153.6835 H   0  0  0  0  0  0  0  0  0  0  0  0  # atno 10765 bound_to 10752
  140.5469  134.0321  155.7923 H   0  0  0  0  0  0  0  0  0  0  0  0  # atno 11005 bound_to 11000
  146.3005  139.7411  142.9095 LP  0  0  0  0  0  0  0  0  0  0  0  0  # atno 17320 bound_to 7965
  145.3925  141.0374  143.3116 LP  0  0  0  0  0  0  0  0  0  0  0  0  # atno 17321 bound_to 7965
  140.3680  143.2870  152.0310 LP  0  0  0  0  0  0  0  0  0  0  0  0  # atno 17342 bound_to 10162
  139.4860  144.6252  151.7178 LP  0  0  0  0  0  0  0  0  0  0  0  0  # atno 17343 bound_to 10162
  156.5678  130.4272  149.6033 LP  0  0  0  0  0  0  0  0  0  0  0  0  # atno 17370 bound_to 10713
  156.2767  130.7047  151.1860 LP  0  0  0  0  0  0  0  0  0  0  0  0  # atno 17371 bound_to 10713
  141.1194  133.9486  157.2758 LP  0  0  0  0  0  0  0  0  0  0  0  0  # atno 17394 bound_to 11000
  139.9475  135.0181  156.8896 LP  0  0  0  0  0  0  0  0  0  0  0  0  # atno 17395 bound_to 11000

$$$$
