AV-unprocessed.smi:249|AV-procd|sdf|1915|dock3
  -GOLD-   2262021 13D 1   1.00000     0.00000
 Structure written by MMmdl.
 64 67  0  0  0  0  0  0  0  0  2 V2000
  143.6591  132.3703  150.8830 C   0  0  0  0  0  0  0  0  0  0  0  0
  143.8321  133.6819  151.6660 C   0  0  0  0  0  0  0  0  0  0  0  0
  144.4274  133.4873  153.0199 N   0  3  1  0  0  0  0  0  0  0  0  0
  145.6506  132.6354  152.9611 C   0  0  0  0  0  0  0  0  0  0  0  0
  146.2353  132.3560  154.3546 C   0  0  0  0  0  0  0  0  0  0  0  0
  146.5873  133.6611  155.0878 C   0  0  1  0  0  0  0  0  0  0  0  0
  147.7065  134.3765  154.4527 N   0  0  0  0  0  0  0  0  0  0  0  0
  148.8904  133.5966  154.1058 C   0  0  0  0  0  0  0  0  0  0  0  0
  148.0654  135.5376  155.0443 C   0  0  0  0  0  0  0  0  0  0  0  0
  147.2383  136.5991  154.8822 N   0  0  0  0  0  0  0  0  0  0  0  0
  147.5381  137.7701  155.4525 C   0  0  0  0  0  0  0  0  0  0  0  0
  148.5932  138.0858  156.2073 N   0  0  0  0  0  0  0  0  0  0  0  0
  149.4297  137.0194  156.3635 C   0  0  0  0  0  0  0  0  0  0  0  0
  149.2443  135.7178  155.8204 C   0  0  0  0  0  0  0  0  0  0  0  0
  150.2990  134.8924  156.1908 N   0  0  0  0  0  0  0  0  0  0  0  0
  151.0646  135.6627  156.9151 C   0  0  0  0  0  0  0  0  0  0  0  0
  150.6146  136.9538  157.0751 N   0  0  0  0  0  0  0  0  0  0  0  0
  151.2692  138.0117  157.8257 C   0  0  0  0  0  0  0  0  0  0  0  0
  150.9334  139.4320  157.3048 C   0  0  2  0  0  0  0  0  0  0  0  0
  151.7408  139.7618  156.0230 C   0  0  0  0  0  0  0  0  0  0  0  0
  150.9648  139.5871  154.8563 O   0  0  0  0  0  0  0  0  0  0  0  0
  151.1553  140.4804  158.4297 C   0  0  2  0  0  0  0  0  0  0  0  0
  151.0674  141.9335  157.9697 C   0  0  0  0  0  0  0  0  0  0  0  0
  152.0041  142.6986  158.9093 C   0  0  0  0  0  0  0  0  0  0  0  0
  152.5907  141.7199  159.7558 O   0  0  0  0  0  0  0  0  0  0  0  0
  152.5346  140.4698  159.0910 C   0  0  0  0  0  0  0  0  0  0  0  0
  145.2833  134.4850  155.1581 C   0  0  0  0  0  0  0  0  0  0  0  0
  144.6715  134.7660  153.7650 C   0  0  2  0  0  0  0  0  0  0  0  0
  143.3936  135.6097  153.9559 C   0  0  0  0  0  0  0  0  0  0  0  0
  143.0931  132.5468  149.9679 H   0  0  0  0  0  0  0  0  0  0  0  0
  143.1124  131.6301  151.4682 H   0  0  0  0  0  0  0  0  0  0  0  0
  144.6111  131.9338  150.5834 H   0  0  0  0  0  0  0  0  0  0  0  0
  144.4314  134.3919  151.0943 H   0  0  0  0  0  0  0  0  0  0  0  0
  142.8371  134.1129  151.7422 H   0  0  0  0  0  0  0  0  0  0  0  0
  145.4229  131.6752  152.5017 H   0  0  0  0  0  0  0  0  0  0  0  0
  146.3988  133.1146  152.3277 H   0  0  0  0  0  0  0  0  0  0  0  0
  145.5045  131.7981  154.9418 H   0  0  0  0  0  0  0  0  0  0  0  0
  147.1034  131.7015  154.2760 H   0  0  0  0  0  0  0  0  0  0  0  0
  146.8926  133.4061  156.1033 H   0  0  0  0  0  0  0  0  0  0  0  0
  149.7525  134.2327  153.8963 H   0  0  0  0  0  0  0  0  0  0  0  0
  148.7025  133.0036  153.2110 H   0  0  0  0  0  0  0  0  0  0  0  0
  149.1587  132.9187  154.9168 H   0  0  0  0  0  0  0  0  0  0  0  0
  146.8316  138.5688  155.2799 H   0  0  0  0  0  0  0  0  0  0  0  0
  151.9839  135.3082  157.3587 H   0  0  0  0  0  0  0  0  0  0  0  0
  150.9668  137.8964  158.8663 H   0  0  0  0  0  0  0  0  0  0  0  0
  152.3472  137.8476  157.8002 H   0  0  0  0  0  0  0  0  0  0  0  0
  149.8742  139.4351  157.0418 H   0  0  0  0  0  0  0  0  0  0  0  0
  152.1266  140.7810  156.0593 H   0  0  0  0  0  0  0  0  0  0  0  0
  152.6027  139.1057  155.9103 H   0  0  0  0  0  0  0  0  0  0  0  0
  150.2065  139.0667  155.0744 H   0  0  0  0  0  0  0  0  0  0  0  0
  150.4104  140.3270  159.2125 H   0  0  0  0  0  0  0  0  0  0  0  0
  151.4174  142.0397  156.9420 H   0  0  0  0  0  0  0  0  0  0  0  0
  150.0459  142.3129  158.0143 H   0  0  0  0  0  0  0  0  0  0  0  0
  152.7834  143.2120  158.3445 H   0  0  0  0  0  0  0  0  0  0  0  0
  151.4731  143.4404  159.5063 H   0  0  0  0  0  0  0  0  0  0  0  0
  152.6601  139.6514  159.8001 H   0  0  0  0  0  0  0  0  0  0  0  0
  153.3322  140.4136  158.3481 H   0  0  0  0  0  0  0  0  0  0  0  0
  144.5563  133.9359  155.7585 H   0  0  0  0  0  0  0  0  0  0  0  0
  145.4446  135.4188  155.6976 H   0  0  0  0  0  0  0  0  0  0  0  0
  145.3811  135.3601  153.1874 H   0  0  0  0  0  0  0  0  0  0  0  0
  143.5752  136.4404  154.6387 H   0  0  0  0  0  0  0  0  0  0  0  0
  142.5815  135.0142  154.3744 H   0  0  0  0  0  0  0  0  0  0  0  0
  143.0458  136.0600  153.0271 H   0  0  0  0  0  0  0  0  0  0  0  0
  143.7453  132.9763  153.5616 H   0  0  0  0  0  0  0  0  0  0  0  0
  1  2  1  0  0  0  0
  1 30  1  0  0  0  0
  1 31  1  0  0  0  0
  1 32  1  0  0  0  0
  2  3  1  0  0  0  0
  2 33  1  0  0  0  0
  2 34  1  0  0  0  0
  3 28  1  0  0  0  0
  3  4  1  0  0  0  0
  3 64  1  0  0  0  0
  4  5  1  0  0  0  0
  4 35  1  0  0  0  0
  4 36  1  0  0  0  0
  5  6  1  0  0  0  0
  5 37  1  0  0  0  0
  5 38  1  0  0  0  0
  6  7  1  0  0  0  0
  6 27  1  0  0  0  0
  6 39  1  0  0  0  0
  7  8  1  0  0  0  0
  7  9  1  0  0  0  0
  8 40  1  0  0  0  0
  8 41  1  0  0  0  0
  8 42  1  0  0  0  0
  9 14  1  0  0  0  0
  9 10  2  0  0  0  0
 10 11  1  0  0  0  0
 11 12  2  0  0  0  0
 11 43  1  0  0  0  0
 12 13  1  0  0  0  0
 13 17  1  0  0  0  0
 13 14  2  0  0  0  0
 14 15  1  0  0  0  0
 15 16  2  0  0  0  0
 16 17  1  0  0  0  0
 16 44  1  0  0  0  0
 17 18  1  0  0  0  0
 18 19  1  0  0  0  0
 18 45  1  0  0  0  0
 18 46  1  0  0  0  0
 19 20  1  0  0  0  0
 19 22  1  0  0  0  0
 19 47  1  0  0  0  0
 20 21  1  0  0  0  0
 20 48  1  0  0  0  0
 20 49  1  0  0  0  0
 21 50  1  0  0  0  0
 22 26  1  0  0  0  0
 22 23  1  0  0  0  0
 22 51  1  0  0  0  0
 23 24  1  0  0  0  0
 23 52  1  0  0  0  0
 23 53  1  0  0  0  0
 24 25  1  0  0  0  0
 24 54  1  0  0  0  0
 24 55  1  0  0  0  0
 25 26  1  0  0  0  0
 26 56  1  0  0  0  0
 26 57  1  0  0  0  0
 27 28  1  0  0  0  0
 27 58  1  0  0  0  0
 27 59  1  0  0  0  0
 28 29  1  0  0  0  0
 28 60  1  0  0  0  0
 29 61  1  0  0  0  0
 29 62  1  0  0  0  0
 29 63  1  0  0  0  0
M  CHG  1   3   1
M  END
> <s_m_source_file>
AV-unprocessed.smi

> <i_m_source_file_index>
249

> <i_lp_mmshare_version>
43012

> <i_f3d_flags>
0

> <s_epik_input>
W0NIM11bQ0gyXU4xW0NIMl1bQ0gyXVtDQEhdKFtDSDJdW0NASF0xW0NIM10pTihbQ0gzXSljKG5bY0hdbjIpYyhjMjMpbltjSF1uM1tDSDJdW0NASF0oW0NIMl1bT0hdKVtDQEBIXTRbQ0gyXVtDSDJdT1tDSDJdNA==

> <s_epik_cmdline>
J2VwaWtfcHl0aG9uJywgJy1waCcsICc3LjAnLCAnLXRuJywgJzgnLCAnLW1hJywgJzIwMCcsICctbWV0YWxfYmluZGluZycsICctaW1hZScsICc8aW5maWxlLm1hZT4nLCAnLW9tYWUnLCAnPG91dGZpbGUubWFlPic=

> <r_lp_tautomer_probability>
1

> <r_epik_Ionization_Penalty>
0.00294688

> <r_epik_Ionization_Penalty_Charging>
0.00169971

> <r_epik_Ionization_Penalty_Neutral>
0.00124717

> <r_epik_State_Penalty>
-0

> <r_epik_Charging_Adjusted_Penalty>
0.00169971

> <i_epik_Tot_Q>
1

> <i_epik_Tot_abs_Q>
1

> <r_epik_Metal_State_Penalty>
-0

> <b_epik_Metal_Only>
0

> <s_lp_Force_Field>
OPLS_2005

> <r_lp_Energy>
57.0606

> <b_lp_Chiralities_Consistent>
1

> <s_lp_Variant>
AV-unprocessed.smi:249-18

> <Gold.Version>
5.8.1

> <Gold.Id.Protein>
6NUR|6NUR_protein|mol2

> <Gold.PLP.Fitness>
38.5489

> <Gold.PLP.PLP>
-32.7497

> <Gold.PLP.part.hbond>
-1.9803

> <Gold.PLP.part.metal>
0.0000

> <Gold.PLP.part.buried>
-6.9177

> <Gold.PLP.part.nonpolar>
-24.0004

> <Gold.PLP.part.repulsive>
0.2592

> <Gold.PLP.ligand.clash>
0.0000

> <Gold.PLP.ligand.torsion>
1.8983

> <Gold.PLP.Chemscore.Hbond>
3.0000

> <Gold.PLP.Chemscore.CHOScore>
0.0000

> <Gold.PLP.Chemscore.Metal>
0.0000

> <Gold.Chemscore.Hbonds>
donor molecule, donor type, donor heavy atom, donor atom, acceptor molecule, acceptor atom, score
      L1  H     3    64       P1 10957  2.00
      P1  H  7989  7998       L1    21  1.00

> <Gold.PLP.Chemscore.Internal.Correction>
0.5960

> <Gold.Rescore>
     Score         DG    S(hbond)    S(metal)    S(lipo)     H(rot)  DE(clash)    DE(int)     intcor
      8.43     -14.09       1.95        0.00      81.25       2.90       0.07       5.59       ----

> <Gold.Chemscore.Fitness>
8.4285

> <Gold.Chemscore.DG>
-14.0877

> <Gold.Chemscore.ZeroCoef>
-5.4800

> <Gold.Chemscore.Hbond>
1.9542

> <Gold.Chemscore.Metal>
0.0000

> <Gold.Chemscore.Lipo>
81.2494

> <Gold.Chemscore.Internal_Hbond>
0.0000

> <Gold.Chemscore.DEClash>
0.0710

> <Gold.Chemscore.DEInternal>
5.5882

> <Gold.Chemscore.Rot>
2.9006

> <Gold.Chemscore.Internal.Correction>
   9.000000E+99

> <Gold.Chemscore.Hbonds>
donor molecule, donor type, donor heavy atom, donor atom, acceptor molecule, acceptor atom, score
      L1  H     3    64       P1 10957  0.80
      P1  H  7989  7998       L1    21  0.64

> <Gold.Chemscore.Hbond.Weighted>
-6.5272

> <Gold.Chemscore.Metal.Weighted>
-0.0000

> <Gold.Chemscore.Lipo.Weighted>
-9.5062

> <Gold.Chemscore.Internal_Hbond.Weighted>
0.0000

> <Gold.Chemscore.DEClash.Weighted>
0.0710

> <Gold.Chemscore.DEInternal.Weighted>
5.5882

> <Gold.Chemscore.Rot.Weighted>
7.4256

> <Gold.Chemscore.Internal.Correction.Weighted>
   9.000000E+99

> <Gold.Protein.RotatedTorsions>
[ 6907 6896 6895 6894 ] final  -35.63 input  -60.11 | X-H torsion
[ 7974 7965 7964 7962 ] final   -1.96 input  175.53 | X-H torsion
[ 8008 7997 7996 7995 ] final  -99.54 input   59.86 | X-H torsion
[ 10167 10162 10161 10158 ] final -102.21 input  -65.29 | X-H torsion
[ 10718 10713 10712 10709 ] final  174.65 input   66.30 | X-H torsion
[ 10763 10752 10751 10750 ] final -139.77 input  -60.55 | X-H torsion
[ 11005 11000 10999 10996 ] final  -20.96 input  -57.11 | X-H torsion

> <Gold.Protein.ActiveResidues>
 VAL166  LYS551  ARG553  GLY616  TRP617  ASP618  TYR619  PRO620  LYS621  CYS622 
 ASP623  PHE694  ASN695  SER759  ASP760  ASP761  ALA762  ILE779  LEU786  VAL792 
 PHE793  MET794  SER795  GLU796  ALA797  LYS798  CYS799  TRP800  GLU811  SER814 

> <Gold.Protein.RotatedAtoms>
  151.0374  134.9582  159.8143 H   0  0  0  0  0  0  0  0  0  0  0  0  # atno 6907 bound_to 6896
  152.5357  134.2702  159.8978 H   0  0  0  0  0  0  0  0  0  0  0  0  # atno 6908 bound_to 6896
  151.2713  133.4211  159.2655 H   0  0  0  0  0  0  0  0  0  0  0  0  # atno 6909 bound_to 6896
  146.2410  140.1499  142.8334 H   0  0  0  0  0  0  0  0  0  0  0  0  # atno 7974 bound_to 7965
  154.8162  140.0447  157.1378 H   0  0  0  0  0  0  0  0  0  0  0  0  # atno 8008 bound_to 7997
  154.9312  140.3040  155.5147 H   0  0  0  0  0  0  0  0  0  0  0  0  # atno 8009 bound_to 7997
  156.2976  140.2323  156.4372 H   0  0  0  0  0  0  0  0  0  0  0  0  # atno 8010 bound_to 7997
  140.2331  143.3592  152.0869 H   0  0  0  0  0  0  0  0  0  0  0  0  # atno 10167 bound_to 10162
  156.9465  131.0018  151.2957 H   0  0  0  0  0  0  0  0  0  0  0  0  # atno 10718 bound_to 10713
  154.8599  135.3572  154.5601 H   0  0  0  0  0  0  0  0  0  0  0  0  # atno 10763 bound_to 10752
  153.6216  135.7005  153.5313 H   0  0  0  0  0  0  0  0  0  0  0  0  # atno 10764 bound_to 10752
  153.3124  135.4175  155.1307 H   0  0  0  0  0  0  0  0  0  0  0  0  # atno 10765 bound_to 10752
  140.8515  133.7853  155.9971 H   0  0  0  0  0  0  0  0  0  0  0  0  # atno 11005 bound_to 11000
  145.0176  140.8767  143.5186 LP  0  0  0  0  0  0  0  0  0  0  0  0  # atno 17320 bound_to 7965
  145.1543  139.2496  143.5425 LP  0  0  0  0  0  0  0  0  0  0  0  0  # atno 17321 bound_to 7965
  139.5103  144.6882  151.5831 LP  0  0  0  0  0  0  0  0  0  0  0  0  # atno 17342 bound_to 10162
  140.6170  143.9329  150.6496 LP  0  0  0  0  0  0  0  0  0  0  0  0  # atno 17343 bound_to 10162
  157.5750  130.8337  149.8443 LP  0  0  0  0  0  0  0  0  0  0  0  0  # atno 17370 bound_to 10713
  156.0381  130.3746  150.1506 LP  0  0  0  0  0  0  0  0  0  0  0  0  # atno 17371 bound_to 10713
  140.8785  134.2640  157.5156 LP  0  0  0  0  0  0  0  0  0  0  0  0  # atno 17394 bound_to 11000
  139.8704  134.9603  156.4360 LP  0  0  0  0  0  0  0  0  0  0  0  0  # atno 17395 bound_to 11000

$$$$
