AV-unprocessed.smi:2391|AV-procd|sdf|9486|dock5
  -GOLD-   2272013113D 1   1.00000     0.00000
 Structure written by MMmdl.
 34 35  0  0  0  0  0  0  0  0  2 V2000
  153.0853  139.0686  155.2155 O   0  0  0  0  0  0  0  0  0  0  0  0
  151.9060  139.1363  155.5685 C   0  0  0  0  0  0  0  0  0  0  0  0
  150.8385  138.6577  154.8878 N   0  5  0  0  0  0  0  0  0  0  0  0
  149.8082  139.4632  154.5885 C   0  0  0  0  0  0  0  0  0  0  0  0
  148.5365  138.9197  154.2991 C   0  0  0  0  0  0  0  0  0  0  0  0
  147.4893  139.8000  153.9791 C   0  0  0  0  0  0  0  0  0  0  0  0
  147.7868  141.1729  153.9645 C   0  0  0  0  0  0  0  0  0  0  0  0
  149.0191  141.6506  154.2410 N   0  0  0  0  0  0  0  0  0  0  0  0
  150.0101  140.8047  154.5443 N   0  0  0  0  0  0  0  0  0  0  0  0
  151.5801  139.7373  156.7223 N   0  0  0  0  0  0  0  0  0  0  0  0
  152.4965  140.3547  157.6847 C   0  0  1  0  0  0  0  0  0  0  0  0
  151.8138  141.5854  158.3378 C   0  0  0  0  0  0  0  0  0  0  0  0
  151.1697  142.5576  157.3408 C   0  0  0  0  0  0  0  0  0  0  0  0
  150.9604  143.8520  158.1291 C   0  0  0  0  0  0  0  0  0  0  0  0
  152.0342  143.8568  159.2253 C   0  0  0  0  0  0  0  0  0  0  0  0
  152.7495  142.5027  159.1362 C   0  0  0  0  0  0  0  0  0  0  0  0
  152.9451  139.2780  158.6992 C   0  0  0  0  0  0  0  0  0  0  0  0
  153.4599  138.2316  158.0520 F   0  0  0  0  0  0  0  0  0  0  0  0
  153.8871  139.7515  159.5139 F   0  0  0  0  0  0  0  0  0  0  0  0
  151.9117  138.8605  159.4317 F   0  0  0  0  0  0  0  0  0  0  0  0
  148.3676  137.8530  154.3251 H   0  0  0  0  0  0  0  0  0  0  0  0
  146.4978  139.4367  153.7535 H   0  0  0  0  0  0  0  0  0  0  0  0
  147.0258  141.9010  153.7257 H   0  0  0  0  0  0  0  0  0  0  0  0
  150.5998  139.7612  156.9616 H   0  0  0  0  0  0  0  0  0  0  0  0
  153.3930  140.6994  157.1668 H   0  0  0  0  0  0  0  0  0  0  0  0
  151.0293  141.2360  159.0112 H   0  0  0  0  0  0  0  0  0  0  0  0
  151.8523  142.7429  156.5101 H   0  0  0  0  0  0  0  0  0  0  0  0
  150.2374  142.1770  156.9221 H   0  0  0  0  0  0  0  0  0  0  0  0
  151.0200  144.7315  157.4875 H   0  0  0  0  0  0  0  0  0  0  0  0
  149.9710  143.8479  158.5876 H   0  0  0  0  0  0  0  0  0  0  0  0
  152.7385  144.6790  159.0952 H   0  0  0  0  0  0  0  0  0  0  0  0
  151.5668  143.9797  160.2030 H   0  0  0  0  0  0  0  0  0  0  0  0
  152.9822  142.1045  160.1241 H   0  0  0  0  0  0  0  0  0  0  0  0
  153.6915  142.6276  158.6004 H   0  0  0  0  0  0  0  0  0  0  0  0
  1  2  2  0  0  0  0
  2  3  1  0  0  0  0
  2 10  1  0  0  0  0
  3  4  1  0  0  0  0
  4  9  1  0  0  0  0
  4  5  2  0  0  0  0
  5  6  1  0  0  0  0
  5 21  1  0  0  0  0
  6  7  2  0  0  0  0
  6 22  1  0  0  0  0
  7  8  1  0  0  0  0
  7 23  1  0  0  0  0
  8  9  2  0  0  0  0
 10 11  1  0  0  0  0
 10 24  1  0  0  0  0
 11 12  1  0  0  0  0
 11 17  1  0  0  0  0
 11 25  1  0  0  0  0
 12 16  1  0  0  0  0
 12 13  1  0  0  0  0
 12 26  1  0  0  0  0
 13 14  1  0  0  0  0
 13 27  1  0  0  0  0
 13 28  1  0  0  0  0
 14 15  1  0  0  0  0
 14 29  1  0  0  0  0
 14 30  1  0  0  0  0
 15 16  1  0  0  0  0
 15 31  1  0  0  0  0
 15 32  1  0  0  0  0
 16 33  1  0  0  0  0
 16 34  1  0  0  0  0
 17 18  1  0  0  0  0
 17 19  1  0  0  0  0
 17 20  1  0  0  0  0
M  CHG  1   3  -1
M  END
> <s_m_source_file>
AV-unprocessed.smi

> <i_m_source_file_index>
2391

> <i_lp_mmshare_version>
43012

> <i_f3d_flags>
0

> <s_epik_input>
W0NIMl0xW0NIMl1bQ0gyXVtDSDJdW0NIXTFbQ0BIXShDKEYpKEYpRilbTkhdQyg9TylbTkhdYzJbY0hdW2NIXVtjSF1ubjI=

> <s_epik_cmdline>
J2VwaWtfcHl0aG9uJywgJy1waCcsICc3LjAnLCAnLXRuJywgJzgnLCAnLW1hJywgJzIwMCcsICctbWV0YWxfYmluZGluZycsICctaW1hZScsICc8aW5maWxlLm1hZT4nLCAnLW9tYWUnLCAnPG91dGZpbGUubWFlPic=

> <r_lp_tautomer_probability>
1

> <r_epik_Ionization_Penalty>
8.90766

> <r_epik_Ionization_Penalty_Charging>
5.82661

> <r_epik_Ionization_Penalty_Neutral>
3.08106

> <r_epik_State_Penalty>
5.83894

> <r_epik_Charging_Adjusted_Penalty>
11.6655

> <i_epik_Tot_Q>
-1

> <i_epik_Tot_abs_Q>
1

> <r_epik_Metal_State_Penalty>
1.80768

> <b_epik_Metal_Only>
1

> <s_lp_Force_Field>
OPLS_2005

> <r_lp_Energy>
28.2955

> <b_lp_Chiralities_Consistent>
1

> <s_lp_Variant>
AV-unprocessed.smi:2391-6

> <Gold.Version>
5.8.1

> <Gold.Id.Protein>
6NUR|6NUR_protein|mol2

> <Gold.PLP.Fitness>
41.0812

> <Gold.PLP.PLP>
-36.0708

> <Gold.PLP.part.hbond>
-3.6840

> <Gold.PLP.part.metal>
0.0000

> <Gold.PLP.part.buried>
-3.1850

> <Gold.PLP.part.nonpolar>
-29.5744

> <Gold.PLP.part.repulsive>
0.5660

> <Gold.PLP.ligand.clash>
0.0000

> <Gold.PLP.ligand.torsion>
1.1139

> <Gold.PLP.Chemscore.Hbond>
2.2800

> <Gold.PLP.Chemscore.CHOScore>
0.0000

> <Gold.PLP.Chemscore.Metal>
0.0000

> <Gold.Chemscore.Hbonds>
donor molecule, donor type, donor heavy atom, donor atom, acceptor molecule, acceptor atom, score
      P1  H  7989  7998       L1     9  0.72
      P1  H  7997  8009       L1     1  1.00
      P1  H  8011  8017       L1     8  0.32

> <Gold.PLP.Chemscore.Internal.Correction>
0.3983

> <Gold.Rescore>
     Score         DG    S(hbond)    S(metal)    S(lipo)     H(rot)  DE(clash)    DE(int)     intcor
     15.95     -18.81       2.10        0.00      82.99       1.32       0.50       2.37       ----

> <Gold.Chemscore.Fitness>
15.9479

> <Gold.Chemscore.DG>
-18.8140

> <Gold.Chemscore.ZeroCoef>
-5.4800

> <Gold.Chemscore.Hbond>
2.0952

> <Gold.Chemscore.Metal>
0.0000

> <Gold.Chemscore.Lipo>
82.9904

> <Gold.Chemscore.Internal_Hbond>
0.0000

> <Gold.Chemscore.DEClash>
0.4980

> <Gold.Chemscore.DEInternal>
2.3682

> <Gold.Chemscore.Rot>
1.3179

> <Gold.Chemscore.Internal.Correction>
   9.000000E+99

> <Gold.Chemscore.Hbonds>
donor molecule, donor type, donor heavy atom, donor atom, acceptor molecule, acceptor atom, score
      P1  H  7989  7998       L1     9  0.20
      P1  H  7997  8009       L1     1  0.96
      P1  H  8011  8017       L1     8  0.04

> <Gold.Chemscore.Hbond.Weighted>
-6.9979

> <Gold.Chemscore.Metal.Weighted>
-0.0000

> <Gold.Chemscore.Lipo.Weighted>
-9.7099

> <Gold.Chemscore.Internal_Hbond.Weighted>
0.0000

> <Gold.Chemscore.DEClash.Weighted>
0.4980

> <Gold.Chemscore.DEInternal.Weighted>
2.3682

> <Gold.Chemscore.Rot.Weighted>
3.3737

> <Gold.Chemscore.Internal.Correction.Weighted>
   9.000000E+99

> <Gold.Protein.RotatedTorsions>
[ 6907 6896 6895 6894 ] final -109.36 input  -60.11 | X-H torsion
[ 7974 7965 7964 7962 ] final  -33.40 input  175.53 | X-H torsion
[ 8008 7997 7996 7995 ] final -150.44 input   59.86 | X-H torsion
[ 10167 10162 10161 10158 ] final  146.80 input  -65.29 | X-H torsion
[ 10718 10713 10712 10709 ] final -144.01 input   66.30 | X-H torsion
[ 10763 10752 10751 10750 ] final -178.23 input  -60.55 | X-H torsion
[ 11005 11000 10999 10996 ] final  179.95 input  -57.11 | X-H torsion

> <Gold.Protein.ActiveResidues>
 VAL166  LYS551  ARG553  GLY616  TRP617  ASP618  TYR619  PRO620  LYS621  CYS622 
 ASP623  PHE694  ASN695  SER759  ASP760  ASP761  ALA762  ILE779  LEU786  VAL792 
 PHE793  MET794  SER795  GLU796  ALA797  LYS798  CYS799  TRP800  GLU811  SER814 

> <Gold.Protein.RotatedAtoms>
  150.7557  133.9540  159.3494 H   0  0  0  0  0  0  0  0  0  0  0  0  # atno 6907 bound_to 6896
  151.7460  135.0841  160.0332 H   0  0  0  0  0  0  0  0  0  0  0  0  # atno 6908 bound_to 6896
  152.3497  133.6128  159.5972 H   0  0  0  0  0  0  0  0  0  0  0  0  # atno 6909 bound_to 6896
  146.0914  140.5911  142.8863 H   0  0  0  0  0  0  0  0  0  0  0  0  # atno 7974 bound_to 7965
  155.6237  140.0684  157.2670 H   0  0  0  0  0  0  0  0  0  0  0  0  # atno 8008 bound_to 7997
  154.4223  140.1780  156.1447 H   0  0  0  0  0  0  0  0  0  0  0  0  # atno 8009 bound_to 7997
  155.9989  140.3338  155.6829 H   0  0  0  0  0  0  0  0  0  0  0  0  # atno 8010 bound_to 7997
  139.4901  144.5802  151.6886 H   0  0  0  0  0  0  0  0  0  0  0  0  # atno 10167 bound_to 10162
  156.3649  130.7758  151.1930 H   0  0  0  0  0  0  0  0  0  0  0  0  # atno 10718 bound_to 10713
  154.5502  135.2812  155.1015 H   0  0  0  0  0  0  0  0  0  0  0  0  # atno 10763 bound_to 10752
  154.2464  135.6347  153.5228 H   0  0  0  0  0  0  0  0  0  0  0  0  # atno 10764 bound_to 10752
  153.0001  135.5572  154.6066 H   0  0  0  0  0  0  0  0  0  0  0  0  # atno 10765 bound_to 10752
  140.4118  134.6685  157.4618 H   0  0  0  0  0  0  0  0  0  0  0  0  # atno 11005 bound_to 11000
  144.7363  140.4817  143.6901 LP  0  0  0  0  0  0  0  0  0  0  0  0  # atno 17320 bound_to 7965
  145.6032  139.1506  143.3117 LP  0  0  0  0  0  0  0  0  0  0  0  0  # atno 17321 bound_to 7965
  140.5407  144.0583  150.6087 LP  0  0  0  0  0  0  0  0  0  0  0  0  # atno 17342 bound_to 10162
  140.3605  143.2911  152.0389 LP  0  0  0  0  0  0  0  0  0  0  0  0  # atno 17343 bound_to 10162
  157.7478  131.0389  150.4525 LP  0  0  0  0  0  0  0  0  0  0  0  0  # atno 17370 bound_to 10713
  156.4742  130.4059  149.6500 LP  0  0  0  0  0  0  0  0  0  0  0  0  # atno 17371 bound_to 10713
  140.0262  134.6473  155.9169 LP  0  0  0  0  0  0  0  0  0  0  0  0  # atno 17394 bound_to 11000
  141.1818  133.6548  156.5052 LP  0  0  0  0  0  0  0  0  0  0  0  0  # atno 17395 bound_to 11000

$$$$
