AV-unprocessed.smi:35|AV-procd|sdf|248|dock10
  -GOLD-   2262016 13D 1   1.00000     0.00000
 Structure written by MMmdl.
 29 30  0  0  0  0  0  0  0  0  1 V2000
  151.5356  135.6987  155.4047 O   0  0  0  0  0  0  0  0  0  0  0  0
  150.5553  136.4042  155.1770 C   0  0  0  0  0  0  0  0  0  0  0  0
  149.2656  135.8726  155.2707 N   0  0  0  0  0  0  0  0  0  0  0  0
  148.0802  136.5729  155.0357 C   0  0  0  0  0  0  0  0  0  0  0  0
  146.9977  135.9958  155.1272 O   0  0  0  0  0  0  0  0  0  0  0  0
  148.1960  137.9370  154.6847 N   0  0  0  0  0  0  0  0  0  0  0  0
  146.9480  138.7505  154.4158 C   0  0  1  0  0  0  0  0  0  0  0  0
  147.0322  139.9406  155.1403 O   0  0  0  0  0  0  0  0  0  0  0  0
  146.5424  141.0107  154.3425 C   0  0  1  0  0  0  0  0  0  0  0  0
  147.0261  142.3699  154.8786 C   0  0  0  0  0  0  0  0  0  0  0  0
  148.4116  142.5193  154.6538 O   0  0  0  0  0  0  0  0  0  0  0  0
  146.9631  140.6292  152.9156 C   0  0  1  0  0  0  0  0  0  0  0  0
  148.3043  141.0096  152.6571 O   0  0  0  0  0  0  0  0  0  0  0  0
  146.7733  139.1139  152.9237 C   0  0  1  0  0  0  0  0  0  0  0  0
  147.6271  138.4332  152.0184 O   0  0  0  0  0  0  0  0  0  0  0  0
  149.4573  138.5057  154.5703 C   0  0  0  0  0  0  0  0  0  0  0  0
  150.5970  137.8116  154.7958 C   0  0  0  0  0  0  0  0  0  0  0  0
  152.2963  138.8052  154.5745 Br  0  0  0  0  0  0  0  0  0  0  0  0
  149.1854  134.8987  155.5250 H   0  0  0  0  0  0  0  0  0  0  0  0
  146.1037  138.1828  154.8104 H   0  0  0  0  0  0  0  0  0  0  0  0
  145.4529  140.9727  154.4058 H   0  0  0  0  0  0  0  0  0  0  0  0
  146.5089  143.1771  154.3592 H   0  0  0  0  0  0  0  0  0  0  0  0
  146.8075  142.4880  155.9399 H   0  0  0  0  0  0  0  0  0  0  0  0
  148.7302  143.2223  155.1993 H   0  0  0  0  0  0  0  0  0  0  0  0
  146.3289  141.1097  152.1698 H   0  0  0  0  0  0  0  0  0  0  0  0
  148.8011  140.2323  152.4531 H   0  0  0  0  0  0  0  0  0  0  0  0
  145.7404  138.8846  152.6583 H   0  0  0  0  0  0  0  0  0  0  0  0
  148.2718  139.0452  151.6975 H   0  0  0  0  0  0  0  0  0  0  0  0
  149.5452  139.5440  154.2873 H   0  0  0  0  0  0  0  0  0  0  0  0
  1  2  2  0  0  0  0
  2 17  1  0  0  0  0
  2  3  1  0  0  0  0
  3 19  1  0  0  0  0
  3  4  1  0  0  0  0
  4  5  2  0  0  0  0
  4  6  1  0  0  0  0
  6  7  1  0  0  0  0
  6 16  1  0  0  0  0
  7 14  1  0  0  0  0
  7  8  1  0  0  0  0
  7 20  1  0  0  0  0
  8  9  1  0  0  0  0
  9 10  1  0  0  0  0
  9 12  1  0  0  0  0
  9 21  1  0  0  0  0
 10 11  1  0  0  0  0
 10 22  1  0  0  0  0
 10 23  1  0  0  0  0
 11 24  1  0  0  0  0
 12 13  1  0  0  0  0
 12 14  1  0  0  0  0
 12 25  1  0  0  0  0
 13 26  1  0  0  0  0
 14 15  1  0  0  0  0
 14 27  1  0  0  0  0
 15 28  1  0  0  0  0
 16 17  2  0  0  0  0
 16 29  1  0  0  0  0
 17 18  1  0  0  0  0
M  END
> <s_m_source_file>
AV-unprocessed.smi

> <i_m_source_file_index>
35

> <i_lp_mmshare_version>
43012

> <i_f3d_flags>
0

> <s_epik_input>
Tz1jMVtuSF1jKD1PKW4oW2NIXWMxQnIpW0NAQEhdMk9bQ0BASF0oW0NIMl1bT0hdKVtDQEBIXShbT0hdKVtDQEhdMltPSF0=

> <s_epik_cmdline>
J2VwaWtfcHl0aG9uJywgJy1waCcsICc3LjAnLCAnLXRuJywgJzgnLCAnLW1hJywgJzIwMCcsICctbWV0YWxfYmluZGluZycsICctaW1hZScsICc8aW5maWxlLm1hZT4nLCAnLW9tYWUnLCAnPG91dGZpbGUubWFlPic=

> <r_lp_tautomer_probability>
0.999537

> <r_epik_Ionization_Penalty>
0.10812

> <r_epik_Ionization_Penalty_Charging>
0.108119

> <r_epik_Ionization_Penalty_Neutral>
4.93006e-07

> <r_epik_State_Penalty>
0.0979238

> <r_epik_Charging_Adjusted_Penalty>
0.206043

> <i_epik_Tot_Q>
0

> <i_epik_Tot_abs_Q>
0

> <r_epik_Metal_State_Penalty>
3.07911

> <b_epik_Metal_Only>
0

> <s_epik_Chemistry_Notes>
This compound contains an acetal/aminal-like group ( X-CH(R)-Y where X, Y are N, S, or O) that may be acid/base labile, releasing an aldehyde.

> <s_lp_Force_Field>
OPLS_2005

> <r_lp_Energy>
38.9756

> <b_lp_Chiralities_Consistent>
1

> <s_lp_Variant>
AV-unprocessed.smi:35-2

> <Gold.Version>
5.8.1

> <Gold.Id.Protein>
6NUR|6NUR_protein|mol2

> <Gold.PLP.Fitness>
35.6434

> <Gold.PLP.PLP>
-22.9255

> <Gold.PLP.part.hbond>
-5.2639

> <Gold.PLP.part.metal>
0.0000

> <Gold.PLP.part.buried>
-0.4288

> <Gold.PLP.part.nonpolar>
-17.7787

> <Gold.PLP.part.repulsive>
0.1967

> <Gold.PLP.ligand.clash>
0.0000

> <Gold.PLP.ligand.torsion>
0.2600

> <Gold.PLP.Chemscore.Hbond>
4.4080

> <Gold.PLP.Chemscore.CHOScore>
0.0000

> <Gold.PLP.Chemscore.Metal>
0.0000

> <Gold.Chemscore.Hbonds>
donor molecule, donor type, donor heavy atom, donor atom, acceptor molecule, acceptor atom, score
      L1  H    11    24       P1  8028  1.00
      L1  H    13    26       P1  7957  0.46
      L1  H    15    28       P1  7957  1.00
      P1  H  8011  8017       L1    13  0.83
      P1  H 10752 10765       L1     1  1.00

> <Gold.PLP.Chemscore.Internal.Correction>
0.0139

> <Gold.Rescore>
     Score         DG    S(hbond)    S(metal)    S(lipo)     H(rot)  DE(clash)    DE(int)     intcor
     11.90     -12.49       3.43        0.00      42.28       3.67       0.15       0.44       ----

> <Gold.Chemscore.Fitness>
11.9047

> <Gold.Chemscore.DG>
-12.4890

> <Gold.Chemscore.ZeroCoef>
-5.4800

> <Gold.Chemscore.Hbond>
3.4303

> <Gold.Chemscore.Metal>
0.0000

> <Gold.Chemscore.Lipo>
42.2834

> <Gold.Chemscore.Internal_Hbond>
0.0000

> <Gold.Chemscore.DEClash>
0.1453

> <Gold.Chemscore.DEInternal>
0.4389

> <Gold.Chemscore.Rot>
3.6701

> <Gold.Chemscore.Internal.Correction>
   9.000000E+99

> <Gold.Chemscore.Hbonds>
donor molecule, donor type, donor heavy atom, donor atom, acceptor molecule, acceptor atom, score
      L1  H    11    24       P1  8028  0.94
      L1  H    13    26       P1  7957  0.43
      L1  H    15    28       P1  7957  0.91
      P1  H  8011  8017       L1    13  0.17
      P1  H 10752 10765       L1     1  0.98

> <Gold.Chemscore.Hbond.Weighted>
-11.4573

> <Gold.Chemscore.Metal.Weighted>
-0.0000

> <Gold.Chemscore.Lipo.Weighted>
-4.9472

> <Gold.Chemscore.Internal_Hbond.Weighted>
0.0000

> <Gold.Chemscore.DEClash.Weighted>
0.1453

> <Gold.Chemscore.DEInternal.Weighted>
0.4389

> <Gold.Chemscore.Rot.Weighted>
9.3955

> <Gold.Chemscore.Internal.Correction.Weighted>
   9.000000E+99

> <Gold.Protein.RotatedTorsions>
[ 6907 6896 6895 6894 ] final  -48.35 input  -60.11 | X-H torsion
[ 7974 7965 7964 7962 ] final  172.64 input  175.53 | X-H torsion
[ 8008 7997 7996 7995 ] final   15.47 input   59.86 | X-H torsion
[ 10167 10162 10161 10158 ] final -125.28 input  -65.29 | X-H torsion
[ 10718 10713 10712 10709 ] final   11.90 input   66.30 | X-H torsion
[ 10763 10752 10751 10750 ] final -176.06 input  -60.55 | X-H torsion
[ 11005 11000 10999 10996 ] final  -29.47 input  -57.11 | X-H torsion

> <Gold.Protein.ActiveResidues>
 VAL166  LYS551  ARG553  GLY616  TRP617  ASP618  TYR619  PRO620  LYS621  CYS622 
 ASP623  PHE694  ASN695  SER759  ASP760  ASP761  ALA762  ILE779  LEU786  VAL792 
 PHE793  MET794  SER795  GLU796  ALA797  LYS798  CYS799  TRP800  GLU811  SER814 

> <Gold.Protein.RotatedAtoms>
  150.8914  134.8318  159.7295 H   0  0  0  0  0  0  0  0  0  0  0  0  # atno 6907 bound_to 6896
  152.4839  134.4642  159.9625 H   0  0  0  0  0  0  0  0  0  0  0  0  # atno 6908 bound_to 6896
  151.4704  133.3531  159.2858 H   0  0  0  0  0  0  0  0  0  0  0  0  # atno 6909 bound_to 6896
  144.7263  139.9529  143.6432 H   0  0  0  0  0  0  0  0  0  0  0  0  # atno 7974 bound_to 7965
  154.8631  140.2947  155.5527 H   0  0  0  0  0  0  0  0  0  0  0  0  # atno 8008 bound_to 7997
  156.3020  140.2474  156.3541 H   0  0  0  0  0  0  0  0  0  0  0  0  # atno 8009 bound_to 7997
  154.8897  140.0395  157.1820 H   0  0  0  0  0  0  0  0  0  0  0  0  # atno 8010 bound_to 7997
  139.9838  143.5714  152.2368 H   0  0  0  0  0  0  0  0  0  0  0  0  # atno 10167 bound_to 10162
  157.0023  130.6084  149.5698 H   0  0  0  0  0  0  0  0  0  0  0  0  # atno 10718 bound_to 10713
  154.5769  135.2833  155.0772 H   0  0  0  0  0  0  0  0  0  0  0  0  # atno 10763 bound_to 10752
  154.2123  135.6406  153.5123 H   0  0  0  0  0  0  0  0  0  0  0  0  # atno 10764 bound_to 10752
  153.0075  135.5494  154.6410 H   0  0  0  0  0  0  0  0  0  0  0  0  # atno 10765 bound_to 10752
  140.9299  133.7345  156.0921 H   0  0  0  0  0  0  0  0  0  0  0  0  # atno 11005 bound_to 11000
  146.0697  139.3686  143.0530 LP  0  0  0  0  0  0  0  0  0  0  0  0  # atno 17320 bound_to 7965
  145.7984  140.9782  143.1012 LP  0  0  0  0  0  0  0  0  0  0  0  0  # atno 17321 bound_to 7965
  139.6390  144.7653  151.2378 LP  0  0  0  0  0  0  0  0  0  0  0  0  # atno 17342 bound_to 10162
  140.7479  143.6349  150.8388 LP  0  0  0  0  0  0  0  0  0  0  0  0  # atno 17343 bound_to 10162
  156.0166  130.5261  150.8154 LP  0  0  0  0  0  0  0  0  0  0  0  0  # atno 17370 bound_to 10713
  157.5381  131.0939  150.9865 LP  0  0  0  0  0  0  0  0  0  0  0  0  # atno 17371 bound_to 10713
  140.7877  134.3653  157.5472 LP  0  0  0  0  0  0  0  0  0  0  0  0  # atno 17394 bound_to 11000
  139.8794  134.9121  156.3052 LP  0  0  0  0  0  0  0  0  0  0  0  0  # atno 17395 bound_to 11000

$$$$
