AV-unprocessed.smi:2171|AV-procd|sdf|8832|dock4
  -GOLD-   2272012 23D 1   1.00000     0.00000
 Structure written by MMmdl.
 39 41  0  0  0  0  0  0  0  0  2 V2000
  152.9588  139.5041  155.1988 O   0  0  0  0  0  0  0  0  0  0  0  0
  151.8190  139.4421  155.6606 C   0  0  0  0  0  0  0  0  0  0  0  0
  150.6755  138.8344  154.8421 C   0  0  0  0  0  0  0  0  0  0  0  0
  149.6012  139.7863  154.6155 N   0  0  0  0  0  0  0  0  0  0  0  0
  148.2413  139.5548  154.5906 C   0  0  0  0  0  0  0  0  0  0  0  0
  147.6295  140.7507  154.3461 C   0  0  0  0  0  0  0  0  0  0  0  0
  148.7121  141.6673  154.2342 C   0  0  0  0  0  0  0  0  0  0  0  0
  149.8906  141.0879  154.3978 N   0  0  0  0  0  0  0  0  0  0  0  0
  151.4981  139.9046  156.8788 N   0  0  0  0  0  0  0  0  0  0  0  0
  152.4401  140.5223  157.8086 C   0  0  2  0  0  0  0  0  0  0  0  0
  152.4480  139.8700  159.1851 C   0  0  0  0  0  0  0  0  0  0  0  0
  153.1087  140.9345  160.0676 C   0  0  0  0  0  0  0  0  0  0  0  0
  152.8456  142.2475  159.4281 N   0  3  2  0  0  0  0  0  0  0  0  0
  152.1869  143.2363  160.3237 C   0  0  0  0  0  0  0  0  0  0  0  0
  151.5828  144.3940  159.5153 C   0  0  0  0  0  0  0  0  0  0  0  0
  150.4895  143.8967  158.5506 C   0  0  0  0  0  0  0  0  0  0  0  0
  150.6662  142.4129  158.1742 C   0  0  0  0  0  0  0  0  0  0  0  0
  152.1594  142.0040  158.1272 C   0  0  2  0  0  0  0  0  0  0  0  0
  151.0400  138.4921  153.8723 H   0  0  0  0  0  0  0  0  0  0  0  0
  150.2837  137.9608  155.3651 H   0  0  0  0  0  0  0  0  0  0  0  0
  147.8273  138.5696  154.7472 H   0  0  0  0  0  0  0  0  0  0  0  0
  146.5701  140.9421  154.2605 H   0  0  0  0  0  0  0  0  0  0  0  0
  148.6771  142.7296  154.0417 H   0  0  0  0  0  0  0  0  0  0  0  0
  150.5388  139.8196  157.1832 H   0  0  0  0  0  0  0  0  0  0  0  0
  153.4478  140.4374  157.3961 H   0  0  0  0  0  0  0  0  0  0  0  0
  151.4270  139.6903  159.5256 H   0  0  0  0  0  0  0  0  0  0  0  0
  152.9807  138.9185  159.2024 H   0  0  0  0  0  0  0  0  0  0  0  0
  152.7529  140.8780  161.0972 H   0  0  0  0  0  0  0  0  0  0  0  0
  154.1885  140.7840  160.0898 H   0  0  0  0  0  0  0  0  0  0  0  0
  151.3962  142.7539  160.9011 H   0  0  0  0  0  0  0  0  0  0  0  0
  152.9193  143.6084  161.0407 H   0  0  0  0  0  0  0  0  0  0  0  0
  151.1745  145.1551  160.1809 H   0  0  0  0  0  0  0  0  0  0  0  0
  152.3767  144.8807  158.9471 H   0  0  0  0  0  0  0  0  0  0  0  0
  149.5042  144.0320  158.9982 H   0  0  0  0  0  0  0  0  0  0  0  0
  150.5004  144.5155  157.6524 H   0  0  0  0  0  0  0  0  0  0  0  0
  150.1457  141.7910  158.9038 H   0  0  0  0  0  0  0  0  0  0  0  0
  150.1762  142.2311  157.2177 H   0  0  0  0  0  0  0  0  0  0  0  0
  152.6445  142.6232  157.3711 H   0  0  0  0  0  0  0  0  0  0  0  0
  153.7492  142.6317  159.1910 H   0  0  0  0  0  0  0  0  0  0  0  0
  1  2  2  0  0  0  0
  2  3  1  0  0  0  0
  2  9  1  0  0  0  0
  3  4  1  0  0  0  0
  3 19  1  0  0  0  0
  3 20  1  0  0  0  0
  4  8  1  0  0  0  0
  4  5  1  0  0  0  0
  5  6  2  0  0  0  0
  5 21  1  0  0  0  0
  6  7  1  0  0  0  0
  6 22  1  0  0  0  0
  7  8  2  0  0  0  0
  7 23  1  0  0  0  0
  9 10  1  0  0  0  0
  9 24  1  0  0  0  0
 10 18  1  0  0  0  0
 10 11  1  0  0  0  0
 10 25  1  0  0  0  0
 11 12  1  0  0  0  0
 11 26  1  0  0  0  0
 11 27  1  0  0  0  0
 12 13  1  0  0  0  0
 12 28  1  0  0  0  0
 12 29  1  0  0  0  0
 13 18  1  0  0  0  0
 13 14  1  0  0  0  0
 13 39  1  0  0  0  0
 14 15  1  0  0  0  0
 14 30  1  0  0  0  0
 14 31  1  0  0  0  0
 15 16  1  0  0  0  0
 15 32  1  0  0  0  0
 15 33  1  0  0  0  0
 16 17  1  0  0  0  0
 16 34  1  0  0  0  0
 16 35  1  0  0  0  0
 17 18  1  0  0  0  0
 17 36  1  0  0  0  0
 17 37  1  0  0  0  0
 18 38  1  0  0  0  0
M  CHG  1  13   1
M  END
> <s_m_source_file>
AV-unprocessed.smi

> <i_m_source_file_index>
2171

> <i_lp_mmshare_version>
43012

> <i_f3d_flags>
0

> <s_epik_input>
bjFbY0hdW2NIXVtjSF1uMVtDSDJdQyg9TylbTkhdW0NASF0oW0NIMl1bQ0gyXTIpW0NAQEhdKE4yMylbQ0gyXVtDSDJdW0NIMl1bQ0gyXTM=

> <s_epik_cmdline>
J2VwaWtfcHl0aG9uJywgJy1waCcsICc3LjAnLCAnLXRuJywgJzgnLCAnLW1hJywgJzIwMCcsICctbWV0YWxfYmluZGluZycsICctaW1hZScsICc8aW5maWxlLm1hZT4nLCAnLW9tYWUnLCAnPG91dGZpbGUubWFlPic=

> <r_lp_tautomer_probability>
1

> <r_epik_Ionization_Penalty>
0.00204179

> <r_epik_Ionization_Penalty_Charging>
0.00203239

> <r_epik_Ionization_Penalty_Neutral>
9.40205e-06

> <r_epik_State_Penalty>
0.00138983

> <r_epik_Charging_Adjusted_Penalty>
0.00342221

> <i_epik_Tot_Q>
1

> <i_epik_Tot_abs_Q>
1

> <r_epik_Metal_State_Penalty>
-0

> <b_epik_Metal_Only>
0

> <s_lp_Force_Field>
OPLS_2005

> <r_lp_Energy>
41.0306

> <b_lp_Chiralities_Consistent>
1

> <s_lp_Variant>
AV-unprocessed.smi:2171-7

> <Gold.Version>
5.8.1

> <Gold.Id.Protein>
6NUR|6NUR_protein|mol2

> <Gold.PLP.Fitness>
42.1578

> <Gold.PLP.PLP>
-35.2933

> <Gold.PLP.part.hbond>
-2.7802

> <Gold.PLP.part.metal>
0.0000

> <Gold.PLP.part.buried>
-4.3375

> <Gold.PLP.part.nonpolar>
-27.8116

> <Gold.PLP.part.repulsive>
0.3113

> <Gold.PLP.ligand.clash>
0.0000

> <Gold.PLP.ligand.torsion>
0.3553

> <Gold.PLP.Chemscore.Hbond>
1.5234

> <Gold.PLP.Chemscore.CHOScore>
1.0000

> <Gold.PLP.Chemscore.Metal>
0.0000

> <Gold.Chemscore.Hbonds>
donor molecule, donor type, donor heavy atom, donor atom, acceptor molecule, acceptor atom, score
      P1  H  7989  7998       L1     8  0.53
      P1  H  7997  8009       L1     1  1.00
      L1  C     7    23       P1  8028  0.97

> <Gold.PLP.Chemscore.Internal.Correction>
0.0050

> <Gold.Rescore>
     Score         DG    S(hbond)    S(metal)    S(lipo)     H(rot)  DE(clash)    DE(int)     intcor
     18.48     -18.90       1.75        0.00      96.39       1.44       0.10       0.33       ----

> <Gold.Chemscore.Fitness>
18.4752

> <Gold.Chemscore.DG>
-18.9003

> <Gold.Chemscore.ZeroCoef>
-5.4800

> <Gold.Chemscore.Hbond>
1.7460

> <Gold.Chemscore.Metal>
0.0000

> <Gold.Chemscore.Lipo>
96.3911

> <Gold.Chemscore.Internal_Hbond>
0.0000

> <Gold.Chemscore.DEClash>
0.0998

> <Gold.Chemscore.DEInternal>
0.3253

> <Gold.Chemscore.Rot>
1.4410

> <Gold.Chemscore.Internal.Correction>
   9.000000E+99

> <Gold.Chemscore.Hbonds>
donor molecule, donor type, donor heavy atom, donor atom, acceptor molecule, acceptor atom, score
      P1  H  7989  7998       L1     8  0.14
      P1  H  7997  8009       L1     1  1.00

> <Gold.Chemscore.Hbond.Weighted>
-5.8315

> <Gold.Chemscore.Metal.Weighted>
-0.0000

> <Gold.Chemscore.Lipo.Weighted>
-11.2778

> <Gold.Chemscore.Internal_Hbond.Weighted>
0.0000

> <Gold.Chemscore.DEClash.Weighted>
0.0998

> <Gold.Chemscore.DEInternal.Weighted>
0.3253

> <Gold.Chemscore.Rot.Weighted>
3.6889

> <Gold.Chemscore.Internal.Correction.Weighted>
   9.000000E+99

> <Gold.Protein.RotatedTorsions>
[ 6907 6896 6895 6894 ] final  144.52 input  -60.11 | X-H torsion
[ 7974 7965 7964 7962 ] final   28.42 input  175.53 | X-H torsion
[ 8008 7997 7996 7995 ] final -131.86 input   59.86 | X-H torsion
[ 10167 10162 10161 10158 ] final  107.43 input  -65.29 | X-H torsion
[ 10718 10713 10712 10709 ] final  -34.54 input   66.30 | X-H torsion
[ 10763 10752 10751 10750 ] final  -13.82 input  -60.55 | X-H torsion
[ 11005 11000 10999 10996 ] final  -12.96 input  -57.11 | X-H torsion

> <Gold.Protein.ActiveResidues>
 VAL166  LYS551  ARG553  GLY616  TRP617  ASP618  TYR619  PRO620  LYS621  CYS622 
 ASP623  PHE694  ASN695  SER759  ASP760  ASP761  ALA762  ILE779  LEU786  VAL792 
 PHE793  MET794  SER795  GLU796  ALA797  LYS798  CYS799  TRP800  GLU811  SER814 

> <Gold.Protein.RotatedAtoms>
  152.1926  133.4783  159.5015 H   0  0  0  0  0  0  0  0  0  0  0  0  # atno 6907 bound_to 6896
  150.6954  134.1694  159.4215 H   0  0  0  0  0  0  0  0  0  0  0  0  # atno 6908 bound_to 6896
  151.9609  135.0124  160.0598 H   0  0  0  0  0  0  0  0  0  0  0  0  # atno 6909 bound_to 6896
  146.1729  139.7058  142.8954 H   0  0  0  0  0  0  0  0  0  0  0  0  # atno 7974 bound_to 7965
  155.3194  140.0461  157.3038 H   0  0  0  0  0  0  0  0  0  0  0  0  # atno 8008 bound_to 7997
  154.5389  140.2281  155.8642 H   0  0  0  0  0  0  0  0  0  0  0  0  # atno 8009 bound_to 7997
  156.1861  140.3062  155.9248 H   0  0  0  0  0  0  0  0  0  0  0  0  # atno 8010 bound_to 7997
  139.6927  144.7105  151.1320 H   0  0  0  0  0  0  0  0  0  0  0  0  # atno 10167 bound_to 10162
  156.3493  130.4306  149.7718 H   0  0  0  0  0  0  0  0  0  0  0  0  # atno 10718 bound_to 10713
  153.5191  135.7016  153.5741 H   0  0  0  0  0  0  0  0  0  0  0  0  # atno 10763 bound_to 10752
  153.3798  135.3923  155.1848 H   0  0  0  0  0  0  0  0  0  0  0  0  # atno 10764 bound_to 10752
  154.8696  135.3832  154.4678 H   0  0  0  0  0  0  0  0  0  0  0  0  # atno 10765 bound_to 10752
  140.7711  133.8438  155.9208 H   0  0  0  0  0  0  0  0  0  0  0  0  # atno 11005 bound_to 11000
  145.4290  141.0413  143.2921 LP  0  0  0  0  0  0  0  0  0  0  0  0  # atno 17320 bound_to 7965
  144.8191  139.5823  143.6995 LP  0  0  0  0  0  0  0  0  0  0  0  0  # atno 17321 bound_to 7965
  140.7687  143.5536  150.9177 LP  0  0  0  0  0  0  0  0  0  0  0  0  # atno 17342 bound_to 10162
  139.9214  143.6602  152.3096 LP  0  0  0  0  0  0  0  0  0  0  0  0  # atno 17343 bound_to 10162
  156.4924  130.8091  151.3100 LP  0  0  0  0  0  0  0  0  0  0  0  0  # atno 17370 bound_to 10713
  157.7459  130.9971  150.2803 LP  0  0  0  0  0  0  0  0  0  0  0  0  # atno 17371 bound_to 10713
  140.9573  134.1702  157.4682 LP  0  0  0  0  0  0  0  0  0  0  0  0  # atno 17394 bound_to 11000
  139.8755  134.9931  156.5630 LP  0  0  0  0  0  0  0  0  0  0  0  0  # atno 17395 bound_to 11000

$$$$
