AV-unprocessed.smi:3330|AV-procd|sdf|12806|dock2
  -GOLD-   2272019173D 1   1.00000     0.00000
 Structure written by MMmdl.
 38 39  0  0  0  0  0  0  0  0  1 V2000
  145.1609  134.1496  154.1027 C   0  0  0  0  0  0  0  0  0  0  0  0
  146.0126  135.0148  153.1480 C   0  0  1  0  0  0  0  0  0  0  0  0
  147.3475  134.4338  153.0522 N   0  0  0  0  0  0  0  0  0  0  0  0
  148.0017  134.3492  154.3508 C   0  0  0  0  0  0  0  0  0  0  0  0
  149.4024  133.7297  154.2003 C   0  0  0  0  0  0  0  0  0  0  0  0
  149.4038  132.2937  154.5034 N   0  0  0  0  0  0  0  0  0  0  0  0
  148.5259  131.4135  154.0036 C   0  0  0  0  0  0  0  0  0  0  0  0
  147.6043  131.6353  153.2187 O   0  0  0  0  0  0  0  0  0  0  0  0
  148.8405  130.0469  154.5722 C   0  0  0  0  0  0  0  0  0  0  0  0
  149.9744  130.3930  155.4018 N   0  0  0  0  0  0  0  0  0  0  0  0
  150.2717  131.6976  155.3417 C   0  0  0  0  0  0  0  0  0  0  0  0
  151.1859  132.2439  155.9574 O   0  0  0  0  0  0  0  0  0  0  0  0
  145.4206  135.1133  151.7161 C   0  0  2  0  0  0  0  0  0  0  0  0
  144.0967  135.9022  151.6785 C   0  0  0  0  0  0  0  0  0  0  0  0
  145.2393  133.8019  151.1046 N   0  0  0  0  0  0  0  0  0  0  0  0
  144.0628  133.2073  150.6963 C   0  0  0  0  0  0  0  0  0  0  0  0
  144.3807  131.9868  150.1734 C   0  0  0  0  0  0  0  0  0  0  0  0
  145.7955  131.9208  150.3060 C   0  0  0  0  0  0  0  0  0  0  0  0
  146.3068  133.0067  150.8625 N   0  0  0  0  0  0  0  0  0  0  0  0
  144.1689  134.5750  154.2522 H   0  0  0  0  0  0  0  0  0  0  0  0
  145.6114  134.0630  155.0907 H   0  0  0  0  0  0  0  0  0  0  0  0
  145.0325  133.1402  153.7101 H   0  0  0  0  0  0  0  0  0  0  0  0
  146.0857  136.0247  153.5544 H   0  0  0  0  0  0  0  0  0  0  0  0
  147.9159  135.0037  152.4418 H   0  0  0  0  0  0  0  0  0  0  0  0
  148.0928  135.3553  154.7616 H   0  0  0  0  0  0  0  0  0  0  0  0
  147.4074  133.7697  155.0566 H   0  0  0  0  0  0  0  0  0  0  0  0
  149.7975  133.9203  153.2007 H   0  0  0  0  0  0  0  0  0  0  0  0
  150.0901  134.2318  154.8827 H   0  0  0  0  0  0  0  0  0  0  0  0
  148.0127  129.6566  155.1649 H   0  0  0  0  0  0  0  0  0  0  0  0
  149.1145  129.3379  153.7904 H   0  0  0  0  0  0  0  0  0  0  0  0
  150.4731  129.7173  155.9625 H   0  0  0  0  0  0  0  0  0  0  0  0
  146.1381  135.6464  151.0897 H   0  0  0  0  0  0  0  0  0  0  0  0
  144.2338  136.9309  152.0117 H   0  0  0  0  0  0  0  0  0  0  0  0
  143.3402  135.4468  152.3184 H   0  0  0  0  0  0  0  0  0  0  0  0
  143.6949  135.9419  150.6656 H   0  0  0  0  0  0  0  0  0  0  0  0
  143.1072  133.6984  150.8082 H   0  0  0  0  0  0  0  0  0  0  0  0
  143.7055  131.2534  149.7582 H   0  0  0  0  0  0  0  0  0  0  0  0
  146.4618  131.1222  150.0153 H   0  0  0  0  0  0  0  0  0  0  0  0
  1  2  1  0  0  0  0
  1 20  1  0  0  0  0
  1 21  1  0  0  0  0
  1 22  1  0  0  0  0
  2  3  1  0  0  0  0
  2 13  1  0  0  0  0
  2 23  1  0  0  0  0
  3  4  1  0  0  0  0
  3 24  1  0  0  0  0
  4  5  1  0  0  0  0
  4 25  1  0  0  0  0
  4 26  1  0  0  0  0
  5  6  1  0  0  0  0
  5 27  1  0  0  0  0
  5 28  1  0  0  0  0
  6 11  1  0  0  0  0
  6  7  1  0  0  0  0
  7  8  2  0  0  0  0
  7  9  1  0  0  0  0
  9 10  1  0  0  0  0
  9 29  1  0  0  0  0
  9 30  1  0  0  0  0
 10 11  1  0  0  0  0
 10 31  1  0  0  0  0
 11 12  2  0  0  0  0
 13 14  1  0  0  0  0
 13 15  1  0  0  0  0
 13 32  1  0  0  0  0
 14 33  1  0  0  0  0
 14 34  1  0  0  0  0
 14 35  1  0  0  0  0
 15 19  1  0  0  0  0
 15 16  1  0  0  0  0
 16 17  2  0  0  0  0
 16 36  1  0  0  0  0
 17 18  1  0  0  0  0
 17 37  1  0  0  0  0
 18 19  2  0  0  0  0
 18 38  1  0  0  0  0
M  END
> <s_m_source_file>
AV-unprocessed.smi

> <i_m_source_file_index>
3330

> <i_lp_mmshare_version>
43012

> <i_f3d_flags>
0

> <s_epik_input>
bjFbY0hdW2NIXVtjSF1uMVtDQEBIXShbQ0gzXSlbQ0BIXShbQ0gzXSlbTkhdW0NIMl1bQ0gyXU4yQyg9TylbQ0gyXVtOSF1DMj1P

> <s_epik_cmdline>
J2VwaWtfcHl0aG9uJywgJy1waCcsICc3LjAnLCAnLXRuJywgJzgnLCAnLW1hJywgJzIwMCcsICctbWV0YWxfYmluZGluZycsICctaW1hZScsICc8aW5maWxlLm1hZT4nLCAnLW9tYWUnLCAnPG91dGZpbGUubWFlPic=

> <r_lp_tautomer_probability>
1

> <r_epik_Ionization_Penalty>
2.2997

> <r_epik_Ionization_Penalty_Charging>
0

> <r_epik_Ionization_Penalty_Neutral>
2.2997

> <r_epik_State_Penalty>
2.44917

> <r_epik_Charging_Adjusted_Penalty>
2.44917

> <i_epik_Tot_Q>
0

> <i_epik_Tot_abs_Q>
0

> <r_epik_Metal_State_Penalty>
2.52438

> <b_epik_Metal_Only>
0

> <s_lp_Force_Field>
OPLS_2005

> <r_lp_Energy>
29.8527

> <b_lp_Chiralities_Consistent>
1

> <s_lp_Variant>
AV-unprocessed.smi:3330-6

> <Gold.Version>
5.8.1

> <Gold.Id.Protein>
6NUR|6NUR_protein|mol2

> <Gold.PLP.Fitness>
41.0287

> <Gold.PLP.PLP>
-32.8147

> <Gold.PLP.part.hbond>
-1.0000

> <Gold.PLP.part.metal>
0.0000

> <Gold.PLP.part.buried>
-5.0973

> <Gold.PLP.part.nonpolar>
-26.6490

> <Gold.PLP.part.repulsive>
1.1418

> <Gold.PLP.ligand.clash>
0.0000

> <Gold.PLP.ligand.torsion>
0.4865

> <Gold.PLP.Chemscore.Hbond>
1.0000

> <Gold.PLP.Chemscore.CHOScore>
2.0000

> <Gold.PLP.Chemscore.Metal>
0.0000

> <Gold.Chemscore.Hbonds>
donor molecule, donor type, donor heavy atom, donor atom, acceptor molecule, acceptor atom, score
      L1  H     3    24       P1  7948  1.00
      L1  C    16    36       P1 10186  0.95
      L1  C    18    38       P1 10747  1.00

> <Gold.PLP.Chemscore.Internal.Correction>
0.1870

> <Gold.Rescore>
     Score         DG    S(hbond)    S(metal)    S(lipo)     H(rot)  DE(clash)    DE(int)     intcor
      4.10      -9.14       0.98        0.00      60.13       2.60       0.12       4.92       ----

> <Gold.Chemscore.Fitness>
4.0958

> <Gold.Chemscore.DG>
-9.1360

> <Gold.Chemscore.ZeroCoef>
-5.4800

> <Gold.Chemscore.Hbond>
0.9774

> <Gold.Chemscore.Metal>
0.0000

> <Gold.Chemscore.Lipo>
60.1290

> <Gold.Chemscore.Internal_Hbond>
0.0000

> <Gold.Chemscore.DEClash>
0.1232

> <Gold.Chemscore.DEInternal>
4.9169

> <Gold.Chemscore.Rot>
2.5952

> <Gold.Chemscore.Internal.Correction>
   9.000000E+99

> <Gold.Chemscore.Hbonds>
donor molecule, donor type, donor heavy atom, donor atom, acceptor molecule, acceptor atom, score
      L1  H     3    24       P1  7948  0.88

> <Gold.Chemscore.Hbond.Weighted>
-3.2646

> <Gold.Chemscore.Metal.Weighted>
-0.0000

> <Gold.Chemscore.Lipo.Weighted>
-7.0351

> <Gold.Chemscore.Internal_Hbond.Weighted>
0.0000

> <Gold.Chemscore.DEClash.Weighted>
0.1232

> <Gold.Chemscore.DEInternal.Weighted>
4.9169

> <Gold.Chemscore.Rot.Weighted>
6.6437

> <Gold.Chemscore.Internal.Correction.Weighted>
   9.000000E+99

> <Gold.Protein.RotatedTorsions>
[ 6907 6896 6895 6894 ] final    5.60 input  -60.11 | X-H torsion
[ 7974 7965 7964 7962 ] final   79.89 input  175.53 | X-H torsion
[ 8008 7997 7996 7995 ] final  -71.11 input   59.86 | X-H torsion
[ 10167 10162 10161 10158 ] final  149.76 input  -65.29 | X-H torsion
[ 10718 10713 10712 10709 ] final  -84.13 input   66.30 | X-H torsion
[ 10763 10752 10751 10750 ] final  115.60 input  -60.55 | X-H torsion
[ 11005 11000 10999 10996 ] final  -74.00 input  -57.11 | X-H torsion

> <Gold.Protein.ActiveResidues>
 VAL166  LYS551  ARG553  GLY616  TRP617  ASP618  TYR619  PRO620  LYS621  CYS622 
 ASP623  PHE694  ASN695  SER759  ASP760  ASP761  ALA762  ILE779  LEU786  VAL792 
 PHE793  MET794  SER795  GLU796  ALA797  LYS798  CYS799  TRP800  GLU811  SER814 

> <Gold.Protein.RotatedAtoms>
  151.6601  135.0990  160.0177 H   0  0  0  0  0  0  0  0  0  0  0  0  # atno 6907 bound_to 6896
  152.3952  133.6732  159.6278 H   0  0  0  0  0  0  0  0  0  0  0  0  # atno 6908 bound_to 6896
  150.7860  133.8804  159.3325 H   0  0  0  0  0  0  0  0  0  0  0  0  # atno 6909 bound_to 6896
  145.6583  139.2465  143.1937 H   0  0  0  0  0  0  0  0  0  0  0  0  # atno 7974 bound_to 7965
  154.5063  140.0821  156.7900 H   0  0  0  0  0  0  0  0  0  0  0  0  # atno 8008 bound_to 7997
  155.3886  140.3431  155.4232 H   0  0  0  0  0  0  0  0  0  0  0  0  # atno 8009 bound_to 7997
  156.1519  140.1561  156.8743 H   0  0  0  0  0  0  0  0  0  0  0  0  # atno 8010 bound_to 7997
  139.4858  144.5576  151.7289 H   0  0  0  0  0  0  0  0  0  0  0  0  # atno 10167 bound_to 10162
  156.0010  130.4688  150.4363 H   0  0  0  0  0  0  0  0  0  0  0  0  # atno 10718 bound_to 10713
  153.5246  135.3591  155.2648 H   0  0  0  0  0  0  0  0  0  0  0  0  # atno 10763 bound_to 10752
  154.8732  135.4054  154.3220 H   0  0  0  0  0  0  0  0  0  0  0  0  # atno 10764 bound_to 10752
  153.3897  135.7071  153.6571 H   0  0  0  0  0  0  0  0  0  0  0  0  # atno 10765 bound_to 10752
  141.1630  133.6896  156.7297 H   0  0  0  0  0  0  0  0  0  0  0  0  # atno 11005 bound_to 11000
  146.1146  140.7385  142.9486 LP  0  0  0  0  0  0  0  0  0  0  0  0  # atno 17320 bound_to 7965
  144.7098  140.3994  143.7089 LP  0  0  0  0  0  0  0  0  0  0  0  0  # atno 17321 bound_to 7965
  140.5141  144.0980  150.6003 LP  0  0  0  0  0  0  0  0  0  0  0  0  # atno 17342 bound_to 10162
  140.3916  143.2749  152.0053 LP  0  0  0  0  0  0  0  0  0  0  0  0  # atno 17343 bound_to 10162
  157.2408  131.0525  151.2438 LP  0  0  0  0  0  0  0  0  0  0  0  0  # atno 17370 bound_to 10713
  157.3622  130.7137  149.6509 LP  0  0  0  0  0  0  0  0  0  0  0  0  # atno 17371 bound_to 10713
  140.2754  134.8359  157.3885 LP  0  0  0  0  0  0  0  0  0  0  0  0  # atno 17394 bound_to 11000
  140.1482  134.4883  155.7980 LP  0  0  0  0  0  0  0  0  0  0  0  0  # atno 17395 bound_to 11000

$$$$
