AV-unprocessed.smi:2773|AV-procd|sdf|10676|dock1
  -GOLD-   2272015123D 1   1.00000     0.00000
 Structure written by MMmdl.
 30 31  0  0  0  0  0  0  0  0  1 V2000
  147.6410  138.7311  154.1565 C   0  0  0  0  0  0  0  0  0  0  0  0
  147.7137  140.1905  154.5494 C   0  0  2  0  0  0  0  0  0  0  0  0
  147.7935  141.2512  153.4846 C   0  0  0  0  0  0  0  0  0  0  0  0
  148.9923  140.9827  154.3677 C   0  0  1  0  0  0  0  0  0  0  0  0
  149.3098  141.9901  155.3352 N   0  0  0  0  0  0  0  0  0  0  0  0
  150.1825  141.9133  156.3563 C   0  0  0  0  0  0  0  0  0  0  0  0
  150.8546  140.8998  156.5393 O   0  0  0  0  0  0  0  0  0  0  0  0
  150.2657  143.0332  157.1024 N   0  0  0  0  0  0  0  0  0  0  0  0
  151.0566  143.2655  158.2585 C   0  0  0  0  0  0  0  0  0  0  0  0
  150.9260  144.5532  158.8236 C   0  0  0  0  0  0  0  0  0  0  0  0
  151.6669  144.8814  159.9745 C   0  0  0  0  0  0  0  0  0  0  0  0
  152.5199  143.9131  160.5329 C   0  0  0  0  0  0  0  0  0  0  0  0
  152.5945  142.6485  159.9110 C   0  0  0  0  0  0  0  0  0  0  0  0
  153.4868  141.5421  160.4559 C   0  0  0  0  0  0  0  0  0  0  0  0
  154.6538  141.5449  159.8112 F   0  0  0  0  0  0  0  0  0  0  0  0
  153.7254  141.6978  161.7586 F   0  0  0  0  0  0  0  0  0  0  0  0
  152.8975  140.3603  160.2738 F   0  0  0  0  0  0  0  0  0  0  0  0
  151.8806  142.3382  158.8051 N   0  0  0  0  0  0  0  0  0  0  0  0
  148.2575  138.5342  153.2788 H   0  0  0  0  0  0  0  0  0  0  0  0
  146.6113  138.4562  153.9271 H   0  0  0  0  0  0  0  0  0  0  0  0
  147.9946  138.1055  154.9763 H   0  0  0  0  0  0  0  0  0  0  0  0
  147.1129  140.4374  155.4232 H   0  0  0  0  0  0  0  0  0  0  0  0
  147.8555  140.9270  152.4475 H   0  0  0  0  0  0  0  0  0  0  0  0
  147.2313  142.1683  153.6500 H   0  0  0  0  0  0  0  0  0  0  0  0
  149.8186  140.4757  153.8716 H   0  0  0  0  0  0  0  0  0  0  0  0
  148.8659  142.8860  155.1939 H   0  0  0  0  0  0  0  0  0  0  0  0
  149.6807  143.8036  156.8148 H   0  0  0  0  0  0  0  0  0  0  0  0
  150.2652  145.2854  158.3826 H   0  0  0  0  0  0  0  0  0  0  0  0
  151.5805  145.8607  160.4220 H   0  0  0  0  0  0  0  0  0  0  0  0
  153.0971  144.1421  161.4163 H   0  0  0  0  0  0  0  0  0  0  0  0
  1  2  1  0  0  0  0
  1 19  1  0  0  0  0
  1 20  1  0  0  0  0
  1 21  1  0  0  0  0
  2  4  1  0  0  0  0
  2  3  1  0  0  0  0
  2 22  1  0  0  0  0
  3  4  1  0  0  0  0
  3 23  1  0  0  0  0
  3 24  1  0  0  0  0
  4  5  1  0  0  0  0
  4 25  1  0  0  0  0
  5  6  1  0  0  0  0
  5 26  1  0  0  0  0
  6  7  2  0  0  0  0
  6  8  1  0  0  0  0
  8  9  1  0  0  0  0
  8 27  1  0  0  0  0
  9 18  1  0  0  0  0
  9 10  2  0  0  0  0
 10 11  1  0  0  0  0
 10 28  1  0  0  0  0
 11 12  2  0  0  0  0
 11 29  1  0  0  0  0
 12 13  1  0  0  0  0
 12 30  1  0  0  0  0
 13 14  1  0  0  0  0
 13 18  2  0  0  0  0
 14 15  1  0  0  0  0
 14 16  1  0  0  0  0
 14 17  1  0  0  0  0
M  END
> <s_m_source_file>
AV-unprocessed.smi

> <i_m_source_file_index>
2773

> <i_lp_mmshare_version>
43012

> <i_f3d_flags>
0

> <s_epik_input>
W0NIM11bQ0BASF0xW0NIMl1bQ0BIXTFbTkhdQyg9TylbTkhdYzJbY0hdW2NIXVtjSF1jKG4yKUMoRikoRilG

> <s_epik_cmdline>
J2VwaWtfcHl0aG9uJywgJy1waCcsICc3LjAnLCAnLXRuJywgJzgnLCAnLW1hJywgJzIwMCcsICctbWV0YWxfYmluZGluZycsICctaW1hZScsICc8aW5maWxlLm1hZT4nLCAnLW9tYWUnLCAnPG91dGZpbGUubWFlPic=

> <r_lp_tautomer_probability>
1

> <r_epik_Ionization_Penalty>
4.04275e-05

> <r_epik_Ionization_Penalty_Charging>
0

> <r_epik_Ionization_Penalty_Neutral>
4.04275e-05

> <r_epik_State_Penalty>
-0

> <r_epik_Charging_Adjusted_Penalty>
0

> <i_epik_Tot_Q>
0

> <i_epik_Tot_abs_Q>
0

> <r_epik_Metal_State_Penalty>
-0

> <b_epik_Metal_Only>
0

> <s_lp_Force_Field>
OPLS_2005

> <r_lp_Energy>
31.927

> <b_lp_Chiralities_Consistent>
1

> <s_lp_Variant>
AV-unprocessed.smi:2773-1

> <Gold.Version>
5.8.1

> <Gold.Id.Protein>
6NUR|6NUR_protein|mol2

> <Gold.PLP.Fitness>
42.9094

> <Gold.PLP.PLP>
-39.5329

> <Gold.PLP.part.hbond>
-2.0000

> <Gold.PLP.part.metal>
0.0000

> <Gold.PLP.part.buried>
-5.7737

> <Gold.PLP.part.nonpolar>
-32.3923

> <Gold.PLP.part.repulsive>
0.2113

> <Gold.PLP.ligand.clash>
0.0000

> <Gold.PLP.ligand.torsion>
1.2209

> <Gold.PLP.Chemscore.Hbond>
1.9280

> <Gold.PLP.Chemscore.CHOScore>
0.0000

> <Gold.PLP.Chemscore.Metal>
0.0000

> <Gold.Chemscore.Hbonds>
donor molecule, donor type, donor heavy atom, donor atom, acceptor molecule, acceptor atom, score
      L1  H     5    26       P1  8028  0.93
      L1  H     8    27       P1  8028  1.00

> <Gold.PLP.Chemscore.Internal.Correction>
0.0343

> <Gold.Rescore>
     Score         DG    S(hbond)    S(metal)    S(lipo)     H(rot)  DE(clash)    DE(int)     intcor
     16.25     -18.54       1.85        0.00      80.72       1.00       0.66       1.62       ----

> <Gold.Chemscore.Fitness>
16.2546

> <Gold.Chemscore.DG>
-18.5378

> <Gold.Chemscore.ZeroCoef>
-5.4800

> <Gold.Chemscore.Hbond>
1.8483

> <Gold.Chemscore.Metal>
0.0000

> <Gold.Chemscore.Lipo>
80.7223

> <Gold.Chemscore.Internal_Hbond>
0.0000

> <Gold.Chemscore.DEClash>
0.6587

> <Gold.Chemscore.DEInternal>
1.6245

> <Gold.Chemscore.Rot>
1.0000

> <Gold.Chemscore.Internal.Correction>
   9.000000E+99

> <Gold.Chemscore.Hbonds>
donor molecule, donor type, donor heavy atom, donor atom, acceptor molecule, acceptor atom, score
      L1  H     5    26       P1  8028  0.89
      L1  H     8    27       P1  8028  0.94

> <Gold.Chemscore.Hbond.Weighted>
-6.1733

> <Gold.Chemscore.Metal.Weighted>
-0.0000

> <Gold.Chemscore.Lipo.Weighted>
-9.4445

> <Gold.Chemscore.Internal_Hbond.Weighted>
0.0000

> <Gold.Chemscore.DEClash.Weighted>
0.6587

> <Gold.Chemscore.DEInternal.Weighted>
1.6245

> <Gold.Chemscore.Rot.Weighted>
2.5600

> <Gold.Chemscore.Internal.Correction.Weighted>
   9.000000E+99

> <Gold.Protein.RotatedTorsions>
[ 6907 6896 6895 6894 ] final -149.67 input  -60.11 | X-H torsion
[ 7974 7965 7964 7962 ] final   -9.72 input  175.53 | X-H torsion
[ 8008 7997 7996 7995 ] final  -65.44 input   59.86 | X-H torsion
[ 10167 10162 10161 10158 ] final  -83.14 input  -65.29 | X-H torsion
[ 10718 10713 10712 10709 ] final  -29.24 input   66.30 | X-H torsion
[ 10763 10752 10751 10750 ] final  -29.15 input  -60.55 | X-H torsion
[ 11005 11000 10999 10996 ] final -101.77 input  -57.11 | X-H torsion

> <Gold.Protein.ActiveResidues>
 VAL166  LYS551  ARG553  GLY616  TRP617  ASP618  TYR619  PRO620  LYS621  CYS622 
 ASP623  PHE694  ASN695  SER759  ASP760  ASP761  ALA762  ILE779  LEU786  VAL792 
 PHE793  MET794  SER795  GLU796  ALA797  LYS798  CYS799  TRP800  GLU811  SER814 

> <Gold.Protein.RotatedAtoms>
  151.1875  133.4687  159.2594 H   0  0  0  0  0  0  0  0  0  0  0  0  # atno 6907 bound_to 6896
  151.1197  135.0072  159.8543 H   0  0  0  0  0  0  0  0  0  0  0  0  # atno 6908 bound_to 6896
  152.5455  134.1787  159.8680 H   0  0  0  0  0  0  0  0  0  0  0  0  # atno 6909 bound_to 6896
  146.2243  140.2658  142.8354 H   0  0  0  0  0  0  0  0  0  0  0  0  # atno 7974 bound_to 7965
  154.4672  140.0933  156.7051 H   0  0  0  0  0  0  0  0  0  0  0  0  # atno 8008 bound_to 7997
  155.4825  140.3468  155.4323 H   0  0  0  0  0  0  0  0  0  0  0  0  # atno 8009 bound_to 7997
  156.0977  140.1414  156.9498 H   0  0  0  0  0  0  0  0  0  0  0  0  # atno 8010 bound_to 7997
  140.4254  143.2568  151.8833 H   0  0  0  0  0  0  0  0  0  0  0  0  # atno 10167 bound_to 10162
  156.4150  130.4415  149.7225 H   0  0  0  0  0  0  0  0  0  0  0  0  # atno 10718 bound_to 10713
  153.7600  135.6920  153.4927 H   0  0  0  0  0  0  0  0  0  0  0  0  # atno 10763 bound_to 10752
  153.1945  135.4459  155.0189 H   0  0  0  0  0  0  0  0  0  0  0  0  # atno 10764 bound_to 10752
  154.8156  135.3397  154.7116 H   0  0  0  0  0  0  0  0  0  0  0  0  # atno 10765 bound_to 10752
  141.1217  133.8505  157.1275 H   0  0  0  0  0  0  0  0  0  0  0  0  # atno 11005 bound_to 11000
  144.9305  140.7969  143.5692 LP  0  0  0  0  0  0  0  0  0  0  0  0  # atno 17320 bound_to 7965
  145.2601  139.1996  143.4896 LP  0  0  0  0  0  0  0  0  0  0  0  0  # atno 17321 bound_to 7965
  139.4783  144.5392  151.8553 LP  0  0  0  0  0  0  0  0  0  0  0  0  # atno 17342 bound_to 10162
  140.4487  144.1886  150.5896 LP  0  0  0  0  0  0  0  0  0  0  0  0  # atno 17343 bound_to 10162
  156.4188  130.7758  151.2775 LP  0  0  0  0  0  0  0  0  0  0  0  0  # atno 17370 bound_to 10713
  157.7507  131.0189  150.3645 LP  0  0  0  0  0  0  0  0  0  0  0  0  # atno 17371 bound_to 10713
  140.0180  134.9959  157.0533 LP  0  0  0  0  0  0  0  0  0  0  0  0  # atno 17394 bound_to 11000
  140.4488  134.1604  155.7179 LP  0  0  0  0  0  0  0  0  0  0  0  0  # atno 17395 bound_to 11000

$$$$
