AV-unprocessed.smi:3345|AV-procd|sdf|12906|dock4
  -GOLD-   2272019323D 1   1.00000     0.00000
 Structure written by MMmdl.
 41 42  0  0  0  0  0  0  0  0  2 V2000
  151.2337  140.2226  155.8713 C   0  0  0  0  0  0  0  0  0  0  0  0
  150.3652  141.4843  155.7794 C   0  0  1  0  0  0  0  0  0  0  0  0
  148.9116  141.2100  156.2284 C   0  0  0  0  0  0  0  0  0  0  0  0
  147.9353  142.1832  155.6737 N   0  3  0  0  0  0  0  0  0  0  0  0
  147.6237  141.9627  154.2411 C   0  0  0  0  0  0  0  0  0  0  0  0
  146.6813  143.0653  153.7322 C   0  0  0  0  0  0  0  0  0  0  0  0
  145.4933  143.0692  154.5146 O   0  0  0  0  0  0  0  0  0  0  0  0
  145.7565  143.3465  155.8848 C   0  0  0  0  0  0  0  0  0  0  0  0
  146.6869  142.2684  156.4669 C   0  0  0  0  0  0  0  0  0  0  0  0
  150.9616  142.5458  156.5903 N   0  0  0  0  0  0  0  0  0  0  0  0
  151.2309  142.4761  157.9044 C   0  0  0  0  0  0  0  0  0  0  0  0
  150.9157  141.5172  158.6093 O   0  0  0  0  0  0  0  0  0  0  0  0
  152.0236  143.6511  158.4934 C   0  0  1  0  0  0  0  0  0  0  0  0
  151.2857  144.9975  158.3508 C   0  0  0  0  0  0  0  0  0  0  0  0
  152.3728  143.3539  159.8776 N   0  0  0  0  0  0  0  0  0  0  0  0
  152.9845  142.2873  160.3975 C   0  0  0  0  0  0  0  0  0  0  0  0
  153.0856  142.3151  161.7189 N   0  0  0  0  0  0  0  0  0  0  0  0
  152.4756  143.5111  161.9698 C   0  0  0  0  0  0  0  0  0  0  0  0
  152.0060  144.1604  160.9052 N   0  0  0  0  0  0  0  0  0  0  0  0
  150.8234  139.4199  155.2577 H   0  0  0  0  0  0  0  0  0  0  0  0
  151.3001  139.8567  156.8966 H   0  0  0  0  0  0  0  0  0  0  0  0
  152.2480  140.4177  155.5213 H   0  0  0  0  0  0  0  0  0  0  0  0
  150.3554  141.7831  154.7304 H   0  0  0  0  0  0  0  0  0  0  0  0
  148.6115  140.1932  155.9707 H   0  0  0  0  0  0  0  0  0  0  0  0
  148.8796  141.2696  157.3175 H   0  0  0  0  0  0  0  0  0  0  0  0
  148.5362  141.9629  153.6466 H   0  0  0  0  0  0  0  0  0  0  0  0
  147.1595  140.9840  154.1112 H   0  0  0  0  0  0  0  0  0  0  0  0
  147.1659  144.0424  153.7746 H   0  0  0  0  0  0  0  0  0  0  0  0
  146.4179  142.8839  152.6901 H   0  0  0  0  0  0  0  0  0  0  0  0
  146.1992  144.3373  155.9862 H   0  0  0  0  0  0  0  0  0  0  0  0
  144.8130  143.3634  156.4302 H   0  0  0  0  0  0  0  0  0  0  0  0
  146.1853  141.2993  156.4671 H   0  0  0  0  0  0  0  0  0  0  0  0
  146.9211  142.5111  157.5041 H   0  0  0  0  0  0  0  0  0  0  0  0
  151.2420  143.3827  156.0996 H   0  0  0  0  0  0  0  0  0  0  0  0
  152.9582  143.7333  157.9358 H   0  0  0  0  0  0  0  0  0  0  0  0
  151.0765  145.2208  157.3041 H   0  0  0  0  0  0  0  0  0  0  0  0
  151.8910  145.8147  158.7435 H   0  0  0  0  0  0  0  0  0  0  0  0
  150.3347  145.0060  158.8853 H   0  0  0  0  0  0  0  0  0  0  0  0
  153.3553  141.4689  159.7977 H   0  0  0  0  0  0  0  0  0  0  0  0
  152.3537  143.9039  162.9686 H   0  0  0  0  0  0  0  0  0  0  0  0
  148.3722  143.0915  155.7398 H   0  0  0  0  0  0  0  0  0  0  0  0
  1  2  1  0  0  0  0
  1 20  1  0  0  0  0
  1 21  1  0  0  0  0
  1 22  1  0  0  0  0
  2  3  1  0  0  0  0
  2 10  1  0  0  0  0
  2 23  1  0  0  0  0
  3  4  1  0  0  0  0
  3 24  1  0  0  0  0
  3 25  1  0  0  0  0
  4  9  1  0  0  0  0
  4  5  1  0  0  0  0
  4 41  1  0  0  0  0
  5  6  1  0  0  0  0
  5 26  1  0  0  0  0
  5 27  1  0  0  0  0
  6  7  1  0  0  0  0
  6 28  1  0  0  0  0
  6 29  1  0  0  0  0
  7  8  1  0  0  0  0
  8  9  1  0  0  0  0
  8 30  1  0  0  0  0
  8 31  1  0  0  0  0
  9 32  1  0  0  0  0
  9 33  1  0  0  0  0
 10 11  1  0  0  0  0
 10 34  1  0  0  0  0
 11 12  2  0  0  0  0
 11 13  1  0  0  0  0
 13 14  1  0  0  0  0
 13 15  1  0  0  0  0
 13 35  1  0  0  0  0
 14 36  1  0  0  0  0
 14 37  1  0  0  0  0
 14 38  1  0  0  0  0
 15 19  1  0  0  0  0
 15 16  1  0  0  0  0
 16 17  2  0  0  0  0
 16 39  1  0  0  0  0
 17 18  1  0  0  0  0
 18 19  2  0  0  0  0
 18 40  1  0  0  0  0
M  CHG  1   4   1
M  END
> <s_m_source_file>
AV-unprocessed.smi

> <i_m_source_file_index>
3345

> <i_lp_mmshare_version>
43012

> <i_f3d_flags>
0

> <s_epik_input>
W0NIMl0xW0NIMl1PW0NIMl1bQ0gyXU4xW0NIMl1bQ0BASF0oW0NIM10pW05IXUMoPU8pW0NASF0oW0NIM10pbjJbY0hdbltjSF1uMg==

> <s_epik_cmdline>
J2VwaWtfcHl0aG9uJywgJy1waCcsICc3LjAnLCAnLXRuJywgJzgnLCAnLW1hJywgJzIwMCcsICctbWV0YWxfYmluZGluZycsICctaW1hZScsICc8aW5maWxlLm1hZT4nLCAnLW9tYWUnLCAnPG91dGZpbGUubWFlPic=

> <r_lp_tautomer_probability>
1

> <r_epik_Ionization_Penalty>
0.71326

> <r_epik_Ionization_Penalty_Charging>
0.713252

> <r_epik_Ionization_Penalty_Neutral>
8.27671e-06

> <r_epik_State_Penalty>
0.737017

> <r_epik_Charging_Adjusted_Penalty>
1.45027

> <i_epik_Tot_Q>
1

> <i_epik_Tot_abs_Q>
1

> <r_epik_Metal_State_Penalty>
0.73702

> <b_epik_Metal_Only>
0

> <s_lp_Force_Field>
OPLS_2005

> <r_lp_Energy>
25.9196

> <b_lp_Chiralities_Consistent>
1

> <s_lp_Variant>
AV-unprocessed.smi:3345-8

> <Gold.Version>
5.8.1

> <Gold.Id.Protein>
6NUR|6NUR_protein|mol2

> <Gold.PLP.Fitness>
47.4940

> <Gold.PLP.PLP>
-42.2885

> <Gold.PLP.part.hbond>
-1.5893

> <Gold.PLP.part.metal>
0.0000

> <Gold.PLP.part.buried>
-7.9429

> <Gold.PLP.part.nonpolar>
-32.8506

> <Gold.PLP.part.repulsive>
0.5087

> <Gold.PLP.ligand.clash>
0.0000

> <Gold.PLP.ligand.torsion>
0.4759

> <Gold.PLP.Chemscore.Hbond>
2.0000

> <Gold.PLP.Chemscore.CHOScore>
0.0000

> <Gold.PLP.Chemscore.Metal>
0.0000

> <Gold.Chemscore.Hbonds>
donor molecule, donor type, donor heavy atom, donor atom, acceptor molecule, acceptor atom, score
      L1  H     4    41       P1  8028  2.00

> <Gold.PLP.Chemscore.Internal.Correction>
0.1572

> <Gold.Rescore>
     Score         DG    S(hbond)    S(metal)    S(lipo)     H(rot)  DE(clash)    DE(int)     intcor
      6.82      -9.22       0.97        0.00      61.60       2.61       0.00       2.40       ----

> <Gold.Chemscore.Fitness>
6.8236

> <Gold.Chemscore.DG>
-9.2230

> <Gold.Chemscore.ZeroCoef>
-5.4800

> <Gold.Chemscore.Hbond>
0.9663

> <Gold.Chemscore.Metal>
0.0000

> <Gold.Chemscore.Lipo>
61.5966

> <Gold.Chemscore.Internal_Hbond>
0.0000

> <Gold.Chemscore.DEClash>
0.0029

> <Gold.Chemscore.DEInternal>
2.3965

> <Gold.Chemscore.Rot>
2.6138

> <Gold.Chemscore.Internal.Correction>
   9.000000E+99

> <Gold.Chemscore.Hbonds>
donor molecule, donor type, donor heavy atom, donor atom, acceptor molecule, acceptor atom, score
      L1  H     4    41       P1  8028  0.96

> <Gold.Chemscore.Hbond.Weighted>
-3.2275

> <Gold.Chemscore.Metal.Weighted>
-0.0000

> <Gold.Chemscore.Lipo.Weighted>
-7.2068

> <Gold.Chemscore.Internal_Hbond.Weighted>
0.0000

> <Gold.Chemscore.DEClash.Weighted>
0.0029

> <Gold.Chemscore.DEInternal.Weighted>
2.3965

> <Gold.Chemscore.Rot.Weighted>
6.6912

> <Gold.Chemscore.Internal.Correction.Weighted>
   9.000000E+99

> <Gold.Protein.RotatedTorsions>
[ 6907 6896 6895 6894 ] final  113.94 input  -60.11 | X-H torsion
[ 7974 7965 7964 7962 ] final -174.81 input  175.53 | X-H torsion
[ 8008 7997 7996 7995 ] final    4.45 input   59.86 | X-H torsion
[ 10167 10162 10161 10158 ] final  169.46 input  -65.29 | X-H torsion
[ 10718 10713 10712 10709 ] final  112.86 input   66.30 | X-H torsion
[ 10763 10752 10751 10750 ] final   32.77 input  -60.55 | X-H torsion
[ 11005 11000 10999 10996 ] final  158.41 input  -57.11 | X-H torsion

> <Gold.Protein.ActiveResidues>
 VAL166  LYS551  ARG553  GLY616  TRP617  ASP618  TYR619  PRO620  LYS621  CYS622 
 ASP623  PHE694  ASN695  SER759  ASP760  ASP761  ALA762  ILE779  LEU786  VAL792 
 PHE793  MET794  SER795  GLU796  ALA797  LYS798  CYS799  TRP800  GLU811  SER814 

> <Gold.Protein.RotatedAtoms>
  152.4831  133.8305  159.7100 H   0  0  0  0  0  0  0  0  0  0  0  0  # atno 6907 bound_to 6896
  150.8897  133.7251  159.2915 H   0  0  0  0  0  0  0  0  0  0  0  0  # atno 6908 bound_to 6896
  151.4728  135.1050  159.9808 H   0  0  0  0  0  0  0  0  0  0  0  0  # atno 6909 bound_to 6896
  144.7130  140.1415  143.6391 H   0  0  0  0  0  0  0  0  0  0  0  0  # atno 7974 bound_to 7965
  154.7161  140.2702  155.6584 H   0  0  0  0  0  0  0  0  0  0  0  0  # atno 8008 bound_to 7997
  156.2810  140.2744  156.1742 H   0  0  0  0  0  0  0  0  0  0  0  0  # atno 8009 bound_to 7997
  155.0570  140.0371  157.2553 H   0  0  0  0  0  0  0  0  0  0  0  0  # atno 8010 bound_to 7997
  139.4993  144.3703  151.9731 H   0  0  0  0  0  0  0  0  0  0  0  0  # atno 10167 bound_to 10162
  157.6369  131.0974  150.6957 H   0  0  0  0  0  0  0  0  0  0  0  0  # atno 10718 bound_to 10713
  153.0245  135.6404  154.1407 H   0  0  0  0  0  0  0  0  0  0  0  0  # atno 10763 bound_to 10752
  154.1137  135.2851  155.3226 H   0  0  0  0  0  0  0  0  0  0  0  0  # atno 10764 bound_to 10752
  154.6313  135.5491  153.7746 H   0  0  0  0  0  0  0  0  0  0  0  0  # atno 10765 bound_to 10752
  140.1862  134.8440  157.2860 H   0  0  0  0  0  0  0  0  0  0  0  0  # atno 11005 bound_to 11000
  145.9197  139.2538  143.1388 LP  0  0  0  0  0  0  0  0  0  0  0  0  # atno 17320 bound_to 7965
  145.9632  140.8819  143.0200 LP  0  0  0  0  0  0  0  0  0  0  0  0  # atno 17321 bound_to 7965
  140.3139  144.3506  150.6026 LP  0  0  0  0  0  0  0  0  0  0  0  0  # atno 17342 bound_to 10162
  140.5776  143.2175  151.7486 LP  0  0  0  0  0  0  0  0  0  0  0  0  # atno 17343 bound_to 10162
  156.7287  130.4703  149.5505 LP  0  0  0  0  0  0  0  0  0  0  0  0  # atno 17370 bound_to 10713
  156.1616  130.6378  151.0726 LP  0  0  0  0  0  0  0  0  0  0  0  0  # atno 17371 bound_to 10713
  140.2211  134.4023  155.7565 LP  0  0  0  0  0  0  0  0  0  0  0  0  # atno 17394 bound_to 11000
  141.2225  133.7166  156.8491 LP  0  0  0  0  0  0  0  0  0  0  0  0  # atno 17395 bound_to 11000

$$$$
