AV-unprocessed.smi:2834|AV-procd|sdf|10916|dock1
  -GOLD-   2272015363D 1   1.00000     0.00000
 Structure written by MMmdl.
 35 36  0  0  0  0  0  0  0  0  1 V2000
  145.9488  141.8570  156.8550 C   0  0  0  0  0  0  0  0  0  0  0  0
  147.0840  141.5157  155.8671 C   0  0  1  0  0  0  0  0  0  0  0  0
  148.3212  142.2157  156.2387 N   0  0  0  0  0  0  0  0  0  0  0  0
  149.1488  141.9425  157.2606 C   0  0  0  0  0  0  0  0  0  0  0  0
  148.9726  141.0269  158.0643 O   0  0  0  0  0  0  0  0  0  0  0  0
  150.1854  142.7961  157.2832 N   0  0  0  0  0  0  0  0  0  0  0  0
  151.2640  142.8167  158.2032 C   0  0  0  0  0  0  0  0  0  0  0  0
  152.3424  143.7380  158.1647 C   0  0  0  0  0  0  0  0  0  0  0  0
  153.1984  143.5147  159.1502 N   0  0  0  0  0  0  0  0  0  0  0  0
  152.6860  142.4583  159.8290 N   0  0  0  0  0  0  0  0  0  0  0  0
  153.3837  141.9462  160.9944 C   0  0  0  0  0  0  0  0  0  0  0  0
  154.1851  140.6710  160.6842 C   0  0  0  0  0  0  0  0  0  0  0  0
  154.5260  140.0801  161.8288 F   0  0  0  0  0  0  0  0  0  0  0  0
  153.4536  139.8184  159.9659 F   0  0  0  0  0  0  0  0  0  0  0  0
  155.2968  140.9711  160.0120 F   0  0  0  0  0  0  0  0  0  0  0  0
  151.5039  142.0062  159.2766 C   0  0  0  0  0  0  0  0  0  0  0  0
  147.2989  140.0140  155.6974 C   0  0  0  0  0  0  0  0  0  0  0  0
  147.9326  139.9144  154.3143 C   0  0  0  0  0  0  0  0  0  0  0  0
  147.3615  140.9759  153.5600 O   0  0  0  0  0  0  0  0  0  0  0  0
  146.7186  141.9072  154.4270 C   0  0  0  0  0  0  0  0  0  0  0  0
  145.0052  141.4061  156.5463 H   0  0  0  0  0  0  0  0  0  0  0  0
  145.7911  142.9343  156.9163 H   0  0  0  0  0  0  0  0  0  0  0  0
  146.1608  141.4944  157.8607 H   0  0  0  0  0  0  0  0  0  0  0  0
  148.5736  142.9920  155.6447 H   0  0  0  0  0  0  0  0  0  0  0  0
  150.2072  143.5045  156.5644 H   0  0  0  0  0  0  0  0  0  0  0  0
  152.5297  144.5438  157.4700 H   0  0  0  0  0  0  0  0  0  0  0  0
  154.0488  142.7270  161.3660 H   0  0  0  0  0  0  0  0  0  0  0  0
  152.6561  141.7536  161.7844 H   0  0  0  0  0  0  0  0  0  0  0  0
  150.9593  141.1717  159.6930 H   0  0  0  0  0  0  0  0  0  0  0  0
  147.9064  139.5492  156.4737 H   0  0  0  0  0  0  0  0  0  0  0  0
  146.3371  139.4992  155.6874 H   0  0  0  0  0  0  0  0  0  0  0  0
  149.0102  140.0706  154.3778 H   0  0  0  0  0  0  0  0  0  0  0  0
  147.7576  138.9478  153.8418 H   0  0  0  0  0  0  0  0  0  0  0  0
  145.6444  141.8140  154.2618 H   0  0  0  0  0  0  0  0  0  0  0  0
  146.9944  142.9330  154.1795 H   0  0  0  0  0  0  0  0  0  0  0  0
  1  2  1  0  0  0  0
  1 21  1  0  0  0  0
  1 22  1  0  0  0  0
  1 23  1  0  0  0  0
  2 20  1  0  0  0  0
  2  3  1  0  0  0  0
  2 17  1  0  0  0  0
  3  4  1  0  0  0  0
  3 24  1  0  0  0  0
  4  5  2  0  0  0  0
  4  6  1  0  0  0  0
  6  7  1  0  0  0  0
  6 25  1  0  0  0  0
  7 16  2  0  0  0  0
  7  8  1  0  0  0  0
  8  9  2  0  0  0  0
  8 26  1  0  0  0  0
  9 10  1  0  0  0  0
 10 11  1  0  0  0  0
 10 16  1  0  0  0  0
 11 12  1  0  0  0  0
 11 27  1  0  0  0  0
 11 28  1  0  0  0  0
 12 13  1  0  0  0  0
 12 14  1  0  0  0  0
 12 15  1  0  0  0  0
 16 29  1  0  0  0  0
 17 18  1  0  0  0  0
 17 30  1  0  0  0  0
 17 31  1  0  0  0  0
 18 19  1  0  0  0  0
 18 32  1  0  0  0  0
 18 33  1  0  0  0  0
 19 20  1  0  0  0  0
 20 34  1  0  0  0  0
 20 35  1  0  0  0  0
M  END
> <s_m_source_file>
AV-unprocessed.smi

> <i_m_source_file_index>
2834

> <i_lp_mmshare_version>
43012

> <i_f3d_flags>
0

> <s_epik_input>
W0NIMl0xT1tDSDJdW0NIMl1bQ0BAXTEoW0NIM10pW05IXUMoPU8pW05IXWMyW2NIXW5uKFtjSF0yKVtDSDJdQyhGKShGKUY=

> <s_epik_cmdline>
J2VwaWtfcHl0aG9uJywgJy1waCcsICc3LjAnLCAnLXRuJywgJzgnLCAnLW1hJywgJzIwMCcsICctbWV0YWxfYmluZGluZycsICctaW1hZScsICc8aW5maWxlLm1hZT4nLCAnLW9tYWUnLCAnPG91dGZpbGUubWFlPic=

> <r_lp_tautomer_probability>
1

> <r_epik_Ionization_Penalty>
3.3002e-05

> <r_epik_Ionization_Penalty_Charging>
0

> <r_epik_Ionization_Penalty_Neutral>
3.3002e-05

> <r_epik_State_Penalty>
-0

> <r_epik_Charging_Adjusted_Penalty>
0

> <i_epik_Tot_Q>
0

> <i_epik_Tot_abs_Q>
0

> <r_epik_Metal_State_Penalty>
-0

> <b_epik_Metal_Only>
0

> <s_lp_Force_Field>
OPLS_2005

> <r_lp_Energy>
24.6434

> <b_lp_Chiralities_Consistent>
1

> <s_lp_Variant>
AV-unprocessed.smi:2834-1

> <Gold.Version>
5.8.1

> <Gold.Id.Protein>
6NUR|6NUR_protein|mol2

> <Gold.PLP.Fitness>
39.8853

> <Gold.PLP.PLP>
-35.5393

> <Gold.PLP.part.hbond>
-2.0000

> <Gold.PLP.part.metal>
0.0000

> <Gold.PLP.part.buried>
-4.8226

> <Gold.PLP.part.nonpolar>
-29.4239

> <Gold.PLP.part.repulsive>
0.2534

> <Gold.PLP.ligand.clash>
0.0000

> <Gold.PLP.ligand.torsion>
0.6340

> <Gold.PLP.Chemscore.Hbond>
1.8480

> <Gold.PLP.Chemscore.CHOScore>
0.0000

> <Gold.PLP.Chemscore.Metal>
0.0000

> <Gold.Chemscore.Hbonds>
donor molecule, donor type, donor heavy atom, donor atom, acceptor molecule, acceptor atom, score
      L1  H     3    24       P1  8028  0.86
      L1  H     6    25       P1  8028  0.75

> <Gold.PLP.Chemscore.Internal.Correction>
0.0700

> <Gold.Rescore>
     Score         DG    S(hbond)    S(metal)    S(lipo)     H(rot)  DE(clash)    DE(int)     intcor
     14.17     -16.25       1.90        0.00      67.21       1.34       0.33       1.75       ----

> <Gold.Chemscore.Fitness>
14.1740

> <Gold.Chemscore.DG>
-16.2549

> <Gold.Chemscore.ZeroCoef>
-5.4800

> <Gold.Chemscore.Hbond>
1.9001

> <Gold.Chemscore.Metal>
0.0000

> <Gold.Chemscore.Lipo>
67.2065

> <Gold.Chemscore.Internal_Hbond>
0.0000

> <Gold.Chemscore.DEClash>
0.3273

> <Gold.Chemscore.DEInternal>
1.7535

> <Gold.Chemscore.Rot>
1.3417

> <Gold.Chemscore.Internal.Correction>
   9.000000E+99

> <Gold.Chemscore.Hbonds>
donor molecule, donor type, donor heavy atom, donor atom, acceptor molecule, acceptor atom, score
      L1  H     3    24       P1  8028  0.85
      L1  H     6    25       P1  8028  0.71

> <Gold.Chemscore.Hbond.Weighted>
-6.3464

> <Gold.Chemscore.Metal.Weighted>
-0.0000

> <Gold.Chemscore.Lipo.Weighted>
-7.8632

> <Gold.Chemscore.Internal_Hbond.Weighted>
0.0000

> <Gold.Chemscore.DEClash.Weighted>
0.3273

> <Gold.Chemscore.DEInternal.Weighted>
1.7535

> <Gold.Chemscore.Rot.Weighted>
3.4347

> <Gold.Chemscore.Internal.Correction.Weighted>
   9.000000E+99

> <Gold.Protein.RotatedTorsions>
[ 6907 6896 6895 6894 ] final   36.14 input  -60.11 | X-H torsion
[ 7974 7965 7964 7962 ] final   93.38 input  175.53 | X-H torsion
[ 8008 7997 7996 7995 ] final    3.46 input   59.86 | X-H torsion
[ 10167 10162 10161 10158 ] final  111.89 input  -65.29 | X-H torsion
[ 10718 10713 10712 10709 ] final   42.45 input   66.30 | X-H torsion
[ 10763 10752 10751 10750 ] final    1.24 input  -60.55 | X-H torsion
[ 11005 11000 10999 10996 ] final   57.40 input  -57.11 | X-H torsion

> <Gold.Protein.ActiveResidues>
 VAL166  LYS551  ARG553  GLY616  TRP617  ASP618  TYR619  PRO620  LYS621  CYS622 
 ASP623  PHE694  ASN695  SER759  ASP760  ASP761  ALA762  ILE779  LEU786  VAL792 
 PHE793  MET794  SER795  GLU796  ALA797  LYS798  CYS799  TRP800  GLU811  SER814 

> <Gold.Protein.RotatedAtoms>
  152.1257  134.9172  160.0560 H   0  0  0  0  0  0  0  0  0  0  0  0  # atno 6907 bound_to 6896
  152.0296  133.3927  159.4300 H   0  0  0  0  0  0  0  0  0  0  0  0  # atno 6908 bound_to 6896
  150.6852  134.3457  159.4931 H   0  0  0  0  0  0  0  0  0  0  0  0  # atno 6909 bound_to 6896
  145.4797  139.2279  143.2889 H   0  0  0  0  0  0  0  0  0  0  0  0  # atno 7974 bound_to 7965
  154.7039  140.2679  155.6693 H   0  0  0  0  0  0  0  0  0  0  0  0  # atno 8008 bound_to 7997
  156.2774  140.2766  156.1583 H   0  0  0  0  0  0  0  0  0  0  0  0  # atno 8009 bound_to 7997
  155.0726  140.0372  157.2603 H   0  0  0  0  0  0  0  0  0  0  0  0  # atno 8010 bound_to 7997
  139.6577  144.7129  151.1925 H   0  0  0  0  0  0  0  0  0  0  0  0  # atno 10167 bound_to 10162
  157.4049  130.7881  149.7380 H   0  0  0  0  0  0  0  0  0  0  0  0  # atno 10718 bound_to 10713
  153.3106  135.6962  153.7119 H   0  0  0  0  0  0  0  0  0  0  0  0  # atno 10763 bound_to 10752
  153.5998  135.3464  155.2942 H   0  0  0  0  0  0  0  0  0  0  0  0  # atno 10764 bound_to 10752
  154.8574  135.4338  154.2242 H   0  0  0  0  0  0  0  0  0  0  0  0  # atno 10765 bound_to 10752
  140.0455  134.5812  155.9328 H   0  0  0  0  0  0  0  0  0  0  0  0  # atno 11005 bound_to 11000
  146.2348  140.5582  142.8959 LP  0  0  0  0  0  0  0  0  0  0  0  0  # atno 17320 bound_to 7965
  144.7896  140.6006  143.6550 LP  0  0  0  0  0  0  0  0  0  0  0  0  # atno 17321 bound_to 7965
  140.7566  143.6045  150.8666 LP  0  0  0  0  0  0  0  0  0  0  0  0  # atno 17342 bound_to 10162
  139.9700  143.6068  152.2976 LP  0  0  0  0  0  0  0  0  0  0  0  0  # atno 17343 bound_to 10162
  155.9834  130.4001  150.3367 LP  0  0  0  0  0  0  0  0  0  0  0  0  # atno 17370 bound_to 10713
  157.1499  131.0318  151.2890 LP  0  0  0  0  0  0  0  0  0  0  0  0  # atno 17371 bound_to 10713
  141.1905  133.6568  156.5413 LP  0  0  0  0  0  0  0  0  0  0  0  0  # atno 17394 bound_to 11000
  140.4000  134.7365  157.4774 LP  0  0  0  0  0  0  0  0  0  0  0  0  # atno 17395 bound_to 11000

$$$$
