AV-unprocessed.smi:2967|AV-procd|sdf|11326|dock8
  -GOLD-   2272016233D 1   1.00000     0.00000
 Structure written by MMmdl.
 38 39  0  0  0  0  0  0  0  0  1 V2000
  150.9158  140.6391  155.9629 O   0  0  0  0  0  0  0  0  0  0  0  0
  150.3082  141.6782  155.7003 C   0  0  0  0  0  0  0  0  0  0  0  0
  149.2348  141.7084  154.6025 C   0  0  0  0  0  0  0  0  0  0  0  0
  148.5869  140.4062  154.3858 N   0  0  0  0  0  0  0  0  0  0  0  0
  147.2175  140.2683  154.5628 C   0  0  0  0  0  0  0  0  0  0  0  0
  146.5568  139.0996  154.3873 C   0  0  0  0  0  0  0  0  0  0  0  0
  147.2789  137.8950  153.9923 C   0  0  0  0  0  0  0  0  0  0  0  0
  146.7698  136.7922  153.8056 O   0  0  0  0  0  0  0  0  0  0  0  0
  148.6552  138.0730  153.8282 N   0  0  0  0  0  0  0  0  0  0  0  0
  149.3427  139.2742  154.0095 C   0  0  0  0  0  0  0  0  0  0  0  0
  150.5612  139.3206  153.8429 O   0  0  0  0  0  0  0  0  0  0  0  0
  150.5188  142.8366  156.3446 N   0  0  0  0  0  0  0  0  0  0  0  0
  151.4847  143.0508  157.4198 C   0  0  0  0  0  0  0  0  0  0  0  0
  151.2593  141.9801  158.5079 C   0  0  0  0  0  0  0  0  0  0  0  0
  152.4156  141.8884  159.5181 C   0  0  0  0  0  0  0  0  0  0  0  0
  152.3262  142.8430  160.7219 C   0  0  0  0  0  0  0  0  0  0  0  0
  151.8196  144.2670  160.4341 C   0  0  0  0  0  0  0  0  0  0  0  0
  152.2836  144.8719  159.0997 C   0  0  0  0  0  0  0  0  0  0  0  0
  151.3607  144.5029  157.9255 C   0  0  0  0  0  0  0  0  0  0  0  0
  149.1977  137.2653  153.5587 H   0  0  0  0  0  0  0  0  0  0  0  0
  148.4910  142.4583  154.8757 H   0  0  0  0  0  0  0  0  0  0  0  0
  149.6764  142.0676  153.6706 H   0  0  0  0  0  0  0  0  0  0  0  0
  146.6420  141.1338  154.8597 H   0  0  0  0  0  0  0  0  0  0  0  0
  145.4884  139.0554  154.5410 H   0  0  0  0  0  0  0  0  0  0  0  0
  149.9707  143.6368  156.0640 H   0  0  0  0  0  0  0  0  0  0  0  0
  152.4885  142.9086  157.0147 H   0  0  0  0  0  0  0  0  0  0  0  0
  150.3077  142.1303  159.0192 H   0  0  0  0  0  0  0  0  0  0  0  0
  151.1815  141.0096  158.0153 H   0  0  0  0  0  0  0  0  0  0  0  0
  152.4644  140.8703  159.9057 H   0  0  0  0  0  0  0  0  0  0  0  0
  153.3633  142.0399  158.9999 H   0  0  0  0  0  0  0  0  0  0  0  0
  151.6820  142.4008  161.4830 H   0  0  0  0  0  0  0  0  0  0  0  0
  153.3155  142.9030  161.1772 H   0  0  0  0  0  0  0  0  0  0  0  0
  150.7300  144.2836  160.4805 H   0  0  0  0  0  0  0  0  0  0  0  0
  152.1492  144.9111  161.2502 H   0  0  0  0  0  0  0  0  0  0  0  0
  152.2675  145.9577  159.2016 H   0  0  0  0  0  0  0  0  0  0  0  0
  153.3203  144.6094  158.8860 H   0  0  0  0  0  0  0  0  0  0  0  0
  151.5866  145.1755  157.0968 H   0  0  0  0  0  0  0  0  0  0  0  0
  150.3256  144.7137  158.1982 H   0  0  0  0  0  0  0  0  0  0  0  0
  1  2  2  0  0  0  0
  2  3  1  0  0  0  0
  2 12  1  0  0  0  0
  3  4  1  0  0  0  0
  3 21  1  0  0  0  0
  3 22  1  0  0  0  0
  4 10  1  0  0  0  0
  4  5  1  0  0  0  0
  5  6  2  0  0  0  0
  5 23  1  0  0  0  0
  6  7  1  0  0  0  0
  6 24  1  0  0  0  0
  7  8  2  0  0  0  0
  7  9  1  0  0  0  0
  9 20  1  0  0  0  0
  9 10  1  0  0  0  0
 10 11  2  0  0  0  0
 12 13  1  0  0  0  0
 12 25  1  0  0  0  0
 13 19  1  0  0  0  0
 13 14  1  0  0  0  0
 13 26  1  0  0  0  0
 14 15  1  0  0  0  0
 14 27  1  0  0  0  0
 14 28  1  0  0  0  0
 15 16  1  0  0  0  0
 15 29  1  0  0  0  0
 15 30  1  0  0  0  0
 16 17  1  0  0  0  0
 16 31  1  0  0  0  0
 16 32  1  0  0  0  0
 17 18  1  0  0  0  0
 17 33  1  0  0  0  0
 17 34  1  0  0  0  0
 18 19  1  0  0  0  0
 18 35  1  0  0  0  0
 18 36  1  0  0  0  0
 19 37  1  0  0  0  0
 19 38  1  0  0  0  0
M  END
> <s_m_source_file>
AV-unprocessed.smi

> <i_m_source_file_index>
2967

> <i_lp_mmshare_version>
43012

> <i_f3d_flags>
0

> <s_epik_input>
W0NIMl0xW0NIMl1bQ0gyXVtDSDJdW0NIMl1bQ0gyXVtDSF0xW05IXUMoPU8pW0NIMl1uMltjSF1bY0hdYyg9TylbbkhdYzI9Tw==

> <s_epik_cmdline>
J2VwaWtfcHl0aG9uJywgJy1waCcsICc3LjAnLCAnLXRuJywgJzgnLCAnLW1hJywgJzIwMCcsICctbWV0YWxfYmluZGluZycsICctaW1hZScsICc8aW5maWxlLm1hZT4nLCAnLW9tYWUnLCAnPG91dGZpbGUubWFlPic=

> <r_lp_tautomer_probability>
0.999537

> <r_epik_Ionization_Penalty>
0.00321433

> <r_epik_Ionization_Penalty_Charging>
0.00321431

> <r_epik_Ionization_Penalty_Neutral>
2.02148e-08

> <r_epik_State_Penalty>
0.00226744

> <r_epik_Charging_Adjusted_Penalty>
0.00548175

> <i_epik_Tot_Q>
0

> <i_epik_Tot_abs_Q>
0

> <r_epik_Metal_State_Penalty>
0.364272

> <b_epik_Metal_Only>
0

> <s_lp_Force_Field>
OPLS_2005

> <r_lp_Energy>
14.3008

> <b_lp_Chiralities_Consistent>
1

> <s_lp_Variant>
AV-unprocessed.smi:2967-1

> <Gold.Version>
5.8.1

> <Gold.Id.Protein>
6NUR|6NUR_protein|mol2

> <Gold.PLP.Fitness>
44.6428

> <Gold.PLP.PLP>
-38.8224

> <Gold.PLP.part.hbond>
-3.0000

> <Gold.PLP.part.metal>
0.0000

> <Gold.PLP.part.buried>
-4.0864

> <Gold.PLP.part.nonpolar>
-31.8182

> <Gold.PLP.part.repulsive>
0.6845

> <Gold.PLP.ligand.clash>
0.0000

> <Gold.PLP.ligand.torsion>
0.3997

> <Gold.PLP.Chemscore.Hbond>
2.2015

> <Gold.PLP.Chemscore.CHOScore>
0.0000

> <Gold.PLP.Chemscore.Metal>
0.0000

> <Gold.Chemscore.Hbonds>
donor molecule, donor type, donor heavy atom, donor atom, acceptor molecule, acceptor atom, score
      L1  H     9    20       P1  7948  0.51
      L1  H    12    25       P1  8028  1.00
      P1  H  7989  7998       L1    11  1.00

> <Gold.PLP.Chemscore.Internal.Correction>
0.0153

> <Gold.Rescore>
     Score         DG    S(hbond)    S(metal)    S(lipo)     H(rot)  DE(clash)    DE(int)     intcor
     14.99     -20.62       2.73        0.00      88.31       1.69       1.41       4.22       ----

> <Gold.Chemscore.Fitness>
14.9860

> <Gold.Chemscore.DG>
-20.6168

> <Gold.Chemscore.ZeroCoef>
-5.4800

> <Gold.Chemscore.Hbond>
2.7319

> <Gold.Chemscore.Metal>
0.0000

> <Gold.Chemscore.Lipo>
88.3095

> <Gold.Chemscore.Internal_Hbond>
0.0000

> <Gold.Chemscore.DEClash>
1.4079

> <Gold.Chemscore.DEInternal>
4.2229

> <Gold.Chemscore.Rot>
1.6874

> <Gold.Chemscore.Internal.Correction>
   9.000000E+99

> <Gold.Chemscore.Hbonds>
donor molecule, donor type, donor heavy atom, donor atom, acceptor molecule, acceptor atom, score
      L1  H     9    20       P1  7948  0.50
      L1  H    12    25       P1  8028  0.97
      P1  H  7989  7998       L1    11  0.96

> <Gold.Chemscore.Hbond.Weighted>
-9.1244

> <Gold.Chemscore.Metal.Weighted>
-0.0000

> <Gold.Chemscore.Lipo.Weighted>
-10.3322

> <Gold.Chemscore.Internal_Hbond.Weighted>
0.0000

> <Gold.Chemscore.DEClash.Weighted>
1.4079

> <Gold.Chemscore.DEInternal.Weighted>
4.2229

> <Gold.Chemscore.Rot.Weighted>
4.3198

> <Gold.Chemscore.Internal.Correction.Weighted>
   9.000000E+99

> <Gold.Protein.RotatedTorsions>
[ 6907 6896 6895 6894 ] final  152.32 input  -60.11 | X-H torsion
[ 7974 7965 7964 7962 ] final  -73.54 input  175.53 | X-H torsion
[ 8008 7997 7996 7995 ] final -176.97 input   59.86 | X-H torsion
[ 10167 10162 10161 10158 ] final  -26.97 input  -65.29 | X-H torsion
[ 10718 10713 10712 10709 ] final -145.04 input   66.30 | X-H torsion
[ 10763 10752 10751 10750 ] final  106.60 input  -60.55 | X-H torsion
[ 11005 11000 10999 10996 ] final   29.65 input  -57.11 | X-H torsion

> <Gold.Protein.ActiveResidues>
 VAL166  LYS551  ARG553  GLY616  TRP617  ASP618  TYR619  PRO620  LYS621  CYS622 
 ASP623  PHE694  ASN695  SER759  ASP760  ASP761  ALA762  ILE779  LEU786  VAL792 
 PHE793  MET794  SER795  GLU796  ALA797  LYS798  CYS799  TRP800  GLU811  SER814 

> <Gold.Protein.RotatedAtoms>
  152.0884  133.4188  159.4532 H   0  0  0  0  0  0  0  0  0  0  0  0  # atno 6907 bound_to 6896
  150.6862  134.2901  159.4672 H   0  0  0  0  0  0  0  0  0  0  0  0  # atno 6908 bound_to 6896
  152.0749  134.9508  160.0625 H   0  0  0  0  0  0  0  0  0  0  0  0  # atno 6909 bound_to 6896
  145.6508  140.9283  143.0986 H   0  0  0  0  0  0  0  0  0  0  0  0  # atno 7974 bound_to 7965
  156.0013  140.1221  157.0544 H   0  0  0  0  0  0  0  0  0  0  0  0  # atno 8008 bound_to 7997
  154.4243  140.1106  156.5770 H   0  0  0  0  0  0  0  0  0  0  0  0  # atno 8009 bound_to 7997
  155.6208  140.3472  155.4653 H   0  0  0  0  0  0  0  0  0  0  0  0  # atno 8010 bound_to 7997
  140.7280  143.4133  151.1070 H   0  0  0  0  0  0  0  0  0  0  0  0  # atno 10167 bound_to 10162
  156.3775  130.7820  151.2008 H   0  0  0  0  0  0  0  0  0  0  0  0  # atno 10718 bound_to 10713
  153.3952  135.3872  155.1950 H   0  0  0  0  0  0  0  0  0  0  0  0  # atno 10763 bound_to 10752
  154.8723  135.3758  154.4688 H   0  0  0  0  0  0  0  0  0  0  0  0  # atno 10764 bound_to 10752
  153.5179  135.7087  153.5808 H   0  0  0  0  0  0  0  0  0  0  0  0  # atno 10765 bound_to 10752
  140.3027  134.2739  155.7750 H   0  0  0  0  0  0  0  0  0  0  0  0  # atno 11005 bound_to 11000
  144.7123  139.8324  143.7410 LP  0  0  0  0  0  0  0  0  0  0  0  0  # atno 17320 bound_to 7965
  146.1205  139.4223  143.0231 LP  0  0  0  0  0  0  0  0  0  0  0  0  # atno 17321 bound_to 7965
  139.7769  143.8412  152.3131 LP  0  0  0  0  0  0  0  0  0  0  0  0  # atno 17342 bound_to 10162
  139.8350  144.7236  150.9403 LP  0  0  0  0  0  0  0  0  0  0  0  0  # atno 17343 bound_to 10162
  157.7489  131.0354  150.4361 LP  0  0  0  0  0  0  0  0  0  0  0  0  # atno 17370 bound_to 10713
  156.4599  130.4029  149.6583 LP  0  0  0  0  0  0  0  0  0  0  0  0  # atno 17371 bound_to 10713
  141.2125  133.7656  156.9790 LP  0  0  0  0  0  0  0  0  0  0  0  0  # atno 17394 bound_to 11000
  140.1095  134.9486  157.2044 LP  0  0  0  0  0  0  0  0  0  0  0  0  # atno 17395 bound_to 11000

$$$$
