AV-unprocessed.smi:2881|AV-procd|sdf|11063|dock2
  -GOLD-   2272015533D 1   1.00000     0.00000
 Structure written by MMmdl.
 40 42  0  0  0  0  0  0  0  0  1 V2000
  151.9257  145.9181  160.0521 C   0  0  0  0  0  0  0  0  0  0  0  0
  152.1693  144.4687  159.7502 C   0  0  0  0  0  0  0  0  0  0  0  0
  152.8187  143.4968  160.5668 C   0  0  0  0  0  0  0  0  0  0  0  0
  152.7714  142.3478  159.8277 C   0  0  0  0  0  0  0  0  0  0  0  0
  153.2715  140.9684  160.1129 C   0  0  0  0  0  0  0  0  0  0  0  0
  153.0331  140.0482  158.9163 C   0  0  0  0  0  0  0  0  0  0  0  0
  153.9739  139.4241  158.4263 O   0  0  0  0  0  0  0  0  0  0  0  0
  151.7754  139.9837  158.4534 N   0  0  0  0  0  0  0  0  0  0  0  0
  151.3318  139.1838  157.3139 C   0  0  2  0  0  0  0  0  0  0  0  0
  151.9223  139.7474  156.0023 C   0  0  1  0  0  0  0  0  0  0  0  0
  151.7760  138.6858  154.8977 C   0  0  0  0  0  0  0  0  0  0  0  0
  150.2623  138.7089  154.6140 C   0  0  0  0  0  0  0  0  0  0  0  0
  149.7405  139.7764  155.6007 C   0  0  2  0  0  0  0  0  0  0  0  0
  150.8845  140.7816  155.5753 C   0  0  0  0  0  0  0  0  0  0  0  0
  149.8034  139.2878  157.0680 C   0  0  1  0  0  0  0  0  0  0  0  0
  149.0082  137.9985  157.3531 C   0  0  0  0  0  0  0  0  0  0  0  0
  149.1516  137.6233  158.7058 O   0  0  0  0  0  0  0  0  0  0  0  0
  152.1286  142.6738  158.6548 N   0  0  0  0  0  0  0  0  0  0  0  0
  151.7565  143.9658  158.5962 N   0  0  0  0  0  0  0  0  0  0  0  0
  151.9345  142.0313  157.8994 H   0  0  0  0  0  0  0  0  0  0  0  0
  152.0209  146.1187  161.1195 H   0  0  0  0  0  0  0  0  0  0  0  0
  150.9244  146.2242  159.7468 H   0  0  0  0  0  0  0  0  0  0  0  0
  152.6426  146.5516  159.5296 H   0  0  0  0  0  0  0  0  0  0  0  0
  153.2508  143.6245  161.5483 H   0  0  0  0  0  0  0  0  0  0  0  0
  152.7755  140.5640  160.9964 H   0  0  0  0  0  0  0  0  0  0  0  0
  154.3379  140.9941  160.3408 H   0  0  0  0  0  0  0  0  0  0  0  0
  151.0715  140.5371  158.9198 H   0  0  0  0  0  0  0  0  0  0  0  0
  151.6507  138.1482  157.4476 H   0  0  0  0  0  0  0  0  0  0  0  0
  152.9403  140.1270  156.0991 H   0  0  0  0  0  0  0  0  0  0  0  0
  152.3369  138.9717  154.0071 H   0  0  0  0  0  0  0  0  0  0  0  0
  152.1286  137.7028  155.2124 H   0  0  0  0  0  0  0  0  0  0  0  0
  150.0779  139.0206  153.5850 H   0  0  0  0  0  0  0  0  0  0  0  0
  149.7943  137.7337  154.7434 H   0  0  0  0  0  0  0  0  0  0  0  0
  148.7697  140.1880  155.3225 H   0  0  0  0  0  0  0  0  0  0  0  0
  150.7630  141.5976  156.2899 H   0  0  0  0  0  0  0  0  0  0  0  0
  151.0727  141.2010  154.5851 H   0  0  0  0  0  0  0  0  0  0  0  0
  149.3833  140.0847  157.6855 H   0  0  0  0  0  0  0  0  0  0  0  0
  147.9479  138.1559  157.1538 H   0  0  0  0  0  0  0  0  0  0  0  0
  149.3401  137.1739  156.7226 H   0  0  0  0  0  0  0  0  0  0  0  0
  148.8961  138.3525  159.2498 H   0  0  0  0  0  0  0  0  0  0  0  0
  1 21  1  0  0  0  0
  1 22  1  0  0  0  0
  1 23  1  0  0  0  0
  1  2  1  0  0  0  0
  2 19  2  0  0  0  0
  2  3  1  0  0  0  0
  3  4  2  0  0  0  0
  3 24  1  0  0  0  0
  4 18  1  0  0  0  0
  4  5  1  0  0  0  0
  5  6  1  0  0  0  0
  5 25  1  0  0  0  0
  5 26  1  0  0  0  0
  6  7  2  0  0  0  0
  6  8  1  0  0  0  0
  8  9  1  0  0  0  0
  8 27  1  0  0  0  0
  9 15  1  0  0  0  0
  9 10  1  0  0  0  0
  9 28  1  0  0  0  0
 10 14  1  0  0  0  0
 10 11  1  0  0  0  0
 10 29  1  0  0  0  0
 11 12  1  0  0  0  0
 11 30  1  0  0  0  0
 11 31  1  0  0  0  0
 12 13  1  0  0  0  0
 12 32  1  0  0  0  0
 12 33  1  0  0  0  0
 13 14  1  0  0  0  0
 13 15  1  0  0  0  0
 13 34  1  0  0  0  0
 14 35  1  0  0  0  0
 14 36  1  0  0  0  0
 15 16  1  0  0  0  0
 15 37  1  0  0  0  0
 16 17  1  0  0  0  0
 16 38  1  0  0  0  0
 16 39  1  0  0  0  0
 17 40  1  0  0  0  0
 18 19  1  0  0  0  0
 18 20  1  0  0  0  0
M  END
> <s_m_source_file>
AV-unprocessed.smi

> <i_m_source_file_index>
2881

> <i_lp_mmshare_version>
43012

> <i_f3d_flags>
0

> <s_epik_input>
W0NIM11jMVtjSF1jKG5bbkhdMSlbQ0gyXUMoPU8pW05IXVtDQEhdKFtDQEBIXTIzKVtDQEhdKFtDSDJdW09IXSlbQ0BASF0oW0NIMl0zKVtDSDJdW0NIMl0y

> <s_epik_cmdline>
J2VwaWtfcHl0aG9uJywgJy1waCcsICc3LjAnLCAnLXRuJywgJzgnLCAnLW1hJywgJzIwMCcsICctbWV0YWxfYmluZGluZycsICctaW1hZScsICc8aW5maWxlLm1hZT4nLCAnLW9tYWUnLCAnPG91dGZpbGUubWFlPic=

> <r_lp_tautomer_probability>
0.5

> <r_epik_Ionization_Penalty>
0.00013396

> <r_epik_Ionization_Penalty_Charging>
0

> <r_epik_Ionization_Penalty_Neutral>
0.00013396

> <r_epik_State_Penalty>
0.41068

> <r_epik_Charging_Adjusted_Penalty>
0.41068

> <i_epik_Tot_Q>
0

> <i_epik_Tot_abs_Q>
0

> <r_epik_Metal_State_Penalty>
0.41066

> <b_epik_Metal_Only>
0

> <s_lp_Force_Field>
OPLS_2005

> <r_lp_Energy>
47.2043

> <b_lp_Chiralities_Consistent>
1

> <s_lp_Variant>
AV-unprocessed.smi:2881-9

> <Gold.Version>
5.8.1

> <Gold.Id.Protein>
6NUR|6NUR_protein|mol2

> <Gold.PLP.Fitness>
40.3035

> <Gold.PLP.PLP>
-37.4266

> <Gold.PLP.part.hbond>
-1.0000

> <Gold.PLP.part.metal>
0.0000

> <Gold.PLP.part.buried>
-4.1968

> <Gold.PLP.part.nonpolar>
-31.3519

> <Gold.PLP.part.repulsive>
0.2353

> <Gold.PLP.ligand.clash>
0.0000

> <Gold.PLP.ligand.torsion>
0.0787

> <Gold.PLP.Chemscore.Hbond>
1.0000

> <Gold.PLP.Chemscore.CHOScore>
0.0000

> <Gold.PLP.Chemscore.Metal>
0.0000

> <Gold.Chemscore.Hbonds>
donor molecule, donor type, donor heavy atom, donor atom, acceptor molecule, acceptor atom, score
      P1  H  7997  8010       L1     7  1.00

> <Gold.PLP.Chemscore.Internal.Correction>
0.0343

> <Gold.Rescore>
     Score         DG    S(hbond)    S(metal)    S(lipo)     H(rot)  DE(clash)    DE(int)     intcor
     13.00     -14.55       0.99        0.00      98.96       2.28       0.17       1.38       ----

> <Gold.Chemscore.Fitness>
13.0038

> <Gold.Chemscore.DG>
-14.5530

> <Gold.Chemscore.ZeroCoef>
-5.4800

> <Gold.Chemscore.Hbond>
0.9941

> <Gold.Chemscore.Metal>
0.0000

> <Gold.Chemscore.Lipo>
98.9559

> <Gold.Chemscore.Internal_Hbond>
0.0000

> <Gold.Chemscore.DEClash>
0.1739

> <Gold.Chemscore.DEInternal>
1.3753

> <Gold.Chemscore.Rot>
2.2755

> <Gold.Chemscore.Internal.Correction>
   9.000000E+99

> <Gold.Chemscore.Hbonds>
donor molecule, donor type, donor heavy atom, donor atom, acceptor molecule, acceptor atom, score
      P1  H  7997  8010       L1     7  0.97

> <Gold.Chemscore.Hbond.Weighted>
-3.3203

> <Gold.Chemscore.Metal.Weighted>
-0.0000

> <Gold.Chemscore.Lipo.Weighted>
-11.5778

> <Gold.Chemscore.Internal_Hbond.Weighted>
0.0000

> <Gold.Chemscore.DEClash.Weighted>
0.1739

> <Gold.Chemscore.DEInternal.Weighted>
1.3753

> <Gold.Chemscore.Rot.Weighted>
5.8252

> <Gold.Chemscore.Internal.Correction.Weighted>
   9.000000E+99

> <Gold.Protein.RotatedTorsions>
[ 6907 6896 6895 6894 ] final  131.15 input  -60.11 | X-H torsion
[ 7974 7965 7964 7962 ] final  -33.64 input  175.53 | X-H torsion
[ 8008 7997 7996 7995 ] final   16.19 input   59.86 | X-H torsion
[ 10167 10162 10161 10158 ] final   45.81 input  -65.29 | X-H torsion
[ 10718 10713 10712 10709 ] final -159.13 input   66.30 | X-H torsion
[ 10763 10752 10751 10750 ] final   58.55 input  -60.55 | X-H torsion
[ 11005 11000 10999 10996 ] final   50.78 input  -57.11 | X-H torsion

> <Gold.Protein.ActiveResidues>
 VAL166  LYS551  ARG553  GLY616  TRP617  ASP618  TYR619  PRO620  LYS621  CYS622 
 ASP623  PHE694  ASN695  SER759  ASP760  ASP761  ALA762  ILE779  LEU786  VAL792 
 PHE793  MET794  SER795  GLU796  ALA797  LYS798  CYS799  TRP800  GLU811  SER814 

> <Gold.Protein.RotatedAtoms>
  152.3455  133.6117  159.5906 H   0  0  0  0  0  0  0  0  0  0  0  0  # atno 6907 bound_to 6896
  150.7504  133.9656  159.3538 H   0  0  0  0  0  0  0  0  0  0  0  0  # atno 6908 bound_to 6896
  151.7515  135.0832  160.0382 H   0  0  0  0  0  0  0  0  0  0  0  0  # atno 6909 bound_to 6896
  146.0894  140.5941  142.8871 H   0  0  0  0  0  0  0  0  0  0  0  0  # atno 7974 bound_to 7965
  154.8734  140.2962  155.5468 H   0  0  0  0  0  0  0  0  0  0  0  0  # atno 8008 bound_to 7997
  156.3021  140.2456  156.3659 H   0  0  0  0  0  0  0  0  0  0  0  0  # atno 8009 bound_to 7997
  154.8793  140.0398  157.1762 H   0  0  0  0  0  0  0  0  0  0  0  0  # atno 8010 bound_to 7997
  140.3204  144.2713  150.6184 H   0  0  0  0  0  0  0  0  0  0  0  0  # atno 10167 bound_to 10162
  156.5637  130.8658  151.2817 H   0  0  0  0  0  0  0  0  0  0  0  0  # atno 10718 bound_to 10713
  152.9873  135.5603  154.5570 H   0  0  0  0  0  0  0  0  0  0  0  0  # atno 10763 bound_to 10752
  154.4996  135.2796  155.1433 H   0  0  0  0  0  0  0  0  0  0  0  0  # atno 10764 bound_to 10752
  154.2869  135.6334  153.5422 H   0  0  0  0  0  0  0  0  0  0  0  0  # atno 10765 bound_to 10752
  140.0989  134.5109  155.8781 H   0  0  0  0  0  0  0  0  0  0  0  0  # atno 11005 bound_to 11000
  144.7349  140.4779  143.6911 LP  0  0  0  0  0  0  0  0  0  0  0  0  # atno 17320 bound_to 7965
  145.6068  139.1509  143.3098 LP  0  0  0  0  0  0  0  0  0  0  0  0  # atno 17321 bound_to 7965
  140.5489  143.2210  151.7961 LP  0  0  0  0  0  0  0  0  0  0  0  0  # atno 17342 bound_to 10162
  139.4875  144.4503  151.9662 LP  0  0  0  0  0  0  0  0  0  0  0  0  # atno 17343 bound_to 10162
  157.7363  130.9776  150.2129 LP  0  0  0  0  0  0  0  0  0  0  0  0  # atno 17370 bound_to 10713
  156.2776  130.3729  149.7968 LP  0  0  0  0  0  0  0  0  0  0  0  0  # atno 17371 bound_to 10713
  141.2100  133.6690  156.6477 LP  0  0  0  0  0  0  0  0  0  0  0  0  # atno 17394 bound_to 11000
  140.3248  134.7978  157.4281 LP  0  0  0  0  0  0  0  0  0  0  0  0  # atno 17395 bound_to 11000

$$$$
