AV-unprocessed.smi:1208|AV-procd|sdf|5064|dock1
  -GOLD-   22720 4103D 1   1.00000     0.00000
 Structure written by MMmdl.
 35 36  0  0  0  0  0  0  0  0  2 V2000
  152.1693  144.6301  159.0573 C   0  0  0  0  0  0  0  0  0  0  0  0
  151.3436  143.3339  159.0203 C   0  0  1  0  0  0  0  0  0  0  0  0
  151.3428  142.7641  157.6771 N   0  0  0  0  0  0  0  0  0  0  0  0
  150.7403  141.6296  157.2880 C   0  0  0  0  0  0  0  0  0  0  0  0
  150.0265  140.9585  158.0330 O   0  0  0  0  0  0  0  0  0  0  0  0
  150.9977  141.1514  155.8482 C   0  0  0  0  0  0  0  0  0  0  0  0
  149.7772  140.8252  155.0899 N   0  0  0  0  0  0  0  0  0  0  0  0
  148.8311  141.9321  154.9821 N   0  5  0  0  0  0  0  0  0  0  0  0
  147.6899  141.7608  154.2634 C   0  0  0  0  0  0  0  0  0  0  0  0
  146.8571  142.6516  154.1128 O   0  0  0  0  0  0  0  0  0  0  0  0
  147.4548  140.4637  153.6510 C   0  0  0  0  0  0  0  0  0  0  0  0
  148.3399  139.4555  153.7769 C   0  0  0  0  0  0  0  0  0  0  0  0
  149.5829  139.5991  154.5248 C   0  0  0  0  0  0  0  0  0  0  0  0
  150.4039  138.6878  154.6282 O   0  0  0  0  0  0  0  0  0  0  0  0
  151.8546  142.2867  160.0332 C   0  0  1  0  0  0  0  0  0  0  0  0
  153.3621  141.9877  159.9506 C   0  0  0  0  0  0  0  0  0  0  0  0
  153.7698  141.8727  161.4037 C   0  0  0  0  0  0  0  0  0  0  0  0
  152.8416  142.8825  162.0621 C   0  0  0  0  0  0  0  0  0  0  0  0
  151.6098  142.7185  161.3734 O   0  0  0  0  0  0  0  0  0  0  0  0
  152.1687  145.0663  160.0562 H   0  0  0  0  0  0  0  0  0  0  0  0
  151.7634  145.3765  158.3738 H   0  0  0  0  0  0  0  0  0  0  0  0
  153.2067  144.4494  158.7737 H   0  0  0  0  0  0  0  0  0  0  0  0
  150.3164  143.5803  159.2946 H   0  0  0  0  0  0  0  0  0  0  0  0
  151.8918  143.2520  156.9828 H   0  0  0  0  0  0  0  0  0  0  0  0
  151.5678  141.9167  155.3186 H   0  0  0  0  0  0  0  0  0  0  0  0
  151.6553  140.2818  155.8960 H   0  0  0  0  0  0  0  0  0  0  0  0
  146.5501  140.3046  153.0831 H   0  0  0  0  0  0  0  0  0  0  0  0
  148.1245  138.5086  153.3052 H   0  0  0  0  0  0  0  0  0  0  0  0
  151.3061  141.3539  159.8960 H   0  0  0  0  0  0  0  0  0  0  0  0
  153.5793  141.0845  159.3802 H   0  0  0  0  0  0  0  0  0  0  0  0
  153.9111  142.8078  159.4870 H   0  0  0  0  0  0  0  0  0  0  0  0
  153.5604  140.8695  161.7773 H   0  0  0  0  0  0  0  0  0  0  0  0
  154.8246  142.0920  161.5715 H   0  0  0  0  0  0  0  0  0  0  0  0
  152.7298  142.7214  163.1341 H   0  0  0  0  0  0  0  0  0  0  0  0
  153.2047  143.8982  161.9042 H   0  0  0  0  0  0  0  0  0  0  0  0
  1  2  1  0  0  0  0
  1 20  1  0  0  0  0
  1 21  1  0  0  0  0
  1 22  1  0  0  0  0
  2  3  1  0  0  0  0
  2 15  1  0  0  0  0
  2 23  1  0  0  0  0
  3  4  1  0  0  0  0
  3 24  1  0  0  0  0
  4  5  2  0  0  0  0
  4  6  1  0  0  0  0
  6 25  1  0  0  0  0
  6 26  1  0  0  0  0
  6  7  1  0  0  0  0
  7  8  1  0  0  0  0
  7 13  1  0  0  0  0
  8  9  1  0  0  0  0
  9 10  2  0  0  0  0
  9 11  1  0  0  0  0
 11 27  1  0  0  0  0
 11 12  2  0  0  0  0
 12 28  1  0  0  0  0
 12 13  1  0  0  0  0
 13 14  2  0  0  0  0
 15 19  1  0  0  0  0
 15 16  1  0  0  0  0
 15 29  1  0  0  0  0
 16 17  1  0  0  0  0
 16 30  1  0  0  0  0
 16 31  1  0  0  0  0
 17 18  1  0  0  0  0
 17 32  1  0  0  0  0
 17 33  1  0  0  0  0
 18 19  1  0  0  0  0
 18 34  1  0  0  0  0
 18 35  1  0  0  0  0
M  CHG  1   8  -1
M  END
> <s_m_source_file>
AV-unprocessed.smi

> <i_m_source_file_index>
1208

> <i_lp_mmshare_version>
43012

> <i_f3d_flags>
0

> <s_epik_input>
TzFbQ0gyXVtDSDJdW0NIMl1bQ0BIXTFbQ0BIXShbQ0gzXSlbTkhdQyg9TylbQ0gyXW4yW25IXWMoPU8pW2NIXVtjSF1jMj1P

> <s_epik_cmdline>
J2VwaWtfcHl0aG9uJywgJy1waCcsICc3LjAnLCAnLXRuJywgJzgnLCAnLW1hJywgJzIwMCcsICctbWV0YWxfYmluZGluZycsICctaW1hZScsICc8aW5maWxlLm1hZT4nLCAnLW9tYWUnLCAnPG91dGZpbGUubWFlPic=

> <r_lp_tautomer_probability>
1

> <r_epik_Ionization_Penalty>
0.0975494

> <r_epik_Ionization_Penalty_Charging>
0.0975494

> <r_epik_Ionization_Penalty_Neutral>
2.30132e-08

> <r_epik_State_Penalty>
0.034345

> <r_epik_Charging_Adjusted_Penalty>
0.131894

> <i_epik_Tot_Q>
-1

> <i_epik_Tot_abs_Q>
1

> <r_epik_Metal_State_Penalty>
0.034345

> <b_epik_Metal_Only>
0

> <s_lp_Force_Field>
OPLS_2005

> <r_lp_Energy>
31.4648

> <b_lp_Chiralities_Consistent>
1

> <s_lp_Variant>
AV-unprocessed.smi:1208-4

> <Gold.Version>
5.8.1

> <Gold.Id.Protein>
6NUR|6NUR_protein|mol2

> <Gold.PLP.Fitness>
40.5313

> <Gold.PLP.PLP>
-39.3790

> <Gold.PLP.part.hbond>
-1.0000

> <Gold.PLP.part.metal>
0.0000

> <Gold.PLP.part.buried>
-4.3737

> <Gold.PLP.part.nonpolar>
-36.4968

> <Gold.PLP.part.repulsive>
2.0806

> <Gold.PLP.ligand.clash>
0.0000

> <Gold.PLP.ligand.torsion>
0.2077

> <Gold.PLP.Chemscore.Hbond>
0.5120

> <Gold.PLP.Chemscore.CHOScore>
0.0000

> <Gold.PLP.Chemscore.Metal>
0.0000

> <Gold.Chemscore.Hbonds>
donor molecule, donor type, donor heavy atom, donor atom, acceptor molecule, acceptor atom, score
      P1  H  6933  6945       L1    19  0.51

> <Gold.PLP.Chemscore.Internal.Correction>
0.0317

> <Gold.Rescore>
     Score         DG    S(hbond)    S(metal)    S(lipo)     H(rot)  DE(clash)    DE(int)     intcor
     10.84     -11.74       0.49        0.00      83.19       1.99       0.05       0.84       ----

> <Gold.Chemscore.Fitness>
10.8401

> <Gold.Chemscore.DG>
-11.7364

> <Gold.Chemscore.ZeroCoef>
-5.4800

> <Gold.Chemscore.Hbond>
0.4873

> <Gold.Chemscore.Metal>
0.0000

> <Gold.Chemscore.Lipo>
83.1926

> <Gold.Chemscore.Internal_Hbond>
0.0000

> <Gold.Chemscore.DEClash>
0.0527

> <Gold.Chemscore.DEInternal>
0.8437

> <Gold.Chemscore.Rot>
1.9940

> <Gold.Chemscore.Internal.Correction>
   9.000000E+99

> <Gold.Chemscore.Hbonds>
donor molecule, donor type, donor heavy atom, donor atom, acceptor molecule, acceptor atom, score
      P1  H  6933  6945       L1    19  0.40

> <Gold.Chemscore.Hbond.Weighted>
-1.6276

> <Gold.Chemscore.Metal.Weighted>
-0.0000

> <Gold.Chemscore.Lipo.Weighted>
-9.7335

> <Gold.Chemscore.Internal_Hbond.Weighted>
0.0000

> <Gold.Chemscore.DEClash.Weighted>
0.0527

> <Gold.Chemscore.DEInternal.Weighted>
0.8437

> <Gold.Chemscore.Rot.Weighted>
5.1047

> <Gold.Chemscore.Internal.Correction.Weighted>
   9.000000E+99

> <Gold.Protein.RotatedTorsions>
[ 6907 6896 6895 6894 ] final -179.07 input  -60.11 | X-H torsion
[ 7974 7965 7964 7962 ] final  168.09 input  175.53 | X-H torsion
[ 8008 7997 7996 7995 ] final   82.78 input   59.86 | X-H torsion
[ 10167 10162 10161 10158 ] final -161.05 input  -65.29 | X-H torsion
[ 10718 10713 10712 10709 ] final   72.43 input   66.30 | X-H torsion
[ 10763 10752 10751 10750 ] final    4.36 input  -60.55 | X-H torsion
[ 11005 11000 10999 10996 ] final  172.75 input  -57.11 | X-H torsion

> <Gold.Protein.ActiveResidues>
 VAL166  LYS551  ARG553  GLY616  TRP617  ASP618  TYR619  PRO620  LYS621  CYS622 
 ASP623  PHE694  ASN695  SER759  ASP760  ASP761  ALA762  ILE779  LEU786  VAL792 
 PHE793  MET794  SER795  GLU796  ALA797  LYS798  CYS799  TRP800  GLU811  SER814 

> <Gold.Protein.RotatedAtoms>
  151.6475  133.3322  159.3144 H   0  0  0  0  0  0  0  0  0  0  0  0  # atno 6907 bound_to 6896
  150.7977  134.7052  159.6582 H   0  0  0  0  0  0  0  0  0  0  0  0  # atno 6908 bound_to 6896
  152.4065  134.6201  160.0100 H   0  0  0  0  0  0  0  0  0  0  0  0  # atno 6909 bound_to 6896
  144.7401  139.8857  143.6399 H   0  0  0  0  0  0  0  0  0  0  0  0  # atno 7974 bound_to 7965
  155.9151  140.3425  155.6129 H   0  0  0  0  0  0  0  0  0  0  0  0  # atno 8008 bound_to 7997
  155.7341  140.0799  157.2294 H   0  0  0  0  0  0  0  0  0  0  0  0  # atno 8009 bound_to 7997
  154.4061  140.1583  156.2529 H   0  0  0  0  0  0  0  0  0  0  0  0  # atno 8010 bound_to 7997
  139.6493  144.0113  152.2150 H   0  0  0  0  0  0  0  0  0  0  0  0  # atno 10167 bound_to 10162
  157.6500  130.9578  150.0927 H   0  0  0  0  0  0  0  0  0  0  0  0  # atno 10718 bound_to 10713
  153.2722  135.6933  153.7469 H   0  0  0  0  0  0  0  0  0  0  0  0  # atno 10763 bound_to 10752
  153.6489  135.3380  155.3094 H   0  0  0  0  0  0  0  0  0  0  0  0  # atno 10764 bound_to 10752
  154.8467  135.4449  154.1748 H   0  0  0  0  0  0  0  0  0  0  0  0  # atno 10765 bound_to 10752
  140.3330  134.7341  157.4148 H   0  0  0  0  0  0  0  0  0  0  0  0  # atno 11005 bound_to 11000
  146.1179  139.4192  143.0247 LP  0  0  0  0  0  0  0  0  0  0  0  0  # atno 17320 bound_to 7965
  145.7348  141.0029  143.1332 LP  0  0  0  0  0  0  0  0  0  0  0  0  # atno 17321 bound_to 7965
  139.9823  144.6420  150.7889 LP  0  0  0  0  0  0  0  0  0  0  0  0  # atno 17342 bound_to 10162
  140.7530  143.3000  151.3104 LP  0  0  0  0  0  0  0  0  0  0  0  0  # atno 17343 bound_to 10162
  156.1872  130.3653  149.8957 LP  0  0  0  0  0  0  0  0  0  0  0  0  # atno 17370 bound_to 10713
  156.6895  130.8890  151.3586 LP  0  0  0  0  0  0  0  0  0  0  0  0  # atno 17371 bound_to 10713
  140.0844  134.5686  155.8507 LP  0  0  0  0  0  0  0  0  0  0  0  0  # atno 17394 bound_to 11000
  141.2058  133.6650  156.6205 LP  0  0  0  0  0  0  0  0  0  0  0  0  # atno 17395 bound_to 11000

$$$$
