AV-unprocessed.smi:3262|AV-procd|sdf|12485|dock6
  -GOLD-   2272018383D 1   1.00000     0.00000
 Structure written by MMmdl.
 40 41  0  0  0  0  0  0  0  0  2 V2000
  152.7599  140.4595  158.2510 O   0  0  0  0  0  0  0  0  0  0  0  0
  152.2596  141.5849  158.2975 C   0  0  0  0  0  0  0  0  0  0  0  0
  151.1783  141.9095  157.5660 N   0  0  0  0  0  0  0  0  0  0  0  0
  150.4595  141.0032  156.6776 C   0  0  0  0  0  0  0  0  0  0  0  0
  150.3297  141.5902  155.2585 C   0  0  0  0  0  0  0  0  0  0  0  0
  148.9824  141.3743  154.5816 C   0  0  0  0  0  0  0  0  0  0  0  0
  148.5302  140.1273  154.0873 C   0  0  0  0  0  0  0  0  0  0  0  0
  147.2595  140.0432  153.4805 C   0  0  0  0  0  0  0  0  0  0  0  0
  146.4635  141.2021  153.3779 C   0  0  0  0  0  0  0  0  0  0  0  0
  146.9600  142.4189  153.8862 C   0  0  0  0  0  0  0  0  0  0  0  0
  148.1823  142.4589  154.4604 N   0  3  0  0  0  0  0  0  0  0  0  0
  152.7790  142.6011  159.0371 N   0  0  0  0  0  0  0  0  0  0  0  0
  152.3315  144.0079  158.9413 C   0  0  0  0  0  0  0  0  0  0  0  0
  152.3357  144.7919  160.2714 C   0  0  0  0  0  0  0  0  0  0  0  0
  151.7314  144.0334  161.4676 C   0  0  0  0  0  0  0  0  0  0  0  0
  152.7526  143.1450  162.1978 C   0  0  0  0  0  0  0  0  0  0  0  0
  153.2532  141.9397  161.3866 C   0  0  0  0  0  0  0  0  0  0  0  0
  153.8410  142.3197  160.0156 C   0  0  0  0  0  0  0  0  0  0  0  0
  150.8329  142.8563  157.6312 H   0  0  0  0  0  0  0  0  0  0  0  0
  151.0108  140.0630  156.6459 H   0  0  0  0  0  0  0  0  0  0  0  0
  149.4772  140.7810  157.0981 H   0  0  0  0  0  0  0  0  0  0  0  0
  150.5168  142.6644  155.2875 H   0  0  0  0  0  0  0  0  0  0  0  0
  151.1025  141.1608  154.6193 H   0  0  0  0  0  0  0  0  0  0  0  0
  149.1351  139.2365  154.1649 H   0  0  0  0  0  0  0  0  0  0  0  0
  146.8990  139.0993  153.0985 H   0  0  0  0  0  0  0  0  0  0  0  0
  145.4874  141.1579  152.9173 H   0  0  0  0  0  0  0  0  0  0  0  0
  146.4208  143.3542  153.8518 H   0  0  0  0  0  0  0  0  0  0  0  0
  152.9503  144.5246  158.2067 H   0  0  0  0  0  0  0  0  0  0  0  0
  151.3075  144.0644  158.5698 H   0  0  0  0  0  0  0  0  0  0  0  0
  153.3445  145.1269  160.5150 H   0  0  0  0  0  0  0  0  0  0  0  0
  151.7654  145.7087  160.1166 H   0  0  0  0  0  0  0  0  0  0  0  0
  151.3603  144.7675  162.1836 H   0  0  0  0  0  0  0  0  0  0  0  0
  150.8618  143.4523  161.1578 H   0  0  0  0  0  0  0  0  0  0  0  0
  153.6046  143.7535  162.5035 H   0  0  0  0  0  0  0  0  0  0  0  0
  152.3051  142.7788  163.1224 H   0  0  0  0  0  0  0  0  0  0  0  0
  154.0226  141.4331  161.9700 H   0  0  0  0  0  0  0  0  0  0  0  0
  152.4484  141.2135  161.2649 H   0  0  0  0  0  0  0  0  0  0  0  0
  154.4737  141.5051  159.6586 H   0  0  0  0  0  0  0  0  0  0  0  0
  154.5206  143.1676  160.1066 H   0  0  0  0  0  0  0  0  0  0  0  0
  148.5186  143.3517  154.8222 H   0  0  0  0  0  0  0  0  0  0  0  0
  1  2  2  0  0  0  0
  2  3  1  0  0  0  0
  2 12  1  0  0  0  0
  3  4  1  0  0  0  0
  3 19  1  0  0  0  0
  4  5  1  0  0  0  0
  4 20  1  0  0  0  0
  4 21  1  0  0  0  0
  5  6  1  0  0  0  0
  5 22  1  0  0  0  0
  5 23  1  0  0  0  0
  6 11  1  0  0  0  0
  6  7  2  0  0  0  0
  7  8  1  0  0  0  0
  7 24  1  0  0  0  0
  8  9  2  0  0  0  0
  8 25  1  0  0  0  0
  9 10  1  0  0  0  0
  9 26  1  0  0  0  0
 10 11  2  0  0  0  0
 10 27  1  0  0  0  0
 11 40  1  0  0  0  0
 12 18  1  0  0  0  0
 12 13  1  0  0  0  0
 13 14  1  0  0  0  0
 13 28  1  0  0  0  0
 13 29  1  0  0  0  0
 14 15  1  0  0  0  0
 14 30  1  0  0  0  0
 14 31  1  0  0  0  0
 15 16  1  0  0  0  0
 15 32  1  0  0  0  0
 15 33  1  0  0  0  0
 16 17  1  0  0  0  0
 16 34  1  0  0  0  0
 16 35  1  0  0  0  0
 17 18  1  0  0  0  0
 17 36  1  0  0  0  0
 17 37  1  0  0  0  0
 18 38  1  0  0  0  0
 18 39  1  0  0  0  0
M  CHG  1  11   1
M  END
> <s_m_source_file>
AV-unprocessed.smi

> <i_m_source_file_index>
3262

> <i_lp_mmshare_version>
43012

> <i_f3d_flags>
0

> <s_epik_input>
W0NIMl0xW0NIMl1bQ0gyXVtDSDJdW0NIMl1bQ0gyXU4xQyg9TylbTkhdW0NIMl1bQ0gyXWMyW2NIXVtjSF1bY0hdW2NIXW4y

> <s_epik_cmdline>
J2VwaWtfcHl0aG9uJywgJy1waCcsICc3LjAnLCAnLXRuJywgJzgnLCAnLW1hJywgJzIwMCcsICctbWV0YWxfYmluZGluZycsICctaW1hZScsICc8aW5maWxlLm1hZT4nLCAnLW9tYWUnLCAnPG91dGZpbGUubWFlPic=

> <r_epik_Ionization_Penalty>
1.55113

> <r_epik_Ionization_Penalty_Charging>
1.55107

> <r_epik_Ionization_Penalty_Neutral>
5.98909e-05

> <r_epik_State_Penalty>
1.64529

> <r_epik_Charging_Adjusted_Penalty>
3.19637

> <i_epik_Tot_Q>
1

> <i_epik_Tot_abs_Q>
1

> <r_epik_Metal_State_Penalty>
1.68744

> <b_epik_Metal_Only>
0

> <s_lp_Force_Field>
OPLS_2005

> <r_lp_Energy>
39.791

> <b_lp_Chiralities_Consistent>
1

> <s_lp_Variant>
AV-unprocessed.smi:3262-2

> <Gold.Version>
5.8.1

> <Gold.Id.Protein>
6NUR|6NUR_protein|mol2

> <Gold.PLP.Fitness>
48.5138

> <Gold.PLP.PLP>
-41.8977

> <Gold.PLP.part.hbond>
-1.9359

> <Gold.PLP.part.metal>
0.0000

> <Gold.PLP.part.buried>
-1.1944

> <Gold.PLP.part.nonpolar>
-37.6400

> <Gold.PLP.part.repulsive>
0.2638

> <Gold.PLP.ligand.clash>
0.0000

> <Gold.PLP.ligand.torsion>
0.4814

> <Gold.PLP.Chemscore.Hbond>
2.5236

> <Gold.PLP.Chemscore.CHOScore>
0.0000

> <Gold.PLP.Chemscore.Metal>
0.0000

> <Gold.Chemscore.Hbonds>
donor molecule, donor type, donor heavy atom, donor atom, acceptor molecule, acceptor atom, score
      L1  H    11    40       P1  8028  2.00
      P1  H  7997  8009       L1     1  0.45

> <Gold.PLP.Chemscore.Internal.Correction>
0.0079

> <Gold.Rescore>
     Score         DG    S(hbond)    S(metal)    S(lipo)     H(rot)  DE(clash)    DE(int)     intcor
     19.70     -21.48       1.59        0.00     120.57       1.34       1.31       0.47       ----

> <Gold.Chemscore.Fitness>
19.7027

> <Gold.Chemscore.DG>
-21.4781

> <Gold.Chemscore.ZeroCoef>
-5.4800

> <Gold.Chemscore.Hbond>
1.5945

> <Gold.Chemscore.Metal>
0.0000

> <Gold.Chemscore.Lipo>
120.5694

> <Gold.Chemscore.Internal_Hbond>
0.0000

> <Gold.Chemscore.DEClash>
1.3058

> <Gold.Chemscore.DEInternal>
0.4696

> <Gold.Chemscore.Rot>
1.3415

> <Gold.Chemscore.Internal.Correction>
   9.000000E+99

> <Gold.Chemscore.Hbonds>
donor molecule, donor type, donor heavy atom, donor atom, acceptor molecule, acceptor atom, score
      L1  H    11    40       P1  8028  0.99
      P1  H  7997  8009       L1     1  0.43

> <Gold.Chemscore.Hbond.Weighted>
-5.3257

> <Gold.Chemscore.Metal.Weighted>
-0.0000

> <Gold.Chemscore.Lipo.Weighted>
-14.1066

> <Gold.Chemscore.Internal_Hbond.Weighted>
0.0000

> <Gold.Chemscore.DEClash.Weighted>
1.3058

> <Gold.Chemscore.DEInternal.Weighted>
0.4696

> <Gold.Chemscore.Rot.Weighted>
3.4342

> <Gold.Chemscore.Internal.Correction.Weighted>
   9.000000E+99

> <Gold.Protein.RotatedTorsions>
[ 6907 6896 6895 6894 ] final  -51.46 input  -60.11 | X-H torsion
[ 7974 7965 7964 7962 ] final -127.87 input  175.53 | X-H torsion
[ 8008 7997 7996 7995 ] final  162.85 input   59.86 | X-H torsion
[ 10167 10162 10161 10158 ] final   62.83 input  -65.29 | X-H torsion
[ 10718 10713 10712 10709 ] final   54.60 input   66.30 | X-H torsion
[ 10763 10752 10751 10750 ] final   33.84 input  -60.55 | X-H torsion
[ 11005 11000 10999 10996 ] final   94.70 input  -57.11 | X-H torsion

> <Gold.Protein.ActiveResidues>
 VAL166  LYS551  ARG553  GLY616  TRP617  ASP618  TYR619  PRO620  LYS621  CYS622 
 ASP623  PHE694  ASN695  SER759  ASP760  ASP761  ALA762  ILE779  LEU786  VAL792 
 PHE793  MET794  SER795  GLU796  ALA797  LYS798  CYS799  TRP800  GLU811  SER814 

> <Gold.Protein.RotatedAtoms>
  150.8609  134.7960  159.7081 H   0  0  0  0  0  0  0  0  0  0  0  0  # atno 6907 bound_to 6896
  152.4646  134.5102  159.9761 H   0  0  0  0  0  0  0  0  0  0  0  0  # atno 6908 bound_to 6896
  151.5206  133.3429  159.2936 H   0  0  0  0  0  0  0  0  0  0  0  0  # atno 6909 bound_to 6896
  144.9728  140.7562  143.4660 H   0  0  0  0  0  0  0  0  0  0  0  0  # atno 7974 bound_to 7965
  156.2001  140.1739  156.7917 H   0  0  0  0  0  0  0  0  0  0  0  0  # atno 8008 bound_to 7997
  154.5580  140.0705  156.8806 H   0  0  0  0  0  0  0  0  0  0  0  0  # atno 8009 bound_to 7997
  155.2901  140.3355  155.4255 H   0  0  0  0  0  0  0  0  0  0  0  0  # atno 8010 bound_to 7997
  140.1396  144.4566  150.6818 H   0  0  0  0  0  0  0  0  0  0  0  0  # atno 10167 bound_to 10162
  157.5271  130.8605  149.8637 H   0  0  0  0  0  0  0  0  0  0  0  0  # atno 10718 bound_to 10713
  153.0192  135.6376  154.1575 H   0  0  0  0  0  0  0  0  0  0  0  0  # atno 10763 bound_to 10752
  154.1311  135.2840  155.3186 H   0  0  0  0  0  0  0  0  0  0  0  0  # atno 10764 bound_to 10752
  154.6194  135.5530  153.7620 H   0  0  0  0  0  0  0  0  0  0  0  0  # atno 10765 bound_to 10752
  139.8796  134.8859  156.3902 H   0  0  0  0  0  0  0  0  0  0  0  0  # atno 11005 bound_to 11000
  145.2534  139.2022  143.4930 LP  0  0  0  0  0  0  0  0  0  0  0  0  # atno 17320 bound_to 7965
  146.3387  140.2451  142.8597 LP  0  0  0  0  0  0  0  0  0  0  0  0  # atno 17321 bound_to 7965
  140.6768  143.2309  151.5486 LP  0  0  0  0  0  0  0  0  0  0  0  0  # atno 17342 bound_to 10162
  139.5479  144.2473  152.1476 LP  0  0  0  0  0  0  0  0  0  0  0  0  # atno 17343 bound_to 10162
  156.0395  130.3742  150.1472 LP  0  0  0  0  0  0  0  0  0  0  0  0  # atno 17370 bound_to 10713
  156.9658  130.9819  151.3469 LP  0  0  0  0  0  0  0  0  0  0  0  0  # atno 17371 bound_to 10713
  140.9338  133.7561  156.0058 LP  0  0  0  0  0  0  0  0  0  0  0  0  # atno 17394 bound_to 11000
  140.8300  134.3190  157.5352 LP  0  0  0  0  0  0  0  0  0  0  0  0  # atno 17395 bound_to 11000

$$$$
