AV-unprocessed.smi:3287|AV-procd|sdf|12591|dock1
  -GOLD-   2272018513D 1   1.00000     0.00000
 Structure written by MMmdl.
 43 44  0  0  0  0  0  0  0  0  2 V2000
  146.1878  131.7560  151.2350 C   0  0  0  0  0  0  0  0  0  0  0  0
  144.9120  132.4044  151.8095 C   0  0  1  0  0  0  0  0  0  0  0  0
  145.2059  133.1877  153.1052 C   0  0  0  0  0  0  0  0  0  0  0  0
  145.9563  134.5030  152.8355 C   0  0  0  0  0  0  0  0  0  0  0  0
  145.1932  135.3958  151.8408 C   0  0  1  0  0  0  0  0  0  0  0  0
  145.9634  136.6325  151.5840 N   0  3  0  0  0  0  0  0  0  0  0  0
  145.7030  137.7452  152.5230 C   0  0  0  0  0  0  0  0  0  0  0  0
  146.6406  138.9359  152.2585 C   0  0  2  0  0  0  0  0  0  0  0  0
  147.8524  138.4498  151.7137 O   0  0  0  0  0  0  0  0  0  0  0  0
  146.8737  139.7408  153.5276 C   0  0  0  0  0  0  0  0  0  0  0  0
  147.6350  140.9279  153.4916 C   0  0  0  0  0  0  0  0  0  0  0  0
  147.8192  141.6472  154.6896 C   0  0  0  0  0  0  0  0  0  0  0  0
  147.3018  141.2591  155.8746 N   0  0  0  0  0  0  0  0  0  0  0  0
  146.5718  140.1238  155.9038 C   0  0  0  0  0  0  0  0  0  0  0  0
  146.3270  139.3323  154.7639 C   0  0  0  0  0  0  0  0  0  0  0  0
  144.9037  134.6257  150.5347 C   0  0  0  0  0  0  0  0  0  0  0  0
  144.1506  133.3069  150.8051 C   0  0  1  0  0  0  0  0  0  0  0  0
  143.7773  132.5843  149.5002 C   0  0  0  0  0  0  0  0  0  0  0  0
  146.8986  132.4964  150.8697 H   0  0  0  0  0  0  0  0  0  0  0  0
  145.9566  131.0829  150.4095 H   0  0  0  0  0  0  0  0  0  0  0  0
  146.6961  131.1607  151.9942 H   0  0  0  0  0  0  0  0  0  0  0  0
  144.2471  131.5827  152.0803 H   0  0  0  0  0  0  0  0  0  0  0  0
  144.2646  133.4139  153.6080 H   0  0  0  0  0  0  0  0  0  0  0  0
  145.7753  132.5693  153.8000 H   0  0  0  0  0  0  0  0  0  0  0  0
  146.0995  135.0357  153.7765 H   0  0  0  0  0  0  0  0  0  0  0  0
  146.9550  134.2864  152.4542 H   0  0  0  0  0  0  0  0  0  0  0  0
  144.2464  135.6753  152.3056 H   0  0  0  0  0  0  0  0  0  0  0  0
  146.9442  136.4047  151.6669 H   0  0  0  0  0  0  0  0  0  0  0  0
  144.6681  138.0702  152.4136 H   0  0  0  0  0  0  0  0  0  0  0  0
  145.8217  137.3940  153.5491 H   0  0  0  0  0  0  0  0  0  0  0  0
  146.1896  139.5923  151.5128 H   0  0  0  0  0  0  0  0  0  0  0  0
  148.5144  139.1177  151.8129 H   0  0  0  0  0  0  0  0  0  0  0  0
  148.0701  141.2845  152.5697 H   0  0  0  0  0  0  0  0  0  0  0  0
  148.3967  142.5598  154.6956 H   0  0  0  0  0  0  0  0  0  0  0  0
  146.1684  139.8374  156.8638 H   0  0  0  0  0  0  0  0  0  0  0  0
  145.7322  138.4341  154.8427 H   0  0  0  0  0  0  0  0  0  0  0  0
  144.3048  135.2412  149.8635 H   0  0  0  0  0  0  0  0  0  0  0  0
  145.8368  134.4221  150.0077 H   0  0  0  0  0  0  0  0  0  0  0  0
  143.2063  133.5758  151.2816 H   0  0  0  0  0  0  0  0  0  0  0  0
  144.6573  132.3466  148.9025 H   0  0  0  0  0  0  0  0  0  0  0  0
  143.1247  133.2042  148.8848 H   0  0  0  0  0  0  0  0  0  0  0  0
  143.2473  131.6534  149.7036 H   0  0  0  0  0  0  0  0  0  0  0  0
  145.7869  136.9412  150.6388 H   0  0  0  0  0  0  0  0  0  0  0  0
  1  2  1  0  0  0  0
  1 19  1  0  0  0  0
  1 20  1  0  0  0  0
  1 21  1  0  0  0  0
  2 17  1  0  0  0  0
  2  3  1  0  0  0  0
  2 22  1  0  0  0  0
  3  4  1  0  0  0  0
  3 23  1  0  0  0  0
  3 24  1  0  0  0  0
  4  5  1  0  0  0  0
  4 25  1  0  0  0  0
  4 26  1  0  0  0  0
  5  6  1  0  0  0  0
  5 16  1  0  0  0  0
  5 27  1  0  0  0  0
  6  7  1  0  0  0  0
  6 28  1  0  0  0  0
  6 43  1  0  0  0  0
  7  8  1  0  0  0  0
  7 29  1  0  0  0  0
  7 30  1  0  0  0  0
  8  9  1  0  0  0  0
  8 10  1  0  0  0  0
  8 31  1  0  0  0  0
  9 32  1  0  0  0  0
 10 15  1  0  0  0  0
 10 11  2  0  0  0  0
 11 12  1  0  0  0  0
 11 33  1  0  0  0  0
 12 13  2  0  0  0  0
 12 34  1  0  0  0  0
 13 14  1  0  0  0  0
 14 15  2  0  0  0  0
 14 35  1  0  0  0  0
 15 36  1  0  0  0  0
 16 17  1  0  0  0  0
 16 37  1  0  0  0  0
 16 38  1  0  0  0  0
 17 18  1  0  0  0  0
 17 39  1  0  0  0  0
 18 40  1  0  0  0  0
 18 41  1  0  0  0  0
 18 42  1  0  0  0  0
M  CHG  1   6   1
M  END
> <s_m_source_file>
AV-unprocessed.smi

> <i_m_source_file_index>
3287

> <i_lp_mmshare_version>
43012

> <i_f3d_flags>
0

> <s_epik_input>
W0NIM11bQ0BASF0xW0NIMl1bQ0gyXVtDQEhdKFtDSDJdW0NASF0xW0NIM10pW05IXVtDSDJdW0NASF0oW09IXSljMltjSF1bY0hdbltjSF1bY0hdMg==

> <s_epik_cmdline>
J2VwaWtfcHl0aG9uJywgJy1waCcsICc3LjAnLCAnLXRuJywgJzgnLCAnLW1hJywgJzIwMCcsICctbWV0YWxfYmluZGluZycsICctaW1hZScsICc8aW5maWxlLm1hZT4nLCAnLW9tYWUnLCAnPG91dGZpbGUubWFlPic=

> <r_lp_tautomer_probability>
1

> <r_epik_Ionization_Penalty>
0.00537262

> <r_epik_Ionization_Penalty_Charging>
0.00321624

> <r_epik_Ionization_Penalty_Neutral>
0.00215638

> <r_epik_State_Penalty>
-0

> <r_epik_Charging_Adjusted_Penalty>
0.00321624

> <i_epik_Tot_Q>
1

> <i_epik_Tot_abs_Q>
1

> <r_epik_Metal_State_Penalty>
-0

> <b_epik_Metal_Only>
0

> <s_lp_Force_Field>
OPLS_2005

> <r_lp_Energy>
17.4427

> <b_lp_Chiralities_Consistent>
1

> <s_lp_Variant>
AV-unprocessed.smi:3287-2

> <Gold.Version>
5.8.1

> <Gold.Id.Protein>
6NUR|6NUR_protein|mol2

> <Gold.PLP.Fitness>
44.7394

> <Gold.PLP.PLP>
-31.4844

> <Gold.PLP.part.hbond>
-3.4366

> <Gold.PLP.part.metal>
0.0000

> <Gold.PLP.part.buried>
-1.5211

> <Gold.PLP.part.nonpolar>
-28.2189

> <Gold.PLP.part.repulsive>
0.1261

> <Gold.PLP.ligand.clash>
0.0000

> <Gold.PLP.ligand.torsion>
0.7507

> <Gold.PLP.Chemscore.Hbond>
3.9040

> <Gold.PLP.Chemscore.CHOScore>
1.0000

> <Gold.PLP.Chemscore.Metal>
0.0000

> <Gold.Chemscore.Hbonds>
donor molecule, donor type, donor heavy atom, donor atom, acceptor molecule, acceptor atom, score
      L1  H     6    28       P1  7948  2.00
      L1  H     9    32       P1  7957  0.94
      P1  H  7954  7966       L1     9  0.93
      L1  C    12    34       P1  8028  1.00

> <Gold.PLP.Chemscore.Internal.Correction>
0.0443

> <Gold.Rescore>
     Score         DG    S(hbond)    S(metal)    S(lipo)     H(rot)  DE(clash)    DE(int)     intcor
     16.49     -17.96       2.14        0.00      87.30       1.90       0.44       1.03       ----

> <Gold.Chemscore.Fitness>
16.4870

> <Gold.Chemscore.DG>
-17.9610

> <Gold.Chemscore.ZeroCoef>
-5.4800

> <Gold.Chemscore.Hbond>
2.1378

> <Gold.Chemscore.Metal>
0.0000

> <Gold.Chemscore.Lipo>
87.2971

> <Gold.Chemscore.Internal_Hbond>
0.0000

> <Gold.Chemscore.DEClash>
0.4431

> <Gold.Chemscore.DEInternal>
1.0309

> <Gold.Chemscore.Rot>
1.9035

> <Gold.Chemscore.Internal.Correction>
   9.000000E+99

> <Gold.Chemscore.Hbonds>
donor molecule, donor type, donor heavy atom, donor atom, acceptor molecule, acceptor atom, score
      L1  H     6    28       P1  7948  0.97
      L1  H     9    32       P1  7957  0.82
      P1  H  7954  7966       L1     9  0.23

> <Gold.Chemscore.Hbond.Weighted>
-7.1401

> <Gold.Chemscore.Metal.Weighted>
-0.0000

> <Gold.Chemscore.Lipo.Weighted>
-10.2138

> <Gold.Chemscore.Internal_Hbond.Weighted>
0.0000

> <Gold.Chemscore.DEClash.Weighted>
0.4431

> <Gold.Chemscore.DEInternal.Weighted>
1.0309

> <Gold.Chemscore.Rot.Weighted>
4.8729

> <Gold.Chemscore.Internal.Correction.Weighted>
   9.000000E+99

> <Gold.Protein.RotatedTorsions>
[ 6907 6896 6895 6894 ] final  -52.48 input  -60.11 | X-H torsion
[ 7974 7965 7964 7962 ] final -147.51 input  175.53 | X-H torsion
[ 8008 7997 7996 7995 ] final -120.74 input   59.86 | X-H torsion
[ 10167 10162 10161 10158 ] final -149.26 input  -65.29 | X-H torsion
[ 10718 10713 10712 10709 ] final    2.75 input   66.30 | X-H torsion
[ 10763 10752 10751 10750 ] final   97.84 input  -60.55 | X-H torsion
[ 11005 11000 10999 10996 ] final   24.16 input  -57.11 | X-H torsion

> <Gold.Protein.ActiveResidues>
 VAL166  LYS551  ARG553  GLY616  TRP617  ASP618  TYR619  PRO620  LYS621  CYS622 
 ASP623  PHE694  ASN695  SER759  ASP760  ASP761  ALA762  ILE779  LEU786  VAL792 
 PHE793  MET794  SER795  GLU796  ALA797  LYS798  CYS799  TRP800  GLU811  SER814 

> <Gold.Protein.RotatedAtoms>
  150.8514  134.7839  159.7011 H   0  0  0  0  0  0  0  0  0  0  0  0  # atno 6907 bound_to 6896
  152.4577  134.5251  159.9804 H   0  0  0  0  0  0  0  0  0  0  0  0  # atno 6908 bound_to 6896
  151.5371  133.3401  159.2964 H   0  0  0  0  0  0  0  0  0  0  0  0  # atno 6909 bound_to 6896
  144.8089  140.5318  143.5656 H   0  0  0  0  0  0  0  0  0  0  0  0  # atno 7974 bound_to 7965
  155.1368  140.0401  157.2788 H   0  0  0  0  0  0  0  0  0  0  0  0  # atno 8008 bound_to 7997
  154.6502  140.2567  155.7196 H   0  0  0  0  0  0  0  0  0  0  0  0  # atno 8009 bound_to 7997
  156.2574  140.2838  156.0933 H   0  0  0  0  0  0  0  0  0  0  0  0  # atno 8010 bound_to 7997
  139.7458  143.8593  152.2574 H   0  0  0  0  0  0  0  0  0  0  0  0  # atno 10167 bound_to 10162
  156.8677  130.5609  149.5659 H   0  0  0  0  0  0  0  0  0  0  0  0  # atno 10718 bound_to 10713
  153.2818  135.4169  155.1086 H   0  0  0  0  0  0  0  0  0  0  0  0  # atno 10763 bound_to 10752
  154.8492  135.3497  154.6101 H   0  0  0  0  0  0  0  0  0  0  0  0  # atno 10764 bound_to 10752
  153.6522  135.7052  153.5263 H   0  0  0  0  0  0  0  0  0  0  0  0  # atno 10765 bound_to 10752
  140.3617  134.2118  155.7672 H   0  0  0  0  0  0  0  0  0  0  0  0  # atno 11005 bound_to 11000
  145.5372  139.1475  143.3467 LP  0  0  0  0  0  0  0  0  0  0  0  0  # atno 17320 bound_to 7965
  146.2384  140.5512  142.8944 LP  0  0  0  0  0  0  0  0  0  0  0  0  # atno 17321 bound_to 7965
  139.8557  144.7142  150.9160 LP  0  0  0  0  0  0  0  0  0  0  0  0  # atno 17342 bound_to 10162
  140.7792  143.3861  151.1391 LP  0  0  0  0  0  0  0  0  0  0  0  0  # atno 17343 bound_to 10162
  156.0743  130.5769  150.9443 LP  0  0  0  0  0  0  0  0  0  0  0  0  # atno 17370 bound_to 10713
  157.6214  131.0929  150.8616 LP  0  0  0  0  0  0  0  0  0  0  0  0  # atno 17371 bound_to 10713
  141.1982  133.8041  157.0593 LP  0  0  0  0  0  0  0  0  0  0  0  0  # atno 17394 bound_to 11000
  140.0621  134.9749  157.1323 LP  0  0  0  0  0  0  0  0  0  0  0  0  # atno 17395 bound_to 11000

$$$$
