AV-unprocessed.smi:2750|AV-procd|sdf|10589|dock5
  -GOLD-   2272015 43D 1   1.00000     0.00000
 Structure written by MMmdl.
 25 26  0  0  0  0  0  0  0  0  2 V2000
  148.0126  144.2005  160.3462 O   0  0  0  0  0  0  0  0  0  0  0  0
  148.8512  145.0820  160.6342 C   0  0  0  0  0  0  0  0  0  0  0  0
  148.5901  146.1945  161.1436 O   0  5  0  0  0  0  0  0  0  0  0  0
  150.3210  144.7651  160.3497 C   0  0  0  0  0  0  0  0  0  0  0  0
  150.4944  143.4620  159.7338 N   0  0  0  0  0  0  0  0  0  0  0  0
  150.1031  143.0465  158.4779 C   0  0  0  0  0  0  0  0  0  0  0  0
  150.4873  141.7368  158.4439 C   0  0  0  0  0  0  0  0  0  0  0  0
  150.2941  140.7244  157.3553 C   0  0  0  0  0  0  0  0  0  0  0  0
  150.7732  141.2295  155.9790 C   0  0  2  0  0  0  0  0  0  0  0  0
  149.9136  142.2553  155.4118 N   0  0  0  0  0  0  0  0  0  0  0  0
  149.4040  141.8974  154.2258 C   0  0  0  0  0  0  0  0  0  0  0  0
  148.6513  142.5737  153.5288 O   0  0  0  0  0  0  0  0  0  0  0  0
  149.8573  140.6731  153.9349 N   0  0  0  0  0  0  0  0  0  0  0  0
  150.6498  140.1837  154.8870 C   0  0  0  0  0  0  0  0  0  0  0  0
  151.1950  139.0818  154.9033 O   0  0  0  0  0  0  0  0  0  0  0  0
  151.0954  141.4164  159.6577 N   0  0  0  0  0  0  0  0  0  0  0  0
  151.0934  142.4617  160.4239 N   0  0  0  0  0  0  0  0  0  0  0  0
  150.7270  145.5245  159.6809 H   0  0  0  0  0  0  0  0  0  0  0  0
  150.9046  144.8075  161.2710 H   0  0  0  0  0  0  0  0  0  0  0  0
  149.5944  143.6826  157.7690 H   0  0  0  0  0  0  0  0  0  0  0  0
  150.8322  139.8101  157.6086 H   0  0  0  0  0  0  0  0  0  0  0  0
  149.2417  140.4406  157.3014 H   0  0  0  0  0  0  0  0  0  0  0  0
  151.7978  141.6008  156.0309 H   0  0  0  0  0  0  0  0  0  0  0  0
  149.7287  143.1333  155.8759 H   0  0  0  0  0  0  0  0  0  0  0  0
  149.6158  140.1715  153.0929 H   0  0  0  0  0  0  0  0  0  0  0  0
  1  2  2  0  0  0  0
  2  3  1  0  0  0  0
  2  4  1  0  0  0  0
  4  5  1  0  0  0  0
  4 18  1  0  0  0  0
  4 19  1  0  0  0  0
  5 17  1  0  0  0  0
  5  6  1  0  0  0  0
  6  7  2  0  0  0  0
  6 20  1  0  0  0  0
  7  8  1  0  0  0  0
  7 16  1  0  0  0  0
  8  9  1  0  0  0  0
  8 21  1  0  0  0  0
  8 22  1  0  0  0  0
  9 14  1  0  0  0  0
  9 10  1  0  0  0  0
  9 23  1  0  0  0  0
 10 11  1  0  0  0  0
 10 24  1  0  0  0  0
 11 12  2  0  0  0  0
 11 13  1  0  0  0  0
 13 14  1  0  0  0  0
 13 25  1  0  0  0  0
 14 15  2  0  0  0  0
 16 17  2  0  0  0  0
M  CHG  1   3  -1
M  END
> <s_m_source_file>
AV-unprocessed.smi

> <i_m_source_file_index>
2750

> <i_lp_mmshare_version>
43012

> <i_f3d_flags>
0

> <s_epik_input>
Tz1DKFtPSF0pW0NIMl1uMVtjSF1jKG5uMSlbQ0gyXVtDQEBIXTJbTkhdQyg9TylbTkhdQzI9Tw==

> <s_epik_cmdline>
J2VwaWtfcHl0aG9uJywgJy1waCcsICc3LjAnLCAnLXRuJywgJzgnLCAnLW1hJywgJzIwMCcsICctbWV0YWxfYmluZGluZycsICctaW1hZScsICc8aW5maWxlLm1hZT4nLCAnLW9tYWUnLCAnPG91dGZpbGUubWFlPic=

> <r_lp_tautomer_probability>
1

> <r_epik_Ionization_Penalty>
0.019671

> <r_epik_Ionization_Penalty_Charging>
2.66176e-05

> <r_epik_Ionization_Penalty_Neutral>
0.0196444

> <r_epik_State_Penalty>
0.0155882

> <r_epik_Charging_Adjusted_Penalty>
0.0156148

> <i_epik_Tot_Q>
-1

> <i_epik_Tot_abs_Q>
1

> <r_epik_Metal_State_Penalty>
0.396229

> <b_epik_Metal_Only>
0

> <s_lp_Force_Field>
OPLS_2005

> <r_lp_Energy>
13.3356

> <b_lp_Chiralities_Consistent>
1

> <s_lp_Variant>
AV-unprocessed.smi:2750-1

> <Gold.Version>
5.8.1

> <Gold.Id.Protein>
6NUR|6NUR_protein|mol2

> <Gold.PLP.Fitness>
41.8507

> <Gold.PLP.PLP>
-29.4498

> <Gold.PLP.part.hbond>
-6.7956

> <Gold.PLP.part.metal>
0.0000

> <Gold.PLP.part.buried>
-4.5108

> <Gold.PLP.part.nonpolar>
-18.8465

> <Gold.PLP.part.repulsive>
2.6937

> <Gold.PLP.ligand.clash>
0.0000

> <Gold.PLP.ligand.torsion>
0.1909

> <Gold.PLP.Chemscore.Hbond>
3.2130

> <Gold.PLP.Chemscore.CHOScore>
1.0377

> <Gold.PLP.Chemscore.Metal>
0.0000

> <Gold.Chemscore.Hbonds>
donor molecule, donor type, donor heavy atom, donor atom, acceptor molecule, acceptor atom, score
      L1  H    10    24       P1  8028  0.85
      L1  H    13    25       P1  7957  0.99
      P1  H  6933  6944       L1     1  1.20
      P1  H  8011  8017       L1    12  0.04
      P1  H  8022  8030       L1    12  0.52
      L1  C     6    20       P1  8028  1.00
      L1  C     6    20       P1  8029  0.03

> <Gold.PLP.Chemscore.Internal.Correction>
0.0305

> <Gold.Rescore>
     Score         DG    S(hbond)    S(metal)    S(lipo)     H(rot)  DE(clash)    DE(int)     intcor
      6.36      -9.81       2.32        0.00      32.94       2.84       2.31       1.14       ----

> <Gold.Chemscore.Fitness>
6.3597

> <Gold.Chemscore.DG>
-9.8109

> <Gold.Chemscore.ZeroCoef>
-5.4800

> <Gold.Chemscore.Hbond>
2.3161

> <Gold.Chemscore.Metal>
0.0000

> <Gold.Chemscore.Lipo>
32.9365

> <Gold.Chemscore.Internal_Hbond>
0.0000

> <Gold.Chemscore.DEClash>
2.3097

> <Gold.Chemscore.DEInternal>
1.1415

> <Gold.Chemscore.Rot>
2.8354

> <Gold.Chemscore.Internal.Correction>
   9.000000E+99

> <Gold.Chemscore.Hbonds>
donor molecule, donor type, donor heavy atom, donor atom, acceptor molecule, acceptor atom, score
      L1  H    10    24       P1  8028  0.83
      L1  H    13    25       P1  7957  0.94
      P1  H  6933  6944       L1     1  0.42
      P1  H  6933  6945       L1    17  0.01
      P1  H  8022  8030       L1    12  0.51

> <Gold.Chemscore.Hbond.Weighted>
-7.7359

> <Gold.Chemscore.Metal.Weighted>
-0.0000

> <Gold.Chemscore.Lipo.Weighted>
-3.8536

> <Gold.Chemscore.Internal_Hbond.Weighted>
0.0000

> <Gold.Chemscore.DEClash.Weighted>
2.3097

> <Gold.Chemscore.DEInternal.Weighted>
1.1415

> <Gold.Chemscore.Rot.Weighted>
7.2586

> <Gold.Chemscore.Internal.Correction.Weighted>
   9.000000E+99

> <Gold.Protein.RotatedTorsions>
[ 6907 6896 6895 6894 ] final  -64.65 input  -60.11 | X-H torsion
[ 7974 7965 7964 7962 ] final   61.63 input  175.53 | X-H torsion
[ 8008 7997 7996 7995 ] final  104.63 input   59.86 | X-H torsion
[ 10167 10162 10161 10158 ] final   71.72 input  -65.29 | X-H torsion
[ 10718 10713 10712 10709 ] final   -8.64 input   66.30 | X-H torsion
[ 10763 10752 10751 10750 ] final  127.75 input  -60.55 | X-H torsion
[ 11005 11000 10999 10996 ] final  125.51 input  -57.11 | X-H torsion

> <Gold.Protein.ActiveResidues>
 VAL166  LYS551  ARG553  GLY616  TRP617  ASP618  TYR619  PRO620  LYS621  CYS622 
 ASP623  PHE694  ASN695  SER759  ASP760  ASP761  ALA762  ILE779  LEU786  VAL792 
 PHE793  MET794  SER795  GLU796  ALA797  LYS798  CYS799  TRP800  GLU811  SER814 

> <Gold.Protein.RotatedAtoms>
  150.7572  134.6269  159.6165 H   0  0  0  0  0  0  0  0  0  0  0  0  # atno 6907 bound_to 6896
  152.3558  134.6939  160.0231 H   0  0  0  0  0  0  0  0  0  0  0  0  # atno 6908 bound_to 6896
  151.7345  133.3283  159.3385 H   0  0  0  0  0  0  0  0  0  0  0  0  # atno 6909 bound_to 6896
  145.8826  139.3454  143.0697 H   0  0  0  0  0  0  0  0  0  0  0  0  # atno 7974 bound_to 7965
  156.1590  140.3144  155.8774 H   0  0  0  0  0  0  0  0  0  0  0  0  # atno 8008 bound_to 7997
  155.3821  140.0488  157.3060 H   0  0  0  0  0  0  0  0  0  0  0  0  # atno 8009 bound_to 7997
  154.5128  140.2171  155.9134 H   0  0  0  0  0  0  0  0  0  0  0  0  # atno 8010 bound_to 7997
  140.0431  144.5373  150.7419 H   0  0  0  0  0  0  0  0  0  0  0  0  # atno 10167 bound_to 10162
  156.6997  130.5089  149.5921 H   0  0  0  0  0  0  0  0  0  0  0  0  # atno 10718 bound_to 10713
  153.7145  135.3263  155.3253 H   0  0  0  0  0  0  0  0  0  0  0  0  # atno 10763 bound_to 10752
  154.8375  135.4485  154.1280 H   0  0  0  0  0  0  0  0  0  0  0  0  # atno 10764 bound_to 10752
  153.2383  135.6968  153.7891 H   0  0  0  0  0  0  0  0  0  0  0  0  # atno 10765 bound_to 10752
  139.9410  134.9635  156.8570 H   0  0  0  0  0  0  0  0  0  0  0  0  # atno 11005 bound_to 11000
  145.9005  140.9246  143.0505 LP  0  0  0  0  0  0  0  0  0  0  0  0  # atno 17320 bound_to 7965
  144.6727  140.1026  143.7459 LP  0  0  0  0  0  0  0  0  0  0  0  0  # atno 17321 bound_to 7965
  140.7251  143.2628  151.4147 LP  0  0  0  0  0  0  0  0  0  0  0  0  # atno 17342 bound_to 10162
  139.6001  144.1313  152.2188 LP  0  0  0  0  0  0  0  0  0  0  0  0  # atno 17343 bound_to 10162
  156.1738  130.6454  151.0869 LP  0  0  0  0  0  0  0  0  0  0  0  0  # atno 17370 bound_to 10713
  157.6978  131.0787  150.6916 LP  0  0  0  0  0  0  0  0  0  0  0  0  # atno 17371 bound_to 10713
  140.5951  134.0224  155.7515 LP  0  0  0  0  0  0  0  0  0  0  0  0  # atno 17394 bound_to 11000
  141.1044  133.9716  157.3022 LP  0  0  0  0  0  0  0  0  0  0  0  0  # atno 17395 bound_to 11000

$$$$
