AV-unprocessed.smi:3129|AV-procd|sdf|11924|dock9
  -GOLD-   2272017303D 1   1.00000     0.00000
 Structure written by MMmdl.
 39 39  0  0  0  0  0  0  0  0  1 V2000
  152.3246  143.5319  158.9670 C   0  0  0  0  0  0  0  0  0  0  0  0
  151.1877  142.7575  158.2836 C   0  0  0  0  0  0  0  0  0  0  0  0
  151.0655  141.3444  158.8802 C   0  0  0  0  0  0  0  0  0  0  0  0
  151.3822  142.7472  156.7529 C   0  0  0  0  0  0  0  0  0  0  0  0
  150.1387  142.4810  156.0354 N   0  0  0  0  0  0  0  0  0  0  0  0
  149.8720  141.3814  155.3130 C   0  0  0  0  0  0  0  0  0  0  0  0
  150.6703  140.4547  155.1694 O   0  0  0  0  0  0  0  0  0  0  0  0
  148.4970  141.3290  154.6258 C   0  0  2  0  0  0  0  0  0  0  0  0
  147.3700  141.3112  155.6710 C   0  0  0  0  0  0  0  0  0  0  0  0
  148.3445  140.1845  153.7093 N   0  0  0  0  0  0  0  0  0  0  0  0
  146.9895  139.9969  153.2030 C   0  0  0  0  0  0  0  0  0  0  0  0
  147.0444  139.2736  151.8505 C   0  0  0  0  0  0  0  0  0  0  0  0
  146.3383  138.0080  151.8973 N   0  0  0  0  0  0  0  0  0  0  0  0
  145.5949  137.4792  152.9313 C   0  0  0  0  0  0  0  0  0  0  0  0
  145.1303  136.2638  152.5170 C   0  0  0  0  0  0  0  0  0  0  0  0
  145.6508  136.1344  151.1989 C   0  0  0  0  0  0  0  0  0  0  0  0
  146.3750  137.1793  150.8314 N   0  0  0  0  0  0  0  0  0  0  0  0
  153.2890  143.0525  158.7962 H   0  0  0  0  0  0  0  0  0  0  0  0
  152.1684  143.5911  160.0445 H   0  0  0  0  0  0  0  0  0  0  0  0
  152.3888  144.5528  158.5892 H   0  0  0  0  0  0  0  0  0  0  0  0
  150.2592  143.2879  158.5003 H   0  0  0  0  0  0  0  0  0  0  0  0
  151.9458  140.7425  158.6532 H   0  0  0  0  0  0  0  0  0  0  0  0
  150.1930  140.8181  158.4934 H   0  0  0  0  0  0  0  0  0  0  0  0
  150.9603  141.3841  159.9646 H   0  0  0  0  0  0  0  0  0  0  0  0
  151.7404  143.7231  156.4237 H   0  0  0  0  0  0  0  0  0  0  0  0
  152.1589  142.0333  156.4731 H   0  0  0  0  0  0  0  0  0  0  0  0
  149.4244  143.1930  156.0881 H   0  0  0  0  0  0  0  0  0  0  0  0
  148.3780  142.2418  154.0390 H   0  0  0  0  0  0  0  0  0  0  0  0
  147.4503  142.1573  156.3548 H   0  0  0  0  0  0  0  0  0  0  0  0
  147.3868  140.3981  156.2676 H   0  0  0  0  0  0  0  0  0  0  0  0
  146.3927  141.3729  155.1913 H   0  0  0  0  0  0  0  0  0  0  0  0
  148.9951  140.2373  152.9383 H   0  0  0  0  0  0  0  0  0  0  0  0
  146.4076  139.4119  153.9168 H   0  0  0  0  0  0  0  0  0  0  0  0
  146.4894  140.9579  153.0781 H   0  0  0  0  0  0  0  0  0  0  0  0
  146.5967  139.8892  151.0691 H   0  0  0  0  0  0  0  0  0  0  0  0
  148.0782  139.0873  151.5546 H   0  0  0  0  0  0  0  0  0  0  0  0
  145.4613  138.0050  153.8652 H   0  0  0  0  0  0  0  0  0  0  0  0
  144.5134  135.5721  153.0713 H   0  0  0  0  0  0  0  0  0  0  0  0
  145.5257  135.3177  150.5034 H   0  0  0  0  0  0  0  0  0  0  0  0
  1  2  1  0  0  0  0
  1 18  1  0  0  0  0
  1 19  1  0  0  0  0
  1 20  1  0  0  0  0
  2  3  1  0  0  0  0
  2  4  1  0  0  0  0
  2 21  1  0  0  0  0
  3 22  1  0  0  0  0
  3 23  1  0  0  0  0
  3 24  1  0  0  0  0
  4  5  1  0  0  0  0
  4 25  1  0  0  0  0
  4 26  1  0  0  0  0
  5  6  1  0  0  0  0
  5 27  1  0  0  0  0
  6  7  2  0  0  0  0
  6  8  1  0  0  0  0
  8  9  1  0  0  0  0
  8 10  1  0  0  0  0
  8 28  1  0  0  0  0
  9 29  1  0  0  0  0
  9 30  1  0  0  0  0
  9 31  1  0  0  0  0
 10 11  1  0  0  0  0
 10 32  1  0  0  0  0
 11 12  1  0  0  0  0
 11 33  1  0  0  0  0
 11 34  1  0  0  0  0
 12 13  1  0  0  0  0
 12 35  1  0  0  0  0
 12 36  1  0  0  0  0
 13 17  1  0  0  0  0
 13 14  1  0  0  0  0
 14 15  2  0  0  0  0
 14 37  1  0  0  0  0
 15 16  1  0  0  0  0
 15 38  1  0  0  0  0
 16 17  2  0  0  0  0
 16 39  1  0  0  0  0
M  END
> <s_m_source_file>
AV-unprocessed.smi

> <i_m_source_file_index>
3129

> <i_lp_mmshare_version>
43012

> <i_f3d_flags>
0

> <s_epik_input>
W0NIM11bQ0hdKFtDSDNdKVtDSDJdW05IXUMoPU8pW0NASF0oW0NIM10pW05IXVtDSDJdW0NIMl1uMVtjSF1bY0hdW2NIXW4x

> <s_epik_cmdline>
J2VwaWtfcHl0aG9uJywgJy1waCcsICc3LjAnLCAnLXRuJywgJzgnLCAnLW1hJywgJzIwMCcsICctbWV0YWxfYmluZGluZycsICctaW1hZScsICc8aW5maWxlLm1hZT4nLCAnLW9tYWUnLCAnPG91dGZpbGUubWFlPic=

> <r_lp_tautomer_probability>
1

> <r_epik_Ionization_Penalty>
0.724007

> <r_epik_Ionization_Penalty_Charging>
0

> <r_epik_Ionization_Penalty_Neutral>
0.724007

> <r_epik_State_Penalty>
0.74758

> <r_epik_Charging_Adjusted_Penalty>
0.74758

> <i_epik_Tot_Q>
0

> <i_epik_Tot_abs_Q>
0

> <r_epik_Metal_State_Penalty>
0.746851

> <b_epik_Metal_Only>
0

> <s_lp_Force_Field>
OPLS_2005

> <r_lp_Energy>
5.79034

> <b_lp_Chiralities_Consistent>
1

> <s_lp_Variant>
AV-unprocessed.smi:3129-3

> <Gold.Version>
5.8.1

> <Gold.Id.Protein>
6NUR|6NUR_protein|mol2

> <Gold.PLP.Fitness>
43.6446

> <Gold.PLP.PLP>
-31.1401

> <Gold.PLP.part.hbond>
-4.0000

> <Gold.PLP.part.metal>
0.0000

> <Gold.PLP.part.buried>
1.8211

> <Gold.PLP.part.nonpolar>
-30.8996

> <Gold.PLP.part.repulsive>
2.5300

> <Gold.PLP.ligand.clash>
0.0000

> <Gold.PLP.ligand.torsion>
0.8731

> <Gold.PLP.Chemscore.Hbond>
3.7280

> <Gold.PLP.Chemscore.CHOScore>
1.0000

> <Gold.PLP.Chemscore.Metal>
0.0000

> <Gold.Chemscore.Hbonds>
donor molecule, donor type, donor heavy atom, donor atom, acceptor molecule, acceptor atom, score
      L1  H     5    27       P1  8028  0.98
      L1  H    10    32       P1  7957  1.00
      P1  H  7954  7966       L1    17  0.76
      P1  H  7989  7998       L1     7  1.00

> <Gold.PLP.Chemscore.Internal.Correction>
0.0667

> <Gold.Rescore>
     Score         DG    S(hbond)    S(metal)    S(lipo)     H(rot)  DE(clash)    DE(int)     intcor
     14.17     -19.23       2.74        0.00      86.01       2.13       4.06       1.01       ----

> <Gold.Chemscore.Fitness>
14.1689

> <Gold.Chemscore.DG>
-19.2308

> <Gold.Chemscore.ZeroCoef>
-5.4800

> <Gold.Chemscore.Hbond>
2.7400

> <Gold.Chemscore.Metal>
0.0000

> <Gold.Chemscore.Lipo>
86.0118

> <Gold.Chemscore.Internal_Hbond>
0.0000

> <Gold.Chemscore.DEClash>
4.0557

> <Gold.Chemscore.DEInternal>
1.0062

> <Gold.Chemscore.Rot>
2.1345

> <Gold.Chemscore.Internal.Correction>
   9.000000E+99

> <Gold.Chemscore.Hbonds>
donor molecule, donor type, donor heavy atom, donor atom, acceptor molecule, acceptor atom, score
      L1  H     5    27       P1  8028  0.93
      L1  H    10    32       P1  7957  0.99
      P1  H  7954  7966       L1    17  0.22
      P1  H  7989  7998       L1     7  0.42

> <Gold.Chemscore.Hbond.Weighted>
-9.1517

> <Gold.Chemscore.Metal.Weighted>
-0.0000

> <Gold.Chemscore.Lipo.Weighted>
-10.0634

> <Gold.Chemscore.Internal_Hbond.Weighted>
0.0000

> <Gold.Chemscore.DEClash.Weighted>
4.0557

> <Gold.Chemscore.DEInternal.Weighted>
1.0062

> <Gold.Chemscore.Rot.Weighted>
5.4642

> <Gold.Chemscore.Internal.Correction.Weighted>
   9.000000E+99

> <Gold.Protein.RotatedTorsions>
[ 6907 6896 6895 6894 ] final   61.65 input  -60.11 | X-H torsion
[ 7974 7965 7964 7962 ] final   97.22 input  175.53 | X-H torsion
[ 8008 7997 7996 7995 ] final   77.32 input   59.86 | X-H torsion
[ 10167 10162 10161 10158 ] final   74.12 input  -65.29 | X-H torsion
[ 10718 10713 10712 10709 ] final  133.36 input   66.30 | X-H torsion
[ 10763 10752 10751 10750 ] final   46.73 input  -60.55 | X-H torsion
[ 11005 11000 10999 10996 ] final  -21.36 input  -57.11 | X-H torsion

> <Gold.Protein.ActiveResidues>
 VAL166  LYS551  ARG553  GLY616  TRP617  ASP618  TYR619  PRO620  LYS621  CYS622 
 ASP623  PHE694  ASN695  SER759  ASP760  ASP761  ALA762  ILE779  LEU786  VAL792 
 PHE793  MET794  SER795  GLU796  ALA797  LYS798  CYS799  TRP800  GLU811  SER814 

> <Gold.Protein.RotatedAtoms>
  152.4107  134.6129  160.0030 H   0  0  0  0  0  0  0  0  0  0  0  0  # atno 6907 bound_to 6896
  151.6307  133.3326  159.3116 H   0  0  0  0  0  0  0  0  0  0  0  0  # atno 6908 bound_to 6896
  150.7998  134.7124  159.6656 H   0  0  0  0  0  0  0  0  0  0  0  0  # atno 6909 bound_to 6896
  145.4284  139.2313  143.3157 H   0  0  0  0  0  0  0  0  0  0  0  0  # atno 7974 bound_to 7965
  155.8399  140.3462  155.5625 H   0  0  0  0  0  0  0  0  0  0  0  0  # atno 8008 bound_to 7997
  155.8152  140.0904  157.1901 H   0  0  0  0  0  0  0  0  0  0  0  0  # atno 8009 bound_to 7997
  154.4005  140.1440  156.3421 H   0  0  0  0  0  0  0  0  0  0  0  0  # atno 8010 bound_to 7997
  140.0171  144.5569  150.7611 H   0  0  0  0  0  0  0  0  0  0  0  0  # atno 10167 bound_to 10162
  157.4780  131.1084  150.9718 H   0  0  0  0  0  0  0  0  0  0  0  0  # atno 10718 bound_to 10713
  152.9807  135.5999  154.3647 H   0  0  0  0  0  0  0  0  0  0  0  0  # atno 10763 bound_to 10752
  154.3325  135.2768  155.2466 H   0  0  0  0  0  0  0  0  0  0  0  0  # atno 10764 bound_to 10752
  154.4583  135.5972  153.6294 H   0  0  0  0  0  0  0  0  0  0  0  0  # atno 10765 bound_to 10752
  140.8554  133.7827  156.0013 H   0  0  0  0  0  0  0  0  0  0  0  0  # atno 11005 bound_to 11000
  146.2620  140.5018  142.8849 LP  0  0  0  0  0  0  0  0  0  0  0  0  # atno 17320 bound_to 7965
  144.8199  140.6532  143.6360 LP  0  0  0  0  0  0  0  0  0  0  0  0  # atno 17321 bound_to 7965
  140.7358  143.2745  151.3785 LP  0  0  0  0  0  0  0  0  0  0  0  0  # atno 17342 bound_to 10162
  139.6165  144.0993  152.2350 LP  0  0  0  0  0  0  0  0  0  0  0  0  # atno 17343 bound_to 10162
  157.0461  130.5768  149.5363 LP  0  0  0  0  0  0  0  0  0  0  0  0  # atno 17370 bound_to 10713
  156.0107  130.5198  150.7978 LP  0  0  0  0  0  0  0  0  0  0  0  0  # atno 17371 bound_to 10713
  140.8743  134.2688  157.5175 LP  0  0  0  0  0  0  0  0  0  0  0  0  # atno 17394 bound_to 11000
  139.8705  134.9583  156.4297 LP  0  0  0  0  0  0  0  0  0  0  0  0  # atno 17395 bound_to 11000

$$$$
