AV-unprocessed.smi:492|AV-procd|sdf|2711|dock7
  -GOLD-   2262023153D 1   1.00000     0.00000
 Structure written by MMmdl.
 47 49  0  0  0  0  0  0  0  0  2 V2000
  149.5712  129.8250  153.5666 C   0  0  0  0  0  0  0  0  0  0  0  0
  150.1711  130.5323  154.6420 O   0  0  0  0  0  0  0  0  0  0  0  0
  150.0907  131.9084  154.6379 C   0  0  0  0  0  0  0  0  0  0  0  0
  150.8449  132.5976  155.6097 C   0  0  0  0  0  0  0  0  0  0  0  0
  150.8217  134.0039  155.6783 C   0  0  0  0  0  0  0  0  0  0  0  0
  150.0340  134.7438  154.7739 C   0  0  0  0  0  0  0  0  0  0  0  0
  150.0187  136.2590  154.8350 C   0  0  0  0  0  0  0  0  0  0  0  0
  150.8702  136.7528  155.8555 O   0  0  0  0  0  0  0  0  0  0  0  0
  151.9628  137.5035  155.3502 C   0  0  0  0  0  0  0  0  0  0  0  0
  151.9472  138.9234  155.9391 C   0  0  1  0  0  0  0  0  0  0  0  0
  152.3715  139.8438  154.9539 O   0  0  0  0  0  0  0  0  0  0  0  0
  150.5862  139.3306  156.5414 C   0  0  0  0  0  0  0  0  0  0  0  0
  150.5326  140.7507  156.9193 N   0  0  0  0  0  0  0  0  0  0  0  0
  149.7014  141.7460  156.4969 C   0  0  0  0  0  0  0  0  0  0  0  0
  148.5932  141.6221  155.5056 C   0  0  0  0  0  0  0  0  0  0  0  0
  150.0703  142.8841  157.1503 N   0  3  0  0  0  0  0  0  0  0  0  0
  151.1432  142.6134  158.0014 C   0  0  0  0  0  0  0  0  0  0  0  0
  151.8567  143.4417  158.8624 C   0  0  0  0  0  0  0  0  0  0  0  0
  152.9016  142.8420  159.5959 C   0  0  0  0  0  0  0  0  0  0  0  0
  153.2025  141.4710  159.4594 C   0  0  0  0  0  0  0  0  0  0  0  0
  152.4728  140.6412  158.5827 C   0  0  0  0  0  0  0  0  0  0  0  0
  151.4427  141.2427  157.8605 C   0  0  0  0  0  0  0  0  0  0  0  0
  149.2836  134.0650  153.7924 C   0  0  0  0  0  0  0  0  0  0  0  0
  149.3074  132.6583  153.7246 C   0  0  0  0  0  0  0  0  0  0  0  0
  149.7188  128.7553  153.7132 H   0  0  0  0  0  0  0  0  0  0  0  0
  150.0252  130.0922  152.6112 H   0  0  0  0  0  0  0  0  0  0  0  0
  148.4965  130.0060  153.5196 H   0  0  0  0  0  0  0  0  0  0  0  0
  151.4502  132.0417  156.3105 H   0  0  0  0  0  0  0  0  0  0  0  0
  151.4103  134.5104  156.4290 H   0  0  0  0  0  0  0  0  0  0  0  0
  150.3268  136.6672  153.8709 H   0  0  0  0  0  0  0  0  0  0  0  0
  148.9932  136.5852  155.0148 H   0  0  0  0  0  0  0  0  0  0  0  0
  152.8918  137.0083  155.6371 H   0  0  0  0  0  0  0  0  0  0  0  0
  151.9409  137.5381  154.2595 H   0  0  0  0  0  0  0  0  0  0  0  0
  152.7031  138.9601  156.7239 H   0  0  0  0  0  0  0  0  0  0  0  0
  153.2849  139.6860  154.7708 H   0  0  0  0  0  0  0  0  0  0  0  0
  149.7817  139.1527  155.8269 H   0  0  0  0  0  0  0  0  0  0  0  0
  150.3528  138.7286  157.4205 H   0  0  0  0  0  0  0  0  0  0  0  0
  148.1901  142.6038  155.2560 H   0  0  0  0  0  0  0  0  0  0  0  0
  147.7898  141.0104  155.9163 H   0  0  0  0  0  0  0  0  0  0  0  0
  148.9543  141.1531  154.5900 H   0  0  0  0  0  0  0  0  0  0  0  0
  151.6280  144.4920  158.9696 H   0  0  0  0  0  0  0  0  0  0  0  0
  153.4838  143.4456  160.2771 H   0  0  0  0  0  0  0  0  0  0  0  0
  154.0100  141.0469  160.0386 H   0  0  0  0  0  0  0  0  0  0  0  0
  152.7107  139.5922  158.4846 H   0  0  0  0  0  0  0  0  0  0  0  0
  148.6857  134.6219  153.0858 H   0  0  0  0  0  0  0  0  0  0  0  0
  148.7160  132.1778  152.9601 H   0  0  0  0  0  0  0  0  0  0  0  0
  149.6175  143.7800  157.0225 H   0  0  0  0  0  0  0  0  0  0  0  0
  1  2  1  0  0  0  0
  1 25  1  0  0  0  0
  1 26  1  0  0  0  0
  1 27  1  0  0  0  0
  2  3  1  0  0  0  0
  3 24  1  0  0  0  0
  3  4  2  0  0  0  0
  4  5  1  0  0  0  0
  4 28  1  0  0  0  0
  5  6  2  0  0  0  0
  5 29  1  0  0  0  0
  6  7  1  0  0  0  0
  6 23  1  0  0  0  0
  7  8  1  0  0  0  0
  7 30  1  0  0  0  0
  7 31  1  0  0  0  0
  8  9  1  0  0  0  0
  9 10  1  0  0  0  0
  9 32  1  0  0  0  0
  9 33  1  0  0  0  0
 10 11  1  0  0  0  0
 10 12  1  0  0  0  0
 10 34  1  0  0  0  0
 11 35  1  0  0  0  0
 12 13  1  0  0  0  0
 12 36  1  0  0  0  0
 12 37  1  0  0  0  0
 13 22  1  0  0  0  0
 13 14  1  0  0  0  0
 14 15  1  0  0  0  0
 14 16  2  0  0  0  0
 15 38  1  0  0  0  0
 15 39  1  0  0  0  0
 15 40  1  0  0  0  0
 16 17  1  0  0  0  0
 16 47  1  0  0  0  0
 17 22  2  0  0  0  0
 17 18  1  0  0  0  0
 18 19  2  0  0  0  0
 18 41  1  0  0  0  0
 19 20  1  0  0  0  0
 19 42  1  0  0  0  0
 20 21  2  0  0  0  0
 20 43  1  0  0  0  0
 21 22  1  0  0  0  0
 21 44  1  0  0  0  0
 23 24  2  0  0  0  0
 23 45  1  0  0  0  0
 24 46  1  0  0  0  0
M  CHG  1  16   1
M  END
> <s_m_source_file>
AV-unprocessed.smi

> <i_m_source_file_index>
492

> <i_lp_mmshare_version>
43012

> <i_f3d_flags>
0

> <s_epik_input>
W0NIM11PYzFbY0hdW2NIXWMoW2NIXVtjSF0xKVtDSDJdT1tDSDJdW0NASF0oW09IXSlbQ0gyXW4oYyhuMilbQ0gzXSljKGMyMylbY0hdW2NIXVtjSF1bY0hdMw==

> <s_epik_cmdline>
J2VwaWtfcHl0aG9uJywgJy1waCcsICc3LjAnLCAnLXRuJywgJzgnLCAnLW1hJywgJzIwMCcsICctbWV0YWxfYmluZGluZycsICctaW1hZScsICc8aW5maWxlLm1hZT4nLCAnLW9tYWUnLCAnPG91dGZpbGUubWFlPic=

> <r_lp_tautomer_probability>
1

> <r_epik_Ionization_Penalty>
0.952

> <r_epik_Ionization_Penalty_Charging>
0.951999

> <r_epik_Ionization_Penalty_Neutral>
9.7482e-07

> <r_epik_State_Penalty>
0.996343

> <r_epik_Charging_Adjusted_Penalty>
1.94834

> <i_epik_Tot_Q>
1

> <i_epik_Tot_abs_Q>
1

> <r_epik_Metal_State_Penalty>
4.96724

> <b_epik_Metal_Only>
0

> <s_lp_Force_Field>
OPLS_2005

> <r_lp_Energy>
22.9053

> <b_lp_Chiralities_Consistent>
1

> <s_lp_Variant>
AV-unprocessed.smi:492-4

> <Gold.Version>
5.8.1

> <Gold.Id.Protein>
6NUR|6NUR_protein|mol2

> <Gold.PLP.Fitness>
50.4562

> <Gold.PLP.PLP>
-45.0737

> <Gold.PLP.part.hbond>
-2.0271

> <Gold.PLP.part.metal>
0.0000

> <Gold.PLP.part.buried>
-4.2140

> <Gold.PLP.part.nonpolar>
-39.0047

> <Gold.PLP.part.repulsive>
0.0684

> <Gold.PLP.ligand.clash>
0.0000

> <Gold.PLP.ligand.torsion>
1.4202

> <Gold.PLP.Chemscore.Hbond>
2.6720

> <Gold.PLP.Chemscore.CHOScore>
0.0000

> <Gold.PLP.Chemscore.Metal>
0.0000

> <Gold.Chemscore.Hbonds>
donor molecule, donor type, donor heavy atom, donor atom, acceptor molecule, acceptor atom, score
      L1  H    16    47       P1  8028  1.54
      P1  H  7989  7998       L1    11  0.67

> <Gold.PLP.Chemscore.Internal.Correction>
0.2069

> <Gold.Rescore>
     Score         DG    S(hbond)    S(metal)    S(lipo)     H(rot)  DE(clash)    DE(int)     intcor
     17.02     -18.52       1.46        0.00     124.50       2.50       0.13       1.36       ----

> <Gold.Chemscore.Fitness>
17.0235

> <Gold.Chemscore.DG>
-18.5231

> <Gold.Chemscore.ZeroCoef>
-5.4800

> <Gold.Chemscore.Hbond>
1.4631

> <Gold.Chemscore.Metal>
0.0000

> <Gold.Chemscore.Lipo>
124.4954

> <Gold.Chemscore.Internal_Hbond>
0.0000

> <Gold.Chemscore.DEClash>
0.1349

> <Gold.Chemscore.DEInternal>
1.3647

> <Gold.Chemscore.Rot>
2.5038

> <Gold.Chemscore.Internal.Correction>
   9.000000E+99

> <Gold.Chemscore.Hbonds>
donor molecule, donor type, donor heavy atom, donor atom, acceptor molecule, acceptor atom, score
      L1  H    16    47       P1  8028  0.69
      P1  H  7989  7998       L1    11  0.41

> <Gold.Chemscore.Hbond.Weighted>
-4.8869

> <Gold.Chemscore.Metal.Weighted>
-0.0000

> <Gold.Chemscore.Lipo.Weighted>
-14.5660

> <Gold.Chemscore.Internal_Hbond.Weighted>
0.0000

> <Gold.Chemscore.DEClash.Weighted>
0.1349

> <Gold.Chemscore.DEInternal.Weighted>
1.3647

> <Gold.Chemscore.Rot.Weighted>
6.4098

> <Gold.Chemscore.Internal.Correction.Weighted>
   9.000000E+99

> <Gold.Protein.RotatedTorsions>
[ 6907 6896 6895 6894 ] final   25.58 input  -60.11 | X-H torsion
[ 7974 7965 7964 7962 ] final -109.85 input  175.53 | X-H torsion
[ 8008 7997 7996 7995 ] final  129.30 input   59.86 | X-H torsion
[ 10167 10162 10161 10158 ] final  -82.54 input  -65.29 | X-H torsion
[ 10718 10713 10712 10709 ] final    7.77 input   66.30 | X-H torsion
[ 10763 10752 10751 10750 ] final  -69.99 input  -60.55 | X-H torsion
[ 11005 11000 10999 10996 ] final -119.95 input  -57.11 | X-H torsion

> <Gold.Protein.ActiveResidues>
 VAL166  LYS551  ARG553  GLY616  TRP617  ASP618  TYR619  PRO620  LYS621  CYS622 
 ASP623  PHE694  ASN695  SER759  ASP760  ASP761  ALA762  ILE779  LEU786  VAL792 
 PHE793  MET794  SER795  GLU796  ALA797  LYS798  CYS799  TRP800  GLU811  SER814 

> <Gold.Protein.RotatedAtoms>
  151.9746  135.0059  160.0554 H   0  0  0  0  0  0  0  0  0  0  0  0  # atno 6907 bound_to 6896
  152.1752  133.4665  159.4938 H   0  0  0  0  0  0  0  0  0  0  0  0  # atno 6908 bound_to 6896
  150.6908  134.1820  159.4295 H   0  0  0  0  0  0  0  0  0  0  0  0  # atno 6909 bound_to 6896
  145.1755  140.8946  143.3510 H   0  0  0  0  0  0  0  0  0  0  0  0  # atno 7974 bound_to 7965
  156.2933  140.2624  156.2576 H   0  0  0  0  0  0  0  0  0  0  0  0  # atno 8008 bound_to 7997
  154.9821  140.0389  157.2300 H   0  0  0  0  0  0  0  0  0  0  0  0  # atno 8009 bound_to 7997
  154.7762  140.2787  155.6103 H   0  0  0  0  0  0  0  0  0  0  0  0  # atno 8010 bound_to 7997
  140.4310  143.2548  151.8759 H   0  0  0  0  0  0  0  0  0  0  0  0  # atno 10167 bound_to 10162
  156.9418  130.5864  149.5653 H   0  0  0  0  0  0  0  0  0  0  0  0  # atno 10718 bound_to 10713
  154.4113  135.6008  153.5954 H   0  0  0  0  0  0  0  0  0  0  0  0  # atno 10763 bound_to 10752
  152.9790  135.5930  154.4066 H   0  0  0  0  0  0  0  0  0  0  0  0  # atno 10764 bound_to 10752
  154.3879  135.2841  155.2151 H   0  0  0  0  0  0  0  0  0  0  0  0  # atno 10765 bound_to 10752
  141.0179  134.0168  157.3324 H   0  0  0  0  0  0  0  0  0  0  0  0  # atno 11005 bound_to 11000
  145.0190  139.3441  143.6082 LP  0  0  0  0  0  0  0  0  0  0  0  0  # atno 17320 bound_to 7965
  146.3462  139.9482  142.8732 LP  0  0  0  0  0  0  0  0  0  0  0  0  # atno 17321 bound_to 7965
  139.4785  144.5335  151.8633 LP  0  0  0  0  0  0  0  0  0  0  0  0  # atno 17342 bound_to 10162
  140.4427  144.1964  150.5892 LP  0  0  0  0  0  0  0  0  0  0  0  0  # atno 17343 bound_to 10162
  156.0401  130.5484  150.8749 LP  0  0  0  0  0  0  0  0  0  0  0  0  # atno 17370 bound_to 10713
  157.5780  131.0946  150.9316 LP  0  0  0  0  0  0  0  0  0  0  0  0  # atno 17371 bound_to 10713
  139.9128  135.0193  156.7761 LP  0  0  0  0  0  0  0  0  0  0  0  0  # atno 17394 bound_to 11000
  140.6623  133.9634  155.7811 LP  0  0  0  0  0  0  0  0  0  0  0  0  # atno 17395 bound_to 11000

$$$$
