AV-unprocessed.smi:1643|AV-procd|sdf|6581|dock5
  -GOLD-   22720 7273D 1   1.00000     0.00000
 Structure written by MMmdl.
 55 57  0  0  0  0  0  0  0  0  3 V2000
  143.5946  144.1448  156.3565 C   0  0  0  0  0  0  0  0  0  0  0  0
  143.9965  142.6672  156.3895 C   0  0  0  0  0  0  0  0  0  0  0  0
  143.3931  141.9207  157.1604 O   0  0  0  0  0  0  0  0  0  0  0  0
  144.9881  142.2343  155.5724 N   0  0  0  0  0  0  0  0  0  0  0  0
  145.3643  140.8128  155.5270 C   0  0  0  0  0  0  0  0  0  0  0  0
  146.6193  140.5370  156.3743 C   0  0  0  0  0  0  0  0  0  0  0  0
  147.6574  141.6796  156.3739 C   0  0  0  0  0  0  0  0  0  0  0  0
  148.1142  142.0922  155.0186 N   0  3  1  0  0  0  0  0  0  0  0  0
  149.0308  141.0969  154.3992 C   0  0  0  0  0  0  0  0  0  0  0  0
  150.1118  140.5842  155.3717 C   0  0  1  0  0  0  0  0  0  0  0  0
  151.1025  139.8916  154.6368 O   0  0  0  0  0  0  0  0  0  0  0  0
  150.7733  141.7361  156.1540 C   0  0  0  0  0  0  0  0  0  0  0  0
  151.4852  141.2741  157.3527 N   0  0  0  0  0  0  0  0  0  0  0  0
  152.0249  140.0577  157.6387 C   0  0  0  0  0  0  0  0  0  0  0  0
  152.5689  140.1333  158.8849 N   0  3  0  0  0  0  0  0  0  0  0  0
  152.3772  141.4169  159.4006 C   0  0  0  0  0  0  0  0  0  0  0  0
  152.7460  141.9741  160.6190 C   0  0  0  0  0  0  0  0  0  0  0  0
  152.3973  143.3254  160.8424 C   0  0  0  0  0  0  0  0  0  0  0  0
  152.7837  143.9644  162.1652 C   0  0  0  0  0  0  0  0  0  0  0  0
  151.7018  144.0730  159.8566 C   0  0  0  0  0  0  0  0  0  0  0  0
  151.3313  145.5249  160.1081 C   0  0  0  0  0  0  0  0  0  0  0  0
  151.3371  143.4883  158.6225 C   0  0  0  0  0  0  0  0  0  0  0  0
  151.6858  142.1551  158.4209 C   0  0  0  0  0  0  0  0  0  0  0  0
  147.0579  142.5863  154.0805 C   0  0  0  0  0  0  0  0  0  0  0  0
  145.7691  143.1616  154.7264 C   0  0  0  0  0  0  0  0  0  0  0  0
  143.3880  144.4748  155.3380 H   0  0  0  0  0  0  0  0  0  0  0  0
  144.3817  144.7696  156.7791 H   0  0  0  0  0  0  0  0  0  0  0  0
  142.6900  144.3075  156.9441 H   0  0  0  0  0  0  0  0  0  0  0  0
  144.5554  140.1627  155.8637 H   0  0  0  0  0  0  0  0  0  0  0  0
  145.5209  140.5005  154.4959 H   0  0  0  0  0  0  0  0  0  0  0  0
  146.3110  140.3672  157.4065 H   0  0  0  0  0  0  0  0  0  0  0  0
  147.0800  139.6046  156.0470 H   0  0  0  0  0  0  0  0  0  0  0  0
  147.2616  142.5513  156.8960 H   0  0  0  0  0  0  0  0  0  0  0  0
  148.5217  141.3794  156.9675 H   0  0  0  0  0  0  0  0  0  0  0  0
  148.4582  140.2434  154.0326 H   0  0  0  0  0  0  0  0  0  0  0  0
  149.4990  141.5461  153.5219 H   0  0  0  0  0  0  0  0  0  0  0  0
  149.6739  139.8892  156.0873 H   0  0  0  0  0  0  0  0  0  0  0  0
  151.8321  139.7070  155.2089 H   0  0  0  0  0  0  0  0  0  0  0  0
  151.4944  142.2603  155.5250 H   0  0  0  0  0  0  0  0  0  0  0  0
  150.0334  142.4770  156.4604 H   0  0  0  0  0  0  0  0  0  0  0  0
  152.0187  139.1882  156.9973 H   0  0  0  0  0  0  0  0  0  0  0  0
  153.2756  141.3994  161.3650 H   0  0  0  0  0  0  0  0  0  0  0  0
  151.8957  144.2962  162.7037 H   0  0  0  0  0  0  0  0  0  0  0  0
  153.4328  144.8249  162.0006 H   0  0  0  0  0  0  0  0  0  0  0  0
  153.3181  143.2622  162.8061 H   0  0  0  0  0  0  0  0  0  0  0  0
  150.7894  145.9514  159.2633 H   0  0  0  0  0  0  0  0  0  0  0  0
  152.2264  146.1266  160.2677 H   0  0  0  0  0  0  0  0  0  0  0  0
  150.6942  145.6105  160.9887 H   0  0  0  0  0  0  0  0  0  0  0  0
  150.8092  144.0568  157.8716 H   0  0  0  0  0  0  0  0  0  0  0  0
  147.5091  143.3763  153.4795 H   0  0  0  0  0  0  0  0  0  0  0  0
  146.7960  141.8094  153.3620 H   0  0  0  0  0  0  0  0  0  0  0  0
  145.1177  143.5243  153.9303 H   0  0  0  0  0  0  0  0  0  0  0  0
  146.0569  144.0372  155.3100 H   0  0  0  0  0  0  0  0  0  0  0  0
  148.6947  142.8988  155.2013 H   0  0  0  0  0  0  0  0  0  0  0  0
  153.0356  139.3634  159.3477 H   0  0  0  0  0  0  0  0  0  0  0  0
  1  2  1  0  0  0  0
  1 26  1  0  0  0  0
  1 27  1  0  0  0  0
  1 28  1  0  0  0  0
  2  3  2  0  0  0  0
  2  4  1  0  0  0  0
  4 25  1  0  0  0  0
  4  5  1  0  0  0  0
  5  6  1  0  0  0  0
  5 29  1  0  0  0  0
  5 30  1  0  0  0  0
  6  7  1  0  0  0  0
  6 31  1  0  0  0  0
  6 32  1  0  0  0  0
  7  8  1  0  0  0  0
  7 33  1  0  0  0  0
  7 34  1  0  0  0  0
  8  9  1  0  0  0  0
  8 24  1  0  0  0  0
  8 54  1  0  0  0  0
  9 10  1  0  0  0  0
  9 35  1  0  0  0  0
  9 36  1  0  0  0  0
 10 11  1  0  0  0  0
 10 12  1  0  0  0  0
 10 37  1  0  0  0  0
 11 38  1  0  0  0  0
 12 13  1  0  0  0  0
 12 39  1  0  0  0  0
 12 40  1  0  0  0  0
 13 23  1  0  0  0  0
 13 14  1  0  0  0  0
 14 15  2  0  0  0  0
 14 41  1  0  0  0  0
 15 16  1  0  0  0  0
 15 55  1  0  0  0  0
 16 23  2  0  0  0  0
 16 17  1  0  0  0  0
 17 18  2  0  0  0  0
 17 42  1  0  0  0  0
 18 19  1  0  0  0  0
 18 20  1  0  0  0  0
 19 43  1  0  0  0  0
 19 44  1  0  0  0  0
 19 45  1  0  0  0  0
 20 21  1  0  0  0  0
 20 22  2  0  0  0  0
 21 46  1  0  0  0  0
 21 47  1  0  0  0  0
 21 48  1  0  0  0  0
 22 23  1  0  0  0  0
 22 49  1  0  0  0  0
 24 25  1  0  0  0  0
 24 50  1  0  0  0  0
 24 51  1  0  0  0  0
 25 52  1  0  0  0  0
 25 53  1  0  0  0  0
M  CHG  1   8   1
M  CHG  1  15   1
M  END
> <s_m_source_file>
AV-unprocessed.smi

> <i_m_source_file_index>
1643

> <i_lp_mmshare_version>
43012

> <i_f3d_flags>
0

> <s_epik_input>
W0NIM11DKD1PKU4xW0NIMl1bQ0gyXVtDSDJdTihbQ0gyXVtDSDJdMSlbQ0gyXVtDQEhdKFtPSF0pW0NIMl1uKFtjSF1uMiljKGMyMylbY0hdYyhbQ0gzXSljKFtjSF0zKVtDSDNd

> <s_epik_cmdline>
J2VwaWtfcHl0aG9uJywgJy1waCcsICc3LjAnLCAnLXRuJywgJzgnLCAnLW1hJywgJzIwMCcsICctbWV0YWxfYmluZGluZycsICctaW1hZScsICc8aW5maWxlLm1hZT4nLCAnLW9tYWUnLCAnPG91dGZpbGUubWFlPic=

> <r_epik_Ionization_Penalty>
1.2865

> <r_epik_Ionization_Penalty_Charging>
1.2865

> <r_epik_Ionization_Penalty_Neutral>
2.89706e-06

> <r_epik_State_Penalty>
1.3566

> <r_epik_Charging_Adjusted_Penalty>
2.6431

> <i_epik_Tot_Q>
2

> <i_epik_Tot_abs_Q>
2

> <r_epik_Metal_State_Penalty>
5.37339

> <b_epik_Metal_Only>
0

> <s_lp_Force_Field>
OPLS_2005

> <r_lp_Energy>
56.7844

> <b_lp_Chiralities_Consistent>
1

> <s_lp_Variant>
AV-unprocessed.smi:1643-10

> <Gold.Version>
5.8.1

> <Gold.Id.Protein>
6NUR|6NUR_protein|mol2

> <Gold.PLP.Fitness>
58.7510

> <Gold.PLP.PLP>
-50.9610

> <Gold.PLP.part.hbond>
-2.0000

> <Gold.PLP.part.metal>
0.0000

> <Gold.PLP.part.buried>
-8.2407

> <Gold.PLP.part.nonpolar>
-40.4315

> <Gold.PLP.part.repulsive>
0.2612

> <Gold.PLP.ligand.clash>
0.0000

> <Gold.PLP.ligand.torsion>
0.6427

> <Gold.PLP.Chemscore.Hbond>
2.9840

> <Gold.PLP.Chemscore.CHOScore>
0.0000

> <Gold.PLP.Chemscore.Metal>
0.0000

> <Gold.Chemscore.Hbonds>
donor molecule, donor type, donor heavy atom, donor atom, acceptor molecule, acceptor atom, score
      L1  H     8    54       P1  8028  1.98
      P1  H  7989  7998       L1    11  1.00

> <Gold.PLP.Chemscore.Internal.Correction>
0.1235

> <Gold.Rescore>
     Score         DG    S(hbond)    S(metal)    S(lipo)     H(rot)  DE(clash)    DE(int)     intcor
     19.95     -20.95       1.76        0.00     129.49       2.17       0.36       0.64       ----

> <Gold.Chemscore.Fitness>
19.9543

> <Gold.Chemscore.DG>
-20.9514

> <Gold.Chemscore.ZeroCoef>
-5.4800

> <Gold.Chemscore.Hbond>
1.7629

> <Gold.Chemscore.Metal>
0.0000

> <Gold.Chemscore.Lipo>
129.4868

> <Gold.Chemscore.Internal_Hbond>
0.0000

> <Gold.Chemscore.DEClash>
0.3576

> <Gold.Chemscore.DEInternal>
0.6394

> <Gold.Chemscore.Rot>
2.1744

> <Gold.Chemscore.Internal.Correction>
   9.000000E+99

> <Gold.Chemscore.Hbonds>
donor molecule, donor type, donor heavy atom, donor atom, acceptor molecule, acceptor atom, score
      L1  H     8    54       P1  8028  0.94
      P1  H  7989  7998       L1    11  0.39

> <Gold.Chemscore.Hbond.Weighted>
-5.8880

> <Gold.Chemscore.Metal.Weighted>
-0.0000

> <Gold.Chemscore.Lipo.Weighted>
-15.1500

> <Gold.Chemscore.Internal_Hbond.Weighted>
0.0000

> <Gold.Chemscore.DEClash.Weighted>
0.3576

> <Gold.Chemscore.DEInternal.Weighted>
0.6394

> <Gold.Chemscore.Rot.Weighted>
5.5666

> <Gold.Chemscore.Internal.Correction.Weighted>
   9.000000E+99

> <Gold.Protein.RotatedTorsions>
[ 6907 6896 6895 6894 ] final -121.66 input  -60.11 | X-H torsion
[ 7974 7965 7964 7962 ] final  119.59 input  175.53 | X-H torsion
[ 8008 7997 7996 7995 ] final  111.71 input   59.86 | X-H torsion
[ 10167 10162 10161 10158 ] final   84.39 input  -65.29 | X-H torsion
[ 10718 10713 10712 10709 ] final -105.77 input   66.30 | X-H torsion
[ 10763 10752 10751 10750 ] final -175.28 input  -60.55 | X-H torsion
[ 11005 11000 10999 10996 ] final   44.53 input  -57.11 | X-H torsion

> <Gold.Protein.ActiveResidues>
 VAL166  LYS551  ARG553  GLY616  TRP617  ASP618  TYR619  PRO620  LYS621  CYS622 
 ASP623  PHE694  ASN695  SER759  ASP760  ASP761  ALA762  ILE779  LEU786  VAL792 
 PHE793  MET794  SER795  GLU796  ALA797  LYS798  CYS799  TRP800  GLU811  SER814 

> <Gold.Protein.RotatedAtoms>
  150.8504  133.7796  159.3027 H   0  0  0  0  0  0  0  0  0  0  0  0  # atno 6907 bound_to 6896
  151.5469  135.1066  159.9950 H   0  0  0  0  0  0  0  0  0  0  0  0  # atno 6908 bound_to 6896
  152.4548  133.7658  159.6827 H   0  0  0  0  0  0  0  0  0  0  0  0  # atno 6909 bound_to 6896
  145.1413  139.3266  143.4614 H   0  0  0  0  0  0  0  0  0  0  0  0  # atno 7974 bound_to 7965
  156.2142  140.3014  155.9802 H   0  0  0  0  0  0  0  0  0  0  0  0  # atno 8008 bound_to 7997
  155.2647  140.0431  157.3018 H   0  0  0  0  0  0  0  0  0  0  0  0  # atno 8009 bound_to 7997
  154.5744  140.2357  155.8153 H   0  0  0  0  0  0  0  0  0  0  0  0  # atno 8010 bound_to 7997
  139.9085  144.6286  150.8562 H   0  0  0  0  0  0  0  0  0  0  0  0  # atno 10167 bound_to 10162
  156.0360  130.5580  150.7586 H   0  0  0  0  0  0  0  0  0  0  0  0  # atno 10718 bound_to 10713
  154.5862  135.2841  155.0682 H   0  0  0  0  0  0  0  0  0  0  0  0  # atno 10763 bound_to 10752
  154.2000  135.6426  153.5088 H   0  0  0  0  0  0  0  0  0  0  0  0  # atno 10764 bound_to 10752
  153.0105  135.5466  154.6533 H   0  0  0  0  0  0  0  0  0  0  0  0  # atno 10765 bound_to 10752
  140.1543  134.4422  155.8360 H   0  0  0  0  0  0  0  0  0  0  0  0  # atno 11005 bound_to 11000
  146.3505  140.1451  142.8593 LP  0  0  0  0  0  0  0  0  0  0  0  0  # atno 17320 bound_to 7965
  145.0529  140.9031  143.4984 LP  0  0  0  0  0  0  0  0  0  0  0  0  # atno 17321 bound_to 7965
  140.7691  143.3383  151.2261 LP  0  0  0  0  0  0  0  0  0  0  0  0  # atno 17342 bound_to 10162
  139.6963  143.9607  152.2884 LP  0  0  0  0  0  0  0  0  0  0  0  0  # atno 17343 bound_to 10162
  157.5112  131.0925  151.0196 LP  0  0  0  0  0  0  0  0  0  0  0  0  # atno 17370 bound_to 10713
  157.0551  130.5803  149.5376 LP  0  0  0  0  0  0  0  0  0  0  0  0  # atno 17371 bound_to 10713
  141.2202  133.6886  156.7479 LP  0  0  0  0  0  0  0  0  0  0  0  0  # atno 17394 bound_to 11000
  140.2566  134.8499  157.3719 LP  0  0  0  0  0  0  0  0  0  0  0  0  # atno 17395 bound_to 11000

$$$$
