AV-unprocessed.smi:2204|AV-procd|sdf|8937|dock9
  -GOLD-   2272012153D 1   1.00000     0.00000
 Structure written by MMmdl.
 39 40  0  0  0  0  0  0  0  0  1 V2000
  154.0585  140.9232  160.7287 C   0  0  0  0  0  0  0  0  0  0  0  0
  153.2219  142.0220  160.1433 C   0  0  0  0  0  0  0  0  0  0  0  0
  152.8469  143.2577  160.7409 C   0  0  0  0  0  0  0  0  0  0  0  0
  152.0861  143.8760  159.7891 C   0  0  0  0  0  0  0  0  0  0  0  0
  151.3975  145.2010  159.8184 C   0  0  0  0  0  0  0  0  0  0  0  0
  152.0389  143.0253  158.6982 N   0  0  0  0  0  0  0  0  0  0  0  0
  151.3622  143.2020  157.4221 C   0  0  0  0  0  0  0  0  0  0  0  0
  150.6301  141.9309  156.9797 C   0  0  0  0  0  0  0  0  0  0  0  0
  150.8796  140.8499  157.5141 O   0  0  0  0  0  0  0  0  0  0  0  0
  149.7152  142.0822  156.0088 N   0  0  0  0  0  0  0  0  0  0  0  0
  148.8915  141.0214  155.4305 C   0  0  2  0  0  0  0  0  0  0  0  0
  148.2399  140.2273  156.5723 C   0  0  0  0  0  0  0  0  0  0  0  0
  149.7374  140.1130  154.5126 C   0  0  2  0  0  0  0  0  0  0  0  0
  149.3996  138.6215  154.5798 C   0  0  0  0  0  0  0  0  0  0  0  0
  150.6881  137.9928  154.1042 C   0  0  0  0  0  0  0  0  0  0  0  0
  151.7304  138.9003  154.7493 C   0  0  0  0  0  0  0  0  0  0  0  0
  151.1159  140.1809  154.8729 O   0  0  0  0  0  0  0  0  0  0  0  0
  152.7371  141.8899  158.9195 N   0  0  0  0  0  0  0  0  0  0  0  0
  154.4469  141.2030  161.7082 H   0  0  0  0  0  0  0  0  0  0  0  0
  154.9103  140.6927  160.0881 H   0  0  0  0  0  0  0  0  0  0  0  0
  153.4754  140.0103  160.8515 H   0  0  0  0  0  0  0  0  0  0  0  0
  153.0963  143.6325  161.7224 H   0  0  0  0  0  0  0  0  0  0  0  0
  151.4876  145.6649  160.8007 H   0  0  0  0  0  0  0  0  0  0  0  0
  150.3359  145.0943  159.5959 H   0  0  0  0  0  0  0  0  0  0  0  0
  151.8325  145.8805  159.0854 H   0  0  0  0  0  0  0  0  0  0  0  0
  150.6450  144.0183  157.5059 H   0  0  0  0  0  0  0  0  0  0  0  0
  152.0961  143.5028  156.6725 H   0  0  0  0  0  0  0  0  0  0  0  0
  149.5803  143.0101  155.6343 H   0  0  0  0  0  0  0  0  0  0  0  0
  148.0881  141.4618  154.8373 H   0  0  0  0  0  0  0  0  0  0  0  0
  147.5887  139.4427  156.1864 H   0  0  0  0  0  0  0  0  0  0  0  0
  147.6307  140.8750  157.2037 H   0  0  0  0  0  0  0  0  0  0  0  0
  148.9902  139.7535  157.2064 H   0  0  0  0  0  0  0  0  0  0  0  0
  149.6521  140.4453  153.4764 H   0  0  0  0  0  0  0  0  0  0  0  0
  149.1968  138.3174  155.6078 H   0  0  0  0  0  0  0  0  0  0  0  0
  148.5404  138.3502  153.9658 H   0  0  0  0  0  0  0  0  0  0  0  0
  150.7915  136.9477  154.3977 H   0  0  0  0  0  0  0  0  0  0  0  0
  150.7554  138.0532  153.0171 H   0  0  0  0  0  0  0  0  0  0  0  0
  151.9822  138.5414  155.7478 H   0  0  0  0  0  0  0  0  0  0  0  0
  152.6502  138.9542  154.1664 H   0  0  0  0  0  0  0  0  0  0  0  0
  1  2  1  0  0  0  0
  1 19  1  0  0  0  0
  1 20  1  0  0  0  0
  1 21  1  0  0  0  0
  2 18  2  0  0  0  0
  2  3  1  0  0  0  0
  3  4  2  0  0  0  0
  3 22  1  0  0  0  0
  4  5  1  0  0  0  0
  4  6  1  0  0  0  0
  5 23  1  0  0  0  0
  5 24  1  0  0  0  0
  5 25  1  0  0  0  0
  6  7  1  0  0  0  0
  6 18  1  0  0  0  0
  7  8  1  0  0  0  0
  7 26  1  0  0  0  0
  7 27  1  0  0  0  0
  8  9  2  0  0  0  0
  8 10  1  0  0  0  0
 10 11  1  0  0  0  0
 10 28  1  0  0  0  0
 11 12  1  0  0  0  0
 11 13  1  0  0  0  0
 11 29  1  0  0  0  0
 12 30  1  0  0  0  0
 12 31  1  0  0  0  0
 12 32  1  0  0  0  0
 13 17  1  0  0  0  0
 13 14  1  0  0  0  0
 13 33  1  0  0  0  0
 14 15  1  0  0  0  0
 14 34  1  0  0  0  0
 14 35  1  0  0  0  0
 15 16  1  0  0  0  0
 15 36  1  0  0  0  0
 15 37  1  0  0  0  0
 16 17  1  0  0  0  0
 16 38  1  0  0  0  0
 16 39  1  0  0  0  0
M  END
> <s_m_source_file>
AV-unprocessed.smi

> <i_m_source_file_index>
2204

> <i_lp_mmshare_version>
43012

> <i_f3d_flags>
0

> <s_epik_input>
W0NIM11jMVtjSF1jKFtDSDNdKW4objEpW0NIMl1DKD1PKVtOSF1bQ0BIXShbQ0gzXSlbQ0BASF0yW0NIMl1bQ0gyXVtDSDJdTzI=

> <s_epik_cmdline>
J2VwaWtfcHl0aG9uJywgJy1waCcsICc3LjAnLCAnLXRuJywgJzgnLCAnLW1hJywgJzIwMCcsICctbWV0YWxfYmluZGluZycsICctaW1hZScsICc8aW5maWxlLm1hZT4nLCAnLW9tYWUnLCAnPG91dGZpbGUubWFlPic=

> <r_lp_tautomer_probability>
1

> <r_epik_Ionization_Penalty>
0.000433354

> <r_epik_Ionization_Penalty_Charging>
0

> <r_epik_Ionization_Penalty_Neutral>
0.000433354

> <r_epik_State_Penalty>
-0

> <r_epik_Charging_Adjusted_Penalty>
0

> <i_epik_Tot_Q>
0

> <i_epik_Tot_abs_Q>
0

> <r_epik_Metal_State_Penalty>
-0

> <b_epik_Metal_Only>
0

> <s_lp_Force_Field>
OPLS_2005

> <r_lp_Energy>
17.0674

> <b_lp_Chiralities_Consistent>
1

> <s_lp_Variant>
AV-unprocessed.smi:2204-1

> <Gold.Version>
5.8.1

> <Gold.Id.Protein>
6NUR|6NUR_protein|mol2

> <Gold.PLP.Fitness>
45.7061

> <Gold.PLP.PLP>
-43.3263

> <Gold.PLP.part.hbond>
-2.0000

> <Gold.PLP.part.metal>
0.0000

> <Gold.PLP.part.buried>
-5.6760

> <Gold.PLP.part.nonpolar>
-36.5541

> <Gold.PLP.part.repulsive>
0.1821

> <Gold.PLP.ligand.clash>
0.0000

> <Gold.PLP.ligand.torsion>
1.5927

> <Gold.PLP.Chemscore.Hbond>
1.8500

> <Gold.PLP.Chemscore.CHOScore>
0.0000

> <Gold.PLP.Chemscore.Metal>
0.0000

> <Gold.Chemscore.Hbonds>
donor molecule, donor type, donor heavy atom, donor atom, acceptor molecule, acceptor atom, score
      L1  H    10    28       P1  8028  1.00
      P1  H  7989  7998       L1    17  0.85

> <Gold.PLP.Chemscore.Internal.Correction>
0.0153

> <Gold.Rescore>
     Score         DG    S(hbond)    S(metal)    S(lipo)     H(rot)  DE(clash)    DE(int)     intcor
      9.90     -17.41       1.08        0.00     104.09       1.50       0.02       7.49       ----

> <Gold.Chemscore.Fitness>
9.8973

> <Gold.Chemscore.DG>
-17.4103

> <Gold.Chemscore.ZeroCoef>
-5.4800

> <Gold.Chemscore.Hbond>
1.0756

> <Gold.Chemscore.Metal>
0.0000

> <Gold.Chemscore.Lipo>
104.0926

> <Gold.Chemscore.Internal_Hbond>
0.0000

> <Gold.Chemscore.DEClash>
0.0206

> <Gold.Chemscore.DEInternal>
7.4924

> <Gold.Chemscore.Rot>
1.5005

> <Gold.Chemscore.Internal.Correction>
   9.000000E+99

> <Gold.Chemscore.Hbonds>
donor molecule, donor type, donor heavy atom, donor atom, acceptor molecule, acceptor atom, score
      L1  H    10    28       P1  8028  0.98
      P1  H  7989  7998       L1    17  0.04

> <Gold.Chemscore.Hbond.Weighted>
-3.5927

> <Gold.Chemscore.Metal.Weighted>
-0.0000

> <Gold.Chemscore.Lipo.Weighted>
-12.1788

> <Gold.Chemscore.Internal_Hbond.Weighted>
0.0000

> <Gold.Chemscore.DEClash.Weighted>
0.0206

> <Gold.Chemscore.DEInternal.Weighted>
7.4924

> <Gold.Chemscore.Rot.Weighted>
3.8412

> <Gold.Chemscore.Internal.Correction.Weighted>
   9.000000E+99

> <Gold.Protein.RotatedTorsions>
[ 6907 6896 6895 6894 ] final  -57.18 input  -60.11 | X-H torsion
[ 7974 7965 7964 7962 ] final -150.24 input  175.53 | X-H torsion
[ 8008 7997 7996 7995 ] final  138.54 input   59.86 | X-H torsion
[ 10167 10162 10161 10158 ] final  132.85 input  -65.29 | X-H torsion
[ 10718 10713 10712 10709 ] final  -34.73 input   66.30 | X-H torsion
[ 10763 10752 10751 10750 ] final  129.22 input  -60.55 | X-H torsion
[ 11005 11000 10999 10996 ] final  -43.01 input  -57.11 | X-H torsion

> <Gold.Protein.ActiveResidues>
 VAL166  LYS551  ARG553  GLY616  TRP617  ASP618  TYR619  PRO620  LYS621  CYS622 
 ASP623  PHE694  ASN695  SER759  ASP760  ASP761  ALA762  ILE779  LEU786  VAL792 
 PHE793  MET794  SER795  GLU796  ALA797  LYS798  CYS799  TRP800  GLU811  SER814 

> <Gold.Protein.RotatedAtoms>
  150.8107  134.7259  159.6684 H   0  0  0  0  0  0  0  0  0  0  0  0  # atno 6907 bound_to 6896
  152.4226  134.5923  159.9987 H   0  0  0  0  0  0  0  0  0  0  0  0  # atno 6908 bound_to 6896
  151.6134  133.3308  159.3108 H   0  0  0  0  0  0  0  0  0  0  0  0  # atno 6909 bound_to 6896
  144.7919  140.4958  143.5766 H   0  0  0  0  0  0  0  0  0  0  0  0  # atno 7974 bound_to 7965
  156.2996  140.2391  156.4090 H   0  0  0  0  0  0  0  0  0  0  0  0  # atno 8008 bound_to 7997
  154.8458  140.0426  157.1591 H   0  0  0  0  0  0  0  0  0  0  0  0  # atno 8009 bound_to 7997
  154.9053  140.2982  155.5299 H   0  0  0  0  0  0  0  0  0  0  0  0  # atno 8010 bound_to 7997
  139.5322  144.6643  151.4911 H   0  0  0  0  0  0  0  0  0  0  0  0  # atno 10167 bound_to 10162
  156.3471  130.4302  149.7737 H   0  0  0  0  0  0  0  0  0  0  0  0  # atno 10718 bound_to 10713
  153.7382  135.3228  155.3299 H   0  0  0  0  0  0  0  0  0  0  0  0  # atno 10763 bound_to 10752
  154.8304  135.4538  154.1053 H   0  0  0  0  0  0  0  0  0  0  0  0  # atno 10764 bound_to 10752
  153.2220  135.6949  153.8070 H   0  0  0  0  0  0  0  0  0  0  0  0  # atno 10765 bound_to 10752
  141.0355  133.6802  156.2674 H   0  0  0  0  0  0  0  0  0  0  0  0  # atno 11005 bound_to 11000
  145.5772  139.1486  143.3256 LP  0  0  0  0  0  0  0  0  0  0  0  0  # atno 17320 bound_to 7965
  146.2174  140.5903  142.9032 LP  0  0  0  0  0  0  0  0  0  0  0  0  # atno 17321 bound_to 7965
  140.6507  143.8703  150.6782 LP  0  0  0  0  0  0  0  0  0  0  0  0  # atno 17342 bound_to 10162
  140.2066  143.3916  152.1750 LP  0  0  0  0  0  0  0  0  0  0  0  0  # atno 17343 bound_to 10162
  156.4951  130.8103  151.3110 LP  0  0  0  0  0  0  0  0  0  0  0  0  # atno 17370 bound_to 10713
  157.7455  130.9963  150.2774 LP  0  0  0  0  0  0  0  0  0  0  0  0  # atno 17371 bound_to 10713
  140.6330  134.5244  157.5561 LP  0  0  0  0  0  0  0  0  0  0  0  0  # atno 17394 bound_to 11000
  139.9237  134.8097  156.1132 LP  0  0  0  0  0  0  0  0  0  0  0  0  # atno 17395 bound_to 11000

$$$$
