AV-unprocessed.smi:564|AV-procd|sdf|2949|dock8
  -GOLD-   2262023453D 1   1.00000     0.00000
 Structure written by MMmdl.
 50 51  0  0  0  0  0  0  0  0  2 V2000
  143.7969  132.3185  150.5942 C   0  0  0  0  0  0  0  0  0  0  0  0
  144.9976  132.2302  151.4926 C   0  0  0  0  0  0  0  0  0  0  0  0
  145.1680  131.1400  152.2212 N   0  0  0  0  0  0  0  0  0  0  0  0
  146.3130  131.3524  152.8995 N   0  0  0  0  0  0  0  0  0  0  0  0
  146.8010  130.3293  153.8038 C   0  0  0  0  0  0  0  0  0  0  0  0
  146.8703  132.5793  152.5958 C   0  0  0  0  0  0  0  0  0  0  0  0
  148.1498  133.0509  153.2078 C   0  0  0  0  0  0  0  0  0  0  0  0
  146.0417  133.1834  151.6881 C   0  0  0  0  0  0  0  0  0  0  0  0
  146.1949  134.5375  151.0363 C   0  0  0  0  0  0  0  0  0  0  0  0
  145.5371  135.6467  151.8674 C   0  0  0  0  0  0  0  0  0  0  0  0
  144.3270  135.6419  152.0999 O   0  0  0  0  0  0  0  0  0  0  0  0
  146.3595  136.6080  152.3138 N   0  0  0  0  0  0  0  0  0  0  0  0
  145.9454  137.7536  153.1152 C   0  0  0  0  0  0  0  0  0  0  0  0
  146.8240  138.9876  152.8279 C   0  0  0  0  0  0  0  0  0  0  0  0
  146.3649  140.2203  153.5242 N   0  3  2  0  0  0  0  0  0  0  0  0
  147.2721  141.3718  153.2664 C   0  0  0  0  0  0  0  0  0  0  0  0
  146.6833  142.6856  153.8043 C   0  0  0  0  0  0  0  0  0  0  0  0
  146.3577  142.5718  155.2970 C   0  0  0  0  0  0  0  0  0  0  0  0
  145.4332  141.3708  155.5371 C   0  0  0  0  0  0  0  0  0  0  0  0
  146.0206  140.0593  154.9725 C   0  0  2  0  0  0  0  0  0  0  0  0
  147.1881  139.5270  155.8313 C   0  0  0  0  0  0  0  0  0  0  0  0
  143.7370  133.2844  150.0942 H   0  0  0  0  0  0  0  0  0  0  0  0
  142.8742  132.1818  151.1586 H   0  0  0  0  0  0  0  0  0  0  0  0
  143.8314  131.5506  149.8213 H   0  0  0  0  0  0  0  0  0  0  0  0
  147.1496  130.7879  154.7293 H   0  0  0  0  0  0  0  0  0  0  0  0
  147.6279  129.7942  153.3366 H   0  0  0  0  0  0  0  0  0  0  0  0
  146.0081  129.6193  154.0431 H   0  0  0  0  0  0  0  0  0  0  0  0
  148.5718  133.8833  152.6448 H   0  0  0  0  0  0  0  0  0  0  0  0
  148.8934  132.2541  153.2249 H   0  0  0  0  0  0  0  0  0  0  0  0
  147.9869  133.3855  154.2323 H   0  0  0  0  0  0  0  0  0  0  0  0
  147.2454  134.7909  150.8937 H   0  0  0  0  0  0  0  0  0  0  0  0
  145.7510  134.5404  150.0402 H   0  0  0  0  0  0  0  0  0  0  0  0
  147.3408  136.5374  152.0853 H   0  0  0  0  0  0  0  0  0  0  0  0
  144.8928  137.9787  152.9340 H   0  0  0  0  0  0  0  0  0  0  0  0
  146.0281  137.4529  154.1590 H   0  0  0  0  0  0  0  0  0  0  0  0
  147.8668  138.7815  153.0700 H   0  0  0  0  0  0  0  0  0  0  0  0
  146.8007  139.1818  151.7548 H   0  0  0  0  0  0  0  0  0  0  0  0
  148.2504  141.1840  153.7102 H   0  0  0  0  0  0  0  0  0  0  0  0
  147.4350  141.4759  152.1929 H   0  0  0  0  0  0  0  0  0  0  0  0
  147.3843  143.5041  153.6370 H   0  0  0  0  0  0  0  0  0  0  0  0
  145.7778  142.9357  153.2498 H   0  0  0  0  0  0  0  0  0  0  0  0
  147.2780  142.4603  155.8713 H   0  0  0  0  0  0  0  0  0  0  0  0
  145.8827  143.4882  155.6487 H   0  0  0  0  0  0  0  0  0  0  0  0
  145.2260  141.2661  156.6027 H   0  0  0  0  0  0  0  0  0  0  0  0
  144.4707  141.5653  155.0616 H   0  0  0  0  0  0  0  0  0  0  0  0
  145.2169  139.3271  155.0430 H   0  0  0  0  0  0  0  0  0  0  0  0
  146.8914  139.4503  156.8777 H   0  0  0  0  0  0  0  0  0  0  0  0
  148.0628  140.1753  155.7908 H   0  0  0  0  0  0  0  0  0  0  0  0
  147.4974  138.5293  155.5210 H   0  0  0  0  0  0  0  0  0  0  0  0
  145.4960  140.4683  153.0723 H   0  0  0  0  0  0  0  0  0  0  0  0
  1  2  1  0  0  0  0
  1 22  1  0  0  0  0
  1 23  1  0  0  0  0
  1 24  1  0  0  0  0
  2  8  1  0  0  0  0
  2  3  2  0  0  0  0
  3  4  1  0  0  0  0
  4  5  1  0  0  0  0
  4  6  1  0  0  0  0
  5 25  1  0  0  0  0
  5 26  1  0  0  0  0
  5 27  1  0  0  0  0
  6  7  1  0  0  0  0
  6  8  2  0  0  0  0
  7 28  1  0  0  0  0
  7 29  1  0  0  0  0
  7 30  1  0  0  0  0
  8  9  1  0  0  0  0
  9 10  1  0  0  0  0
  9 31  1  0  0  0  0
  9 32  1  0  0  0  0
 10 11  2  0  0  0  0
 10 12  1  0  0  0  0
 12 13  1  0  0  0  0
 12 33  1  0  0  0  0
 13 14  1  0  0  0  0
 13 34  1  0  0  0  0
 13 35  1  0  0  0  0
 14 15  1  0  0  0  0
 14 36  1  0  0  0  0
 14 37  1  0  0  0  0
 15 20  1  0  0  0  0
 15 16  1  0  0  0  0
 15 50  1  0  0  0  0
 16 17  1  0  0  0  0
 16 38  1  0  0  0  0
 16 39  1  0  0  0  0
 17 18  1  0  0  0  0
 17 40  1  0  0  0  0
 17 41  1  0  0  0  0
 18 19  1  0  0  0  0
 18 42  1  0  0  0  0
 18 43  1  0  0  0  0
 19 20  1  0  0  0  0
 19 44  1  0  0  0  0
 19 45  1  0  0  0  0
 20 21  1  0  0  0  0
 20 46  1  0  0  0  0
 21 47  1  0  0  0  0
 21 48  1  0  0  0  0
 21 49  1  0  0  0  0
M  CHG  1  15   1
M  END
> <s_m_source_file>
AV-unprocessed.smi

> <i_m_source_file_index>
564

> <i_lp_mmshare_version>
43012

> <i_f3d_flags>
0

> <s_epik_input>
W0NIM11jMW5uKFtDSDNdKWMoW0NIM10pYzFbQ0gyXUMoPU8pW05IXVtDSDJdW0NIMl1OMltDSDJdW0NIMl1bQ0gyXVtDSDJdW0NASF0yW0NIM10=

> <s_epik_cmdline>
J2VwaWtfcHl0aG9uJywgJy1waCcsICc3LjAnLCAnLXRuJywgJzgnLCAnLW1hJywgJzIwMCcsICctbWV0YWxfYmluZGluZycsICctaW1hZScsICc8aW5maWxlLm1hZT4nLCAnLW9tYWUnLCAnPG91dGZpbGUubWFlPic=

> <r_lp_tautomer_probability>
1

> <r_epik_Ionization_Penalty>
0.00456826

> <r_epik_Ionization_Penalty_Charging>
0.00240401

> <r_epik_Ionization_Penalty_Neutral>
0.00216425

> <r_epik_State_Penalty>
-0

> <r_epik_Charging_Adjusted_Penalty>
0.00240401

> <i_epik_Tot_Q>
1

> <i_epik_Tot_abs_Q>
1

> <r_epik_Metal_State_Penalty>
-0

> <b_epik_Metal_Only>
0

> <s_lp_Force_Field>
OPLS_2005

> <r_lp_Energy>
15.7718

> <b_lp_Chiralities_Consistent>
1

> <s_lp_Variant>
AV-unprocessed.smi:564-3

> <Gold.Version>
5.8.1

> <Gold.Id.Protein>
6NUR|6NUR_protein|mol2

> <Gold.PLP.Fitness>
44.7670

> <Gold.PLP.PLP>
-36.9447

> <Gold.PLP.part.hbond>
-2.0000

> <Gold.PLP.part.metal>
0.0000

> <Gold.PLP.part.buried>
-7.0095

> <Gold.PLP.part.nonpolar>
-27.8027

> <Gold.PLP.part.repulsive>
0.3596

> <Gold.PLP.ligand.clash>
0.0000

> <Gold.PLP.ligand.torsion>
0.6185

> <Gold.PLP.Chemscore.Hbond>
3.0000

> <Gold.PLP.Chemscore.CHOScore>
0.0000

> <Gold.PLP.Chemscore.Metal>
0.0000

> <Gold.Chemscore.Hbonds>
donor molecule, donor type, donor heavy atom, donor atom, acceptor molecule, acceptor atom, score
      L1  H    12    33       P1  7948  1.00
      L1  H    15    50       P1 10175  2.00

> <Gold.PLP.Chemscore.Internal.Correction>
0.0593

> <Gold.Rescore>
     Score         DG    S(hbond)    S(metal)    S(lipo)     H(rot)  DE(clash)    DE(int)     intcor
     17.30     -18.05       2.00        0.00      85.76       1.61       0.21       0.53       ----

> <Gold.Chemscore.Fitness>
17.3043

> <Gold.Chemscore.DG>
-18.0463

> <Gold.Chemscore.ZeroCoef>
-5.4800

> <Gold.Chemscore.Hbond>
1.9956

> <Gold.Chemscore.Metal>
0.0000

> <Gold.Chemscore.Lipo>
85.7566

> <Gold.Chemscore.Internal_Hbond>
0.0000

> <Gold.Chemscore.DEClash>
0.2136

> <Gold.Chemscore.DEInternal>
0.5285

> <Gold.Chemscore.Rot>
1.6142

> <Gold.Chemscore.Internal.Correction>
   9.000000E+99

> <Gold.Chemscore.Hbonds>
donor molecule, donor type, donor heavy atom, donor atom, acceptor molecule, acceptor atom, score
      L1  H    12    33       P1  7948  1.00
      L1  H    15    50       P1 10175  0.90

> <Gold.Chemscore.Hbond.Weighted>
-6.6652

> <Gold.Chemscore.Metal.Weighted>
-0.0000

> <Gold.Chemscore.Lipo.Weighted>
-10.0335

> <Gold.Chemscore.Internal_Hbond.Weighted>
0.0000

> <Gold.Chemscore.DEClash.Weighted>
0.2136

> <Gold.Chemscore.DEInternal.Weighted>
0.5285

> <Gold.Chemscore.Rot.Weighted>
4.1324

> <Gold.Chemscore.Internal.Correction.Weighted>
   9.000000E+99

> <Gold.Protein.RotatedTorsions>
[ 6907 6896 6895 6894 ] final -150.03 input  -60.11 | X-H torsion
[ 7974 7965 7964 7962 ] final   -2.83 input  175.53 | X-H torsion
[ 8008 7997 7996 7995 ] final -178.26 input   59.86 | X-H torsion
[ 10167 10162 10161 10158 ] final  111.00 input  -65.29 | X-H torsion
[ 10718 10713 10712 10709 ] final  139.34 input   66.30 | X-H torsion
[ 10763 10752 10751 10750 ] final  128.33 input  -60.55 | X-H torsion
[ 11005 11000 10999 10996 ] final   -7.83 input  -57.11 | X-H torsion

> <Gold.Protein.ActiveResidues>
 VAL166  LYS551  ARG553  GLY616  TRP617  ASP618  TYR619  PRO620  LYS621  CYS622 
 ASP623  PHE694  ASN695  SER759  ASP760  ASP761  ALA762  ILE779  LEU786  VAL792 
 PHE793  MET794  SER795  GLU796  ALA797  LYS798  CYS799  TRP800  GLU811  SER814 

> <Gold.Protein.RotatedAtoms>
  151.1926  133.4658  159.2594 H   0  0  0  0  0  0  0  0  0  0  0  0  # atno 6907 bound_to 6896
  151.1148  135.0047  159.8521 H   0  0  0  0  0  0  0  0  0  0  0  0  # atno 6908 bound_to 6896
  152.5452  134.1842  159.8701 H   0  0  0  0  0  0  0  0  0  0  0  0  # atno 6909 bound_to 6896
  146.2399  140.1630  142.8332 H   0  0  0  0  0  0  0  0  0  0  0  0  # atno 7974 bound_to 7965
  156.0167  140.1252  157.0399 H   0  0  0  0  0  0  0  0  0  0  0  0  # atno 8008 bound_to 7997
  154.4296  140.1077  156.5975 H   0  0  0  0  0  0  0  0  0  0  0  0  # atno 8009 bound_to 7997
  155.6003  140.3470  155.4594 H   0  0  0  0  0  0  0  0  0  0  0  0  # atno 8010 bound_to 7997
  139.6645  144.7128  151.1803 H   0  0  0  0  0  0  0  0  0  0  0  0  # atno 10167 bound_to 10162
  157.4155  131.1033  151.0409 H   0  0  0  0  0  0  0  0  0  0  0  0  # atno 10718 bound_to 10713
  153.7238  135.3249  155.3272 H   0  0  0  0  0  0  0  0  0  0  0  0  # atno 10763 bound_to 10752
  154.8347  135.4506  154.1191 H   0  0  0  0  0  0  0  0  0  0  0  0  # atno 10764 bound_to 10752
  153.2319  135.6961  153.7961 H   0  0  0  0  0  0  0  0  0  0  0  0  # atno 10765 bound_to 10752
  140.7170  133.8861  155.8792 H   0  0  0  0  0  0  0  0  0  0  0  0  # atno 11005 bound_to 11000
  145.0074  140.8684  143.5245 LP  0  0  0  0  0  0  0  0  0  0  0  0  # atno 17320 bound_to 7965
  145.1658  139.2432  143.5367 LP  0  0  0  0  0  0  0  0  0  0  0  0  # atno 17321 bound_to 7965
  140.7594  143.5941  150.8766 LP  0  0  0  0  0  0  0  0  0  0  0  0  # atno 17342 bound_to 10162
  139.9602  143.6173  152.3004 LP  0  0  0  0  0  0  0  0  0  0  0  0  # atno 17343 bound_to 10162
  157.1359  130.6122  149.5542 LP  0  0  0  0  0  0  0  0  0  0  0  0  # atno 17370 bound_to 10713
  155.9864  130.4898  150.7076 LP  0  0  0  0  0  0  0  0  0  0  0  0  # atno 17371 bound_to 10713
  141.0036  134.1116  157.4292 LP  0  0  0  0  0  0  0  0  0  0  0  0  # atno 17394 bound_to 11000
  139.8857  135.0075  156.6454 LP  0  0  0  0  0  0  0  0  0  0  0  0  # atno 17395 bound_to 11000

$$$$
