AV-unprocessed.smi:2943|AV-procd|sdf|11268|dock3
  -GOLD-   2272016163D 1   1.00000     0.00000
 Structure written by MMmdl.
 36 38  0  0  0  0  0  0  0  0  1 V2000
  147.4568  140.1230  155.9589 C   0  0  0  0  0  0  0  0  0  0  0  0
  148.9236  140.3876  156.1289 C   0  0  0  0  0  0  0  0  0  0  0  0
  149.4915  141.3687  156.9092 C   0  0  0  0  0  0  0  0  0  0  0  0
  148.8009  142.3882  157.7630 C   0  0  0  0  0  0  0  0  0  0  0  0
  150.8830  141.3119  156.8048 N   0  0  0  0  0  0  0  0  0  0  0  0
  151.8281  142.1925  157.4779 C   0  0  0  0  0  0  0  0  0  0  0  0
  151.7514  142.0621  159.0083 C   0  0  2  0  0  0  0  0  0  0  0  0
  152.1786  143.3241  159.7570 C   0  0  0  0  0  0  0  0  0  0  0  0
  152.6311  142.7556  161.0823 C   0  0  0  0  0  0  0  0  0  0  0  0
  153.3173  141.4665  160.6424 C   0  0  0  0  0  0  0  0  0  0  0  0
  152.6105  141.0282  159.4859 O   0  0  0  0  0  0  0  0  0  0  0  0
  151.2255  140.2707  155.9545 C   0  0  0  0  0  0  0  0  0  0  0  0
  152.4847  139.8807  155.5920 N   0  0  0  0  0  0  0  0  0  0  0  0
  152.4640  138.8347  154.7625 C   0  0  0  0  0  0  0  0  0  0  0  0
  151.4085  138.1739  154.2792 N   0  0  0  0  0  0  0  0  0  0  0  0
  150.1663  138.5674  154.6402 C   0  0  0  0  0  0  0  0  0  0  0  0
  149.0938  137.8494  154.1158 N   0  0  0  0  0  0  0  0  0  0  0  0
  150.0110  139.6701  155.5212 C   0  0  0  0  0  0  0  0  0  0  0  0
  146.8678  141.0344  156.0608 H   0  0  0  0  0  0  0  0  0  0  0  0
  147.0985  139.4106  156.7023 H   0  0  0  0  0  0  0  0  0  0  0  0
  147.2353  139.7142  154.9735 H   0  0  0  0  0  0  0  0  0  0  0  0
  147.7589  142.1229  157.9390 H   0  0  0  0  0  0  0  0  0  0  0  0
  148.8207  143.3678  157.2855 H   0  0  0  0  0  0  0  0  0  0  0  0
  149.2768  142.4777  158.7389 H   0  0  0  0  0  0  0  0  0  0  0  0
  152.8340  141.9532  157.1308 H   0  0  0  0  0  0  0  0  0  0  0  0
  151.6404  143.2219  157.1723 H   0  0  0  0  0  0  0  0  0  0  0  0
  150.7372  141.8001  159.3119 H   0  0  0  0  0  0  0  0  0  0  0  0
  153.0190  143.8056  159.2547 H   0  0  0  0  0  0  0  0  0  0  0  0
  151.3741  144.0534  159.8546 H   0  0  0  0  0  0  0  0  0  0  0  0
  153.2916  143.4240  161.6355 H   0  0  0  0  0  0  0  0  0  0  0  0
  151.7672  142.5295  161.7088 H   0  0  0  0  0  0  0  0  0  0  0  0
  154.3522  141.6633  160.3601 H   0  0  0  0  0  0  0  0  0  0  0  0
  153.3171  140.7055  161.4228 H   0  0  0  0  0  0  0  0  0  0  0  0
  153.4294  138.4752  154.4383 H   0  0  0  0  0  0  0  0  0  0  0  0
  149.2369  137.0682  153.4926 H   0  0  0  0  0  0  0  0  0  0  0  0
  148.1394  138.0891  154.3427 H   0  0  0  0  0  0  0  0  0  0  0  0
  1  2  1  0  0  0  0
  1 19  1  0  0  0  0
  1 20  1  0  0  0  0
  1 21  1  0  0  0  0
  2 18  1  0  0  0  0
  2  3  2  0  0  0  0
  3  4  1  0  0  0  0
  3  5  1  0  0  0  0
  4 22  1  0  0  0  0
  4 23  1  0  0  0  0
  4 24  1  0  0  0  0
  5  6  1  0  0  0  0
  5 12  1  0  0  0  0
  6  7  1  0  0  0  0
  6 25  1  0  0  0  0
  6 26  1  0  0  0  0
  7 11  1  0  0  0  0
  7  8  1  0  0  0  0
  7 27  1  0  0  0  0
  8  9  1  0  0  0  0
  8 28  1  0  0  0  0
  8 29  1  0  0  0  0
  9 10  1  0  0  0  0
  9 30  1  0  0  0  0
  9 31  1  0  0  0  0
 10 11  1  0  0  0  0
 10 32  1  0  0  0  0
 10 33  1  0  0  0  0
 12 18  1  0  0  0  0
 12 13  2  0  0  0  0
 13 14  1  0  0  0  0
 14 15  2  0  0  0  0
 14 34  1  0  0  0  0
 15 16  1  0  0  0  0
 16 17  1  0  0  0  0
 16 18  2  0  0  0  0
 17 35  1  0  0  0  0
 17 36  1  0  0  0  0
M  END
> <s_m_source_file>
AV-unprocessed.smi

> <i_m_source_file_index>
2943

> <i_lp_mmshare_version>
43012

> <i_f3d_flags>
0

> <s_epik_input>
bjFbY0hdbmMoW05IMl0pYyhjMTIpYyhbQ0gzXSljKFtDSDNdKW4yW0NIMl1bQ0BASF0zW0NIMl1bQ0gyXVtDSDJdTzM=

> <s_epik_cmdline>
J2VwaWtfcHl0aG9uJywgJy1waCcsICc3LjAnLCAnLXRuJywgJzgnLCAnLW1hJywgJzIwMCcsICctbWV0YWxfYmluZGluZycsICctaW1hZScsICc8aW5maWxlLm1hZT4nLCAnLW9tYWUnLCAnPG91dGZpbGUubWFlPic=

> <r_epik_Ionization_Penalty>
0.0115167

> <r_epik_Ionization_Penalty_Charging>
0

> <r_epik_Ionization_Penalty_Neutral>
0.0115167

> <r_epik_State_Penalty>
0.00863248

> <r_epik_Charging_Adjusted_Penalty>
0.00863248

> <i_epik_Tot_Q>
0

> <i_epik_Tot_abs_Q>
0

> <r_epik_Metal_State_Penalty>
0.00847169

> <b_epik_Metal_Only>
0

> <s_lp_Force_Field>
OPLS_2005

> <r_lp_Energy>
17.4576

> <b_lp_Chiralities_Consistent>
1

> <s_lp_Variant>
AV-unprocessed.smi:2943-1

> <Gold.Version>
5.8.1

> <Gold.Id.Protein>
6NUR|6NUR_protein|mol2

> <Gold.PLP.Fitness>
37.9061

> <Gold.PLP.PLP>
-32.5735

> <Gold.PLP.part.hbond>
-2.5606

> <Gold.PLP.part.metal>
0.0000

> <Gold.PLP.part.buried>
-4.0367

> <Gold.PLP.part.nonpolar>
-25.2198

> <Gold.PLP.part.repulsive>
0.1925

> <Gold.PLP.ligand.clash>
0.0000

> <Gold.PLP.ligand.torsion>
0.3339

> <Gold.PLP.Chemscore.Hbond>
2.0000

> <Gold.PLP.Chemscore.CHOScore>
0.0000

> <Gold.PLP.Chemscore.Metal>
0.0000

> <Gold.Chemscore.Hbonds>
donor molecule, donor type, donor heavy atom, donor atom, acceptor molecule, acceptor atom, score
      L1  H    17    35       P1  7948  1.00
      P1  H  7997  8009       L1    13  1.00

> <Gold.PLP.Chemscore.Internal.Correction>
0.0004

> <Gold.Rescore>
     Score         DG    S(hbond)    S(metal)    S(lipo)     H(rot)  DE(clash)    DE(int)     intcor
     15.41     -17.21       1.96        0.00      71.74       1.26       1.51       0.29       ----

> <Gold.Chemscore.Fitness>
15.4088

> <Gold.Chemscore.DG>
-17.2079

> <Gold.Chemscore.ZeroCoef>
-5.4800

> <Gold.Chemscore.Hbond>
1.9644

> <Gold.Chemscore.Metal>
0.0000

> <Gold.Chemscore.Lipo>
71.7443

> <Gold.Chemscore.Internal_Hbond>
0.0000

> <Gold.Chemscore.DEClash>
1.5063

> <Gold.Chemscore.DEInternal>
0.2928

> <Gold.Chemscore.Rot>
1.2607

> <Gold.Chemscore.Internal.Correction>
   9.000000E+99

> <Gold.Chemscore.Hbonds>
donor molecule, donor type, donor heavy atom, donor atom, acceptor molecule, acceptor atom, score
      L1  H    17    35       P1  7948  0.94
      P1  H  7997  8009       L1    13  0.59

> <Gold.Chemscore.Hbond.Weighted>
-6.5612

> <Gold.Chemscore.Metal.Weighted>
-0.0000

> <Gold.Chemscore.Lipo.Weighted>
-8.3941

> <Gold.Chemscore.Internal_Hbond.Weighted>
0.0000

> <Gold.Chemscore.DEClash.Weighted>
1.5063

> <Gold.Chemscore.DEInternal.Weighted>
0.2928

> <Gold.Chemscore.Rot.Weighted>
3.2274

> <Gold.Chemscore.Internal.Correction.Weighted>
   9.000000E+99

> <Gold.Protein.RotatedTorsions>
[ 6907 6896 6895 6894 ] final -155.50 input  -60.11 | X-H torsion
[ 7974 7965 7964 7962 ] final -163.72 input  175.53 | X-H torsion
[ 8008 7997 7996 7995 ] final -148.24 input   59.86 | X-H torsion
[ 10167 10162 10161 10158 ] final  130.09 input  -65.29 | X-H torsion
[ 10718 10713 10712 10709 ] final  -28.41 input   66.30 | X-H torsion
[ 10763 10752 10751 10750 ] final  -51.75 input  -60.55 | X-H torsion
[ 11005 11000 10999 10996 ] final -155.29 input  -57.11 | X-H torsion

> <Gold.Protein.ActiveResidues>
 VAL166  LYS551  ARG553  GLY616  TRP617  ASP618  TYR619  PRO620  LYS621  CYS622 
 ASP623  PHE694  ASN695  SER759  ASP760  ASP761  ALA762  ILE779  LEU786  VAL792 
 PHE793  MET794  SER795  GLU796  ALA797  LYS798  CYS799  TRP800  GLU811  SER814 

> <Gold.Protein.RotatedAtoms>
  151.2735  133.4244  159.2622 H   0  0  0  0  0  0  0  0  0  0  0  0  # atno 6907 bound_to 6896
  151.0424  134.9617  159.8179 H   0  0  0  0  0  0  0  0  0  0  0  0  # atno 6908 bound_to 6896
  152.5367  134.2692  159.9018 H   0  0  0  0  0  0  0  0  0  0  0  0  # atno 6909 bound_to 6896
  144.7317  140.3065  143.6195 H   0  0  0  0  0  0  0  0  0  0  0  0  # atno 7974 bound_to 7965
  155.5884  140.0650  157.2765 H   0  0  0  0  0  0  0  0  0  0  0  0  # atno 8008 bound_to 7997
  154.4312  140.1839  156.1096 H   0  0  0  0  0  0  0  0  0  0  0  0  # atno 8009 bound_to 7997
  156.0251  140.3312  155.7084 H   0  0  0  0  0  0  0  0  0  0  0  0  # atno 8010 bound_to 7997
  139.5446  144.6762  151.4514 H   0  0  0  0  0  0  0  0  0  0  0  0  # atno 10167 bound_to 10162
  156.4256  130.4435  149.7153 H   0  0  0  0  0  0  0  0  0  0  0  0  # atno 10718 bound_to 10713
  154.1317  135.6519  153.4923 H   0  0  0  0  0  0  0  0  0  0  0  0  # atno 10763 bound_to 10752
  153.0193  135.5294  154.6994 H   0  0  0  0  0  0  0  0  0  0  0  0  # atno 10764 bound_to 10752
  154.6231  135.2967  155.0274 H   0  0  0  0  0  0  0  0  0  0  0  0  # atno 10765 bound_to 10752
  140.6881  134.4071  157.5221 H   0  0  0  0  0  0  0  0  0  0  0  0  # atno 11005 bound_to 11000
  145.7708  139.1856  143.2214 LP  0  0  0  0  0  0  0  0  0  0  0  0  # atno 17320 bound_to 7965
  146.0912  140.7653  142.9594 LP  0  0  0  0  0  0  0  0  0  0  0  0  # atno 17321 bound_to 7965
  140.6690  143.8336  150.6976 LP  0  0  0  0  0  0  0  0  0  0  0  0  # atno 17342 bound_to 10162
  140.1754  143.4159  152.1971 LP  0  0  0  0  0  0  0  0  0  0  0  0  # atno 17343 bound_to 10162
  156.4076  130.7706  151.2717 LP  0  0  0  0  0  0  0  0  0  0  0  0  # atno 17370 bound_to 10713
  157.7508  131.0221  150.3777 LP  0  0  0  0  0  0  0  0  0  0  0  0  # atno 17371 bound_to 10713
  139.8931  134.8738  156.2237 LP  0  0  0  0  0  0  0  0  0  0  0  0  # atno 17394 bound_to 11000
  141.0263  133.7013  156.1354 LP  0  0  0  0  0  0  0  0  0  0  0  0  # atno 17395 bound_to 11000

$$$$
