AV-unprocessed.smi:907|AV-procd|sdf|4113|dock8
  -GOLD-   22720 2 13D 1   1.00000     0.00000
 Structure written by MMmdl.
 54 57  0  0  0  0  0  0  0  0  3 V2000
  149.9177  139.8477  154.1012 O   0  0  0  0  0  0  0  0  0  0  0  0
  149.0744  140.7136  154.3377 C   0  0  0  0  0  0  0  0  0  0  0  0
  149.3171  141.7368  155.1752 N   0  0  0  0  0  0  0  0  0  0  0  0
  150.5856  141.9781  155.8549 C   0  0  0  0  0  0  0  0  0  0  0  0
  150.4639  141.7835  157.3760 C   0  0  0  0  0  0  0  0  0  0  0  0
  151.1205  142.9083  158.1525 C   0  0  0  0  0  0  0  0  0  0  0  0
  152.2466  142.6909  158.9759 C   0  0  0  0  0  0  0  0  0  0  0  0
  152.8159  143.7805  159.6674 C   0  0  0  0  0  0  0  0  0  0  0  0
  152.2492  145.0636  159.5200 C   0  0  0  0  0  0  0  0  0  0  0  0
  151.1258  145.2244  158.6831 C   0  0  0  0  0  0  0  0  0  0  0  0
  150.6090  144.1555  158.0376 N   0  3  0  0  0  0  0  0  0  0  0  0
  147.8143  140.6762  153.8376 N   0  0  0  0  0  0  0  0  0  0  0  0
  147.3099  139.7246  152.8387 C   0  0  0  0  0  0  0  0  0  0  0  0
  146.4217  138.6782  153.5397 C   0  0  0  0  0  0  0  0  0  0  0  0
  145.3206  139.3137  154.3202 N   0  3  0  0  0  0  0  0  0  0  0  0
  144.4520  138.3261  155.0240 C   0  0  1  0  0  0  0  0  0  0  0  0
  143.0078  138.8187  155.2900 C   0  0  0  0  0  0  0  0  0  0  0  0
  142.1398  137.6583  154.7680 C   0  0  1  0  0  0  0  0  0  0  0  0
  142.1309  137.7008  153.2305 C   0  0  0  0  0  0  0  0  0  0  0  0
  143.5616  137.2583  152.8766 C   0  0  0  0  0  0  0  0  0  0  0  0
  144.1987  137.0018  154.2602 C   0  0  2  0  0  0  0  0  0  0  0  0
  143.0144  136.4405  155.0402 C   0  0  0  0  0  0  0  0  0  0  0  0
  145.8234  140.3845  155.2282 C   0  0  0  0  0  0  0  0  0  0  0  0
  146.7077  141.3930  154.4746 C   0  0  0  0  0  0  0  0  0  0  0  0
  148.5715  142.3949  155.3502 H   0  0  0  0  0  0  0  0  0  0  0  0
  151.3542  141.3194  155.4469 H   0  0  0  0  0  0  0  0  0  0  0  0
  150.9019  142.9976  155.6323 H   0  0  0  0  0  0  0  0  0  0  0  0
  149.4137  141.7185  157.6633 H   0  0  0  0  0  0  0  0  0  0  0  0
  150.9220  140.8397  157.6754 H   0  0  0  0  0  0  0  0  0  0  0  0
  152.6715  141.7025  159.0763 H   0  0  0  0  0  0  0  0  0  0  0  0
  153.6779  143.6337  160.3020 H   0  0  0  0  0  0  0  0  0  0  0  0
  152.6709  145.9113  160.0402 H   0  0  0  0  0  0  0  0  0  0  0  0
  150.6292  146.1683  158.5116 H   0  0  0  0  0  0  0  0  0  0  0  0
  146.7259  140.2680  152.0943 H   0  0  0  0  0  0  0  0  0  0  0  0
  148.0950  139.2173  152.2784 H   0  0  0  0  0  0  0  0  0  0  0  0
  146.0133  138.0099  152.7823 H   0  0  0  0  0  0  0  0  0  0  0  0
  147.0298  138.0668  154.2084 H   0  0  0  0  0  0  0  0  0  0  0  0
  144.9247  138.0849  155.9783 H   0  0  0  0  0  0  0  0  0  0  0  0
  142.8502  138.9786  156.3573 H   0  0  0  0  0  0  0  0  0  0  0  0
  142.7602  139.7476  154.7754 H   0  0  0  0  0  0  0  0  0  0  0  0
  141.1434  137.6216  155.2092 H   0  0  0  0  0  0  0  0  0  0  0  0
  141.4008  136.9979  152.8265 H   0  0  0  0  0  0  0  0  0  0  0  0
  141.8909  138.6910  152.8412 H   0  0  0  0  0  0  0  0  0  0  0  0
  143.5394  136.3407  152.2875 H   0  0  0  0  0  0  0  0  0  0  0  0
  144.0957  138.0089  152.2938 H   0  0  0  0  0  0  0  0  0  0  0  0
  145.0617  136.3361  154.2298 H   0  0  0  0  0  0  0  0  0  0  0  0
  143.2236  136.2858  156.1003 H   0  0  0  0  0  0  0  0  0  0  0  0
  142.6144  135.5169  154.6172 H   0  0  0  0  0  0  0  0  0  0  0  0
  144.9947  140.9209  155.6887 H   0  0  0  0  0  0  0  0  0  0  0  0
  146.3932  139.9311  156.0411 H   0  0  0  0  0  0  0  0  0  0  0  0
  147.0506  142.1740  155.1550 H   0  0  0  0  0  0  0  0  0  0  0  0
  146.1226  141.9065  153.7099 H   0  0  0  0  0  0  0  0  0  0  0  0
  144.7314  139.7748  153.6418 H   0  0  0  0  0  0  0  0  0  0  0  0
  149.7961  144.2960  157.4373 H   0  0  0  0  0  0  0  0  0  0  0  0
  1  2  2  0  0  0  0
  2  3  1  0  0  0  0
  2 12  1  0  0  0  0
  3  4  1  0  0  0  0
  3 25  1  0  0  0  0
  4  5  1  0  0  0  0
  4 26  1  0  0  0  0
  4 27  1  0  0  0  0
  5  6  1  0  0  0  0
  5 28  1  0  0  0  0
  5 29  1  0  0  0  0
  6 11  1  0  0  0  0
  6  7  2  0  0  0  0
  7  8  1  0  0  0  0
  7 30  1  0  0  0  0
  8  9  2  0  0  0  0
  8 31  1  0  0  0  0
  9 10  1  0  0  0  0
  9 32  1  0  0  0  0
 10 11  2  0  0  0  0
 10 33  1  0  0  0  0
 11 54  1  0  0  0  0
 12 24  1  0  0  0  0
 12 13  1  0  0  0  0
 13 14  1  0  0  0  0
 13 34  1  0  0  0  0
 13 35  1  0  0  0  0
 14 15  1  0  0  0  0
 14 36  1  0  0  0  0
 14 37  1  0  0  0  0
 15 16  1  0  0  0  0
 15 23  1  0  0  0  0
 15 53  1  0  0  0  0
 16 21  1  0  0  0  0
 16 17  1  0  0  0  0
 16 38  1  0  0  0  0
 17 18  1  0  0  0  0
 17 39  1  0  0  0  0
 17 40  1  0  0  0  0
 18 22  1  0  0  0  0
 18 19  1  0  0  0  0
 18 41  1  0  0  0  0
 19 20  1  0  0  0  0
 19 42  1  0  0  0  0
 19 43  1  0  0  0  0
 20 21  1  0  0  0  0
 20 44  1  0  0  0  0
 20 45  1  0  0  0  0
 21 22  1  0  0  0  0
 21 46  1  0  0  0  0
 22 47  1  0  0  0  0
 22 48  1  0  0  0  0
 23 24  1  0  0  0  0
 23 49  1  0  0  0  0
 23 50  1  0  0  0  0
 24 51  1  0  0  0  0
 24 52  1  0  0  0  0
M  CHG  1  11   1
M  CHG  1  15   1
M  END
> <s_m_source_file>
AV-unprocessed.smi

> <i_m_source_file_index>
907

> <i_lp_mmshare_version>
43012

> <i_f3d_flags>
0

> <s_epik_input>
W0NIMl0xW0NIMl1bQ0BASF0oW0NIMl0yKVtDQEBIXShbQ0gyXVtDQEhdMTIpTihbQ0gyXVtDSDJdMylbQ0gyXVtDSDJdTjNDKD1PKVtOSF1bQ0gyXVtDSDJdYzRbY0hdW2NIXVtjSF1bY0hdbjQ=

> <s_epik_cmdline>
J2VwaWtfcHl0aG9uJywgJy1waCcsICc3LjAnLCAnLXRuJywgJzgnLCAnLW1hJywgJzIwMCcsICctbWV0YWxfYmluZGluZycsICctaW1hZScsICc8aW5maWxlLm1hZT4nLCAnLW9tYWUnLCAnPG91dGZpbGUubWFlPic=

> <r_epik_Ionization_Penalty>
1.63018

> <r_epik_Ionization_Penalty_Charging>
1.63015

> <r_epik_Ionization_Penalty_Neutral>
2.64641e-05

> <r_epik_State_Penalty>
1.72761

> <r_epik_Charging_Adjusted_Penalty>
3.35777

> <i_epik_Tot_Q>
2

> <i_epik_Tot_abs_Q>
2

> <r_epik_Metal_State_Penalty>
1.76501

> <b_epik_Metal_Only>
0

> <s_lp_Force_Field>
OPLS_2005

> <r_lp_Energy>
102.542

> <b_lp_Chiralities_Consistent>
1

> <s_lp_Variant>
AV-unprocessed.smi:907-8

> <Gold.Version>
5.8.1

> <Gold.Id.Protein>
6NUR|6NUR_protein|mol2

> <Gold.PLP.Fitness>
53.9131

> <Gold.PLP.PLP>
-41.7751

> <Gold.PLP.part.hbond>
-4.1145

> <Gold.PLP.part.metal>
0.0000

> <Gold.PLP.part.buried>
-3.0749

> <Gold.PLP.part.nonpolar>
-35.0238

> <Gold.PLP.part.repulsive>
1.2560

> <Gold.PLP.ligand.clash>
0.9542

> <Gold.PLP.ligand.torsion>
0.8883

> <Gold.PLP.Chemscore.Hbond>
4.9214

> <Gold.PLP.Chemscore.CHOScore>
0.0000

> <Gold.PLP.Chemscore.Metal>
0.0000

> <Gold.Chemscore.Hbonds>
donor molecule, donor type, donor heavy atom, donor atom, acceptor molecule, acceptor atom, score
      L1  H     3    25       P1  8028  0.10
      L1  H    11    54       P1  8028  2.00
      L1  H    15    53       P1 10175  2.00
      P1  H  7989  7998       L1     1  0.86

> <Gold.PLP.Chemscore.Internal.Correction>
0.1044

> <Gold.Rescore>
     Score         DG    S(hbond)    S(metal)    S(lipo)     H(rot)  DE(clash)    DE(int)     intcor
     18.99     -20.58       1.97        0.00     104.65       1.46       0.68       0.92       ----

> <Gold.Chemscore.Fitness>
18.9891

> <Gold.Chemscore.DG>
-20.5849

> <Gold.Chemscore.ZeroCoef>
-5.4800

> <Gold.Chemscore.Hbond>
1.9733

> <Gold.Chemscore.Metal>
0.0000

> <Gold.Chemscore.Lipo>
104.6534

> <Gold.Chemscore.Internal_Hbond>
0.0000

> <Gold.Chemscore.DEClash>
0.6801

> <Gold.Chemscore.DEInternal>
0.9157

> <Gold.Chemscore.Rot>
1.4572

> <Gold.Chemscore.Internal.Correction>
   9.000000E+99

> <Gold.Chemscore.Hbonds>
donor molecule, donor type, donor heavy atom, donor atom, acceptor molecule, acceptor atom, score
      L1  H     3    25       P1  8028  0.10
      L1  H    11    54       P1  8028  0.28
      L1  H    15    53       P1 10175  1.00
      P1  H  7989  7998       L1     1  0.44

> <Gold.Chemscore.Hbond.Weighted>
-6.5909

> <Gold.Chemscore.Metal.Weighted>
-0.0000

> <Gold.Chemscore.Lipo.Weighted>
-12.2445

> <Gold.Chemscore.Internal_Hbond.Weighted>
0.0000

> <Gold.Chemscore.DEClash.Weighted>
0.6801

> <Gold.Chemscore.DEInternal.Weighted>
0.9157

> <Gold.Chemscore.Rot.Weighted>
3.7305

> <Gold.Chemscore.Internal.Correction.Weighted>
   9.000000E+99

> <Gold.Protein.RotatedTorsions>
[ 6907 6896 6895 6894 ] final  125.28 input  -60.11 | X-H torsion
[ 7974 7965 7964 7962 ] final  106.75 input  175.53 | X-H torsion
[ 8008 7997 7996 7995 ] final  -53.56 input   59.86 | X-H torsion
[ 10167 10162 10161 10158 ] final -128.30 input  -65.29 | X-H torsion
[ 10718 10713 10712 10709 ] final  170.15 input   66.30 | X-H torsion
[ 10763 10752 10751 10750 ] final  155.98 input  -60.55 | X-H torsion
[ 11005 11000 10999 10996 ] final  -63.05 input  -57.11 | X-H torsion

> <Gold.Protein.ActiveResidues>
 VAL166  LYS551  ARG553  GLY616  TRP617  ASP618  TYR619  PRO620  LYS621  CYS622 
 ASP623  PHE694  ASN695  SER759  ASP760  ASP761  ALA762  ILE779  LEU786  VAL792 
 PHE793  MET794  SER795  GLU796  ALA797  LYS798  CYS799  TRP800  GLU811  SER814 

> <Gold.Protein.RotatedAtoms>
  152.4005  133.6811  159.6312 H   0  0  0  0  0  0  0  0  0  0  0  0  # atno 6907 bound_to 6896
  150.7897  133.8799  159.3291 H   0  0  0  0  0  0  0  0  0  0  0  0  # atno 6908 bound_to 6896
  151.6565  135.0996  160.0222 H   0  0  0  0  0  0  0  0  0  0  0  0  # atno 6909 bound_to 6896
  145.3025  139.2565  143.3806 H   0  0  0  0  0  0  0  0  0  0  0  0  # atno 7974 bound_to 7965
  154.4137  140.1197  156.5174 H   0  0  0  0  0  0  0  0  0  0  0  0  # atno 8008 bound_to 7997
  155.6738  140.3496  155.4809 H   0  0  0  0  0  0  0  0  0  0  0  0  # atno 8009 bound_to 7997
  155.9610  140.1123  157.0885 H   0  0  0  0  0  0  0  0  0  0  0  0  # atno 8010 bound_to 7997
  139.9518  143.6048  152.2473 H   0  0  0  0  0  0  0  0  0  0  0  0  # atno 10167 bound_to 10162
  157.0124  131.0208  151.2799 H   0  0  0  0  0  0  0  0  0  0  0  0  # atno 10718 bound_to 10713
  154.1771  135.2801  155.3063 H   0  0  0  0  0  0  0  0  0  0  0  0  # atno 10763 bound_to 10752
  154.6031  135.5523  153.7398 H   0  0  0  0  0  0  0  0  0  0  0  0  # atno 10764 bound_to 10752
  153.0148  135.6397  154.1910 H   0  0  0  0  0  0  0  0  0  0  0  0  # atno 10765 bound_to 10752
  141.1380  133.6647  156.5621 H   0  0  0  0  0  0  0  0  0  0  0  0  # atno 11005 bound_to 11000
  146.3147  140.3543  142.8659 LP  0  0  0  0  0  0  0  0  0  0  0  0  # atno 17320 bound_to 7965
  144.9081  140.7725  143.5824 LP  0  0  0  0  0  0  0  0  0  0  0  0  # atno 17321 bound_to 7965
  139.6623  144.7662  151.1940 LP  0  0  0  0  0  0  0  0  0  0  0  0  # atno 17342 bound_to 10162
  140.7580  143.5992  150.8717 LP  0  0  0  0  0  0  0  0  0  0  0  0  # atno 17343 bound_to 10162
  157.5311  130.8059  149.7918 LP  0  0  0  0  0  0  0  0  0  0  0  0  # atno 17370 bound_to 10713
  156.0131  130.3824  150.2198 LP  0  0  0  0  0  0  0  0  0  0  0  0  # atno 17371 bound_to 10713
  140.3979  134.7382  157.4762 LP  0  0  0  0  0  0  0  0  0  0  0  0  # atno 17394 bound_to 11000
  140.0517  134.6121  155.8853 LP  0  0  0  0  0  0  0  0  0  0  0  0  # atno 17395 bound_to 11000

$$$$
