AV-unprocessed.smi:53|AV-procd|sdf|522|dock4
  -GOLD-   2262016393D 1   1.00000     0.00000
 Structure written by MMmdl.
 30 31  0  0  0  0  0  0  0  0  1 V2000
  153.7373  141.8934  160.3619 N   0  0  0  0  0  0  0  0  0  0  0  0
  152.7719  141.4656  159.5364 C   0  0  0  0  0  0  0  0  0  0  0  0
  151.6306  142.3055  159.2508 C   0  0  0  0  0  0  0  0  0  0  0  0
  150.6980  141.8045  158.4110 C   0  0  0  0  0  0  0  0  0  0  0  0
  150.8165  140.5426  157.8423 N   0  0  0  0  0  0  0  0  0  0  0  0
  149.7696  139.9790  156.8983 C   0  0  1  0  0  0  0  0  0  0  0  0
  148.6754  140.8483  156.8344 O   0  0  0  0  0  0  0  0  0  0  0  0
  148.6352  141.4992  155.5673 C   0  0  2  0  0  0  0  0  0  0  0  0
  147.1979  141.9436  155.2573 C   0  0  0  0  0  0  0  0  0  0  0  0
  147.1978  142.8738  154.1956 O   0  0  0  0  0  0  0  0  0  0  0  0
  149.1532  140.4009  154.6398 C   0  0  1  0  0  0  0  0  0  0  0  0
  149.5597  140.8860  153.3734 O   0  0  0  0  0  0  0  0  0  0  0  0
  150.2902  139.7902  155.4528 C   0  0  1  0  0  0  0  0  0  0  0  0
  151.5298  140.4378  155.2051 O   0  0  0  0  0  0  0  0  0  0  0  0
  151.9502  139.7476  158.1364 C   0  0  0  0  0  0  0  0  0  0  0  0
  152.1040  138.6331  157.6380 O   0  0  0  0  0  0  0  0  0  0  0  0
  152.8832  140.2700  158.9910 N   0  0  0  0  0  0  0  0  0  0  0  0
  149.4183  139.0533  157.3580 H   0  0  0  0  0  0  0  0  0  0  0  0
  149.3240  142.3462  155.5545 H   0  0  0  0  0  0  0  0  0  0  0  0
  148.3751  139.6493  154.4964 H   0  0  0  0  0  0  0  0  0  0  0  0
  150.4087  138.7269  155.2419 H   0  0  0  0  0  0  0  0  0  0  0  0
  154.5335  141.3043  160.5582 H   0  0  0  0  0  0  0  0  0  0  0  0
  153.6658  142.8070  160.7863 H   0  0  0  0  0  0  0  0  0  0  0  0
  151.4981  143.2918  159.6723 H   0  0  0  0  0  0  0  0  0  0  0  0
  149.8444  142.4279  158.1933 H   0  0  0  0  0  0  0  0  0  0  0  0
  146.6001  141.0881  154.9416 H   0  0  0  0  0  0  0  0  0  0  0  0
  146.7151  142.3700  156.1370 H   0  0  0  0  0  0  0  0  0  0  0  0
  147.6225  143.6654  154.4891 H   0  0  0  0  0  0  0  0  0  0  0  0
  149.3765  140.2227  152.7258 H   0  0  0  0  0  0  0  0  0  0  0  0
  152.1498  140.1508  155.8584 H   0  0  0  0  0  0  0  0  0  0  0  0
  1  2  1  0  0  0  0
  1 22  1  0  0  0  0
  1 23  1  0  0  0  0
  2 17  2  0  0  0  0
  2  3  1  0  0  0  0
  3  4  2  0  0  0  0
  3 24  1  0  0  0  0
  4  5  1  0  0  0  0
  4 25  1  0  0  0  0
  5  6  1  0  0  0  0
  5 15  1  0  0  0  0
  6 18  1  0  0  0  0
  6 13  1  0  0  0  0
  6  7  1  0  0  0  0
  7  8  1  0  0  0  0
  8 19  1  0  0  0  0
  8  9  1  0  0  0  0
  8 11  1  0  0  0  0
  9 10  1  0  0  0  0
  9 26  1  0  0  0  0
  9 27  1  0  0  0  0
 10 28  1  0  0  0  0
 11 20  1  0  0  0  0
 11 12  1  0  0  0  0
 11 13  1  0  0  0  0
 12 29  1  0  0  0  0
 13 21  1  0  0  0  0
 13 14  1  0  0  0  0
 14 30  1  0  0  0  0
 15 16  2  0  0  0  0
 15 17  1  0  0  0  0
M  END
> <s_m_source_file>
AV-unprocessed.smi

> <i_m_source_file_index>
53

> <i_lp_mmshare_version>
43012

> <i_f3d_flags>
0

> <s_epik_input>
W05IMl1jMVtjSF1bY0hdbihjKD1PKW4xKVtDQEBIXTJPW0NASF0oW0NIMl1bT0hdKVtDQEBIXShbT0hdKVtDQEBIXTJbT0hd

> <s_epik_cmdline>
J2VwaWtfcHl0aG9uJywgJy1waCcsICc3LjAnLCAnLXRuJywgJzgnLCAnLW1hJywgJzIwMCcsICctbWV0YWxfYmluZGluZycsICctaW1hZScsICc8aW5maWxlLm1hZT4nLCAnLW9tYWUnLCAnPG91dGZpbGUubWFlPic=

> <r_lp_tautomer_probability>
0.99996

> <r_epik_Ionization_Penalty>
0.00069087

> <r_epik_Ionization_Penalty_Charging>
2.61959e-08

> <r_epik_Ionization_Penalty_Neutral>
0.000690844

> <r_epik_State_Penalty>
1.15523e-05

> <r_epik_Charging_Adjusted_Penalty>
1.15785e-05

> <i_epik_Tot_Q>
0

> <i_epik_Tot_abs_Q>
0

> <r_epik_Metal_State_Penalty>
-0

> <b_epik_Metal_Only>
0

> <s_epik_Chemistry_Notes>
This compound contains an acetal/aminal-like group ( X-CH(R)-Y where X, Y are N, S, or O) that may be acid/base labile, releasing an aldehyde.

> <s_lp_Force_Field>
OPLS_2005

> <r_lp_Energy>
37.6612

> <b_lp_Chiralities_Consistent>
1

> <s_lp_Variant>
AV-unprocessed.smi:53-10

> <Gold.Version>
5.8.1

> <Gold.Id.Protein>
6NUR|6NUR_protein|mol2

> <Gold.PLP.Fitness>
36.1216

> <Gold.PLP.PLP>
-25.7657

> <Gold.PLP.part.hbond>
-5.0950

> <Gold.PLP.part.metal>
0.0000

> <Gold.PLP.part.buried>
-4.2887

> <Gold.PLP.part.nonpolar>
-16.5864

> <Gold.PLP.part.repulsive>
0.0908

> <Gold.PLP.ligand.clash>
0.0000

> <Gold.PLP.ligand.torsion>
0.2373

> <Gold.PLP.Chemscore.Hbond>
3.5840

> <Gold.PLP.Chemscore.CHOScore>
0.0000

> <Gold.PLP.Chemscore.Metal>
0.0000

> <Gold.Chemscore.Hbonds>
donor molecule, donor type, donor heavy atom, donor atom, acceptor molecule, acceptor atom, score
      L1  H    10    28       P1  8028  1.00
      L1  H    12    29       P1  7957  0.72
      P1  H  7989  7998       L1    14  0.88
      P1  H  8011  8017       L1    12  1.00

> <Gold.PLP.Chemscore.Internal.Correction>
0.0786

> <Gold.Rescore>
     Score         DG    S(hbond)    S(metal)    S(lipo)     H(rot)  DE(clash)    DE(int)     intcor
      8.69      -9.41       2.65        0.00      39.07       3.71       0.35       0.37       ----

> <Gold.Chemscore.Fitness>
8.6905

> <Gold.Chemscore.DG>
-9.4089

> <Gold.Chemscore.ZeroCoef>
-5.4800

> <Gold.Chemscore.Hbond>
2.6511

> <Gold.Chemscore.Metal>
0.0000

> <Gold.Chemscore.Lipo>
39.0668

> <Gold.Chemscore.Internal_Hbond>
0.0000

> <Gold.Chemscore.DEClash>
0.3461

> <Gold.Chemscore.DEInternal>
0.3724

> <Gold.Chemscore.Rot>
3.7095

> <Gold.Chemscore.Internal.Correction>
   9.000000E+99

> <Gold.Chemscore.Hbonds>
donor molecule, donor type, donor heavy atom, donor atom, acceptor molecule, acceptor atom, score
      L1  H    10    28       P1  8028  0.25
      L1  H    12    29       P1  7957  0.71
      P1  H  7989  7998       L1    14  0.64
      P1  H  8011  8017       L1    12  0.34

> <Gold.Chemscore.Hbond.Weighted>
-8.8545

> <Gold.Chemscore.Metal.Weighted>
-0.0000

> <Gold.Chemscore.Lipo.Weighted>
-4.5708

> <Gold.Chemscore.Internal_Hbond.Weighted>
0.0000

> <Gold.Chemscore.DEClash.Weighted>
0.3461

> <Gold.Chemscore.DEInternal.Weighted>
0.3724

> <Gold.Chemscore.Rot.Weighted>
9.4964

> <Gold.Chemscore.Internal.Correction.Weighted>
   9.000000E+99

> <Gold.Protein.RotatedTorsions>
[ 6907 6896 6895 6894 ] final -162.10 input  -60.11 | X-H torsion
[ 7974 7965 7964 7962 ] final  129.19 input  175.53 | X-H torsion
[ 8008 7997 7996 7995 ] final  164.01 input   59.86 | X-H torsion
[ 10167 10162 10161 10158 ] final  169.40 input  -65.29 | X-H torsion
[ 10718 10713 10712 10709 ] final  -22.05 input   66.30 | X-H torsion
[ 10763 10752 10751 10750 ] final  155.88 input  -60.55 | X-H torsion
[ 11005 11000 10999 10996 ] final  117.21 input  -57.11 | X-H torsion

> <Gold.Protein.ActiveResidues>
 VAL166  LYS551  ARG553  GLY616  TRP617  ASP618  TYR619  PRO620  LYS621  CYS622 
 ASP623  PHE694  ASN695  SER759  ASP760  ASP761  ALA762  ILE779  LEU786  VAL792 
 PHE793  MET794  SER795  GLU796  ALA797  LYS798  CYS799  TRP800  GLU811  SER814 

> <Gold.Protein.RotatedAtoms>
  151.3750  133.3841  159.2703 H   0  0  0  0  0  0  0  0  0  0  0  0  # atno 6907 bound_to 6896
  150.9622  134.9009  159.7747 H   0  0  0  0  0  0  0  0  0  0  0  0  # atno 6908 bound_to 6896
  152.5153  134.3709  159.9370 H   0  0  0  0  0  0  0  0  0  0  0  0  # atno 6909 bound_to 6896
  145.0313  139.4043  143.5148 H   0  0  0  0  0  0  0  0  0  0  0  0  # atno 7974 bound_to 7965
  156.1913  140.1708  156.8086 H   0  0  0  0  0  0  0  0  0  0  0  0  # atno 8008 bound_to 7997
  154.5475  140.0724  156.8644 H   0  0  0  0  0  0  0  0  0  0  0  0  # atno 8009 bound_to 7997
  155.3094  140.3366  155.4247 H   0  0  0  0  0  0  0  0  0  0  0  0  # atno 8010 bound_to 7997
  139.4991  144.3710  151.9724 H   0  0  0  0  0  0  0  0  0  0  0  0  # atno 10167 bound_to 10162
  156.5098  130.4607  149.6654 H   0  0  0  0  0  0  0  0  0  0  0  0  # atno 10718 bound_to 10713
  154.1754  135.2802  155.3068 H   0  0  0  0  0  0  0  0  0  0  0  0  # atno 10763 bound_to 10752
  154.6043  135.5519  153.7410 H   0  0  0  0  0  0  0  0  0  0  0  0  # atno 10764 bound_to 10752
  153.0153  135.6399  154.1894 H   0  0  0  0  0  0  0  0  0  0  0  0  # atno 10765 bound_to 10752
  139.9067  134.9607  156.7315 H   0  0  0  0  0  0  0  0  0  0  0  0  # atno 11005 bound_to 11000
  146.3499  139.9865  142.8690 LP  0  0  0  0  0  0  0  0  0  0  0  0  # atno 17320 bound_to 7965
  145.1766  140.9747  143.4290 LP  0  0  0  0  0  0  0  0  0  0  0  0  # atno 17321 bound_to 7965
  140.3146  144.3498  150.6025 LP  0  0  0  0  0  0  0  0  0  0  0  0  # atno 17342 bound_to 10162
  140.5771  143.2175  151.7495 LP  0  0  0  0  0  0  0  0  0  0  0  0  # atno 17343 bound_to 10162
  156.3251  130.7301  151.2221 LP  0  0  0  0  0  0  0  0  0  0  0  0  # atno 17370 bound_to 10713
  157.7452  131.0445  150.4796 LP  0  0  0  0  0  0  0  0  0  0  0  0  # atno 17371 bound_to 10713
  140.6921  133.9381  155.7972 LP  0  0  0  0  0  0  0  0  0  0  0  0  # atno 17394 bound_to 11000
  141.0434  134.0589  157.3874 LP  0  0  0  0  0  0  0  0  0  0  0  0  # atno 17395 bound_to 11000

$$$$
