AV-unprocessed.smi:781|AV-procd|sdf|3713|dock2
  -GOLD-   22720 1133D 1   1.00000     0.00000
 Structure written by MMmdl.
 38 40  0  0  0  0  0  0  0  0  1 V2000
  137.8743  137.2625  154.1341 C   0  0  0  0  0  0  0  0  0  0  0  0
  139.3231  137.4675  154.4171 C   0  0  0  0  0  0  0  0  0  0  0  0
  140.2443  138.3618  153.9488 C   0  0  0  0  0  0  0  0  0  0  0  0
  141.4296  137.9901  154.6371 C   0  0  0  0  0  0  0  0  0  0  0  0
  142.6446  138.6898  154.4241 N   0  0  0  0  0  0  0  0  0  0  0  0
  143.8381  138.4514  154.9936 C   0  0  0  0  0  0  0  0  0  0  0  0
  144.0673  137.5683  155.8204 O   0  0  0  0  0  0  0  0  0  0  0  0
  144.7675  139.3098  154.5515 N   0  0  0  0  0  0  0  0  0  0  0  0
  146.1642  139.3296  154.9875 C   0  0  2  0  0  0  0  0  0  0  0  0
  146.6134  140.7032  155.5512 C   0  0  2  0  0  0  0  0  0  0  0  0
  146.2360  141.8530  154.5929 C   0  0  0  0  0  0  0  0  0  0  0  0
  147.1904  141.6267  153.4067 C   0  0  0  0  0  0  0  0  0  0  0  0
  148.0146  140.4008  153.8540 C   0  0  1  0  0  0  0  0  0  0  0  0
  148.1248  140.6499  155.3537 C   0  0  0  0  0  0  0  0  0  0  0  0
  147.1803  139.0964  153.8340 C   0  0  2  0  0  0  0  0  0  0  0  0
  146.6076  138.6759  152.4615 C   0  0  0  0  0  0  0  0  0  0  0  0
  147.6555  138.4330  151.5469 O   0  0  0  0  0  0  0  0  0  0  0  0
  141.2490  136.9615  155.4513 N   0  0  0  0  0  0  0  0  0  0  0  0
  139.8982  136.6205  155.3134 O   0  0  0  0  0  0  0  0  0  0  0  0
  137.4195  138.1768  153.7529 H   0  0  0  0  0  0  0  0  0  0  0  0
  137.3385  136.9714  155.0377 H   0  0  0  0  0  0  0  0  0  0  0  0
  137.7342  136.4790  153.3896 H   0  0  0  0  0  0  0  0  0  0  0  0
  140.0913  139.1533  153.2303 H   0  0  0  0  0  0  0  0  0  0  0  0
  142.5995  139.4550  153.7678 H   0  0  0  0  0  0  0  0  0  0  0  0
  144.4926  140.0046  153.8731 H   0  0  0  0  0  0  0  0  0  0  0  0
  146.3099  138.5554  155.7436 H   0  0  0  0  0  0  0  0  0  0  0  0
  146.2943  140.8758  156.5796 H   0  0  0  0  0  0  0  0  0  0  0  0
  145.1874  141.8530  154.2963 H   0  0  0  0  0  0  0  0  0  0  0  0
  146.4374  142.8180  155.0600 H   0  0  0  0  0  0  0  0  0  0  0  0
  146.6641  141.4742  152.4658 H   0  0  0  0  0  0  0  0  0  0  0  0
  147.8384  142.4942  153.2759 H   0  0  0  0  0  0  0  0  0  0  0  0
  148.9724  140.3107  153.3408 H   0  0  0  0  0  0  0  0  0  0  0  0
  148.6291  141.5855  155.6029 H   0  0  0  0  0  0  0  0  0  0  0  0
  148.6037  139.8334  155.8975 H   0  0  0  0  0  0  0  0  0  0  0  0
  147.8415  138.2878  154.1522 H   0  0  0  0  0  0  0  0  0  0  0  0
  146.0297  137.7570  152.5643 H   0  0  0  0  0  0  0  0  0  0  0  0
  145.9358  139.4258  152.0458 H   0  0  0  0  0  0  0  0  0  0  0  0
  148.3413  139.0650  151.7000 H   0  0  0  0  0  0  0  0  0  0  0  0
  1  2  1  0  0  0  0
  1 20  1  0  0  0  0
  1 21  1  0  0  0  0
  1 22  1  0  0  0  0
  2 19  1  0  0  0  0
  2  3  2  0  0  0  0
  3  4  1  0  0  0  0
  3 23  1  0  0  0  0
  4  5  1  0  0  0  0
  4 18  2  0  0  0  0
  5  6  1  0  0  0  0
  5 24  1  0  0  0  0
  6  7  2  0  0  0  0
  6  8  1  0  0  0  0
  8  9  1  0  0  0  0
  8 25  1  0  0  0  0
  9 15  1  0  0  0  0
  9 10  1  0  0  0  0
  9 26  1  0  0  0  0
 10 14  1  0  0  0  0
 10 11  1  0  0  0  0
 10 27  1  0  0  0  0
 11 12  1  0  0  0  0
 11 28  1  0  0  0  0
 11 29  1  0  0  0  0
 12 13  1  0  0  0  0
 12 30  1  0  0  0  0
 12 31  1  0  0  0  0
 13 14  1  0  0  0  0
 13 15  1  0  0  0  0
 13 32  1  0  0  0  0
 14 33  1  0  0  0  0
 14 34  1  0  0  0  0
 15 16  1  0  0  0  0
 15 35  1  0  0  0  0
 16 17  1  0  0  0  0
 16 36  1  0  0  0  0
 16 37  1  0  0  0  0
 17 38  1  0  0  0  0
 18 19  1  0  0  0  0
M  END
> <s_m_source_file>
AV-unprocessed.smi

> <i_m_source_file_index>
781

> <i_lp_mmshare_version>
43012

> <i_f3d_flags>
0

> <s_epik_input>
W0NIM11jMVtjSF1jKG5vMSlbTkhdQyg9TylbTkhdW0NASF0oW0NAQEhdMjMpW0NASF0oW0NIMl1bT0hdKVtDQEBIXShbQ0gyXTMpW0NIMl1bQ0gyXTI=

> <s_epik_cmdline>
J2VwaWtfcHl0aG9uJywgJy1waCcsICc3LjAnLCAnLXRuJywgJzgnLCAnLW1hJywgJzIwMCcsICctbWV0YWxfYmluZGluZycsICctaW1hZScsICc8aW5maWxlLm1hZT4nLCAnLW9tYWUnLCAnPG91dGZpbGUubWFlPic=

> <r_lp_tautomer_probability>
1

> <r_epik_Ionization_Penalty>
2.32222e-05

> <r_epik_Ionization_Penalty_Charging>
0

> <r_epik_Ionization_Penalty_Neutral>
2.32222e-05

> <r_epik_State_Penalty>
-0

> <r_epik_Charging_Adjusted_Penalty>
0

> <i_epik_Tot_Q>
0

> <i_epik_Tot_abs_Q>
0

> <r_epik_Metal_State_Penalty>
-0

> <b_epik_Metal_Only>
0

> <s_lp_Force_Field>
OPLS_2005

> <r_lp_Energy>
48.8518

> <b_lp_Chiralities_Consistent>
1

> <s_lp_Variant>
AV-unprocessed.smi:781-7

> <Gold.Version>
5.8.1

> <Gold.Id.Protein>
6NUR|6NUR_protein|mol2

> <Gold.PLP.Fitness>
41.9912

> <Gold.PLP.PLP>
-27.4133

> <Gold.PLP.part.hbond>
-6.3469

> <Gold.PLP.part.metal>
0.0000

> <Gold.PLP.part.buried>
-2.6989

> <Gold.PLP.part.nonpolar>
-17.5691

> <Gold.PLP.part.repulsive>
0.0663

> <Gold.PLP.ligand.clash>
0.0000

> <Gold.PLP.ligand.torsion>
0.0112

> <Gold.PLP.Chemscore.Hbond>
4.8640

> <Gold.PLP.Chemscore.CHOScore>
0.0000

> <Gold.PLP.Chemscore.Metal>
0.0000

> <Gold.Chemscore.Hbonds>
donor molecule, donor type, donor heavy atom, donor atom, acceptor molecule, acceptor atom, score
      L1  H     5    24       P1 10175  0.90
      L1  H     8    25       P1 10175  1.00
      L1  H    17    38       P1  7957  0.99
      P1  H  7954  7966       L1    17  0.90
      P1  H 11000 11005       L1    19  1.00

> <Gold.PLP.Chemscore.Internal.Correction>
0.0083

> <Gold.Rescore>
     Score         DG    S(hbond)    S(metal)    S(lipo)     H(rot)  DE(clash)    DE(int)     intcor
     17.86     -19.32       3.47        0.00      59.96       1.86       0.20       1.25       ----

> <Gold.Chemscore.Fitness>
17.8644

> <Gold.Chemscore.DG>
-19.3239

> <Gold.Chemscore.ZeroCoef>
-5.4800

> <Gold.Chemscore.Hbond>
3.4692

> <Gold.Chemscore.Metal>
0.0000

> <Gold.Chemscore.Lipo>
59.9591

> <Gold.Chemscore.Internal_Hbond>
0.0000

> <Gold.Chemscore.DEClash>
0.2049

> <Gold.Chemscore.DEInternal>
1.2546

> <Gold.Chemscore.Rot>
1.8587

> <Gold.Chemscore.Internal.Correction>
   9.000000E+99

> <Gold.Chemscore.Hbonds>
donor molecule, donor type, donor heavy atom, donor atom, acceptor molecule, acceptor atom, score
      L1  H     5    24       P1 10175  0.88
      L1  H     8    25       P1 10175  0.96
      L1  H    17    38       P1  7957  0.85
      P1  H  7954  7966       L1    17  0.17
      P1  H 11000 11005       L1    19  0.25

> <Gold.Chemscore.Hbond.Weighted>
-11.5870

> <Gold.Chemscore.Metal.Weighted>
-0.0000

> <Gold.Chemscore.Lipo.Weighted>
-7.0152

> <Gold.Chemscore.Internal_Hbond.Weighted>
0.0000

> <Gold.Chemscore.DEClash.Weighted>
0.2049

> <Gold.Chemscore.DEInternal.Weighted>
1.2546

> <Gold.Chemscore.Rot.Weighted>
4.7583

> <Gold.Chemscore.Internal.Correction.Weighted>
   9.000000E+99

> <Gold.Protein.RotatedTorsions>
[ 6907 6896 6895 6894 ] final  156.47 input  -60.11 | X-H torsion
[ 7974 7965 7964 7962 ] final  -73.24 input  175.53 | X-H torsion
[ 8008 7997 7996 7995 ] final  109.34 input   59.86 | X-H torsion
[ 10167 10162 10161 10158 ] final  -17.58 input  -65.29 | X-H torsion
[ 10718 10713 10712 10709 ] final -118.09 input   66.30 | X-H torsion
[ 10763 10752 10751 10750 ] final -109.07 input  -60.55 | X-H torsion
[ 11005 11000 10999 10996 ] final   84.52 input  -57.11 | X-H torsion

> <Gold.Protein.ActiveResidues>
 VAL166  LYS551  ARG553  GLY616  TRP617  ASP618  TYR619  PRO620  LYS621  CYS622 
 ASP623  PHE694  ASN695  SER759  ASP760  ASP761  ALA762  ILE779  LEU786  VAL792 
 PHE793  MET794  SER795  GLU796  ALA797  LYS798  CYS799  TRP800  GLU811  SER814 

> <Gold.Protein.RotatedAtoms>
  152.0292  133.3930  159.4289 H   0  0  0  0  0  0  0  0  0  0  0  0  # atno 6907 bound_to 6896
  150.6883  134.3540  159.4930 H   0  0  0  0  0  0  0  0  0  0  0  0  # atno 6908 bound_to 6896
  152.1324  134.9124  160.0609 H   0  0  0  0  0  0  0  0  0  0  0  0  # atno 6909 bound_to 6896
  145.6547  140.9271  143.0966 H   0  0  0  0  0  0  0  0  0  0  0  0  # atno 7974 bound_to 7965
  156.1971  140.3059  155.9450 H   0  0  0  0  0  0  0  0  0  0  0  0  # atno 8008 bound_to 7997
  155.3039  140.0448  157.3048 H   0  0  0  0  0  0  0  0  0  0  0  0  # atno 8009 bound_to 7997
  154.5524  140.2295  155.8473 H   0  0  0  0  0  0  0  0  0  0  0  0  # atno 8010 bound_to 7997
  140.7249  143.5001  150.9880 H   0  0  0  0  0  0  0  0  0  0  0  0  # atno 10167 bound_to 10162
  156.1081  130.6227  150.9247 H   0  0  0  0  0  0  0  0  0  0  0  0  # atno 10718 bound_to 10713
  154.8172  135.4614  154.0677 H   0  0  0  0  0  0  0  0  0  0  0  0  # atno 10763 bound_to 10752
  153.2060  135.6875  153.8179 H   0  0  0  0  0  0  0  0  0  0  0  0  # atno 10764 bound_to 10752
  153.7647  135.3279  155.3319 H   0  0  0  0  0  0  0  0  0  0  0  0  # atno 10765 bound_to 10752
  139.8998  134.8222  156.2456 H   0  0  0  0  0  0  0  0  0  0  0  0  # atno 11005 bound_to 11000
  144.7110  139.8372  143.7414 LP  0  0  0  0  0  0  0  0  0  0  0  0  # atno 17320 bound_to 7965
  146.1175  139.4188  143.0249 LP  0  0  0  0  0  0  0  0  0  0  0  0  # atno 17321 bound_to 7965
  139.8710  143.7192  152.3166 LP  0  0  0  0  0  0  0  0  0  0  0  0  # atno 17342 bound_to 10162
  139.7441  144.7552  151.0607 LP  0  0  0  0  0  0  0  0  0  0  0  0  # atno 17343 bound_to 10162
  157.6260  131.0925  150.8533 LP  0  0  0  0  0  0  0  0  0  0  0  0  # atno 17370 bound_to 10713
  156.8648  130.5125  149.5301 LP  0  0  0  0  0  0  0  0  0  0  0  0  # atno 17371 bound_to 10713
  141.0257  133.7016  156.1343 LP  0  0  0  0  0  0  0  0  0  0  0  0  # atno 17394 bound_to 11000
  140.7170  134.4400  157.5578 LP  0  0  0  0  0  0  0  0  0  0  0  0  # atno 17395 bound_to 11000

$$$$
