AV-unprocessed.smi:1897|AV-procd|sdf|7697|dock7
  -GOLD-   22720 9433D 1   1.00000     0.00000
 Structure written by MMmdl.
 38 40  0  0  0  0  0  0  0  0  3 V2000
  146.4558  136.5709  162.5412 C   0  0  0  0  0  0  0  0  0  0  0  0
  147.1803  136.0796  161.3351 C   0  0  0  0  0  0  0  0  0  0  0  0
  147.9254  136.8767  160.5660 N   0  0  0  0  0  0  0  0  0  0  0  0
  148.4931  136.1936  159.5005 N   0  0  0  0  0  0  0  0  0  0  0  0
  148.1823  134.8898  159.4860 C   0  0  0  0  0  0  0  0  0  0  0  0
  148.6364  134.0495  158.5374 N   0  5  0  0  0  0  0  0  0  0  0  0
  148.9317  134.4593  157.2764 C   0  0  0  0  0  0  0  0  0  0  0  0
  149.6310  135.4409  157.0292 O   0  0  0  0  0  0  0  0  0  0  0  0
  148.4276  133.7466  156.2520 N   0  0  0  0  0  0  0  0  0  0  0  0
  148.6285  134.0266  154.8360 C   0  0  1  0  0  0  0  0  0  0  0  0
  149.2885  132.8714  154.0590 C   0  0  0  0  0  0  0  0  0  0  0  0
  148.5650  132.8297  152.6989 C   0  0  0  0  0  0  0  0  0  0  0  0
  147.6578  133.9929  152.7057 N   0  3  1  0  0  0  0  0  0  0  0  0
  146.4800  133.9378  151.8129 C   0  0  0  0  0  0  0  0  0  0  0  0
  145.7085  135.2697  151.9071 C   0  0  0  0  0  0  0  0  0  0  0  0
  145.3588  135.6278  153.3667 C   0  0  0  0  0  0  0  0  0  0  0  0
  146.6082  135.5759  154.2673 C   0  0  0  0  0  0  0  0  0  0  0  0
  147.2959  134.2097  154.1137 C   0  0  2  0  0  0  0  0  0  0  0  0
  147.1282  134.4041  160.8136 S   0  0  0  0  0  0  0  0  0  0  0  0
  147.1390  136.6284  163.3886 H   0  0  0  0  0  0  0  0  0  0  0  0
  145.6393  135.8943  162.7935 H   0  0  0  0  0  0  0  0  0  0  0  0
  146.0410  137.5620  162.3556 H   0  0  0  0  0  0  0  0  0  0  0  0
  147.8613  132.9434  156.4832 H   0  0  0  0  0  0  0  0  0  0  0  0
  149.2258  134.9326  154.7141 H   0  0  0  0  0  0  0  0  0  0  0  0
  150.3595  133.0419  153.9444 H   0  0  0  0  0  0  0  0  0  0  0  0
  149.1625  131.9188  154.5757 H   0  0  0  0  0  0  0  0  0  0  0  0
  149.2560  132.8804  151.8572 H   0  0  0  0  0  0  0  0  0  0  0  0
  147.9894  131.9070  152.6107 H   0  0  0  0  0  0  0  0  0  0  0  0
  146.8057  133.7625  150.7871 H   0  0  0  0  0  0  0  0  0  0  0  0
  145.8373  133.1026  152.0962 H   0  0  0  0  0  0  0  0  0  0  0  0
  146.3157  136.0681  151.4782 H   0  0  0  0  0  0  0  0  0  0  0  0
  144.7996  135.2190  151.3067 H   0  0  0  0  0  0  0  0  0  0  0  0
  144.9037  136.6176  153.4119 H   0  0  0  0  0  0  0  0  0  0  0  0
  144.6120  134.9270  153.7425 H   0  0  0  0  0  0  0  0  0  0  0  0
  147.2962  136.3768  153.9935 H   0  0  0  0  0  0  0  0  0  0  0  0
  146.3295  135.7439  155.3082 H   0  0  0  0  0  0  0  0  0  0  0  0
  146.6076  133.4184  154.4215 H   0  0  0  0  0  0  0  0  0  0  0  0
  148.2117  134.7906  152.4284 H   0  0  0  0  0  0  0  0  0  0  0  0
  1  2  1  0  0  0  0
  1 20  1  0  0  0  0
  1 21  1  0  0  0  0
  1 22  1  0  0  0  0
  2 19  1  0  0  0  0
  2  3  2  0  0  0  0
  3  4  1  0  0  0  0
  4  5  2  0  0  0  0
  5  6  1  0  0  0  0
  5 19  1  0  0  0  0
  6  7  1  0  0  0  0
  7  8  2  0  0  0  0
  7  9  1  0  0  0  0
  9 10  1  0  0  0  0
  9 23  1  0  0  0  0
 10 18  1  0  0  0  0
 10 11  1  0  0  0  0
 10 24  1  0  0  0  0
 11 12  1  0  0  0  0
 11 25  1  0  0  0  0
 11 26  1  0  0  0  0
 12 13  1  0  0  0  0
 12 27  1  0  0  0  0
 12 28  1  0  0  0  0
 13 18  1  0  0  0  0
 13 14  1  0  0  0  0
 13 38  1  0  0  0  0
 14 15  1  0  0  0  0
 14 29  1  0  0  0  0
 14 30  1  0  0  0  0
 15 16  1  0  0  0  0
 15 31  1  0  0  0  0
 15 32  1  0  0  0  0
 16 17  1  0  0  0  0
 16 33  1  0  0  0  0
 16 34  1  0  0  0  0
 17 18  1  0  0  0  0
 17 35  1  0  0  0  0
 17 36  1  0  0  0  0
 18 37  1  0  0  0  0
M  CHG  1   6  -1
M  CHG  1  13   1
M  END
> <s_m_source_file>
AV-unprocessed.smi

> <i_m_source_file_index>
1897

> <i_lp_mmshare_version>
43012

> <i_f3d_flags>
0

> <s_epik_input>
W0NIM11jMW5uYyhzMSlbTkhdQyg9TylbTkhdW0NASF0oW0NIMl1bQ0gyXTIpW0NAQEhdKE4yMylbQ0gyXVtDSDJdW0NIMl1bQ0gyXTM=

> <s_epik_cmdline>
J2VwaWtfcHl0aG9uJywgJy1waCcsICc3LjAnLCAnLXRuJywgJzgnLCAnLW1hJywgJzIwMCcsICctbWV0YWxfYmluZGluZycsICctaW1hZScsICc8aW5maWxlLm1hZT4nLCAnLW9tYWUnLCAnPG91dGZpbGUubWFlPic=

> <r_lp_tautomer_probability>
1

> <r_epik_Ionization_Penalty>
3.77712

> <r_epik_Ionization_Penalty_Charging>
3.67739

> <r_epik_Ionization_Penalty_Neutral>
0.0997294

> <r_epik_State_Penalty>
3.67514

> <r_epik_Charging_Adjusted_Penalty>
7.35254

> <i_epik_Tot_Q>
0

> <i_epik_Tot_abs_Q>
2

> <r_epik_Metal_State_Penalty>
0.540795

> <b_epik_Metal_Only>
1

> <s_lp_Force_Field>
OPLS_2005

> <r_lp_Energy>
28.3621

> <b_lp_Chiralities_Consistent>
1

> <s_lp_Variant>
AV-unprocessed.smi:1897-14

> <Gold.Version>
5.8.1

> <Gold.Id.Protein>
6NUR|6NUR_protein|mol2

> <Gold.PLP.Fitness>
41.5070

> <Gold.PLP.PLP>
-26.0040

> <Gold.PLP.part.hbond>
-4.0000

> <Gold.PLP.part.metal>
0.0000

> <Gold.PLP.part.buried>
-3.1381

> <Gold.PLP.part.nonpolar>
-19.3923

> <Gold.PLP.part.repulsive>
0.0223

> <Gold.PLP.ligand.clash>
0.0000

> <Gold.PLP.ligand.torsion>
0.6064

> <Gold.PLP.Chemscore.Hbond>
5.5680

> <Gold.PLP.Chemscore.CHOScore>
0.0000

> <Gold.PLP.Chemscore.Metal>
0.0000

> <Gold.Chemscore.Hbonds>
donor molecule, donor type, donor heavy atom, donor atom, acceptor molecule, acceptor atom, score
      L1  H    13    38       P1  7948  2.00
      P1  H  6896  6907       L1     6  0.74
      P1  H  6931  6943       L1     3  0.50
      P1  H  6934  6947       L1     3  0.29

> <Gold.PLP.Chemscore.Internal.Correction>
0.0118

> <Gold.Rescore>
     Score         DG    S(hbond)    S(metal)    S(lipo)     H(rot)  DE(clash)    DE(int)     intcor
     16.04     -18.16       2.71        0.00      53.01       1.00       0.04       2.09       ----

> <Gold.Chemscore.Fitness>
16.0386

> <Gold.Chemscore.DG>
-18.1611

> <Gold.Chemscore.ZeroCoef>
-5.4800

> <Gold.Chemscore.Hbond>
2.7064

> <Gold.Chemscore.Metal>
0.0000

> <Gold.Chemscore.Lipo>
53.0055

> <Gold.Chemscore.Internal_Hbond>
0.0000

> <Gold.Chemscore.DEClash>
0.0358

> <Gold.Chemscore.DEInternal>
2.0867

> <Gold.Chemscore.Rot>
1.0000

> <Gold.Chemscore.Internal.Correction>
   9.000000E+99

> <Gold.Chemscore.Hbonds>
donor molecule, donor type, donor heavy atom, donor atom, acceptor molecule, acceptor atom, score
      L1  H    13    38       P1  7948  0.45
      P1  H  6896  6907       L1     6  0.01
      P1  H  6931  6943       L1     3  0.31
      P1  H  6934  6947       L1     3  0.17

> <Gold.Chemscore.Hbond.Weighted>
-9.0394

> <Gold.Chemscore.Metal.Weighted>
-0.0000

> <Gold.Chemscore.Lipo.Weighted>
-6.2016

> <Gold.Chemscore.Internal_Hbond.Weighted>
0.0000

> <Gold.Chemscore.DEClash.Weighted>
0.0358

> <Gold.Chemscore.DEInternal.Weighted>
2.0867

> <Gold.Chemscore.Rot.Weighted>
2.5600

> <Gold.Chemscore.Internal.Correction.Weighted>
   9.000000E+99

> <Gold.Protein.RotatedTorsions>
[ 6907 6896 6895 6894 ] final -102.78 input  -60.11 | X-H torsion
[ 7974 7965 7964 7962 ] final    3.30 input  175.53 | X-H torsion
[ 8008 7997 7996 7995 ] final -112.84 input   59.86 | X-H torsion
[ 10167 10162 10161 10158 ] final  -19.67 input  -65.29 | X-H torsion
[ 10718 10713 10712 10709 ] final  166.98 input   66.30 | X-H torsion
[ 10763 10752 10751 10750 ] final  -53.77 input  -60.55 | X-H torsion
[ 11005 11000 10999 10996 ] final   -5.05 input  -57.11 | X-H torsion

> <Gold.Protein.ActiveResidues>
 VAL166  LYS551  ARG553  GLY616  TRP617  ASP618  TYR619  PRO620  LYS621  CYS622 
 ASP623  PHE694  ASN695  SER759  ASP760  ASP761  ALA762  ILE779  LEU786  VAL792 
 PHE793  MET794  SER795  GLU796  ALA797  LYS798  CYS799  TRP800  GLU811  SER814 

> <Gold.Protein.RotatedAtoms>
  150.7211  134.0529  159.3804 H   0  0  0  0  0  0  0  0  0  0  0  0  # atno 6907 bound_to 6896
  151.8507  135.0556  160.0468 H   0  0  0  0  0  0  0  0  0  0  0  0  # atno 6908 bound_to 6896
  152.2793  133.5419  159.5524 H   0  0  0  0  0  0  0  0  0  0  0  0  # atno 6909 bound_to 6896
  146.2445  140.0706  142.8363 H   0  0  0  0  0  0  0  0  0  0  0  0  # atno 7974 bound_to 7965
  155.0114  140.0393  157.2401 H   0  0  0  0  0  0  0  0  0  0  0  0  # atno 8008 bound_to 7997
  154.7457  140.2757  155.6312 H   0  0  0  0  0  0  0  0  0  0  0  0  # atno 8009 bound_to 7997
  156.2874  140.2657  156.2197 H   0  0  0  0  0  0  0  0  0  0  0  0  # atno 8010 bound_to 7997
  140.7270  143.4796  151.0136 H   0  0  0  0  0  0  0  0  0  0  0  0  # atno 10167 bound_to 10162
  157.0580  131.0332  151.2657 H   0  0  0  0  0  0  0  0  0  0  0  0  # atno 10718 bound_to 10713
  154.1641  135.6470  153.4993 H   0  0  0  0  0  0  0  0  0  0  0  0  # atno 10763 bound_to 10752
  153.0102  135.5368  154.6680 H   0  0  0  0  0  0  0  0  0  0  0  0  # atno 10764 bound_to 10752
  154.6002  135.2943  155.0515 H   0  0  0  0  0  0  0  0  0  0  0  0  # atno 10765 bound_to 10752
  140.6869  133.9105  155.8592 H   0  0  0  0  0  0  0  0  0  0  0  0  # atno 11005 bound_to 11000
  145.0820  140.9227  143.4820 LP  0  0  0  0  0  0  0  0  0  0  0  0  # atno 17320 bound_to 7965
  145.0861  139.2924  143.5759 LP  0  0  0  0  0  0  0  0  0  0  0  0  # atno 17321 bound_to 7965
  139.8493  143.7459  152.3178 LP  0  0  0  0  0  0  0  0  0  0  0  0  # atno 17342 bound_to 10162
  139.7636  144.7499  151.0328 LP  0  0  0  0  0  0  0  0  0  0  0  0  # atno 17343 bound_to 10162
  157.4977  130.7861  149.7572 LP  0  0  0  0  0  0  0  0  0  0  0  0  # atno 17370 bound_to 10713
  155.9987  130.3893  150.2692 LP  0  0  0  0  0  0  0  0  0  0  0  0  # atno 17371 bound_to 10713
  141.0273  134.0806  157.4054 LP  0  0  0  0  0  0  0  0  0  0  0  0  # atno 17394 bound_to 11000
  139.8935  135.0131  156.6901 LP  0  0  0  0  0  0  0  0  0  0  0  0  # atno 17395 bound_to 11000

$$$$
