AV-unprocessed.smi:954|AV-procd|sdf|4258|dock5
  -GOLD-   22720 2163D 1   1.00000     0.00000
 Structure written by MMmdl.
 24 24  0  0  0  0  0  0  0  0  1 V2000
  152.1147  144.7339  159.1303 C   0  0  0  0  0  0  0  0  0  0  0  0
  151.8087  144.4296  157.6579 C   0  0  0  0  0  0  0  0  0  0  0  0
  150.8151  143.3705  157.5231 N   0  0  0  0  0  0  0  0  0  0  0  0
  151.0006  142.0887  157.8734 C   0  0  0  0  0  0  0  0  0  0  0  0
  152.0551  141.6696  158.3541 O   0  0  0  0  0  0  0  0  0  0  0  0
  149.8046  141.1563  157.6407 C   0  0  0  0  0  0  0  0  0  0  0  0
  149.5377  140.9171  156.2314 N   0  0  0  0  0  0  0  0  0  0  0  0
  148.8327  141.7112  155.3461 C   0  0  0  0  0  0  0  0  0  0  0  0
  148.8367  141.0806  154.1342 C   0  0  0  0  0  0  0  0  0  0  0  0
  149.5815  139.8988  154.3945 C   0  0  0  0  0  0  0  0  0  0  0  0
  149.8438  138.9347  153.4249 N   0  0  0  0  0  0  0  0  0  0  0  0
  150.0053  139.7940  155.6405 N   0  0  0  0  0  0  0  0  0  0  0  0
  152.8749  145.5107  159.2143 H   0  0  0  0  0  0  0  0  0  0  0  0
  152.4856  143.8488  159.6477 H   0  0  0  0  0  0  0  0  0  0  0  0
  151.2263  145.0838  159.6571 H   0  0  0  0  0  0  0  0  0  0  0  0
  151.4723  145.3323  157.1451 H   0  0  0  0  0  0  0  0  0  0  0  0
  152.7197  144.1081  157.1527 H   0  0  0  0  0  0  0  0  0  0  0  0
  149.9202  143.6317  157.1349 H   0  0  0  0  0  0  0  0  0  0  0  0
  149.9945  140.1965  158.1223 H   0  0  0  0  0  0  0  0  0  0  0  0
  148.9152  141.5815  158.1086 H   0  0  0  0  0  0  0  0  0  0  0  0
  148.3883  142.6469  155.6518 H   0  0  0  0  0  0  0  0  0  0  0  0
  148.3790  141.4123  153.2141 H   0  0  0  0  0  0  0  0  0  0  0  0
  149.5105  139.0342  152.4769 H   0  0  0  0  0  0  0  0  0  0  0  0
  150.3505  138.0903  153.6482 H   0  0  0  0  0  0  0  0  0  0  0  0
  1  2  1  0  0  0  0
  1 13  1  0  0  0  0
  1 14  1  0  0  0  0
  1 15  1  0  0  0  0
  2  3  1  0  0  0  0
  2 16  1  0  0  0  0
  2 17  1  0  0  0  0
  3  4  1  0  0  0  0
  3 18  1  0  0  0  0
  4  5  2  0  0  0  0
  4  6  1  0  0  0  0
  6  7  1  0  0  0  0
  6 19  1  0  0  0  0
  6 20  1  0  0  0  0
  7 12  1  0  0  0  0
  7  8  1  0  0  0  0
  8  9  2  0  0  0  0
  8 21  1  0  0  0  0
  9 10  1  0  0  0  0
  9 22  1  0  0  0  0
 10 11  1  0  0  0  0
 10 12  2  0  0  0  0
 11 23  1  0  0  0  0
 11 24  1  0  0  0  0
M  END
> <s_m_source_file>
AV-unprocessed.smi

> <i_m_source_file_index>
954

> <i_lp_mmshare_version>
43012

> <i_f3d_flags>
0

> <s_epik_input>
W0NIM11bQ0gyXVtOSF1DKD1PKVtDSDJdbjFbY0hdW2NIXWMobjEpW05IMl0=

> <s_epik_cmdline>
J2VwaWtfcHl0aG9uJywgJy1waCcsICc3LjAnLCAnLXRuJywgJzgnLCAnLW1hJywgJzIwMCcsICctbWV0YWxfYmluZGluZycsICctaW1hZScsICc8aW5maWxlLm1hZT4nLCAnLW9tYWUnLCAnPG91dGZpbGUubWFlPic=

> <r_lp_tautomer_probability>
1

> <r_epik_Ionization_Penalty>
0.000257536

> <r_epik_Ionization_Penalty_Charging>
0

> <r_epik_Ionization_Penalty_Neutral>
0.000257536

> <r_epik_State_Penalty>
-0

> <r_epik_Charging_Adjusted_Penalty>
0

> <i_epik_Tot_Q>
0

> <i_epik_Tot_abs_Q>
0

> <r_epik_Metal_State_Penalty>
-0

> <b_epik_Metal_Only>
0

> <s_lp_Force_Field>
OPLS_2005

> <r_lp_Energy>
1.8316

> <b_lp_Chiralities_Consistent>
1

> <s_lp_Variant>
AV-unprocessed.smi:954-1

> <Gold.Version>
5.8.1

> <Gold.Id.Protein>
6NUR|6NUR_protein|mol2

> <Gold.PLP.Fitness>
33.2038

> <Gold.PLP.PLP>
-25.7041

> <Gold.PLP.part.hbond>
-2.7177

> <Gold.PLP.part.metal>
0.0000

> <Gold.PLP.part.buried>
-2.0953

> <Gold.PLP.part.nonpolar>
-20.5002

> <Gold.PLP.part.repulsive>
0.1210

> <Gold.PLP.ligand.clash>
0.0000

> <Gold.PLP.ligand.torsion>
0.4263

> <Gold.PLP.Chemscore.Hbond>
1.7840

> <Gold.PLP.Chemscore.CHOScore>
1.0000

> <Gold.PLP.Chemscore.Metal>
0.0000

> <Gold.Chemscore.Hbonds>
donor molecule, donor type, donor heavy atom, donor atom, acceptor molecule, acceptor atom, score
      L1  H     3    18       P1  8028  0.78
      L1  H    11    23       P1  7957  0.85
      L1  C     8    21       P1  8028  1.00

> <Gold.PLP.Chemscore.Internal.Correction>
0.0002

> <Gold.Rescore>
     Score         DG    S(hbond)    S(metal)    S(lipo)     H(rot)  DE(clash)    DE(int)     intcor
     11.44     -11.92       1.62        0.00      47.39       1.77       0.07       0.42       ----

> <Gold.Chemscore.Fitness>
11.4380

> <Gold.Chemscore.DG>
-11.9205

> <Gold.Chemscore.ZeroCoef>
-5.4800

> <Gold.Chemscore.Hbond>
1.6222

> <Gold.Chemscore.Metal>
0.0000

> <Gold.Chemscore.Lipo>
47.3864

> <Gold.Chemscore.Internal_Hbond>
0.0000

> <Gold.Chemscore.DEClash>
0.0671

> <Gold.Chemscore.DEInternal>
0.4154

> <Gold.Chemscore.Rot>
1.7664

> <Gold.Chemscore.Internal.Correction>
   9.000000E+99

> <Gold.Chemscore.Hbonds>
donor molecule, donor type, donor heavy atom, donor atom, acceptor molecule, acceptor atom, score
      L1  H     3    18       P1  8028  0.72
      L1  H    11    23       P1  7957  0.77

> <Gold.Chemscore.Hbond.Weighted>
-5.4182

> <Gold.Chemscore.Metal.Weighted>
-0.0000

> <Gold.Chemscore.Lipo.Weighted>
-5.5442

> <Gold.Chemscore.Internal_Hbond.Weighted>
0.0000

> <Gold.Chemscore.DEClash.Weighted>
0.0671

> <Gold.Chemscore.DEInternal.Weighted>
0.4154

> <Gold.Chemscore.Rot.Weighted>
4.5219

> <Gold.Chemscore.Internal.Correction.Weighted>
   9.000000E+99

> <Gold.Protein.RotatedTorsions>
[ 6907 6896 6895 6894 ] final  -98.60 input  -60.11 | X-H torsion
[ 7974 7965 7964 7962 ] final -165.95 input  175.53 | X-H torsion
[ 8008 7997 7996 7995 ] final   52.38 input   59.86 | X-H torsion
[ 10167 10162 10161 10158 ] final  -34.42 input  -65.29 | X-H torsion
[ 10718 10713 10712 10709 ] final  113.89 input   66.30 | X-H torsion
[ 10763 10752 10751 10750 ] final   41.35 input  -60.55 | X-H torsion
[ 11005 11000 10999 10996 ] final  -97.53 input  -57.11 | X-H torsion

> <Gold.Protein.ActiveResidues>
 VAL166  LYS551  ARG553  GLY616  TRP617  ASP618  TYR619  PRO620  LYS621  CYS622 
 ASP623  PHE694  ASN695  SER759  ASP760  ASP761  ALA762  ILE779  LEU786  VAL792 
 PHE793  MET794  SER795  GLU796  ALA797  LYS798  CYS799  TRP800  GLU811  SER814 

> <Gold.Protein.RotatedAtoms>
  150.7052  134.1169  159.4020 H   0  0  0  0  0  0  0  0  0  0  0  0  # atno 6907 bound_to 6896
  151.9156  135.0318  160.0527 H   0  0  0  0  0  0  0  0  0  0  0  0  # atno 6908 bound_to 6896
  152.2299  133.5015  159.5247 H   0  0  0  0  0  0  0  0  0  0  0  0  # atno 6909 bound_to 6896
  144.7257  140.2739  143.6246 H   0  0  0  0  0  0  0  0  0  0  0  0  # atno 7974 bound_to 7965
  155.4509  140.3458  155.4300 H   0  0  0  0  0  0  0  0  0  0  0  0  # atno 8008 bound_to 7997
  156.1221  140.1490  156.9219 H   0  0  0  0  0  0  0  0  0  0  0  0  # atno 8009 bound_to 7997
  154.4831  140.0863  156.7403 H   0  0  0  0  0  0  0  0  0  0  0  0  # atno 8010 bound_to 7997
  140.7186  143.3549  151.2079 H   0  0  0  0  0  0  0  0  0  0  0  0  # atno 10167 bound_to 10162
  157.6312  131.0990  150.7107 H   0  0  0  0  0  0  0  0  0  0  0  0  # atno 10718 bound_to 10713
  152.9911  135.6164  154.2773 H   0  0  0  0  0  0  0  0  0  0  0  0  # atno 10763 bound_to 10752
  154.2503  135.2785  155.2821 H   0  0  0  0  0  0  0  0  0  0  0  0  # atno 10764 bound_to 10752
  154.5293  135.5792  153.6803 H   0  0  0  0  0  0  0  0  0  0  0  0  # atno 10765 bound_to 10752
  141.1376  133.8177  157.0718 H   0  0  0  0  0  0  0  0  0  0  0  0  # atno 11005 bound_to 11000
  145.8016  139.1966  143.2045 LP  0  0  0  0  0  0  0  0  0  0  0  0  # atno 17320 bound_to 7965
  146.0672  140.7908  142.9706 LP  0  0  0  0  0  0  0  0  0  0  0  0  # atno 17321 bound_to 7965
  139.7089  143.9410  152.2938 LP  0  0  0  0  0  0  0  0  0  0  0  0  # atno 17342 bound_to 10162
  139.9128  144.6846  150.8544 LP  0  0  0  0  0  0  0  0  0  0  0  0  # atno 17343 bound_to 10162
  156.7446  130.4750  149.5470 LP  0  0  0  0  0  0  0  0  0  0  0  0  # atno 17370 bound_to 10713
  156.1517  130.6314  151.0604 LP  0  0  0  0  0  0  0  0  0  0  0  0  # atno 17371 bound_to 10713
  140.0507  134.9807  157.1130 LP  0  0  0  0  0  0  0  0  0  0  0  0  # atno 17394 bound_to 11000
  140.3995  134.2098  155.7164 LP  0  0  0  0  0  0  0  0  0  0  0  0  # atno 17395 bound_to 11000

$$$$
