AV-unprocessed.smi:2691|AV-procd|sdf|10391|dock6
  -GOLD-   2272014423D 1   1.00000     0.00000
 Structure written by MMmdl.
 49 51  0  0  0  0  0  0  0  0  1 V2000
  152.0248  144.8191  158.0358 C   0  0  0  0  0  0  0  0  0  0  0  0
  152.0092  143.3163  157.8187 C   0  0  0  0  0  0  0  0  0  0  0  0
  151.5330  142.8043  156.5906 C   0  0  0  0  0  0  0  0  0  0  0  0
  151.5032  141.4135  156.3485 C   0  0  0  0  0  0  0  0  0  0  0  0
  151.0842  140.7029  155.2364 N   0  0  0  0  0  0  0  0  0  0  0  0
  151.3049  139.4491  155.6212 C   0  0  0  0  0  0  0  0  0  0  0  0
  151.8184  139.2635  156.8524 N   0  0  0  0  0  0  0  0  0  0  0  0
  152.1497  138.0007  157.4869 C   0  0  0  0  0  0  0  0  0  0  0  0
  151.3215  136.8264  156.9303 C   0  0  1  0  0  0  0  0  0  0  0  0
  151.5509  135.6925  157.7447 O   0  0  0  0  0  0  0  0  0  0  0  0
  149.8100  137.1417  156.9332 C   0  0  0  0  0  0  0  0  0  0  0  0
  149.1822  136.8292  158.2269 N   0  0  0  0  0  0  0  0  0  0  0  0
  149.5746  137.6216  159.3220 C   0  0  0  0  0  0  0  0  0  0  0  0
  149.0775  137.4441  160.5044 N   0  0  0  0  0  0  0  0  0  0  0  0
  148.1270  136.4374  160.7166 C   0  0  0  0  0  0  0  0  0  0  0  0
  147.5772  136.2665  162.1270 C   0  0  0  0  0  0  0  0  0  0  0  0
  146.6138  135.0726  162.2053 C   0  0  0  0  0  0  0  0  0  0  0  0
  146.9214  137.5560  162.6481 C   0  0  0  0  0  0  0  0  0  0  0  0
  147.7334  135.6366  159.6976 C   0  0  0  0  0  0  0  0  0  0  0  0
  148.2790  135.8133  158.3517 C   0  0  0  0  0  0  0  0  0  0  0  0
  147.9499  135.1002  157.4032 O   0  0  0  0  0  0  0  0  0  0  0  0
  151.9685  140.5424  157.3763 C   0  0  0  0  0  0  0  0  0  0  0  0
  152.4448  141.0390  158.6024 C   0  0  0  0  0  0  0  0  0  0  0  0
  152.4646  142.4312  158.8290 C   0  0  0  0  0  0  0  0  0  0  0  0
  152.9771  142.9576  160.1579 C   0  0  0  0  0  0  0  0  0  0  0  0
  151.6956  145.3533  157.1441 H   0  0  0  0  0  0  0  0  0  0  0  0
  153.0316  145.1612  158.2766 H   0  0  0  0  0  0  0  0  0  0  0  0
  151.3597  145.0929  158.8550 H   0  0  0  0  0  0  0  0  0  0  0  0
  151.1853  143.4778  155.8213 H   0  0  0  0  0  0  0  0  0  0  0  0
  151.0795  138.6166  154.9707 H   0  0  0  0  0  0  0  0  0  0  0  0
  153.2174  137.8118  157.3638 H   0  0  0  0  0  0  0  0  0  0  0  0
  151.9735  138.1103  158.5577 H   0  0  0  0  0  0  0  0  0  0  0  0
  151.6627  136.6029  155.9186 H   0  0  0  0  0  0  0  0  0  0  0  0
  150.7260  135.4126  158.1110 H   0  0  0  0  0  0  0  0  0  0  0  0
  149.6297  138.1734  156.6242 H   0  0  0  0  0  0  0  0  0  0  0  0
  149.3136  136.5450  156.1655 H   0  0  0  0  0  0  0  0  0  0  0  0
  150.3220  138.3863  159.1038 H   0  0  0  0  0  0  0  0  0  0  0  0
  148.4192  136.0475  162.7853 H   0  0  0  0  0  0  0  0  0  0  0  0
  147.0946  134.1571  161.8594 H   0  0  0  0  0  0  0  0  0  0  0  0
  145.7266  135.2346  161.5923 H   0  0  0  0  0  0  0  0  0  0  0  0
  146.2824  134.9035  163.2301 H   0  0  0  0  0  0  0  0  0  0  0  0
  147.6155  138.3956  162.6000 H   0  0  0  0  0  0  0  0  0  0  0  0
  146.6124  137.4440  163.6878 H   0  0  0  0  0  0  0  0  0  0  0  0
  146.0361  137.8209  162.0690 H   0  0  0  0  0  0  0  0  0  0  0  0
  147.0055  134.8571  159.8699 H   0  0  0  0  0  0  0  0  0  0  0  0
  152.7894  140.3529  159.3624 H   0  0  0  0  0  0  0  0  0  0  0  0
  153.2160  142.1434  160.8427 H   0  0  0  0  0  0  0  0  0  0  0  0
  152.2264  143.5863  160.6373 H   0  0  0  0  0  0  0  0  0  0  0  0
  153.8813  143.5485  160.0097 H   0  0  0  0  0  0  0  0  0  0  0  0
  1  2  1  0  0  0  0
  1 26  1  0  0  0  0
  1 27  1  0  0  0  0
  1 28  1  0  0  0  0
  2 24  1  0  0  0  0
  2  3  2  0  0  0  0
  3  4  1  0  0  0  0
  3 29  1  0  0  0  0
  4 22  2  0  0  0  0
  4  5  1  0  0  0  0
  5  6  2  0  0  0  0
  6  7  1  0  0  0  0
  6 30  1  0  0  0  0
  7  8  1  0  0  0  0
  7 22  1  0  0  0  0
  8  9  1  0  0  0  0
  8 31  1  0  0  0  0
  8 32  1  0  0  0  0
  9 10  1  0  0  0  0
  9 11  1  0  0  0  0
  9 33  1  0  0  0  0
 10 34  1  0  0  0  0
 11 12  1  0  0  0  0
 11 35  1  0  0  0  0
 11 36  1  0  0  0  0
 12 20  1  0  0  0  0
 12 13  1  0  0  0  0
 13 14  2  0  0  0  0
 13 37  1  0  0  0  0
 14 15  1  0  0  0  0
 15 16  1  0  0  0  0
 15 19  2  0  0  0  0
 16 17  1  0  0  0  0
 16 18  1  0  0  0  0
 16 38  1  0  0  0  0
 17 39  1  0  0  0  0
 17 40  1  0  0  0  0
 17 41  1  0  0  0  0
 18 42  1  0  0  0  0
 18 43  1  0  0  0  0
 18 44  1  0  0  0  0
 19 20  1  0  0  0  0
 19 45  1  0  0  0  0
 20 21  2  0  0  0  0
 22 23  1  0  0  0  0
 23 24  2  0  0  0  0
 23 46  1  0  0  0  0
 24 25  1  0  0  0  0
 25 47  1  0  0  0  0
 25 48  1  0  0  0  0
 25 49  1  0  0  0  0
M  END
> <s_m_source_file>
AV-unprocessed.smi

> <i_m_source_file_index>
2691

> <i_lp_mmshare_version>
43012

> <i_f3d_flags>
0

> <s_epik_input>
W0NIM11jKFtjSF0xKWMoW0NIM10pW2NIXWMoYzEyKW4oW2NIXW4yKVtDSDJdW0NASF0oW09IXSlbQ0gyXW4zW2NIXW5jKFtDSF0oW0NIM10pW0NIM10pW2NIXWMzPU8=

> <s_epik_cmdline>
J2VwaWtfcHl0aG9uJywgJy1waCcsICc3LjAnLCAnLXRuJywgJzgnLCAnLW1hJywgJzIwMCcsICctbWV0YWxfYmluZGluZycsICctaW1hZScsICc8aW5maWxlLm1hZT4nLCAnLW9tYWUnLCAnPG91dGZpbGUubWFlPic=

> <r_lp_tautomer_probability>
1

> <r_epik_Ionization_Penalty>
0.113357

> <r_epik_Ionization_Penalty_Charging>
3.84185e-08

> <r_epik_Ionization_Penalty_Neutral>
0.113357

> <r_epik_State_Penalty>
0.103025

> <r_epik_Charging_Adjusted_Penalty>
0.103025

> <i_epik_Tot_Q>
0

> <i_epik_Tot_abs_Q>
0

> <r_epik_Metal_State_Penalty>
0.0863451

> <b_epik_Metal_Only>
0

> <s_lp_Force_Field>
OPLS_2005

> <r_lp_Energy>
17.2292

> <b_lp_Chiralities_Consistent>
1

> <s_lp_Variant>
AV-unprocessed.smi:2691-2

> <Gold.Version>
5.8.1

> <Gold.Id.Protein>
6NUR|6NUR_protein|mol2

> <Gold.PLP.Fitness>
50.1294

> <Gold.PLP.PLP>
-47.2734

> <Gold.PLP.part.hbond>
-3.0000

> <Gold.PLP.part.metal>
0.0000

> <Gold.PLP.part.buried>
-5.2058

> <Gold.PLP.part.nonpolar>
-38.8360

> <Gold.PLP.part.repulsive>
0.0519

> <Gold.PLP.ligand.clash>
0.0000

> <Gold.PLP.ligand.torsion>
0.7610

> <Gold.PLP.Chemscore.Hbond>
1.4327

> <Gold.PLP.Chemscore.CHOScore>
0.0000

> <Gold.PLP.Chemscore.Metal>
0.0000

> <Gold.Chemscore.Hbonds>
donor molecule, donor type, donor heavy atom, donor atom, acceptor molecule, acceptor atom, score
      P1  H  6931  6943       L1    14  0.48
      P1  H  7989  7998       L1     5  0.85

> <Gold.PLP.Chemscore.Internal.Correction>
0.0799

> <Gold.Rescore>
     Score         DG    S(hbond)    S(metal)    S(lipo)     H(rot)  DE(clash)    DE(int)     intcor
     15.09     -15.95       0.61        0.00     125.72       2.45       0.07       0.79       ----

> <Gold.Chemscore.Fitness>
15.0863

> <Gold.Chemscore.DG>
-15.9467

> <Gold.Chemscore.ZeroCoef>
-5.4800

> <Gold.Chemscore.Hbond>
0.6102

> <Gold.Chemscore.Metal>
0.0000

> <Gold.Chemscore.Lipo>
125.7244

> <Gold.Chemscore.Internal_Hbond>
0.0000

> <Gold.Chemscore.DEClash>
0.0739

> <Gold.Chemscore.DEInternal>
0.7865

> <Gold.Chemscore.Rot>
2.4536

> <Gold.Chemscore.Internal.Correction>
   9.000000E+99

> <Gold.Chemscore.Hbonds>
donor molecule, donor type, donor heavy atom, donor atom, acceptor molecule, acceptor atom, score
      P1  H  6931  6943       L1    14  0.21
      P1  H  7989  7998       L1     5  0.59

> <Gold.Chemscore.Hbond.Weighted>
-2.0382

> <Gold.Chemscore.Metal.Weighted>
-0.0000

> <Gold.Chemscore.Lipo.Weighted>
-14.7098

> <Gold.Chemscore.Internal_Hbond.Weighted>
0.0000

> <Gold.Chemscore.DEClash.Weighted>
0.0739

> <Gold.Chemscore.DEInternal.Weighted>
0.7865

> <Gold.Chemscore.Rot.Weighted>
6.2812

> <Gold.Chemscore.Internal.Correction.Weighted>
   9.000000E+99

> <Gold.Protein.RotatedTorsions>
[ 6907 6896 6895 6894 ] final -137.87 input  -60.11 | X-H torsion
[ 7974 7965 7964 7962 ] final   63.37 input  175.53 | X-H torsion
[ 8008 7997 7996 7995 ] final -158.39 input   59.86 | X-H torsion
[ 10167 10162 10161 10158 ] final  101.33 input  -65.29 | X-H torsion
[ 10718 10713 10712 10709 ] final   15.84 input   66.30 | X-H torsion
[ 10763 10752 10751 10750 ] final   31.54 input  -60.55 | X-H torsion
[ 11005 11000 10999 10996 ] final  -21.59 input  -57.11 | X-H torsion

> <Gold.Protein.ActiveResidues>
 VAL166  LYS551  ARG553  GLY616  TRP617  ASP618  TYR619  PRO620  LYS621  CYS622 
 ASP623  PHE694  ASN695  SER759  ASP760  ASP761  ALA762  ILE779  LEU786  VAL792 
 PHE793  MET794  SER795  GLU796  ALA797  LYS798  CYS799  TRP800  GLU811  SER814 

> <Gold.Protein.RotatedAtoms>
  151.0279  133.5816  159.2663 H   0  0  0  0  0  0  0  0  0  0  0  0  # atno 6907 bound_to 6896
  151.2909  135.0740  159.9213 H   0  0  0  0  0  0  0  0  0  0  0  0  # atno 6908 bound_to 6896
  152.5338  133.9978  159.7934 H   0  0  0  0  0  0  0  0  0  0  0  0  # atno 6909 bound_to 6896
  145.8626  139.3325  143.0810 H   0  0  0  0  0  0  0  0  0  0  0  0  # atno 7974 bound_to 7965
  155.7469  140.0821  157.2219 H   0  0  0  0  0  0  0  0  0  0  0  0  # atno 8008 bound_to 7997
  154.4016  140.1567  156.2735 H   0  0  0  0  0  0  0  0  0  0  0  0  # atno 8009 bound_to 7997
  155.8967  140.3412  155.5999 H   0  0  0  0  0  0  0  0  0  0  0  0  # atno 8010 bound_to 7997
  139.7447  144.7001  151.0521 H   0  0  0  0  0  0  0  0  0  0  0  0  # atno 10167 bound_to 10162
  157.0593  130.6302  149.5783 H   0  0  0  0  0  0  0  0  0  0  0  0  # atno 10718 bound_to 10713
  153.0310  135.6436  154.1215 H   0  0  0  0  0  0  0  0  0  0  0  0  # atno 10763 bound_to 10752
  154.0938  135.2864  155.3267 H   0  0  0  0  0  0  0  0  0  0  0  0  # atno 10764 bound_to 10752
  154.6446  135.5447  153.7893 H   0  0  0  0  0  0  0  0  0  0  0  0  # atno 10765 bound_to 10752
  140.8575  133.7812  156.0037 H   0  0  0  0  0  0  0  0  0  0  0  0  # atno 11005 bound_to 11000
  145.9230  140.9102  143.0395 LP  0  0  0  0  0  0  0  0  0  0  0  0  # atno 17320 bound_to 7965
  144.6726  140.1314  143.7443 LP  0  0  0  0  0  0  0  0  0  0  0  0  # atno 17321 bound_to 7965
  140.7790  143.4881  150.9929 LP  0  0  0  0  0  0  0  0  0  0  0  0  # atno 17342 bound_to 10162
  139.8569  143.7365  152.3175 LP  0  0  0  0  0  0  0  0  0  0  0  0  # atno 17343 bound_to 10162
  155.9983  130.5057  150.7567 LP  0  0  0  0  0  0  0  0  0  0  0  0  # atno 17370 bound_to 10713
  157.4967  131.0915  151.0363 LP  0  0  0  0  0  0  0  0  0  0  0  0  # atno 17371 bound_to 10713
  140.8720  134.2715  157.5186 LP  0  0  0  0  0  0  0  0  0  0  0  0  # atno 17394 bound_to 11000
  139.8706  134.9572  156.4261 LP  0  0  0  0  0  0  0  0  0  0  0  0  # atno 17395 bound_to 11000

$$$$
