AV-unprocessed.smi:3232|AV-procd|sdf|12340|dock10
  -GOLD-   2272018203D 1   1.00000     0.00000
 Structure written by MMmdl.
 40 41  0  0  0  0  0  0  0  0  2 V2000
  145.1347  135.3410  151.7300 C   0  0  0  0  0  0  0  0  0  0  0  0
  144.6174  134.4717  152.8854 C   0  0  0  0  0  0  0  0  0  0  0  0
  144.5010  133.0384  152.5066 N   0  3  1  0  0  0  0  0  0  0  0  0
  143.5790  132.7807  151.3755 C   0  0  0  0  0  0  0  0  0  0  0  0
  144.0525  131.4780  150.7422 C   0  0  0  0  0  0  0  0  0  0  0  0
  145.5624  131.5844  150.8831 C   0  0  0  0  0  0  0  0  0  0  0  0
  145.7617  132.2771  152.2427 C   0  0  1  0  0  0  0  0  0  0  0  0
  147.0855  133.0770  152.3455 C   0  0  0  0  0  0  0  0  0  0  0  0
  148.1674  132.2467  152.8654 N   0  0  0  0  0  0  0  0  0  0  0  0
  148.6060  132.2394  154.1350 C   0  0  0  0  0  0  0  0  0  0  0  0
  148.0724  132.8901  155.0342 O   0  0  0  0  0  0  0  0  0  0  0  0
  149.8540  131.3869  154.4136 C   0  0  2  0  0  0  0  0  0  0  0  0
  149.6585  129.8983  154.0612 C   0  0  0  0  0  0  0  0  0  0  0  0
  150.2813  131.5691  155.7958 N   0  0  0  0  0  0  0  0  0  0  0  0
  151.3826  132.1429  156.2851 C   0  0  0  0  0  0  0  0  0  0  0  0
  151.4234  132.1888  157.6090 N   0  0  0  0  0  0  0  0  0  0  0  0
  150.2314  131.5864  157.8953 C   0  0  0  0  0  0  0  0  0  0  0  0
  149.5021  131.2079  156.8460 N   0  0  0  0  0  0  0  0  0  0  0  0
  145.1367  136.3938  152.0135 H   0  0  0  0  0  0  0  0  0  0  0  0
  144.5049  135.2389  150.8458 H   0  0  0  0  0  0  0  0  0  0  0  0
  146.1555  135.0794  151.4499 H   0  0  0  0  0  0  0  0  0  0  0  0
  145.2687  134.5814  153.7536 H   0  0  0  0  0  0  0  0  0  0  0  0
  143.6361  134.8539  153.1653 H   0  0  0  0  0  0  0  0  0  0  0  0
  142.5409  132.7263  151.7046 H   0  0  0  0  0  0  0  0  0  0  0  0
  143.6590  133.5866  150.6439 H   0  0  0  0  0  0  0  0  0  0  0  0
  143.6816  130.6242  151.3108 H   0  0  0  0  0  0  0  0  0  0  0  0
  143.7284  131.3657  149.7071 H   0  0  0  0  0  0  0  0  0  0  0  0
  146.0612  130.6160  150.8234 H   0  0  0  0  0  0  0  0  0  0  0  0
  145.9517  132.2095  150.0782 H   0  0  0  0  0  0  0  0  0  0  0  0
  145.7861  131.4982  153.0062 H   0  0  0  0  0  0  0  0  0  0  0  0
  147.3594  133.5064  151.3807 H   0  0  0  0  0  0  0  0  0  0  0  0
  146.9736  133.9100  153.0392 H   0  0  0  0  0  0  0  0  0  0  0  0
  148.6587  131.6717  152.1963 H   0  0  0  0  0  0  0  0  0  0  0  0
  150.6533  131.7687  153.7764 H   0  0  0  0  0  0  0  0  0  0  0  0
  149.3940  129.7741  153.0106 H   0  0  0  0  0  0  0  0  0  0  0  0
  148.8709  129.4357  154.6575 H   0  0  0  0  0  0  0  0  0  0  0  0
  150.5760  129.3351  154.2346 H   0  0  0  0  0  0  0  0  0  0  0  0
  152.1669  132.5441  155.6599 H   0  0  0  0  0  0  0  0  0  0  0  0
  149.8862  131.4311  158.9070 H   0  0  0  0  0  0  0  0  0  0  0  0
  144.0880  132.5769  153.3046 H   0  0  0  0  0  0  0  0  0  0  0  0
  1  2  1  0  0  0  0
  1 19  1  0  0  0  0
  1 20  1  0  0  0  0
  1 21  1  0  0  0  0
  2  3  1  0  0  0  0
  2 22  1  0  0  0  0
  2 23  1  0  0  0  0
  3  7  1  0  0  0  0
  3  4  1  0  0  0  0
  3 40  1  0  0  0  0
  4  5  1  0  0  0  0
  4 24  1  0  0  0  0
  4 25  1  0  0  0  0
  5  6  1  0  0  0  0
  5 26  1  0  0  0  0
  5 27  1  0  0  0  0
  6  7  1  0  0  0  0
  6 28  1  0  0  0  0
  6 29  1  0  0  0  0
  7  8  1  0  0  0  0
  7 30  1  0  0  0  0
  8  9  1  0  0  0  0
  8 31  1  0  0  0  0
  8 32  1  0  0  0  0
  9 10  1  0  0  0  0
  9 33  1  0  0  0  0
 10 11  2  0  0  0  0
 10 12  1  0  0  0  0
 12 13  1  0  0  0  0
 12 14  1  0  0  0  0
 12 34  1  0  0  0  0
 13 35  1  0  0  0  0
 13 36  1  0  0  0  0
 13 37  1  0  0  0  0
 14 18  1  0  0  0  0
 14 15  1  0  0  0  0
 15 16  2  0  0  0  0
 15 38  1  0  0  0  0
 16 17  1  0  0  0  0
 17 18  2  0  0  0  0
 17 39  1  0  0  0  0
M  CHG  1   3   1
M  END
> <s_m_source_file>
AV-unprocessed.smi

> <i_m_source_file_index>
3232

> <i_lp_mmshare_version>
43012

> <i_f3d_flags>
0

> <s_epik_input>
W0NIM11bQ0gyXU4xW0NIMl1bQ0gyXVtDSDJdW0NASF0xW0NIMl1bTkhdQyg9TylbQ0BIXShbQ0gzXSluMltjSF1uW2NIXW4y

> <s_epik_cmdline>
J2VwaWtfcHl0aG9uJywgJy1waCcsICc3LjAnLCAnLXRuJywgJzgnLCAnLW1hJywgJzIwMCcsICctbWV0YWxfYmluZGluZycsICctaW1hZScsICc8aW5maWxlLm1hZT4nLCAnLW9tYWUnLCAnPG91dGZpbGUubWFlPic=

> <r_lp_tautomer_probability>
1

> <r_epik_Ionization_Penalty>
0.00177695

> <r_epik_Ionization_Penalty_Charging>
0.00176881

> <r_epik_Ionization_Penalty_Neutral>
8.13528e-06

> <r_epik_State_Penalty>
0.00119827

> <r_epik_Charging_Adjusted_Penalty>
0.00296709

> <i_epik_Tot_Q>
1

> <i_epik_Tot_abs_Q>
1

> <r_epik_Metal_State_Penalty>
-0

> <b_epik_Metal_Only>
0

> <s_lp_Force_Field>
OPLS_2005

> <r_lp_Energy>
36.2264

> <b_lp_Chiralities_Consistent>
1

> <s_lp_Variant>
AV-unprocessed.smi:3232-2

> <Gold.Version>
5.8.1

> <Gold.Id.Protein>
6NUR|6NUR_protein|mol2

> <Gold.PLP.Fitness>
37.3199

> <Gold.PLP.PLP>
-28.9670

> <Gold.PLP.part.hbond>
-2.5367

> <Gold.PLP.part.metal>
0.0000

> <Gold.PLP.part.buried>
-5.5402

> <Gold.PLP.part.nonpolar>
-22.3230

> <Gold.PLP.part.repulsive>
0.0157

> <Gold.PLP.ligand.clash>
0.0000

> <Gold.PLP.ligand.torsion>
0.6379

> <Gold.PLP.Chemscore.Hbond>
3.1613

> <Gold.PLP.Chemscore.CHOScore>
0.0000

> <Gold.PLP.Chemscore.Metal>
0.0000

> <Gold.Chemscore.Hbonds>
donor molecule, donor type, donor heavy atom, donor atom, acceptor molecule, acceptor atom, score
      L1  H     3    40       P1 10957  1.20
      L1  H     9    33       P1 10747  0.84
      P1  H  6896  6908       L1    16  1.00

> <Gold.PLP.Chemscore.Internal.Correction>
0.1451

> <Gold.Rescore>
     Score         DG    S(hbond)    S(metal)    S(lipo)     H(rot)  DE(clash)    DE(int)     intcor
     10.38     -12.25       1.80        0.00      61.02       2.49       0.02       1.85       ----

> <Gold.Chemscore.Fitness>
10.3808

> <Gold.Chemscore.DG>
-12.2500

> <Gold.Chemscore.ZeroCoef>
-5.4800

> <Gold.Chemscore.Hbond>
1.7964

> <Gold.Chemscore.Metal>
0.0000

> <Gold.Chemscore.Lipo>
61.0249

> <Gold.Chemscore.Internal_Hbond>
0.0000

> <Gold.Chemscore.DEClash>
0.0203

> <Gold.Chemscore.DEInternal>
1.8489

> <Gold.Chemscore.Rot>
2.4882

> <Gold.Chemscore.Internal.Correction>
   9.000000E+99

> <Gold.Chemscore.Hbonds>
donor molecule, donor type, donor heavy atom, donor atom, acceptor molecule, acceptor atom, score
      L1  H     3    40       P1 10957  0.15
      L1  H     9    33       P1 10747  0.78
      P1  H  6896  6908       L1    16  0.28

> <Gold.Chemscore.Hbond.Weighted>
-5.9999

> <Gold.Chemscore.Metal.Weighted>
-0.0000

> <Gold.Chemscore.Lipo.Weighted>
-7.1399

> <Gold.Chemscore.Internal_Hbond.Weighted>
0.0000

> <Gold.Chemscore.DEClash.Weighted>
0.0203

> <Gold.Chemscore.DEInternal.Weighted>
1.8489

> <Gold.Chemscore.Rot.Weighted>
6.3697

> <Gold.Chemscore.Internal.Correction.Weighted>
   9.000000E+99

> <Gold.Protein.RotatedTorsions>
[ 6907 6896 6895 6894 ] final   56.34 input  -60.11 | X-H torsion
[ 7974 7965 7964 7962 ] final   56.39 input  175.53 | X-H torsion
[ 8008 7997 7996 7995 ] final -157.75 input   59.86 | X-H torsion
[ 10167 10162 10161 10158 ] final  169.96 input  -65.29 | X-H torsion
[ 10718 10713 10712 10709 ] final -156.01 input   66.30 | X-H torsion
[ 10763 10752 10751 10750 ] final -176.39 input  -60.55 | X-H torsion
[ 11005 11000 10999 10996 ] final  -48.44 input  -57.11 | X-H torsion

> <Gold.Protein.ActiveResidues>
 VAL166  LYS551  ARG553  GLY616  TRP617  ASP618  TYR619  PRO620  LYS621  CYS622 
 ASP623  PHE694  ASN695  SER759  ASP760  ASP761  ALA762  ILE779  LEU786  VAL792 
 PHE793  MET794  SER795  GLU796  ALA797  LYS798  CYS799  TRP800  GLU811  SER814 

> <Gold.Protein.RotatedAtoms>
  152.3627  134.6849  160.0201 H   0  0  0  0  0  0  0  0  0  0  0  0  # atno 6907 bound_to 6896
  151.7167  133.3308  159.3313 H   0  0  0  0  0  0  0  0  0  0  0  0  # atno 6908 bound_to 6896
  150.7616  134.6418  159.6286 H   0  0  0  0  0  0  0  0  0  0  0  0  # atno 6909 bound_to 6896
  145.9403  139.3883  143.0367 H   0  0  0  0  0  0  0  0  0  0  0  0  # atno 7974 bound_to 7965
  155.7372  140.0809  157.2262 H   0  0  0  0  0  0  0  0  0  0  0  0  # atno 8008 bound_to 7997
  154.4026  140.1584  156.2630 H   0  0  0  0  0  0  0  0  0  0  0  0  # atno 8009 bound_to 7997
  155.9054  140.3407  155.6061 H   0  0  0  0  0  0  0  0  0  0  0  0  # atno 8010 bound_to 7997
  139.5006  144.3649  151.9786 H   0  0  0  0  0  0  0  0  0  0  0  0  # atno 10167 bound_to 10162
  156.5206  130.8476  151.2681 H   0  0  0  0  0  0  0  0  0  0  0  0  # atno 10718 bound_to 10713
  154.5730  135.2829  155.0809 H   0  0  0  0  0  0  0  0  0  0  0  0  # atno 10763 bound_to 10752
  154.2174  135.6397  153.5138 H   0  0  0  0  0  0  0  0  0  0  0  0  # atno 10764 bound_to 10752
  153.0063  135.5506  154.6359 H   0  0  0  0  0  0  0  0  0  0  0  0  # atno 10765 bound_to 10752
  141.0700  133.6682  156.3441 H   0  0  0  0  0  0  0  0  0  0  0  0  # atno 11005 bound_to 11000
  145.8308  140.9631  143.0850 LP  0  0  0  0  0  0  0  0  0  0  0  0  # atno 17320 bound_to 7965
  144.6778  140.0160  143.7484 LP  0  0  0  0  0  0  0  0  0  0  0  0  # atno 17321 bound_to 7965
  140.3085  144.3565  150.6040 LP  0  0  0  0  0  0  0  0  0  0  0  0  # atno 17342 bound_to 10162
  140.5817  143.2172  151.7415 LP  0  0  0  0  0  0  0  0  0  0  0  0  # atno 17343 bound_to 10162
  157.7437  130.9918  150.2615 LP  0  0  0  0  0  0  0  0  0  0  0  0  # atno 17370 bound_to 10713
  156.3153  130.3778  149.7624 LP  0  0  0  0  0  0  0  0  0  0  0  0  # atno 17371 bound_to 10713
  140.5692  134.5857  157.5453 LP  0  0  0  0  0  0  0  0  0  0  0  0  # atno 17394 bound_to 11000
  139.9514  134.7610  156.0439 LP  0  0  0  0  0  0  0  0  0  0  0  0  # atno 17395 bound_to 11000

$$$$
