AV-unprocessed.smi:2822|AV-procd|sdf|10869|dock5
  -GOLD-   2272015313D 1   1.00000     0.00000
 Structure written by MMmdl.
 40 42  0  0  0  0  0  0  0  0  2 V2000
  151.3226  144.8207  160.1287 Cl  0  0  0  0  0  0  0  0  0  0  0  0
  152.1342  143.3118  159.8940 C   0  0  0  0  0  0  0  0  0  0  0  0
  153.1394  142.9105  160.7978 C   0  0  0  0  0  0  0  0  0  0  0  0
  153.8169  141.7483  160.6882 N   0  0  0  0  0  0  0  0  0  0  0  0
  153.5097  140.9369  159.6550 C   0  0  0  0  0  0  0  0  0  0  0  0
  152.5236  141.2416  158.6953 C   0  0  0  0  0  0  0  0  0  0  0  0
  151.8126  142.4591  158.8131 C   0  0  0  0  0  0  0  0  0  0  0  0
  150.8137  142.8407  157.9049 N   0  0  0  0  0  0  0  0  0  0  0  0
  150.8105  142.3426  156.5384 C   0  0  0  0  0  0  0  0  0  0  0  0
  150.0151  141.0272  156.4220 C   0  0  1  0  0  0  0  0  0  0  0  0
  148.6634  141.0687  157.1591 C   0  0  0  0  0  0  0  0  0  0  0  0
  147.6885  141.9330  156.4532 N   0  3  2  0  0  0  0  0  0  0  0  0
  146.3907  142.0134  157.1711 C   0  0  0  0  0  0  0  0  0  0  0  0
  145.4249  142.9806  156.4692 C   0  0  0  0  0  0  0  0  0  0  0  0
  145.2178  142.5760  155.0047 C   0  0  0  0  0  0  0  0  0  0  0  0
  146.5728  142.4780  154.2917 C   0  0  0  0  0  0  0  0  0  0  0  0
  147.5308  141.5221  155.0316 C   0  0  1  0  0  0  0  0  0  0  0  0
  148.9068  141.4748  154.3405 C   0  0  0  0  0  0  0  0  0  0  0  0
  149.8002  140.6363  155.0654 O   0  0  0  0  0  0  0  0  0  0  0  0
  153.4061  143.5399  161.6340 H   0  0  0  0  0  0  0  0  0  0  0  0
  154.0677  140.0145  159.5895 H   0  0  0  0  0  0  0  0  0  0  0  0
  152.3354  140.5445  157.8928 H   0  0  0  0  0  0  0  0  0  0  0  0
  149.9851  143.3029  158.2534 H   0  0  0  0  0  0  0  0  0  0  0  0
  150.3505  143.0994  155.9018 H   0  0  0  0  0  0  0  0  0  0  0  0
  151.8330  142.2160  156.1840 H   0  0  0  0  0  0  0  0  0  0  0  0
  150.6152  140.2410  156.8821 H   0  0  0  0  0  0  0  0  0  0  0  0
  148.2571  140.0582  157.2293 H   0  0  0  0  0  0  0  0  0  0  0  0
  148.8039  141.4231  158.1810 H   0  0  0  0  0  0  0  0  0  0  0  0
  145.9447  141.0193  157.2323 H   0  0  0  0  0  0  0  0  0  0  0  0
  146.5607  142.3478  158.1952 H   0  0  0  0  0  0  0  0  0  0  0  0
  144.4674  142.9946  156.9906 H   0  0  0  0  0  0  0  0  0  0  0  0
  145.8198  143.9963  156.5186 H   0  0  0  0  0  0  0  0  0  0  0  0
  144.7035  141.6154  154.9551 H   0  0  0  0  0  0  0  0  0  0  0  0
  144.5775  143.3005  154.5003 H   0  0  0  0  0  0  0  0  0  0  0  0
  146.4239  142.1393  153.2655 H   0  0  0  0  0  0  0  0  0  0  0  0
  147.0182  143.4719  154.2264 H   0  0  0  0  0  0  0  0  0  0  0  0
  147.1034  140.5176  155.0162 H   0  0  0  0  0  0  0  0  0  0  0  0
  148.8027  141.0707  153.3332 H   0  0  0  0  0  0  0  0  0  0  0  0
  149.3261  142.4746  154.2254 H   0  0  0  0  0  0  0  0  0  0  0  0
  148.0760  142.8658  156.4454 H   0  0  0  0  0  0  0  0  0  0  0  0
  1  2  1  0  0  0  0
  2  7  1  0  0  0  0
  2  3  2  0  0  0  0
  3  4  1  0  0  0  0
  3 20  1  0  0  0  0
  4  5  2  0  0  0  0
  5  6  1  0  0  0  0
  5 21  1  0  0  0  0
  6  7  2  0  0  0  0
  6 22  1  0  0  0  0
  7  8  1  0  0  0  0
  8  9  1  0  0  0  0
  8 23  1  0  0  0  0
  9 10  1  0  0  0  0
  9 24  1  0  0  0  0
  9 25  1  0  0  0  0
 10 19  1  0  0  0  0
 10 11  1  0  0  0  0
 10 26  1  0  0  0  0
 11 12  1  0  0  0  0
 11 27  1  0  0  0  0
 11 28  1  0  0  0  0
 12 17  1  0  0  0  0
 12 13  1  0  0  0  0
 12 40  1  0  0  0  0
 13 14  1  0  0  0  0
 13 29  1  0  0  0  0
 13 30  1  0  0  0  0
 14 15  1  0  0  0  0
 14 31  1  0  0  0  0
 14 32  1  0  0  0  0
 15 16  1  0  0  0  0
 15 33  1  0  0  0  0
 15 34  1  0  0  0  0
 16 17  1  0  0  0  0
 16 35  1  0  0  0  0
 16 36  1  0  0  0  0
 17 18  1  0  0  0  0
 17 37  1  0  0  0  0
 18 19  1  0  0  0  0
 18 38  1  0  0  0  0
 18 39  1  0  0  0  0
M  CHG  1  12   1
M  END
> <s_m_source_file>
AV-unprocessed.smi

> <i_m_source_file_index>
2822

> <i_lp_mmshare_version>
43012

> <i_f3d_flags>
0

> <s_epik_input>
Q2xjMVtjSF1uW2NIXVtjSF1jMVtOSF1bQ0gyXVtDQEhdKFtDSDJdMilPW0NIMl1bQ0BASF0oTjIzKVtDSDJdW0NIMl1bQ0gyXVtDSDJdMw==

> <s_epik_cmdline>
J2VwaWtfcHl0aG9uJywgJy1waCcsICc3LjAnLCAnLXRuJywgJzgnLCAnLW1hJywgJzIwMCcsICctbWV0YWxfYmluZGluZycsICctaW1hZScsICc8aW5maWxlLm1hZT4nLCAnLW9tYWUnLCAnPG91dGZpbGUubWFlPic=

> <r_lp_tautomer_probability>
0.999999

> <r_epik_Ionization_Penalty>
0.88937

> <r_epik_Ionization_Penalty_Charging>
0.0803403

> <r_epik_Ionization_Penalty_Neutral>
0.80903

> <r_epik_State_Penalty>
0.931884

> <r_epik_Charging_Adjusted_Penalty>
1.01222

> <i_epik_Tot_Q>
1

> <i_epik_Tot_abs_Q>
1

> <r_epik_Metal_State_Penalty>
0.0782275

> <b_epik_Metal_Only>
0

> <s_lp_Force_Field>
OPLS_2005

> <r_lp_Energy>
31.9591

> <b_lp_Chiralities_Consistent>
1

> <s_lp_Variant>
AV-unprocessed.smi:2822-10

> <Gold.Version>
5.8.1

> <Gold.Id.Protein>
6NUR|6NUR_protein|mol2

> <Gold.PLP.Fitness>
45.1838

> <Gold.PLP.PLP>
-39.9889

> <Gold.PLP.part.hbond>
-1.0000

> <Gold.PLP.part.metal>
0.0000

> <Gold.PLP.part.buried>
-6.9703

> <Gold.PLP.part.nonpolar>
-32.1892

> <Gold.PLP.part.repulsive>
0.1176

> <Gold.PLP.ligand.clash>
0.0000

> <Gold.PLP.ligand.torsion>
0.4054

> <Gold.PLP.Chemscore.Hbond>
2.0000

> <Gold.PLP.Chemscore.CHOScore>
0.0000

> <Gold.PLP.Chemscore.Metal>
0.0000

> <Gold.Chemscore.Hbonds>
donor molecule, donor type, donor heavy atom, donor atom, acceptor molecule, acceptor atom, score
      L1  H    12    40       P1  8028  1.40
      P1  H  7989  7998       L1    19  0.03

> <Gold.PLP.Chemscore.Internal.Correction>
0.0057

> <Gold.Rescore>
     Score         DG    S(hbond)    S(metal)    S(lipo)     H(rot)  DE(clash)    DE(int)     intcor
     18.25     -18.62       0.94        0.00     111.14       1.17       0.06       0.32       ----

> <Gold.Chemscore.Fitness>
18.2464

> <Gold.Chemscore.DG>
-18.6228

> <Gold.Chemscore.ZeroCoef>
-5.4800

> <Gold.Chemscore.Hbond>
0.9379

> <Gold.Chemscore.Metal>
0.0000

> <Gold.Chemscore.Lipo>
111.1426

> <Gold.Chemscore.Internal_Hbond>
0.0000

> <Gold.Chemscore.DEClash>
0.0555

> <Gold.Chemscore.DEInternal>
0.3209

> <Gold.Chemscore.Rot>
1.1693

> <Gold.Chemscore.Internal.Correction>
   9.000000E+99

> <Gold.Chemscore.Hbonds>
donor molecule, donor type, donor heavy atom, donor atom, acceptor molecule, acceptor atom, score
      L1  H    12    40       P1  8028  0.34
      P1  H  7989  7998       L1    19  0.01

> <Gold.Chemscore.Hbond.Weighted>
-3.1325

> <Gold.Chemscore.Metal.Weighted>
-0.0000

> <Gold.Chemscore.Lipo.Weighted>
-13.0037

> <Gold.Chemscore.Internal_Hbond.Weighted>
0.0000

> <Gold.Chemscore.DEClash.Weighted>
0.0555

> <Gold.Chemscore.DEInternal.Weighted>
0.3209

> <Gold.Chemscore.Rot.Weighted>
2.9934

> <Gold.Chemscore.Internal.Correction.Weighted>
   9.000000E+99

> <Gold.Protein.RotatedTorsions>
[ 6907 6896 6895 6894 ] final  -91.18 input  -60.11 | X-H torsion
[ 7974 7965 7964 7962 ] final -157.55 input  175.53 | X-H torsion
[ 8008 7997 7996 7995 ] final  -61.13 input   59.86 | X-H torsion
[ 10167 10162 10161 10158 ] final   -9.97 input  -65.29 | X-H torsion
[ 10718 10713 10712 10709 ] final  136.08 input   66.30 | X-H torsion
[ 10763 10752 10751 10750 ] final  -93.83 input  -60.55 | X-H torsion
[ 11005 11000 10999 10996 ] final  -11.77 input  -57.11 | X-H torsion

> <Gold.Protein.ActiveResidues>
 VAL166  LYS551  ARG553  GLY616  TRP617  ASP618  TYR619  PRO620  LYS621  CYS622 
 ASP623  PHE694  ASN695  SER759  ASP760  ASP761  ALA762  ILE779  LEU786  VAL792 
 PHE793  MET794  SER795  GLU796  ALA797  LYS798  CYS799  TRP800  GLU811  SER814 

> <Gold.Protein.RotatedAtoms>
  150.6889  134.2318  159.4437 H   0  0  0  0  0  0  0  0  0  0  0  0  # atno 6907 bound_to 6896
  152.0268  134.9789  160.0581 H   0  0  0  0  0  0  0  0  0  0  0  0  # atno 6908 bound_to 6896
  152.1344  133.4392  159.4773 H   0  0  0  0  0  0  0  0  0  0  0  0  # atno 6909 bound_to 6896
  144.7543  140.3953  143.6024 H   0  0  0  0  0  0  0  0  0  0  0  0  # atno 7974 bound_to 7965
  154.4432  140.1024  156.6382 H   0  0  0  0  0  0  0  0  0  0  0  0  # atno 8008 bound_to 7997
  155.5531  140.3486  155.4454 H   0  0  0  0  0  0  0  0  0  0  0  0  # atno 8009 bound_to 7997
  156.0515  140.1305  157.0034 H   0  0  0  0  0  0  0  0  0  0  0  0  # atno 8010 bound_to 7997
  140.7102  143.5799  150.9003 H   0  0  0  0  0  0  0  0  0  0  0  0  # atno 10167 bound_to 10162
  157.4504  131.1065  151.0040 H   0  0  0  0  0  0  0  0  0  0  0  0  # atno 10718 bound_to 10713
  154.6997  135.5180  153.8508 H   0  0  0  0  0  0  0  0  0  0  0  0  # atno 10763 bound_to 10752
  153.0694  135.6596  154.0290 H   0  0  0  0  0  0  0  0  0  0  0  0  # atno 10764 bound_to 10752
  154.0151  135.2998  155.3367 H   0  0  0  0  0  0  0  0  0  0  0  0  # atno 10765 bound_to 10752
  140.7588  133.8532  155.9107 H   0  0  0  0  0  0  0  0  0  0  0  0  # atno 11005 bound_to 11000
  145.6833  139.1623  143.2688 LP  0  0  0  0  0  0  0  0  0  0  0  0  # atno 17320 bound_to 7965
  146.1534  140.6892  142.9311 LP  0  0  0  0  0  0  0  0  0  0  0  0  # atno 17321 bound_to 7965
  139.9525  143.6256  152.3025 LP  0  0  0  0  0  0  0  0  0  0  0  0  # atno 17342 bound_to 10162
  139.6780  144.7657  151.1661 LP  0  0  0  0  0  0  0  0  0  0  0  0  # atno 17343 bound_to 10162
  157.0872  130.5927  149.5432 LP  0  0  0  0  0  0  0  0  0  0  0  0  # atno 17370 bound_to 10713
  155.9985  130.5058  150.7572 LP  0  0  0  0  0  0  0  0  0  0  0  0  # atno 17371 bound_to 10713
  140.9683  134.1565  157.4598 LP  0  0  0  0  0  0  0  0  0  0  0  0  # atno 17394 bound_to 11000
  139.8774  134.9969  156.5821 LP  0  0  0  0  0  0  0  0  0  0  0  0  # atno 17395 bound_to 11000

$$$$
