AV-unprocessed.smi:2487|AV-procd|sdf|9792|dock2
  -GOLD-   2272013433D 1   1.00000     0.00000
 Structure written by MMmdl.
 30 31  0  0  0  0  0  0  0  0  1 V2000
  146.1020  142.7264  154.3669 C   0  0  0  0  0  0  0  0  0  0  0  0
  147.4812  142.3857  154.6796 N   0  0  0  0  0  0  0  0  0  0  0  0
  148.0516  141.2047  154.3987 C   0  0  0  0  0  0  0  0  0  0  0  0
  147.4478  140.2863  153.8427 O   0  0  0  0  0  0  0  0  0  0  0  0
  149.5145  141.0343  154.8315 C   0  0  1  0  0  0  0  0  0  0  0  0
  149.7376  141.3579  156.3262 C   0  0  0  0  0  0  0  0  0  0  0  0
  151.1202  141.0947  156.7044 N   0  0  0  0  0  0  0  0  0  0  0  0
  151.5351  141.5910  157.9257 C   0  0  0  0  0  0  0  0  0  0  0  0
  151.2302  142.8627  158.2128 N   0  0  0  0  0  0  0  0  0  0  0  0
  151.6451  143.3360  159.4083 C   0  0  0  0  0  0  0  0  0  0  0  0
  152.3648  142.5286  160.3117 C   0  0  0  0  0  0  0  0  0  0  0  0
  152.8976  143.1284  161.8391 Cl  0  0  0  0  0  0  0  0  0  0  0  0
  152.6266  141.2056  159.9023 C   0  0  0  0  0  0  0  0  0  0  0  0
  152.2080  140.7395  158.7052 N   0  0  0  0  0  0  0  0  0  0  0  0
  151.5417  139.7413  156.3701 C   0  0  0  0  0  0  0  0  0  0  0  0
  151.2834  139.4583  154.8815 C   0  0  0  0  0  0  0  0  0  0  0  0
  149.9092  139.6842  154.5848 O   0  0  0  0  0  0  0  0  0  0  0  0
  145.8600  143.7077  154.7749 H   0  0  0  0  0  0  0  0  0  0  0  0
  145.4121  141.9994  154.7975 H   0  0  0  0  0  0  0  0  0  0  0  0
  145.9477  142.7570  153.2878 H   0  0  0  0  0  0  0  0  0  0  0  0
  148.0419  143.0913  155.1355 H   0  0  0  0  0  0  0  0  0  0  0  0
  150.1187  141.7024  154.2152 H   0  0  0  0  0  0  0  0  0  0  0  0
  149.5041  142.4050  156.5249 H   0  0  0  0  0  0  0  0  0  0  0  0
  149.0741  140.7556  156.9492 H   0  0  0  0  0  0  0  0  0  0  0  0
  151.4014  144.3617  159.6426 H   0  0  0  0  0  0  0  0  0  0  0  0
  153.1718  140.5199  160.5339 H   0  0  0  0  0  0  0  0  0  0  0  0
  152.6013  139.6175  156.5964 H   0  0  0  0  0  0  0  0  0  0  0  0
  150.9942  139.0286  156.9880 H   0  0  0  0  0  0  0  0  0  0  0  0
  151.9111  140.0893  154.2501 H   0  0  0  0  0  0  0  0  0  0  0  0
  151.5320  138.4234  154.6467 H   0  0  0  0  0  0  0  0  0  0  0  0
  1  2  1  0  0  0  0
  1 18  1  0  0  0  0
  1 19  1  0  0  0  0
  1 20  1  0  0  0  0
  2  3  1  0  0  0  0
  2 21  1  0  0  0  0
  3  4  2  0  0  0  0
  3  5  1  0  0  0  0
  5 17  1  0  0  0  0
  5  6  1  0  0  0  0
  5 22  1  0  0  0  0
  6  7  1  0  0  0  0
  6 23  1  0  0  0  0
  6 24  1  0  0  0  0
  7  8  1  0  0  0  0
  7 15  1  0  0  0  0
  8 14  1  0  0  0  0
  8  9  2  0  0  0  0
  9 10  1  0  0  0  0
 10 11  2  0  0  0  0
 10 25  1  0  0  0  0
 11 12  1  0  0  0  0
 11 13  1  0  0  0  0
 13 14  2  0  0  0  0
 13 26  1  0  0  0  0
 15 16  1  0  0  0  0
 15 27  1  0  0  0  0
 15 28  1  0  0  0  0
 16 17  1  0  0  0  0
 16 29  1  0  0  0  0
 16 30  1  0  0  0  0
M  END
> <s_m_source_file>
AV-unprocessed.smi

> <i_m_source_file_index>
2487

> <i_lp_mmshare_version>
43012

> <i_f3d_flags>
0

> <s_epik_input>
W0NIM11bTkhdQyg9TylbQ0BASF0xW0NIMl1OKFtDSDJdW0NIMl1PMSljMm5bY0hdYyhDbClbY0hdbjI=

> <s_epik_cmdline>
J2VwaWtfcHl0aG9uJywgJy1waCcsICc3LjAnLCAnLXRuJywgJzgnLCAnLW1hJywgJzIwMCcsICctbWV0YWxfYmluZGluZycsICctaW1hZScsICc8aW5maWxlLm1hZT4nLCAnLW9tYWUnLCAnPG91dGZpbGUubWFlPic=

> <r_lp_tautomer_probability>
1

> <r_epik_Ionization_Penalty>
1.03229e-07

> <r_epik_Ionization_Penalty_Charging>
0

> <r_epik_Ionization_Penalty_Neutral>
1.03229e-07

> <r_epik_State_Penalty>
-0

> <r_epik_Charging_Adjusted_Penalty>
0

> <i_epik_Tot_Q>
0

> <i_epik_Tot_abs_Q>
0

> <r_epik_Metal_State_Penalty>
-0

> <b_epik_Metal_Only>
0

> <s_lp_Force_Field>
OPLS_2005

> <r_lp_Energy>
13.8042

> <b_lp_Chiralities_Consistent>
1

> <s_lp_Variant>
AV-unprocessed.smi:2487-2

> <Gold.Version>
5.8.1

> <Gold.Id.Protein>
6NUR|6NUR_protein|mol2

> <Gold.PLP.Fitness>
37.6316

> <Gold.PLP.PLP>
-34.8199

> <Gold.PLP.part.hbond>
-1.2343

> <Gold.PLP.part.metal>
0.0000

> <Gold.PLP.part.buried>
-4.6111

> <Gold.PLP.part.nonpolar>
-29.6489

> <Gold.PLP.part.repulsive>
0.5610

> <Gold.PLP.ligand.clash>
0.0000

> <Gold.PLP.ligand.torsion>
0.2362

> <Gold.PLP.Chemscore.Hbond>
1.0000

> <Gold.PLP.Chemscore.CHOScore>
0.0000

> <Gold.PLP.Chemscore.Metal>
0.0000

> <Gold.Chemscore.Hbonds>
donor molecule, donor type, donor heavy atom, donor atom, acceptor molecule, acceptor atom, score
      L1  H     2    21       P1  8028  1.00

> <Gold.PLP.Chemscore.Internal.Correction>
0.2841

> <Gold.Rescore>
     Score         DG    S(hbond)    S(metal)    S(lipo)     H(rot)  DE(clash)    DE(int)     intcor
     14.09     -14.27       0.99        0.00      76.20       1.34       0.03       0.15       ----

> <Gold.Chemscore.Fitness>
14.0862

> <Gold.Chemscore.DG>
-14.2711

> <Gold.Chemscore.ZeroCoef>
-5.4800

> <Gold.Chemscore.Hbond>
0.9871

> <Gold.Chemscore.Metal>
0.0000

> <Gold.Chemscore.Lipo>
76.2023

> <Gold.Chemscore.Internal_Hbond>
0.0000

> <Gold.Chemscore.DEClash>
0.0348

> <Gold.Chemscore.DEInternal>
0.1502

> <Gold.Chemscore.Rot>
1.3366

> <Gold.Chemscore.Internal.Correction>
   9.000000E+99

> <Gold.Chemscore.Hbonds>
donor molecule, donor type, donor heavy atom, donor atom, acceptor molecule, acceptor atom, score
      L1  H     2    21       P1  8028  0.90

> <Gold.Chemscore.Hbond.Weighted>
-3.2971

> <Gold.Chemscore.Metal.Weighted>
-0.0000

> <Gold.Chemscore.Lipo.Weighted>
-8.9157

> <Gold.Chemscore.Internal_Hbond.Weighted>
0.0000

> <Gold.Chemscore.DEClash.Weighted>
0.0348

> <Gold.Chemscore.DEInternal.Weighted>
0.1502

> <Gold.Chemscore.Rot.Weighted>
3.4216

> <Gold.Chemscore.Internal.Correction.Weighted>
   9.000000E+99

> <Gold.Protein.RotatedTorsions>
[ 6907 6896 6895 6894 ] final   32.22 input  -60.11 | X-H torsion
[ 7974 7965 7964 7962 ] final -100.86 input  175.53 | X-H torsion
[ 8008 7997 7996 7995 ] final -174.84 input   59.86 | X-H torsion
[ 10167 10162 10161 10158 ] final  120.44 input  -65.29 | X-H torsion
[ 10718 10713 10712 10709 ] final  -50.60 input   66.30 | X-H torsion
[ 10763 10752 10751 10750 ] final   61.91 input  -60.55 | X-H torsion
[ 11005 11000 10999 10996 ] final  -42.33 input  -57.11 | X-H torsion

> <Gold.Protein.ActiveResidues>
 VAL166  LYS551  ARG553  GLY616  TRP617  ASP618  TYR619  PRO620  LYS621  CYS622 
 ASP623  PHE694  ASN695  SER759  ASP760  ASP761  ALA762  ILE779  LEU786  VAL792 
 PHE793  MET794  SER795  GLU796  ALA797  LYS798  CYS799  TRP800  GLU811  SER814 

> <Gold.Protein.RotatedAtoms>
  152.0713  134.9531  160.0574 H   0  0  0  0  0  0  0  0  0  0  0  0  # atno 6907 bound_to 6896
  152.0856  133.4170  159.4529 H   0  0  0  0  0  0  0  0  0  0  0  0  # atno 6908 bound_to 6896
  150.6836  134.2851  159.4687 H   0  0  0  0  0  0  0  0  0  0  0  0  # atno 6909 bound_to 6896
  145.2891  140.9348  143.2888 H   0  0  0  0  0  0  0  0  0  0  0  0  # atno 7974 bound_to 7965
  155.9752  140.1171  157.0776 H   0  0  0  0  0  0  0  0  0  0  0  0  # atno 8008 bound_to 7997
  154.4167  140.1155  156.5428 H   0  0  0  0  0  0  0  0  0  0  0  0  # atno 8009 bound_to 7997
  155.6544  140.3473  155.4762 H   0  0  0  0  0  0  0  0  0  0  0  0  # atno 8010 bound_to 7997
  139.5982  144.7048  151.3126 H   0  0  0  0  0  0  0  0  0  0  0  0  # atno 10167 bound_to 10162
  156.1786  130.4150  149.9541 H   0  0  0  0  0  0  0  0  0  0  0  0  # atno 10718 bound_to 10713
  152.9965  135.5484  154.6108 H   0  0  0  0  0  0  0  0  0  0  0  0  # atno 10763 bound_to 10752
  154.5429  135.2821  155.1081 H   0  0  0  0  0  0  0  0  0  0  0  0  # atno 10764 bound_to 10752
  154.2351  135.6426  153.5241 H   0  0  0  0  0  0  0  0  0  0  0  0  # atno 10765 bound_to 10752
  141.0308  133.6821  156.2580 H   0  0  0  0  0  0  0  0  0  0  0  0  # atno 11005 bound_to 11000
  144.9188  139.4438  143.6551 LP  0  0  0  0  0  0  0  0  0  0  0  0  # atno 17320 bound_to 7965
  146.3191  139.8036  142.8960 LP  0  0  0  0  0  0  0  0  0  0  0  0  # atno 17321 bound_to 7965
  140.7228  143.7087  150.7787 LP  0  0  0  0  0  0  0  0  0  0  0  0  # atno 17342 bound_to 10162
  140.0658  143.5110  152.2605 LP  0  0  0  0  0  0  0  0  0  0  0  0  # atno 17343 bound_to 10162
  156.7319  130.9046  151.3626 LP  0  0  0  0  0  0  0  0  0  0  0  0  # atno 17370 bound_to 10713
  157.6852  130.9179  150.0369 LP  0  0  0  0  0  0  0  0  0  0  0  0  # atno 17371 bound_to 10713
  140.6410  134.5166  157.5569 LP  0  0  0  0  0  0  0  0  0  0  0  0  # atno 17394 bound_to 11000
  139.9207  134.8155  156.1222 LP  0  0  0  0  0  0  0  0  0  0  0  0  # atno 17395 bound_to 11000

$$$$
