AV-unprocessed.smi:594|AV-procd|sdf|3016|dock10
  -GOLD-   2262023523D 1   1.00000     0.00000
 Structure written by MMmdl.
 40 41  0  0  0  0  0  0  0  0  3 V2000
  149.7593  139.9904  154.4270 C   0  0  0  0  0  0  0  0  0  0  0  0
  148.3553  140.5433  154.7280 C   0  0  2  0  0  0  0  0  0  0  0  0
  147.9813  141.6917  153.7680 C   0  0  0  0  0  0  0  0  0  0  0  0
  146.5542  142.2017  154.0253 C   0  0  0  0  0  0  0  0  0  0  0  0
  146.3702  142.6340  155.4875 C   0  0  0  0  0  0  0  0  0  0  0  0
  146.7427  141.4978  156.4561 C   0  0  0  0  0  0  0  0  0  0  0  0
  148.1678  140.9625  156.2093 C   0  0  2  0  0  0  0  0  0  0  0  0
  149.1535  141.9644  156.6208 N   0  0  0  0  0  0  0  0  0  0  0  0
  149.9877  141.8720  157.6680 C   0  0  0  0  0  0  0  0  0  0  0  0
  150.0168  140.9027  158.4277 O   0  0  0  0  0  0  0  0  0  0  0  0
  150.9436  143.0579  157.8604 C   0  0  0  0  0  0  0  0  0  0  0  0
  151.7723  142.9518  159.0730 N   0  0  0  0  0  0  0  0  0  0  0  0
  152.7465  141.9342  159.0903 C   0  0  0  0  0  0  0  0  0  0  0  0
  153.5526  141.7328  160.1509 C   0  0  0  0  0  0  0  0  0  0  0  0
  154.5399  140.6757  160.1550 N   0  3  0  0  0  0  0  0  0  0  0  0
  155.3100  140.5936  161.1066 O   0  0  0  0  0  0  0  0  0  0  0  0
  154.5795  139.8940  159.2092 O   0  5  0  0  0  0  0  0  0  0  0  0
  153.3924  142.6090  161.2953 C   0  0  0  0  0  0  0  0  0  0  0  0
  152.4592  143.5813  161.2865 C   0  0  0  0  0  0  0  0  0  0  0  0
  151.5770  143.7930  160.1341 C   0  0  0  0  0  0  0  0  0  0  0  0
  150.7154  144.6723  160.1241 O   0  0  0  0  0  0  0  0  0  0  0  0
  150.5262  140.7598  154.5203 H   0  0  0  0  0  0  0  0  0  0  0  0
  149.8140  139.5956  153.4123 H   0  0  0  0  0  0  0  0  0  0  0  0
  150.0155  139.1795  155.1094 H   0  0  0  0  0  0  0  0  0  0  0  0
  147.6552  139.7279  154.5395 H   0  0  0  0  0  0  0  0  0  0  0  0
  148.6889  142.5146  153.8771 H   0  0  0  0  0  0  0  0  0  0  0  0
  148.0635  141.3538  152.7343 H   0  0  0  0  0  0  0  0  0  0  0  0
  146.3322  143.0368  153.3604 H   0  0  0  0  0  0  0  0  0  0  0  0
  145.8369  141.4161  153.7843 H   0  0  0  0  0  0  0  0  0  0  0  0
  146.9865  143.5108  155.6904 H   0  0  0  0  0  0  0  0  0  0  0  0
  145.3374  142.9397  155.6563 H   0  0  0  0  0  0  0  0  0  0  0  0
  146.6401  141.8369  157.4876 H   0  0  0  0  0  0  0  0  0  0  0  0
  146.0293  140.6816  156.3349 H   0  0  0  0  0  0  0  0  0  0  0  0
  148.2844  140.0709  156.8280 H   0  0  0  0  0  0  0  0  0  0  0  0
  149.2074  142.7973  156.0526 H   0  0  0  0  0  0  0  0  0  0  0  0
  151.5805  143.1305  156.9773 H   0  0  0  0  0  0  0  0  0  0  0  0
  150.3642  143.9829  157.8681 H   0  0  0  0  0  0  0  0  0  0  0  0
  152.7795  141.3318  158.1936 H   0  0  0  0  0  0  0  0  0  0  0  0
  154.0192  142.4921  162.1672 H   0  0  0  0  0  0  0  0  0  0  0  0
  152.3570  144.2223  162.1501 H   0  0  0  0  0  0  0  0  0  0  0  0
  1  2  1  0  0  0  0
  1 22  1  0  0  0  0
  1 23  1  0  0  0  0
  1 24  1  0  0  0  0
  2  7  1  0  0  0  0
  2  3  1  0  0  0  0
  2 25  1  0  0  0  0
  3  4  1  0  0  0  0
  3 26  1  0  0  0  0
  3 27  1  0  0  0  0
  4  5  1  0  0  0  0
  4 28  1  0  0  0  0
  4 29  1  0  0  0  0
  5  6  1  0  0  0  0
  5 30  1  0  0  0  0
  5 31  1  0  0  0  0
  6  7  1  0  0  0  0
  6 32  1  0  0  0  0
  6 33  1  0  0  0  0
  7  8  1  0  0  0  0
  7 34  1  0  0  0  0
  8  9  1  0  0  0  0
  8 35  1  0  0  0  0
  9 10  2  0  0  0  0
  9 11  1  0  0  0  0
 11 12  1  0  0  0  0
 11 36  1  0  0  0  0
 11 37  1  0  0  0  0
 12 20  1  0  0  0  0
 12 13  1  0  0  0  0
 13 14  2  0  0  0  0
 13 38  1  0  0  0  0
 14 15  1  0  0  0  0
 14 18  1  0  0  0  0
 15 16  2  0  0  0  0
 15 17  1  0  0  0  0
 18 19  2  0  0  0  0
 18 39  1  0  0  0  0
 19 20  1  0  0  0  0
 19 40  1  0  0  0  0
 20 21  2  0  0  0  0
M  CHG  1  15   1
M  CHG  1  17  -1
M  END
> <s_m_source_file>
AV-unprocessed.smi

> <i_m_source_file_index>
594

> <i_lp_mmshare_version>
43012

> <i_f3d_flags>
0

> <s_epik_input>
W0NIM11bQ0BASF0xW0NIMl1bQ0gyXVtDSDJdW0NIMl1bQ0BIXTFbTkhdQyg9TylbQ0gyXW4yW2NIXWMoW04rXSg9TylbTy1dKVtjSF1bY0hdYzI9Tw==

> <s_epik_cmdline>
J2VwaWtfcHl0aG9uJywgJy1waCcsICc3LjAnLCAnLXRuJywgJzgnLCAnLW1hJywgJzIwMCcsICctbWV0YWxfYmluZGluZycsICctaW1hZScsICc8aW5maWxlLm1hZT4nLCAnLW9tYWUnLCAnPG91dGZpbGUubWFlPic=

> <r_lp_tautomer_probability>
1

> <r_epik_Ionization_Penalty>
1.91305e-08

> <r_epik_Ionization_Penalty_Charging>
8.35811e-11

> <r_epik_Ionization_Penalty_Neutral>
1.90469e-08

> <r_epik_State_Penalty>
-0

> <r_epik_Charging_Adjusted_Penalty>
8.35811e-11

> <i_epik_Tot_Q>
0

> <i_epik_Tot_abs_Q>
2

> <r_epik_Metal_State_Penalty>
-0

> <b_epik_Metal_Only>
0

> <s_lp_Force_Field>
OPLS_2005

> <r_lp_Energy>
20.6939

> <b_lp_Chiralities_Consistent>
1

> <s_lp_Variant>
AV-unprocessed.smi:594-3

> <Gold.Version>
5.8.1

> <Gold.Id.Protein>
6NUR|6NUR_protein|mol2

> <Gold.PLP.Fitness>
48.6363

> <Gold.PLP.PLP>
-42.9374

> <Gold.PLP.part.hbond>
-3.0000

> <Gold.PLP.part.metal>
0.0000

> <Gold.PLP.part.buried>
-4.0850

> <Gold.PLP.part.nonpolar>
-34.4601

> <Gold.PLP.part.repulsive>
0.1747

> <Gold.PLP.ligand.clash>
0.0000

> <Gold.PLP.ligand.torsion>
0.1561

> <Gold.PLP.Chemscore.Hbond>
2.0000

> <Gold.PLP.Chemscore.CHOScore>
0.0000

> <Gold.PLP.Chemscore.Metal>
0.0000

> <Gold.Chemscore.Hbonds>
donor molecule, donor type, donor heavy atom, donor atom, acceptor molecule, acceptor atom, score
      L1  H     8    35       P1  8028  1.00
      P1  H  7997  8009       L1    17  1.00

> <Gold.PLP.Chemscore.Internal.Correction>
0.0112

> <Gold.Rescore>
     Score         DG    S(hbond)    S(metal)    S(lipo)     H(rot)  DE(clash)    DE(int)     intcor
     17.44     -18.65       1.94        0.00      91.24       1.55       0.02       1.19       ----

> <Gold.Chemscore.Fitness>
17.4389

> <Gold.Chemscore.DG>
-18.6549

> <Gold.Chemscore.ZeroCoef>
-5.4800

> <Gold.Chemscore.Hbond>
1.9367

> <Gold.Chemscore.Metal>
0.0000

> <Gold.Chemscore.Lipo>
91.2423

> <Gold.Chemscore.Internal_Hbond>
0.0000

> <Gold.Chemscore.DEClash>
0.0242

> <Gold.Chemscore.DEInternal>
1.1918

> <Gold.Chemscore.Rot>
1.5505

> <Gold.Chemscore.Internal.Correction>
   9.000000E+99

> <Gold.Chemscore.Hbonds>
donor molecule, donor type, donor heavy atom, donor atom, acceptor molecule, acceptor atom, score
      L1  H     8    35       P1  8028  0.95
      P1  H  7997  8009       L1    17  0.97

> <Gold.Chemscore.Hbond.Weighted>
-6.4687

> <Gold.Chemscore.Metal.Weighted>
-0.0000

> <Gold.Chemscore.Lipo.Weighted>
-10.6754

> <Gold.Chemscore.Internal_Hbond.Weighted>
0.0000

> <Gold.Chemscore.DEClash.Weighted>
0.0242

> <Gold.Chemscore.DEInternal.Weighted>
1.1918

> <Gold.Chemscore.Rot.Weighted>
3.9692

> <Gold.Chemscore.Internal.Correction.Weighted>
   9.000000E+99

> <Gold.Protein.RotatedTorsions>
[ 6907 6896 6895 6894 ] final  -52.34 input  -60.11 | X-H torsion
[ 7974 7965 7964 7962 ] final  105.54 input  175.53 | X-H torsion
[ 8008 7997 7996 7995 ] final  115.56 input   59.86 | X-H torsion
[ 10167 10162 10161 10158 ] final -122.70 input  -65.29 | X-H torsion
[ 10718 10713 10712 10709 ] final   -1.20 input   66.30 | X-H torsion
[ 10763 10752 10751 10750 ] final   42.37 input  -60.55 | X-H torsion
[ 11005 11000 10999 10996 ] final   57.35 input  -57.11 | X-H torsion

> <Gold.Protein.ActiveResidues>
 VAL166  LYS551  ARG553  GLY616  TRP617  ASP618  TYR619  PRO620  LYS621  CYS622 
 ASP623  PHE694  ASN695  SER759  ASP760  ASP761  ALA762  ILE779  LEU786  VAL792 
 PHE793  MET794  SER795  GLU796  ALA797  LYS798  CYS799  TRP800  GLU811  SER814 

> <Gold.Protein.RotatedAtoms>
  150.8527  134.7856  159.7020 H   0  0  0  0  0  0  0  0  0  0  0  0  # atno 6907 bound_to 6896
  152.4587  134.5230  159.9798 H   0  0  0  0  0  0  0  0  0  0  0  0  # atno 6908 bound_to 6896
  151.5348  133.3405  159.2960 H   0  0  0  0  0  0  0  0  0  0  0  0  # atno 6909 bound_to 6896
  145.3184  139.2520  143.3725 H   0  0  0  0  0  0  0  0  0  0  0  0  # atno 7974 bound_to 7965
  156.2389  140.2936  156.0388 H   0  0  0  0  0  0  0  0  0  0  0  0  # atno 8008 bound_to 7997
  155.2011  140.0409  157.2935 H   0  0  0  0  0  0  0  0  0  0  0  0  # atno 8009 bound_to 7997
  154.6130  140.2456  155.7652 H   0  0  0  0  0  0  0  0  0  0  0  0  # atno 8010 bound_to 7997
  140.0114  143.5438  152.2261 H   0  0  0  0  0  0  0  0  0  0  0  0  # atno 10167 bound_to 10162
  156.8092  130.5419  149.5711 H   0  0  0  0  0  0  0  0  0  0  0  0  # atno 10718 bound_to 10713
  152.9885  135.6134  154.2938 H   0  0  0  0  0  0  0  0  0  0  0  0  # atno 10763 bound_to 10752
  154.2662  135.2781  155.2759 H   0  0  0  0  0  0  0  0  0  0  0  0  # atno 10764 bound_to 10752
  154.5162  135.5827  153.6701 H   0  0  0  0  0  0  0  0  0  0  0  0  # atno 10765 bound_to 10752
  140.0459  134.5807  155.9323 H   0  0  0  0  0  0  0  0  0  0  0  0  # atno 11005 bound_to 11000
  146.3092  140.3735  142.8676 LP  0  0  0  0  0  0  0  0  0  0  0  0  # atno 17320 bound_to 7965
  144.8959  140.7583  143.5897 LP  0  0  0  0  0  0  0  0  0  0  0  0  # atno 17321 bound_to 7965
  139.6202  144.7627  151.2756 LP  0  0  0  0  0  0  0  0  0  0  0  0  # atno 17342 bound_to 10162
  140.7380  143.6662  150.8121 LP  0  0  0  0  0  0  0  0  0  0  0  0  # atno 17343 bound_to 10162
  156.1055  130.6001  150.9963 LP  0  0  0  0  0  0  0  0  0  0  0  0  # atno 17370 bound_to 10713
  157.6514  131.0896  150.8041 LP  0  0  0  0  0  0  0  0  0  0  0  0  # atno 17371 bound_to 10713
  141.1906  133.6569  156.5421 LP  0  0  0  0  0  0  0  0  0  0  0  0  # atno 17394 bound_to 11000
  140.3995  134.7369  157.4771 LP  0  0  0  0  0  0  0  0  0  0  0  0  # atno 17395 bound_to 11000

$$$$
