AV-unprocessed.smi:3340|AV-procd|sdf|12879|dock3
  -GOLD-   2272019283D 1   1.00000     0.00000
 Structure written by MMmdl.
 42 43  0  0  0  0  0  0  0  0  2 V2000
  152.5092  143.6250  159.8729 C   0  0  0  0  0  0  0  0  0  0  0  0
  152.5175  142.2004  159.3139 C   0  0  0  0  0  0  0  0  0  0  0  0
  153.4541  141.4642  159.6246 O   0  0  0  0  0  0  0  0  0  0  0  0
  151.5065  141.7978  158.5069 N   0  0  0  0  0  0  0  0  0  0  0  0
  150.4205  142.6942  158.0844 C   0  0  0  0  0  0  0  0  0  0  0  0
  150.5069  142.8993  156.5584 C   0  0  0  0  0  0  0  0  0  0  0  0
  150.4117  141.5858  155.8917 N   0  0  0  0  0  0  0  0  0  0  0  0
  149.3753  141.1480  155.1340 C   0  0  0  0  0  0  0  0  0  0  0  0
  149.3252  140.0197  154.6422 O   0  0  0  0  0  0  0  0  0  0  0  0
  148.4205  142.0668  154.9073 N   0  0  0  0  0  0  0  0  0  0  0  0
  147.2247  141.8684  154.0940 C   0  0  2  0  0  0  0  0  0  0  0  0
  146.4864  143.2093  153.9500 C   0  0  0  0  0  0  0  0  0  0  0  0
  146.3484  140.7533  154.7041 C   0  0  0  0  0  0  0  0  0  0  0  0
  146.8782  139.4100  154.4529 N   0  0  0  0  0  0  0  0  0  0  0  0
  147.1268  138.4319  155.3811 C   0  0  0  0  0  0  0  0  0  0  0  0
  147.6118  137.3515  154.6900 C   0  0  0  0  0  0  0  0  0  0  0  0
  147.6360  137.7146  153.3699 N   0  3  0  0  0  0  0  0  0  0  0  0
  147.1861  138.9657  153.2274 C   0  0  0  0  0  0  0  0  0  0  0  0
  151.4955  140.6892  156.3231 C   0  0  0  0  0  0  0  0  0  0  0  0
  151.4098  140.4861  157.8488 C   0  0  0  0  0  0  0  0  0  0  0  0
  151.6204  143.7964  160.4807 H   0  0  0  0  0  0  0  0  0  0  0  0
  152.5357  144.3575  159.0658 H   0  0  0  0  0  0  0  0  0  0  0  0
  153.3813  143.7948  160.5052 H   0  0  0  0  0  0  0  0  0  0  0  0
  149.4609  142.2498  158.3531 H   0  0  0  0  0  0  0  0  0  0  0  0
  150.4524  143.6625  158.5852 H   0  0  0  0  0  0  0  0  0  0  0  0
  149.7396  143.6099  156.2525 H   0  0  0  0  0  0  0  0  0  0  0  0
  151.4588  143.3634  156.2957 H   0  0  0  0  0  0  0  0  0  0  0  0
  148.5405  142.9783  155.3250 H   0  0  0  0  0  0  0  0  0  0  0  0
  147.5338  141.5604  153.0934 H   0  0  0  0  0  0  0  0  0  0  0  0
  145.6392  143.1286  153.2690 H   0  0  0  0  0  0  0  0  0  0  0  0
  147.1478  143.9787  153.5501 H   0  0  0  0  0  0  0  0  0  0  0  0
  146.1105  143.5608  154.9114 H   0  0  0  0  0  0  0  0  0  0  0  0
  146.2709  140.8724  155.7858 H   0  0  0  0  0  0  0  0  0  0  0  0
  145.3327  140.8026  154.3080 H   0  0  0  0  0  0  0  0  0  0  0  0
  146.9459  138.5753  156.4368 H   0  0  0  0  0  0  0  0  0  0  0  0
  147.9327  136.3773  155.0297 H   0  0  0  0  0  0  0  0  0  0  0  0
  147.0956  139.5104  152.3045 H   0  0  0  0  0  0  0  0  0  0  0  0
  151.4671  139.7216  155.8204 H   0  0  0  0  0  0  0  0  0  0  0  0
  152.4554  141.1333  156.0553 H   0  0  0  0  0  0  0  0  0  0  0  0
  152.1767  139.7804  158.1637 H   0  0  0  0  0  0  0  0  0  0  0  0
  150.4579  140.0233  158.1130 H   0  0  0  0  0  0  0  0  0  0  0  0
  147.9483  137.1238  152.6096 H   0  0  0  0  0  0  0  0  0  0  0  0
  1  2  1  0  0  0  0
  1 21  1  0  0  0  0
  1 22  1  0  0  0  0
  1 23  1  0  0  0  0
  2  3  2  0  0  0  0
  2  4  1  0  0  0  0
  4 20  1  0  0  0  0
  4  5  1  0  0  0  0
  5  6  1  0  0  0  0
  5 24  1  0  0  0  0
  5 25  1  0  0  0  0
  6  7  1  0  0  0  0
  6 26  1  0  0  0  0
  6 27  1  0  0  0  0
  7  8  1  0  0  0  0
  7 19  1  0  0  0  0
  8  9  2  0  0  0  0
  8 10  1  0  0  0  0
 10 11  1  0  0  0  0
 10 28  1  0  0  0  0
 11 12  1  0  0  0  0
 11 13  1  0  0  0  0
 11 29  1  0  0  0  0
 12 30  1  0  0  0  0
 12 31  1  0  0  0  0
 12 32  1  0  0  0  0
 13 14  1  0  0  0  0
 13 33  1  0  0  0  0
 13 34  1  0  0  0  0
 14 18  1  0  0  0  0
 14 15  1  0  0  0  0
 15 16  2  0  0  0  0
 15 35  1  0  0  0  0
 16 17  1  0  0  0  0
 16 36  1  0  0  0  0
 17 18  2  0  0  0  0
 17 42  1  0  0  0  0
 18 37  1  0  0  0  0
 19 20  1  0  0  0  0
 19 38  1  0  0  0  0
 19 39  1  0  0  0  0
 20 40  1  0  0  0  0
 20 41  1  0  0  0  0
M  CHG  1  17   1
M  END
> <s_m_source_file>
AV-unprocessed.smi

> <i_m_source_file_index>
3340

> <i_lp_mmshare_version>
43012

> <i_f3d_flags>
0

> <s_epik_input>
W0NIM11DKD1PKU4xW0NIMl1bQ0gyXU4oW0NIMl1bQ0gyXTEpQyg9TylbTkhdW0NASF0oW0NIM10pW0NIMl1uMltjSF1bY0hdbltjSF0y

> <s_epik_cmdline>
J2VwaWtfcHl0aG9uJywgJy1waCcsICc3LjAnLCAnLXRuJywgJzgnLCAnLW1hJywgJzIwMCcsICctbWV0YWxfYmluZGluZycsICctaW1hZScsICc8aW5maWxlLm1hZT4nLCAnLW9tYWUnLCAnPG91dGZpbGUubWFlPic=

> <r_lp_tautomer_probability>
1

> <r_epik_Ionization_Penalty>
0.254791

> <r_epik_Ionization_Penalty_Charging>
0

> <r_epik_Ionization_Penalty_Neutral>
0.254791

> <r_epik_State_Penalty>
0.246235

> <r_epik_Charging_Adjusted_Penalty>
0.246235

> <i_epik_Tot_Q>
1

> <i_epik_Tot_abs_Q>
1

> <r_epik_Metal_State_Penalty>
0.536161

> <b_epik_Metal_Only>
0

> <s_lp_Force_Field>
OPLS_2005

> <r_lp_Energy>
50.8971

> <b_lp_Chiralities_Consistent>
1

> <s_lp_Variant>
AV-unprocessed.smi:3340-1

> <Gold.Version>
5.8.1

> <Gold.Id.Protein>
6NUR|6NUR_protein|mol2

> <Gold.PLP.Fitness>
43.4379

> <Gold.PLP.PLP>
-34.1215

> <Gold.PLP.part.hbond>
-1.8429

> <Gold.PLP.part.metal>
0.0000

> <Gold.PLP.part.buried>
-2.0586

> <Gold.PLP.part.nonpolar>
-30.6372

> <Gold.PLP.part.repulsive>
0.3011

> <Gold.PLP.ligand.clash>
0.0000

> <Gold.PLP.ligand.torsion>
0.2345

> <Gold.PLP.Chemscore.Hbond>
2.9825

> <Gold.PLP.Chemscore.CHOScore>
0.2523

> <Gold.PLP.Chemscore.Metal>
0.0000

> <Gold.Chemscore.Hbonds>
donor molecule, donor type, donor heavy atom, donor atom, acceptor molecule, acceptor atom, score
      L1  H    10    28       P1  8028  1.00
      L1  H    17    42       P1  7948  2.00
      L1  C    18    37       P1  7957  0.24

> <Gold.PLP.Chemscore.Internal.Correction>
0.0810

> <Gold.Rescore>
     Score         DG    S(hbond)    S(metal)    S(lipo)     H(rot)  DE(clash)    DE(int)     intcor
      9.96     -14.70       1.98        0.00      59.40       1.70       1.38       3.36       ----

> <Gold.Chemscore.Fitness>
9.9603

> <Gold.Chemscore.DG>
-14.7040

> <Gold.Chemscore.ZeroCoef>
-5.4800

> <Gold.Chemscore.Hbond>
1.9820

> <Gold.Chemscore.Metal>
0.0000

> <Gold.Chemscore.Lipo>
59.3975

> <Gold.Chemscore.Internal_Hbond>
0.0000

> <Gold.Chemscore.DEClash>
1.3804

> <Gold.Chemscore.DEInternal>
3.3634

> <Gold.Chemscore.Rot>
1.6975

> <Gold.Chemscore.Internal.Correction>
   9.000000E+99

> <Gold.Chemscore.Hbonds>
donor molecule, donor type, donor heavy atom, donor atom, acceptor molecule, acceptor atom, score
      L1  H    10    28       P1  8028  1.00
      L1  H    17    42       P1  7948  0.92

> <Gold.Chemscore.Hbond.Weighted>
-6.6200

> <Gold.Chemscore.Metal.Weighted>
-0.0000

> <Gold.Chemscore.Lipo.Weighted>
-6.9495

> <Gold.Chemscore.Internal_Hbond.Weighted>
0.0000

> <Gold.Chemscore.DEClash.Weighted>
1.3804

> <Gold.Chemscore.DEInternal.Weighted>
3.3634

> <Gold.Chemscore.Rot.Weighted>
4.3455

> <Gold.Chemscore.Internal.Correction.Weighted>
   9.000000E+99

> <Gold.Protein.RotatedTorsions>
[ 6907 6896 6895 6894 ] final -121.46 input  -60.11 | X-H torsion
[ 7974 7965 7964 7962 ] final  -63.44 input  175.53 | X-H torsion
[ 8008 7997 7996 7995 ] final -113.06 input   59.86 | X-H torsion
[ 10167 10162 10161 10158 ] final -110.98 input  -65.29 | X-H torsion
[ 10718 10713 10712 10709 ] final -102.36 input   66.30 | X-H torsion
[ 10763 10752 10751 10750 ] final    1.96 input  -60.55 | X-H torsion
[ 11005 11000 10999 10996 ] final  155.69 input  -57.11 | X-H torsion

> <Gold.Protein.ActiveResidues>
 VAL166  LYS551  ARG553  GLY616  TRP617  ASP618  TYR619  PRO620  LYS621  CYS622 
 ASP623  PHE694  ASN695  SER759  ASP760  ASP761  ALA762  ILE779  LEU786  VAL792 
 PHE793  MET794  SER795  GLU796  ALA797  LYS798  CYS799  TRP800  GLU811  SER814 

> <Gold.Protein.RotatedAtoms>
  150.8486  133.7822  159.3033 H   0  0  0  0  0  0  0  0  0  0  0  0  # atno 6907 bound_to 6896
  151.5502  135.1066  159.9957 H   0  0  0  0  0  0  0  0  0  0  0  0  # atno 6908 bound_to 6896
  152.4534  133.7631  159.6814 H   0  0  0  0  0  0  0  0  0  0  0  0  # atno 6909 bound_to 6896
  145.7790  140.8772  143.0340 H   0  0  0  0  0  0  0  0  0  0  0  0  # atno 7974 bound_to 7965
  155.0149  140.0393  157.2414 H   0  0  0  0  0  0  0  0  0  0  0  0  # atno 8008 bound_to 7997
  154.7428  140.2752  155.6335 H   0  0  0  0  0  0  0  0  0  0  0  0  # atno 8009 bound_to 7997
  156.2868  140.2662  156.2160 H   0  0  0  0  0  0  0  0  0  0  0  0  # atno 8010 bound_to 7997
  140.1386  143.4299  152.1578 H   0  0  0  0  0  0  0  0  0  0  0  0  # atno 10167 bound_to 10162
  156.0226  130.5416  150.7096 H   0  0  0  0  0  0  0  0  0  0  0  0  # atno 10718 bound_to 10713
  153.3015  135.6956  153.7199 H   0  0  0  0  0  0  0  0  0  0  0  0  # atno 10763 bound_to 10752
  153.6111  135.3444  155.2980 H   0  0  0  0  0  0  0  0  0  0  0  0  # atno 10764 bound_to 10752
  154.8552  135.4363  154.2127 H   0  0  0  0  0  0  0  0  0  0  0  0  # atno 10765 bound_to 10752
  140.1605  134.8613  157.2568 H   0  0  0  0  0  0  0  0  0  0  0  0  # atno 11005 bound_to 11000
  144.6799  139.9963  143.7484 LP  0  0  0  0  0  0  0  0  0  0  0  0  # atno 17320 bound_to 7965
  146.0093  139.3156  143.0880 LP  0  0  0  0  0  0  0  0  0  0  0  0  # atno 17321 bound_to 7965
  139.5483  144.7317  151.4513 LP  0  0  0  0  0  0  0  0  0  0  0  0  # atno 17342 bound_to 10162
  140.6774  143.8159  150.7076 LP  0  0  0  0  0  0  0  0  0  0  0  0  # atno 17343 bound_to 10162
  157.4738  131.0896  151.0613 LP  0  0  0  0  0  0  0  0  0  0  0  0  # atno 17370 bound_to 10713
  157.1066  130.6004  149.5472 LP  0  0  0  0  0  0  0  0  0  0  0  0  # atno 17371 bound_to 10713
  140.2495  134.3699  155.7448 LP  0  0  0  0  0  0  0  0  0  0  0  0  # atno 17394 bound_to 11000
  141.2209  133.7309  156.8914 LP  0  0  0  0  0  0  0  0  0  0  0  0  # atno 17395 bound_to 11000

$$$$
