AV-unprocessed.smi:2634|AV-procd|sdf|10254|dock8
  -GOLD-   2272014263D 1   1.00000     0.00000
 Structure written by MMmdl.
 27 28  0  0  0  0  0  0  0  0  2 V2000
  150.8935  142.8925  156.8277 N   0  0  0  0  0  0  0  0  0  0  0  0
  151.4854  142.7764  158.0868 C   0  0  0  0  0  0  0  0  0  0  0  0
  152.2754  141.7624  158.5142 N   0  3  0  0  0  0  0  0  0  0  0  0
  152.6251  140.6691  157.7549 N   0  0  0  0  0  0  0  0  0  0  0  0
  152.6902  141.9652  159.8280 C   0  0  0  0  0  0  0  0  0  0  0  0
  153.4930  141.2168  160.6845 C   0  0  0  0  0  0  0  0  0  0  0  0
  153.6995  141.7449  161.9754 C   0  0  0  0  0  0  0  0  0  0  0  0
  153.1196  142.9677  162.3723 C   0  0  0  0  0  0  0  0  0  0  0  0
  152.3069  143.7190  161.4973 C   0  0  0  0  0  0  0  0  0  0  0  0
  152.1043  143.1967  160.2201 C   0  0  0  0  0  0  0  0  0  0  0  0
  151.3681  143.6642  159.1116 N   0  0  0  0  0  0  0  0  0  0  0  0
  150.6334  144.9313  159.2098 C   0  0  0  0  0  0  0  0  0  0  0  0
  149.5528  144.8816  160.2986 C   0  0  0  0  0  0  0  0  0  0  0  0
  148.5947  145.8886  160.0602 O   0  0  0  0  0  0  0  0  0  0  0  0
  151.0296  142.1920  156.1129 H   0  0  0  0  0  0  0  0  0  0  0  0
  152.0117  140.6518  156.9525 H   0  0  0  0  0  0  0  0  0  0  0  0
  152.4304  139.8450  158.3059 H   0  0  0  0  0  0  0  0  0  0  0  0
  153.9378  140.2797  160.3830 H   0  0  0  0  0  0  0  0  0  0  0  0
  154.3156  141.2005  162.6764 H   0  0  0  0  0  0  0  0  0  0  0  0
  153.3017  143.3378  163.3709 H   0  0  0  0  0  0  0  0  0  0  0  0
  151.8683  144.6533  161.8159 H   0  0  0  0  0  0  0  0  0  0  0  0
  151.3461  145.7363  159.3940 H   0  0  0  0  0  0  0  0  0  0  0  0
  150.1828  145.1311  158.2370 H   0  0  0  0  0  0  0  0  0  0  0  0
  149.0553  143.9112  160.3036 H   0  0  0  0  0  0  0  0  0  0  0  0
  149.9871  145.0325  161.2874 H   0  0  0  0  0  0  0  0  0  0  0  0
  148.3927  145.9019  159.1368 H   0  0  0  0  0  0  0  0  0  0  0  0
  150.3193  143.6873  156.5846 H   0  0  0  0  0  0  0  0  0  0  0  0
  1  2  1  0  0  0  0
  1 15  1  0  0  0  0
  1 27  1  0  0  0  0
  2 11  1  0  0  0  0
  2  3  2  0  0  0  0
  3  4  1  0  0  0  0
  3  5  1  0  0  0  0
  4 16  1  0  0  0  0
  4 17  1  0  0  0  0
  5 10  2  0  0  0  0
  5  6  1  0  0  0  0
  6  7  2  0  0  0  0
  6 18  1  0  0  0  0
  7  8  1  0  0  0  0
  7 19  1  0  0  0  0
  8  9  2  0  0  0  0
  8 20  1  0  0  0  0
  9 10  1  0  0  0  0
  9 21  1  0  0  0  0
 10 11  1  0  0  0  0
 11 12  1  0  0  0  0
 12 13  1  0  0  0  0
 12 22  1  0  0  0  0
 12 23  1  0  0  0  0
 13 14  1  0  0  0  0
 13 24  1  0  0  0  0
 13 25  1  0  0  0  0
 14 26  1  0  0  0  0
M  CHG  1   3   1
M  END
> <s_m_source_file>
AV-unprocessed.smi

> <i_m_source_file_index>
2634

> <i_lp_mmshare_version>
43012

> <i_f3d_flags>
0

> <s_epik_input>
W05IMl1uMS9jKD1OXFtIXSluKFtDSDJdW0NIMl1bT0hdKWMoYzEyKVtjSF1bY0hdW2NIXVtjSF0y

> <s_epik_cmdline>
J2VwaWtfcHl0aG9uJywgJy1waCcsICc3LjAnLCAnLXRuJywgJzgnLCAnLW1hJywgJzIwMCcsICctbWV0YWxfYmluZGluZycsICctaW1hZScsICc8aW5maWxlLm1hZT4nLCAnLW9tYWUnLCAnPG91dGZpbGUubWFlPic=

> <r_lp_tautomer_probability>
1

> <r_epik_Ionization_Penalty>
1.24644e-06

> <r_epik_Ionization_Penalty_Charging>
0

> <r_epik_Ionization_Penalty_Neutral>
1.24644e-06

> <r_epik_State_Penalty>
-0

> <r_epik_Charging_Adjusted_Penalty>
0

> <i_epik_Tot_Q>
1

> <i_epik_Tot_abs_Q>
1

> <r_epik_Metal_State_Penalty>
-0

> <b_epik_Metal_Only>
0

> <s_lp_Force_Field>
OPLS_2005

> <r_lp_Energy>
25.9386

> <b_lp_Chiralities_Consistent>
1

> <s_lp_Variant>
AV-unprocessed.smi:2634-1

> <Gold.Version>
5.8.1

> <Gold.Id.Protein>
6NUR|6NUR_protein|mol2

> <Gold.PLP.Fitness>
48.8018

> <Gold.PLP.PLP>
-38.2402

> <Gold.PLP.part.hbond>
-4.0000

> <Gold.PLP.part.metal>
0.0000

> <Gold.PLP.part.buried>
-2.7187

> <Gold.PLP.part.nonpolar>
-29.9116

> <Gold.PLP.part.repulsive>
0.0403

> <Gold.PLP.ligand.clash>
0.0000

> <Gold.PLP.ligand.torsion>
0.0991

> <Gold.PLP.Chemscore.Hbond>
3.5866

> <Gold.PLP.Chemscore.CHOScore>
0.0000

> <Gold.PLP.Chemscore.Metal>
0.0000

> <Gold.Chemscore.Hbonds>
donor molecule, donor type, donor heavy atom, donor atom, acceptor molecule, acceptor atom, score
      L1  H     1    27       P1  8028  2.00
      L1  H    14    26       P1  8029  1.00
      P1  H  7997  8010       L1     4  0.59

> <Gold.PLP.Chemscore.Internal.Correction>
0.0001

> <Gold.Rescore>
     Score         DG    S(hbond)    S(metal)    S(lipo)     H(rot)  DE(clash)    DE(int)     intcor
     16.23     -16.72       2.04        0.00      80.69       1.96       0.36       0.14       ----

> <Gold.Chemscore.Fitness>
16.2268

> <Gold.Chemscore.DG>
-16.7212

> <Gold.Chemscore.ZeroCoef>
-5.4800

> <Gold.Chemscore.Hbond>
2.0445

> <Gold.Chemscore.Metal>
0.0000

> <Gold.Chemscore.Lipo>
80.6928

> <Gold.Chemscore.Internal_Hbond>
0.0000

> <Gold.Chemscore.DEClash>
0.3588

> <Gold.Chemscore.DEInternal>
0.1356

> <Gold.Chemscore.Rot>
1.9643

> <Gold.Chemscore.Internal.Correction>
   9.000000E+99

> <Gold.Chemscore.Hbonds>
donor molecule, donor type, donor heavy atom, donor atom, acceptor molecule, acceptor atom, score
      L1  H     1    27       P1  8028  0.97
      L1  H    14    26       P1  8029  1.00
      P1  H  7997  8010       L1     4  0.04

> <Gold.Chemscore.Hbond.Weighted>
-6.8286

> <Gold.Chemscore.Metal.Weighted>
-0.0000

> <Gold.Chemscore.Lipo.Weighted>
-9.4411

> <Gold.Chemscore.Internal_Hbond.Weighted>
0.0000

> <Gold.Chemscore.DEClash.Weighted>
0.3588

> <Gold.Chemscore.DEInternal.Weighted>
0.1356

> <Gold.Chemscore.Rot.Weighted>
5.0285

> <Gold.Chemscore.Internal.Correction.Weighted>
   9.000000E+99

> <Gold.Protein.RotatedTorsions>
[ 6907 6896 6895 6894 ] final  116.34 input  -60.11 | X-H torsion
[ 7974 7965 7964 7962 ] final  -86.47 input  175.53 | X-H torsion
[ 8008 7997 7996 7995 ] final   47.86 input   59.86 | X-H torsion
[ 10167 10162 10161 10158 ] final  -38.07 input  -65.29 | X-H torsion
[ 10718 10713 10712 10709 ] final   54.14 input   66.30 | X-H torsion
[ 10763 10752 10751 10750 ] final   -3.19 input  -60.55 | X-H torsion
[ 11005 11000 10999 10996 ] final  127.63 input  -57.11 | X-H torsion

> <Gold.Protein.ActiveResidues>
 VAL166  LYS551  ARG553  GLY616  TRP617  ASP618  TYR619  PRO620  LYS621  CYS622 
 ASP623  PHE694  ASN695  SER759  ASP760  ASP761  ALA762  ILE779  LEU786  VAL792 
 PHE793  MET794  SER795  GLU796  ALA797  LYS798  CYS799  TRP800  GLU811  SER814 

> <Gold.Protein.RotatedAtoms>
  152.4684  133.7975  159.6934 H   0  0  0  0  0  0  0  0  0  0  0  0  # atno 6907 bound_to 6896
  150.8660  133.7564  159.2983 H   0  0  0  0  0  0  0  0  0  0  0  0  # atno 6908 bound_to 6896
  151.5114  135.1068  159.9907 H   0  0  0  0  0  0  0  0  0  0  0  0  # atno 6909 bound_to 6896
  145.4794  140.9557  143.1873 H   0  0  0  0  0  0  0  0  0  0  0  0  # atno 7974 bound_to 7965
  155.3761  140.3426  155.4245 H   0  0  0  0  0  0  0  0  0  0  0  0  # atno 8008 bound_to 7997
  156.1636  140.1609  156.8603 H   0  0  0  0  0  0  0  0  0  0  0  0  # atno 8009 bound_to 7997
  154.5163  140.0777  156.8070 H   0  0  0  0  0  0  0  0  0  0  0  0  # atno 8010 bound_to 7997
  140.7102  143.3301  151.2589 H   0  0  0  0  0  0  0  0  0  0  0  0  # atno 10167 bound_to 10162
  157.5230  130.8578  149.8584 H   0  0  0  0  0  0  0  0  0  0  0  0  # atno 10718 bound_to 10713
  153.3681  135.6993  153.6659 H   0  0  0  0  0  0  0  0  0  0  0  0  # atno 10763 bound_to 10752
  153.5320  135.3590  155.2681 H   0  0  0  0  0  0  0  0  0  0  0  0  # atno 10764 bound_to 10752
  154.8677  135.4183  154.2953 H   0  0  0  0  0  0  0  0  0  0  0  0  # atno 10765 bound_to 10752
  139.9518  134.9620  156.8883 H   0  0  0  0  0  0  0  0  0  0  0  0  # atno 11005 bound_to 11000
  144.7898  139.6352  143.7118 LP  0  0  0  0  0  0  0  0  0  0  0  0  # atno 17320 bound_to 7965
  146.2350  139.5887  142.9530 LP  0  0  0  0  0  0  0  0  0  0  0  0  # atno 17321 bound_to 7965
  139.6780  143.9903  152.2792 LP  0  0  0  0  0  0  0  0  0  0  0  0  # atno 17342 bound_to 10162
  139.9524  144.6612  150.8159 LP  0  0  0  0  0  0  0  0  0  0  0  0  # atno 17343 bound_to 10162
  156.0367  130.3749  150.1542 LP  0  0  0  0  0  0  0  0  0  0  0  0  # atno 17370 bound_to 10713
  156.9729  130.9840  151.3455 LP  0  0  0  0  0  0  0  0  0  0  0  0  # atno 17371 bound_to 10713
  140.5702  134.0451  155.7428 LP  0  0  0  0  0  0  0  0  0  0  0  0  # atno 17394 bound_to 11000
  141.1182  133.9505  157.2781 LP  0  0  0  0  0  0  0  0  0  0  0  0  # atno 17395 bound_to 11000

$$$$
