AV-unprocessed.smi:626|AV-procd|sdf|3111|dock5
  -GOLD-   22720 0 33D 1   1.00000     0.00000
 Structure written by MMmdl.
 34 36  0  0  0  0  0  0  0  0  1 V2000
  148.7562  137.2022  155.0798 C   0  0  0  0  0  0  0  0  0  0  0  0
  149.8883  138.1107  154.9831 N   0  0  0  0  0  0  0  0  0  0  0  0
  151.1385  137.7293  154.6825 C   0  0  0  0  0  0  0  0  0  0  0  0
  151.4533  136.5596  154.4622 O   0  0  0  0  0  0  0  0  0  0  0  0
  152.1968  138.8333  154.6220 C   0  0  0  0  0  0  0  0  0  0  0  0
  152.0982  139.7286  155.8154 C   0  0  0  0  0  0  0  0  0  0  0  0
  152.9397  139.6155  156.8362 N   0  0  0  0  0  0  0  0  0  0  0  0
  152.5254  140.6302  157.7105 O   0  0  0  0  0  0  0  0  0  0  0  0
  151.4534  141.2167  157.1240 C   0  0  0  0  0  0  0  0  0  0  0  0
  150.8520  142.4205  157.7891 C   0  0  2  0  0  0  0  0  0  0  0  0
  150.9267  143.7326  156.9754 C   0  0  0  0  0  0  0  0  0  0  0  0
  151.5356  144.7209  157.9891 C   0  0  2  0  0  0  0  0  0  0  0  0
  153.0277  144.3917  158.1884 C   0  0  0  0  0  0  0  0  0  0  0  0
  152.9837  143.1000  159.0269 C   0  0  0  0  0  0  0  0  0  0  0  0
  151.4706  142.8264  159.1479 C   0  0  1  0  0  0  0  0  0  0  0  0
  150.9311  144.2451  159.3057 C   0  0  0  0  0  0  0  0  0  0  0  0
  151.1723  140.7211  155.9191 N   0  0  0  0  0  0  0  0  0  0  0  0
  147.8751  137.7420  155.4273 H   0  0  0  0  0  0  0  0  0  0  0  0
  148.9603  136.3947  155.7843 H   0  0  0  0  0  0  0  0  0  0  0  0
  148.5276  136.7662  154.1065 H   0  0  0  0  0  0  0  0  0  0  0  0
  149.7101  139.0908  155.1493 H   0  0  0  0  0  0  0  0  0  0  0  0
  153.1990  138.4050  154.5662 H   0  0  0  0  0  0  0  0  0  0  0  0
  152.0528  139.4182  153.7127 H   0  0  0  0  0  0  0  0  0  0  0  0
  149.7976  142.1926  157.9559 H   0  0  0  0  0  0  0  0  0  0  0  0
  151.5367  143.6584  156.0745 H   0  0  0  0  0  0  0  0  0  0  0  0
  149.9291  144.0488  156.6681 H   0  0  0  0  0  0  0  0  0  0  0  0
  151.3480  145.7671  157.7456 H   0  0  0  0  0  0  0  0  0  0  0  0
  153.5497  144.2535  157.2408 H   0  0  0  0  0  0  0  0  0  0  0  0
  153.5339  145.1872  158.7366 H   0  0  0  0  0  0  0  0  0  0  0  0
  153.5404  142.2803  158.5748 H   0  0  0  0  0  0  0  0  0  0  0  0
  153.4165  143.2765  160.0126 H   0  0  0  0  0  0  0  0  0  0  0  0
  151.2189  142.1454  159.9615 H   0  0  0  0  0  0  0  0  0  0  0  0
  151.3282  144.7668  160.1784 H   0  0  0  0  0  0  0  0  0  0  0  0
  149.8410  144.2966  159.3247 H   0  0  0  0  0  0  0  0  0  0  0  0
  1  2  1  0  0  0  0
  1 18  1  0  0  0  0
  1 19  1  0  0  0  0
  1 20  1  0  0  0  0
  2  3  1  0  0  0  0
  2 21  1  0  0  0  0
  3  4  2  0  0  0  0
  3  5  1  0  0  0  0
  5  6  1  0  0  0  0
  5 22  1  0  0  0  0
  5 23  1  0  0  0  0
  6 17  1  0  0  0  0
  6  7  2  0  0  0  0
  7  8  1  0  0  0  0
  8  9  1  0  0  0  0
  9 10  1  0  0  0  0
  9 17  2  0  0  0  0
 10 15  1  0  0  0  0
 10 11  1  0  0  0  0
 10 24  1  0  0  0  0
 11 12  1  0  0  0  0
 11 25  1  0  0  0  0
 11 26  1  0  0  0  0
 12 16  1  0  0  0  0
 12 13  1  0  0  0  0
 12 27  1  0  0  0  0
 13 14  1  0  0  0  0
 13 28  1  0  0  0  0
 13 29  1  0  0  0  0
 14 15  1  0  0  0  0
 14 30  1  0  0  0  0
 14 31  1  0  0  0  0
 15 16  1  0  0  0  0
 15 32  1  0  0  0  0
 16 33  1  0  0  0  0
 16 34  1  0  0  0  0
M  END
> <s_m_source_file>
AV-unprocessed.smi

> <i_m_source_file_index>
626

> <i_lp_mmshare_version>
43012

> <i_f3d_flags>
0

> <s_epik_input>
W0NIM11bTkhdQyg9TylbQ0gyXWMxbm9jKG4xKVtDQEhdKFtDSDJdW0NAQEhdMjMpW0NAQEhdKFtDSDJdMylbQ0gyXVtDSDJdMg==

> <s_epik_cmdline>
J2VwaWtfcHl0aG9uJywgJy1waCcsICc3LjAnLCAnLXRuJywgJzgnLCAnLW1hJywgJzIwMCcsICctbWV0YWxfYmluZGluZycsICctaW1hZScsICc8aW5maWxlLm1hZT4nLCAnLW9tYWUnLCAnPG91dGZpbGUubWFlPic=

> <r_lp_tautomer_probability>
1

> <r_epik_Ionization_Penalty>
1.02916e-07

> <r_epik_Ionization_Penalty_Charging>
0

> <r_epik_Ionization_Penalty_Neutral>
1.02916e-07

> <r_epik_State_Penalty>
-0

> <r_epik_Charging_Adjusted_Penalty>
0

> <i_epik_Tot_Q>
0

> <i_epik_Tot_abs_Q>
0

> <r_epik_Metal_State_Penalty>
-0

> <b_epik_Metal_Only>
0

> <s_lp_Force_Field>
OPLS_2005

> <r_lp_Energy>
49.4755

> <b_lp_Chiralities_Consistent>
1

> <s_lp_Variant>
AV-unprocessed.smi:626-3

> <Gold.Version>
5.8.1

> <Gold.Id.Protein>
6NUR|6NUR_protein|mol2

> <Gold.PLP.Fitness>
39.1497

> <Gold.PLP.PLP>
-33.9691

> <Gold.PLP.part.hbond>
-2.7866

> <Gold.PLP.part.metal>
0.0000

> <Gold.PLP.part.buried>
-0.9559

> <Gold.PLP.part.nonpolar>
-29.8726

> <Gold.PLP.part.repulsive>
0.2051

> <Gold.PLP.ligand.clash>
0.0000

> <Gold.PLP.ligand.torsion>
0.4517

> <Gold.PLP.Chemscore.Hbond>
2.0000

> <Gold.PLP.Chemscore.CHOScore>
0.0000

> <Gold.PLP.Chemscore.Metal>
0.0000

> <Gold.Chemscore.Hbonds>
donor molecule, donor type, donor heavy atom, donor atom, acceptor molecule, acceptor atom, score
      P1  H  7997  8010       L1     7  0.85
      P1  H 10752 10763       L1     4  1.00

> <Gold.PLP.Chemscore.Internal.Correction>
0.0841

> <Gold.Rescore>
     Score         DG    S(hbond)    S(metal)    S(lipo)     H(rot)  DE(clash)    DE(int)     intcor
     13.35     -16.49       1.27        0.00      92.97       1.61       1.46       1.68       ----

> <Gold.Chemscore.Fitness>
13.3513

> <Gold.Chemscore.DG>
-16.4880

> <Gold.Chemscore.ZeroCoef>
-5.4800

> <Gold.Chemscore.Hbond>
1.2745

> <Gold.Chemscore.Metal>
0.0000

> <Gold.Chemscore.Lipo>
92.9724

> <Gold.Chemscore.Internal_Hbond>
0.0000

> <Gold.Chemscore.DEClash>
1.4572

> <Gold.Chemscore.DEInternal>
1.6795

> <Gold.Chemscore.Rot>
1.6119

> <Gold.Chemscore.Internal.Correction>
   9.000000E+99

> <Gold.Chemscore.Hbonds>
donor molecule, donor type, donor heavy atom, donor atom, acceptor molecule, acceptor atom, score
      P1  H  7997  8010       L1     7  0.14
      P1  H 10752 10763       L1     4  1.00

> <Gold.Chemscore.Hbond.Weighted>
-4.2568

> <Gold.Chemscore.Metal.Weighted>
-0.0000

> <Gold.Chemscore.Lipo.Weighted>
-10.8778

> <Gold.Chemscore.Internal_Hbond.Weighted>
0.0000

> <Gold.Chemscore.DEClash.Weighted>
1.4572

> <Gold.Chemscore.DEInternal.Weighted>
1.6795

> <Gold.Chemscore.Rot.Weighted>
4.1266

> <Gold.Chemscore.Internal.Correction.Weighted>
   9.000000E+99

> <Gold.Protein.RotatedTorsions>
[ 6907 6896 6895 6894 ] final   22.69 input  -60.11 | X-H torsion
[ 7974 7965 7964 7962 ] final   34.43 input  175.53 | X-H torsion
[ 8008 7997 7996 7995 ] final   53.97 input   59.86 | X-H torsion
[ 10167 10162 10161 10158 ] final  -36.68 input  -65.29 | X-H torsion
[ 10718 10713 10712 10709 ] final    4.24 input   66.30 | X-H torsion
[ 10763 10752 10751 10750 ] final   37.99 input  -60.55 | X-H torsion
[ 11005 11000 10999 10996 ] final -162.91 input  -57.11 | X-H torsion

> <Gold.Protein.ActiveResidues>
 VAL166  LYS551  ARG553  GLY616  TRP617  ASP618  TYR619  PRO620  LYS621  CYS622 
 ASP623  PHE694  ASN695  SER759  ASP760  ASP761  ALA762  ILE779  LEU786  VAL792 
 PHE793  MET794  SER795  GLU796  ALA797  LYS798  CYS799  TRP800  GLU811  SER814 

> <Gold.Protein.RotatedAtoms>
  151.9309  135.0256  160.0528 H   0  0  0  0  0  0  0  0  0  0  0  0  # atno 6907 bound_to 6896
  152.2119  133.4913  159.5123 H   0  0  0  0  0  0  0  0  0  0  0  0  # atno 6908 bound_to 6896
  150.6978  134.1373  159.4134 H   0  0  0  0  0  0  0  0  0  0  0  0  # atno 6909 bound_to 6896
  146.1353  139.6270  142.9199 H   0  0  0  0  0  0  0  0  0  0  0  0  # atno 7974 bound_to 7965
  155.4770  140.3467  155.4334 H   0  0  0  0  0  0  0  0  0  0  0  0  # atno 8008 bound_to 7997
  156.1063  140.1449  156.9428 H   0  0  0  0  0  0  0  0  0  0  0  0  # atno 8009 bound_to 7997
  154.4727  140.0895  156.7163 H   0  0  0  0  0  0  0  0  0  0  0  0  # atno 8010 bound_to 7997
  140.7137  143.3393  151.2394 H   0  0  0  0  0  0  0  0  0  0  0  0  # atno 10167 bound_to 10162
  156.8896  130.5683  149.5650 H   0  0  0  0  0  0  0  0  0  0  0  0  # atno 10718 bound_to 10713
  153.0017  135.6262  154.2233 H   0  0  0  0  0  0  0  0  0  0  0  0  # atno 10763 bound_to 10752
  154.1976  135.2805  155.3003 H   0  0  0  0  0  0  0  0  0  0  0  0  # atno 10764 bound_to 10752
  154.5709  135.5676  153.7154 H   0  0  0  0  0  0  0  0  0  0  0  0  # atno 10765 bound_to 10752
  140.6040  134.4918  157.5208 H   0  0  0  0  0  0  0  0  0  0  0  0  # atno 11005 bound_to 11000
  145.5169  141.0433  143.2457 LP  0  0  0  0  0  0  0  0  0  0  0  0  # atno 17320 bound_to 7965
  144.7733  139.6685  143.7185 LP  0  0  0  0  0  0  0  0  0  0  0  0  # atno 17321 bound_to 7965
  139.6896  143.9715  152.2852 LP  0  0  0  0  0  0  0  0  0  0  0  0  # atno 17342 bound_to 10162
  139.9372  144.6704  150.8303 LP  0  0  0  0  0  0  0  0  0  0  0  0  # atno 17343 bound_to 10162
  156.0636  130.5683  150.9242 LP  0  0  0  0  0  0  0  0  0  0  0  0  # atno 17370 bound_to 10713
  157.6091  131.0937  150.8826 LP  0  0  0  0  0  0  0  0  0  0  0  0  # atno 17371 bound_to 10713
  139.9220  134.8130  156.1182 LP  0  0  0  0  0  0  0  0  0  0  0  0  # atno 17394 bound_to 11000
  141.0853  133.6737  156.2423 LP  0  0  0  0  0  0  0  0  0  0  0  0  # atno 17395 bound_to 11000

$$$$
