AV-unprocessed.smi:3000|AV-procd|sdf|11430|dock7
  -GOLD-   2272016353D 1   1.00000     0.00000
 Structure written by MMmdl.
 44 45  0  0  0  0  0  0  0  0  1 V2000
  149.7182  141.1498  156.8713 C   0  0  0  0  0  0  0  0  0  0  0  0
  149.5402  140.1800  155.8120 N   0  0  0  0  0  0  0  0  0  0  0  0
  148.4856  139.3111  155.6148 C   0  0  0  0  0  0  0  0  0  0  0  0
  148.7917  138.6113  154.4818 C   0  0  0  0  0  0  0  0  0  0  0  0
  148.0568  137.5886  153.8300 N   0  0  0  0  0  0  0  0  0  0  0  0
  146.7715  137.2546  154.0301 C   0  0  0  0  0  0  0  0  0  0  0  0
  146.0163  137.8184  154.8207 O   0  0  0  0  0  0  0  0  0  0  0  0
  146.4183  136.2167  153.2529 N   0  0  0  0  0  0  0  0  0  0  0  0
  145.1139  135.5439  153.1459 C   0  0  2  0  0  0  0  0  0  0  0  0
  144.0997  136.7030  153.0069 C   0  0  0  0  0  0  0  0  0  0  0  0
  144.7970  134.8313  154.4958 C   0  0  0  0  0  0  0  0  0  0  0  0
  143.4329  134.5052  154.6722 O   0  0  0  0  0  0  0  0  0  0  0  0
  145.0428  134.5893  151.8973 C   0  0  0  0  0  0  0  0  0  0  0  0
  143.6962  133.8355  151.7430 C   0  0  0  0  0  0  0  0  0  0  0  0
  143.6474  133.0262  150.4366 C   0  0  0  0  0  0  0  0  0  0  0  0
  144.8203  132.0389  150.3469 C   0  0  0  0  0  0  0  0  0  0  0  0
  146.1647  132.7633  150.5076 C   0  0  0  0  0  0  0  0  0  0  0  0
  146.2085  133.5714  151.8146 C   0  0  0  0  0  0  0  0  0  0  0  0
  150.0472  139.1098  154.0465 C   0  0  0  0  0  0  0  0  0  0  0  0
  150.4929  140.0591  154.8555 N   0  0  0  0  0  0  0  0  0  0  0  0
  148.9473  141.0185  157.6315 H   0  0  0  0  0  0  0  0  0  0  0  0
  149.6460  142.1579  156.4622 H   0  0  0  0  0  0  0  0  0  0  0  0
  150.6972  141.0195  157.3341 H   0  0  0  0  0  0  0  0  0  0  0  0
  147.6389  139.2741  156.2844 H   0  0  0  0  0  0  0  0  0  0  0  0
  148.5655  137.0513  153.1434 H   0  0  0  0  0  0  0  0  0  0  0  0
  147.1391  135.8458  152.6516 H   0  0  0  0  0  0  0  0  0  0  0  0
  143.0712  136.3473  152.9549 H   0  0  0  0  0  0  0  0  0  0  0  0
  144.2841  137.3096  152.1204 H   0  0  0  0  0  0  0  0  0  0  0  0
  144.1530  137.3750  153.8648 H   0  0  0  0  0  0  0  0  0  0  0  0
  145.3987  133.9291  154.6143 H   0  0  0  0  0  0  0  0  0  0  0  0
  145.0626  135.4795  155.3316 H   0  0  0  0  0  0  0  0  0  0  0  0
  143.3456  133.5645  154.6751 H   0  0  0  0  0  0  0  0  0  0  0  0
  145.1307  135.2136  151.0083 H   0  0  0  0  0  0  0  0  0  0  0  0
  143.5426  133.1576  152.5824 H   0  0  0  0  0  0  0  0  0  0  0  0
  142.8567  134.5302  151.7503 H   0  0  0  0  0  0  0  0  0  0  0  0
  142.7027  132.4860  150.3700 H   0  0  0  0  0  0  0  0  0  0  0  0
  143.6741  133.7065  149.5844 H   0  0  0  0  0  0  0  0  0  0  0  0
  144.7193  131.2805  151.1242 H   0  0  0  0  0  0  0  0  0  0  0  0
  144.7918  131.5115  149.3930 H   0  0  0  0  0  0  0  0  0  0  0  0
  146.9792  132.0386  150.4918 H   0  0  0  0  0  0  0  0  0  0  0  0
  146.3274  133.4293  149.6592 H   0  0  0  0  0  0  0  0  0  0  0  0
  147.1707  134.0778  151.8816 H   0  0  0  0  0  0  0  0  0  0  0  0
  146.1666  132.8768  152.6532 H   0  0  0  0  0  0  0  0  0  0  0  0
  150.6375  138.8219  153.1890 H   0  0  0  0  0  0  0  0  0  0  0  0
  1  2  1  0  0  0  0
  1 21  1  0  0  0  0
  1 22  1  0  0  0  0
  1 23  1  0  0  0  0
  2 20  1  0  0  0  0
  2  3  1  0  0  0  0
  3  4  2  0  0  0  0
  3 24  1  0  0  0  0
  4  5  1  0  0  0  0
  4 19  1  0  0  0  0
  5  6  1  0  0  0  0
  5 25  1  0  0  0  0
  6  7  2  0  0  0  0
  6  8  1  0  0  0  0
  8  9  1  0  0  0  0
  8 26  1  0  0  0  0
  9 10  1  0  0  0  0
  9 11  1  0  0  0  0
  9 13  1  0  0  0  0
 10 27  1  0  0  0  0
 10 28  1  0  0  0  0
 10 29  1  0  0  0  0
 11 12  1  0  0  0  0
 11 30  1  0  0  0  0
 11 31  1  0  0  0  0
 12 32  1  0  0  0  0
 13 18  1  0  0  0  0
 13 14  1  0  0  0  0
 13 33  1  0  0  0  0
 14 15  1  0  0  0  0
 14 34  1  0  0  0  0
 14 35  1  0  0  0  0
 15 16  1  0  0  0  0
 15 36  1  0  0  0  0
 15 37  1  0  0  0  0
 16 17  1  0  0  0  0
 16 38  1  0  0  0  0
 16 39  1  0  0  0  0
 17 18  1  0  0  0  0
 17 40  1  0  0  0  0
 17 41  1  0  0  0  0
 18 42  1  0  0  0  0
 18 43  1  0  0  0  0
 19 20  2  0  0  0  0
 19 44  1  0  0  0  0
M  END
> <s_m_source_file>
AV-unprocessed.smi

> <i_m_source_file_index>
3000

> <i_lp_mmshare_version>
43012

> <i_f3d_flags>
0

> <s_epik_input>
W0NIM11uMVtjSF1jKFtjSF1uMSlbTkhdQyg9TylbTkhdW0NAQF0oW0NIM10pKFtDSDJdW09IXSlbQ0hdMltDSDJdW0NIMl1bQ0gyXVtDSDJdW0NIMl0y

> <s_epik_cmdline>
J2VwaWtfcHl0aG9uJywgJy1waCcsICc3LjAnLCAnLXRuJywgJzgnLCAnLW1hJywgJzIwMCcsICctbWV0YWxfYmluZGluZycsICctaW1hZScsICc8aW5maWxlLm1hZT4nLCAnLW9tYWUnLCAnPG91dGZpbGUubWFlPic=

> <r_lp_tautomer_probability>
1

> <r_epik_Ionization_Penalty>
0.000189471

> <r_epik_Ionization_Penalty_Charging>
0

> <r_epik_Ionization_Penalty_Neutral>
0.000189471

> <r_epik_State_Penalty>
-0

> <r_epik_Charging_Adjusted_Penalty>
0

> <i_epik_Tot_Q>
0

> <i_epik_Tot_abs_Q>
0

> <r_epik_Metal_State_Penalty>
-0

> <b_epik_Metal_Only>
0

> <s_lp_Force_Field>
OPLS_2005

> <r_lp_Energy>
23.0127

> <b_lp_Chiralities_Consistent>
1

> <s_lp_Variant>
AV-unprocessed.smi:3000-2

> <Gold.Version>
5.8.1

> <Gold.Id.Protein>
6NUR|6NUR_protein|mol2

> <Gold.PLP.Fitness>
39.5847

> <Gold.PLP.PLP>
-27.8355

> <Gold.PLP.part.hbond>
-3.9684

> <Gold.PLP.part.metal>
0.0000

> <Gold.PLP.part.buried>
-3.2098

> <Gold.PLP.part.nonpolar>
-21.3393

> <Gold.PLP.part.repulsive>
0.1564

> <Gold.PLP.ligand.clash>
0.0000

> <Gold.PLP.ligand.torsion>
0.4447

> <Gold.PLP.Chemscore.Hbond>
3.6800

> <Gold.PLP.Chemscore.CHOScore>
0.5017

> <Gold.PLP.Chemscore.Metal>
0.0000

> <Gold.Chemscore.Hbonds>
donor molecule, donor type, donor heavy atom, donor atom, acceptor molecule, acceptor atom, score
      L1  H     5    25       P1  7948  1.00
      L1  H     8    26       P1  7948  0.90
      L1  H    12    32       P1 10957  1.00
      P1  H  7989  7998       L1    20  0.70
      L1  C    19    44       P1  7957  0.51

> <Gold.PLP.Chemscore.Internal.Correction>
0.0935

> <Gold.Rescore>
     Score         DG    S(hbond)    S(metal)    S(lipo)     H(rot)  DE(clash)    DE(int)     intcor
     15.60     -18.12       2.94        0.00      68.23       2.02       0.03       2.50       ----

> <Gold.Chemscore.Fitness>
15.5995

> <Gold.Chemscore.DG>
-18.1219

> <Gold.Chemscore.ZeroCoef>
-5.4800

> <Gold.Chemscore.Hbond>
2.9404

> <Gold.Chemscore.Metal>
0.0000

> <Gold.Chemscore.Lipo>
68.2317

> <Gold.Chemscore.Internal_Hbond>
0.0000

> <Gold.Chemscore.DEClash>
0.0271

> <Gold.Chemscore.DEInternal>
2.4952

> <Gold.Chemscore.Rot>
2.0165

> <Gold.Chemscore.Internal.Correction>
   9.000000E+99

> <Gold.Chemscore.Hbonds>
donor molecule, donor type, donor heavy atom, donor atom, acceptor molecule, acceptor atom, score
      L1  H     5    25       P1  7948  0.96
      L1  H     8    26       P1  7948  0.85
      L1  H    12    32       P1 10957  0.99
      P1  H  7989  7998       L1    20  0.07

> <Gold.Chemscore.Hbond.Weighted>
-9.8210

> <Gold.Chemscore.Metal.Weighted>
-0.0000

> <Gold.Chemscore.Lipo.Weighted>
-7.9831

> <Gold.Chemscore.Internal_Hbond.Weighted>
0.0000

> <Gold.Chemscore.DEClash.Weighted>
0.0271

> <Gold.Chemscore.DEInternal.Weighted>
2.4952

> <Gold.Chemscore.Rot.Weighted>
5.1622

> <Gold.Chemscore.Internal.Correction.Weighted>
   9.000000E+99

> <Gold.Protein.RotatedTorsions>
[ 6907 6896 6895 6894 ] final  120.92 input  -60.11 | X-H torsion
[ 7974 7965 7964 7962 ] final   -7.17 input  175.53 | X-H torsion
[ 8008 7997 7996 7995 ] final -175.67 input   59.86 | X-H torsion
[ 10167 10162 10161 10158 ] final  -26.32 input  -65.29 | X-H torsion
[ 10718 10713 10712 10709 ] final   77.72 input   66.30 | X-H torsion
[ 10763 10752 10751 10750 ] final   -4.42 input  -60.55 | X-H torsion
[ 11005 11000 10999 10996 ] final  110.41 input  -57.11 | X-H torsion

> <Gold.Protein.ActiveResidues>
 VAL166  LYS551  ARG553  GLY616  TRP617  ASP618  TYR619  PRO620  LYS621  CYS622 
 ASP623  PHE694  ASN695  SER759  ASP760  ASP761  ALA762  ILE779  LEU786  VAL792 
 PHE793  MET794  SER795  GLU796  ALA797  LYS798  CYS799  TRP800  GLU811  SER814 

> <Gold.Protein.RotatedAtoms>
  152.4361  133.7363  159.6615 H   0  0  0  0  0  0  0  0  0  0  0  0  # atno 6907 bound_to 6896
  150.8245  133.8185  159.3130 H   0  0  0  0  0  0  0  0  0  0  0  0  # atno 6908 bound_to 6896
  151.5857  135.1058  160.0079 H   0  0  0  0  0  0  0  0  0  0  0  0  # atno 6909 bound_to 6896
  146.2313  140.2280  142.8339 H   0  0  0  0  0  0  0  0  0  0  0  0  # atno 7974 bound_to 7965
  155.9854  140.1190  157.0688 H   0  0  0  0  0  0  0  0  0  0  0  0  # atno 8008 bound_to 7997
  154.4195  140.1136  156.5561 H   0  0  0  0  0  0  0  0  0  0  0  0  # atno 8009 bound_to 7997
  155.6414  140.3473  155.4718 H   0  0  0  0  0  0  0  0  0  0  0  0  # atno 8010 bound_to 7997
  140.7283  143.4188  151.0985 H   0  0  0  0  0  0  0  0  0  0  0  0  # atno 10167 bound_to 10162
  157.6720  130.9835  150.1682 H   0  0  0  0  0  0  0  0  0  0  0  0  # atno 10718 bound_to 10713
  153.3847  135.6999  153.6539 H   0  0  0  0  0  0  0  0  0  0  0  0  # atno 10763 bound_to 10752
  153.5136  135.3626  155.2599 H   0  0  0  0  0  0  0  0  0  0  0  0  # atno 10764 bound_to 10752
  154.8696  135.4141  154.3152 H   0  0  0  0  0  0  0  0  0  0  0  0  # atno 10765 bound_to 10752
  139.8881  134.9483  156.6275 H   0  0  0  0  0  0  0  0  0  0  0  0  # atno 11005 bound_to 11000
  144.9580  140.8246  143.5531 LP  0  0  0  0  0  0  0  0  0  0  0  0  # atno 17320 bound_to 7965
  145.2248  139.2142  143.5074 LP  0  0  0  0  0  0  0  0  0  0  0  0  # atno 17321 bound_to 7965
  139.7831  143.8326  152.3141 LP  0  0  0  0  0  0  0  0  0  0  0  0  # atno 17342 bound_to 10162
  139.8284  144.7264  150.9482 LP  0  0  0  0  0  0  0  0  0  0  0  0  # atno 17343 bound_to 10162
  156.2442  130.3694  149.8303 LP  0  0  0  0  0  0  0  0  0  0  0  0  # atno 17370 bound_to 10713
  156.6094  130.8580  151.3451 LP  0  0  0  0  0  0  0  0  0  0  0  0  # atno 17371 bound_to 10713
  140.7692  133.8752  155.8478 LP  0  0  0  0  0  0  0  0  0  0  0  0  # atno 17394 bound_to 11000
  140.9856  134.1347  157.4455 LP  0  0  0  0  0  0  0  0  0  0  0  0  # atno 17395 bound_to 11000

$$$$
