AV-unprocessed.smi:725|AV-procd|sdf|3509|dock5
  -GOLD-   22720 0503D 1   1.00000     0.00000
 Structure written by MMmdl.
 47 48  0  0  0  0  0  0  0  0  1 V2000
  152.5880  141.9646  160.5397 C   0  0  0  0  0  0  0  0  0  0  0  0
  153.1738  143.2741  159.9998 C   0  0  0  0  0  0  0  0  0  0  0  0
  152.1190  144.3955  159.9150 C   0  0  0  0  0  0  0  0  0  0  0  0
  151.1349  144.3186  158.7203 C   0  0  2  0  0  0  0  0  0  0  0  0
  151.8635  144.4201  157.3625 C   0  0  0  0  0  0  0  0  0  0  0  0
  150.2432  145.4116  158.8345 O   0  0  0  0  0  0  0  0  0  0  0  0
  150.2861  143.0282  158.8565 C   0  0  0  0  0  0  0  0  0  0  0  0
  149.6136  142.6373  157.6187 N   0  0  0  0  0  0  0  0  0  0  0  0
  149.4588  141.3800  157.1718 C   0  0  0  0  0  0  0  0  0  0  0  0
  149.8691  140.3868  157.7730 O   0  0  0  0  0  0  0  0  0  0  0  0
  148.7075  141.2555  155.8721 C   0  0  0  0  0  0  0  0  0  0  0  0
  147.7290  142.2228  155.5441 C   0  0  0  0  0  0  0  0  0  0  0  0
  147.0558  142.1414  154.3128 C   0  0  0  0  0  0  0  0  0  0  0  0
  147.3921  141.0932  153.4401 C   0  0  0  0  0  0  0  0  0  0  0  0
  148.3238  140.1634  153.7308 N   0  0  0  0  0  0  0  0  0  0  0  0
  148.9775  140.2294  154.9178 C   0  0  0  0  0  0  0  0  0  0  0  0
  149.9092  139.2047  155.1800 N   0  0  0  0  0  0  0  0  0  0  0  0
  151.2999  139.5955  155.3878 C   0  0  0  0  0  0  0  0  0  0  0  0
  152.1093  138.3910  155.8981 C   0  0  0  0  0  0  0  0  0  0  0  0
  151.9779  137.3054  154.9844 O   0  0  0  0  0  0  0  0  0  0  0  0
  150.6241  136.8825  154.8451 C   0  0  0  0  0  0  0  0  0  0  0  0
  149.7714  138.0445  154.3081 C   0  0  0  0  0  0  0  0  0  0  0  0
  153.3514  141.1878  160.5865 H   0  0  0  0  0  0  0  0  0  0  0  0
  151.7823  141.6009  159.9017 H   0  0  0  0  0  0  0  0  0  0  0  0
  152.1867  142.0971  161.5447 H   0  0  0  0  0  0  0  0  0  0  0  0
  153.9994  143.5816  160.6418 H   0  0  0  0  0  0  0  0  0  0  0  0
  153.6002  143.0807  159.0161 H   0  0  0  0  0  0  0  0  0  0  0  0
  151.5481  144.4029  160.8444 H   0  0  0  0  0  0  0  0  0  0  0  0
  152.6385  145.3544  159.8817 H   0  0  0  0  0  0  0  0  0  0  0  0
  152.5604  143.5921  157.2305 H   0  0  0  0  0  0  0  0  0  0  0  0
  152.4281  145.3471  157.2705 H   0  0  0  0  0  0  0  0  0  0  0  0
  151.1686  144.4035  156.5230 H   0  0  0  0  0  0  0  0  0  0  0  0
  149.6328  145.3769  158.1143 H   0  0  0  0  0  0  0  0  0  0  0  0
  150.9166  142.2099  159.2086 H   0  0  0  0  0  0  0  0  0  0  0  0
  149.5235  143.1586  159.6253 H   0  0  0  0  0  0  0  0  0  0  0  0
  149.2273  143.3849  157.0608 H   0  0  0  0  0  0  0  0  0  0  0  0
  147.4974  143.0315  156.2222 H   0  0  0  0  0  0  0  0  0  0  0  0
  146.3056  142.8693  154.0413 H   0  0  0  0  0  0  0  0  0  0  0  0
  146.9003  140.9978  152.4834 H   0  0  0  0  0  0  0  0  0  0  0  0
  151.7270  139.9548  154.4504 H   0  0  0  0  0  0  0  0  0  0  0  0
  151.3524  140.4142  156.1066 H   0  0  0  0  0  0  0  0  0  0  0  0
  153.1628  138.6562  155.9868 H   0  0  0  0  0  0  0  0  0  0  0  0
  151.7713  138.0875  156.8903 H   0  0  0  0  0  0  0  0  0  0  0  0
  150.5842  136.0378  154.1576 H   0  0  0  0  0  0  0  0  0  0  0  0
  150.2411  136.5315  155.8049 H   0  0  0  0  0  0  0  0  0  0  0  0
  148.7286  137.7357  154.2342 H   0  0  0  0  0  0  0  0  0  0  0  0
  150.0963  138.3138  153.3022 H   0  0  0  0  0  0  0  0  0  0  0  0
  1  2  1  0  0  0  0
  1 23  1  0  0  0  0
  1 24  1  0  0  0  0
  1 25  1  0  0  0  0
  2  3  1  0  0  0  0
  2 26  1  0  0  0  0
  2 27  1  0  0  0  0
  3  4  1  0  0  0  0
  3 28  1  0  0  0  0
  3 29  1  0  0  0  0
  4  5  1  0  0  0  0
  4  6  1  0  0  0  0
  4  7  1  0  0  0  0
  5 30  1  0  0  0  0
  5 31  1  0  0  0  0
  5 32  1  0  0  0  0
  6 33  1  0  0  0  0
  7  8  1  0  0  0  0
  7 34  1  0  0  0  0
  7 35  1  0  0  0  0
  8  9  1  0  0  0  0
  8 36  1  0  0  0  0
  9 10  2  0  0  0  0
  9 11  1  0  0  0  0
 11 16  1  0  0  0  0
 11 12  2  0  0  0  0
 12 13  1  0  0  0  0
 12 37  1  0  0  0  0
 13 14  2  0  0  0  0
 13 38  1  0  0  0  0
 14 15  1  0  0  0  0
 14 39  1  0  0  0  0
 15 16  2  0  0  0  0
 16 17  1  0  0  0  0
 17 22  1  0  0  0  0
 17 18  1  0  0  0  0
 18 19  1  0  0  0  0
 18 40  1  0  0  0  0
 18 41  1  0  0  0  0
 19 20  1  0  0  0  0
 19 42  1  0  0  0  0
 19 43  1  0  0  0  0
 20 21  1  0  0  0  0
 21 22  1  0  0  0  0
 21 44  1  0  0  0  0
 21 45  1  0  0  0  0
 22 46  1  0  0  0  0
 22 47  1  0  0  0  0
M  END
> <s_m_source_file>
AV-unprocessed.smi

> <i_m_source_file_index>
725

> <i_lp_mmshare_version>
43012

> <i_f3d_flags>
0

> <s_epik_input>
W0NIM11bQ0gyXVtDSDJdW0NAQF0oW0NIM10pKFtPSF0pW0NIMl1bTkhdQyg9TyljMVtjSF1bY0hdW2NIXW5jMU4yW0NIMl1bQ0gyXU9bQ0gyXVtDSDJdMg==

> <s_epik_cmdline>
J2VwaWtfcHl0aG9uJywgJy1waCcsICc3LjAnLCAnLXRuJywgJzgnLCAnLW1hJywgJzIwMCcsICctbWV0YWxfYmluZGluZycsICctaW1hZScsICc8aW5maWxlLm1hZT4nLCAnLW9tYWUnLCAnPG91dGZpbGUubWFlPic=

> <r_lp_tautomer_probability>
1

> <r_epik_Ionization_Penalty>
1.23446e-05

> <r_epik_Ionization_Penalty_Charging>
0

> <r_epik_Ionization_Penalty_Neutral>
1.23446e-05

> <r_epik_State_Penalty>
-0

> <r_epik_Charging_Adjusted_Penalty>
0

> <i_epik_Tot_Q>
0

> <i_epik_Tot_abs_Q>
0

> <r_epik_Metal_State_Penalty>
-0

> <b_epik_Metal_Only>
0

> <s_lp_Force_Field>
OPLS_2005

> <r_lp_Energy>
29.6434

> <b_lp_Chiralities_Consistent>
1

> <s_lp_Variant>
AV-unprocessed.smi:725-2

> <Gold.Version>
5.8.1

> <Gold.Id.Protein>
6NUR|6NUR_protein|mol2

> <Gold.PLP.Fitness>
47.2803

> <Gold.PLP.PLP>
-40.6255

> <Gold.PLP.part.hbond>
-3.2150

> <Gold.PLP.part.metal>
0.0000

> <Gold.PLP.part.buried>
-2.4899

> <Gold.PLP.part.nonpolar>
-37.7761

> <Gold.PLP.part.repulsive>
1.8118

> <Gold.PLP.ligand.clash>
0.0000

> <Gold.PLP.ligand.torsion>
1.1468

> <Gold.PLP.Chemscore.Hbond>
2.8800

> <Gold.PLP.Chemscore.CHOScore>
0.0000

> <Gold.PLP.Chemscore.Metal>
0.0000

> <Gold.Chemscore.Hbonds>
donor molecule, donor type, donor heavy atom, donor atom, acceptor molecule, acceptor atom, score
      L1  H     6    33       P1  8029  1.00
      L1  H     8    36       P1  8028  1.00
      P1  H 10752 10765       L1    20  0.90

> <Gold.PLP.Chemscore.Internal.Correction>
0.3085

> <Gold.Rescore>
     Score         DG    S(hbond)    S(metal)    S(lipo)     H(rot)  DE(clash)    DE(int)     intcor
     14.78     -20.22       2.09        0.00     114.20       2.19       1.54       3.90       ----

> <Gold.Chemscore.Fitness>
14.7757

> <Gold.Chemscore.DG>
-20.2163

> <Gold.Chemscore.ZeroCoef>
-5.4800

> <Gold.Chemscore.Hbond>
2.0929

> <Gold.Chemscore.Metal>
0.0000

> <Gold.Chemscore.Lipo>
114.1950

> <Gold.Chemscore.Internal_Hbond>
0.0000

> <Gold.Chemscore.DEClash>
1.5435

> <Gold.Chemscore.DEInternal>
3.8971

> <Gold.Chemscore.Rot>
2.1933

> <Gold.Chemscore.Internal.Correction>
   9.000000E+99

> <Gold.Chemscore.Hbonds>
donor molecule, donor type, donor heavy atom, donor atom, acceptor molecule, acceptor atom, score
      L1  H     6    33       P1  8029  0.32
      L1  H     8    36       P1  8028  0.84
      P1  H 10752 10765       L1    20  0.26

> <Gold.Chemscore.Hbond.Weighted>
-6.9904

> <Gold.Chemscore.Metal.Weighted>
-0.0000

> <Gold.Chemscore.Lipo.Weighted>
-13.3608

> <Gold.Chemscore.Internal_Hbond.Weighted>
0.0000

> <Gold.Chemscore.DEClash.Weighted>
1.5435

> <Gold.Chemscore.DEInternal.Weighted>
3.8971

> <Gold.Chemscore.Rot.Weighted>
5.6149

> <Gold.Chemscore.Internal.Correction.Weighted>
   9.000000E+99

> <Gold.Protein.RotatedTorsions>
[ 6907 6896 6895 6894 ] final   -3.47 input  -60.11 | X-H torsion
[ 7974 7965 7964 7962 ] final -145.30 input  175.53 | X-H torsion
[ 8008 7997 7996 7995 ] final -116.32 input   59.86 | X-H torsion
[ 10167 10162 10161 10158 ] final -120.77 input  -65.29 | X-H torsion
[ 10718 10713 10712 10709 ] final -126.62 input   66.30 | X-H torsion
[ 10763 10752 10751 10750 ] final  171.05 input  -60.55 | X-H torsion
[ 11005 11000 10999 10996 ] final  -77.32 input  -57.11 | X-H torsion

> <Gold.Protein.ActiveResidues>
 VAL166  LYS551  ARG553  GLY616  TRP617  ASP618  TYR619  PRO620  LYS621  CYS622 
 ASP623  PHE694  ASN695  SER759  ASP760  ASP761  ALA762  ILE779  LEU786  VAL792 
 PHE793  MET794  SER795  GLU796  ALA797  LYS798  CYS799  TRP800  GLU811  SER814 

> <Gold.Protein.RotatedAtoms>
  151.5133  135.1065  159.9859 H   0  0  0  0  0  0  0  0  0  0  0  0  # atno 6907 bound_to 6896
  152.4652  133.7904  159.6909 H   0  0  0  0  0  0  0  0  0  0  0  0  # atno 6908 bound_to 6896
  150.8633  133.7548  159.3010 H   0  0  0  0  0  0  0  0  0  0  0  0  # atno 6909 bound_to 6896
  144.8237  140.5600  143.5561 H   0  0  0  0  0  0  0  0  0  0  0  0  # atno 7974 bound_to 7965
  155.0660  140.0393  157.2593 H   0  0  0  0  0  0  0  0  0  0  0  0  # atno 8008 bound_to 7997
  154.7021  140.2675  155.6685 H   0  0  0  0  0  0  0  0  0  0  0  0  # atno 8009 bound_to 7997
  156.2763  140.2738  156.1635 H   0  0  0  0  0  0  0  0  0  0  0  0  # atno 8010 bound_to 7997
  140.0322  143.5237  152.2171 H   0  0  0  0  0  0  0  0  0  0  0  0  # atno 10167 bound_to 10162
  156.1782  130.6714  151.0270 H   0  0  0  0  0  0  0  0  0  0  0  0  # atno 10718 bound_to 10713
  154.4063  135.2755  155.2065 H   0  0  0  0  0  0  0  0  0  0  0  0  # atno 10763 bound_to 10752
  154.4069  135.6031  153.5933 H   0  0  0  0  0  0  0  0  0  0  0  0  # atno 10764 bound_to 10752
  152.9831  135.5940  154.4338 H   0  0  0  0  0  0  0  0  0  0  0  0  # atno 10765 bound_to 10752
  141.1659  133.7018  156.7802 H   0  0  0  0  0  0  0  0  0  0  0  0  # atno 11005 bound_to 11000
  145.5049  139.1481  143.3637 LP  0  0  0  0  0  0  0  0  0  0  0  0  # atno 17320 bound_to 7965
  146.2542  140.5189  142.8880 LP  0  0  0  0  0  0  0  0  0  0  0  0  # atno 17321 bound_to 7965
  139.6068  144.7598  151.3042 LP  0  0  0  0  0  0  0  0  0  0  0  0  # atno 17342 bound_to 10162
  140.7297  143.6900  150.7930 LP  0  0  0  0  0  0  0  0  0  0  0  0  # atno 17343 bound_to 10162
  157.6850  131.0827  150.7267 LP  0  0  0  0  0  0  0  0  0  0  0  0  # atno 17370 bound_to 10713
  156.7325  130.4714  149.5496 LP  0  0  0  0  0  0  0  0  0  0  0  0  # atno 17371 bound_to 10713
  140.2400  134.8621  157.3563 LP  0  0  0  0  0  0  0  0  0  0  0  0  # atno 17394 bound_to 11000
  140.1806  134.4495  155.7775 LP  0  0  0  0  0  0  0  0  0  0  0  0  # atno 17395 bound_to 11000

$$$$
