AV-unprocessed.smi:2635|AV-procd|sdf|10256|dock4
  -GOLD-   2272014263D 1   1.00000     0.00000
 Structure written by MMmdl.
 31 32  0  0  0  0  0  0  0  0  2 V2000
  153.3230  138.2119  159.0295 C   0  0  0  0  0  0  0  0  0  0  0  0
  152.6057  138.7563  157.8077 C   0  0  0  0  0  0  0  0  0  0  0  0
  152.1134  140.0111  157.7505 C   0  0  0  0  0  0  0  0  0  0  0  0
  151.4508  140.5043  156.6144 N   0  0  0  0  0  0  0  0  0  0  0  0
  150.9126  141.8534  156.6496 C   0  0  0  0  0  0  0  0  0  0  0  0
  150.9418  142.3183  157.9595 O   0  0  0  0  0  0  0  0  0  0  0  0
  152.0858  143.1076  158.2405 C   0  0  0  0  0  0  0  0  0  0  0  0
  152.4756  143.0266  159.7032 C   0  0  0  0  0  0  0  0  0  0  0  0
  153.1559  141.8903  160.1897 C   0  0  0  0  0  0  0  0  0  0  0  0
  153.5071  141.8043  161.5511 C   0  0  0  0  0  0  0  0  0  0  0  0
  153.1763  142.8523  162.4319 C   0  0  0  0  0  0  0  0  0  0  0  0
  152.4920  143.9855  161.9511 C   0  0  0  0  0  0  0  0  0  0  0  0
  152.1395  144.0716  160.5900 C   0  0  0  0  0  0  0  0  0  0  0  0
  151.2463  139.6974  155.5309 C   0  0  0  0  0  0  0  0  0  0  0  0
  150.6288  140.1375  154.5600 O   0  0  0  0  0  0  0  0  0  0  0  0
  151.7449  138.4236  155.5634 N   0  5  0  0  0  0  0  0  0  0  0  0
  152.4179  137.9030  156.6313 C   0  0  0  0  0  0  0  0  0  0  0  0
  152.8626  136.7555  156.6342 O   0  0  0  0  0  0  0  0  0  0  0  0
  153.4001  138.9690  159.8104 H   0  0  0  0  0  0  0  0  0  0  0  0
  154.3318  137.8907  158.7684 H   0  0  0  0  0  0  0  0  0  0  0  0
  152.7832  137.3571  159.4380 H   0  0  0  0  0  0  0  0  0  0  0  0
  152.1938  140.7092  158.5708 H   0  0  0  0  0  0  0  0  0  0  0  0
  151.5098  142.5014  156.0062 H   0  0  0  0  0  0  0  0  0  0  0  0
  149.8917  141.8353  156.2617 H   0  0  0  0  0  0  0  0  0  0  0  0
  152.9206  142.7824  157.6175 H   0  0  0  0  0  0  0  0  0  0  0  0
  151.8862  144.1524  157.9975 H   0  0  0  0  0  0  0  0  0  0  0  0
  153.4099  141.0831  159.5180 H   0  0  0  0  0  0  0  0  0  0  0  0
  154.0294  140.9340  161.9201 H   0  0  0  0  0  0  0  0  0  0  0  0
  153.4458  142.7862  163.4756 H   0  0  0  0  0  0  0  0  0  0  0  0
  152.2364  144.7886  162.6261 H   0  0  0  0  0  0  0  0  0  0  0  0
  151.6127  144.9432  160.2304 H   0  0  0  0  0  0  0  0  0  0  0  0
  1  2  1  0  0  0  0
  1 19  1  0  0  0  0
  1 20  1  0  0  0  0
  1 21  1  0  0  0  0
  2 17  1  0  0  0  0
  2  3  2  0  0  0  0
  3  4  1  0  0  0  0
  3 22  1  0  0  0  0
  4  5  1  0  0  0  0
  4 14  1  0  0  0  0
  5  6  1  0  0  0  0
  5 23  1  0  0  0  0
  5 24  1  0  0  0  0
  6  7  1  0  0  0  0
  7  8  1  0  0  0  0
  7 25  1  0  0  0  0
  7 26  1  0  0  0  0
  8 13  1  0  0  0  0
  8  9  2  0  0  0  0
  9 10  1  0  0  0  0
  9 27  1  0  0  0  0
 10 11  2  0  0  0  0
 10 28  1  0  0  0  0
 11 12  1  0  0  0  0
 11 29  1  0  0  0  0
 12 13  2  0  0  0  0
 12 30  1  0  0  0  0
 13 31  1  0  0  0  0
 14 15  2  0  0  0  0
 14 16  1  0  0  0  0
 16 17  1  0  0  0  0
 17 18  2  0  0  0  0
M  CHG  1  16  -1
M  END
> <s_m_source_file>
AV-unprocessed.smi

> <i_m_source_file_index>
2635

> <i_lp_mmshare_version>
43012

> <i_f3d_flags>
0

> <s_epik_input>
Tz1jMVtuSF1jKD1PKW4oW2NIXWMxW0NIM10pW0NIMl1PW0NIMl1jMltjSF1bY0hdW2NIXVtjSF1bY0hdMg==

> <s_epik_cmdline>
J2VwaWtfcHl0aG9uJywgJy1waCcsICc3LjAnLCAnLXRuJywgJzgnLCAnLW1hJywgJzIwMCcsICctbWV0YWxfYmluZGluZycsICctaW1hZScsICc8aW5maWxlLm1hZT4nLCAnLW9tYWUnLCAnPG91dGZpbGUubWFlPic=

> <r_lp_tautomer_probability>
0.999537

> <r_epik_Ionization_Penalty>
3.41553

> <r_epik_Ionization_Penalty_Charging>
6.94296e-08

> <r_epik_Ionization_Penalty_Neutral>
3.41553

> <r_epik_State_Penalty>
3.41493

> <r_epik_Charging_Adjusted_Penalty>
3.41493

> <i_epik_Tot_Q>
-1

> <i_epik_Tot_abs_Q>
1

> <r_epik_Metal_State_Penalty>
0.16353

> <b_epik_Metal_Only>
1

> <s_epik_Chemistry_Notes>
This compound contains an acetal/aminal-like group ( X-CH(R)-Y where X, Y are N, S, or O) that may be acid/base labile, releasing an aldehyde.

> <s_lp_Force_Field>
OPLS_2005

> <r_lp_Energy>
15.2245

> <b_lp_Chiralities_Consistent>
1

> <s_lp_Variant>
AV-unprocessed.smi:2635-2

> <Gold.Version>
5.8.1

> <Gold.Id.Protein>
6NUR|6NUR_protein|mol2

> <Gold.PLP.Fitness>
46.2342

> <Gold.PLP.PLP>
-41.8960

> <Gold.PLP.part.hbond>
-1.9826

> <Gold.PLP.part.metal>
0.0000

> <Gold.PLP.part.buried>
-5.6482

> <Gold.PLP.part.nonpolar>
-33.9848

> <Gold.PLP.part.repulsive>
0.1725

> <Gold.PLP.ligand.clash>
0.0000

> <Gold.PLP.ligand.torsion>
0.8289

> <Gold.PLP.Chemscore.Hbond>
1.9920

> <Gold.PLP.Chemscore.CHOScore>
0.0000

> <Gold.PLP.Chemscore.Metal>
0.0000

> <Gold.Chemscore.Hbonds>
donor molecule, donor type, donor heavy atom, donor atom, acceptor molecule, acceptor atom, score
      P1  H  7989  7998       L1    15  1.00
      P1  H 10752 10763       L1    18  0.98

> <Gold.PLP.Chemscore.Internal.Correction>
0.0199

> <Gold.Rescore>
     Score         DG    S(hbond)    S(metal)    S(lipo)     H(rot)  DE(clash)    DE(int)     intcor
     17.40     -18.25       1.95        0.00      95.08       1.90       0.00       0.85       ----

> <Gold.Chemscore.Fitness>
17.3957

> <Gold.Chemscore.DG>
-18.2492

> <Gold.Chemscore.ZeroCoef>
-5.4800

> <Gold.Chemscore.Hbond>
1.9491

> <Gold.Chemscore.Metal>
0.0000

> <Gold.Chemscore.Lipo>
95.0806

> <Gold.Chemscore.Internal_Hbond>
0.0000

> <Gold.Chemscore.DEClash>
0.0029

> <Gold.Chemscore.DEInternal>
0.8505

> <Gold.Chemscore.Rot>
1.9004

> <Gold.Chemscore.Internal.Correction>
   9.000000E+99

> <Gold.Chemscore.Hbonds>
donor molecule, donor type, donor heavy atom, donor atom, acceptor molecule, acceptor atom, score
      P1  H  7989  7998       L1    15  0.82
      P1  H 10752 10763       L1    18  0.90

> <Gold.Chemscore.Hbond.Weighted>
-6.5099

> <Gold.Chemscore.Metal.Weighted>
-0.0000

> <Gold.Chemscore.Lipo.Weighted>
-11.1244

> <Gold.Chemscore.Internal_Hbond.Weighted>
0.0000

> <Gold.Chemscore.DEClash.Weighted>
0.0029

> <Gold.Chemscore.DEInternal.Weighted>
0.8505

> <Gold.Chemscore.Rot.Weighted>
4.8651

> <Gold.Chemscore.Internal.Correction.Weighted>
   9.000000E+99

> <Gold.Protein.RotatedTorsions>
[ 6907 6896 6895 6894 ] final -163.92 input  -60.11 | X-H torsion
[ 7974 7965 7964 7962 ] final -133.70 input  175.53 | X-H torsion
[ 8008 7997 7996 7995 ] final -153.36 input   59.86 | X-H torsion
[ 10167 10162 10161 10158 ] final -157.43 input  -65.29 | X-H torsion
[ 10718 10713 10712 10709 ] final   37.11 input   66.30 | X-H torsion
[ 10763 10752 10751 10750 ] final  102.74 input  -60.55 | X-H torsion
[ 11005 11000 10999 10996 ] final  105.98 input  -57.11 | X-H torsion

> <Gold.Protein.ActiveResidues>
 VAL166  LYS551  ARG553  GLY616  TRP617  ASP618  TYR619  PRO620  LYS621  CYS622 
 ASP623  PHE694  ASN695  SER759  ASP760  ASP761  ALA762  ILE779  LEU786  VAL792 
 PHE793  MET794  SER795  GLU796  ALA797  LYS798  CYS799  TRP800  GLU811  SER814 

> <Gold.Protein.RotatedAtoms>
  151.4037  133.3749  159.2735 H   0  0  0  0  0  0  0  0  0  0  0  0  # atno 6907 bound_to 6896
  150.9414  134.8824  159.7625 H   0  0  0  0  0  0  0  0  0  0  0  0  # atno 6908 bound_to 6896
  152.5073  134.3988  159.9461 H   0  0  0  0  0  0  0  0  0  0  0  0  # atno 6909 bound_to 6896
  144.9170  140.6966  143.4989 H   0  0  0  0  0  0  0  0  0  0  0  0  # atno 7974 bound_to 7965
  155.6696  140.0732  157.2525 H   0  0  0  0  0  0  0  0  0  0  0  0  # atno 8008 bound_to 7997
  154.4126  140.1701  156.1916 H   0  0  0  0  0  0  0  0  0  0  0  0  # atno 8009 bound_to 7997
  155.9628  140.3368  155.6509 H   0  0  0  0  0  0  0  0  0  0  0  0  # atno 8010 bound_to 7997
  139.6771  143.9645  152.2316 H   0  0  0  0  0  0  0  0  0  0  0  0  # atno 10167 bound_to 10162
  157.3430  130.7558  149.6925 H   0  0  0  0  0  0  0  0  0  0  0  0  # atno 10718 bound_to 10713
  153.3435  135.4000  155.1590 H   0  0  0  0  0  0  0  0  0  0  0  0  # atno 10763 bound_to 10752
  154.8648  135.3639  154.5315 H   0  0  0  0  0  0  0  0  0  0  0  0  # atno 10764 bound_to 10752
  153.5761  135.7078  153.5543 H   0  0  0  0  0  0  0  0  0  0  0  0  # atno 10765 bound_to 10752
  139.8808  134.9354  156.5596 H   0  0  0  0  0  0  0  0  0  0  0  0  # atno 11005 bound_to 11000
  145.3360  139.1746  143.4511 LP  0  0  0  0  0  0  0  0  0  0  0  0  # atno 17320 bound_to 7965
  146.3186  140.3395  142.8647 LP  0  0  0  0  0  0  0  0  0  0  0  0  # atno 17321 bound_to 7965
  139.9425  144.6672  150.8252 LP  0  0  0  0  0  0  0  0  0  0  0  0  # atno 17342 bound_to 10162
  140.7639  143.3235  151.2568 LP  0  0  0  0  0  0  0  0  0  0  0  0  # atno 17343 bound_to 10162
  155.9710  130.4162  150.4220 LP  0  0  0  0  0  0  0  0  0  0  0  0  # atno 17370 bound_to 10713
  157.2270  131.0495  151.2514 LP  0  0  0  0  0  0  0  0  0  0  0  0  # atno 17371 bound_to 10713
  140.8179  133.8377  155.8869 LP  0  0  0  0  0  0  0  0  0  0  0  0  # atno 17394 bound_to 11000
  140.9445  134.1858  157.4773 LP  0  0  0  0  0  0  0  0  0  0  0  0  # atno 17395 bound_to 11000

$$$$
