AV-unprocessed.smi:33|AV-procd|sdf|199|dock9
  -GOLD-   2262015473D 1   1.00000     0.00000
 Structure written by MMmdl.
 67 72  0  0  0  0  0  0  0  0  1 V2000
  153.7827  139.8902  158.8925 O   0  0  0  0  0  0  0  0  0  0  0  0
  153.9702  140.4212  159.9890 C   0  0  0  0  0  0  0  0  0  0  0  0
  154.8643  139.9744  160.8901 O   0  0  0  0  0  0  0  0  0  0  0  0
  155.8544  139.0343  160.5077 C   0  0  0  0  0  0  0  0  0  0  0  0
  155.8928  137.9190  161.5568 C   0  0  2  0  0  0  0  0  0  0  0  0
  154.6196  137.3025  161.6936 O   0  0  0  0  0  0  0  0  0  0  0  0
  154.5908  136.5869  162.8918 C   0  0  1  0  0  0  0  0  0  0  0  0
  154.8688  135.1442  162.5879 N   0  0  0  0  0  0  0  0  0  0  0  0
  155.2680  134.5555  161.4049 C   0  0  0  0  0  0  0  0  0  0  0  0
  155.4248  133.2598  161.4510 N   0  0  0  0  0  0  0  0  0  0  0  0
  155.0991  132.9288  162.7596 C   0  0  0  0  0  0  0  0  0  0  0  0
  155.0527  131.7122  163.4914 C   0  0  0  0  0  0  0  0  0  0  0  0
  155.3754  130.5158  162.9469 N   0  0  0  0  0  0  0  0  0  0  0  0
  156.4935  129.7839  163.5596 C   0  0  0  0  0  0  0  0  0  0  0  0
  157.1349  128.9764  162.8845 O   0  0  0  0  0  0  0  0  0  0  0  0
  156.8855  130.0471  164.9858 C   0  0  0  0  0  0  0  0  0  0  0  0
  157.3694  131.3189  165.3636 C   0  0  0  0  0  0  0  0  0  0  0  0
  157.7525  131.5655  166.6963 C   0  0  0  0  0  0  0  0  0  0  0  0
  157.6713  130.5377  167.6549 C   0  0  0  0  0  0  0  0  0  0  0  0
  157.2174  129.2594  167.2784 C   0  0  0  0  0  0  0  0  0  0  0  0
  156.8341  129.0117  165.9461 C   0  0  0  0  0  0  0  0  0  0  0  0
  154.5826  130.0611  161.7952 C   0  0  0  0  0  0  0  0  0  0  0  0
  154.0038  130.8902  161.0905 O   0  0  0  0  0  0  0  0  0  0  0  0
  154.5204  128.6024  161.4409 C   0  0  0  0  0  0  0  0  0  0  0  0
  154.7339  127.6240  162.4366 C   0  0  0  0  0  0  0  0  0  0  0  0
  154.6884  126.2553  162.1083 C   0  0  0  0  0  0  0  0  0  0  0  0
  154.4491  125.8567  160.7795 C   0  0  0  0  0  0  0  0  0  0  0  0
  154.2639  126.8273  159.7767 C   0  0  0  0  0  0  0  0  0  0  0  0
  154.3071  128.1962  160.1043 C   0  0  0  0  0  0  0  0  0  0  0  0
  154.6679  131.7657  164.7933 N   0  0  0  0  0  0  0  0  0  0  0  0
  154.3508  132.9415  165.3444 C   0  0  0  0  0  0  0  0  0  0  0  0
  154.3534  134.1546  164.7854 N   0  0  0  0  0  0  0  0  0  0  0  0
  154.7378  134.1005  163.4772 C   0  0  0  0  0  0  0  0  0  0  0  0
  155.6606  137.2196  163.8191 C   0  0  1  0  0  0  0  0  0  0  0  0
  156.7343  136.3611  164.1642 O   0  0  0  0  0  0  0  0  0  0  0  0
  156.1749  138.3841  162.9836 C   0  0  2  0  0  0  0  0  0  0  0  0
  155.4691  139.4811  163.2665 F   0  0  0  0  0  0  0  0  0  0  0  0
  153.2301  141.6283  160.4580 C   0  0  0  0  0  0  0  0  0  0  0  0
  153.2200  141.9429  161.8368 C   0  0  0  0  0  0  0  0  0  0  0  0
  152.5293  143.0760  162.3090 C   0  0  0  0  0  0  0  0  0  0  0  0
  151.8399  143.9082  161.4080 C   0  0  0  0  0  0  0  0  0  0  0  0
  151.8417  143.6056  160.0340 C   0  0  0  0  0  0  0  0  0  0  0  0
  152.5322  142.4733  159.5596 C   0  0  0  0  0  0  0  0  0  0  0  0
  155.5948  138.6201  159.5326 H   0  0  0  0  0  0  0  0  0  0  0  0
  156.8298  139.5146  160.4177 H   0  0  0  0  0  0  0  0  0  0  0  0
  156.6373  137.1719  161.2767 H   0  0  0  0  0  0  0  0  0  0  0  0
  153.5847  136.5881  163.3129 H   0  0  0  0  0  0  0  0  0  0  0  0
  155.4412  135.1128  160.4959 H   0  0  0  0  0  0  0  0  0  0  0  0
  157.4363  132.1149  164.6361 H   0  0  0  0  0  0  0  0  0  0  0  0
  158.1098  132.5436  166.9828 H   0  0  0  0  0  0  0  0  0  0  0  0
  157.9643  130.7275  168.6770 H   0  0  0  0  0  0  0  0  0  0  0  0
  157.1650  128.4674  168.0108 H   0  0  0  0  0  0  0  0  0  0  0  0
  156.4932  128.0250  165.6669 H   0  0  0  0  0  0  0  0  0  0  0  0
  154.9175  127.9186  163.4599 H   0  0  0  0  0  0  0  0  0  0  0  0
  154.8375  125.5113  162.8768 H   0  0  0  0  0  0  0  0  0  0  0  0
  154.4139  124.8068  160.5284 H   0  0  0  0  0  0  0  0  0  0  0  0
  154.0898  126.5228  158.7554 H   0  0  0  0  0  0  0  0  0  0  0  0
  154.1677  128.9323  159.3256 H   0  0  0  0  0  0  0  0  0  0  0  0
  154.0540  132.9055  166.3822 H   0  0  0  0  0  0  0  0  0  0  0  0
  155.1856  137.5659  164.7377 H   0  0  0  0  0  0  0  0  0  0  0  0
  156.9234  135.8074  163.4217 H   0  0  0  0  0  0  0  0  0  0  0  0
  157.2246  138.6237  163.1588 H   0  0  0  0  0  0  0  0  0  0  0  0
  153.7416  141.3184  162.5479 H   0  0  0  0  0  0  0  0  0  0  0  0
  152.5289  143.3060  163.3642 H   0  0  0  0  0  0  0  0  0  0  0  0
  151.3102  144.7769  161.7702 H   0  0  0  0  0  0  0  0  0  0  0  0
  151.3123  144.2432  159.3413 H   0  0  0  0  0  0  0  0  0  0  0  0
  152.5128  142.2703  158.4988 H   0  0  0  0  0  0  0  0  0  0  0  0
  1  2  2  0  0  0  0
  2  3  1  0  0  0  0
  2 38  1  0  0  0  0
  3  4  1  0  0  0  0
  4  5  1  0  0  0  0
  4 44  1  0  0  0  0
  4 45  1  0  0  0  0
  5 36  1  0  0  0  0
  5  6  1  0  0  0  0
  5 46  1  0  0  0  0
  6  7  1  0  0  0  0
  7  8  1  0  0  0  0
  7 34  1  0  0  0  0
  7 47  1  0  0  0  0
  8 33  1  0  0  0  0
  8  9  1  0  0  0  0
  9 10  2  0  0  0  0
  9 48  1  0  0  0  0
 10 11  1  0  0  0  0
 11 33  2  0  0  0  0
 11 12  1  0  0  0  0
 12 13  1  0  0  0  0
 12 30  2  0  0  0  0
 13 14  1  0  0  0  0
 13 22  1  0  0  0  0
 14 15  2  0  0  0  0
 14 16  1  0  0  0  0
 16 21  1  0  0  0  0
 16 17  2  0  0  0  0
 17 18  1  0  0  0  0
 17 49  1  0  0  0  0
 18 19  2  0  0  0  0
 18 50  1  0  0  0  0
 19 20  1  0  0  0  0
 19 51  1  0  0  0  0
 20 21  2  0  0  0  0
 20 52  1  0  0  0  0
 21 53  1  0  0  0  0
 22 23  2  0  0  0  0
 22 24  1  0  0  0  0
 24 29  1  0  0  0  0
 24 25  2  0  0  0  0
 25 26  1  0  0  0  0
 25 54  1  0  0  0  0
 26 27  2  0  0  0  0
 26 55  1  0  0  0  0
 27 28  1  0  0  0  0
 27 56  1  0  0  0  0
 28 29  2  0  0  0  0
 28 57  1  0  0  0  0
 29 58  1  0  0  0  0
 30 31  1  0  0  0  0
 31 32  2  0  0  0  0
 31 59  1  0  0  0  0
 32 33  1  0  0  0  0
 34 35  1  0  0  0  0
 34 36  1  0  0  0  0
 34 60  1  0  0  0  0
 35 61  1  0  0  0  0
 36 37  1  0  0  0  0
 36 62  1  0  0  0  0
 38 43  1  0  0  0  0
 38 39  2  0  0  0  0
 39 40  1  0  0  0  0
 39 63  1  0  0  0  0
 40 41  2  0  0  0  0
 40 64  1  0  0  0  0
 41 42  1  0  0  0  0
 41 65  1  0  0  0  0
 42 43  2  0  0  0  0
 42 66  1  0  0  0  0
 43 67  1  0  0  0  0
M  END
> <s_m_source_file>
AV-unprocessed.smi

> <i_m_source_file_index>
33

> <i_lp_mmshare_version>
43012

> <i_f3d_flags>
0

> <s_epik_input>
W2NIXTFbY0hdW2NIXVtjSF1bY0hdYzFDKD1PKU9bQ0gyXVtDQEBIXTJPW0NASF0oW0NAQEhdKFtPSF0pW0NAQEhdMkYpbihbY0hdbjMpYyhjMzQpbltjSF1uYzROKEMoPU8pYzVbY0hdW2NIXVtjSF1bY0hdW2NIXTUpQyg9TyljNltjSF1bY0hdW2NIXVtjSF1bY0hdNg==

> <s_epik_cmdline>
J2VwaWtfcHl0aG9uJywgJy1waCcsICc3LjAnLCAnLXRuJywgJzgnLCAnLW1hJywgJzIwMCcsICctbWV0YWxfYmluZGluZycsICctaW1hZScsICc8aW5maWxlLm1hZT4nLCAnLW9tYWUnLCAnPG91dGZpbGUubWFlPic=

> <r_lp_tautomer_probability>
1

> <r_epik_Ionization_Penalty>
0.00067664

> <r_epik_Ionization_Penalty_Charging>
0

> <r_epik_Ionization_Penalty_Neutral>
0.00067664

> <r_epik_State_Penalty>
0.000428095

> <r_epik_Charging_Adjusted_Penalty>
0.000428095

> <i_epik_Tot_Q>
0

> <i_epik_Tot_abs_Q>
0

> <r_epik_Metal_State_Penalty>
-0

> <b_epik_Metal_Only>
0

> <s_epik_Chemistry_Notes>
This compound has an ester and may undergo hydrolysis at high or low pH. This compound contains an acetal/aminal-like group ( X-CH(R)-Y where X, Y are N, S, or O) that may be acid/base labile, releasing an aldehyde.

> <s_lp_Force_Field>
OPLS_2005

> <r_lp_Energy>
71.8737

> <b_lp_Chiralities_Consistent>
1

> <s_lp_Variant>
AV-unprocessed.smi:33-1

> <Gold.Version>
5.8.1

> <Gold.Id.Protein>
6NUR|6NUR_protein|mol2

> <Gold.PLP.Fitness>
57.8661

> <Gold.PLP.PLP>
-58.4908

> <Gold.PLP.part.hbond>
-1.0000

> <Gold.PLP.part.metal>
0.0000

> <Gold.PLP.part.buried>
-7.1090

> <Gold.PLP.part.nonpolar>
-48.7403

> <Gold.PLP.part.repulsive>
0.1174

> <Gold.PLP.ligand.clash>
0.0000

> <Gold.PLP.ligand.torsion>
3.9416

> <Gold.PLP.Chemscore.Hbond>
1.0000

> <Gold.PLP.Chemscore.CHOScore>
0.0000

> <Gold.PLP.Chemscore.Metal>
0.0000

> <Gold.Chemscore.Hbonds>
donor molecule, donor type, donor heavy atom, donor atom, acceptor molecule, acceptor atom, score
      P1  H  7997  8010       L1     1  1.00

> <Gold.PLP.Chemscore.Internal.Correction>
4.2585

> <Gold.Rescore>
     Score         DG    S(hbond)    S(metal)    S(lipo)     H(rot)  DE(clash)    DE(int)     intcor
      0.74     -15.54       0.89        0.00     115.83       2.52       0.03      14.77       ----

> <Gold.Chemscore.Fitness>
0.7450

> <Gold.Chemscore.DG>
-15.5434

> <Gold.Chemscore.ZeroCoef>
-5.4800

> <Gold.Chemscore.Hbond>
0.8907

> <Gold.Chemscore.Metal>
0.0000

> <Gold.Chemscore.Lipo>
115.8269

> <Gold.Chemscore.Internal_Hbond>
0.0000

> <Gold.Chemscore.DEClash>
0.0310

> <Gold.Chemscore.DEInternal>
14.7675

> <Gold.Chemscore.Rot>
2.5247

> <Gold.Chemscore.Internal.Correction>
   9.000000E+99

> <Gold.Chemscore.Hbonds>
donor molecule, donor type, donor heavy atom, donor atom, acceptor molecule, acceptor atom, score
      P1  H  7997  8010       L1     1  0.96

> <Gold.Chemscore.Hbond.Weighted>
-2.9749

> <Gold.Chemscore.Metal.Weighted>
-0.0000

> <Gold.Chemscore.Lipo.Weighted>
-13.5517

> <Gold.Chemscore.Internal_Hbond.Weighted>
0.0000

> <Gold.Chemscore.DEClash.Weighted>
0.0310

> <Gold.Chemscore.DEInternal.Weighted>
14.7675

> <Gold.Chemscore.Rot.Weighted>
6.4633

> <Gold.Chemscore.Internal.Correction.Weighted>
   9.000000E+99

> <Gold.Protein.RotatedTorsions>
[ 6907 6896 6895 6894 ] final  175.66 input  -60.11 | X-H torsion
[ 7974 7965 7964 7962 ] final -158.24 input  175.53 | X-H torsion
[ 8008 7997 7996 7995 ] final   16.99 input   59.86 | X-H torsion
[ 10167 10162 10161 10158 ] final   14.58 input  -65.29 | X-H torsion
[ 10718 10713 10712 10709 ] final -174.32 input   66.30 | X-H torsion
[ 10763 10752 10751 10750 ] final  -36.64 input  -60.55 | X-H torsion
[ 11005 11000 10999 10996 ] final  173.52 input  -57.11 | X-H torsion

> <Gold.Protein.ActiveResidues>
 VAL166  LYS551  ARG553  GLY616  TRP617  ASP618  TYR619  PRO620  LYS621  CYS622 
 ASP623  PHE694  ASN695  SER759  ASP760  ASP761  ALA762  ILE779  LEU786  VAL792 
 PHE793  MET794  SER795  GLU796  ALA797  LYS798  CYS799  TRP800  GLU811  SER814 

> <Gold.Protein.RotatedAtoms>
  151.7327  133.3318  159.3344 H   0  0  0  0  0  0  0  0  0  0  0  0  # atno 6907 bound_to 6896
  150.7606  134.6349  159.6215 H   0  0  0  0  0  0  0  0  0  0  0  0  # atno 6908 bound_to 6896
  152.3582  134.6913  160.0267 H   0  0  0  0  0  0  0  0  0  0  0  0  # atno 6909 bound_to 6896
  144.7514  140.3856  143.6045 H   0  0  0  0  0  0  0  0  0  0  0  0  # atno 7974 bound_to 7965
  154.8850  140.2978  155.5403 H   0  0  0  0  0  0  0  0  0  0  0  0  # atno 8008 bound_to 7997
  156.3021  140.2435  156.3792 H   0  0  0  0  0  0  0  0  0  0  0  0  # atno 8009 bound_to 7997
  154.8678  140.0402  157.1694 H   0  0  0  0  0  0  0  0  0  0  0  0  # atno 8010 bound_to 7997
  140.5926  143.8766  150.6887 H   0  0  0  0  0  0  0  0  0  0  0  0  # atno 10167 bound_to 10162
  156.7834  130.9491  151.3120 H   0  0  0  0  0  0  0  0  0  0  0  0  # atno 10718 bound_to 10713
  153.8831  135.6819  153.4765 H   0  0  0  0  0  0  0  0  0  0  0  0  # atno 10763 bound_to 10752
  153.1223  135.4734  154.9213 H   0  0  0  0  0  0  0  0  0  0  0  0  # atno 10764 bound_to 10752
  154.7659  135.3224  154.8239 H   0  0  0  0  0  0  0  0  0  0  0  0  # atno 10765 bound_to 10752
  140.3413  134.7274  157.4204 H   0  0  0  0  0  0  0  0  0  0  0  0  # atno 11005 bound_to 11000
  145.6931  139.1644  143.2635 LP  0  0  0  0  0  0  0  0  0  0  0  0  # atno 17320 bound_to 7965
  146.1469  140.6980  142.9340 LP  0  0  0  0  0  0  0  0  0  0  0  0  # atno 17321 bound_to 7965
  140.2292  143.3749  152.1579 LP  0  0  0  0  0  0  0  0  0  0  0  0  # atno 17342 bound_to 10162
  139.5237  144.7075  151.5310 LP  0  0  0  0  0  0  0  0  0  0  0  0  # atno 17343 bound_to 10162
  157.6635  130.8987  149.9882 LP  0  0  0  0  0  0  0  0  0  0  0  0  # atno 17370 bound_to 10713
  156.1204  130.3646  149.9897 LP  0  0  0  0  0  0  0  0  0  0  0  0  # atno 17371 bound_to 10713
  140.0778  134.5772  155.8572 LP  0  0  0  0  0  0  0  0  0  0  0  0  # atno 17394 bound_to 11000
  141.2037  133.6634  156.6081 LP  0  0  0  0  0  0  0  0  0  0  0  0  # atno 17395 bound_to 11000

$$$$
