AV-unprocessed.smi:1554|AV-procd|sdf|6256|dock7
  -GOLD-   22720 6443D 1   1.00000     0.00000
 Structure written by MMmdl.
 49 51  0  0  0  0  0  0  0  0  3 V2000
  152.4189  143.1576  159.7193 C   0  0  0  0  0  0  0  0  0  0  0  0
  152.0015  142.2253  158.5946 C   0  0  0  0  0  0  0  0  0  0  0  0
  151.0897  142.7024  157.6262 C   0  0  0  0  0  0  0  0  0  0  0  0
  150.7238  141.8248  156.6124 C   0  0  0  0  0  0  0  0  0  0  0  0
  149.8580  141.9893  155.5294 N   0  3  0  0  0  0  0  0  0  0  0  0
  149.8160  140.8391  154.8017 C   0  0  0  0  0  0  0  0  0  0  0  0
  150.6404  139.9402  155.4058 N   0  0  0  0  0  0  0  0  0  0  0  0
  150.9571  138.5552  155.0260 C   0  0  0  0  0  0  0  0  0  0  0  0
  149.7116  137.6485  154.9642 C   0  0  2  0  0  0  0  0  0  0  0  0
  148.8354  137.9712  156.0266 O   0  0  0  0  0  0  0  0  0  0  0  0
  150.0889  136.1573  155.0726 C   0  0  0  0  0  0  0  0  0  0  0  0
  149.1038  135.2625  154.4127 N   0  3  1  0  0  0  0  0  0  0  0  0
  149.5526  133.8519  154.3076 C   0  0  0  0  0  0  0  0  0  0  0  0
  148.4952  133.0064  153.5788 C   0  0  0  0  0  0  0  0  0  0  0  0
  147.2501  133.1084  154.2581 O   0  0  0  0  0  0  0  0  0  0  0  0
  146.7592  134.4439  154.2870 C   0  0  1  0  0  0  0  0  0  0  0  0
  145.3793  134.4332  154.9542 C   0  0  0  0  0  0  0  0  0  0  0  0
  147.7648  135.3319  155.0451 C   0  0  0  0  0  0  0  0  0  0  0  0
  151.2324  140.5134  156.5383 C   0  0  0  0  0  0  0  0  0  0  0  0
  152.1337  140.0287  157.4836 C   0  0  0  0  0  0  0  0  0  0  0  0
  152.5167  140.9050  158.5240 C   0  0  0  0  0  0  0  0  0  0  0  0
  153.4962  140.4015  159.5706 C   0  0  0  0  0  0  0  0  0  0  0  0
  151.9570  144.1398  159.6157 H   0  0  0  0  0  0  0  0  0  0  0  0
  153.5002  143.2969  159.7214 H   0  0  0  0  0  0  0  0  0  0  0  0
  152.1197  142.7493  160.6851 H   0  0  0  0  0  0  0  0  0  0  0  0
  150.6929  143.7061  157.6740 H   0  0  0  0  0  0  0  0  0  0  0  0
  149.2343  140.6718  153.9066 H   0  0  0  0  0  0  0  0  0  0  0  0
  151.4323  138.5958  154.0450 H   0  0  0  0  0  0  0  0  0  0  0  0
  151.7074  138.1568  155.7096 H   0  0  0  0  0  0  0  0  0  0  0  0
  149.1930  137.8434  154.0260 H   0  0  0  0  0  0  0  0  0  0  0  0
  148.8261  138.9106  156.1331 H   0  0  0  0  0  0  0  0  0  0  0  0
  151.0773  135.9799  154.6459 H   0  0  0  0  0  0  0  0  0  0  0  0
  150.1642  135.8975  156.1300 H   0  0  0  0  0  0  0  0  0  0  0  0
  150.4958  133.7875  153.7669 H   0  0  0  0  0  0  0  0  0  0  0  0
  149.7281  133.4474  155.3058 H   0  0  0  0  0  0  0  0  0  0  0  0
  148.3860  133.3267  152.5414 H   0  0  0  0  0  0  0  0  0  0  0  0
  148.8007  131.9604  153.5578 H   0  0  0  0  0  0  0  0  0  0  0  0
  146.6463  134.8071  153.2639 H   0  0  0  0  0  0  0  0  0  0  0  0
  144.9524  135.4358  154.9894 H   0  0  0  0  0  0  0  0  0  0  0  0
  145.4366  134.0578  155.9764 H   0  0  0  0  0  0  0  0  0  0  0  0
  144.6855  133.7967  154.4045 H   0  0  0  0  0  0  0  0  0  0  0  0
  147.8386  135.0166  156.0873 H   0  0  0  0  0  0  0  0  0  0  0  0
  147.4125  136.3643  155.0461 H   0  0  0  0  0  0  0  0  0  0  0  0
  152.5250  139.0233  157.4344 H   0  0  0  0  0  0  0  0  0  0  0  0
  153.7668  139.3598  159.3961 H   0  0  0  0  0  0  0  0  0  0  0  0
  153.0610  140.4683  160.5679 H   0  0  0  0  0  0  0  0  0  0  0  0
  154.4126  140.9918  159.5510 H   0  0  0  0  0  0  0  0  0  0  0  0
  148.9894  135.6104  153.4709 H   0  0  0  0  0  0  0  0  0  0  0  0
  149.3349  142.8250  155.3001 H   0  0  0  0  0  0  0  0  0  0  0  0
  1  2  1  0  0  0  0
  1 23  1  0  0  0  0
  1 24  1  0  0  0  0
  1 25  1  0  0  0  0
  2 21  1  0  0  0  0
  2  3  2  0  0  0  0
  3  4  1  0  0  0  0
  3 26  1  0  0  0  0
  4 19  2  0  0  0  0
  4  5  1  0  0  0  0
  5  6  2  0  0  0  0
  5 49  1  0  0  0  0
  6  7  1  0  0  0  0
  6 27  1  0  0  0  0
  7  8  1  0  0  0  0
  7 19  1  0  0  0  0
  8  9  1  0  0  0  0
  8 28  1  0  0  0  0
  8 29  1  0  0  0  0
  9 10  1  0  0  0  0
  9 11  1  0  0  0  0
  9 30  1  0  0  0  0
 10 31  1  0  0  0  0
 11 12  1  0  0  0  0
 11 32  1  0  0  0  0
 11 33  1  0  0  0  0
 12 18  1  0  0  0  0
 12 13  1  0  0  0  0
 12 48  1  0  0  0  0
 13 14  1  0  0  0  0
 13 34  1  0  0  0  0
 13 35  1  0  0  0  0
 14 15  1  0  0  0  0
 14 36  1  0  0  0  0
 14 37  1  0  0  0  0
 15 16  1  0  0  0  0
 16 17  1  0  0  0  0
 16 18  1  0  0  0  0
 16 38  1  0  0  0  0
 17 39  1  0  0  0  0
 17 40  1  0  0  0  0
 17 41  1  0  0  0  0
 18 42  1  0  0  0  0
 18 43  1  0  0  0  0
 19 20  1  0  0  0  0
 20 21  2  0  0  0  0
 20 44  1  0  0  0  0
 21 22  1  0  0  0  0
 22 45  1  0  0  0  0
 22 46  1  0  0  0  0
 22 47  1  0  0  0  0
M  CHG  1   5   1
M  CHG  1  12   1
M  END
> <s_m_source_file>
AV-unprocessed.smi

> <i_m_source_file_index>
1554

> <i_lp_mmshare_version>
43012

> <i_f3d_flags>
0

> <s_epik_input>
W0NIM11jKFtjSF0xKWMoW0NIM10pW2NIXWMoYzEyKW4oW2NIXW4yKVtDSDJdW0NASF0oW09IXSlbQ0gyXU4zW0NIMl1bQ0gyXU9bQ0BASF0oW0NIM10pW0NIMl0z

> <s_epik_cmdline>
J2VwaWtfcHl0aG9uJywgJy1waCcsICc3LjAnLCAnLXRuJywgJzgnLCAnLW1hJywgJzIwMCcsICctbWV0YWxfYmluZGluZycsICctaW1hZScsICc8aW5maWxlLm1hZT4nLCAnLW9tYWUnLCAnPG91dGZpbGUubWFlPic=

> <r_epik_Ionization_Penalty>
1.8848

> <r_epik_Ionization_Penalty_Charging>
1.88479

> <r_epik_Ionization_Penalty_Neutral>
1.42224e-05

> <r_epik_State_Penalty>
1.94551

> <r_epik_Charging_Adjusted_Penalty>
3.8303

> <i_epik_Tot_Q>
2

> <i_epik_Tot_abs_Q>
2

> <r_epik_Metal_State_Penalty>
5.95849

> <b_epik_Metal_Only>
0

> <s_lp_Force_Field>
OPLS_2005

> <r_lp_Energy>
29.8274

> <b_lp_Chiralities_Consistent>
1

> <s_lp_Variant>
AV-unprocessed.smi:1554-17

> <Gold.Version>
5.8.1

> <Gold.Id.Protein>
6NUR|6NUR_protein|mol2

> <Gold.PLP.Fitness>
50.6128

> <Gold.PLP.PLP>
-38.3934

> <Gold.PLP.part.hbond>
-2.0000

> <Gold.PLP.part.metal>
0.0000

> <Gold.PLP.part.buried>
-1.4368

> <Gold.PLP.part.nonpolar>
-34.2198

> <Gold.PLP.part.repulsive>
0.2597

> <Gold.PLP.ligand.clash>
0.0000

> <Gold.PLP.ligand.torsion>
0.5300

> <Gold.PLP.Chemscore.Hbond>
3.7920

> <Gold.PLP.Chemscore.CHOScore>
0.6247

> <Gold.PLP.Chemscore.Metal>
0.0000

> <Gold.Chemscore.Hbonds>
donor molecule, donor type, donor heavy atom, donor atom, acceptor molecule, acceptor atom, score
      L1  H     5    49       P1  8028  2.00
      L1  H    12    48       P1  7948  2.00
      L1  C     6    27       P1  7957  0.22

> <Gold.PLP.Chemscore.Internal.Correction>
0.0292

> <Gold.Rescore>
     Score         DG    S(hbond)    S(metal)    S(lipo)     H(rot)  DE(clash)    DE(int)     intcor
     17.56     -18.31       1.92        0.00     100.98       2.11       0.05       0.69       ----

> <Gold.Chemscore.Fitness>
17.5634

> <Gold.Chemscore.DG>
-18.3102

> <Gold.Chemscore.ZeroCoef>
-5.4800

> <Gold.Chemscore.Hbond>
1.9228

> <Gold.Chemscore.Metal>
0.0000

> <Gold.Chemscore.Lipo>
100.9842

> <Gold.Chemscore.Internal_Hbond>
0.0000

> <Gold.Chemscore.DEClash>
0.0539

> <Gold.Chemscore.DEInternal>
0.6929

> <Gold.Chemscore.Rot>
2.1122

> <Gold.Chemscore.Internal.Correction>
   9.000000E+99

> <Gold.Chemscore.Hbonds>
donor molecule, donor type, donor heavy atom, donor atom, acceptor molecule, acceptor atom, score
      L1  H     5    49       P1  8028  0.93
      L1  H    12    48       P1  7948  0.78

> <Gold.Chemscore.Hbond.Weighted>
-6.4223

> <Gold.Chemscore.Metal.Weighted>
-0.0000

> <Gold.Chemscore.Lipo.Weighted>
-11.8152

> <Gold.Chemscore.Internal_Hbond.Weighted>
0.0000

> <Gold.Chemscore.DEClash.Weighted>
0.0539

> <Gold.Chemscore.DEInternal.Weighted>
0.6929

> <Gold.Chemscore.Rot.Weighted>
5.4073

> <Gold.Chemscore.Internal.Correction.Weighted>
   9.000000E+99

> <Gold.Protein.RotatedTorsions>
[ 6907 6896 6895 6894 ] final  146.76 input  -60.11 | X-H torsion
[ 7974 7965 7964 7962 ] final  175.11 input  175.53 | X-H torsion
[ 8008 7997 7996 7995 ] final  -42.82 input   59.86 | X-H torsion
[ 10167 10162 10161 10158 ] final  -61.00 input  -65.29 | X-H torsion
[ 10718 10713 10712 10709 ] final -148.70 input   66.30 | X-H torsion
[ 10763 10752 10751 10750 ] final   13.91 input  -60.55 | X-H torsion
[ 11005 11000 10999 10996 ] final   46.99 input  -57.11 | X-H torsion

> <Gold.Protein.ActiveResidues>
 VAL166  LYS551  ARG553  GLY616  TRP617  ASP618  TYR619  PRO620  LYS621  CYS622 
 ASP623  PHE694  ASN695  SER759  ASP760  ASP761  ALA762  ILE779  LEU786  VAL792 
 PHE793  MET794  SER795  GLU796  ALA797  LYS798  CYS799  TRP800  GLU811  SER814 

> <Gold.Protein.RotatedAtoms>
  152.1637  133.4598  159.4873 H   0  0  0  0  0  0  0  0  0  0  0  0  # atno 6907 bound_to 6896
  150.6910  134.2040  159.4342 H   0  0  0  0  0  0  0  0  0  0  0  0  # atno 6908 bound_to 6896
  151.9944  134.9962  160.0613 H   0  0  0  0  0  0  0  0  0  0  0  0  # atno 6909 bound_to 6896
  144.7208  139.9898  143.6440 H   0  0  0  0  0  0  0  0  0  0  0  0  # atno 7974 bound_to 7965
  154.3998  140.1463  156.3417 H   0  0  0  0  0  0  0  0  0  0  0  0  # atno 8008 bound_to 7997
  155.8350  140.3464  155.5575 H   0  0  0  0  0  0  0  0  0  0  0  0  # atno 8009 bound_to 7997
  155.8148  140.0889  157.1874 H   0  0  0  0  0  0  0  0  0  0  0  0  # atno 8010 bound_to 7997
  140.6034  143.2367  151.5876 H   0  0  0  0  0  0  0  0  0  0  0  0  # atno 10167 bound_to 10162
  156.4237  130.8041  151.2265 H   0  0  0  0  0  0  0  0  0  0  0  0  # atno 10718 bound_to 10713
  153.1674  135.6806  153.8656 H   0  0  0  0  0  0  0  0  0  0  0  0  # atno 10763 bound_to 10752
  153.8031  135.3153  155.3393 H   0  0  0  0  0  0  0  0  0  0  0  0  # atno 10764 bound_to 10752
  154.7975  135.4798  154.0286 H   0  0  0  0  0  0  0  0  0  0  0  0  # atno 10765 bound_to 10752
  140.1319  134.4694  155.8515 H   0  0  0  0  0  0  0  0  0  0  0  0  # atno 11005 bound_to 11000
  146.0421  139.3431  143.0691 LP  0  0  0  0  0  0  0  0  0  0  0  0  # atno 17320 bound_to 7965
  145.8322  140.9625  143.0843 LP  0  0  0  0  0  0  0  0  0  0  0  0  # atno 17321 bound_to 7965
  139.5307  144.2923  152.1142 LP  0  0  0  0  0  0  0  0  0  0  0  0  # atno 17342 bound_to 10162
  140.2108  144.4564  150.6386 LP  0  0  0  0  0  0  0  0  0  0  0  0  # atno 17343 bound_to 10162
  157.7508  131.0220  150.3774 LP  0  0  0  0  0  0  0  0  0  0  0  0  # atno 17370 bound_to 10713
  156.4096  130.3931  149.6901 LP  0  0  0  0  0  0  0  0  0  0  0  0  # atno 17371 bound_to 10713
  141.2171  133.6799  156.7085 LP  0  0  0  0  0  0  0  0  0  0  0  0  # atno 17394 bound_to 11000
  140.2831  134.8300  157.3951 LP  0  0  0  0  0  0  0  0  0  0  0  0  # atno 17395 bound_to 11000

$$$$
