AV-unprocessed.smi:990|AV-procd|sdf|4327|dock7
  -GOLD-   22720 2233D 1   1.00000     0.00000
 Structure written by MMmdl.
 45 46  0  0  0  0  0  0  0  0  2 V2000
  150.5534  145.2445  159.8258 C   0  0  0  0  0  0  0  0  0  0  0  0
  151.6704  145.3431  159.0897 C   0  0  0  0  0  0  0  0  0  0  0  0
  152.2401  144.2237  158.2400 C   0  0  0  0  0  0  0  0  0  0  0  0
  151.2894  143.7826  157.2260 N   0  0  0  0  0  0  0  0  0  0  0  0
  150.8359  142.5283  157.0884 C   0  0  0  0  0  0  0  0  0  0  0  0
  151.1896  141.5962  157.8104 O   0  0  0  0  0  0  0  0  0  0  0  0
  149.9720  142.4303  156.0627 N   0  0  0  0  0  0  0  0  0  0  0  0
  149.2661  141.2828  155.6098 C   0  0  0  0  0  0  0  0  0  0  0  0
  148.6597  140.3344  156.4714 C   0  0  0  0  0  0  0  0  0  0  0  0
  147.9716  139.2346  155.9195 C   0  0  0  0  0  0  0  0  0  0  0  0
  147.8895  139.0990  154.5146 C   0  0  0  0  0  0  0  0  0  0  0  0
  147.2356  138.0359  153.8775 N   0  0  0  0  0  0  0  0  0  0  0  0
  146.3292  138.4708  152.8226 C   0  0  0  0  0  0  0  0  0  0  0  0
  145.7654  137.2633  152.0533 C   0  0  0  0  0  0  0  0  0  0  0  0
  145.1358  136.2954  152.9738 N   0  0  0  0  0  0  0  0  0  0  0  0
  144.1226  135.0708  152.2809 S   0  0  0  0  0  0  0  0  0  0  0  0
  144.3829  135.2833  150.4715 C   0  0  0  0  0  0  0  0  0  0  0  0
  144.6769  133.7625  152.6614 O   0  0  0  0  0  0  0  0  0  0  0  0
  142.7286  135.4030  152.6119 O   0  0  0  0  0  0  0  0  0  0  0  0
  146.0184  135.9015  154.0901 C   0  0  0  0  0  0  0  0  0  0  0  0
  146.5772  137.1372  154.8166 C   0  0  0  0  0  0  0  0  0  0  0  0
  148.4669  140.0338  153.7286 N   0  3  0  0  0  0  0  0  0  0  0  0
  149.1338  141.1023  154.2168 C   0  0  0  0  0  0  0  0  0  0  0  0
  149.9804  144.3294  159.8582 H   0  0  0  0  0  0  0  0  0  0  0  0
  150.1972  146.0821  160.4071 H   0  0  0  0  0  0  0  0  0  0  0  0
  152.2124  146.2779  159.0803 H   0  0  0  0  0  0  0  0  0  0  0  0
  153.1516  144.5582  157.7436 H   0  0  0  0  0  0  0  0  0  0  0  0
  152.5208  143.3903  158.8861 H   0  0  0  0  0  0  0  0  0  0  0  0
  150.9513  144.4864  156.5857 H   0  0  0  0  0  0  0  0  0  0  0  0
  149.8457  143.2648  155.5087 H   0  0  0  0  0  0  0  0  0  0  0  0
  148.6972  140.4328  157.5451 H   0  0  0  0  0  0  0  0  0  0  0  0
  147.5128  138.5077  156.5735 H   0  0  0  0  0  0  0  0  0  0  0  0
  145.5082  139.0458  153.2534 H   0  0  0  0  0  0  0  0  0  0  0  0
  146.8562  139.1336  152.1351 H   0  0  0  0  0  0  0  0  0  0  0  0
  145.0352  137.6121  151.3235 H   0  0  0  0  0  0  0  0  0  0  0  0
  146.5573  136.7601  151.4967 H   0  0  0  0  0  0  0  0  0  0  0  0
  143.8473  134.4985  149.9378 H   0  0  0  0  0  0  0  0  0  0  0  0
  145.4463  135.2101  150.2448 H   0  0  0  0  0  0  0  0  0  0  0  0
  144.0050  136.2519  150.1479 H   0  0  0  0  0  0  0  0  0  0  0  0
  145.4702  135.2810  154.7974 H   0  0  0  0  0  0  0  0  0  0  0  0
  146.8336  135.2908  153.6991 H   0  0  0  0  0  0  0  0  0  0  0  0
  147.2864  136.8246  155.5843 H   0  0  0  0  0  0  0  0  0  0  0  0
  145.7672  137.6624  155.3250 H   0  0  0  0  0  0  0  0  0  0  0  0
  149.5471  141.7739  153.4778 H   0  0  0  0  0  0  0  0  0  0  0  0
  148.3965  139.9275  152.7161 H   0  0  0  0  0  0  0  0  0  0  0  0
  1  2  2  0  0  0  0
  1 24  1  0  0  0  0
  1 25  1  0  0  0  0
  2  3  1  0  0  0  0
  2 26  1  0  0  0  0
  3  4  1  0  0  0  0
  3 27  1  0  0  0  0
  3 28  1  0  0  0  0
  4  5  1  0  0  0  0
  4 29  1  0  0  0  0
  5  6  2  0  0  0  0
  5  7  1  0  0  0  0
  7  8  1  0  0  0  0
  7 30  1  0  0  0  0
  8 23  1  0  0  0  0
  8  9  2  0  0  0  0
  9 10  1  0  0  0  0
  9 31  1  0  0  0  0
 10 11  2  0  0  0  0
 10 32  1  0  0  0  0
 11 12  1  0  0  0  0
 11 22  1  0  0  0  0
 12 21  1  0  0  0  0
 12 13  1  0  0  0  0
 13 14  1  0  0  0  0
 13 33  1  0  0  0  0
 13 34  1  0  0  0  0
 14 15  1  0  0  0  0
 14 35  1  0  0  0  0
 14 36  1  0  0  0  0
 15 16  1  0  0  0  0
 15 20  1  0  0  0  0
 16 17  1  0  0  0  0
 16 18  2  0  0  0  0
 16 19  2  0  0  0  0
 17 37  1  0  0  0  0
 17 38  1  0  0  0  0
 17 39  1  0  0  0  0
 20 21  1  0  0  0  0
 20 40  1  0  0  0  0
 20 41  1  0  0  0  0
 21 42  1  0  0  0  0
 21 43  1  0  0  0  0
 22 23  2  0  0  0  0
 22 45  1  0  0  0  0
 23 44  1  0  0  0  0
M  CHG  1  22   1
M  END
> <s_m_source_file>
AV-unprocessed.smi

> <i_m_source_file_index>
990

> <i_lp_mmshare_version>
43012

> <i_f3d_flags>
0

> <s_epik_input>
W0NIMl09W0NIXVtDSDJdW05IXUMoPU8pW05IXWMxW2NIXVtjSF1jKG5bY0hdMSlOMltDSDJdW0NIMl1OKFMoPU8pKD1PKVtDSDNdKVtDSDJdW0NIMl0y

> <s_epik_cmdline>
J2VwaWtfcHl0aG9uJywgJy1waCcsICc3LjAnLCAnLXRuJywgJzgnLCAnLW1hJywgJzIwMCcsICctbWV0YWxfYmluZGluZycsICctaW1hZScsICc8aW5maWxlLm1hZT4nLCAnLW9tYWUnLCAnPG91dGZpbGUubWFlPic=

> <r_lp_tautomer_probability>
0.999994

> <r_epik_Ionization_Penalty>
0.881759

> <r_epik_Ionization_Penalty_Charging>
0.881739

> <r_epik_Ionization_Penalty_Neutral>
2.00436e-05

> <r_epik_State_Penalty>
0.920006

> <r_epik_Charging_Adjusted_Penalty>
1.80175

> <i_epik_Tot_Q>
1

> <i_epik_Tot_abs_Q>
1

> <r_epik_Metal_State_Penalty>
1.04263

> <b_epik_Metal_Only>
0

> <s_lp_Force_Field>
OPLS_2005

> <r_lp_Energy>
28.5026

> <b_lp_Chiralities_Consistent>
1

> <s_lp_Variant>
AV-unprocessed.smi:990-2

> <Gold.Version>
5.8.1

> <Gold.Id.Protein>
6NUR|6NUR_protein|mol2

> <Gold.PLP.Fitness>
40.9681

> <Gold.PLP.PLP>
-35.6071

> <Gold.PLP.part.hbond>
-3.0000

> <Gold.PLP.part.metal>
0.0000

> <Gold.PLP.part.buried>
-5.0291

> <Gold.PLP.part.nonpolar>
-29.6618

> <Gold.PLP.part.repulsive>
1.5297

> <Gold.PLP.ligand.clash>
0.0145

> <Gold.PLP.ligand.torsion>
0.7900

> <Gold.PLP.Chemscore.Hbond>
2.0797

> <Gold.PLP.Chemscore.CHOScore>
0.0000

> <Gold.PLP.Chemscore.Metal>
0.0000

> <Gold.Chemscore.Hbonds>
donor molecule, donor type, donor heavy atom, donor atom, acceptor molecule, acceptor atom, score
      L1  H     4    29       P1  8028  0.29
      L1  H     7    30       P1  8028  0.72
      L1  H    22    45       P1  7957  0.77

> <Gold.PLP.Chemscore.Internal.Correction>
0.7165

> <Gold.Rescore>
     Score         DG    S(hbond)    S(metal)    S(lipo)     H(rot)  DE(clash)    DE(int)     intcor
     15.60     -17.10       2.17        0.00      76.05       1.77       0.63       0.88       ----

> <Gold.Chemscore.Fitness>
15.6010

> <Gold.Chemscore.DG>
-17.1036

> <Gold.Chemscore.ZeroCoef>
-5.4800

> <Gold.Chemscore.Hbond>
2.1744

> <Gold.Chemscore.Metal>
0.0000

> <Gold.Chemscore.Lipo>
76.0523

> <Gold.Chemscore.Internal_Hbond>
0.0000

> <Gold.Chemscore.DEClash>
0.6253

> <Gold.Chemscore.DEInternal>
0.8772

> <Gold.Chemscore.Rot>
1.7723

> <Gold.Chemscore.Internal.Correction>
   9.000000E+99

> <Gold.Chemscore.Hbonds>
donor molecule, donor type, donor heavy atom, donor atom, acceptor molecule, acceptor atom, score
      L1  H     4    29       P1  8028  0.29
      L1  H     7    30       P1  8028  0.72
      L1  H    22    45       P1  7957  0.74

> <Gold.Chemscore.Hbond.Weighted>
-7.2626

> <Gold.Chemscore.Metal.Weighted>
-0.0000

> <Gold.Chemscore.Lipo.Weighted>
-8.8981

> <Gold.Chemscore.Internal_Hbond.Weighted>
0.0000

> <Gold.Chemscore.DEClash.Weighted>
0.6253

> <Gold.Chemscore.DEInternal.Weighted>
0.8772

> <Gold.Chemscore.Rot.Weighted>
4.5371

> <Gold.Chemscore.Internal.Correction.Weighted>
   9.000000E+99

> <Gold.Protein.RotatedTorsions>
[ 6907 6896 6895 6894 ] final   96.30 input  -60.11 | X-H torsion
[ 7974 7965 7964 7962 ] final -165.26 input  175.53 | X-H torsion
[ 8008 7997 7996 7995 ] final  -73.06 input   59.86 | X-H torsion
[ 10167 10162 10161 10158 ] final  144.71 input  -65.29 | X-H torsion
[ 10718 10713 10712 10709 ] final  -84.65 input   66.30 | X-H torsion
[ 10763 10752 10751 10750 ] final   -6.15 input  -60.55 | X-H torsion
[ 11005 11000 10999 10996 ] final   87.80 input  -57.11 | X-H torsion

> <Gold.Protein.ActiveResidues>
 VAL166  LYS551  ARG553  GLY616  TRP617  ASP618  TYR619  PRO620  LYS621  CYS622 
 ASP623  PHE694  ASN695  SER759  ASP760  ASP761  ALA762  ILE779  LEU786  VAL792 
 PHE793  MET794  SER795  GLU796  ALA797  LYS798  CYS799  TRP800  GLU811  SER814 

> <Gold.Protein.RotatedAtoms>
  152.5436  134.0908  159.8275 H   0  0  0  0  0  0  0  0  0  0  0  0  # atno 6907 bound_to 6896
  151.0997  133.5245  159.2618 H   0  0  0  0  0  0  0  0  0  0  0  0  # atno 6908 bound_to 6896
  151.2005  135.0449  159.8924 H   0  0  0  0  0  0  0  0  0  0  0  0  # atno 6909 bound_to 6896
  144.7274  140.2840  143.6231 H   0  0  0  0  0  0  0  0  0  0  0  0  # atno 7974 bound_to 7965
  154.5216  140.0786  156.8182 H   0  0  0  0  0  0  0  0  0  0  0  0  # atno 8008 bound_to 7997
  155.3563  140.3415  155.4222 H   0  0  0  0  0  0  0  0  0  0  0  0  # atno 8009 bound_to 7997
  156.1687  140.1612  156.8472 H   0  0  0  0  0  0  0  0  0  0  0  0  # atno 8010 bound_to 7997
  139.4941  144.5953  151.6596 H   0  0  0  0  0  0  0  0  0  0  0  0  # atno 10167 bound_to 10162
  156.0004  130.4705  150.4441 H   0  0  0  0  0  0  0  0  0  0  0  0  # atno 10718 bound_to 10713
  153.4083  135.7007  153.6377 H   0  0  0  0  0  0  0  0  0  0  0  0  # atno 10763 bound_to 10752
  153.4882  135.3678  155.2478 H   0  0  0  0  0  0  0  0  0  0  0  0  # atno 10764 bound_to 10752
  154.8715  135.4082  154.3431 H   0  0  0  0  0  0  0  0  0  0  0  0  # atno 10765 bound_to 10752
  139.8911  134.8446  156.2910 H   0  0  0  0  0  0  0  0  0  0  0  0  # atno 11005 bound_to 11000
  145.7921  139.1931  143.2097 LP  0  0  0  0  0  0  0  0  0  0  0  0  # atno 17320 bound_to 7965
  146.0747  140.7830  142.9671 LP  0  0  0  0  0  0  0  0  0  0  0  0  # atno 17321 bound_to 7965
  140.5589  144.0301  150.6160 LP  0  0  0  0  0  0  0  0  0  0  0  0  # atno 17342 bound_to 10162
  140.3381  143.3036  152.0617 LP  0  0  0  0  0  0  0  0  0  0  0  0  # atno 17343 bound_to 10162
  157.2480  131.0540  151.2396 LP  0  0  0  0  0  0  0  0  0  0  0  0  # atno 17370 bound_to 10713
  157.3556  130.7104  149.6468 LP  0  0  0  0  0  0  0  0  0  0  0  0  # atno 17371 bound_to 10713
  140.9976  133.7171  156.0910 LP  0  0  0  0  0  0  0  0  0  0  0  0  # atno 17394 bound_to 11000
  140.7541  134.4012  157.5536 LP  0  0  0  0  0  0  0  0  0  0  0  0  # atno 17395 bound_to 11000

$$$$
