AV-unprocessed.smi:3185|AV-procd|sdf|12172|dock6
  -GOLD-   2272018 13D 1   1.00000     0.00000
 Structure written by MMmdl.
 37 38  0  0  0  0  0  0  0  0  1 V2000
  151.3498  136.4237  154.3934 N   0  0  0  0  0  0  0  0  0  0  0  0
  151.2165  137.5671  154.5088 C   0  0  0  0  0  0  0  0  0  0  0  0
  151.0470  139.0203  154.6562 C   0  0  0  0  0  0  0  0  0  0  0  0
  151.9976  139.6194  155.7007 C   0  0  0  0  0  0  0  0  0  0  0  0
  151.4353  140.8790  156.3726 C   0  0  0  0  0  0  0  0  0  0  0  0
  151.8208  140.8984  157.7762 N   0  0  0  0  0  0  0  0  0  0  0  0
  152.2271  142.2302  158.2168 C   0  0  1  0  0  0  0  0  0  0  0  0
  151.1373  143.2670  157.8595 C   0  0  0  0  0  0  0  0  0  0  0  0
  151.4771  144.6602  158.4110 C   0  0  0  0  0  0  0  0  0  0  0  0
  151.7069  144.6181  159.9279 C   0  0  0  0  0  0  0  0  0  0  0  0
  152.8024  143.6048  160.2881 C   0  0  0  0  0  0  0  0  0  0  0  0
  152.4702  142.1980  159.7488 C   0  0  2  0  0  0  0  0  0  0  0  0
  153.5084  141.2446  160.1232 N   0  0  0  0  0  0  0  0  0  0  0  0
  153.9991  140.9754  161.3843 C   0  0  0  0  0  0  0  0  0  0  0  0
  154.9574  140.0116  161.2538 C   0  0  0  0  0  0  0  0  0  0  0  0
  154.9862  139.7516  159.8555 C   0  0  0  0  0  0  0  0  0  0  0  0
  154.1190  140.4892  159.1818 N   0  0  0  0  0  0  0  0  0  0  0  0
  151.2125  139.4778  153.6806 H   0  0  0  0  0  0  0  0  0  0  0  0
  150.0079  139.2049  154.9294 H   0  0  0  0  0  0  0  0  0  0  0  0
  152.2446  138.8713  156.4553 H   0  0  0  0  0  0  0  0  0  0  0  0
  152.9372  139.8748  155.2100 H   0  0  0  0  0  0  0  0  0  0  0  0
  151.8434  141.7608  155.8771 H   0  0  0  0  0  0  0  0  0  0  0  0
  150.3518  140.9139  156.2619 H   0  0  0  0  0  0  0  0  0  0  0  0
  152.6024  140.2701  157.8995 H   0  0  0  0  0  0  0  0  0  0  0  0
  153.1615  142.5042  157.7243 H   0  0  0  0  0  0  0  0  0  0  0  0
  151.0116  143.3406  156.7798 H   0  0  0  0  0  0  0  0  0  0  0  0
  150.1749  142.9466  158.2611 H   0  0  0  0  0  0  0  0  0  0  0  0
  152.3711  145.0406  157.9157 H   0  0  0  0  0  0  0  0  0  0  0  0
  150.6732  145.3587  158.1768 H   0  0  0  0  0  0  0  0  0  0  0  0
  151.9843  145.6090  160.2893 H   0  0  0  0  0  0  0  0  0  0  0  0
  150.7781  144.3517  160.4339 H   0  0  0  0  0  0  0  0  0  0  0  0
  153.7540  143.9482  159.8797 H   0  0  0  0  0  0  0  0  0  0  0  0
  152.9262  143.5694  161.3710 H   0  0  0  0  0  0  0  0  0  0  0  0
  151.5477  141.8709  160.2327 H   0  0  0  0  0  0  0  0  0  0  0  0
  153.6281  141.4851  162.2614 H   0  0  0  0  0  0  0  0  0  0  0  0
  155.5482  139.5616  162.0378 H   0  0  0  0  0  0  0  0  0  0  0  0
  155.6068  139.0532  159.3137 H   0  0  0  0  0  0  0  0  0  0  0  0
  1  2  3  0  0  0  0
  2  3  1  0  0  0  0
  3  4  1  0  0  0  0
  3 18  1  0  0  0  0
  3 19  1  0  0  0  0
  4  5  1  0  0  0  0
  4 20  1  0  0  0  0
  4 21  1  0  0  0  0
  5  6  1  0  0  0  0
  5 22  1  0  0  0  0
  5 23  1  0  0  0  0
  6  7  1  0  0  0  0
  6 24  1  0  0  0  0
  7 12  1  0  0  0  0
  7  8  1  0  0  0  0
  7 25  1  0  0  0  0
  8  9  1  0  0  0  0
  8 26  1  0  0  0  0
  8 27  1  0  0  0  0
  9 10  1  0  0  0  0
  9 28  1  0  0  0  0
  9 29  1  0  0  0  0
 10 11  1  0  0  0  0
 10 30  1  0  0  0  0
 10 31  1  0  0  0  0
 11 12  1  0  0  0  0
 11 32  1  0  0  0  0
 11 33  1  0  0  0  0
 12 13  1  0  0  0  0
 12 34  1  0  0  0  0
 13 17  1  0  0  0  0
 13 14  1  0  0  0  0
 14 15  2  0  0  0  0
 14 35  1  0  0  0  0
 15 16  1  0  0  0  0
 15 36  1  0  0  0  0
 16 17  2  0  0  0  0
 16 37  1  0  0  0  0
M  END
> <s_m_source_file>
AV-unprocessed.smi

> <i_m_source_file_index>
3185

> <i_lp_mmshare_version>
43012

> <i_f3d_flags>
0

> <s_epik_input>
TiNDW0NIMl1bQ0gyXVtDSDJdW05IXVtDQEBIXTFbQ0gyXVtDSDJdW0NIMl1bQ0gyXVtDQEhdMW4yW2NIXVtjSF1bY0hdbjI=

> <s_epik_cmdline>
J2VwaWtfcHl0aG9uJywgJy1waCcsICc3LjAnLCAnLXRuJywgJzgnLCAnLW1hJywgJzIwMCcsICctbWV0YWxfYmluZGluZycsICctaW1hZScsICc8aW5maWxlLm1hZT4nLCAnLW9tYWUnLCAnPG91dGZpbGUubWFlPic=

> <r_lp_tautomer_probability>
1

> <r_epik_Ionization_Penalty>
2.21326

> <r_epik_Ionization_Penalty_Charging>
0

> <r_epik_Ionization_Penalty_Neutral>
2.21326

> <r_epik_State_Penalty>
2.35651

> <r_epik_Charging_Adjusted_Penalty>
2.35651

> <i_epik_Tot_Q>
0

> <i_epik_Tot_abs_Q>
0

> <r_epik_Metal_State_Penalty>
2.3555

> <b_epik_Metal_Only>
0

> <s_lp_Force_Field>
OPLS_2005

> <r_lp_Energy>
16.6477

> <b_lp_Chiralities_Consistent>
1

> <s_lp_Variant>
AV-unprocessed.smi:3185-8

> <Gold.Version>
5.8.1

> <Gold.Id.Protein>
6NUR|6NUR_protein|mol2

> <Gold.PLP.Fitness>
44.6394

> <Gold.PLP.PLP>
-42.1400

> <Gold.PLP.part.hbond>
-2.0000

> <Gold.PLP.part.metal>
0.0000

> <Gold.PLP.part.buried>
-4.5993

> <Gold.PLP.part.nonpolar>
-36.0015

> <Gold.PLP.part.repulsive>
1.0465

> <Gold.PLP.ligand.clash>
0.0000

> <Gold.PLP.ligand.torsion>
0.7845

> <Gold.PLP.Chemscore.Hbond>
1.3407

> <Gold.PLP.Chemscore.CHOScore>
0.0000

> <Gold.PLP.Chemscore.Metal>
0.0000

> <Gold.Chemscore.Hbonds>
donor molecule, donor type, donor heavy atom, donor atom, acceptor molecule, acceptor atom, score
      P1  H  7997  8010       L1    17  0.34
      P1  H 10752 10765       L1     1  1.00

> <Gold.PLP.Chemscore.Internal.Correction>
0.0463

> <Gold.Rescore>
     Score         DG    S(hbond)    S(metal)    S(lipo)     H(rot)  DE(clash)    DE(int)     intcor
     15.68     -17.96       1.11        0.00     114.58       1.81       0.07       2.21       ----

> <Gold.Chemscore.Fitness>
15.6847

> <Gold.Chemscore.DG>
-17.9586

> <Gold.Chemscore.ZeroCoef>
-5.4800

> <Gold.Chemscore.Hbond>
1.1104

> <Gold.Chemscore.Metal>
0.0000

> <Gold.Chemscore.Lipo>
114.5825

> <Gold.Chemscore.Internal_Hbond>
0.0000

> <Gold.Chemscore.DEClash>
0.0669

> <Gold.Chemscore.DEInternal>
2.2070

> <Gold.Chemscore.Rot>
1.8110

> <Gold.Chemscore.Internal.Correction>
   9.000000E+99

> <Gold.Chemscore.Hbonds>
donor molecule, donor type, donor heavy atom, donor atom, acceptor molecule, acceptor atom, score
      P1  H  7997  8010       L1    17  0.02
      P1  H 10752 10765       L1     1  0.99

> <Gold.Chemscore.Hbond.Weighted>
-3.7087

> <Gold.Chemscore.Metal.Weighted>
-0.0000

> <Gold.Chemscore.Lipo.Weighted>
-13.4061

> <Gold.Chemscore.Internal_Hbond.Weighted>
0.0000

> <Gold.Chemscore.DEClash.Weighted>
0.0669

> <Gold.Chemscore.DEInternal.Weighted>
2.2070

> <Gold.Chemscore.Rot.Weighted>
4.6362

> <Gold.Chemscore.Internal.Correction.Weighted>
   9.000000E+99

> <Gold.Protein.RotatedTorsions>
[ 6907 6896 6895 6894 ] final -176.44 input  -60.11 | X-H torsion
[ 7974 7965 7964 7962 ] final   14.99 input  175.53 | X-H torsion
[ 8008 7997 7996 7995 ] final    2.25 input   59.86 | X-H torsion
[ 10167 10162 10161 10158 ] final  170.11 input  -65.29 | X-H torsion
[ 10718 10713 10712 10709 ] final  135.02 input   66.30 | X-H torsion
[ 10763 10752 10751 10750 ] final  174.07 input  -60.55 | X-H torsion
[ 11005 11000 10999 10996 ] final  -74.10 input  -57.11 | X-H torsion

> <Gold.Protein.ActiveResidues>
 VAL166  LYS551  ARG553  GLY616  TRP617  ASP618  TYR619  PRO620  LYS621  CYS622 
 ASP623  PHE694  ASN695  SER759  ASP760  ASP761  ALA762  ILE779  LEU786  VAL792 
 PHE793  MET794  SER795  GLU796  ALA797  LYS798  CYS799  TRP800  GLU811  SER814 

> <Gold.Protein.RotatedAtoms>
  151.6048  133.3353  159.3054 H   0  0  0  0  0  0  0  0  0  0  0  0  # atno 6907 bound_to 6896
  150.8188  134.7388  159.6765 H   0  0  0  0  0  0  0  0  0  0  0  0  # atno 6908 bound_to 6896
  152.4283  134.5833  160.0005 H   0  0  0  0  0  0  0  0  0  0  0  0  # atno 6909 bound_to 6896
  146.2290  139.8960  142.8547 H   0  0  0  0  0  0  0  0  0  0  0  0  # atno 7974 bound_to 7965
  154.6893  140.2649  155.6828 H   0  0  0  0  0  0  0  0  0  0  0  0  # atno 8008 bound_to 7997
  156.2726  140.2794  156.1389 H   0  0  0  0  0  0  0  0  0  0  0  0  # atno 8009 bound_to 7997
  155.0919  140.0373  157.2661 H   0  0  0  0  0  0  0  0  0  0  0  0  # atno 8010 bound_to 7997
  139.5010  144.3632  151.9803 H   0  0  0  0  0  0  0  0  0  0  0  0  # atno 10167 bound_to 10162
  157.4613  131.1073  150.9916 H   0  0  0  0  0  0  0  0  0  0  0  0  # atno 10718 bound_to 10713
  154.4488  135.2764  155.1796 H   0  0  0  0  0  0  0  0  0  0  0  0  # atno 10763 bound_to 10752
  154.3631  135.6125  153.5705 H   0  0  0  0  0  0  0  0  0  0  0  0  # atno 10764 bound_to 10752
  152.9845  135.5839  154.4829 H   0  0  0  0  0  0  0  0  0  0  0  0  # atno 10765 bound_to 10752
  141.1631  133.6900  156.7313 H   0  0  0  0  0  0  0  0  0  0  0  0  # atno 11005 bound_to 11000
  145.2370  140.9995  143.3957 LP  0  0  0  0  0  0  0  0  0  0  0  0  # atno 17320 bound_to 7965
  144.9483  139.4111  143.6415 LP  0  0  0  0  0  0  0  0  0  0  0  0  # atno 17321 bound_to 7965
  140.3068  144.3583  150.6044 LP  0  0  0  0  0  0  0  0  0  0  0  0  # atno 17342 bound_to 10162
  140.5830  143.2171  151.7394 LP  0  0  0  0  0  0  0  0  0  0  0  0  # atno 17343 bound_to 10162
  157.0712  130.5865  149.5403 LP  0  0  0  0  0  0  0  0  0  0  0  0  # atno 17370 bound_to 10713
  156.0030  130.5112  150.7731 LP  0  0  0  0  0  0  0  0  0  0  0  0  # atno 17371 bound_to 10713
  140.2743  134.8367  157.3876 LP  0  0  0  0  0  0  0  0  0  0  0  0  # atno 17394 bound_to 11000
  140.1492  134.4871  155.7974 LP  0  0  0  0  0  0  0  0  0  0  0  0  # atno 17395 bound_to 11000

$$$$
