AV-unprocessed.smi:1046|AV-procd|sdf|4559|dock1
  -GOLD-   22720 2593D 1   1.00000     0.00000
 Structure written by MMmdl.
 54 56  0  0  0  0  0  0  0  0  3 V2000
  152.3652  144.0138  160.0369 C   0  0  0  0  0  0  0  0  0  0  0  0
  152.0763  142.9295  159.0126 C   0  0  0  0  0  0  0  0  0  0  0  0
  151.1412  143.2014  157.9885 C   0  0  0  0  0  0  0  0  0  0  0  0
  150.9008  142.1915  157.0644 C   0  0  0  0  0  0  0  0  0  0  0  0
  150.0540  142.1503  155.9546 N   0  3  0  0  0  0  0  0  0  0  0  0
  150.1607  140.9369  155.3459 C   0  0  0  0  0  0  0  0  0  0  0  0
  151.0621  140.2011  156.0514 N   0  0  0  0  0  0  0  0  0  0  0  0
  151.5383  138.8291  155.8234 C   0  0  0  0  0  0  0  0  0  0  0  0
  150.9587  138.2042  154.5385 C   0  0  1  0  0  0  0  0  0  0  0  0
  151.9535  137.4930  153.8289 O   0  0  0  0  0  0  0  0  0  0  0  0
  149.7254  137.2907  154.7199 C   0  0  0  0  0  0  0  0  0  0  0  0
  149.7820  136.3349  155.8360 N   0  0  0  0  0  0  0  0  0  0  0  0
  148.4740  135.8498  156.2946 C   0  0  0  0  0  0  0  0  0  0  0  0
  147.7881  134.8797  155.3079 C   0  0  0  0  0  0  0  0  0  0  0  0
  148.6774  133.7312  154.9993 N   0  3  0  0  0  0  0  0  0  0  0  0
  148.0357  132.7415  154.0977 C   0  0  0  0  0  0  0  0  0  0  0  0
  147.9033  133.2557  152.6539 C   0  0  0  0  0  0  0  0  0  0  0  0
  147.5110  132.2017  151.8005 O   0  0  0  0  0  0  0  0  0  0  0  0
  149.9974  134.2118  154.5148 C   0  0  0  0  0  0  0  0  0  0  0  0
  150.6207  135.1715  155.5464 C   0  0  0  0  0  0  0  0  0  0  0  0
  151.5509  140.9440  157.1333 C   0  0  0  0  0  0  0  0  0  0  0  0
  152.4748  140.6603  158.1366 C   0  0  0  0  0  0  0  0  0  0  0  0
  152.7362  141.6755  159.0841 C   0  0  0  0  0  0  0  0  0  0  0  0
  153.7453  141.3955  160.1847 C   0  0  0  0  0  0  0  0  0  0  0  0
  151.7204  144.8809  159.8922 H   0  0  0  0  0  0  0  0  0  0  0  0
  153.3994  144.3487  159.9553 H   0  0  0  0  0  0  0  0  0  0  0  0
  152.1990  143.6436  161.0488 H   0  0  0  0  0  0  0  0  0  0  0  0
  150.6374  144.1547  157.9259 H   0  0  0  0  0  0  0  0  0  0  0  0
  149.6260  140.6172  154.4631 H   0  0  0  0  0  0  0  0  0  0  0  0
  152.6277  138.8396  155.8082 H   0  0  0  0  0  0  0  0  0  0  0  0
  151.2396  138.2399  156.6911 H   0  0  0  0  0  0  0  0  0  0  0  0
  150.6505  139.0219  153.8856 H   0  0  0  0  0  0  0  0  0  0  0  0
  151.6218  137.2886  152.9679 H   0  0  0  0  0  0  0  0  0  0  0  0
  148.8301  137.9067  154.7929 H   0  0  0  0  0  0  0  0  0  0  0  0
  149.6083  136.7413  153.7846 H   0  0  0  0  0  0  0  0  0  0  0  0
  148.6067  135.3376  157.2487 H   0  0  0  0  0  0  0  0  0  0  0  0
  147.8013  136.6773  156.5039 H   0  0  0  0  0  0  0  0  0  0  0  0
  146.8641  134.5113  155.7550 H   0  0  0  0  0  0  0  0  0  0  0  0
  147.5051  135.3879  154.3857 H   0  0  0  0  0  0  0  0  0  0  0  0
  148.6227  131.8217  154.0823 H   0  0  0  0  0  0  0  0  0  0  0  0
  147.0565  132.4703  154.4948 H   0  0  0  0  0  0  0  0  0  0  0  0
  147.1388  134.0318  152.6090 H   0  0  0  0  0  0  0  0  0  0  0  0
  148.8264  133.7031  152.2877 H   0  0  0  0  0  0  0  0  0  0  0  0
  148.2878  131.7889  151.4532 H   0  0  0  0  0  0  0  0  0  0  0  0
  150.6725  133.3707  154.3625 H   0  0  0  0  0  0  0  0  0  0  0  0
  149.8843  134.7049  153.5480 H   0  0  0  0  0  0  0  0  0  0  0  0
  151.6029  135.4988  155.2034 H   0  0  0  0  0  0  0  0  0  0  0  0
  150.8019  134.6243  156.4727 H   0  0  0  0  0  0  0  0  0  0  0  0
  152.9826  139.7086  158.1885 H   0  0  0  0  0  0  0  0  0  0  0  0
  154.1969  140.4096  160.0709 H   0  0  0  0  0  0  0  0  0  0  0  0
  153.2641  141.4315  161.1623 H   0  0  0  0  0  0  0  0  0  0  0  0
  154.5485  142.1324  160.1658 H   0  0  0  0  0  0  0  0  0  0  0  0
  148.8379  133.2560  155.8763 H   0  0  0  0  0  0  0  0  0  0  0  0
  149.4474  142.8941  155.6339 H   0  0  0  0  0  0  0  0  0  0  0  0
  1  2  1  0  0  0  0
  1 25  1  0  0  0  0
  1 26  1  0  0  0  0
  1 27  1  0  0  0  0
  2 23  1  0  0  0  0
  2  3  2  0  0  0  0
  3  4  1  0  0  0  0
  3 28  1  0  0  0  0
  4 21  2  0  0  0  0
  4  5  1  0  0  0  0
  5  6  2  0  0  0  0
  5 54  1  0  0  0  0
  6  7  1  0  0  0  0
  6 29  1  0  0  0  0
  7  8  1  0  0  0  0
  7 21  1  0  0  0  0
  8  9  1  0  0  0  0
  8 30  1  0  0  0  0
  8 31  1  0  0  0  0
  9 10  1  0  0  0  0
  9 11  1  0  0  0  0
  9 32  1  0  0  0  0
 10 33  1  0  0  0  0
 11 12  1  0  0  0  0
 11 34  1  0  0  0  0
 11 35  1  0  0  0  0
 12 20  1  0  0  0  0
 12 13  1  0  0  0  0
 13 14  1  0  0  0  0
 13 36  1  0  0  0  0
 13 37  1  0  0  0  0
 14 15  1  0  0  0  0
 14 38  1  0  0  0  0
 14 39  1  0  0  0  0
 15 16  1  0  0  0  0
 15 19  1  0  0  0  0
 15 53  1  0  0  0  0
 16 17  1  0  0  0  0
 16 40  1  0  0  0  0
 16 41  1  0  0  0  0
 17 18  1  0  0  0  0
 17 42  1  0  0  0  0
 17 43  1  0  0  0  0
 18 44  1  0  0  0  0
 19 20  1  0  0  0  0
 19 45  1  0  0  0  0
 19 46  1  0  0  0  0
 20 47  1  0  0  0  0
 20 48  1  0  0  0  0
 21 22  1  0  0  0  0
 22 23  2  0  0  0  0
 22 49  1  0  0  0  0
 23 24  1  0  0  0  0
 24 50  1  0  0  0  0
 24 51  1  0  0  0  0
 24 52  1  0  0  0  0
M  CHG  1   5   1
M  CHG  1  15   1
M  END
> <s_m_source_file>
AV-unprocessed.smi

> <i_m_source_file_index>
1046

> <i_lp_mmshare_version>
43012

> <i_f3d_flags>
0

> <s_epik_input>
W0NIM11jKFtjSF0xKWMoW0NIM10pW2NIXWMoYzEyKW4oW2NIXW4yKVtDSDJdW0NASF0oW09IXSlbQ0gyXU4zW0NIMl1bQ0gyXU4oW0NIMl1bQ0gyXTMpW0NIMl1bQ0gyXVtPSF0=

> <s_epik_cmdline>
J2VwaWtfcHl0aG9uJywgJy1waCcsICc3LjAnLCAnLXRuJywgJzgnLCAnLW1hJywgJzIwMCcsICctbWV0YWxfYmluZGluZycsICctaW1hZScsICc8aW5maWxlLm1hZT4nLCAnLW9tYWUnLCAnPG91dGZpbGUubWFlPic=

> <r_epik_Ionization_Penalty>
1.37806

> <r_epik_Ionization_Penalty_Charging>
1.32954

> <r_epik_Ionization_Penalty_Neutral>
0.0485178

> <r_epik_State_Penalty>
2.26587

> <r_epik_Charging_Adjusted_Penalty>
3.59541

> <i_epik_Tot_Q>
2

> <i_epik_Tot_abs_Q>
2

> <r_epik_Metal_State_Penalty>
6.27317

> <b_epik_Metal_Only>
0

> <s_lp_Force_Field>
OPLS_2005

> <r_lp_Energy>
47.9713

> <b_lp_Chiralities_Consistent>
1

> <s_lp_Variant>
AV-unprocessed.smi:1046-12

> <Gold.Version>
5.8.1

> <Gold.Id.Protein>
6NUR|6NUR_protein|mol2

> <Gold.PLP.Fitness>
56.6761

> <Gold.PLP.PLP>
-45.5009

> <Gold.PLP.part.hbond>
-4.0000

> <Gold.PLP.part.metal>
0.0000

> <Gold.PLP.part.buried>
-2.8089

> <Gold.PLP.part.nonpolar>
-37.3672

> <Gold.PLP.part.repulsive>
0.2053

> <Gold.PLP.ligand.clash>
0.0000

> <Gold.PLP.ligand.torsion>
0.9936

> <Gold.PLP.Chemscore.Hbond>
4.2505

> <Gold.PLP.Chemscore.CHOScore>
0.0000

> <Gold.PLP.Chemscore.Metal>
0.0000

> <Gold.Chemscore.Hbonds>
donor molecule, donor type, donor heavy atom, donor atom, acceptor molecule, acceptor atom, score
      L1  H     5    54       P1  8028  2.00
      L1  H    10    33       P1  7949  1.00
      L1  H    18    44       P1 10747  0.99
      P1  H 10752 10765       L1    10  0.23

> <Gold.PLP.Chemscore.Internal.Correction>
0.4108

> <Gold.Rescore>
     Score         DG    S(hbond)    S(metal)    S(lipo)     H(rot)  DE(clash)    DE(int)     intcor
     19.44     -20.52       2.85        0.00     119.15       3.29       0.11       0.97       ----

> <Gold.Chemscore.Fitness>
19.4428

> <Gold.Chemscore.DG>
-20.5163

> <Gold.Chemscore.ZeroCoef>
-5.4800

> <Gold.Chemscore.Hbond>
2.8495

> <Gold.Chemscore.Metal>
0.0000

> <Gold.Chemscore.Lipo>
119.1491

> <Gold.Chemscore.Internal_Hbond>
0.0000

> <Gold.Chemscore.DEClash>
0.1081

> <Gold.Chemscore.DEInternal>
0.9653

> <Gold.Chemscore.Rot>
3.2896

> <Gold.Chemscore.Internal.Correction>
   9.000000E+99

> <Gold.Chemscore.Hbonds>
donor molecule, donor type, donor heavy atom, donor atom, acceptor molecule, acceptor atom, score
      L1  H     5    54       P1  8028  0.95
      L1  H    10    33       P1  7949  0.87
      L1  H    18    44       P1 10747  0.93
      P1  H 10752 10765       L1    10  0.01

> <Gold.Chemscore.Hbond.Weighted>
-9.5173

> <Gold.Chemscore.Metal.Weighted>
-0.0000

> <Gold.Chemscore.Lipo.Weighted>
-13.9404

> <Gold.Chemscore.Internal_Hbond.Weighted>
0.0000

> <Gold.Chemscore.DEClash.Weighted>
0.1081

> <Gold.Chemscore.DEInternal.Weighted>
0.9653

> <Gold.Chemscore.Rot.Weighted>
8.4215

> <Gold.Chemscore.Internal.Correction.Weighted>
   9.000000E+99

> <Gold.Protein.RotatedTorsions>
[ 6907 6896 6895 6894 ] final   -5.51 input  -60.11 | X-H torsion
[ 7974 7965 7964 7962 ] final -152.74 input  175.53 | X-H torsion
[ 8008 7997 7996 7995 ] final   65.26 input   59.86 | X-H torsion
[ 10167 10162 10161 10158 ] final  -68.46 input  -65.29 | X-H torsion
[ 10718 10713 10712 10709 ] final -139.66 input   66.30 | X-H torsion
[ 10763 10752 10751 10750 ] final  121.51 input  -60.55 | X-H torsion
[ 11005 11000 10999 10996 ] final   78.96 input  -57.11 | X-H torsion

> <Gold.Protein.ActiveResidues>
 VAL166  LYS551  ARG553  GLY616  TRP617  ASP618  TYR619  PRO620  LYS621  CYS622 
 ASP623  PHE694  ASN695  SER759  ASP760  ASP761  ALA762  ILE779  LEU786  VAL792 
 PHE793  MET794  SER795  GLU796  ALA797  LYS798  CYS799  TRP800  GLU811  SER814 

> <Gold.Protein.RotatedAtoms>
  151.4804  135.1052  159.9775 H   0  0  0  0  0  0  0  0  0  0  0  0  # atno 6907 bound_to 6896
  152.4781  133.8184  159.7051 H   0  0  0  0  0  0  0  0  0  0  0  0  # atno 6908 bound_to 6896
  150.8833  133.7280  159.2952 H   0  0  0  0  0  0  0  0  0  0  0  0  # atno 6909 bound_to 6896
  144.7778  140.4620  143.5861 H   0  0  0  0  0  0  0  0  0  0  0  0  # atno 7974 bound_to 7965
  155.6590  140.3497  155.4775 H   0  0  0  0  0  0  0  0  0  0  0  0  # atno 8008 bound_to 7997
  155.9785  140.1170  157.0771 H   0  0  0  0  0  0  0  0  0  0  0  0  # atno 8009 bound_to 7997
  154.4185  140.1143  156.5389 H   0  0  0  0  0  0  0  0  0  0  0  0  # atno 8010 bound_to 7997
  140.5505  143.2312  151.6919 H   0  0  0  0  0  0  0  0  0  0  0  0  # atno 10167 bound_to 10162
  156.3133  130.7493  151.1574 H   0  0  0  0  0  0  0  0  0  0  0  0  # atno 10718 bound_to 10713
  153.6153  135.3423  155.2992 H   0  0  0  0  0  0  0  0  0  0  0  0  # atno 10763 bound_to 10752
  154.8611  135.4260  154.2266 H   0  0  0  0  0  0  0  0  0  0  0  0  # atno 10764 bound_to 10752
  153.3126  135.7032  153.7174 H   0  0  0  0  0  0  0  0  0  0  0  0  # atno 10765 bound_to 10752
  139.9191  134.7805  156.1717 H   0  0  0  0  0  0  0  0  0  0  0  0  # atno 11005 bound_to 11000
  145.6137  139.1516  143.3061 LP  0  0  0  0  0  0  0  0  0  0  0  0  # atno 17320 bound_to 7965
  146.1967  140.6252  142.9121 LP  0  0  0  0  0  0  0  0  0  0  0  0  # atno 17321 bound_to 7965
  139.5025  144.3825  152.0362 LP  0  0  0  0  0  0  0  0  0  0  0  0  # atno 17342 bound_to 10162
  140.2941  144.3720  150.6079 LP  0  0  0  0  0  0  0  0  0  0  0  0  # atno 17343 bound_to 10162
  157.7396  131.0527  150.5223 LP  0  0  0  0  0  0  0  0  0  0  0  0  # atno 17370 bound_to 10713
  156.5365  130.4197  149.6175 LP  0  0  0  0  0  0  0  0  0  0  0  0  # atno 17371 bound_to 10713
  141.0696  133.6803  156.2114 LP  0  0  0  0  0  0  0  0  0  0  0  0  # atno 17394 bound_to 11000
  140.6528  134.5049  157.5578 LP  0  0  0  0  0  0  0  0  0  0  0  0  # atno 17395 bound_to 11000

$$$$
