AV-unprocessed.smi:2783|AV-procd|sdf|10723|dock3
  -GOLD-   2272015163D 1   1.00000     0.00000
 Structure written by MMmdl.
 29 29  0  0  0  0  0  0  0  0  3 V2000
  156.3040  139.6376  163.3452 C   0  0  0  0  0  0  0  0  0  0  0  0
  155.4093  140.5560  162.7199 O   0  0  0  0  0  0  0  0  0  0  0  0
  154.8878  140.2206  161.4253 C   0  0  0  0  0  0  0  0  0  0  0  0
  156.1046  140.2014  160.4832 C   0  0  0  0  0  0  0  0  0  0  0  0
  154.2366  138.8175  161.4466 C   0  0  0  0  0  0  0  0  0  0  0  0
  153.8960  141.3009  160.9333 C   0  0  0  0  0  0  0  0  0  0  0  0
  153.6202  142.2480  161.6697 O   0  0  0  0  0  0  0  0  0  0  0  0
  153.3688  141.1101  159.7080 N   0  0  0  0  0  0  0  0  0  0  0  0
  152.4463  141.8990  158.9614 C   0  0  0  0  0  0  0  0  0  0  0  0
  151.9102  143.1351  159.4073 C   0  0  0  0  0  0  0  0  0  0  0  0
  151.0065  143.8375  158.5846 C   0  0  0  0  0  0  0  0  0  0  0  0
  150.6598  143.3372  157.3805 N   0  3  0  0  0  0  0  0  0  0  0  0
  151.1468  142.1712  156.9092 C   0  0  0  0  0  0  0  0  0  0  0  0
  152.0540  141.4212  157.6846 C   0  0  0  0  0  0  0  0  0  0  0  0
  152.5370  140.2443  157.1840 O   0  5  0  0  0  0  0  0  0  0  0  0
  156.5011  139.9719  164.3635 H   0  0  0  0  0  0  0  0  0  0  0  0
  157.2626  139.5993  162.8279 H   0  0  0  0  0  0  0  0  0  0  0  0
  155.9004  138.6270  163.4046 H   0  0  0  0  0  0  0  0  0  0  0  0
  155.8185  139.9489  159.4612 H   0  0  0  0  0  0  0  0  0  0  0  0
  156.8405  139.4654  160.8089 H   0  0  0  0  0  0  0  0  0  0  0  0
  156.6048  141.1705  160.4568 H   0  0  0  0  0  0  0  0  0  0  0  0
  154.0018  138.4714  160.4392 H   0  0  0  0  0  0  0  0  0  0  0  0
  153.3057  138.8048  162.0144 H   0  0  0  0  0  0  0  0  0  0  0  0
  154.9072  138.0824  161.8923 H   0  0  0  0  0  0  0  0  0  0  0  0
  153.6627  140.2639  159.2402 H   0  0  0  0  0  0  0  0  0  0  0  0
  152.1704  143.5702  160.3582 H   0  0  0  0  0  0  0  0  0  0  0  0
  150.5556  144.7815  158.8523 H   0  0  0  0  0  0  0  0  0  0  0  0
  150.7993  141.8748  155.9301 H   0  0  0  0  0  0  0  0  0  0  0  0
  150.0050  143.8619  156.8007 H   0  0  0  0  0  0  0  0  0  0  0  0
  1  2  1  0  0  0  0
  1 16  1  0  0  0  0
  1 17  1  0  0  0  0
  1 18  1  0  0  0  0
  2  3  1  0  0  0  0
  3  4  1  0  0  0  0
  3  5  1  0  0  0  0
  3  6  1  0  0  0  0
  4 19  1  0  0  0  0
  4 20  1  0  0  0  0
  4 21  1  0  0  0  0
  5 22  1  0  0  0  0
  5 23  1  0  0  0  0
  5 24  1  0  0  0  0
  6  7  2  0  0  0  0
  6  8  1  0  0  0  0
  8 25  1  0  0  0  0
  8  9  1  0  0  0  0
  9 10  2  0  0  0  0
  9 14  1  0  0  0  0
 10 11  1  0  0  0  0
 10 26  1  0  0  0  0
 11 12  2  0  0  0  0
 11 27  1  0  0  0  0
 12 13  1  0  0  0  0
 12 29  1  0  0  0  0
 13 14  2  0  0  0  0
 13 28  1  0  0  0  0
 14 15  1  0  0  0  0
M  CHG  1  12   1
M  CHG  1  15  -1
M  END
> <s_m_source_file>
AV-unprocessed.smi

> <i_m_source_file_index>
2783

> <i_lp_mmshare_version>
43012

> <i_f3d_flags>
0

> <s_epik_input>
W0NIM11PQyhbQ0gzXSkoW0NIM10pQyg9TylbTkhdYzFbY0hdW2NIXW5bY0hdYzFbT0hd

> <s_epik_cmdline>
J2VwaWtfcHl0aG9uJywgJy1waCcsICc3LjAnLCAnLXRuJywgJzgnLCAnLW1hJywgJzIwMCcsICctbWV0YWxfYmluZGluZycsICctaW1hZScsICc8aW5maWxlLm1hZT4nLCAnLW9tYWUnLCAnPG91dGZpbGUubWFlPic=

> <r_lp_tautomer_probability>
0.56342

> <r_epik_Ionization_Penalty>
0.0178972

> <r_epik_Ionization_Penalty_Charging>
0.0178972

> <r_epik_Ionization_Penalty_Neutral>
5.02838e-10

> <r_epik_State_Penalty>
0.346878

> <r_epik_Charging_Adjusted_Penalty>
0.364775

> <i_epik_Tot_Q>
0

> <i_epik_Tot_abs_Q>
2

> <r_epik_Metal_State_Penalty>
0.59989

> <b_epik_Metal_Only>
0

> <s_lp_Force_Field>
OPLS_2005

> <r_lp_Energy>
13.0422

> <b_lp_Chiralities_Consistent>
1

> <s_lp_Variant>
AV-unprocessed.smi:2783-1

> <Gold.Version>
5.8.1

> <Gold.Id.Protein>
6NUR|6NUR_protein|mol2

> <Gold.PLP.Fitness>
38.3399

> <Gold.PLP.PLP>
-26.3724

> <Gold.PLP.part.hbond>
-3.3740

> <Gold.PLP.part.metal>
0.0000

> <Gold.PLP.part.buried>
-3.1395

> <Gold.PLP.part.nonpolar>
-18.7098

> <Gold.PLP.part.repulsive>
0.0935

> <Gold.PLP.ligand.clash>
0.0000

> <Gold.PLP.ligand.torsion>
0.0318

> <Gold.PLP.Chemscore.Hbond>
4.0000

> <Gold.PLP.Chemscore.CHOScore>
0.0000

> <Gold.PLP.Chemscore.Metal>
0.0000

> <Gold.Chemscore.Hbonds>
donor molecule, donor type, donor heavy atom, donor atom, acceptor molecule, acceptor atom, score
      L1  H    12    29       P1  8028  2.00
      P1  H  7997  8009       L1    15  1.95

> <Gold.PLP.Chemscore.Internal.Correction>
0.0310

> <Gold.Rescore>
     Score         DG    S(hbond)    S(metal)    S(lipo)     H(rot)  DE(clash)    DE(int)     intcor
     15.17     -16.39       1.90        0.00      66.45       1.26       0.07       1.15       ----

> <Gold.Chemscore.Fitness>
15.1685

> <Gold.Chemscore.DG>
-16.3946

> <Gold.Chemscore.ZeroCoef>
-5.4800

> <Gold.Chemscore.Hbond>
1.9039

> <Gold.Chemscore.Metal>
0.0000

> <Gold.Chemscore.Lipo>
66.4500

> <Gold.Chemscore.Internal_Hbond>
0.0000

> <Gold.Chemscore.DEClash>
0.0750

> <Gold.Chemscore.DEInternal>
1.1511

> <Gold.Chemscore.Rot>
1.2574

> <Gold.Chemscore.Internal.Correction>
   9.000000E+99

> <Gold.Chemscore.Hbonds>
donor molecule, donor type, donor heavy atom, donor atom, acceptor molecule, acceptor atom, score
      L1  H    12    29       P1  8028  0.99
      P1  H  7997  8009       L1    15  0.91

> <Gold.Chemscore.Hbond.Weighted>
-6.3589

> <Gold.Chemscore.Metal.Weighted>
-0.0000

> <Gold.Chemscore.Lipo.Weighted>
-7.7747

> <Gold.Chemscore.Internal_Hbond.Weighted>
0.0000

> <Gold.Chemscore.DEClash.Weighted>
0.0750

> <Gold.Chemscore.DEInternal.Weighted>
1.1511

> <Gold.Chemscore.Rot.Weighted>
3.2190

> <Gold.Chemscore.Internal.Correction.Weighted>
   9.000000E+99

> <Gold.Protein.RotatedTorsions>
[ 6907 6896 6895 6894 ] final  160.19 input  -60.11 | X-H torsion
[ 7974 7965 7964 7962 ] final   93.19 input  175.53 | X-H torsion
[ 8008 7997 7996 7995 ] final -171.45 input   59.86 | X-H torsion
[ 10167 10162 10161 10158 ] final  -63.69 input  -65.29 | X-H torsion
[ 10718 10713 10712 10709 ] final -158.27 input   66.30 | X-H torsion
[ 10763 10752 10751 10750 ] final -101.19 input  -60.55 | X-H torsion
[ 11005 11000 10999 10996 ] final   89.92 input  -57.11 | X-H torsion

> <Gold.Protein.ActiveResidues>
 VAL166  LYS551  ARG553  GLY616  TRP617  ASP618  TYR619  PRO620  LYS621  CYS622 
 ASP623  PHE694  ASN695  SER759  ASP760  ASP761  ALA762  ILE779  LEU786  VAL792 
 PHE793  MET794  SER795  GLU796  ALA797  LYS798  CYS799  TRP800  GLU811  SER814 

> <Gold.Protein.RotatedAtoms>
  151.9744  133.3736  159.4082 H   0  0  0  0  0  0  0  0  0  0  0  0  # atno 6907 bound_to 6896
  150.6944  134.4106  159.5169 H   0  0  0  0  0  0  0  0  0  0  0  0  # atno 6908 bound_to 6896
  152.1815  134.8750  160.0576 H   0  0  0  0  0  0  0  0  0  0  0  0  # atno 6909 bound_to 6896
  145.4823  139.2278  143.2876 H   0  0  0  0  0  0  0  0  0  0  0  0  # atno 7974 bound_to 7965
  155.9316  140.1092  157.1127 H   0  0  0  0  0  0  0  0  0  0  0  0  # atno 8008 bound_to 7997
  154.4072  140.1236  156.4876 H   0  0  0  0  0  0  0  0  0  0  0  0  # atno 8009 bound_to 7997
  155.7072  140.3471  155.4960 H   0  0  0  0  0  0  0  0  0  0  0  0  # atno 8010 bound_to 7997
  140.5853  143.2333  151.6255 H   0  0  0  0  0  0  0  0  0  0  0  0  # atno 10167 bound_to 10162
  156.5518  130.8608  151.2782 H   0  0  0  0  0  0  0  0  0  0  0  0  # atno 10718 bound_to 10713
  154.7638  135.4907  153.9515 H   0  0  0  0  0  0  0  0  0  0  0  0  # atno 10763 bound_to 10752
  153.1283  135.6747  153.9228 H   0  0  0  0  0  0  0  0  0  0  0  0  # atno 10764 bound_to 10752
  153.8939  135.3117  155.3426 H   0  0  0  0  0  0  0  0  0  0  0  0  # atno 10765 bound_to 10752
  139.8866  134.8582  156.3211 H   0  0  0  0  0  0  0  0  0  0  0  0  # atno 11005 bound_to 11000
  146.2334  140.5610  142.8965 LP  0  0  0  0  0  0  0  0  0  0  0  0  # atno 17320 bound_to 7965
  144.7882  140.5979  143.6559 LP  0  0  0  0  0  0  0  0  0  0  0  0  # atno 17321 bound_to 7965
  139.5194  144.3255  152.0873 LP  0  0  0  0  0  0  0  0  0  0  0  0  # atno 17342 bound_to 10162
  140.2411  144.4269  150.6260 LP  0  0  0  0  0  0  0  0  0  0  0  0  # atno 17343 bound_to 10162
  157.7386  130.9816  150.2262 LP  0  0  0  0  0  0  0  0  0  0  0  0  # atno 17370 bound_to 10713
  156.2878  130.3741  149.7871 LP  0  0  0  0  0  0  0  0  0  0  0  0  # atno 17371 bound_to 10713
  140.9786  133.7282  156.0638 LP  0  0  0  0  0  0  0  0  0  0  0  0  # atno 17394 bound_to 11000
  140.7779  134.3759  157.5494 LP  0  0  0  0  0  0  0  0  0  0  0  0  # atno 17395 bound_to 11000

$$$$
