AV-unprocessed.smi:1621|AV-procd|sdf|6494|dock2
  -GOLD-   22720 7153D 1   1.00000     0.00000
 Structure written by MMmdl.
 39 40  0  0  0  0  0  0  0  0  2 V2000
  144.8935  139.5303  155.6621 C   0  0  0  0  0  0  0  0  0  0  0  0
  145.7172  140.1717  154.6151 N   0  3  2  0  0  0  0  0  0  0  0  0
  146.6862  139.2302  154.0005 C   0  0  0  0  0  0  0  0  0  0  0  0
  147.4522  139.8967  152.8420 C   0  0  0  0  0  0  0  0  0  0  0  0
  148.1564  141.1964  153.2786 C   0  0  2  0  0  0  0  0  0  0  0  0
  149.4107  140.9155  154.1402 C   0  0  0  0  0  0  0  0  0  0  0  0
  149.6371  141.9491  155.1467 N   0  0  0  0  0  0  0  0  0  0  0  0
  150.5147  141.8721  156.1583 C   0  0  0  0  0  0  0  0  0  0  0  0
  151.2457  140.8999  156.3456 O   0  0  0  0  0  0  0  0  0  0  0  0
  150.4786  142.9832  156.9147 N   0  0  0  0  0  0  0  0  0  0  0  0
  151.2114  143.2980  158.0929 C   0  0  0  0  0  0  0  0  0  0  0  0
  151.9735  142.2649  158.6770 C   0  0  0  0  0  0  0  0  0  0  0  0
  152.7221  142.5434  159.8380 C   0  0  0  0  0  0  0  0  0  0  0  0
  152.7548  143.7578  160.4252 N   0  0  0  0  0  0  0  0  0  0  0  0
  152.0329  144.7485  159.8607 C   0  0  0  0  0  0  0  0  0  0  0  0
  151.2517  144.5770  158.7002 C   0  0  0  0  0  0  0  0  0  0  0  0
  147.1148  142.1201  153.9465 C   0  0  0  0  0  0  0  0  0  0  0  0
  146.3694  141.4156  155.0931 C   0  0  0  0  0  0  0  0  0  0  0  0
  145.5095  139.2071  156.5024 H   0  0  0  0  0  0  0  0  0  0  0  0
  144.3731  138.6590  155.2629 H   0  0  0  0  0  0  0  0  0  0  0  0
  144.1403  140.2242  156.0365 H   0  0  0  0  0  0  0  0  0  0  0  0
  147.3790  138.8677  154.7611 H   0  0  0  0  0  0  0  0  0  0  0  0
  146.1520  138.3571  153.6234 H   0  0  0  0  0  0  0  0  0  0  0  0
  148.1742  139.1972  152.4191 H   0  0  0  0  0  0  0  0  0  0  0  0
  146.7493  140.1244  152.0393 H   0  0  0  0  0  0  0  0  0  0  0  0
  148.5051  141.6962  152.3738 H   0  0  0  0  0  0  0  0  0  0  0  0
  149.3603  139.9296  154.6033 H   0  0  0  0  0  0  0  0  0  0  0  0
  150.2922  140.8953  153.4989 H   0  0  0  0  0  0  0  0  0  0  0  0
  149.0805  142.7878  155.0666 H   0  0  0  0  0  0  0  0  0  0  0  0
  149.8585  143.7118  156.5931 H   0  0  0  0  0  0  0  0  0  0  0  0
  151.9863  141.2732  158.2484 H   0  0  0  0  0  0  0  0  0  0  0  0
  153.3116  141.7691  160.3064 H   0  0  0  0  0  0  0  0  0  0  0  0
  152.0827  145.7116  160.3467 H   0  0  0  0  0  0  0  0  0  0  0  0
  150.7170  145.4265  158.3065 H   0  0  0  0  0  0  0  0  0  0  0  0
  147.5757  143.0395  154.3061 H   0  0  0  0  0  0  0  0  0  0  0  0
  146.3869  142.4336  153.1969 H   0  0  0  0  0  0  0  0  0  0  0  0
  145.6130  142.0889  155.4980 H   0  0  0  0  0  0  0  0  0  0  0  0
  147.0523  141.1829  155.9108 H   0  0  0  0  0  0  0  0  0  0  0  0
  145.0811  140.4473  153.8804 H   0  0  0  0  0  0  0  0  0  0  0  0
  1  2  1  0  0  0  0
  1 19  1  0  0  0  0
  1 20  1  0  0  0  0
  1 21  1  0  0  0  0
  2 18  1  0  0  0  0
  2  3  1  0  0  0  0
  2 39  1  0  0  0  0
  3  4  1  0  0  0  0
  3 22  1  0  0  0  0
  3 23  1  0  0  0  0
  4  5  1  0  0  0  0
  4 24  1  0  0  0  0
  4 25  1  0  0  0  0
  5  6  1  0  0  0  0
  5 17  1  0  0  0  0
  5 26  1  0  0  0  0
  6  7  1  0  0  0  0
  6 27  1  0  0  0  0
  6 28  1  0  0  0  0
  7  8  1  0  0  0  0
  7 29  1  0  0  0  0
  8  9  2  0  0  0  0
  8 10  1  0  0  0  0
 10 11  1  0  0  0  0
 10 30  1  0  0  0  0
 11 16  1  0  0  0  0
 11 12  2  0  0  0  0
 12 13  1  0  0  0  0
 12 31  1  0  0  0  0
 13 14  2  0  0  0  0
 13 32  1  0  0  0  0
 14 15  1  0  0  0  0
 15 16  2  0  0  0  0
 15 33  1  0  0  0  0
 16 34  1  0  0  0  0
 17 18  1  0  0  0  0
 17 35  1  0  0  0  0
 17 36  1  0  0  0  0
 18 37  1  0  0  0  0
 18 38  1  0  0  0  0
M  CHG  1   2   1
M  END
> <s_m_source_file>
AV-unprocessed.smi

> <i_m_source_file_index>
1621

> <i_lp_mmshare_version>
43012

> <i_f3d_flags>
0

> <s_epik_input>
W0NIM11OMVtDSDJdW0NIMl1bQ0hdKFtDSDJdW0NIMl0xKVtDSDJdW05IXUMoPU8pW05IXWMyW2NIXVtjSF1uW2NIXVtjSF0y

> <s_epik_cmdline>
J2VwaWtfcHl0aG9uJywgJy1waCcsICc3LjAnLCAnLXRuJywgJzgnLCAnLW1hJywgJzIwMCcsICctbWV0YWxfYmluZGluZycsICctaW1hZScsICc8aW5maWxlLm1hZT4nLCAnLW9tYWUnLCAnPG91dGZpbGUubWFlPic=

> <r_epik_Ionization_Penalty>
0.107254

> <r_epik_Ionization_Penalty_Charging>
0.00106265

> <r_epik_Ionization_Penalty_Neutral>
0.106191

> <r_epik_State_Penalty>
0.0960133

> <r_epik_Charging_Adjusted_Penalty>
0.0970759

> <i_epik_Tot_Q>
1

> <i_epik_Tot_abs_Q>
1

> <r_epik_Metal_State_Penalty>
0.0813061

> <b_epik_Metal_Only>
0

> <s_lp_Force_Field>
OPLS_2005

> <r_lp_Energy>
22.9743

> <b_lp_Chiralities_Consistent>
1

> <s_lp_Variant>
AV-unprocessed.smi:1621-2

> <Gold.Version>
5.8.1

> <Gold.Id.Protein>
6NUR|6NUR_protein|mol2

> <Gold.PLP.Fitness>
48.7762

> <Gold.PLP.PLP>
-37.8854

> <Gold.PLP.part.hbond>
-3.0000

> <Gold.PLP.part.metal>
0.0000

> <Gold.PLP.part.buried>
-4.1170

> <Gold.PLP.part.nonpolar>
-30.9461

> <Gold.PLP.part.repulsive>
0.2459

> <Gold.PLP.ligand.clash>
0.0000

> <Gold.PLP.ligand.torsion>
0.5470

> <Gold.PLP.Chemscore.Hbond>
3.9920

> <Gold.PLP.Chemscore.CHOScore>
0.0000

> <Gold.PLP.Chemscore.Metal>
0.0000

> <Gold.Chemscore.Hbonds>
donor molecule, donor type, donor heavy atom, donor atom, acceptor molecule, acceptor atom, score
      L1  H     2    39       P1 10175  2.00
      L1  H     7    29       P1  8028  0.93
      L1  H    10    30       P1  8028  1.00

> <Gold.PLP.Chemscore.Internal.Correction>
0.0088

> <Gold.Rescore>
     Score         DG    S(hbond)    S(metal)    S(lipo)     H(rot)  DE(clash)    DE(int)     intcor
     21.31     -22.97       2.93        0.00      93.18       1.25       0.02       1.63       ----

> <Gold.Chemscore.Fitness>
21.3113

> <Gold.Chemscore.DG>
-22.9657

> <Gold.Chemscore.ZeroCoef>
-5.4800

> <Gold.Chemscore.Hbond>
2.9278

> <Gold.Chemscore.Metal>
0.0000

> <Gold.Chemscore.Lipo>
93.1828

> <Gold.Chemscore.Internal_Hbond>
0.0000

> <Gold.Chemscore.DEClash>
0.0247

> <Gold.Chemscore.DEInternal>
1.6297

> <Gold.Chemscore.Rot>
1.2482

> <Gold.Chemscore.Internal.Correction>
   9.000000E+99

> <Gold.Chemscore.Hbonds>
donor molecule, donor type, donor heavy atom, donor atom, acceptor molecule, acceptor atom, score
      L1  H     2    39       P1 10175  0.98
      L1  H     7    29       P1  8028  0.85
      L1  H    10    30       P1  8028  1.00

> <Gold.Chemscore.Hbond.Weighted>
-9.7788

> <Gold.Chemscore.Metal.Weighted>
-0.0000

> <Gold.Chemscore.Lipo.Weighted>
-10.9024

> <Gold.Chemscore.Internal_Hbond.Weighted>
0.0000

> <Gold.Chemscore.DEClash.Weighted>
0.0247

> <Gold.Chemscore.DEInternal.Weighted>
1.6297

> <Gold.Chemscore.Rot.Weighted>
3.1954

> <Gold.Chemscore.Internal.Correction.Weighted>
   9.000000E+99

> <Gold.Protein.RotatedTorsions>
[ 6907 6896 6895 6894 ] final  -45.49 input  -60.11 | X-H torsion
[ 7974 7965 7964 7962 ] final   17.95 input  175.53 | X-H torsion
[ 8008 7997 7996 7995 ] final -158.28 input   59.86 | X-H torsion
[ 10167 10162 10161 10158 ] final -107.82 input  -65.29 | X-H torsion
[ 10718 10713 10712 10709 ] final   56.93 input   66.30 | X-H torsion
[ 10763 10752 10751 10750 ] final -140.45 input  -60.55 | X-H torsion
[ 11005 11000 10999 10996 ] final  160.52 input  -57.11 | X-H torsion

> <Gold.Protein.ActiveResidues>
 VAL166  LYS551  ARG553  GLY616  TRP617  ASP618  TYR619  PRO620  LYS621  CYS622 
 ASP623  PHE694  ASN695  SER759  ASP760  ASP761  ALA762  ILE779  LEU786  VAL792 
 PHE793  MET794  SER795  GLU796  ALA797  LYS798  CYS799  TRP800  GLU811  SER814 

> <Gold.Protein.RotatedAtoms>
  150.9214  134.8631  159.7491 H   0  0  0  0  0  0  0  0  0  0  0  0  # atno 6907 bound_to 6896
  152.4994  134.4213  159.9491 H   0  0  0  0  0  0  0  0  0  0  0  0  # atno 6908 bound_to 6896
  151.4246  133.3648  159.2796 H   0  0  0  0  0  0  0  0  0  0  0  0  # atno 6909 bound_to 6896
  146.2201  139.8528  142.8619 H   0  0  0  0  0  0  0  0  0  0  0  0  # atno 7974 bound_to 7965
  155.7452  140.0819  157.2227 H   0  0  0  0  0  0  0  0  0  0  0  0  # atno 8008 bound_to 7997
  154.4017  140.1570  156.2717 H   0  0  0  0  0  0  0  0  0  0  0  0  # atno 8009 bound_to 7997
  155.8982  140.3411  155.6009 H   0  0  0  0  0  0  0  0  0  0  0  0  # atno 8010 bound_to 7997
  140.1729  143.4028  152.1341 H   0  0  0  0  0  0  0  0  0  0  0  0  # atno 10167 bound_to 10162
  157.5473  130.8740  149.8910 H   0  0  0  0  0  0  0  0  0  0  0  0  # atno 10718 bound_to 10713
  154.8578  135.3553  154.5709 H   0  0  0  0  0  0  0  0  0  0  0  0  # atno 10763 bound_to 10752
  153.6322  135.7002  153.5276 H   0  0  0  0  0  0  0  0  0  0  0  0  # atno 10764 bound_to 10752
  153.3040  135.4198  155.1237 H   0  0  0  0  0  0  0  0  0  0  0  0  # atno 10765 bound_to 10752
  140.2067  134.8297  157.3077 H   0  0  0  0  0  0  0  0  0  0  0  0  # atno 11005 bound_to 11000
  145.2784  141.0131  143.3731 LP  0  0  0  0  0  0  0  0  0  0  0  0  # atno 17320 bound_to 7965
  144.9169  139.4459  143.6560 LP  0  0  0  0  0  0  0  0  0  0  0  0  # atno 17321 bound_to 7965
  139.5330  144.7179  151.4990 LP  0  0  0  0  0  0  0  0  0  0  0  0  # atno 17342 bound_to 10162
  140.6570  143.8578  150.6846 LP  0  0  0  0  0  0  0  0  0  0  0  0  # atno 17343 bound_to 10162
  156.0546  130.3711  150.1121 LP  0  0  0  0  0  0  0  0  0  0  0  0  # atno 17370 bound_to 10713
  156.9297  130.9709  151.3535 LP  0  0  0  0  0  0  0  0  0  0  0  0  # atno 17371 bound_to 10713
  140.1995  134.4273  155.7671 LP  0  0  0  0  0  0  0  0  0  0  0  0  # atno 17394 bound_to 11000
  141.2227  133.7065  156.8159 LP  0  0  0  0  0  0  0  0  0  0  0  0  # atno 17395 bound_to 11000

$$$$
