AV-unprocessed.smi:2718|AV-procd|sdf|10486|dock4
  -GOLD-   2272014533D 1   1.00000     0.00000
 Structure written by MMmdl.
 47 48  0  0  0  0  0  0  0  0  1 V2000
  146.5241  133.0018  150.5342 C   0  0  0  0  0  0  0  0  0  0  0  0
  146.8624  133.5625  151.9011 C   0  0  0  0  0  0  0  0  0  0  0  0
  146.0613  134.7896  152.2997 C   0  0  0  0  0  0  0  0  0  0  0  0
  147.8014  132.9994  152.6852 C   0  0  0  0  0  0  0  0  0  0  0  0
  148.2114  133.4566  154.0390 C   0  0  2  0  0  0  0  0  0  0  0  0
  149.6572  133.8096  154.3403 C   0  0  1  0  0  0  0  0  0  0  0  0
  149.9458  134.9762  155.2323 C   0  0  0  0  0  0  0  0  0  0  0  0
  150.5545  134.8832  156.2989 O   0  0  0  0  0  0  0  0  0  0  0  0
  149.4734  136.1389  154.7598 N   0  0  0  0  0  0  0  0  0  0  0  0
  149.5874  137.4393  155.4160 C   0  0  0  0  0  0  0  0  0  0  0  0
  150.5367  138.4244  154.6937 C   0  0  2  0  0  0  0  0  0  0  0  0
  151.9436  137.8335  154.5234 C   0  0  0  0  0  0  0  0  0  0  0  0
  150.5822  139.7829  155.3410 C   0  0  0  0  0  0  0  0  0  0  0  0
  150.2120  140.9116  154.7211 N   0  0  0  0  0  0  0  0  0  0  0  0
  150.3942  141.9220  155.6430 N   0  0  0  0  0  0  0  0  0  0  0  0
  150.8403  141.3027  156.7345 C   0  0  0  0  0  0  0  0  0  0  0  0
  150.9719  139.9729  156.6195 N   0  0  0  0  0  0  0  0  0  0  0  0
  151.4108  139.0224  157.6223 C   0  0  0  0  0  0  0  0  0  0  0  0
  149.0337  132.5584  154.9474 C   0  0  0  0  0  0  0  0  0  0  0  0
  148.6402  132.4507  156.4147 C   0  0  0  0  0  0  0  0  0  0  0  0
  149.5545  131.2119  154.4675 C   0  0  0  0  0  0  0  0  0  0  0  0
  146.6972  133.7537  149.7636 H   0  0  0  0  0  0  0  0  0  0  0  0
  145.4751  132.7073  150.4968 H   0  0  0  0  0  0  0  0  0  0  0  0
  147.1306  132.1272  150.2969 H   0  0  0  0  0  0  0  0  0  0  0  0
  144.9981  134.5499  152.3295 H   0  0  0  0  0  0  0  0  0  0  0  0
  146.2105  135.5874  151.5718 H   0  0  0  0  0  0  0  0  0  0  0  0
  146.3449  135.1749  153.2786 H   0  0  0  0  0  0  0  0  0  0  0  0
  148.3251  132.1291  152.3175 H   0  0  0  0  0  0  0  0  0  0  0  0
  147.4385  134.0654  154.5055 H   0  0  0  0  0  0  0  0  0  0  0  0
  150.3854  133.6400  153.5481 H   0  0  0  0  0  0  0  0  0  0  0  0
  148.9914  136.1232  153.8724 H   0  0  0  0  0  0  0  0  0  0  0  0
  148.5827  137.8621  155.4432 H   0  0  0  0  0  0  0  0  0  0  0  0
  149.8917  137.3063  156.4552 H   0  0  0  0  0  0  0  0  0  0  0  0
  150.1398  138.5478  153.6868 H   0  0  0  0  0  0  0  0  0  0  0  0
  152.5779  138.4973  153.9348 H   0  0  0  0  0  0  0  0  0  0  0  0
  151.9063  136.8717  154.0113 H   0  0  0  0  0  0  0  0  0  0  0  0
  152.4289  137.6779  155.4876 H   0  0  0  0  0  0  0  0  0  0  0  0
  151.0710  141.8345  157.6458 H   0  0  0  0  0  0  0  0  0  0  0  0
  151.7139  139.5468  158.5293 H   0  0  0  0  0  0  0  0  0  0  0  0
  152.2583  138.4497  157.2468 H   0  0  0  0  0  0  0  0  0  0  0  0
  150.5950  138.3400  157.8618 H   0  0  0  0  0  0  0  0  0  0  0  0
  149.5269  132.3166  157.0341 H   0  0  0  0  0  0  0  0  0  0  0  0
  147.9801  131.5964  156.5673 H   0  0  0  0  0  0  0  0  0  0  0  0
  148.1074  133.3384  156.7531 H   0  0  0  0  0  0  0  0  0  0  0  0
  150.3996  130.8934  155.0783 H   0  0  0  0  0  0  0  0  0  0  0  0
  149.8888  131.2658  153.4313 H   0  0  0  0  0  0  0  0  0  0  0  0
  148.7715  130.4560  154.5334 H   0  0  0  0  0  0  0  0  0  0  0  0
  1  2  1  0  0  0  0
  1 22  1  0  0  0  0
  1 23  1  0  0  0  0
  1 24  1  0  0  0  0
  2  3  1  0  0  0  0
  2  4  2  0  0  0  0
  3 25  1  0  0  0  0
  3 26  1  0  0  0  0
  3 27  1  0  0  0  0
  4  5  1  0  0  0  0
  4 28  1  0  0  0  0
  5 19  1  0  0  0  0
  5  6  1  0  0  0  0
  5 29  1  0  0  0  0
  6  7  1  0  0  0  0
  6 19  1  0  0  0  0
  6 30  1  0  0  0  0
  7  8  2  0  0  0  0
  7  9  1  0  0  0  0
  9 10  1  0  0  0  0
  9 31  1  0  0  0  0
 10 11  1  0  0  0  0
 10 32  1  0  0  0  0
 10 33  1  0  0  0  0
 11 12  1  0  0  0  0
 11 13  1  0  0  0  0
 11 34  1  0  0  0  0
 12 35  1  0  0  0  0
 12 36  1  0  0  0  0
 12 37  1  0  0  0  0
 13 17  1  0  0  0  0
 13 14  2  0  0  0  0
 14 15  1  0  0  0  0
 15 16  2  0  0  0  0
 16 17  1  0  0  0  0
 16 38  1  0  0  0  0
 17 18  1  0  0  0  0
 18 39  1  0  0  0  0
 18 40  1  0  0  0  0
 18 41  1  0  0  0  0
 19 20  1  0  0  0  0
 19 21  1  0  0  0  0
 20 42  1  0  0  0  0
 20 43  1  0  0  0  0
 20 44  1  0  0  0  0
 21 45  1  0  0  0  0
 21 46  1  0  0  0  0
 21 47  1  0  0  0  0
M  END
> <s_m_source_file>
AV-unprocessed.smi

> <i_m_source_file_index>
2718

> <i_lp_mmshare_version>
43012

> <i_f3d_flags>
0

> <s_epik_input>
W0NIM11DKFtDSDNdKT1bQ0hdW0NAQEhdKEMxKFtDSDNdKVtDSDNdKVtDQEhdMUMoPU8pW05IXVtDSDJdW0NASF0oW0NIM10pYzJubltjSF1uMltDSDNd

> <s_epik_cmdline>
J2VwaWtfcHl0aG9uJywgJy1waCcsICc3LjAnLCAnLXRuJywgJzgnLCAnLW1hJywgJzIwMCcsICctbWV0YWxfYmluZGluZycsICctaW1hZScsICc8aW5maWxlLm1hZT4nLCAnLW9tYWUnLCAnPG91dGZpbGUubWFlPic=

> <r_lp_tautomer_probability>
1

> <r_epik_Ionization_Penalty>
0.000449586

> <r_epik_Ionization_Penalty_Charging>
0

> <r_epik_Ionization_Penalty_Neutral>
0.000449586

> <r_epik_State_Penalty>
0.000243372

> <r_epik_Charging_Adjusted_Penalty>
0.000243372

> <i_epik_Tot_Q>
0

> <i_epik_Tot_abs_Q>
0

> <r_epik_Metal_State_Penalty>
-0

> <b_epik_Metal_Only>
0

> <s_lp_Force_Field>
OPLS_2005

> <r_lp_Energy>
15.15

> <b_lp_Chiralities_Consistent>
1

> <s_lp_Variant>
AV-unprocessed.smi:2718-1

> <Gold.Version>
5.8.1

> <Gold.Id.Protein>
6NUR|6NUR_protein|mol2

> <Gold.PLP.Fitness>
40.5780

> <Gold.PLP.PLP>
-36.7359

> <Gold.PLP.part.hbond>
-2.0384

> <Gold.PLP.part.metal>
0.0000

> <Gold.PLP.part.buried>
-3.8106

> <Gold.PLP.part.nonpolar>
-31.7672

> <Gold.PLP.part.repulsive>
0.3339

> <Gold.PLP.ligand.clash>
0.0000

> <Gold.PLP.ligand.torsion>
0.2740

> <Gold.PLP.Chemscore.Hbond>
1.3792

> <Gold.PLP.Chemscore.CHOScore>
0.0000

> <Gold.PLP.Chemscore.Metal>
0.0000

> <Gold.Chemscore.Hbonds>
donor molecule, donor type, donor heavy atom, donor atom, acceptor molecule, acceptor atom, score
      L1  H     9    31       P1  7948  1.00
      P1  H  7989  7998       L1    14  0.54

> <Gold.PLP.Chemscore.Internal.Correction>
0.2526

> <Gold.Rescore>
     Score         DG    S(hbond)    S(metal)    S(lipo)     H(rot)  DE(clash)    DE(int)     intcor
     12.21     -12.64       1.14        0.00      71.33       1.95       0.02       0.41       ----

> <Gold.Chemscore.Fitness>
12.2081

> <Gold.Chemscore.DG>
-12.6419

> <Gold.Chemscore.ZeroCoef>
-5.4800

> <Gold.Chemscore.Hbond>
1.1426

> <Gold.Chemscore.Metal>
0.0000

> <Gold.Chemscore.Lipo>
71.3344

> <Gold.Chemscore.Internal_Hbond>
0.0000

> <Gold.Chemscore.DEClash>
0.0235

> <Gold.Chemscore.DEInternal>
0.4103

> <Gold.Chemscore.Rot>
1.9533

> <Gold.Chemscore.Internal.Correction>
   9.000000E+99

> <Gold.Chemscore.Hbonds>
donor molecule, donor type, donor heavy atom, donor atom, acceptor molecule, acceptor atom, score
      L1  H     9    31       P1  7948  0.90
      P1  H  7989  7998       L1    14  0.05

> <Gold.Chemscore.Hbond.Weighted>
-3.8163

> <Gold.Chemscore.Metal.Weighted>
-0.0000

> <Gold.Chemscore.Lipo.Weighted>
-8.3461

> <Gold.Chemscore.Internal_Hbond.Weighted>
0.0000

> <Gold.Chemscore.DEClash.Weighted>
0.0235

> <Gold.Chemscore.DEInternal.Weighted>
0.4103

> <Gold.Chemscore.Rot.Weighted>
5.0005

> <Gold.Chemscore.Internal.Correction.Weighted>
   9.000000E+99

> <Gold.Protein.RotatedTorsions>
[ 6907 6896 6895 6894 ] final   -3.54 input  -60.11 | X-H torsion
[ 7974 7965 7964 7962 ] final   70.07 input  175.53 | X-H torsion
[ 8008 7997 7996 7995 ] final -124.33 input   59.86 | X-H torsion
[ 10167 10162 10161 10158 ] final  122.45 input  -65.29 | X-H torsion
[ 10718 10713 10712 10709 ] final  -10.57 input   66.30 | X-H torsion
[ 10763 10752 10751 10750 ] final   68.59 input  -60.55 | X-H torsion
[ 11005 11000 10999 10996 ] final  173.54 input  -57.11 | X-H torsion

> <Gold.Protein.ActiveResidues>
 VAL166  LYS551  ARG553  GLY616  TRP617  ASP618  TYR619  PRO620  LYS621  CYS622 
 ASP623  PHE694  ASN695  SER759  ASP760  ASP761  ALA762  ILE779  LEU786  VAL792 
 PHE793  MET794  SER795  GLU796  ALA797  LYS798  CYS799  TRP800  GLU811  SER814 

> <Gold.Protein.RotatedAtoms>
  151.5121  135.1065  159.9856 H   0  0  0  0  0  0  0  0  0  0  0  0  # atno 6907 bound_to 6896
  152.4657  133.7914  159.6914 H   0  0  0  0  0  0  0  0  0  0  0  0  # atno 6908 bound_to 6896
  150.8640  133.7538  159.3008 H   0  0  0  0  0  0  0  0  0  0  0  0  # atno 6909 bound_to 6896
  145.7827  139.2895  143.1256 H   0  0  0  0  0  0  0  0  0  0  0  0  # atno 7974 bound_to 7965
  155.1951  140.0414  157.2907 H   0  0  0  0  0  0  0  0  0  0  0  0  # atno 8008 bound_to 7997
  154.6112  140.2477  155.7638 H   0  0  0  0  0  0  0  0  0  0  0  0  # atno 8009 bound_to 7997
  156.2380  140.2914  156.0376 H   0  0  0  0  0  0  0  0  0  0  0  0  # atno 8010 bound_to 7997
  139.5858  144.7006  151.3413 H   0  0  0  0  0  0  0  0  0  0  0  0  # atno 10167 bound_to 10162
  156.6715  130.5011  149.5999 H   0  0  0  0  0  0  0  0  0  0  0  0  # atno 10718 bound_to 10713
  153.0243  135.5242  154.7157 H   0  0  0  0  0  0  0  0  0  0  0  0  # atno 10763 bound_to 10752
  154.6227  135.2891  155.0310 H   0  0  0  0  0  0  0  0  0  0  0  0  # atno 10764 bound_to 10752
  154.1291  135.6596  153.4971 H   0  0  0  0  0  0  0  0  0  0  0  0  # atno 10765 bound_to 10752
  140.3415  134.7272  157.4206 H   0  0  0  0  0  0  0  0  0  0  0  0  # atno 11005 bound_to 11000
  146.0058  140.8480  142.9996 LP  0  0  0  0  0  0  0  0  0  0  0  0  # atno 17320 bound_to 7965
  144.6794  140.2418  143.7343 LP  0  0  0  0  0  0  0  0  0  0  0  0  # atno 17321 bound_to 7965
  140.7130  143.7341  150.7602 LP  0  0  0  0  0  0  0  0  0  0  0  0  # atno 17342 bound_to 10162
  140.0885  143.4901  152.2492 LP  0  0  0  0  0  0  0  0  0  0  0  0  # atno 17343 bound_to 10162
  156.1935  130.6575  151.1088 LP  0  0  0  0  0  0  0  0  0  0  0  0  # atno 17370 bound_to 10713
  157.7075  131.0749  150.6616 LP  0  0  0  0  0  0  0  0  0  0  0  0  # atno 17371 bound_to 10713
  140.0777  134.5775  155.8574 LP  0  0  0  0  0  0  0  0  0  0  0  0  # atno 17394 bound_to 11000
  141.2037  133.6634  156.6078 LP  0  0  0  0  0  0  0  0  0  0  0  0  # atno 17395 bound_to 11000

$$$$
