AV-unprocessed.smi:595|AV-procd|sdf|3018|dock4
  -GOLD-   2262023523D 1   1.00000     0.00000
 Structure written by MMmdl.
 39 40  0  0  0  0  0  0  0  0  1 V2000
  150.5587  138.4944  159.1546 O   0  0  0  0  0  0  0  0  0  0  0  0
  151.0314  138.4669  158.0154 C   0  0  0  0  0  0  0  0  0  0  0  0
  151.9921  139.5762  157.5607 C   0  0  0  0  0  0  0  0  0  0  0  0
  152.4356  140.4364  158.6701 N   0  0  0  0  0  0  0  0  0  0  0  0
  152.1129  141.8047  158.5793 C   0  0  0  0  0  0  0  0  0  0  0  0
  152.4419  142.7008  159.5294 C   0  0  0  0  0  0  0  0  0  0  0  0
  152.1227  144.1800  159.3790 C   0  0  0  0  0  0  0  0  0  0  0  0
  150.8227  144.3700  159.1524 F   0  0  0  0  0  0  0  0  0  0  0  0
  152.4608  144.8594  160.4756 F   0  0  0  0  0  0  0  0  0  0  0  0
  152.8019  144.6877  158.3514 F   0  0  0  0  0  0  0  0  0  0  0  0
  153.1936  142.1939  160.6607 C   0  0  0  0  0  0  0  0  0  0  0  0
  153.5157  140.8895  160.7602 C   0  0  0  0  0  0  0  0  0  0  0  0
  153.1249  139.9219  159.7323 C   0  0  0  0  0  0  0  0  0  0  0  0
  153.3991  138.7253  159.8221 O   0  0  0  0  0  0  0  0  0  0  0  0
  150.7821  137.5175  157.0839 N   0  0  0  0  0  0  0  0  0  0  0  0
  150.0011  136.4117  157.1257 C   0  0  0  0  0  0  0  0  0  0  0  0
  149.6547  135.9317  158.2039 O   0  0  0  0  0  0  0  0  0  0  0  0
  149.6288  135.8763  155.9477 N   0  0  0  0  0  0  0  0  0  0  0  0
  148.8216  134.6709  155.7843 C   0  0  0  0  0  0  0  0  0  0  0  0
  149.5296  133.4611  156.4198 C   0  0  0  0  0  0  0  0  0  0  0  0
  150.0387  132.6147  155.2533 C   0  0  0  0  0  0  0  0  0  0  0  0
  149.0073  132.8431  154.1529 C   0  0  0  0  0  0  0  0  0  0  0  0
  148.6196  134.3160  154.2960 C   0  0  0  0  0  0  0  0  0  0  0  0
  152.8361  139.1134  157.0471 H   0  0  0  0  0  0  0  0  0  0  0  0
  151.5041  140.1913  156.8023 H   0  0  0  0  0  0  0  0  0  0  0  0
  151.5731  142.0779  157.6838 H   0  0  0  0  0  0  0  0  0  0  0  0
  153.5005  142.8705  161.4447 H   0  0  0  0  0  0  0  0  0  0  0  0
  154.0752  140.5468  161.6182 H   0  0  0  0  0  0  0  0  0  0  0  0
  151.2597  137.6547  156.2051 H   0  0  0  0  0  0  0  0  0  0  0  0
  149.9267  136.3428  155.1022 H   0  0  0  0  0  0  0  0  0  0  0  0
  147.8569  134.8125  156.2750 H   0  0  0  0  0  0  0  0  0  0  0  0
  150.3301  133.7383  157.1074 H   0  0  0  0  0  0  0  0  0  0  0  0
  148.8040  132.8807  156.9911 H   0  0  0  0  0  0  0  0  0  0  0  0
  151.0122  132.9833  154.9275 H   0  0  0  0  0  0  0  0  0  0  0  0
  150.1494  131.5620  155.5142 H   0  0  0  0  0  0  0  0  0  0  0  0
  149.3902  132.6041  153.1605 H   0  0  0  0  0  0  0  0  0  0  0  0
  148.1345  132.2144  154.3337 H   0  0  0  0  0  0  0  0  0  0  0  0
  147.5968  134.4999  153.9655 H   0  0  0  0  0  0  0  0  0  0  0  0
  149.2744  134.9174  153.6635 H   0  0  0  0  0  0  0  0  0  0  0  0
  1  2  2  0  0  0  0
  2  3  1  0  0  0  0
  2 15  1  0  0  0  0
  3  4  1  0  0  0  0
  3 24  1  0  0  0  0
  3 25  1  0  0  0  0
  4 13  1  0  0  0  0
  4  5  1  0  0  0  0
  5  6  2  0  0  0  0
  5 26  1  0  0  0  0
  6  7  1  0  0  0  0
  6 11  1  0  0  0  0
  7  8  1  0  0  0  0
  7  9  1  0  0  0  0
  7 10  1  0  0  0  0
 11 12  2  0  0  0  0
 11 27  1  0  0  0  0
 12 13  1  0  0  0  0
 12 28  1  0  0  0  0
 13 14  2  0  0  0  0
 15 16  1  0  0  0  0
 15 29  1  0  0  0  0
 16 17  2  0  0  0  0
 16 18  1  0  0  0  0
 18 19  1  0  0  0  0
 18 30  1  0  0  0  0
 19 23  1  0  0  0  0
 19 20  1  0  0  0  0
 19 31  1  0  0  0  0
 20 21  1  0  0  0  0
 20 32  1  0  0  0  0
 20 33  1  0  0  0  0
 21 22  1  0  0  0  0
 21 34  1  0  0  0  0
 21 35  1  0  0  0  0
 22 23  1  0  0  0  0
 22 36  1  0  0  0  0
 22 37  1  0  0  0  0
 23 38  1  0  0  0  0
 23 39  1  0  0  0  0
M  END
> <s_m_source_file>
AV-unprocessed.smi

> <i_m_source_file_index>
595

> <i_lp_mmshare_version>
43012

> <i_f3d_flags>
0

> <s_epik_input>
W0NIMl0xW0NIMl1bQ0gyXVtDSDJdW0NIXTFbTkhdQyg9TylbTkhdQyg9TylbQ0gyXW4yW2NIXWMoQyhGKShGKUYpW2NIXVtjSF1jMj1P

> <s_epik_cmdline>
J2VwaWtfcHl0aG9uJywgJy1waCcsICc3LjAnLCAnLXRuJywgJzgnLCAnLW1hJywgJzIwMCcsICctbWV0YWxfYmluZGluZycsICctaW1hZScsICc8aW5maWxlLm1hZT4nLCAnLW9tYWUnLCAnPG91dGZpbGUubWFlPic=

> <r_lp_tautomer_probability>
1

> <r_epik_Ionization_Penalty>
3.29047e-05

> <r_epik_Ionization_Penalty_Charging>
1.42456e-08

> <r_epik_Ionization_Penalty_Neutral>
3.28905e-05

> <r_epik_State_Penalty>
-0

> <r_epik_Charging_Adjusted_Penalty>
1.42456e-08

> <i_epik_Tot_Q>
0

> <i_epik_Tot_abs_Q>
0

> <r_epik_Metal_State_Penalty>
-0

> <b_epik_Metal_Only>
0

> <s_lp_Force_Field>
OPLS_2005

> <r_lp_Energy>
34.7393

> <b_lp_Chiralities_Consistent>
1

> <s_lp_Variant>
AV-unprocessed.smi:595-1

> <Gold.Version>
5.8.1

> <Gold.Id.Protein>
6NUR|6NUR_protein|mol2

> <Gold.PLP.Fitness>
49.8647

> <Gold.PLP.PLP>
-47.4185

> <Gold.PLP.part.hbond>
-1.8333

> <Gold.PLP.part.metal>
0.0000

> <Gold.PLP.part.buried>
-6.6306

> <Gold.PLP.part.nonpolar>
-39.1421

> <Gold.PLP.part.repulsive>
0.1216

> <Gold.PLP.ligand.clash>
0.0000

> <Gold.PLP.ligand.torsion>
0.3345

> <Gold.PLP.Chemscore.Hbond>
0.9920

> <Gold.PLP.Chemscore.CHOScore>
0.0000

> <Gold.PLP.Chemscore.Metal>
0.0000

> <Gold.Chemscore.Hbonds>
donor molecule, donor type, donor heavy atom, donor atom, acceptor molecule, acceptor atom, score
      P1  H  6896  6908       L1    17  0.63

> <Gold.PLP.Chemscore.Internal.Correction>
0.1392

> <Gold.Rescore>
     Score         DG    S(hbond)    S(metal)    S(lipo)     H(rot)  DE(clash)    DE(int)     intcor
     12.06     -13.82       1.00        0.00      79.50       1.68       0.01       1.75       ----

> <Gold.Chemscore.Fitness>
12.0600

> <Gold.Chemscore.DG>
-13.8176

> <Gold.Chemscore.ZeroCoef>
-5.4800

> <Gold.Chemscore.Hbond>
0.9952

> <Gold.Chemscore.Metal>
0.0000

> <Gold.Chemscore.Lipo>
79.5020

> <Gold.Chemscore.Internal_Hbond>
0.0000

> <Gold.Chemscore.DEClash>
0.0079

> <Gold.Chemscore.DEInternal>
1.7498

> <Gold.Chemscore.Rot>
1.6750

> <Gold.Chemscore.Internal.Correction>
   9.000000E+99

> <Gold.Chemscore.Hbonds>
donor molecule, donor type, donor heavy atom, donor atom, acceptor molecule, acceptor atom, score
      P1  H  6896  6908       L1    17  0.60

> <Gold.Chemscore.Hbond.Weighted>
-3.3240

> <Gold.Chemscore.Metal.Weighted>
-0.0000

> <Gold.Chemscore.Lipo.Weighted>
-9.3017

> <Gold.Chemscore.Internal_Hbond.Weighted>
0.0000

> <Gold.Chemscore.DEClash.Weighted>
0.0079

> <Gold.Chemscore.DEInternal.Weighted>
1.7498

> <Gold.Chemscore.Rot.Weighted>
4.2881

> <Gold.Chemscore.Internal.Correction.Weighted>
   9.000000E+99

> <Gold.Protein.RotatedTorsions>
[ 6907 6896 6895 6894 ] final -169.71 input  -60.11 | X-H torsion
[ 7974 7965 7964 7962 ] final   16.40 input  175.53 | X-H torsion
[ 8008 7997 7996 7995 ] final -116.42 input   59.86 | X-H torsion
[ 10167 10162 10161 10158 ] final  154.79 input  -65.29 | X-H torsion
[ 10718 10713 10712 10709 ] final  138.50 input   66.30 | X-H torsion
[ 10763 10752 10751 10750 ] final -104.87 input  -60.55 | X-H torsion
[ 11005 11000 10999 10996 ] final  -42.79 input  -57.11 | X-H torsion

> <Gold.Protein.ActiveResidues>
 VAL166  LYS551  ARG553  GLY616  TRP617  ASP618  TYR619  PRO620  LYS621  CYS622 
 ASP623  PHE694  ASN695  SER759  ASP760  ASP761  ALA762  ILE779  LEU786  VAL792 
 PHE793  MET794  SER795  GLU796  ALA797  LYS798  CYS799  TRP800  GLU811  SER814 

> <Gold.Protein.RotatedAtoms>
  151.4959  133.3514  159.2860 H   0  0  0  0  0  0  0  0  0  0  0  0  # atno 6907 bound_to 6896
  150.8804  134.8196  159.7231 H   0  0  0  0  0  0  0  0  0  0  0  0  # atno 6908 bound_to 6896
  152.4759  134.4856  159.9731 H   0  0  0  0  0  0  0  0  0  0  0  0  # atno 6909 bound_to 6896
  146.2250  139.8753  142.8580 H   0  0  0  0  0  0  0  0  0  0  0  0  # atno 7974 bound_to 7965
  155.0676  140.0393  157.2597 H   0  0  0  0  0  0  0  0  0  0  0  0  # atno 8008 bound_to 7997
  154.7009  140.2673  155.6696 H   0  0  0  0  0  0  0  0  0  0  0  0  # atno 8009 bound_to 7997
  156.2760  140.2741  156.1619 H   0  0  0  0  0  0  0  0  0  0  0  0  # atno 8010 bound_to 7997
  139.4822  144.5156  151.7957 H   0  0  0  0  0  0  0  0  0  0  0  0  # atno 10167 bound_to 10162
  157.4247  131.1042  151.0316 H   0  0  0  0  0  0  0  0  0  0  0  0  # atno 10718 bound_to 10713
  154.7908  135.4770  154.0049 H   0  0  0  0  0  0  0  0  0  0  0  0  # atno 10763 bound_to 10752
  153.1628  135.6811  153.8725 H   0  0  0  0  0  0  0  0  0  0  0  0  # atno 10764 bound_to 10752
  153.8333  135.3189  155.3398 H   0  0  0  0  0  0  0  0  0  0  0  0  # atno 10765 bound_to 10752
  141.0340  133.6808  156.2644 H   0  0  0  0  0  0  0  0  0  0  0  0  # atno 11005 bound_to 11000
  145.2567  141.0063  143.3850 LP  0  0  0  0  0  0  0  0  0  0  0  0  # atno 17320 bound_to 7965
  144.9331  139.4275  143.6485 LP  0  0  0  0  0  0  0  0  0  0  0  0  # atno 17321 bound_to 7965
  140.4664  144.1649  150.5912 LP  0  0  0  0  0  0  0  0  0  0  0  0  # atno 17342 bound_to 10162
  140.4430  143.2518  151.9448 LP  0  0  0  0  0  0  0  0  0  0  0  0  # atno 17343 bound_to 10162
  157.1234  130.6071  149.5511 LP  0  0  0  0  0  0  0  0  0  0  0  0  # atno 17370 bound_to 10713
  155.9892  130.4939  150.7205 LP  0  0  0  0  0  0  0  0  0  0  0  0  # atno 17371 bound_to 10713
  140.6356  134.5219  157.5564 LP  0  0  0  0  0  0  0  0  0  0  0  0  # atno 17394 bound_to 11000
  139.9227  134.8116  156.1160 LP  0  0  0  0  0  0  0  0  0  0  0  0  # atno 17395 bound_to 11000

$$$$
