AV-unprocessed.smi:2859|AV-procd|sdf|11004|dock3
  -GOLD-   2272015463D 1   1.00000     0.00000
 Structure written by MMmdl.
 51 52  0  0  0  0  0  0  0  0  1 V2000
  146.0602  134.7369  161.9661 C   0  0  0  0  0  0  0  0  0  0  0  0
  146.6937  136.0333  161.4131 C   0  0  0  0  0  0  0  0  0  0  0  0
  145.8528  137.2193  161.9294 C   0  0  0  0  0  0  0  0  0  0  0  0
  148.1287  136.1255  161.9720 C   0  0  0  0  0  0  0  0  0  0  0  0
  146.7345  136.0584  159.8756 C   0  0  0  0  0  0  0  0  0  0  0  0
  147.9333  136.1262  159.1253 C   0  0  0  0  0  0  0  0  0  0  0  0
  147.8173  136.1199  157.7128 C   0  0  0  0  0  0  0  0  0  0  0  0
  148.9372  136.1771  156.8520 N   0  0  0  0  0  0  0  0  0  0  0  0
  149.4098  134.9401  156.2377 C   0  0  0  0  0  0  0  0  0  0  0  0
  150.8041  135.1412  155.6250 C   0  0  0  0  0  0  0  0  0  0  0  0
  150.7753  136.2348  154.7165 O   0  0  0  0  0  0  0  0  0  0  0  0
  150.4509  137.4640  155.3654 C   0  0  1  0  0  0  0  0  0  0  0  0
  150.5513  138.6046  154.3416 C   0  0  0  0  0  0  0  0  0  0  0  0
  149.7886  138.5128  153.2482 N   0  0  0  0  0  0  0  0  0  0  0  0
  151.3171  139.5505  154.5186 O   0  0  0  0  0  0  0  0  0  0  0  0
  149.0409  137.3547  155.9891 C   0  0  0  0  0  0  0  0  0  0  0  0
  146.5955  136.0624  157.1341 N   0  0  0  0  0  0  0  0  0  0  0  0
  145.5125  136.0442  157.9175 C   0  0  0  0  0  0  0  0  0  0  0  0
  144.1520  135.8279  157.2341 C   0  0  0  0  0  0  0  0  0  0  0  0
  143.2461  137.0435  157.5019 C   0  0  0  0  0  0  0  0  0  0  0  0
  143.4632  134.5453  157.7577 C   0  0  0  0  0  0  0  0  0  0  0  0
  144.3232  135.6316  155.7093 C   0  0  0  0  0  0  0  0  0  0  0  0
  145.5354  136.0033  159.2529 N   0  0  0  0  0  0  0  0  0  0  0  0
  146.0419  134.7402  163.0565 H   0  0  0  0  0  0  0  0  0  0  0  0
  146.6201  133.8523  161.6597 H   0  0  0  0  0  0  0  0  0  0  0  0
  145.0290  134.6172  161.6314 H   0  0  0  0  0  0  0  0  0  0  0  0
  144.8344  137.1803  161.5408 H   0  0  0  0  0  0  0  0  0  0  0  0
  146.2802  138.1781  161.6339 H   0  0  0  0  0  0  0  0  0  0  0  0
  145.7898  137.2183  163.0181 H   0  0  0  0  0  0  0  0  0  0  0  0
  148.1336  136.0926  163.0619 H   0  0  0  0  0  0  0  0  0  0  0  0
  148.6203  137.0531  161.6767 H   0  0  0  0  0  0  0  0  0  0  0  0
  148.7449  135.2994  161.6149 H   0  0  0  0  0  0  0  0  0  0  0  0
  148.8949  136.1622  159.6100 H   0  0  0  0  0  0  0  0  0  0  0  0
  149.4700  134.1447  156.9810 H   0  0  0  0  0  0  0  0  0  0  0  0
  148.7019  134.6247  155.4700 H   0  0  0  0  0  0  0  0  0  0  0  0
  151.5495  135.3181  156.4020 H   0  0  0  0  0  0  0  0  0  0  0  0
  151.1106  134.2426  155.0893 H   0  0  0  0  0  0  0  0  0  0  0  0
  151.1855  137.6614  156.1482 H   0  0  0  0  0  0  0  0  0  0  0  0
  149.8317  139.2374  152.5462 H   0  0  0  0  0  0  0  0  0  0  0  0
  149.1804  137.7167  153.1244 H   0  0  0  0  0  0  0  0  0  0  0  0
  148.2836  137.2795  155.2072 H   0  0  0  0  0  0  0  0  0  0  0  0
  148.8346  138.2691  156.5459 H   0  0  0  0  0  0  0  0  0  0  0  0
  142.2692  136.9235  157.0325 H   0  0  0  0  0  0  0  0  0  0  0  0
  143.6887  137.9607  157.1116 H   0  0  0  0  0  0  0  0  0  0  0  0
  143.0830  137.1867  158.5709 H   0  0  0  0  0  0  0  0  0  0  0  0
  143.2321  134.6105  158.8218 H   0  0  0  0  0  0  0  0  0  0  0  0
  144.0932  133.6673  157.6094 H   0  0  0  0  0  0  0  0  0  0  0  0
  142.5199  134.3623  157.2424 H   0  0  0  0  0  0  0  0  0  0  0  0
  143.3668  135.4314  155.2249 H   0  0  0  0  0  0  0  0  0  0  0  0
  144.9841  134.7923  155.4890 H   0  0  0  0  0  0  0  0  0  0  0  0
  144.7407  136.5163  155.2268 H   0  0  0  0  0  0  0  0  0  0  0  0
  1  2  1  0  0  0  0
  1 24  1  0  0  0  0
  1 25  1  0  0  0  0
  1 26  1  0  0  0  0
  2  3  1  0  0  0  0
  2  4  1  0  0  0  0
  2  5  1  0  0  0  0
  3 27  1  0  0  0  0
  3 28  1  0  0  0  0
  3 29  1  0  0  0  0
  4 30  1  0  0  0  0
  4 31  1  0  0  0  0
  4 32  1  0  0  0  0
  5 23  1  0  0  0  0
  5  6  2  0  0  0  0
  6  7  1  0  0  0  0
  6 33  1  0  0  0  0
  7  8  1  0  0  0  0
  7 17  2  0  0  0  0
  8 16  1  0  0  0  0
  8  9  1  0  0  0  0
  9 10  1  0  0  0  0
  9 34  1  0  0  0  0
  9 35  1  0  0  0  0
 10 11  1  0  0  0  0
 10 36  1  0  0  0  0
 10 37  1  0  0  0  0
 11 12  1  0  0  0  0
 12 13  1  0  0  0  0
 12 16  1  0  0  0  0
 12 38  1  0  0  0  0
 13 14  1  0  0  0  0
 13 15  2  0  0  0  0
 14 39  1  0  0  0  0
 14 40  1  0  0  0  0
 16 41  1  0  0  0  0
 16 42  1  0  0  0  0
 17 18  1  0  0  0  0
 18 19  1  0  0  0  0
 18 23  2  0  0  0  0
 19 20  1  0  0  0  0
 19 21  1  0  0  0  0
 19 22  1  0  0  0  0
 20 43  1  0  0  0  0
 20 44  1  0  0  0  0
 20 45  1  0  0  0  0
 21 46  1  0  0  0  0
 21 47  1  0  0  0  0
 21 48  1  0  0  0  0
 22 49  1  0  0  0  0
 22 50  1  0  0  0  0
 22 51  1  0  0  0  0
M  END
> <s_m_source_file>
AV-unprocessed.smi

> <i_m_source_file_index>
2859

> <i_lp_mmshare_version>
43012

> <i_f3d_flags>
0

> <s_epik_input>
W0NIM11DKFtDSDNdKShbQ0gzXSljMVtjSF1jKG5jKG4xKUMoW0NIM10pKFtDSDNdKVtDSDNdKU4yW0NIMl1bQ0gyXU9bQ0BIXShbQ0gyXTIpQyg9TylbTkgyXQ==

> <s_epik_cmdline>
J2VwaWtfcHl0aG9uJywgJy1waCcsICc3LjAnLCAnLXRuJywgJzgnLCAnLW1hJywgJzIwMCcsICctbWV0YWxfYmluZGluZycsICctaW1hZScsICc8aW5maWxlLm1hZT4nLCAnLW9tYWUnLCAnPG91dGZpbGUubWFlPic=

> <r_lp_tautomer_probability>
1

> <r_epik_Ionization_Penalty>
0.0011326

> <r_epik_Ionization_Penalty_Charging>
0

> <r_epik_Ionization_Penalty_Neutral>
0.0011326

> <r_epik_State_Penalty>
0.000721507

> <r_epik_Charging_Adjusted_Penalty>
0.000721507

> <i_epik_Tot_Q>
0

> <i_epik_Tot_abs_Q>
0

> <r_epik_Metal_State_Penalty>
-0

> <b_epik_Metal_Only>
0

> <s_lp_Force_Field>
OPLS_2005

> <r_lp_Energy>
9.66703

> <b_lp_Chiralities_Consistent>
1

> <s_lp_Variant>
AV-unprocessed.smi:2859-1

> <Gold.Version>
5.8.1

> <Gold.Id.Protein>
6NUR|6NUR_protein|mol2

> <Gold.PLP.Fitness>
35.6500

> <Gold.PLP.PLP>
-25.8138

> <Gold.PLP.part.hbond>
-4.6042

> <Gold.PLP.part.metal>
0.0000

> <Gold.PLP.part.buried>
-3.9069

> <Gold.PLP.part.nonpolar>
-17.1088

> <Gold.PLP.part.repulsive>
0.2541

> <Gold.PLP.ligand.clash>
0.0000

> <Gold.PLP.ligand.torsion>
0.4381

> <Gold.PLP.Chemscore.Hbond>
3.3633

> <Gold.PLP.Chemscore.CHOScore>
0.0000

> <Gold.PLP.Chemscore.Metal>
0.0000

> <Gold.Chemscore.Hbonds>
donor molecule, donor type, donor heavy atom, donor atom, acceptor molecule, acceptor atom, score
      L1  H    14    39       P1  7957  1.00
      L1  H    14    40       P1  7948  0.74
      P1  H  7989  7998       L1    15  1.00
      P1  H 10752 10763       L1    11  0.04

> <Gold.PLP.Chemscore.Internal.Correction>
0.6228

> <Gold.Rescore>
     Score         DG    S(hbond)    S(metal)    S(lipo)     H(rot)  DE(clash)    DE(int)     intcor
     15.80     -16.24       2.71        0.00      54.75       1.83       0.04       0.40       ----

> <Gold.Chemscore.Fitness>
15.8015

> <Gold.Chemscore.DG>
-16.2414

> <Gold.Chemscore.ZeroCoef>
-5.4800

> <Gold.Chemscore.Hbond>
2.7083

> <Gold.Chemscore.Metal>
0.0000

> <Gold.Chemscore.Lipo>
54.7543

> <Gold.Chemscore.Internal_Hbond>
0.0000

> <Gold.Chemscore.DEClash>
0.0354

> <Gold.Chemscore.DEInternal>
0.4045

> <Gold.Chemscore.Rot>
1.8323

> <Gold.Chemscore.Internal.Correction>
   9.000000E+99

> <Gold.Chemscore.Hbonds>
donor molecule, donor type, donor heavy atom, donor atom, acceptor molecule, acceptor atom, score
      L1  H    14    39       P1  7957  0.89
      L1  H    14    40       P1  7948  0.73
      P1  H  7989  7998       L1    15  1.00

> <Gold.Chemscore.Hbond.Weighted>
-9.0458

> <Gold.Chemscore.Metal.Weighted>
-0.0000

> <Gold.Chemscore.Lipo.Weighted>
-6.4063

> <Gold.Chemscore.Internal_Hbond.Weighted>
0.0000

> <Gold.Chemscore.DEClash.Weighted>
0.0354

> <Gold.Chemscore.DEInternal.Weighted>
0.4045

> <Gold.Chemscore.Rot.Weighted>
4.6907

> <Gold.Chemscore.Internal.Correction.Weighted>
   9.000000E+99

> <Gold.Protein.RotatedTorsions>
[ 6907 6896 6895 6894 ] final  -74.68 input  -60.11 | X-H torsion
[ 7974 7965 7964 7962 ] final   89.65 input  175.53 | X-H torsion
[ 8008 7997 7996 7995 ] final   70.10 input   59.86 | X-H torsion
[ 10167 10162 10161 10158 ] final  140.50 input  -65.29 | X-H torsion
[ 10718 10713 10712 10709 ] final   74.68 input   66.30 | X-H torsion
[ 10763 10752 10751 10750 ] final   46.38 input  -60.55 | X-H torsion
[ 11005 11000 10999 10996 ] final   10.18 input  -57.11 | X-H torsion

> <Gold.Protein.ActiveResidues>
 VAL166  LYS551  ARG553  GLY616  TRP617  ASP618  TYR619  PRO620  LYS621  CYS622 
 ASP623  PHE694  ASN695  SER759  ASP760  ASP761  ALA762  ILE779  LEU786  VAL792 
 PHE793  MET794  SER795  GLU796  ALA797  LYS798  CYS799  TRP800  GLU811  SER814 

> <Gold.Protein.RotatedAtoms>
  150.7084  134.4833  159.5480 H   0  0  0  0  0  0  0  0  0  0  0  0  # atno 6907 bound_to 6896
  152.2466  134.8172  160.0461 H   0  0  0  0  0  0  0  0  0  0  0  0  # atno 6908 bound_to 6896
  151.8935  133.3486  159.3843 H   0  0  0  0  0  0  0  0  0  0  0  0  # atno 6909 bound_to 6896
  145.5296  139.2282  143.2626 H   0  0  0  0  0  0  0  0  0  0  0  0  # atno 7974 bound_to 7965
  155.7336  140.3491  155.5071 H   0  0  0  0  0  0  0  0  0  0  0  0  # atno 8008 bound_to 7997
  155.9159  140.1058  157.1265 H   0  0  0  0  0  0  0  0  0  0  0  0  # atno 8009 bound_to 7997
  154.4062  140.1259  156.4604 H   0  0  0  0  0  0  0  0  0  0  0  0  # atno 8010 bound_to 7997
  139.5047  144.6230  151.6005 H   0  0  0  0  0  0  0  0  0  0  0  0  # atno 10167 bound_to 10162
  157.6602  130.9689  150.1245 H   0  0  0  0  0  0  0  0  0  0  0  0  # atno 10718 bound_to 10713
  152.9811  135.6010  154.3590 H   0  0  0  0  0  0  0  0  0  0  0  0  # atno 10763 bound_to 10752
  154.3273  135.2769  155.2491 H   0  0  0  0  0  0  0  0  0  0  0  0  # atno 10764 bound_to 10752
  154.4631  135.5961  153.6325 H   0  0  0  0  0  0  0  0  0  0  0  0  # atno 10765 bound_to 10752
  140.5174  134.0592  155.7835 H   0  0  0  0  0  0  0  0  0  0  0  0  # atno 11005 bound_to 11000
  146.2053  140.6111  142.9084 LP  0  0  0  0  0  0  0  0  0  0  0  0  # atno 17320 bound_to 7965
  144.7633  140.5472  143.6720 LP  0  0  0  0  0  0  0  0  0  0  0  0  # atno 17321 bound_to 7965
  140.5938  143.9732  150.6341 LP  0  0  0  0  0  0  0  0  0  0  0  0  # atno 17342 bound_to 10162
  140.2921  143.3317  152.1052 LP  0  0  0  0  0  0  0  0  0  0  0  0  # atno 17343 bound_to 10162
  156.2108  130.3666  149.8673 LP  0  0  0  0  0  0  0  0  0  0  0  0  # atno 17370 bound_to 10713
  156.6552  130.8760  151.3538 LP  0  0  0  0  0  0  0  0  0  0  0  0  # atno 17371 bound_to 10713
  141.1353  133.9233  157.2448 LP  0  0  0  0  0  0  0  0  0  0  0  0  # atno 17394 bound_to 11000
  139.9625  135.0150  156.9298 LP  0  0  0  0  0  0  0  0  0  0  0  0  # atno 17395 bound_to 11000

$$$$
