AV-unprocessed.smi:1005|AV-procd|sdf|4362|dock4
  -GOLD-   22720 2263D 1   1.00000     0.00000
 Structure written by MMmdl.
 56 58  0  0  0  0  0  0  0  0  2 V2000
  153.0824  143.1970  161.6388 C   0  0  0  0  0  0  0  0  0  0  0  0
  152.5068  142.7539  160.3052 C   0  0  0  0  0  0  0  0  0  0  0  0
  152.5863  141.3905  159.9412 C   0  0  0  0  0  0  0  0  0  0  0  0
  152.0651  140.9382  158.7091 C   0  0  0  0  0  0  0  0  0  0  0  0
  152.0347  139.6690  158.1568 N   0  0  0  0  0  0  0  0  0  0  0  0
  151.4235  139.8955  156.9977 C   0  0  0  0  0  0  0  0  0  0  0  0
  151.0480  141.1624  156.7362 N   0  0  0  0  0  0  0  0  0  0  0  0
  150.3697  141.6508  155.5486 C   0  0  0  0  0  0  0  0  0  0  0  0
  149.4515  140.5878  154.9139 C   0  0  2  0  0  0  0  0  0  0  0  0
  150.2163  139.8234  154.0006 O   0  0  0  0  0  0  0  0  0  0  0  0
  148.2622  141.2296  154.1685 C   0  0  0  0  0  0  0  0  0  0  0  0
  147.0694  141.4709  154.9817 N   0  0  0  0  0  0  0  0  0  0  0  0
  147.4349  141.8962  156.3282 C   0  0  0  0  0  0  0  0  0  0  0  0
  146.1980  142.1609  157.2021 C   0  0  0  0  0  0  0  0  0  0  0  0
  145.3700  143.1304  156.5683 O   0  0  0  0  0  0  0  0  0  0  0  0
  144.9386  142.7313  155.2694 C   0  0  1  0  0  0  0  0  0  0  0  0
  144.0592  143.8535  154.6896 C   0  0  0  0  0  0  0  0  0  0  0  0
  142.6074  143.5706  154.8222 N   0  3  0  0  0  0  0  0  0  0  0  0
  141.7470  144.7220  154.4641 C   0  0  0  0  0  0  0  0  0  0  0  0
  142.2655  143.0327  156.1575 C   0  0  0  0  0  0  0  0  0  0  0  0
  146.1808  142.4705  154.3939 C   0  0  0  0  0  0  0  0  0  0  0  0
  151.4567  141.8950  157.8449 C   0  0  0  0  0  0  0  0  0  0  0  0
  151.3707  143.2537  158.1959 C   0  0  0  0  0  0  0  0  0  0  0  0
  151.8962  143.6886  159.4305 C   0  0  0  0  0  0  0  0  0  0  0  0
  151.7991  145.1582  159.8002 C   0  0  0  0  0  0  0  0  0  0  0  0
  153.5452  142.3642  162.1694 H   0  0  0  0  0  0  0  0  0  0  0  0
  152.2978  143.6058  162.2762 H   0  0  0  0  0  0  0  0  0  0  0  0
  153.8441  143.9632  161.4914 H   0  0  0  0  0  0  0  0  0  0  0  0
  153.0506  140.6781  160.6071 H   0  0  0  0  0  0  0  0  0  0  0  0
  151.2330  139.0934  156.2993 H   0  0  0  0  0  0  0  0  0  0  0  0
  149.7902  142.5306  155.8308 H   0  0  0  0  0  0  0  0  0  0  0  0
  151.1186  141.9878  154.8299 H   0  0  0  0  0  0  0  0  0  0  0  0
  149.0815  139.9284  155.7002 H   0  0  0  0  0  0  0  0  0  0  0  0
  149.7086  139.7052  153.2120 H   0  0  0  0  0  0  0  0  0  0  0  0
  148.6005  142.1965  153.7936 H   0  0  0  0  0  0  0  0  0  0  0  0
  148.0102  140.6490  153.2793 H   0  0  0  0  0  0  0  0  0  0  0  0
  148.0536  141.1337  156.8031 H   0  0  0  0  0  0  0  0  0  0  0  0
  148.0407  142.8025  156.2786 H   0  0  0  0  0  0  0  0  0  0  0  0
  145.6350  141.2406  157.3661 H   0  0  0  0  0  0  0  0  0  0  0  0
  146.4981  142.5329  158.1819 H   0  0  0  0  0  0  0  0  0  0  0  0
  144.3678  141.8054  155.3477 H   0  0  0  0  0  0  0  0  0  0  0  0
  144.2981  144.7791  155.2159 H   0  0  0  0  0  0  0  0  0  0  0  0
  144.3005  144.0268  153.6397 H   0  0  0  0  0  0  0  0  0  0  0  0
  141.9394  145.5727  155.1194 H   0  0  0  0  0  0  0  0  0  0  0  0
  140.6936  144.4556  154.5569 H   0  0  0  0  0  0  0  0  0  0  0  0
  141.9078  145.0396  153.4347 H   0  0  0  0  0  0  0  0  0  0  0  0
  142.4794  143.7627  156.9395 H   0  0  0  0  0  0  0  0  0  0  0  0
  142.8350  142.1269  156.3688 H   0  0  0  0  0  0  0  0  0  0  0  0
  141.2074  142.7742  156.2108 H   0  0  0  0  0  0  0  0  0  0  0  0
  146.7255  143.4040  154.2431 H   0  0  0  0  0  0  0  0  0  0  0  0
  145.8468  142.1408  153.4104 H   0  0  0  0  0  0  0  0  0  0  0  0
  150.9041  143.9545  157.5194 H   0  0  0  0  0  0  0  0  0  0  0  0
  151.2555  145.7240  159.0429 H   0  0  0  0  0  0  0  0  0  0  0  0
  152.7942  145.5936  159.8938 H   0  0  0  0  0  0  0  0  0  0  0  0
  151.2756  145.2816  160.7484 H   0  0  0  0  0  0  0  0  0  0  0  0
  142.4001  142.8326  154.1636 H   0  0  0  0  0  0  0  0  0  0  0  0
  1  2  1  0  0  0  0
  1 26  1  0  0  0  0
  1 27  1  0  0  0  0
  1 28  1  0  0  0  0
  2 24  1  0  0  0  0
  2  3  2  0  0  0  0
  3  4  1  0  0  0  0
  3 29  1  0  0  0  0
  4 22  2  0  0  0  0
  4  5  1  0  0  0  0
  5  6  2  0  0  0  0
  6  7  1  0  0  0  0
  6 30  1  0  0  0  0
  7  8  1  0  0  0  0
  7 22  1  0  0  0  0
  8  9  1  0  0  0  0
  8 31  1  0  0  0  0
  8 32  1  0  0  0  0
  9 10  1  0  0  0  0
  9 11  1  0  0  0  0
  9 33  1  0  0  0  0
 10 34  1  0  0  0  0
 11 12  1  0  0  0  0
 11 35  1  0  0  0  0
 11 36  1  0  0  0  0
 12 21  1  0  0  0  0
 12 13  1  0  0  0  0
 13 14  1  0  0  0  0
 13 37  1  0  0  0  0
 13 38  1  0  0  0  0
 14 15  1  0  0  0  0
 14 39  1  0  0  0  0
 14 40  1  0  0  0  0
 15 16  1  0  0  0  0
 16 17  1  0  0  0  0
 16 21  1  0  0  0  0
 16 41  1  0  0  0  0
 17 18  1  0  0  0  0
 17 42  1  0  0  0  0
 17 43  1  0  0  0  0
 18 19  1  0  0  0  0
 18 20  1  0  0  0  0
 18 56  1  0  0  0  0
 19 44  1  0  0  0  0
 19 45  1  0  0  0  0
 19 46  1  0  0  0  0
 20 47  1  0  0  0  0
 20 48  1  0  0  0  0
 20 49  1  0  0  0  0
 21 50  1  0  0  0  0
 21 51  1  0  0  0  0
 22 23  1  0  0  0  0
 23 24  2  0  0  0  0
 23 52  1  0  0  0  0
 24 25  1  0  0  0  0
 25 53  1  0  0  0  0
 25 54  1  0  0  0  0
 25 55  1  0  0  0  0
M  CHG  1  18   1
M  END
> <s_m_source_file>
AV-unprocessed.smi

> <i_m_source_file_index>
1005

> <i_lp_mmshare_version>
43012

> <i_f3d_flags>
0

> <s_epik_input>
W0NIM11jKFtjSF0xKWMoW0NIM10pW2NIXWMoYzEyKW4oW2NIXW4yKVtDSDJdW0NASF0oW09IXSlbQ0gyXU4zW0NIMl1bQ0gyXU9bQ0BIXShbQ0gyXTMpW0NIMl1OKFtDSDNdKVtDSDNd

> <s_epik_cmdline>
J2VwaWtfcHl0aG9uJywgJy1waCcsICc3LjAnLCAnLXRuJywgJzgnLCAnLW1hJywgJzIwMCcsICctbWV0YWxfYmluZGluZycsICctaW1hZScsICc8aW5maWxlLm1hZT4nLCAnLW9tYWUnLCAnPG91dGZpbGUubWFlPic=

> <r_epik_Ionization_Penalty>
0.226781

> <r_epik_Ionization_Penalty_Charging>
0.00915946

> <r_epik_Ionization_Penalty_Neutral>
0.217622

> <r_epik_State_Penalty>
0.173018

> <r_epik_Charging_Adjusted_Penalty>
0.182178

> <i_epik_Tot_Q>
1

> <i_epik_Tot_abs_Q>
1

> <r_epik_Metal_State_Penalty>
0.0905268

> <b_epik_Metal_Only>
0

> <s_lp_Force_Field>
OPLS_2005

> <r_lp_Energy>
36.5786

> <b_lp_Chiralities_Consistent>
1

> <s_lp_Variant>
AV-unprocessed.smi:1005-1

> <Gold.Version>
5.8.1

> <Gold.Id.Protein>
6NUR|6NUR_protein|mol2

> <Gold.PLP.Fitness>
58.8762

> <Gold.PLP.PLP>
-50.6513

> <Gold.PLP.part.hbond>
-3.0000

> <Gold.PLP.part.metal>
0.0000

> <Gold.PLP.part.buried>
-6.1904

> <Gold.PLP.part.nonpolar>
-41.5630

> <Gold.PLP.part.repulsive>
0.2950

> <Gold.PLP.ligand.clash>
0.0000

> <Gold.PLP.ligand.torsion>
1.9223

> <Gold.PLP.Chemscore.Hbond>
4.0000

> <Gold.PLP.Chemscore.CHOScore>
0.0000

> <Gold.PLP.Chemscore.Metal>
0.0000

> <Gold.Chemscore.Hbonds>
donor molecule, donor type, donor heavy atom, donor atom, acceptor molecule, acceptor atom, score
      L1  H    10    34       P1  7957  0.80
      L1  H    18    56       P1 10174  1.37
      P1  H  7989  7998       L1    10  1.00

> <Gold.PLP.Chemscore.Internal.Correction>
0.0695

> <Gold.Rescore>
     Score         DG    S(hbond)    S(metal)    S(lipo)     H(rot)  DE(clash)    DE(int)     intcor
     18.76     -21.57       2.04        0.00     132.01       2.41       0.74       2.07       ----

> <Gold.Chemscore.Fitness>
18.7630

> <Gold.Chemscore.DG>
-21.5694

> <Gold.Chemscore.ZeroCoef>
-5.4800

> <Gold.Chemscore.Hbond>
2.0430

> <Gold.Chemscore.Metal>
0.0000

> <Gold.Chemscore.Lipo>
132.0058

> <Gold.Chemscore.Internal_Hbond>
0.0000

> <Gold.Chemscore.DEClash>
0.7360

> <Gold.Chemscore.DEInternal>
2.0703

> <Gold.Chemscore.Rot>
2.4136

> <Gold.Chemscore.Internal.Correction>
   9.000000E+99

> <Gold.Chemscore.Hbonds>
donor molecule, donor type, donor heavy atom, donor atom, acceptor molecule, acceptor atom, score
      L1  H    10    34       P1  7957  0.77
      L1  H    18    56       P1 10174  0.63
      P1  H  7989  7998       L1    10  0.26

> <Gold.Chemscore.Hbond.Weighted>
-6.8235

> <Gold.Chemscore.Metal.Weighted>
-0.0000

> <Gold.Chemscore.Lipo.Weighted>
-15.4447

> <Gold.Chemscore.Internal_Hbond.Weighted>
0.0000

> <Gold.Chemscore.DEClash.Weighted>
0.7360

> <Gold.Chemscore.DEInternal.Weighted>
2.0703

> <Gold.Chemscore.Rot.Weighted>
6.1788

> <Gold.Chemscore.Internal.Correction.Weighted>
   9.000000E+99

> <Gold.Protein.RotatedTorsions>
[ 6907 6896 6895 6894 ] final  112.83 input  -60.11 | X-H torsion
[ 7974 7965 7964 7962 ] final  154.16 input  175.53 | X-H torsion
[ 8008 7997 7996 7995 ] final -142.83 input   59.86 | X-H torsion
[ 10167 10162 10161 10158 ] final  -99.07 input  -65.29 | X-H torsion
[ 10718 10713 10712 10709 ] final  -70.66 input   66.30 | X-H torsion
[ 10763 10752 10751 10750 ] final  111.29 input  -60.55 | X-H torsion
[ 11005 11000 10999 10996 ] final  107.33 input  -57.11 | X-H torsion

> <Gold.Protein.ActiveResidues>
 VAL166  LYS551  ARG553  GLY616  TRP617  ASP618  TYR619  PRO620  LYS621  CYS622 
 ASP623  PHE694  ASN695  SER759  ASP760  ASP761  ALA762  ILE779  LEU786  VAL792 
 PHE793  MET794  SER795  GLU796  ALA797  LYS798  CYS799  TRP800  GLU811  SER814 

> <Gold.Protein.RotatedAtoms>
  152.4895  133.8461  159.7177 H   0  0  0  0  0  0  0  0  0  0  0  0  # atno 6907 bound_to 6896
  150.9011  133.7108  159.2885 H   0  0  0  0  0  0  0  0  0  0  0  0  # atno 6908 bound_to 6896
  151.4549  135.1037  159.9760 H   0  0  0  0  0  0  0  0  0  0  0  0  # atno 6909 bound_to 6896
  144.8107  139.6896  143.6143 H   0  0  0  0  0  0  0  0  0  0  0  0  # atno 7974 bound_to 7965
  155.5006  140.0575  157.2939 H   0  0  0  0  0  0  0  0  0  0  0  0  # atno 8008 bound_to 7997
  154.4588  140.1986  156.0251 H   0  0  0  0  0  0  0  0  0  0  0  0  # atno 8009 bound_to 7997
  156.0851  140.3241  155.7748 H   0  0  0  0  0  0  0  0  0  0  0  0  # atno 8010 bound_to 7997
  140.2663  143.3373  152.0577 H   0  0  0  0  0  0  0  0  0  0  0  0  # atno 10167 bound_to 10162
  156.0398  130.4336  150.2328 H   0  0  0  0  0  0  0  0  0  0  0  0  # atno 10718 bound_to 10713
  153.4612  135.3722  155.2339 H   0  0  0  0  0  0  0  0  0  0  0  0  # atno 10763 bound_to 10752
  154.8757  135.3909  154.3923 H   0  0  0  0  0  0  0  0  0  0  0  0  # atno 10764 bound_to 10752
  153.4497  135.7085  153.6181 H   0  0  0  0  0  0  0  0  0  0  0  0  # atno 10765 bound_to 10752
  139.8826  134.9397  156.5803 H   0  0  0  0  0  0  0  0  0  0  0  0  # atno 11005 bound_to 11000
  146.2405  139.5992  142.9495 LP  0  0  0  0  0  0  0  0  0  0  0  0  # atno 17320 bound_to 7965
  145.5331  141.0426  143.2372 LP  0  0  0  0  0  0  0  0  0  0  0  0  # atno 17321 bound_to 7965
  139.5002  144.6686  151.6298 LP  0  0  0  0  0  0  0  0  0  0  0  0  # atno 17342 bound_to 10162
  140.5925  143.9753  150.6334 LP  0  0  0  0  0  0  0  0  0  0  0  0  # atno 17343 bound_to 10162
  157.0425  131.0039  151.3279 LP  0  0  0  0  0  0  0  0  0  0  0  0  # atno 17370 bound_to 10713
  157.5199  130.7991  149.7798 LP  0  0  0  0  0  0  0  0  0  0  0  0  # atno 17371 bound_to 10713
  140.8032  133.8489  155.8745 LP  0  0  0  0  0  0  0  0  0  0  0  0  # atno 17394 bound_to 11000
  140.9574  134.1700  157.4681 LP  0  0  0  0  0  0  0  0  0  0  0  0  # atno 17395 bound_to 11000

$$$$
