AV-unprocessed.smi:2249|AV-procd|sdf|9098|dock1
  -GOLD-   2272012293D 1   1.00000     0.00000
 Structure written by MMmdl.
 38 39  0  0  0  0  0  0  0  0  1 V2000
  144.0062  137.2104  152.4363 C   0  0  0  0  0  0  0  0  0  0  0  0
  145.1009  136.1557  152.6834 C   0  0  2  0  0  0  0  0  0  0  0  0
  146.3951  136.8330  152.7602 N   0  0  0  0  0  0  0  0  0  0  0  0
  146.6453  137.9678  153.4297 C   0  0  0  0  0  0  0  0  0  0  0  0
  145.7895  138.5867  154.0626 O   0  0  0  0  0  0  0  0  0  0  0  0
  147.9360  138.3245  153.3091 N   0  0  0  0  0  0  0  0  0  0  0  0
  148.5753  139.3976  153.8460 C   0  0  0  0  0  0  0  0  0  0  0  0
  148.1354  140.6871  153.9725 C   0  0  0  0  0  0  0  0  0  0  0  0
  149.2389  141.3281  154.6048 C   0  0  0  0  0  0  0  0  0  0  0  0
  150.2532  140.5053  154.8408 N   0  0  0  0  0  0  0  0  0  0  0  0
  149.8454  139.3056  154.3727 N   0  0  0  0  0  0  0  0  0  0  0  0
  150.7213  138.1539  154.4669 C   0  0  0  0  0  0  0  0  0  0  0  0
  145.1437  135.0479  151.5983 C   0  0  0  0  0  0  0  0  0  0  0  0
  143.8645  134.1866  151.5751 C   0  0  0  0  0  0  0  0  0  0  0  0
  143.9739  133.0512  150.5443 C   0  0  0  0  0  0  0  0  0  0  0  0
  145.1132  132.2472  150.8230 O   0  0  0  0  0  0  0  0  0  0  0  0
  146.3323  132.9730  150.7280 C   0  0  0  0  0  0  0  0  0  0  0  0
  146.3534  134.1035  151.7690 C   0  0  0  0  0  0  0  0  0  0  0  0
  143.0076  136.7795  152.5008 H   0  0  0  0  0  0  0  0  0  0  0  0
  144.1116  137.6700  151.4531 H   0  0  0  0  0  0  0  0  0  0  0  0
  144.0524  138.0066  153.1802 H   0  0  0  0  0  0  0  0  0  0  0  0
  144.8966  135.6739  153.6415 H   0  0  0  0  0  0  0  0  0  0  0  0
  147.1606  136.3973  152.2670 H   0  0  0  0  0  0  0  0  0  0  0  0
  148.5136  137.7180  152.7457 H   0  0  0  0  0  0  0  0  0  0  0  0
  147.1926  141.1189  153.6725 H   0  0  0  0  0  0  0  0  0  0  0  0
  149.3332  142.3630  154.8990 H   0  0  0  0  0  0  0  0  0  0  0  0
  151.0163  137.8372  153.4666 H   0  0  0  0  0  0  0  0  0  0  0  0
  150.1992  137.3348  154.9618 H   0  0  0  0  0  0  0  0  0  0  0  0
  151.6173  138.3980  155.0397 H   0  0  0  0  0  0  0  0  0  0  0  0
  145.2359  135.5325  150.6249 H   0  0  0  0  0  0  0  0  0  0  0  0
  143.6858  133.7613  152.5636 H   0  0  0  0  0  0  0  0  0  0  0  0
  142.9929  134.7939  151.3334 H   0  0  0  0  0  0  0  0  0  0  0  0
  143.0833  132.4237  150.5834 H   0  0  0  0  0  0  0  0  0  0  0  0
  144.0359  133.4509  149.5308 H   0  0  0  0  0  0  0  0  0  0  0  0
  147.1623  132.2884  150.9029 H   0  0  0  0  0  0  0  0  0  0  0  0
  146.4554  133.3704  149.7193 H   0  0  0  0  0  0  0  0  0  0  0  0
  147.2915  134.6511  151.6763 H   0  0  0  0  0  0  0  0  0  0  0  0
  146.3446  133.6711  152.7706 H   0  0  0  0  0  0  0  0  0  0  0  0
  1  2  1  0  0  0  0
  1 19  1  0  0  0  0
  1 20  1  0  0  0  0
  1 21  1  0  0  0  0
  2  3  1  0  0  0  0
  2 13  1  0  0  0  0
  2 22  1  0  0  0  0
  3  4  1  0  0  0  0
  3 23  1  0  0  0  0
  4  5  2  0  0  0  0
  4  6  1  0  0  0  0
  6  7  1  0  0  0  0
  6 24  1  0  0  0  0
  7 11  1  0  0  0  0
  7  8  2  0  0  0  0
  8  9  1  0  0  0  0
  8 25  1  0  0  0  0
  9 10  2  0  0  0  0
  9 26  1  0  0  0  0
 10 11  1  0  0  0  0
 11 12  1  0  0  0  0
 12 27  1  0  0  0  0
 12 28  1  0  0  0  0
 12 29  1  0  0  0  0
 13 18  1  0  0  0  0
 13 14  1  0  0  0  0
 13 30  1  0  0  0  0
 14 15  1  0  0  0  0
 14 31  1  0  0  0  0
 14 32  1  0  0  0  0
 15 16  1  0  0  0  0
 15 33  1  0  0  0  0
 15 34  1  0  0  0  0
 16 17  1  0  0  0  0
 17 18  1  0  0  0  0
 17 35  1  0  0  0  0
 17 36  1  0  0  0  0
 18 37  1  0  0  0  0
 18 38  1  0  0  0  0
M  END
> <s_m_source_file>
AV-unprocessed.smi

> <i_m_source_file_index>
2249

> <i_lp_mmshare_version>
43012

> <i_f3d_flags>
0

> <s_epik_input>
W0NIMl0xW0NIMl1PW0NIMl1bQ0gyXVtDSF0xW0NASF0oW0NIM10pW05IXUMoPU8pW05IXWMyW2NIXVtjSF1ubjJbQ0gzXQ==

> <s_epik_cmdline>
J2VwaWtfcHl0aG9uJywgJy1waCcsICc3LjAnLCAnLXRuJywgJzgnLCAnLW1hJywgJzIwMCcsICctbWV0YWxfYmluZGluZycsICctaW1hZScsICc8aW5maWxlLm1hZT4nLCAnLW9tYWUnLCAnPG91dGZpbGUubWFlPic=

> <r_lp_tautomer_probability>
1

> <r_epik_Ionization_Penalty>
4.67687e-05

> <r_epik_Ionization_Penalty_Charging>
0

> <r_epik_Ionization_Penalty_Neutral>
4.67687e-05

> <r_epik_State_Penalty>
-0

> <r_epik_Charging_Adjusted_Penalty>
0

> <i_epik_Tot_Q>
0

> <i_epik_Tot_abs_Q>
0

> <r_epik_Metal_State_Penalty>
-0

> <b_epik_Metal_Only>
0

> <s_lp_Force_Field>
OPLS_2005

> <r_lp_Energy>
12.7763

> <b_lp_Chiralities_Consistent>
1

> <s_lp_Variant>
AV-unprocessed.smi:2249-1

> <Gold.Version>
5.8.1

> <Gold.Id.Protein>
6NUR|6NUR_protein|mol2

> <Gold.PLP.Fitness>
42.7092

> <Gold.PLP.PLP>
-32.0575

> <Gold.PLP.part.hbond>
-3.3590

> <Gold.PLP.part.metal>
0.0000

> <Gold.PLP.part.buried>
-3.2140

> <Gold.PLP.part.nonpolar>
-26.6154

> <Gold.PLP.part.repulsive>
0.3542

> <Gold.PLP.ligand.clash>
0.0000

> <Gold.PLP.ligand.torsion>
0.5326

> <Gold.PLP.Chemscore.Hbond>
2.8928

> <Gold.PLP.Chemscore.CHOScore>
1.0000

> <Gold.PLP.Chemscore.Metal>
0.0000

> <Gold.Chemscore.Hbonds>
donor molecule, donor type, donor heavy atom, donor atom, acceptor molecule, acceptor atom, score
      L1  H     3    23       P1  7948  1.00
      L1  H     6    24       P1  7948  1.00
      P1  H  7989  7998       L1    10  0.86
      L1  C     9    26       P1  8028  1.00

> <Gold.PLP.Chemscore.Internal.Correction>
0.0385

> <Gold.Rescore>
     Score         DG    S(hbond)    S(metal)    S(lipo)     H(rot)  DE(clash)    DE(int)     intcor
     14.65     -16.59       2.16        0.00      60.79       1.26       0.08       1.85       ----

> <Gold.Chemscore.Fitness>
14.6514

> <Gold.Chemscore.DG>
-16.5872

> <Gold.Chemscore.ZeroCoef>
-5.4800

> <Gold.Chemscore.Hbond>
2.1607

> <Gold.Chemscore.Metal>
0.0000

> <Gold.Chemscore.Lipo>
60.7927

> <Gold.Chemscore.Internal_Hbond>
0.0000

> <Gold.Chemscore.DEClash>
0.0849

> <Gold.Chemscore.DEInternal>
1.8510

> <Gold.Chemscore.Rot>
1.2588

> <Gold.Chemscore.Internal.Correction>
   9.000000E+99

> <Gold.Chemscore.Hbonds>
donor molecule, donor type, donor heavy atom, donor atom, acceptor molecule, acceptor atom, score
      L1  H     3    23       P1  7948  0.97
      L1  H     6    24       P1  7948  0.99
      P1  H  7989  7998       L1    10  0.10

> <Gold.Chemscore.Hbond.Weighted>
-7.2169

> <Gold.Chemscore.Metal.Weighted>
-0.0000

> <Gold.Chemscore.Lipo.Weighted>
-7.1127

> <Gold.Chemscore.Internal_Hbond.Weighted>
0.0000

> <Gold.Chemscore.DEClash.Weighted>
0.0849

> <Gold.Chemscore.DEInternal.Weighted>
1.8510

> <Gold.Chemscore.Rot.Weighted>
3.2224

> <Gold.Chemscore.Internal.Correction.Weighted>
   9.000000E+99

> <Gold.Protein.RotatedTorsions>
[ 6907 6896 6895 6894 ] final   37.02 input  -60.11 | X-H torsion
[ 7974 7965 7964 7962 ] final -136.10 input  175.53 | X-H torsion
[ 8008 7997 7996 7995 ] final  -15.93 input   59.86 | X-H torsion
[ 10167 10162 10161 10158 ] final  -29.85 input  -65.29 | X-H torsion
[ 10718 10713 10712 10709 ] final   30.52 input   66.30 | X-H torsion
[ 10763 10752 10751 10750 ] final   73.66 input  -60.55 | X-H torsion
[ 11005 11000 10999 10996 ] final -102.71 input  -57.11 | X-H torsion

> <Gold.Protein.ActiveResidues>
 VAL166  LYS551  ARG553  GLY616  TRP617  ASP618  TYR619  PRO620  LYS621  CYS622 
 ASP623  PHE694  ASN695  SER759  ASP760  ASP761  ALA762  ILE779  LEU786  VAL792 
 PHE793  MET794  SER795  GLU796  ALA797  LYS798  CYS799  TRP800  GLU811  SER814 

> <Gold.Protein.RotatedAtoms>
  152.1376  134.9087  160.0555 H   0  0  0  0  0  0  0  0  0  0  0  0  # atno 6907 bound_to 6896
  152.0167  133.3878  159.4250 H   0  0  0  0  0  0  0  0  0  0  0  0  # atno 6908 bound_to 6896
  150.6862  134.3592  159.4986 H   0  0  0  0  0  0  0  0  0  0  0  0  # atno 6909 bound_to 6896
  144.8956  140.6702  143.5117 H   0  0  0  0  0  0  0  0  0  0  0  0  # atno 7974 bound_to 7965
  154.5092  140.2183  155.9190 H   0  0  0  0  0  0  0  0  0  0  0  0  # atno 8008 bound_to 7997
  156.1531  140.3157  155.8648 H   0  0  0  0  0  0  0  0  0  0  0  0  # atno 8009 bound_to 7997
  155.3899  140.0477  157.3031 H   0  0  0  0  0  0  0  0  0  0  0  0  # atno 8010 bound_to 7997
  140.7256  143.3895  151.1455 H   0  0  0  0  0  0  0  0  0  0  0  0  # atno 10167 bound_to 10162
  157.2606  130.7159  149.6452 H   0  0  0  0  0  0  0  0  0  0  0  0  # atno 10718 bound_to 10713
  153.0536  135.5055  154.7926 H   0  0  0  0  0  0  0  0  0  0  0  0  # atno 10763 bound_to 10752
  154.6770  135.2962  154.9668 H   0  0  0  0  0  0  0  0  0  0  0  0  # atno 10764 bound_to 10752
  154.0467  135.6709  153.4848 H   0  0  0  0  0  0  0  0  0  0  0  0  # atno 10765 bound_to 10752
  141.1177  133.8580  157.1394 H   0  0  0  0  0  0  0  0  0  0  0  0  # atno 11005 bound_to 11000
  145.3706  139.1659  143.4334 LP  0  0  0  0  0  0  0  0  0  0  0  0  # atno 17320 bound_to 7965
  146.3079  140.3777  142.8681 LP  0  0  0  0  0  0  0  0  0  0  0  0  # atno 17321 bound_to 7965
  139.7498  143.8796  152.3073 LP  0  0  0  0  0  0  0  0  0  0  0  0  # atno 17342 bound_to 10162
  139.8646  144.7100  150.9059 LP  0  0  0  0  0  0  0  0  0  0  0  0  # atno 17343 bound_to 10162
  155.9664  130.4399  150.5276 LP  0  0  0  0  0  0  0  0  0  0  0  0  # atno 17370 bound_to 10713
  157.3180  131.0676  151.1953 LP  0  0  0  0  0  0  0  0  0  0  0  0  # atno 17371 bound_to 10713
  140.0112  134.9987  157.0398 LP  0  0  0  0  0  0  0  0  0  0  0  0  # atno 17394 bound_to 11000
  140.4597  134.1497  155.7190 LP  0  0  0  0  0  0  0  0  0  0  0  0  # atno 17395 bound_to 11000

$$$$
