AV-unprocessed.smi:486|AV-procd|sdf|2697|dock1
  -GOLD-   2262023133D 1   1.00000     0.00000
 Structure written by MMmdl.
 44 46  0  0  0  0  0  0  0  0  2 V2000
  149.8228  130.4259  155.0796 C   0  0  0  0  0  0  0  0  0  0  0  0
  150.6976  131.2043  155.8831 O   0  0  0  0  0  0  0  0  0  0  0  0
  150.6206  132.5771  155.7839 C   0  0  0  0  0  0  0  0  0  0  0  0
  151.4974  133.3292  156.5899 C   0  0  0  0  0  0  0  0  0  0  0  0
  151.4835  134.7363  156.5515 C   0  0  0  0  0  0  0  0  0  0  0  0
  150.5915  135.4260  155.7073 C   0  0  0  0  0  0  0  0  0  0  0  0
  150.6424  136.8034  155.7327 O   0  0  0  0  0  0  0  0  0  0  0  0
  151.8646  137.4256  156.1066 C   0  0  0  0  0  0  0  0  0  0  0  0
  151.7271  138.9438  155.9127 C   0  0  2  0  0  0  0  0  0  0  0  0
  152.8201  139.3968  155.1386 O   0  0  0  0  0  0  0  0  0  0  0  0
  151.7127  139.6943  157.2594 C   0  0  0  0  0  0  0  0  0  0  0  0
  151.3392  141.1116  157.1220 N   0  0  0  0  0  0  0  0  0  0  0  0
  150.4747  141.7063  156.2510 C   0  0  0  0  0  0  0  0  0  0  0  0
  149.6749  141.0298  155.1890 C   0  0  0  0  0  0  0  0  0  0  0  0
  150.4717  143.0400  156.5303 N   0  3  0  0  0  0  0  0  0  0  0  0
  151.3436  143.3026  157.5875 C   0  0  0  0  0  0  0  0  0  0  0  0
  151.6740  144.4977  158.2188 C   0  0  0  0  0  0  0  0  0  0  0  0
  152.6102  144.4200  159.2706 C   0  0  0  0  0  0  0  0  0  0  0  0
  153.1795  143.1894  159.6572 C   0  0  0  0  0  0  0  0  0  0  0  0
  152.8351  141.9839  159.0108 C   0  0  0  0  0  0  0  0  0  0  0  0
  151.9071  142.0684  157.9725 C   0  0  0  0  0  0  0  0  0  0  0  0
  149.7084  134.6741  154.8936 C   0  0  0  0  0  0  0  0  0  0  0  0
  149.7235  133.2660  154.9310 C   0  0  0  0  0  0  0  0  0  0  0  0
  149.9989  129.3687  155.2767 H   0  0  0  0  0  0  0  0  0  0  0  0
  149.9998  130.5971  154.0169 H   0  0  0  0  0  0  0  0  0  0  0  0
  148.7773  130.6339  155.3105 H   0  0  0  0  0  0  0  0  0  0  0  0
  152.1890  132.8222  157.2468 H   0  0  0  0  0  0  0  0  0  0  0  0
  152.1650  135.2918  157.1787 H   0  0  0  0  0  0  0  0  0  0  0  0
  152.0506  137.2125  157.1607 H   0  0  0  0  0  0  0  0  0  0  0  0
  152.7085  137.0369  155.5333 H   0  0  0  0  0  0  0  0  0  0  0  0
  150.8021  139.1605  155.3769 H   0  0  0  0  0  0  0  0  0  0  0  0
  152.7115  139.0784  154.2550 H   0  0  0  0  0  0  0  0  0  0  0  0
  150.9845  139.2368  157.9301 H   0  0  0  0  0  0  0  0  0  0  0  0
  152.6753  139.6198  157.7657 H   0  0  0  0  0  0  0  0  0  0  0  0
  149.1246  141.7620  154.5975 H   0  0  0  0  0  0  0  0  0  0  0  0
  148.9613  140.3397  155.6394 H   0  0  0  0  0  0  0  0  0  0  0  0
  150.3303  140.4690  154.5228 H   0  0  0  0  0  0  0  0  0  0  0  0
  151.2405  145.4418  157.9227 H   0  0  0  0  0  0  0  0  0  0  0  0
  152.8991  145.3226  159.7897 H   0  0  0  0  0  0  0  0  0  0  0  0
  153.8965  143.1690  160.4649 H   0  0  0  0  0  0  0  0  0  0  0  0
  153.2830  141.0485  159.3115 H   0  0  0  0  0  0  0  0  0  0  0  0
  149.0068  135.1538  154.2286 H   0  0  0  0  0  0  0  0  0  0  0  0
  149.0327  132.7359  154.2933 H   0  0  0  0  0  0  0  0  0  0  0  0
  149.9127  143.7201  156.0316 H   0  0  0  0  0  0  0  0  0  0  0  0
  1  2  1  0  0  0  0
  1 24  1  0  0  0  0
  1 25  1  0  0  0  0
  1 26  1  0  0  0  0
  2  3  1  0  0  0  0
  3 23  1  0  0  0  0
  3  4  2  0  0  0  0
  4  5  1  0  0  0  0
  4 27  1  0  0  0  0
  5  6  2  0  0  0  0
  5 28  1  0  0  0  0
  6  7  1  0  0  0  0
  6 22  1  0  0  0  0
  7  8  1  0  0  0  0
  8  9  1  0  0  0  0
  8 29  1  0  0  0  0
  8 30  1  0  0  0  0
  9 10  1  0  0  0  0
  9 11  1  0  0  0  0
  9 31  1  0  0  0  0
 10 32  1  0  0  0  0
 11 12  1  0  0  0  0
 11 33  1  0  0  0  0
 11 34  1  0  0  0  0
 12 21  1  0  0  0  0
 12 13  1  0  0  0  0
 13 14  1  0  0  0  0
 13 15  2  0  0  0  0
 14 35  1  0  0  0  0
 14 36  1  0  0  0  0
 14 37  1  0  0  0  0
 15 16  1  0  0  0  0
 15 44  1  0  0  0  0
 16 21  2  0  0  0  0
 16 17  1  0  0  0  0
 17 18  2  0  0  0  0
 17 38  1  0  0  0  0
 18 19  1  0  0  0  0
 18 39  1  0  0  0  0
 19 20  2  0  0  0  0
 19 40  1  0  0  0  0
 20 21  1  0  0  0  0
 20 41  1  0  0  0  0
 22 23  2  0  0  0  0
 22 42  1  0  0  0  0
 23 43  1  0  0  0  0
M  CHG  1  15   1
M  END
> <s_m_source_file>
AV-unprocessed.smi

> <i_m_source_file_index>
486

> <i_lp_mmshare_version>
43012

> <i_f3d_flags>
0

> <s_epik_input>
W0NIM11PYzFbY0hdW2NIXWMoW2NIXVtjSF0xKU9bQ0gyXVtDQEhdKFtPSF0pW0NIMl1uKGMobjIpW0NIM10pYyhjMjMpW2NIXVtjSF1bY0hdW2NIXTM=

> <s_epik_cmdline>
J2VwaWtfcHl0aG9uJywgJy1waCcsICc3LjAnLCAnLXRuJywgJzgnLCAnLW1hJywgJzIwMCcsICctbWV0YWxfYmluZGluZycsICctaW1hZScsICc8aW5maWxlLm1hZT4nLCAnLW9tYWUnLCAnPG91dGZpbGUubWFlPic=

> <r_lp_tautomer_probability>
1

> <r_epik_Ionization_Penalty>
1.03234

> <r_epik_Ionization_Penalty_Charging>
1.03234

> <r_epik_Ionization_Penalty_Neutral>
2.3993e-06

> <r_epik_State_Penalty>
1.0836

> <r_epik_Charging_Adjusted_Penalty>
2.11594

> <i_epik_Tot_Q>
1

> <i_epik_Tot_abs_Q>
1

> <r_epik_Metal_State_Penalty>
5.07275

> <b_epik_Metal_Only>
0

> <s_lp_Force_Field>
OPLS_2005

> <r_lp_Energy>
23.3843

> <b_lp_Chiralities_Consistent>
1

> <s_lp_Variant>
AV-unprocessed.smi:486-3

> <Gold.Version>
5.8.1

> <Gold.Id.Protein>
6NUR|6NUR_protein|mol2

> <Gold.PLP.Fitness>
55.1214

> <Gold.PLP.PLP>
-48.7960

> <Gold.PLP.part.hbond>
-1.8816

> <Gold.PLP.part.metal>
0.0000

> <Gold.PLP.part.buried>
-5.8066

> <Gold.PLP.part.nonpolar>
-41.3740

> <Gold.PLP.part.repulsive>
0.1597

> <Gold.PLP.ligand.clash>
0.0000

> <Gold.PLP.ligand.torsion>
1.4987

> <Gold.PLP.Chemscore.Hbond>
3.0000

> <Gold.PLP.Chemscore.CHOScore>
0.0000

> <Gold.PLP.Chemscore.Metal>
0.0000

> <Gold.Chemscore.Hbonds>
donor molecule, donor type, donor heavy atom, donor atom, acceptor molecule, acceptor atom, score
      L1  H    15    44       P1  8028  1.72
      P1  H  7997  8008       L1    10  1.00

> <Gold.PLP.Chemscore.Internal.Correction>
0.3228

> <Gold.Rescore>
     Score         DG    S(hbond)    S(metal)    S(lipo)     H(rot)  DE(clash)    DE(int)     intcor
     19.50     -20.93       1.98        0.00     127.79       2.40       0.02       1.40       ----

> <Gold.Chemscore.Fitness>
19.5027

> <Gold.Chemscore.DG>
-20.9290

> <Gold.Chemscore.ZeroCoef>
-5.4800

> <Gold.Chemscore.Hbond>
1.9847

> <Gold.Chemscore.Metal>
0.0000

> <Gold.Chemscore.Lipo>
127.7926

> <Gold.Chemscore.Internal_Hbond>
0.0000

> <Gold.Chemscore.DEClash>
0.0228

> <Gold.Chemscore.DEInternal>
1.4035

> <Gold.Chemscore.Rot>
2.3952

> <Gold.Chemscore.Internal.Correction>
   9.000000E+99

> <Gold.Chemscore.Hbonds>
donor molecule, donor type, donor heavy atom, donor atom, acceptor molecule, acceptor atom, score
      L1  H    15    44       P1  8028  0.84
      P1  H  7997  8008       L1    10  0.98

> <Gold.Chemscore.Hbond.Weighted>
-6.6289

> <Gold.Chemscore.Metal.Weighted>
-0.0000

> <Gold.Chemscore.Lipo.Weighted>
-14.9517

> <Gold.Chemscore.Internal_Hbond.Weighted>
0.0000

> <Gold.Chemscore.DEClash.Weighted>
0.0228

> <Gold.Chemscore.DEInternal.Weighted>
1.4035

> <Gold.Chemscore.Rot.Weighted>
6.1316

> <Gold.Chemscore.Internal.Correction.Weighted>
   9.000000E+99

> <Gold.Protein.RotatedTorsions>
[ 6907 6896 6895 6894 ] final  157.59 input  -60.11 | X-H torsion
[ 7974 7965 7964 7962 ] final -127.86 input  175.53 | X-H torsion
[ 8008 7997 7996 7995 ] final  -19.15 input   59.86 | X-H torsion
[ 10167 10162 10161 10158 ] final -143.40 input  -65.29 | X-H torsion
[ 10718 10713 10712 10709 ] final -118.08 input   66.30 | X-H torsion
[ 10763 10752 10751 10750 ] final  116.93 input  -60.55 | X-H torsion
[ 11005 11000 10999 10996 ] final  128.21 input  -57.11 | X-H torsion

> <Gold.Protein.ActiveResidues>
 VAL166  LYS551  ARG553  GLY616  TRP617  ASP618  TYR619  PRO620  LYS621  CYS622 
 ASP623  PHE694  ASN695  SER759  ASP760  ASP761  ALA762  ILE779  LEU786  VAL792 
 PHE793  MET794  SER795  GLU796  ALA797  LYS798  CYS799  TRP800  GLU811  SER814 

> <Gold.Protein.RotatedAtoms>
  152.0128  133.3868  159.4226 H   0  0  0  0  0  0  0  0  0  0  0  0  # atno 6907 bound_to 6896
  150.6898  134.3712  159.5002 H   0  0  0  0  0  0  0  0  0  0  0  0  # atno 6908 bound_to 6896
  152.1475  134.9014  160.0601 H   0  0  0  0  0  0  0  0  0  0  0  0  # atno 6909 bound_to 6896
  144.9728  140.7562  143.4660 H   0  0  0  0  0  0  0  0  0  0  0  0  # atno 7974 bound_to 7965
  154.4856  140.2096  155.9662 H   0  0  0  0  0  0  0  0  0  0  0  0  # atno 8008 bound_to 7997
  156.1231  140.3210  155.8207 H   0  0  0  0  0  0  0  0  0  0  0  0  # atno 8009 bound_to 7997
  155.4431  140.0511  157.2999 H   0  0  0  0  0  0  0  0  0  0  0  0  # atno 8010 bound_to 7997
  139.7997  143.7851  152.2657 H   0  0  0  0  0  0  0  0  0  0  0  0  # atno 10167 bound_to 10162
  156.1080  130.6226  150.9246 H   0  0  0  0  0  0  0  0  0  0  0  0  # atno 10718 bound_to 10713
  153.5446  135.3552  155.2733 H   0  0  0  0  0  0  0  0  0  0  0  0  # atno 10763 bound_to 10752
  154.8713  135.4099  154.3005 H   0  0  0  0  0  0  0  0  0  0  0  0  # atno 10764 bound_to 10752
  153.3719  135.7064  153.6700 H   0  0  0  0  0  0  0  0  0  0  0  0  # atno 10765 bound_to 10752
  139.9548  134.9615  156.8968 H   0  0  0  0  0  0  0  0  0  0  0  0  # atno 11005 bound_to 11000
  145.2534  139.2022  143.4930 LP  0  0  0  0  0  0  0  0  0  0  0  0  # atno 17320 bound_to 7965
  146.3387  140.2451  142.8597 LP  0  0  0  0  0  0  0  0  0  0  0  0  # atno 17321 bound_to 7965
  139.7967  144.7390  150.9880 LP  0  0  0  0  0  0  0  0  0  0  0  0  # atno 17342 bound_to 10162
  140.7820  143.4386  151.0585 LP  0  0  0  0  0  0  0  0  0  0  0  0  # atno 17343 bound_to 10162
  157.6259  131.0925  150.8535 LP  0  0  0  0  0  0  0  0  0  0  0  0  # atno 17370 bound_to 10713
  156.8650  130.5126  149.5301 LP  0  0  0  0  0  0  0  0  0  0  0  0  # atno 17371 bound_to 10713
  140.5634  134.0513  155.7406 LP  0  0  0  0  0  0  0  0  0  0  0  0  # atno 17394 bound_to 11000
  141.1218  133.9449  157.2714 LP  0  0  0  0  0  0  0  0  0  0  0  0  # atno 17395 bound_to 11000

$$$$
