AV-unprocessed.smi:1432|AV-procd|sdf|5834|dock8
  -GOLD-   22720 5493D 1   1.00000     0.00000
 Structure written by MMmdl.
 47 48  0  0  0  0  0  0  0  0  2 V2000
  145.5194  137.1481  152.3490 C   0  0  0  0  0  0  0  0  0  0  0  0
  145.5221  135.6140  152.5167 C   0  0  1  0  0  0  0  0  0  0  0  0
  145.2599  134.9706  151.1347 C   0  0  0  0  0  0  0  0  0  0  0  0
  145.2720  133.4403  151.1892 C   0  0  0  0  0  0  0  0  0  0  0  0
  146.5875  132.9626  151.8045 C   0  0  0  0  0  0  0  0  0  0  0  0
  146.7821  133.5965  153.1873 C   0  0  0  0  0  0  0  0  0  0  0  0
  146.7925  135.0847  153.1119 N   0  3  2  0  0  0  0  0  0  0  0  0
  147.1802  135.6875  154.4211 C   0  0  0  0  0  0  0  0  0  0  0  0
  146.3892  135.1134  155.6172 C   0  0  0  0  0  0  0  0  0  0  0  0
  146.8362  135.6818  156.8867 N   0  0  0  0  0  0  0  0  0  0  0  0
  147.8244  135.1943  157.6523 C   0  0  0  0  0  0  0  0  0  0  0  0
  148.4242  134.1495  157.3996 O   0  0  0  0  0  0  0  0  0  0  0  0
  148.2032  136.0236  158.8853 C   0  0  0  0  0  0  0  0  0  0  0  0
  147.9506  135.2977  160.1419 N   0  0  0  0  0  0  0  0  0  0  0  0
  148.0963  133.8966  160.1206 C   0  0  0  0  0  0  0  0  0  0  0  0
  147.9152  133.1248  161.2099 C   0  0  0  0  0  0  0  0  0  0  0  0
  148.0303  131.6095  161.1500 C   0  0  0  0  0  0  0  0  0  0  0  0
  148.2793  131.1985  159.9064 F   0  0  0  0  0  0  0  0  0  0  0  0
  149.0077  131.1657  161.9414 F   0  0  0  0  0  0  0  0  0  0  0  0
  146.8875  131.0534  161.5491 F   0  0  0  0  0  0  0  0  0  0  0  0
  147.5219  133.8074  162.4266 C   0  0  0  0  0  0  0  0  0  0  0  0
  147.3728  135.1460  162.4633 C   0  0  0  0  0  0  0  0  0  0  0  0
  147.5967  135.9737  161.2766 C   0  0  0  0  0  0  0  0  0  0  0  0
  147.4784  137.1995  161.2998 O   0  0  0  0  0  0  0  0  0  0  0  0
  144.6730  137.4707  151.7419 H   0  0  0  0  0  0  0  0  0  0  0  0
  146.4263  137.4981  151.8553 H   0  0  0  0  0  0  0  0  0  0  0  0
  145.4206  137.6727  153.2983 H   0  0  0  0  0  0  0  0  0  0  0  0
  144.7005  135.3432  153.1820 H   0  0  0  0  0  0  0  0  0  0  0  0
  144.2993  135.3063  150.7422 H   0  0  0  0  0  0  0  0  0  0  0  0
  146.0135  135.3077  150.4219 H   0  0  0  0  0  0  0  0  0  0  0  0
  144.4304  133.0825  151.7839 H   0  0  0  0  0  0  0  0  0  0  0  0
  145.1492  133.0248  150.1883 H   0  0  0  0  0  0  0  0  0  0  0  0
  146.5876  131.8753  151.8876 H   0  0  0  0  0  0  0  0  0  0  0  0
  147.4235  133.2267  151.1545 H   0  0  0  0  0  0  0  0  0  0  0  0
  145.9874  133.2729  153.8614 H   0  0  0  0  0  0  0  0  0  0  0  0
  147.7137  133.2248  153.6106 H   0  0  0  0  0  0  0  0  0  0  0  0
  148.2274  135.5011  154.6429 H   0  0  0  0  0  0  0  0  0  0  0  0
  147.0746  136.7723  154.3768 H   0  0  0  0  0  0  0  0  0  0  0  0
  145.3328  135.3540  155.4967 H   0  0  0  0  0  0  0  0  0  0  0  0
  146.4395  134.0241  155.6374 H   0  0  0  0  0  0  0  0  0  0  0  0
  146.3876  136.5366  157.1843 H   0  0  0  0  0  0  0  0  0  0  0  0
  149.2545  136.3146  158.8341 H   0  0  0  0  0  0  0  0  0  0  0  0
  147.6427  136.9587  158.8504 H   0  0  0  0  0  0  0  0  0  0  0  0
  148.3710  133.4865  159.1596 H   0  0  0  0  0  0  0  0  0  0  0  0
  147.3486  133.2354  163.3263 H   0  0  0  0  0  0  0  0  0  0  0  0
  147.0819  135.6210  163.3887 H   0  0  0  0  0  0  0  0  0  0  0  0
  147.5249  135.3372  152.4632 H   0  0  0  0  0  0  0  0  0  0  0  0
  1  2  1  0  0  0  0
  1 25  1  0  0  0  0
  1 26  1  0  0  0  0
  1 27  1  0  0  0  0
  2  7  1  0  0  0  0
  2  3  1  0  0  0  0
  2 28  1  0  0  0  0
  3  4  1  0  0  0  0
  3 29  1  0  0  0  0
  3 30  1  0  0  0  0
  4  5  1  0  0  0  0
  4 31  1  0  0  0  0
  4 32  1  0  0  0  0
  5  6  1  0  0  0  0
  5 33  1  0  0  0  0
  5 34  1  0  0  0  0
  6  7  1  0  0  0  0
  6 35  1  0  0  0  0
  6 36  1  0  0  0  0
  7  8  1  0  0  0  0
  7 47  1  0  0  0  0
  8  9  1  0  0  0  0
  8 37  1  0  0  0  0
  8 38  1  0  0  0  0
  9 10  1  0  0  0  0
  9 39  1  0  0  0  0
  9 40  1  0  0  0  0
 10 11  1  0  0  0  0
 10 41  1  0  0  0  0
 11 12  2  0  0  0  0
 11 13  1  0  0  0  0
 13 14  1  0  0  0  0
 13 42  1  0  0  0  0
 13 43  1  0  0  0  0
 14 23  1  0  0  0  0
 14 15  1  0  0  0  0
 15 16  2  0  0  0  0
 15 44  1  0  0  0  0
 16 17  1  0  0  0  0
 16 21  1  0  0  0  0
 17 18  1  0  0  0  0
 17 19  1  0  0  0  0
 17 20  1  0  0  0  0
 21 22  2  0  0  0  0
 21 45  1  0  0  0  0
 22 23  1  0  0  0  0
 22 46  1  0  0  0  0
 23 24  2  0  0  0  0
M  CHG  1   7   1
M  END
> <s_m_source_file>
AV-unprocessed.smi

> <i_m_source_file_index>
1432

> <i_lp_mmshare_version>
43012

> <i_f3d_flags>
0

> <s_epik_input>
W0NIM11bQ0BASF0xW0NIMl1bQ0gyXVtDSDJdW0NIMl1OMVtDSDJdW0NIMl1bTkhdQyg9TylbQ0gyXW4yW2NIXWMoQyhGKShGKUYpW2NIXVtjSF1jMj1P

> <s_epik_cmdline>
J2VwaWtfcHl0aG9uJywgJy1waCcsICc3LjAnLCAnLXRuJywgJzgnLCAnLW1hJywgJzIwMCcsICctbWV0YWxfYmluZGluZycsICctaW1hZScsICc8aW5maWxlLm1hZT4nLCAnLW9tYWUnLCAnPG91dGZpbGUubWFlPic=

> <r_lp_tautomer_probability>
1

> <r_epik_Ionization_Penalty>
0.00237222

> <r_epik_Ionization_Penalty_Charging>
0.00237213

> <r_epik_Ionization_Penalty_Neutral>
8.2065e-08

> <r_epik_State_Penalty>
0.00163922

> <r_epik_Charging_Adjusted_Penalty>
0.00401135

> <i_epik_Tot_Q>
1

> <i_epik_Tot_abs_Q>
1

> <r_epik_Metal_State_Penalty>
-0

> <b_epik_Metal_Only>
0

> <s_lp_Force_Field>
OPLS_2005

> <r_lp_Energy>
36.6546

> <b_lp_Chiralities_Consistent>
1

> <s_lp_Variant>
AV-unprocessed.smi:1432-4

> <Gold.Version>
5.8.1

> <Gold.Id.Protein>
6NUR|6NUR_protein|mol2

> <Gold.PLP.Fitness>
46.7242

> <Gold.PLP.PLP>
-37.9043

> <Gold.PLP.part.hbond>
-3.0000

> <Gold.PLP.part.metal>
0.0000

> <Gold.PLP.part.buried>
-4.2253

> <Gold.PLP.part.nonpolar>
-30.5403

> <Gold.PLP.part.repulsive>
0.0000

> <Gold.PLP.ligand.clash>
1.3459

> <Gold.PLP.ligand.torsion>
0.7369

> <Gold.PLP.Chemscore.Hbond>
3.8400

> <Gold.PLP.Chemscore.CHOScore>
0.0000

> <Gold.PLP.Chemscore.Metal>
0.0000

> <Gold.Chemscore.Hbonds>
donor molecule, donor type, donor heavy atom, donor atom, acceptor molecule, acceptor atom, score
      L1  H     7    47       P1  7948  2.00
      P1  H  6931  6943       L1    24  0.91
      P1  H  6934  6947       L1    24  0.93

> <Gold.PLP.Chemscore.Internal.Correction>
0.1197

> <Gold.Rescore>
     Score         DG    S(hbond)    S(metal)    S(lipo)     H(rot)  DE(clash)    DE(int)     intcor
     15.53     -17.72       2.76        0.00      71.10       2.08       0.07       2.12       ----

> <Gold.Chemscore.Fitness>
15.5320

> <Gold.Chemscore.DG>
-17.7158

> <Gold.Chemscore.ZeroCoef>
-5.4800

> <Gold.Chemscore.Hbond>
2.7640

> <Gold.Chemscore.Metal>
0.0000

> <Gold.Chemscore.Lipo>
71.1024

> <Gold.Chemscore.Internal_Hbond>
0.0000

> <Gold.Chemscore.DEClash>
0.0673

> <Gold.Chemscore.DEInternal>
2.1165

> <Gold.Chemscore.Rot>
2.0762

> <Gold.Chemscore.Internal.Correction>
   9.000000E+99

> <Gold.Chemscore.Hbonds>
donor molecule, donor type, donor heavy atom, donor atom, acceptor molecule, acceptor atom, score
      L1  H     7    47       P1  7948  0.99
      P1  H  6931  6943       L1    24  0.83
      P1  H  6934  6947       L1    24  0.91

> <Gold.Chemscore.Hbond.Weighted>
-9.2318

> <Gold.Chemscore.Metal.Weighted>
-0.0000

> <Gold.Chemscore.Lipo.Weighted>
-8.3190

> <Gold.Chemscore.Internal_Hbond.Weighted>
0.0000

> <Gold.Chemscore.DEClash.Weighted>
0.0673

> <Gold.Chemscore.DEInternal.Weighted>
2.1165

> <Gold.Chemscore.Rot.Weighted>
5.3150

> <Gold.Chemscore.Internal.Correction.Weighted>
   9.000000E+99

> <Gold.Protein.RotatedTorsions>
[ 6907 6896 6895 6894 ] final  -26.75 input  -60.11 | X-H torsion
[ 7974 7965 7964 7962 ] final -117.72 input  175.53 | X-H torsion
[ 8008 7997 7996 7995 ] final   65.93 input   59.86 | X-H torsion
[ 10167 10162 10161 10158 ] final  -26.10 input  -65.29 | X-H torsion
[ 10718 10713 10712 10709 ] final  125.02 input   66.30 | X-H torsion
[ 10763 10752 10751 10750 ] final  -63.41 input  -60.55 | X-H torsion
[ 11005 11000 10999 10996 ] final -175.74 input  -57.11 | X-H torsion

> <Gold.Protein.ActiveResidues>
 VAL166  LYS551  ARG553  GLY616  TRP617  ASP618  TYR619  PRO620  LYS621  CYS622 
 ASP623  PHE694  ASN695  SER759  ASP760  ASP761  ALA762  ILE779  LEU786  VAL792 
 PHE793  MET794  SER795  GLU796  ALA797  LYS798  CYS799  TRP800  GLU811  SER814 

> <Gold.Protein.RotatedAtoms>
  151.1565  135.0253  159.8691 H   0  0  0  0  0  0  0  0  0  0  0  0  # atno 6907 bound_to 6896
  152.5452  134.1328  159.8456 H   0  0  0  0  0  0  0  0  0  0  0  0  # atno 6908 bound_to 6896
  151.1419  133.4920  159.2629 H   0  0  0  0  0  0  0  0  0  0  0  0  # atno 6909 bound_to 6896
  145.0820  140.8432  143.4033 H   0  0  0  0  0  0  0  0  0  0  0  0  # atno 7974 bound_to 7965
  155.6694  140.3497  155.4812 H   0  0  0  0  0  0  0  0  0  0  0  0  # atno 8008 bound_to 7997
  155.9701  140.1154  157.0843 H   0  0  0  0  0  0  0  0  0  0  0  0  # atno 8009 bound_to 7997
  154.4164  140.1158  156.5281 H   0  0  0  0  0  0  0  0  0  0  0  0  # atno 8010 bound_to 7997
  140.7284  143.4207  151.0956 H   0  0  0  0  0  0  0  0  0  0  0  0  # atno 10167 bound_to 10162
  157.5537  131.1093  150.8658 H   0  0  0  0  0  0  0  0  0  0  0  0  # atno 10718 bound_to 10713
  154.3147  135.6208  153.5481 H   0  0  0  0  0  0  0  0  0  0  0  0  # atno 10763 bound_to 10752
  152.9826  135.5709  154.5138 H   0  0  0  0  0  0  0  0  0  0  0  0  # atno 10764 bound_to 10752
  154.4794  135.2862  155.1559 H   0  0  0  0  0  0  0  0  0  0  0  0  # atno 10765 bound_to 10752
  140.4599  134.6264  157.4838 H   0  0  0  0  0  0  0  0  0  0  0  0  # atno 11005 bound_to 11000
  145.1167  139.2721  143.5609 LP  0  0  0  0  0  0  0  0  0  0  0  0  # atno 17320 bound_to 7965
  146.3531  140.0778  142.8619 LP  0  0  0  0  0  0  0  0  0  0  0  0  # atno 17321 bound_to 7965
  139.7852  143.8297  152.3144 LP  0  0  0  0  0  0  0  0  0  0  0  0  # atno 17342 bound_to 10162
  139.8262  144.7274  150.9508 LP  0  0  0  0  0  0  0  0  0  0  0  0  # atno 17343 bound_to 10162
  156.9176  130.5303  149.5279 LP  0  0  0  0  0  0  0  0  0  0  0  0  # atno 17370 bound_to 10713
  156.0599  130.5654  150.9171 LP  0  0  0  0  0  0  0  0  0  0  0  0  # atno 17371 bound_to 10713
  139.9952  134.6923  155.9622 LP  0  0  0  0  0  0  0  0  0  0  0  0  # atno 17394 bound_to 11000
  141.1626  133.6538  156.4369 LP  0  0  0  0  0  0  0  0  0  0  0  0  # atno 17395 bound_to 11000

$$$$
