AV-unprocessed.smi:632|AV-procd|sdf|3128|dock5
  -GOLD-   22720 0 53D 1   1.00000     0.00000
 Structure written by MMmdl.
 41 42  0  0  0  0  0  0  0  0  2 V2000
  150.1648  128.6771  156.4752 C   0  0  0  0  0  0  0  0  0  0  0  0
  151.2622  129.6996  156.1209 C   0  0  0  0  0  0  0  0  0  0  0  0
  152.1205  129.9160  157.3867 C   0  0  0  0  0  0  0  0  0  0  0  0
  152.1880  129.1433  155.0218 C   0  0  0  0  0  0  0  0  0  0  0  0
  150.6299  130.9901  155.6542 C   0  0  0  0  0  0  0  0  0  0  0  0
  150.8794  132.1610  156.2536 N   0  0  0  0  0  0  0  0  0  0  0  0
  150.1989  133.2178  155.6684 N   0  0  0  0  0  0  0  0  0  0  0  0
  149.4451  132.8451  154.6260 C   0  0  0  0  0  0  0  0  0  0  0  0
  148.7059  133.7188  153.9227 N   0  5  0  0  0  0  0  0  0  0  0  0
  147.6564  133.2803  153.1909 C   0  0  0  0  0  0  0  0  0  0  0  0
  147.0275  132.2348  153.3702 O   0  0  0  0  0  0  0  0  0  0  0  0
  147.3146  134.1049  152.1901 N   0  0  0  0  0  0  0  0  0  0  0  0
  146.2257  133.9002  151.2384 C   0  0  2  0  0  0  0  0  0  0  0  0
  144.8581  133.9805  151.9490 C   0  0  0  0  0  0  0  0  0  0  0  0
  143.7022  133.6902  150.9781 C   0  0  0  0  0  0  0  0  0  0  0  0
  143.8856  132.3272  150.2890 C   0  0  1  0  0  0  0  0  0  0  0  0
  142.8459  132.1267  149.3547 O   0  0  0  0  0  0  0  0  0  0  0  0
  145.2439  132.2486  149.5709 C   0  0  0  0  0  0  0  0  0  0  0  0
  146.4003  132.5373  150.5418 C   0  0  0  0  0  0  0  0  0  0  0  0
  149.5067  131.1151  154.2997 S   0  0  0  0  0  0  0  0  0  0  0  0
  150.5936  127.7401  156.8319 H   0  0  0  0  0  0  0  0  0  0  0  0
  149.5448  128.4405  155.6098 H   0  0  0  0  0  0  0  0  0  0  0  0
  149.5063  129.0574  157.2569 H   0  0  0  0  0  0  0  0  0  0  0  0
  151.5250  130.2985  158.2165 H   0  0  0  0  0  0  0  0  0  0  0  0
  152.9333  130.6205  157.2067 H   0  0  0  0  0  0  0  0  0  0  0  0
  152.5744  128.9826  157.7215 H   0  0  0  0  0  0  0  0  0  0  0  0
  152.6710  128.2183  155.3381 H   0  0  0  0  0  0  0  0  0  0  0  0
  152.9734  129.8561  154.7677 H   0  0  0  0  0  0  0  0  0  0  0  0
  151.6359  128.9242  154.1073 H   0  0  0  0  0  0  0  0  0  0  0  0
  147.8595  134.9479  152.0826 H   0  0  0  0  0  0  0  0  0  0  0  0
  146.2723  134.6772  150.4730 H   0  0  0  0  0  0  0  0  0  0  0  0
  144.8276  133.2653  152.7723 H   0  0  0  0  0  0  0  0  0  0  0  0
  144.7207  134.9670  152.3931 H   0  0  0  0  0  0  0  0  0  0  0  0
  142.7540  133.7148  151.5165 H   0  0  0  0  0  0  0  0  0  0  0  0
  143.6546  134.4822  150.2292 H   0  0  0  0  0  0  0  0  0  0  0  0
  143.8242  131.5339  151.0349 H   0  0  0  0  0  0  0  0  0  0  0  0
  142.2419  132.8504  149.4196 H   0  0  0  0  0  0  0  0  0  0  0  0
  145.3755  131.2629  149.1232 H   0  0  0  0  0  0  0  0  0  0  0  0
  145.2737  132.9681  148.7512 H   0  0  0  0  0  0  0  0  0  0  0  0
  147.3473  132.5129  150.0012 H   0  0  0  0  0  0  0  0  0  0  0  0
  146.4505  131.7438  151.2889 H   0  0  0  0  0  0  0  0  0  0  0  0
  1  2  1  0  0  0  0
  1 21  1  0  0  0  0
  1 22  1  0  0  0  0
  1 23  1  0  0  0  0
  2  3  1  0  0  0  0
  2  4  1  0  0  0  0
  2  5  1  0  0  0  0
  3 24  1  0  0  0  0
  3 25  1  0  0  0  0
  3 26  1  0  0  0  0
  4 27  1  0  0  0  0
  4 28  1  0  0  0  0
  4 29  1  0  0  0  0
  5 20  1  0  0  0  0
  5  6  2  0  0  0  0
  6  7  1  0  0  0  0
  7  8  2  0  0  0  0
  8  9  1  0  0  0  0
  8 20  1  0  0  0  0
  9 10  1  0  0  0  0
 10 11  2  0  0  0  0
 10 12  1  0  0  0  0
 12 13  1  0  0  0  0
 12 30  1  0  0  0  0
 13 19  1  0  0  0  0
 13 14  1  0  0  0  0
 13 31  1  0  0  0  0
 14 15  1  0  0  0  0
 14 32  1  0  0  0  0
 14 33  1  0  0  0  0
 15 16  1  0  0  0  0
 15 34  1  0  0  0  0
 15 35  1  0  0  0  0
 16 17  1  0  0  0  0
 16 18  1  0  0  0  0
 16 36  1  0  0  0  0
 17 37  1  0  0  0  0
 18 19  1  0  0  0  0
 18 38  1  0  0  0  0
 18 39  1  0  0  0  0
 19 40  1  0  0  0  0
 19 41  1  0  0  0  0
M  CHG  1   9  -1
M  END
> <s_m_source_file>
AV-unprocessed.smi

> <i_m_source_file_index>
632

> <i_lp_mmshare_version>
43012

> <i_f3d_flags>
0

> <s_epik_input>
W0NIM11DKFtDSDNdKShbQ0gzXSljMW5uYyhzMSlbTkhdQyg9TylbTkhdW0NAQEhdMltDSDJdW0NIMl1bQ0BASF0oW09IXSlbQ0gyXVtDSDJdMg==

> <s_epik_cmdline>
J2VwaWtfcHl0aG9uJywgJy1waCcsICc3LjAnLCAnLXRuJywgJzgnLCAnLW1hJywgJzIwMCcsICctbWV0YWxfYmluZGluZycsICctaW1hZScsICc8aW5maWxlLm1hZT4nLCAnLW9tYWUnLCAnPG91dGZpbGUubWFlPic=

> <r_lp_tautomer_probability>
1

> <r_epik_Ionization_Penalty>
4.62389

> <r_epik_Ionization_Penalty_Charging>
4.45204

> <r_epik_Ionization_Penalty_Neutral>
0.171842

> <r_epik_State_Penalty>
4.45172

> <r_epik_Charging_Adjusted_Penalty>
8.90376

> <i_epik_Tot_Q>
-1

> <i_epik_Tot_abs_Q>
1

> <r_epik_Metal_State_Penalty>
0.795834

> <b_epik_Metal_Only>
1

> <s_lp_Force_Field>
OPLS_2005

> <r_lp_Energy>
0.241417

> <b_lp_Chiralities_Consistent>
1

> <s_lp_Variant>
AV-unprocessed.smi:632-3

> <Gold.Version>
5.8.1

> <Gold.Id.Protein>
6NUR|6NUR_protein|mol2

> <Gold.PLP.Fitness>
42.4122

> <Gold.PLP.PLP>
-34.2649

> <Gold.PLP.part.hbond>
-4.0000

> <Gold.PLP.part.metal>
0.0000

> <Gold.PLP.part.buried>
-2.5538

> <Gold.PLP.part.nonpolar>
-27.4867

> <Gold.PLP.part.repulsive>
0.3010

> <Gold.PLP.ligand.clash>
0.0000

> <Gold.PLP.ligand.torsion>
0.2906

> <Gold.PLP.Chemscore.Hbond>
2.9013

> <Gold.PLP.Chemscore.CHOScore>
0.0000

> <Gold.PLP.Chemscore.Metal>
0.0000

> <Gold.Chemscore.Hbonds>
donor molecule, donor type, donor heavy atom, donor atom, acceptor molecule, acceptor atom, score
      L1  H    12    30       P1  7948  1.00
      L1  H    17    37       P1 10186  1.00
      P1  H 10785 10796       L1    17  0.81

> <Gold.PLP.Chemscore.Internal.Correction>
0.0248

> <Gold.Rescore>
     Score         DG    S(hbond)    S(metal)    S(lipo)     H(rot)  DE(clash)    DE(int)     intcor
     13.79     -16.90       2.15        0.00      72.96       1.67       0.16       2.95       ----

> <Gold.Chemscore.Fitness>
13.7900

> <Gold.Chemscore.DG>
-16.9030

> <Gold.Chemscore.ZeroCoef>
-5.4800

> <Gold.Chemscore.Hbond>
2.1470

> <Gold.Chemscore.Metal>
0.0000

> <Gold.Chemscore.Lipo>
72.9635

> <Gold.Chemscore.Internal_Hbond>
0.0000

> <Gold.Chemscore.DEClash>
0.1629

> <Gold.Chemscore.DEInternal>
2.9501

> <Gold.Chemscore.Rot>
1.6737

> <Gold.Chemscore.Internal.Correction>
   9.000000E+99

> <Gold.Chemscore.Hbonds>
donor molecule, donor type, donor heavy atom, donor atom, acceptor molecule, acceptor atom, score
      L1  H    12    30       P1  7948  0.70
      L1  H    17    37       P1 10186  0.97
      P1  H 10785 10796       L1    17  0.28

> <Gold.Chemscore.Hbond.Weighted>
-7.1710

> <Gold.Chemscore.Metal.Weighted>
-0.0000

> <Gold.Chemscore.Lipo.Weighted>
-8.5367

> <Gold.Chemscore.Internal_Hbond.Weighted>
0.0000

> <Gold.Chemscore.DEClash.Weighted>
0.1629

> <Gold.Chemscore.DEInternal.Weighted>
2.9501

> <Gold.Chemscore.Rot.Weighted>
4.2848

> <Gold.Chemscore.Internal.Correction.Weighted>
   9.000000E+99

> <Gold.Protein.RotatedTorsions>
[ 6907 6896 6895 6894 ] final  -86.55 input  -60.11 | X-H torsion
[ 7974 7965 7964 7962 ] final -122.57 input  175.53 | X-H torsion
[ 8008 7997 7996 7995 ] final  -64.25 input   59.86 | X-H torsion
[ 10167 10162 10161 10158 ] final  123.30 input  -65.29 | X-H torsion
[ 10718 10713 10712 10709 ] final -134.74 input   66.30 | X-H torsion
[ 10763 10752 10751 10750 ] final  -81.95 input  -60.55 | X-H torsion
[ 11005 11000 10999 10996 ] final -175.09 input  -57.11 | X-H torsion

> <Gold.Protein.ActiveResidues>
 VAL166  LYS551  ARG553  GLY616  TRP617  ASP618  TYR619  PRO620  LYS621  CYS622 
 ASP623  PHE694  ASN695  SER759  ASP760  ASP761  ALA762  ILE779  LEU786  VAL792 
 PHE793  MET794  SER795  GLU796  ALA797  LYS798  CYS799  TRP800  GLU811  SER814 

> <Gold.Protein.RotatedAtoms>
  150.6867  134.3034  159.4715 H   0  0  0  0  0  0  0  0  0  0  0  0  # atno 6907 bound_to 6896
  152.0927  134.9393  160.0580 H   0  0  0  0  0  0  0  0  0  0  0  0  # atno 6908 bound_to 6896
  152.0703  133.4069  159.4493 H   0  0  0  0  0  0  0  0  0  0  0  0  # atno 6909 bound_to 6896
  145.0280  140.8044  143.4341 H   0  0  0  0  0  0  0  0  0  0  0  0  # atno 7974 bound_to 7965
  154.4600  140.0958  156.6867 H   0  0  0  0  0  0  0  0  0  0  0  0  # atno 8008 bound_to 7997
  155.5021  140.3474  155.4354 H   0  0  0  0  0  0  0  0  0  0  0  0  # atno 8009 bound_to 7997
  156.0853  140.1383  156.9650 H   0  0  0  0  0  0  0  0  0  0  0  0  # atno 8010 bound_to 7997
  139.5807  144.6985  151.3535 H   0  0  0  0  0  0  0  0  0  0  0  0  # atno 10167 bound_to 10162
  156.2587  130.7197  151.1123 H   0  0  0  0  0  0  0  0  0  0  0  0  # atno 10718 bound_to 10713
  154.5699  135.5608  153.7085 H   0  0  0  0  0  0  0  0  0  0  0  0  # atno 10763 bound_to 10752
  153.0045  135.6294  154.2129 H   0  0  0  0  0  0  0  0  0  0  0  0  # atno 10764 bound_to 10752
  154.2068  135.2875  155.2952 H   0  0  0  0  0  0  0  0  0  0  0  0  # atno 10765 bound_to 10752
  140.4671  134.6200  157.4867 H   0  0  0  0  0  0  0  0  0  0  0  0  # atno 11005 bound_to 11000
  145.1808  139.2353  143.5293 LP  0  0  0  0  0  0  0  0  0  0  0  0  # atno 17320 bound_to 7965
  146.3495  140.1581  142.8591 LP  0  0  0  0  0  0  0  0  0  0  0  0  # atno 17321 bound_to 7965
  140.7086  143.7450  150.7526 LP  0  0  0  0  0  0  0  0  0  0  0  0  # atno 17342 bound_to 10162
  140.0981  143.4813  152.2440 LP  0  0  0  0  0  0  0  0  0  0  0  0  # atno 17343 bound_to 10162
  157.7242  131.0661  150.6003 LP  0  0  0  0  0  0  0  0  0  0  0  0  # atno 17370 bound_to 10713
  156.6089  130.4374  149.5867 LP  0  0  0  0  0  0  0  0  0  0  0  0  # atno 17371 bound_to 10713
  139.9908  134.6988  155.9693 LP  0  0  0  0  0  0  0  0  0  0  0  0  # atno 17394 bound_to 11000
  141.1594  133.6540  156.4268 LP  0  0  0  0  0  0  0  0  0  0  0  0  # atno 17395 bound_to 11000

$$$$
