AV-unprocessed.smi:1641|AV-procd|sdf|6564|dock1
  -GOLD-   22720 7243D 1   1.00000     0.00000
 Structure written by MMmdl.
 40 41  0  0  0  0  0  0  0  0  2 V2000
  146.9495  133.6674  162.4832 C   0  0  0  0  0  0  0  0  0  0  0  0
  147.3078  134.9509  161.8160 C   0  0  0  0  0  0  0  0  0  0  0  0
  147.1824  136.1382  162.4142 N   0  0  0  0  0  0  0  0  0  0  0  0
  147.5785  137.1826  161.5910 N   0  0  0  0  0  0  0  0  0  0  0  0
  147.9846  136.7731  160.3806 C   0  0  0  0  0  0  0  0  0  0  0  0
  148.4116  137.6267  159.4354 N   0  5  0  0  0  0  0  0  0  0  0  0
  149.6800  137.5439  158.9728 C   0  0  0  0  0  0  0  0  0  0  0  0
  150.3285  136.5085  158.8058 O   0  0  0  0  0  0  0  0  0  0  0  0
  150.2269  138.7347  158.6907 N   0  0  0  0  0  0  0  0  0  0  0  0
  151.5789  138.9707  158.1965 C   0  0  0  0  0  0  0  0  0  0  0  0
  151.6948  140.4014  157.6464 C   0  0  0  0  0  0  0  0  0  0  0  0
  151.7716  141.4499  158.6627 N   0  0  0  0  0  0  0  0  0  0  0  0
  151.3335  142.7307  158.1240 C   0  0  0  0  0  0  0  0  0  0  0  0
  151.3605  143.8420  159.1883 C   0  0  2  0  0  0  0  0  0  0  0  0
  150.9767  145.2067  158.6071 C   0  0  0  0  0  0  0  0  0  0  0  0
  152.6756  143.9444  159.7316 O   0  0  0  0  0  0  0  0  0  0  0  0
  153.2124  142.7295  160.2579 C   0  0  1  0  0  0  0  0  0  0  0  0
  152.5734  142.3620  161.6081 C   0  0  0  0  0  0  0  0  0  0  0  0
  153.1178  141.6010  159.2108 C   0  0  0  0  0  0  0  0  0  0  0  0
  147.9246  135.0229  160.1741 S   0  0  0  0  0  0  0  0  0  0  0  0
  145.8992  133.4365  162.3049 H   0  0  0  0  0  0  0  0  0  0  0  0
  147.1168  133.7374  163.5584 H   0  0  0  0  0  0  0  0  0  0  0  0
  147.5598  132.8550  162.0885 H   0  0  0  0  0  0  0  0  0  0  0  0
  149.6514  139.5502  158.8411 H   0  0  0  0  0  0  0  0  0  0  0  0
  152.3222  138.8245  158.9818 H   0  0  0  0  0  0  0  0  0  0  0  0
  151.7823  138.2319  157.4220 H   0  0  0  0  0  0  0  0  0  0  0  0
  152.5561  140.4698  156.9801 H   0  0  0  0  0  0  0  0  0  0  0  0
  150.8187  140.5837  157.0221 H   0  0  0  0  0  0  0  0  0  0  0  0
  151.9682  143.0136  157.2826 H   0  0  0  0  0  0  0  0  0  0  0  0
  150.3201  142.6372  157.7315 H   0  0  0  0  0  0  0  0  0  0  0  0
  150.6569  143.6000  159.9854 H   0  0  0  0  0  0  0  0  0  0  0  0
  149.9706  145.1851  158.1874 H   0  0  0  0  0  0  0  0  0  0  0  0
  151.6639  145.5066  157.8154 H   0  0  0  0  0  0  0  0  0  0  0  0
  150.9987  145.9780  159.3774 H   0  0  0  0  0  0  0  0  0  0  0  0
  154.2688  142.9201  160.4493 H   0  0  0  0  0  0  0  0  0  0  0  0
  153.0703  141.4976  162.0487 H   0  0  0  0  0  0  0  0  0  0  0  0
  151.5172  142.1124  161.5078 H   0  0  0  0  0  0  0  0  0  0  0  0
  152.6570  143.1871  162.3156 H   0  0  0  0  0  0  0  0  0  0  0  0
  153.4534  140.6696  159.6657 H   0  0  0  0  0  0  0  0  0  0  0  0
  153.8154  141.8152  158.3996 H   0  0  0  0  0  0  0  0  0  0  0  0
  1  2  1  0  0  0  0
  1 21  1  0  0  0  0
  1 22  1  0  0  0  0
  1 23  1  0  0  0  0
  2 20  1  0  0  0  0
  2  3  2  0  0  0  0
  3  4  1  0  0  0  0
  4  5  2  0  0  0  0
  5  6  1  0  0  0  0
  5 20  1  0  0  0  0
  6  7  1  0  0  0  0
  7  8  2  0  0  0  0
  7  9  1  0  0  0  0
  9 10  1  0  0  0  0
  9 24  1  0  0  0  0
 10 11  1  0  0  0  0
 10 25  1  0  0  0  0
 10 26  1  0  0  0  0
 11 12  1  0  0  0  0
 11 27  1  0  0  0  0
 11 28  1  0  0  0  0
 12 19  1  0  0  0  0
 12 13  1  0  0  0  0
 13 14  1  0  0  0  0
 13 29  1  0  0  0  0
 13 30  1  0  0  0  0
 14 15  1  0  0  0  0
 14 16  1  0  0  0  0
 14 31  1  0  0  0  0
 15 32  1  0  0  0  0
 15 33  1  0  0  0  0
 15 34  1  0  0  0  0
 16 17  1  0  0  0  0
 17 18  1  0  0  0  0
 17 19  1  0  0  0  0
 17 35  1  0  0  0  0
 18 36  1  0  0  0  0
 18 37  1  0  0  0  0
 18 38  1  0  0  0  0
 19 39  1  0  0  0  0
 19 40  1  0  0  0  0
M  CHG  1   6  -1
M  END
> <s_m_source_file>
AV-unprocessed.smi

> <i_m_source_file_index>
1641

> <i_lp_mmshare_version>
43012

> <i_f3d_flags>
0

> <s_epik_input>
W0NIM11jMW5uYyhzMSlbTkhdQyg9TylbTkhdW0NIMl1bQ0gyXU4yW0NIMl1bQ0BASF0oW0NIM10pT1tDQEBIXShbQ0gzXSlbQ0gyXTI=

> <s_epik_cmdline>
J2VwaWtfcHl0aG9uJywgJy1waCcsICc3LjAnLCAnLXRuJywgJzgnLCAnLW1hJywgJzIwMCcsICctbWV0YWxfYmluZGluZycsICctaW1hZScsICc8aW5maWxlLm1hZT4nLCAnLW9tYWUnLCAnPG91dGZpbGUubWFlPic=

> <r_lp_tautomer_probability>
1

> <r_epik_Ionization_Penalty>
3.81681

> <r_epik_Ionization_Penalty_Charging>
3.36369

> <r_epik_Ionization_Penalty_Neutral>
0.45313

> <r_epik_State_Penalty>
3.571

> <r_epik_Charging_Adjusted_Penalty>
6.93469

> <i_epik_Tot_Q>
-1

> <i_epik_Tot_abs_Q>
1

> <r_epik_Metal_State_Penalty>
0.710322

> <b_epik_Metal_Only>
1

> <s_lp_Force_Field>
OPLS_2005

> <r_lp_Energy>
21.0176

> <b_lp_Chiralities_Consistent>
1

> <s_lp_Variant>
AV-unprocessed.smi:1641-9

> <Gold.Version>
5.8.1

> <Gold.Id.Protein>
6NUR|6NUR_protein|mol2

> <Gold.PLP.Fitness>
46.0268

> <Gold.PLP.PLP>
-39.7177

> <Gold.PLP.part.hbond>
-3.9450

> <Gold.PLP.part.metal>
0.0000

> <Gold.PLP.part.buried>
-6.0528

> <Gold.PLP.part.nonpolar>
-29.7514

> <Gold.PLP.part.repulsive>
0.1718

> <Gold.PLP.ligand.clash>
0.0000

> <Gold.PLP.ligand.torsion>
1.2150

> <Gold.PLP.Chemscore.Hbond>
2.8320

> <Gold.PLP.Chemscore.CHOScore>
0.0000

> <Gold.PLP.Chemscore.Metal>
0.0000

> <Gold.Chemscore.Hbonds>
donor molecule, donor type, donor heavy atom, donor atom, acceptor molecule, acceptor atom, score
      P1  H  6896  6907       L1     8  1.00
      P1  H  6931  6943       L1     4  0.78
      P1  H  6934  6947       L1     4  0.52

> <Gold.PLP.Chemscore.Internal.Correction>
0.2431

> <Gold.Rescore>
     Score         DG    S(hbond)    S(metal)    S(lipo)     H(rot)  DE(clash)    DE(int)     intcor
     18.10     -19.49       2.03        0.00      96.07       1.57       0.05       1.34       ----

> <Gold.Chemscore.Fitness>
18.0962

> <Gold.Chemscore.DG>
-19.4880

> <Gold.Chemscore.ZeroCoef>
-5.4800

> <Gold.Chemscore.Hbond>
2.0308

> <Gold.Chemscore.Metal>
0.0000

> <Gold.Chemscore.Lipo>
96.0747

> <Gold.Chemscore.Internal_Hbond>
0.0000

> <Gold.Chemscore.DEClash>
0.0545

> <Gold.Chemscore.DEInternal>
1.3373

> <Gold.Chemscore.Rot>
1.5686

> <Gold.Chemscore.Internal.Correction>
   9.000000E+99

> <Gold.Chemscore.Hbonds>
donor molecule, donor type, donor heavy atom, donor atom, acceptor molecule, acceptor atom, score
      P1  H  6896  6907       L1     8  0.98
      P1  H  6931  6943       L1     4  0.11
      P1  H  6934  6947       L1     4  0.04

> <Gold.Chemscore.Hbond.Weighted>
-6.7830

> <Gold.Chemscore.Metal.Weighted>
-0.0000

> <Gold.Chemscore.Lipo.Weighted>
-11.2407

> <Gold.Chemscore.Internal_Hbond.Weighted>
0.0000

> <Gold.Chemscore.DEClash.Weighted>
0.0545

> <Gold.Chemscore.DEInternal.Weighted>
1.3373

> <Gold.Chemscore.Rot.Weighted>
4.0157

> <Gold.Chemscore.Internal.Correction.Weighted>
   9.000000E+99

> <Gold.Protein.RotatedTorsions>
[ 6907 6896 6895 6894 ] final  -31.46 input  -60.11 | X-H torsion
[ 7974 7965 7964 7962 ] final  100.36 input  175.53 | X-H torsion
[ 8008 7997 7996 7995 ] final   24.15 input   59.86 | X-H torsion
[ 10167 10162 10161 10158 ] final  154.76 input  -65.29 | X-H torsion
[ 10718 10713 10712 10709 ] final    5.00 input   66.30 | X-H torsion
[ 10763 10752 10751 10750 ] final -141.33 input  -60.55 | X-H torsion
[ 11005 11000 10999 10996 ] final   89.88 input  -57.11 | X-H torsion

> <Gold.Protein.ActiveResidues>
 VAL166  LYS551  ARG553  GLY616  TRP617  ASP618  TYR619  PRO620  LYS621  CYS622 
 ASP623  PHE694  ASN695  SER759  ASP760  ASP761  ALA762  ILE779  LEU786  VAL792 
 PHE793  MET794  SER795  GLU796  ALA797  LYS798  CYS799  TRP800  GLU811  SER814 

> <Gold.Protein.RotatedAtoms>
  151.0917  134.9920  159.8405 H   0  0  0  0  0  0  0  0  0  0  0  0  # atno 6907 bound_to 6896
  152.5429  134.2057  159.8740 H   0  0  0  0  0  0  0  0  0  0  0  0  # atno 6908 bound_to 6896
  151.2094  133.4521  159.2631 H   0  0  0  0  0  0  0  0  0  0  0  0  # atno 6909 bound_to 6896
  145.3867  139.2370  143.3374 H   0  0  0  0  0  0  0  0  0  0  0  0  # atno 7974 bound_to 7965
  154.9919  140.3115  155.4903 H   0  0  0  0  0  0  0  0  0  0  0  0  # atno 8008 bound_to 7997
  156.2938  140.2247  156.4964 H   0  0  0  0  0  0  0  0  0  0  0  0  # atno 8009 bound_to 7997
  154.7696  140.0453  157.1028 H   0  0  0  0  0  0  0  0  0  0  0  0  # atno 8010 bound_to 7997
  139.4822  144.5158  151.7954 H   0  0  0  0  0  0  0  0  0  0  0  0  # atno 10167 bound_to 10162
  156.9009  130.5721  149.5648 H   0  0  0  0  0  0  0  0  0  0  0  0  # atno 10718 bound_to 10713
  154.8549  135.3527  154.5850 H   0  0  0  0  0  0  0  0  0  0  0  0  # atno 10763 bound_to 10752
  153.6461  135.6996  153.5229 H   0  0  0  0  0  0  0  0  0  0  0  0  # atno 10764 bound_to 10752
  153.2932  135.4228  155.1144 H   0  0  0  0  0  0  0  0  0  0  0  0  # atno 10765 bound_to 10752
  139.8867  134.8579  156.3204 H   0  0  0  0  0  0  0  0  0  0  0  0  # atno 11005 bound_to 11000
  146.2817  140.4543  142.8774 LP  0  0  0  0  0  0  0  0  0  0  0  0  # atno 17320 bound_to 7965
  144.8469  140.6943  143.6193 LP  0  0  0  0  0  0  0  0  0  0  0  0  # atno 17321 bound_to 7965
  140.4666  144.1646  150.5912 LP  0  0  0  0  0  0  0  0  0  0  0  0  # atno 17342 bound_to 10162
  140.4427  143.2519  151.9452 LP  0  0  0  0  0  0  0  0  0  0  0  0  # atno 17343 bound_to 10162
  156.0582  130.5640  150.9137 LP  0  0  0  0  0  0  0  0  0  0  0  0  # atno 17370 bound_to 10713
  157.6026  131.0940  150.8934 LP  0  0  0  0  0  0  0  0  0  0  0  0  # atno 17371 bound_to 10713
  140.9790  133.7279  156.0644 LP  0  0  0  0  0  0  0  0  0  0  0  0  # atno 17394 bound_to 11000
  140.7773  134.3764  157.5495 LP  0  0  0  0  0  0  0  0  0  0  0  0  # atno 17395 bound_to 11000

$$$$
