AV-unprocessed.smi:114|AV-procd|sdf|1109|dock9
  -GOLD-   2262018223D 1   1.00000     0.00000
 Structure written by MMmdl.
 32 34  0  0  0  0  0  0  0  0  1 V2000
  152.1128  144.2602  162.3684 N   0  0  0  0  0  0  0  0  0  0  0  0
  152.3928  143.4041  161.3758 C   0  0  0  0  0  0  0  0  0  0  0  0
  153.3995  142.5180  161.5547 N   0  0  0  0  0  0  0  0  0  0  0  0
  153.7111  141.6459  160.5884 C   0  0  0  0  0  0  0  0  0  0  0  0
  154.7322  140.7968  160.8510 F   0  0  0  0  0  0  0  0  0  0  0  0
  153.1273  141.5199  159.3923 N   0  0  0  0  0  0  0  0  0  0  0  0
  152.1111  142.4111  159.2058 C   0  0  0  0  0  0  0  0  0  0  0  0
  151.6851  143.3845  160.1492 C   0  0  0  0  0  0  0  0  0  0  0  0
  150.6310  144.1217  159.6278 N   0  0  0  0  0  0  0  0  0  0  0  0
  150.4481  143.6092  158.4407 C   0  0  0  0  0  0  0  0  0  0  0  0
  151.2970  142.5782  158.1014 N   0  0  0  0  0  0  0  0  0  0  0  0
  151.3151  141.8110  156.8127 C   0  0  2  0  0  0  0  0  0  0  0  0
  150.3224  142.3037  155.9628 O   0  0  0  0  0  0  0  0  0  0  0  0
  149.3811  141.2812  155.6405 C   0  0  1  0  0  0  0  0  0  0  0  0
  148.7794  141.5071  154.2424 C   0  0  0  0  0  0  0  0  0  0  0  0
  148.3369  142.8413  154.1140 O   0  0  0  0  0  0  0  0  0  0  0  0
  150.1707  139.9764  155.8202 C   0  0  1  0  0  0  0  0  0  0  0  0
  150.9383  139.6743  154.6688 O   0  0  0  0  0  0  0  0  0  0  0  0
  151.0822  140.2972  156.9941 C   0  0  2  0  0  0  0  0  0  0  0  0
  150.4614  139.9500  158.2194 O   0  0  0  0  0  0  0  0  0  0  0  0
  152.2884  142.0345  156.3739 H   0  0  0  0  0  0  0  0  0  0  0  0
  148.5863  141.2891  156.3872 H   0  0  0  0  0  0  0  0  0  0  0  0
  149.5148  139.1276  156.0193 H   0  0  0  0  0  0  0  0  0  0  0  0
  152.0359  139.7704  156.9400 H   0  0  0  0  0  0  0  0  0  0  0  0
  151.3662  144.9311  162.2574 H   0  0  0  0  0  0  0  0  0  0  0  0
  152.6439  144.2282  163.2266 H   0  0  0  0  0  0  0  0  0  0  0  0
  149.6823  143.9748  157.7719 H   0  0  0  0  0  0  0  0  0  0  0  0
  149.4975  141.2703  153.4566 H   0  0  0  0  0  0  0  0  0  0  0  0
  147.9119  140.8625  154.0982 H   0  0  0  0  0  0  0  0  0  0  0  0
  148.6418  143.3332  154.8611 H   0  0  0  0  0  0  0  0  0  0  0  0
  150.4506  139.0668  154.1337 H   0  0  0  0  0  0  0  0  0  0  0  0
  151.1261  139.6334  158.8117 H   0  0  0  0  0  0  0  0  0  0  0  0
  1  2  1  0  0  0  0
  1 25  1  0  0  0  0
  1 26  1  0  0  0  0
  2  8  1  0  0  0  0
  2  3  2  0  0  0  0
  3  4  1  0  0  0  0
  4  5  1  0  0  0  0
  4  6  2  0  0  0  0
  6  7  1  0  0  0  0
  7 11  1  0  0  0  0
  7  8  2  0  0  0  0
  8  9  1  0  0  0  0
  9 10  2  0  0  0  0
 10 11  1  0  0  0  0
 10 27  1  0  0  0  0
 11 12  1  0  0  0  0
 12 21  1  0  0  0  0
 12 19  1  0  0  0  0
 12 13  1  0  0  0  0
 13 14  1  0  0  0  0
 14 22  1  0  0  0  0
 14 15  1  0  0  0  0
 14 17  1  0  0  0  0
 15 16  1  0  0  0  0
 15 28  1  0  0  0  0
 15 29  1  0  0  0  0
 16 30  1  0  0  0  0
 17 23  1  0  0  0  0
 17 18  1  0  0  0  0
 17 19  1  0  0  0  0
 18 31  1  0  0  0  0
 19 24  1  0  0  0  0
 19 20  1  0  0  0  0
 20 32  1  0  0  0  0
M  END
> <s_m_source_file>
AV-unprocessed.smi

> <i_m_source_file_index>
114

> <i_lp_mmshare_version>
43012

> <i_f3d_flags>
0

> <s_epik_input>
RmMobjEpbmMoW05IMl0pYyhjMTIpbltjSF1uMltDQEBIXTNPW0NASF0oW0NIMl1bT0hdKVtDQEBIXShbT0hdKVtDQEBIXTNbT0hd

> <s_epik_cmdline>
J2VwaWtfcHl0aG9uJywgJy1waCcsICc3LjAnLCAnLXRuJywgJzgnLCAnLW1hJywgJzIwMCcsICctbWV0YWxfYmluZGluZycsICctaW1hZScsICc8aW5maWxlLm1hZT4nLCAnLW9tYWUnLCAnPG91dGZpbGUubWFlPic=

> <r_lp_tautomer_probability>
1

> <r_epik_Ionization_Penalty>
1.13199e-05

> <r_epik_Ionization_Penalty_Charging>
0

> <r_epik_Ionization_Penalty_Neutral>
1.13199e-05

> <r_epik_State_Penalty>
-0

> <r_epik_Charging_Adjusted_Penalty>
0

> <i_epik_Tot_Q>
0

> <i_epik_Tot_abs_Q>
0

> <r_epik_Metal_State_Penalty>
-0

> <b_epik_Metal_Only>
0

> <s_epik_Chemistry_Notes>
This compound contains an acetal/aminal-like group ( X-CH(R)-Y where X, Y are N, S, or O) that may be acid/base labile, releasing an aldehyde.

> <s_lp_Force_Field>
OPLS_2005

> <r_lp_Energy>
40.543

> <b_lp_Chiralities_Consistent>
1

> <s_lp_Variant>
AV-unprocessed.smi:114-3

> <Gold.Version>
5.8.1

> <Gold.Id.Protein>
6NUR|6NUR_protein|mol2

> <Gold.PLP.Fitness>
46.4610

> <Gold.PLP.PLP>
-37.2021

> <Gold.PLP.part.hbond>
-5.7586

> <Gold.PLP.part.metal>
0.0000

> <Gold.PLP.part.buried>
-4.9120

> <Gold.PLP.part.nonpolar>
-27.2111

> <Gold.PLP.part.repulsive>
2.2486

> <Gold.PLP.ligand.clash>
0.0000

> <Gold.PLP.ligand.torsion>
0.0694

> <Gold.PLP.Chemscore.Hbond>
2.0000

> <Gold.PLP.Chemscore.CHOScore>
1.1319

> <Gold.PLP.Chemscore.Metal>
0.0000

> <Gold.Chemscore.Hbonds>
donor molecule, donor type, donor heavy atom, donor atom, acceptor molecule, acceptor atom, score
      L1  H    16    30       P1  8028  1.00
      P1  H  7989  7998       L1    18  1.00
      L1  C    10    27       P1  8028  1.00
      L1  C    10    27       P1  8029  0.13

> <Gold.PLP.Chemscore.Internal.Correction>
0.0020

> <Gold.Rescore>
     Score         DG    S(hbond)    S(metal)    S(lipo)     H(rot)  DE(clash)    DE(int)     intcor
      3.67      -5.31       1.88        0.00      33.08       4.03       1.47       0.16       ----

> <Gold.Chemscore.Fitness>
3.6747

> <Gold.Chemscore.DG>
-5.3093

> <Gold.Chemscore.ZeroCoef>
-5.4800

> <Gold.Chemscore.Hbond>
1.8771

> <Gold.Chemscore.Metal>
0.0000

> <Gold.Chemscore.Lipo>
33.0840

> <Gold.Chemscore.Internal_Hbond>
0.0000

> <Gold.Chemscore.DEClash>
1.4709

> <Gold.Chemscore.DEInternal>
0.1638

> <Gold.Chemscore.Rot>
4.0277

> <Gold.Chemscore.Internal.Correction>
   9.000000E+99

> <Gold.Chemscore.Hbonds>
donor molecule, donor type, donor heavy atom, donor atom, acceptor molecule, acceptor atom, score
      L1  H    16    30       P1  8028  0.93
      P1  H  7989  7998       L1    18  0.50

> <Gold.Chemscore.Hbond.Weighted>
-6.2695

> <Gold.Chemscore.Metal.Weighted>
-0.0000

> <Gold.Chemscore.Lipo.Weighted>
-3.8708

> <Gold.Chemscore.Internal_Hbond.Weighted>
0.0000

> <Gold.Chemscore.DEClash.Weighted>
1.4709

> <Gold.Chemscore.DEInternal.Weighted>
0.1638

> <Gold.Chemscore.Rot.Weighted>
10.3110

> <Gold.Chemscore.Internal.Correction.Weighted>
   9.000000E+99

> <Gold.Protein.RotatedTorsions>
[ 6907 6896 6895 6894 ] final -139.80 input  -60.11 | X-H torsion
[ 7974 7965 7964 7962 ] final -116.74 input  175.53 | X-H torsion
[ 8008 7997 7996 7995 ] final   51.73 input   59.86 | X-H torsion
[ 10167 10162 10161 10158 ] final   -6.47 input  -65.29 | X-H torsion
[ 10718 10713 10712 10709 ] final  -49.96 input   66.30 | X-H torsion
[ 10763 10752 10751 10750 ] final   86.59 input  -60.55 | X-H torsion
[ 11005 11000 10999 10996 ] final -119.67 input  -57.11 | X-H torsion

> <Gold.Protein.ActiveResidues>
 VAL166  LYS551  ARG553  GLY616  TRP617  ASP618  TYR619  PRO620  LYS621  CYS622 
 ASP623  PHE694  ASN695  SER759  ASP760  ASP761  ALA762  ILE779  LEU786  VAL792 
 PHE793  MET794  SER795  GLU796  ALA797  LYS798  CYS799  TRP800  GLU811  SER814 

> <Gold.Protein.RotatedAtoms>
  151.0525  133.5612  159.2640 H   0  0  0  0  0  0  0  0  0  0  0  0  # atno 6907 bound_to 6896
  151.2617  135.0655  159.9111 H   0  0  0  0  0  0  0  0  0  0  0  0  # atno 6908 bound_to 6896
  152.5384  134.0269  159.8061 H   0  0  0  0  0  0  0  0  0  0  0  0  # atno 6909 bound_to 6896
  145.0932  140.8504  143.3970 H   0  0  0  0  0  0  0  0  0  0  0  0  # atno 7974 bound_to 7965
  155.4402  140.3454  155.4289 H   0  0  0  0  0  0  0  0  0  0  0  0  # atno 8008 bound_to 7997
  156.1283  140.1507  156.9133 H   0  0  0  0  0  0  0  0  0  0  0  0  # atno 8009 bound_to 7997
  154.4875  140.0851  156.7500 H   0  0  0  0  0  0  0  0  0  0  0  0  # atno 8010 bound_to 7997
  140.6998  143.6190  150.8631 H   0  0  0  0  0  0  0  0  0  0  0  0  # atno 10167 bound_to 10162
  156.1844  130.4151  149.9460 H   0  0  0  0  0  0  0  0  0  0  0  0  # atno 10718 bound_to 10713
  153.1585  135.4575  154.9738 H   0  0  0  0  0  0  0  0  0  0  0  0  # atno 10763 bound_to 10752
  154.7879  135.3210  154.7846 H   0  0  0  0  0  0  0  0  0  0  0  0  # atno 10764 bound_to 10752
  153.8339  135.6936  153.4865 H   0  0  0  0  0  0  0  0  0  0  0  0  # atno 10765 bound_to 10752
  141.0199  134.0140  157.3297 H   0  0  0  0  0  0  0  0  0  0  0  0  # atno 11005 bound_to 11000
  145.1041  139.2802  143.5671 LP  0  0  0  0  0  0  0  0  0  0  0  0  # atno 17320 bound_to 7965
  146.3531  140.0617  142.8629 LP  0  0  0  0  0  0  0  0  0  0  0  0  # atno 17321 bound_to 7965
  139.9911  143.5846  152.2910 LP  0  0  0  0  0  0  0  0  0  0  0  0  # atno 17342 bound_to 10162
  139.6501  144.7660  151.2164 LP  0  0  0  0  0  0  0  0  0  0  0  0  # atno 17343 bound_to 10162
  156.7220  130.9010  151.3619 LP  0  0  0  0  0  0  0  0  0  0  0  0  # atno 17370 bound_to 10713
  157.6889  130.9214  150.0461 LP  0  0  0  0  0  0  0  0  0  0  0  0  # atno 17371 bound_to 10713
  139.9140  135.0194  156.7805 LP  0  0  0  0  0  0  0  0  0  0  0  0  # atno 17394 bound_to 11000
  140.6591  133.9662  155.7795 LP  0  0  0  0  0  0  0  0  0  0  0  0  # atno 17395 bound_to 11000

$$$$
