AV-unprocessed.smi:44|AV-procd|sdf|400|dock4
  -GOLD-   2262016253D 1   1.00000     0.00000
 Structure written by MMmdl.
 29 31  0  0  0  0  0  0  0  0  3 V2000
  151.1545  145.5498  158.9161 O   0  0  0  0  0  0  0  0  0  0  0  0
  151.7032  144.4775  159.1611 C   0  0  0  0  0  0  0  0  0  0  0  0
  152.5407  144.1770  160.2055 N   0  5  0  0  0  0  0  0  0  0  0  0
  153.0949  142.9107  160.3586 C   0  0  0  0  0  0  0  0  0  0  0  0
  152.9253  141.8862  159.6000 N   0  0  0  0  0  0  0  0  0  0  0  0
  152.0801  142.0945  158.4999 C   0  0  0  0  0  0  0  0  0  0  0  0
  151.4783  143.3060  158.2506 C   0  0  0  0  0  0  0  0  0  0  0  0
  150.7171  143.2163  157.1162 N   0  3  0  0  0  0  0  0  0  0  0  0
  150.8921  141.9531  156.7282 C   0  0  0  0  0  0  0  0  0  0  0  0
  151.7135  141.2038  157.5231 N   0  0  0  0  0  0  0  0  0  0  0  0
  152.0908  139.7714  157.3406 C   0  0  2  0  0  0  0  0  0  0  0  0
  150.9073  138.8603  157.6862 C   0  0  0  0  0  0  0  0  0  0  0  0
  151.5882  137.7618  158.4727 C   0  0  0  0  0  0  0  0  0  0  0  0
  152.6698  138.5482  159.2112 C   0  0  1  0  0  0  0  0  0  0  0  0
  153.8382  137.6965  159.7264 C   0  0  0  0  0  0  0  0  0  0  0  0
  153.3677  136.7290  160.6400 O   0  0  0  0  0  0  0  0  0  0  0  0
  153.1293  139.4690  158.2272 O   0  0  0  0  0  0  0  0  0  0  0  0
  150.1557  143.9352  156.6780 H   0  0  0  0  0  0  0  0  0  0  0  0
  152.4309  139.6871  156.3077 H   0  0  0  0  0  0  0  0  0  0  0  0
  152.2246  139.1154  160.0306 H   0  0  0  0  0  0  0  0  0  0  0  0
  153.7351  142.8501  161.2423 H   0  0  0  0  0  0  0  0  0  0  0  0
  150.4211  141.5485  155.8511 H   0  0  0  0  0  0  0  0  0  0  0  0
  150.1885  139.3891  158.3145 H   0  0  0  0  0  0  0  0  0  0  0  0
  150.4035  138.5090  156.7854 H   0  0  0  0  0  0  0  0  0  0  0  0
  150.9100  137.2351  159.1445 H   0  0  0  0  0  0  0  0  0  0  0  0
  152.0345  137.0335  157.7937 H   0  0  0  0  0  0  0  0  0  0  0  0
  154.3573  137.2033  158.9042 H   0  0  0  0  0  0  0  0  0  0  0  0
  154.5662  138.3271  160.2373 H   0  0  0  0  0  0  0  0  0  0  0  0
  154.0154  136.6168  161.3190 H   0  0  0  0  0  0  0  0  0  0  0  0
  1  2  2  0  0  0  0
  2  7  1  0  0  0  0
  2  3  1  0  0  0  0
  3  4  1  0  0  0  0
  4 21  1  0  0  0  0
  4  5  2  0  0  0  0
  5  6  1  0  0  0  0
  6 10  1  0  0  0  0
  6  7  2  0  0  0  0
  7  8  1  0  0  0  0
  8  9  2  0  0  0  0
  8 18  1  0  0  0  0
  9 10  1  0  0  0  0
  9 22  1  0  0  0  0
 10 11  1  0  0  0  0
 11 19  1  0  0  0  0
 11 17  1  0  0  0  0
 11 12  1  0  0  0  0
 12 13  1  0  0  0  0
 12 23  1  0  0  0  0
 12 24  1  0  0  0  0
 13 14  1  0  0  0  0
 13 25  1  0  0  0  0
 13 26  1  0  0  0  0
 14 20  1  0  0  0  0
 14 15  1  0  0  0  0
 14 17  1  0  0  0  0
 15 16  1  0  0  0  0
 15 27  1  0  0  0  0
 15 28  1  0  0  0  0
 16 29  1  0  0  0  0
M  CHG  1   3  -1
M  CHG  1   8   1
M  END
> <s_m_source_file>
AV-unprocessed.smi

> <i_m_source_file_index>
44

> <i_lp_mmshare_version>
43012

> <i_f3d_flags>
0

> <s_epik_input>
bjFbY0hdW25IXWMoPU8pYyhjMTIpbltjSF1uMltDQEhdM1tDSDJdW0NIMl1bQ0BIXShPMylbQ0gyXVtPSF0=

> <s_epik_cmdline>
J2VwaWtfcHl0aG9uJywgJy1waCcsICc3LjAnLCAnLXRuJywgJzgnLCAnLW1hJywgJzIwMCcsICctbWV0YWxfYmluZGluZycsICctaW1hZScsICc8aW5maWxlLm1hZT4nLCAnLW9tYWUnLCAnPG91dGZpbGUubWFlPic=

> <r_lp_tautomer_probability>
0.144281

> <r_epik_Ionization_Penalty>
5.63685

> <r_epik_Ionization_Penalty_Charging>
5.58669

> <r_epik_Ionization_Penalty_Neutral>
0.0501585

> <r_epik_State_Penalty>
1.20809

> <r_epik_Charging_Adjusted_Penalty>
6.79478

> <i_epik_Tot_Q>
0

> <i_epik_Tot_abs_Q>
2

> <r_epik_Metal_State_Penalty>
1.52487

> <b_epik_Metal_Only>
0

> <s_epik_Chemistry_Notes>
This compound contains an acetal/aminal-like group ( X-CH(R)-Y where X, Y are N, S, or O) that may be acid/base labile, releasing an aldehyde.

> <s_lp_Force_Field>
OPLS_2005

> <r_lp_Energy>
45.8443

> <b_lp_Chiralities_Consistent>
1

> <s_lp_Variant>
AV-unprocessed.smi:44-6

> <Gold.Version>
5.8.1

> <Gold.Id.Protein>
6NUR|6NUR_protein|mol2

> <Gold.PLP.Fitness>
40.3710

> <Gold.PLP.PLP>
-28.8781

> <Gold.PLP.part.hbond>
-4.0000

> <Gold.PLP.part.metal>
0.0000

> <Gold.PLP.part.buried>
-5.3922

> <Gold.PLP.part.nonpolar>
-19.6044

> <Gold.PLP.part.repulsive>
0.1941

> <Gold.PLP.ligand.clash>
0.0000

> <Gold.PLP.ligand.torsion>
0.2589

> <Gold.PLP.Chemscore.Hbond>
4.0000

> <Gold.PLP.Chemscore.CHOScore>
0.0000

> <Gold.PLP.Chemscore.Metal>
0.0000

> <Gold.Chemscore.Hbonds>
donor molecule, donor type, donor heavy atom, donor atom, acceptor molecule, acceptor atom, score
      L1  H     8    18       P1  8028  2.00
      P1  H  6896  6909       L1    16  0.55
      P1  H  7997  8008       L1    17  0.65

> <Gold.PLP.Chemscore.Internal.Correction>
0.0106

> <Gold.Rescore>
     Score         DG    S(hbond)    S(metal)    S(lipo)     H(rot)  DE(clash)    DE(int)     intcor
     10.37     -12.14       2.84        0.00      25.53       2.27       0.06       1.71       ----

> <Gold.Chemscore.Fitness>
10.3683

> <Gold.Chemscore.DG>
-12.1386

> <Gold.Chemscore.ZeroCoef>
-5.4800

> <Gold.Chemscore.Hbond>
2.8406

> <Gold.Chemscore.Metal>
0.0000

> <Gold.Chemscore.Lipo>
25.5336

> <Gold.Chemscore.Internal_Hbond>
0.0000

> <Gold.Chemscore.DEClash>
0.0618

> <Gold.Chemscore.DEInternal>
1.7085

> <Gold.Chemscore.Rot>
2.2720

> <Gold.Chemscore.Internal.Correction>
   9.000000E+99

> <Gold.Chemscore.Hbonds>
donor molecule, donor type, donor heavy atom, donor atom, acceptor molecule, acceptor atom, score
      L1  H     8    18       P1  8028  1.00
      P1  H  6896  6909       L1    16  0.54
      P1  H  7997  8008       L1    17  0.06

> <Gold.Chemscore.Hbond.Weighted>
-9.4876

> <Gold.Chemscore.Metal.Weighted>
-0.0000

> <Gold.Chemscore.Lipo.Weighted>
-2.9874

> <Gold.Chemscore.Internal_Hbond.Weighted>
0.0000

> <Gold.Chemscore.DEClash.Weighted>
0.0618

> <Gold.Chemscore.DEInternal.Weighted>
1.7085

> <Gold.Chemscore.Rot.Weighted>
5.8164

> <Gold.Chemscore.Internal.Correction.Weighted>
   9.000000E+99

> <Gold.Protein.RotatedTorsions>
[ 6907 6896 6895 6894 ] final  149.79 input  -60.11 | X-H torsion
[ 7974 7965 7964 7962 ] final   73.28 input  175.53 | X-H torsion
[ 8008 7997 7996 7995 ] final  -80.12 input   59.86 | X-H torsion
[ 10167 10162 10161 10158 ] final  146.30 input  -65.29 | X-H torsion
[ 10718 10713 10712 10709 ] final  100.53 input   66.30 | X-H torsion
[ 10763 10752 10751 10750 ] final -107.47 input  -60.55 | X-H torsion
[ 11005 11000 10999 10996 ] final  174.05 input  -57.11 | X-H torsion

> <Gold.Protein.ActiveResidues>
 VAL166  LYS551  ARG553  GLY616  TRP617  ASP618  TYR619  PRO620  LYS621  CYS622 
 ASP623  PHE694  ASN695  SER759  ASP760  ASP761  ALA762  ILE779  LEU786  VAL792 
 PHE793  MET794  SER795  GLU796  ALA797  LYS798  CYS799  TRP800  GLU811  SER814 

> <Gold.Protein.RotatedAtoms>
  152.1232  133.4365  159.4685 H   0  0  0  0  0  0  0  0  0  0  0  0  # atno 6907 bound_to 6896
  150.6873  134.2510  159.4520 H   0  0  0  0  0  0  0  0  0  0  0  0  # atno 6908 bound_to 6896
  152.0388  134.9723  160.0624 H   0  0  0  0  0  0  0  0  0  0  0  0  # atno 6909 bound_to 6896
  145.7429  139.2728  143.1476 H   0  0  0  0  0  0  0  0  0  0  0  0  # atno 7974 bound_to 7965
  154.5852  140.0668  156.9161 H   0  0  0  0  0  0  0  0  0  0  0  0  # atno 8008 bound_to 7997
  155.2392  140.3343  155.4276 H   0  0  0  0  0  0  0  0  0  0  0  0  # atno 8009 bound_to 7997
  156.2217  140.1802  156.7444 H   0  0  0  0  0  0  0  0  0  0  0  0  # atno 8010 bound_to 7997
  139.4909  144.5839  151.6817 H   0  0  0  0  0  0  0  0  0  0  0  0  # atno 10167 bound_to 10162
  157.6852  131.0701  150.5114 H   0  0  0  0  0  0  0  0  0  0  0  0  # atno 10718 bound_to 10713
  154.8077  135.4673  154.0435 H   0  0  0  0  0  0  0  0  0  0  0  0  # atno 10763 bound_to 10752
  153.1891  135.6852  153.8383 H   0  0  0  0  0  0  0  0  0  0  0  0  # atno 10764 bound_to 10752
  153.7907  135.3243  155.3355 H   0  0  0  0  0  0  0  0  0  0  0  0  # atno 10765 bound_to 10752
  140.3471  134.7226  157.4243 H   0  0  0  0  0  0  0  0  0  0  0  0  # atno 11005 bound_to 11000
  146.0431  140.8145  142.9819 LP  0  0  0  0  0  0  0  0  0  0  0  0  # atno 17320 bound_to 7965
  144.6866  140.2940  143.7273 LP  0  0  0  0  0  0  0  0  0  0  0  0  # atno 17321 bound_to 7965
  140.5451  144.0516  150.6104 LP  0  0  0  0  0  0  0  0  0  0  0  0  # atno 17342 bound_to 10162
  140.3552  143.2940  152.0444 LP  0  0  0  0  0  0  0  0  0  0  0  0  # atno 17343 bound_to 10162
  156.5431  130.4213  149.6144 LP  0  0  0  0  0  0  0  0  0  0  0  0  # atno 17370 bound_to 10713
  156.2967  130.7154  151.2016 LP  0  0  0  0  0  0  0  0  0  0  0  0  # atno 17371 bound_to 10713
  140.0733  134.5832  155.8618 LP  0  0  0  0  0  0  0  0  0  0  0  0  # atno 17394 bound_to 11000
  141.2022  133.6624  156.5995 LP  0  0  0  0  0  0  0  0  0  0  0  0  # atno 17395 bound_to 11000

$$$$
