AV-unprocessed.smi:494|AV-procd|sdf|2713|dock9
  -GOLD-   2262023163D 1   1.00000     0.00000
 Structure written by MMmdl.
 49 50  0  0  0  0  0  0  0  0  2 V2000
  151.1771  136.7911  154.4371 C   0  0  0  0  0  0  0  0  0  0  0  0
  150.7615  135.7743  155.4613 C   0  0  0  0  0  0  0  0  0  0  0  0
  150.8960  136.0566  156.7460 N   0  0  0  0  0  0  0  0  0  0  0  0
  150.4320  134.9331  157.4366 O   0  0  0  0  0  0  0  0  0  0  0  0
  150.0287  134.0079  156.5295 C   0  0  0  0  0  0  0  0  0  0  0  0
  149.5003  132.7228  157.0723 C   0  0  0  0  0  0  0  0  0  0  0  0
  150.2111  134.4759  155.2569 C   0  0  0  0  0  0  0  0  0  0  0  0
  149.9080  133.7896  153.9491 C   0  0  0  0  0  0  0  0  0  0  0  0
  148.4241  133.4272  153.8803 C   0  0  0  0  0  0  0  0  0  0  0  0
  148.0180  132.3911  154.4043 O   0  0  0  0  0  0  0  0  0  0  0  0
  147.6295  134.2846  153.2208 N   0  0  0  0  0  0  0  0  0  0  0  0
  146.1819  134.1661  153.0511 C   0  0  0  0  0  0  0  0  0  0  0  0
  145.6647  134.7606  151.7013 C   0  0  0  0  0  0  0  0  0  0  0  0
  146.1725  136.1801  151.5865 N   0  3  0  0  0  0  0  0  0  0  0  0
  145.9115  137.0763  152.7419 C   0  0  0  0  0  0  0  0  0  0  0  0
  145.8368  136.8762  150.3163 C   0  0  0  0  0  0  0  0  0  0  0  0
  146.1713  133.8929  150.5088 C   0  0  0  0  0  0  0  0  0  0  0  0
  145.5776  132.4704  150.4686 C   0  0  0  0  0  0  0  0  0  0  0  0
  144.0435  132.4877  150.4916 C   0  0  0  0  0  0  0  0  0  0  0  0
  143.5136  133.2916  151.6860 C   0  0  0  0  0  0  0  0  0  0  0  0
  144.0995  134.7149  151.6863 C   0  0  0  0  0  0  0  0  0  0  0  0
  150.3967  137.5380  154.2911 H   0  0  0  0  0  0  0  0  0  0  0  0
  151.3748  136.3247  153.4721 H   0  0  0  0  0  0  0  0  0  0  0  0
  152.0859  137.3119  154.7403 H   0  0  0  0  0  0  0  0  0  0  0  0
  150.2452  131.9322  156.9841 H   0  0  0  0  0  0  0  0  0  0  0  0
  148.6086  132.4101  156.5287 H   0  0  0  0  0  0  0  0  0  0  0  0
  149.2341  132.8207  158.1250 H   0  0  0  0  0  0  0  0  0  0  0  0
  150.1544  134.4251  153.0977 H   0  0  0  0  0  0  0  0  0  0  0  0
  150.5046  132.8843  153.8308 H   0  0  0  0  0  0  0  0  0  0  0  0
  148.0610  135.1096  152.8298 H   0  0  0  0  0  0  0  0  0  0  0  0
  145.8724  133.1288  153.1763 H   0  0  0  0  0  0  0  0  0  0  0  0
  145.7360  134.6756  153.9026 H   0  0  0  0  0  0  0  0  0  0  0  0
  144.8464  137.1346  152.9686 H   0  0  0  0  0  0  0  0  0  0  0  0
  146.2613  138.0878  152.5329 H   0  0  0  0  0  0  0  0  0  0  0  0
  146.4479  136.7512  153.6330 H   0  0  0  0  0  0  0  0  0  0  0  0
  144.7873  137.1712  150.2894 H   0  0  0  0  0  0  0  0  0  0  0  0
  146.0428  136.2709  149.4356 H   0  0  0  0  0  0  0  0  0  0  0  0
  146.4341  137.7830  150.2183 H   0  0  0  0  0  0  0  0  0  0  0  0
  145.9300  134.3891  149.5680 H   0  0  0  0  0  0  0  0  0  0  0  0
  147.2573  133.8004  150.5312 H   0  0  0  0  0  0  0  0  0  0  0  0
  145.9215  131.9579  149.5697 H   0  0  0  0  0  0  0  0  0  0  0  0
  145.9513  131.8805  151.3055 H   0  0  0  0  0  0  0  0  0  0  0  0
  143.6717  132.9255  149.5643 H   0  0  0  0  0  0  0  0  0  0  0  0
  143.6585  131.4680  150.5269 H   0  0  0  0  0  0  0  0  0  0  0  0
  142.4259  133.3458  151.6315 H   0  0  0  0  0  0  0  0  0  0  0  0
  143.7375  132.7761  152.6194 H   0  0  0  0  0  0  0  0  0  0  0  0
  143.6839  135.2829  152.5192 H   0  0  0  0  0  0  0  0  0  0  0  0
  143.7121  135.1834  150.7820 H   0  0  0  0  0  0  0  0  0  0  0  0
  147.1778  136.0821  151.5677 H   0  0  0  0  0  0  0  0  0  0  0  0
  1  2  1  0  0  0  0
  1 22  1  0  0  0  0
  1 23  1  0  0  0  0
  1 24  1  0  0  0  0
  2  7  1  0  0  0  0
  2  3  2  0  0  0  0
  3  4  1  0  0  0  0
  4  5  1  0  0  0  0
  5  6  1  0  0  0  0
  5  7  2  0  0  0  0
  6 25  1  0  0  0  0
  6 26  1  0  0  0  0
  6 27  1  0  0  0  0
  7  8  1  0  0  0  0
  8  9  1  0  0  0  0
  8 28  1  0  0  0  0
  8 29  1  0  0  0  0
  9 10  2  0  0  0  0
  9 11  1  0  0  0  0
 11 12  1  0  0  0  0
 11 30  1  0  0  0  0
 12 13  1  0  0  0  0
 12 31  1  0  0  0  0
 12 32  1  0  0  0  0
 13 21  1  0  0  0  0
 13 14  1  0  0  0  0
 13 17  1  0  0  0  0
 14 15  1  0  0  0  0
 14 16  1  0  0  0  0
 14 49  1  0  0  0  0
 15 33  1  0  0  0  0
 15 34  1  0  0  0  0
 15 35  1  0  0  0  0
 16 36  1  0  0  0  0
 16 37  1  0  0  0  0
 16 38  1  0  0  0  0
 17 18  1  0  0  0  0
 17 39  1  0  0  0  0
 17 40  1  0  0  0  0
 18 19  1  0  0  0  0
 18 41  1  0  0  0  0
 18 42  1  0  0  0  0
 19 20  1  0  0  0  0
 19 43  1  0  0  0  0
 19 44  1  0  0  0  0
 20 21  1  0  0  0  0
 20 45  1  0  0  0  0
 20 46  1  0  0  0  0
 21 47  1  0  0  0  0
 21 48  1  0  0  0  0
M  CHG  1  14   1
M  END
> <s_m_source_file>
AV-unprocessed.smi

> <i_m_source_file_index>
494

> <i_lp_mmshare_version>
43012

> <i_f3d_flags>
0

> <s_epik_input>
W0NIM11jMW5vYyhbQ0gzXSljMVtDSDJdQyg9TylbTkhdW0NIMl1DMihOKFtDSDNdKVtDSDNdKVtDSDJdW0NIMl1bQ0gyXVtDSDJdW0NIMl0y

> <s_epik_cmdline>
J2VwaWtfcHl0aG9uJywgJy1waCcsICc3LjAnLCAnLXRuJywgJzgnLCAnLW1hJywgJzIwMCcsICctbWV0YWxfYmluZGluZycsICctaW1hZScsICc8aW5maWxlLm1hZT4nLCAnLW9tYWUnLCAnPG91dGZpbGUubWFlPic=

> <r_epik_Ionization_Penalty>
0.00230711

> <r_epik_Ionization_Penalty_Charging>
0.00230702

> <r_epik_Ionization_Penalty_Neutral>
8.72116e-08

> <r_epik_State_Penalty>
0.00159123

> <r_epik_Charging_Adjusted_Penalty>
0.00389825

> <i_epik_Tot_Q>
1

> <i_epik_Tot_abs_Q>
1

> <r_epik_Metal_State_Penalty>
-0

> <b_epik_Metal_Only>
0

> <s_lp_Force_Field>
OPLS_2005

> <r_lp_Energy>
28.1912

> <b_lp_Chiralities_Consistent>
1

> <s_lp_Variant>
AV-unprocessed.smi:494-1

> <Gold.Version>
5.8.1

> <Gold.Id.Protein>
6NUR|6NUR_protein|mol2

> <Gold.PLP.Fitness>
42.3803

> <Gold.PLP.PLP>
-32.0746

> <Gold.PLP.part.hbond>
-3.0000

> <Gold.PLP.part.metal>
0.0000

> <Gold.PLP.part.buried>
-1.3270

> <Gold.PLP.part.nonpolar>
-27.1748

> <Gold.PLP.part.repulsive>
0.0917

> <Gold.PLP.ligand.clash>
0.0000

> <Gold.PLP.ligand.torsion>
0.6101

> <Gold.PLP.Chemscore.Hbond>
3.8000

> <Gold.PLP.Chemscore.CHOScore>
0.0000

> <Gold.PLP.Chemscore.Metal>
0.0000

> <Gold.Chemscore.Hbonds>
donor molecule, donor type, donor heavy atom, donor atom, acceptor molecule, acceptor atom, score
      L1  H    11    30       P1  7948  1.00
      L1  H    14    49       P1  7948  2.00
      P1  H  6896  6908       L1     4  0.51

> <Gold.PLP.Chemscore.Internal.Correction>
0.1258

> <Gold.Rescore>
     Score         DG    S(hbond)    S(metal)    S(lipo)     H(rot)  DE(clash)    DE(int)     intcor
     18.04     -20.10       2.74        0.00      83.38       1.68       1.42       0.63       ----

> <Gold.Chemscore.Fitness>
18.0435

> <Gold.Chemscore.DG>
-20.0995

> <Gold.Chemscore.ZeroCoef>
-5.4800

> <Gold.Chemscore.Hbond>
2.7401

> <Gold.Chemscore.Metal>
0.0000

> <Gold.Chemscore.Lipo>
83.3836

> <Gold.Chemscore.Internal_Hbond>
0.0000

> <Gold.Chemscore.DEClash>
1.4216

> <Gold.Chemscore.DEInternal>
0.6344

> <Gold.Chemscore.Rot>
1.6752

> <Gold.Chemscore.Internal.Correction>
   9.000000E+99

> <Gold.Chemscore.Hbonds>
donor molecule, donor type, donor heavy atom, donor atom, acceptor molecule, acceptor atom, score
      L1  H    11    30       P1  7948  0.97
      L1  H    14    49       P1  7948  1.00
      P1  H  6896  6908       L1     4  0.46

> <Gold.Chemscore.Hbond.Weighted>
-9.1520

> <Gold.Chemscore.Metal.Weighted>
-0.0000

> <Gold.Chemscore.Lipo.Weighted>
-9.7559

> <Gold.Chemscore.Internal_Hbond.Weighted>
0.0000

> <Gold.Chemscore.DEClash.Weighted>
1.4216

> <Gold.Chemscore.DEInternal.Weighted>
0.6344

> <Gold.Chemscore.Rot.Weighted>
4.2884

> <Gold.Chemscore.Internal.Correction.Weighted>
   9.000000E+99

> <Gold.Protein.RotatedTorsions>
[ 6907 6896 6895 6894 ] final  154.55 input  -60.11 | X-H torsion
[ 7974 7965 7964 7962 ] final -166.64 input  175.53 | X-H torsion
[ 8008 7997 7996 7995 ] final   75.03 input   59.86 | X-H torsion
[ 10167 10162 10161 10158 ] final  135.18 input  -65.29 | X-H torsion
[ 10718 10713 10712 10709 ] final  -50.17 input   66.30 | X-H torsion
[ 10763 10752 10751 10750 ] final -144.13 input  -60.55 | X-H torsion
[ 11005 11000 10999 10996 ] final  -92.71 input  -57.11 | X-H torsion

> <Gold.Protein.ActiveResidues>
 VAL166  LYS551  ARG553  GLY616  TRP617  ASP618  TYR619  PRO620  LYS621  CYS622 
 ASP623  PHE694  ASN695  SER759  ASP760  ASP761  ALA762  ILE779  LEU786  VAL792 
 PHE793  MET794  SER795  GLU796  ALA797  LYS798  CYS799  TRP800  GLU811  SER814 

> <Gold.Protein.RotatedAtoms>
  152.0568  133.4044  159.4400 H   0  0  0  0  0  0  0  0  0  0  0  0  # atno 6907 bound_to 6896
  150.6868  134.3245  159.4810 H   0  0  0  0  0  0  0  0  0  0  0  0  # atno 6908 bound_to 6896
  152.1062  134.9307  160.0619 H   0  0  0  0  0  0  0  0  0  0  0  0  # atno 6909 bound_to 6896
  144.7240  140.2636  143.6261 H   0  0  0  0  0  0  0  0  0  0  0  0  # atno 7974 bound_to 7965
  155.8070  140.3474  155.5435 H   0  0  0  0  0  0  0  0  0  0  0  0  # atno 8008 bound_to 7997
  155.8480  140.0952  157.1713 H   0  0  0  0  0  0  0  0  0  0  0  0  # atno 8009 bound_to 7997
  154.4007  140.1382  156.3797 H   0  0  0  0  0  0  0  0  0  0  0  0  # atno 8010 bound_to 7997
  139.5227  144.6530  151.5246 H   0  0  0  0  0  0  0  0  0  0  0  0  # atno 10167 bound_to 10162
  156.1825  130.4151  149.9486 H   0  0  0  0  0  0  0  0  0  0  0  0  # atno 10718 bound_to 10713
  154.8441  135.3449  154.6297 H   0  0  0  0  0  0  0  0  0  0  0  0  # atno 10763 bound_to 10752
  153.6907  135.6975  153.5095 H   0  0  0  0  0  0  0  0  0  0  0  0  # atno 10764 bound_to 10752
  153.2597  135.4326  155.0837 H   0  0  0  0  0  0  0  0  0  0  0  0  # atno 10765 bound_to 10752
  141.1515  133.7839  157.0058 H   0  0  0  0  0  0  0  0  0  0  0  0  # atno 11005 bound_to 11000
  145.8112  139.2004  143.1992 LP  0  0  0  0  0  0  0  0  0  0  0  0  # atno 17320 bound_to 7965
  146.0594  140.7986  142.9742 LP  0  0  0  0  0  0  0  0  0  0  0  0  # atno 17321 bound_to 7965
  140.6343  143.9015  150.6633 LP  0  0  0  0  0  0  0  0  0  0  0  0  # atno 17342 bound_to 10162
  140.2329  143.3722  152.1551 LP  0  0  0  0  0  0  0  0  0  0  0  0  # atno 17343 bound_to 10162
  156.7252  130.9022  151.3621 LP  0  0  0  0  0  0  0  0  0  0  0  0  # atno 17370 bound_to 10713
  157.6878  130.9202  150.0431 LP  0  0  0  0  0  0  0  0  0  0  0  0  # atno 17371 bound_to 10713
  140.0910  134.9592  157.1776 LP  0  0  0  0  0  0  0  0  0  0  0  0  # atno 17394 bound_to 11000
  140.3446  134.2666  155.7207 LP  0  0  0  0  0  0  0  0  0  0  0  0  # atno 17395 bound_to 11000

$$$$
