AV-unprocessed.smi:1701|AV-procd|sdf|6829|dock10
  -GOLD-   22720 8 03D 1   1.00000     0.00000
 Structure written by MMmdl.
 54 56  0  0  0  0  0  0  0  0  2 V2000
  154.3890  140.3412  159.5852 C   0  0  0  0  0  0  0  0  0  0  0  0
  153.0135  139.6855  159.3996 C   0  0  0  0  0  0  0  0  0  0  0  0
  152.2924  140.1849  158.2286 N   0  0  0  0  0  0  0  0  0  0  0  0
  152.2953  141.6230  157.9493 C   0  0  0  0  0  0  0  0  0  0  0  0
  151.7834  142.4654  159.1280 C   0  0  0  0  0  0  0  0  0  0  0  0
  151.7298  139.2842  157.2904 C   0  0  0  0  0  0  0  0  0  0  0  0
  151.4031  139.6866  155.9708 C   0  0  0  0  0  0  0  0  0  0  0  0
  150.8491  138.7502  155.0771 C   0  0  0  0  0  0  0  0  0  0  0  0
  150.6273  137.4268  155.5200 C   0  0  0  0  0  0  0  0  0  0  0  0
  150.1034  136.3911  154.7014 N   0  0  0  0  0  0  0  0  0  0  0  0
  149.8596  135.1086  155.0348 C   0  0  0  0  0  0  0  0  0  0  0  0
  150.1672  134.5961  156.1085 O   0  0  0  0  0  0  0  0  0  0  0  0
  149.2742  134.3860  154.0634 N   0  0  0  0  0  0  0  0  0  0  0  0
  148.8793  132.9772  154.1004 C   0  0  2  0  0  0  0  0  0  0  0  0
  150.0056  132.0181  154.5243 C   0  0  0  0  0  0  0  0  0  0  0  0
  149.8571  130.7803  153.6179 C   0  0  0  0  0  0  0  0  0  0  0  0
  148.6360  130.9912  152.8077 N   0  3  1  0  0  0  0  0  0  0  0  0
  147.4528  130.2976  153.3869 C   0  0  0  0  0  0  0  0  0  0  0  0
  146.1476  130.7029  152.6902 C   0  0  0  0  0  0  0  0  0  0  0  0
  145.9483  132.2176  152.7818 C   0  0  0  0  0  0  0  0  0  0  0  0
  147.1438  132.9298  152.1395 C   0  0  0  0  0  0  0  0  0  0  0  0
  148.5044  132.4647  152.7055 C   0  0  1  0  0  0  0  0  0  0  0  0
  150.9955  137.1129  156.8420 C   0  0  0  0  0  0  0  0  0  0  0  0
  151.5223  138.0088  157.7020 N   0  0  0  0  0  0  0  0  0  0  0  0
  154.9117  139.9001  160.4340 H   0  0  0  0  0  0  0  0  0  0  0  0
  154.2979  141.4091  159.7795 H   0  0  0  0  0  0  0  0  0  0  0  0
  155.0190  140.2114  158.7053 H   0  0  0  0  0  0  0  0  0  0  0  0
  153.1090  138.6010  159.3538 H   0  0  0  0  0  0  0  0  0  0  0  0
  152.4087  139.8767  160.2865 H   0  0  0  0  0  0  0  0  0  0  0  0
  153.2951  141.9478  157.6604 H   0  0  0  0  0  0  0  0  0  0  0  0
  151.6657  141.8153  157.0801 H   0  0  0  0  0  0  0  0  0  0  0  0
  151.7942  143.5253  158.8738 H   0  0  0  0  0  0  0  0  0  0  0  0
  152.4052  142.3344  160.0137 H   0  0  0  0  0  0  0  0  0  0  0  0
  150.7609  142.2038  159.3969 H   0  0  0  0  0  0  0  0  0  0  0  0
  151.5594  140.6955  155.6219 H   0  0  0  0  0  0  0  0  0  0  0  0
  150.6211  139.0612  154.0693 H   0  0  0  0  0  0  0  0  0  0  0  0
  149.9164  136.6478  153.7433 H   0  0  0  0  0  0  0  0  0  0  0  0
  149.1306  134.8594  153.1828 H   0  0  0  0  0  0  0  0  0  0  0  0
  148.0259  132.8524  154.7688 H   0  0  0  0  0  0  0  0  0  0  0  0
  150.9902  132.4661  154.3810 H   0  0  0  0  0  0  0  0  0  0  0  0
  149.9167  131.7566  155.5794 H   0  0  0  0  0  0  0  0  0  0  0  0
  150.7101  130.7196  152.9411 H   0  0  0  0  0  0  0  0  0  0  0  0
  149.8291  129.8483  154.1845 H   0  0  0  0  0  0  0  0  0  0  0  0
  147.5976  129.2200  153.3026 H   0  0  0  0  0  0  0  0  0  0  0  0
  147.3767  130.5187  154.4529 H   0  0  0  0  0  0  0  0  0  0  0  0
  146.1689  130.3902  151.6453 H   0  0  0  0  0  0  0  0  0  0  0  0
  145.3046  130.1884  153.1524 H   0  0  0  0  0  0  0  0  0  0  0  0
  145.0256  132.5070  152.2781 H   0  0  0  0  0  0  0  0  0  0  0  0
  145.8423  132.5204  153.8240 H   0  0  0  0  0  0  0  0  0  0  0  0
  147.1267  132.7317  151.0668 H   0  0  0  0  0  0  0  0  0  0  0  0
  147.0395  134.0100  152.2457 H   0  0  0  0  0  0  0  0  0  0  0  0
  149.2782  132.7962  152.0096 H   0  0  0  0  0  0  0  0  0  0  0  0
  150.8610  136.1120  157.2259 H   0  0  0  0  0  0  0  0  0  0  0  0
  148.7792  130.6140  151.8815 H   0  0  0  0  0  0  0  0  0  0  0  0
  1  2  1  0  0  0  0
  1 25  1  0  0  0  0
  1 26  1  0  0  0  0
  1 27  1  0  0  0  0
  2  3  1  0  0  0  0
  2 28  1  0  0  0  0
  2 29  1  0  0  0  0
  3  4  1  0  0  0  0
  3  6  1  0  0  0  0
  4  5  1  0  0  0  0
  4 30  1  0  0  0  0
  4 31  1  0  0  0  0
  5 32  1  0  0  0  0
  5 33  1  0  0  0  0
  5 34  1  0  0  0  0
  6 24  1  0  0  0  0
  6  7  2  0  0  0  0
  7  8  1  0  0  0  0
  7 35  1  0  0  0  0
  8  9  2  0  0  0  0
  8 36  1  0  0  0  0
  9 10  1  0  0  0  0
  9 23  1  0  0  0  0
 10 11  1  0  0  0  0
 10 37  1  0  0  0  0
 11 12  2  0  0  0  0
 11 13  1  0  0  0  0
 13 14  1  0  0  0  0
 13 38  1  0  0  0  0
 14 22  1  0  0  0  0
 14 15  1  0  0  0  0
 14 39  1  0  0  0  0
 15 16  1  0  0  0  0
 15 40  1  0  0  0  0
 15 41  1  0  0  0  0
 16 17  1  0  0  0  0
 16 42  1  0  0  0  0
 16 43  1  0  0  0  0
 17 22  1  0  0  0  0
 17 18  1  0  0  0  0
 17 54  1  0  0  0  0
 18 19  1  0  0  0  0
 18 44  1  0  0  0  0
 18 45  1  0  0  0  0
 19 20  1  0  0  0  0
 19 46  1  0  0  0  0
 19 47  1  0  0  0  0
 20 21  1  0  0  0  0
 20 48  1  0  0  0  0
 20 49  1  0  0  0  0
 21 22  1  0  0  0  0
 21 50  1  0  0  0  0
 21 51  1  0  0  0  0
 22 52  1  0  0  0  0
 23 24  2  0  0  0  0
 23 53  1  0  0  0  0
M  CHG  1  17   1
M  END
> <s_m_source_file>
AV-unprocessed.smi

> <i_m_source_file_index>
1701

> <i_lp_mmshare_version>
43012

> <i_f3d_flags>
0

> <s_epik_input>
W0NIM11bQ0gyXU4oW0NIMl1bQ0gzXSljMVtjSF1bY0hdYyhbY0hdbjEpW05IXUMoPU8pW05IXVtDQEhdKFtDSDJdW0NIMl0yKVtDQEBIXShOMjMpW0NIMl1bQ0gyXVtDSDJdW0NIMl0z

> <s_epik_cmdline>
J2VwaWtfcHl0aG9uJywgJy1waCcsICc3LjAnLCAnLXRuJywgJzgnLCAnLW1hJywgJzIwMCcsICctbWV0YWxfYmluZGluZycsICctaW1hZScsICc8aW5maWxlLm1hZT4nLCAnLW9tYWUnLCAnPG91dGZpbGUubWFlPic=

> <r_lp_tautomer_probability>
1

> <r_epik_Ionization_Penalty>
0.56662

> <r_epik_Ionization_Penalty_Charging>
0.000974069

> <r_epik_Ionization_Penalty_Neutral>
0.565646

> <r_epik_State_Penalty>
2.0247

> <r_epik_Charging_Adjusted_Penalty>
2.02568

> <i_epik_Tot_Q>
1

> <i_epik_Tot_abs_Q>
1

> <r_epik_Metal_State_Penalty>
1.51504

> <b_epik_Metal_Only>
0

> <s_lp_Force_Field>
OPLS_2005

> <r_lp_Energy>
57.8718

> <b_lp_Chiralities_Consistent>
1

> <s_lp_Variant>
AV-unprocessed.smi:1701-9

> <Gold.Version>
5.8.1

> <Gold.Id.Protein>
6NUR|6NUR_protein|mol2

> <Gold.PLP.Fitness>
48.6878

> <Gold.PLP.PLP>
-40.8241

> <Gold.PLP.part.hbond>
-3.0000

> <Gold.PLP.part.metal>
0.0000

> <Gold.PLP.part.buried>
-4.5079

> <Gold.PLP.part.nonpolar>
-32.4471

> <Gold.PLP.part.repulsive>
0.0657

> <Gold.PLP.ligand.clash>
0.0275

> <Gold.PLP.ligand.torsion>
0.4359

> <Gold.PLP.Chemscore.Hbond>
2.8880

> <Gold.PLP.Chemscore.CHOScore>
0.0000

> <Gold.PLP.Chemscore.Metal>
0.0000

> <Gold.Chemscore.Hbonds>
donor molecule, donor type, donor heavy atom, donor atom, acceptor molecule, acceptor atom, score
      L1  H    10    37       P1  7948  0.78
      L1  H    13    38       P1  7948  0.65
      L1  H    17    54       P1 10747  1.00

> <Gold.PLP.Chemscore.Internal.Correction>
0.0989

> <Gold.Rescore>
     Score         DG    S(hbond)    S(metal)    S(lipo)     H(rot)  DE(clash)    DE(int)     intcor
     19.89     -21.89       2.59        0.00      94.47       1.28       0.01       1.99       ----

> <Gold.Chemscore.Fitness>
19.8879

> <Gold.Chemscore.DG>
-21.8917

> <Gold.Chemscore.ZeroCoef>
-5.4800

> <Gold.Chemscore.Hbond>
2.5885

> <Gold.Chemscore.Metal>
0.0000

> <Gold.Chemscore.Lipo>
94.4665

> <Gold.Chemscore.Internal_Hbond>
0.0000

> <Gold.Chemscore.DEClash>
0.0115

> <Gold.Chemscore.DEInternal>
1.9923

> <Gold.Chemscore.Rot>
1.2838

> <Gold.Chemscore.Internal.Correction>
   9.000000E+99

> <Gold.Chemscore.Hbonds>
donor molecule, donor type, donor heavy atom, donor atom, acceptor molecule, acceptor atom, score
      L1  H    10    37       P1  7948  0.26
      L1  H    13    38       P1  7948  0.06
      L1  H    17    54       P1 10747  0.57

> <Gold.Chemscore.Hbond.Weighted>
-8.6457

> <Gold.Chemscore.Metal.Weighted>
-0.0000

> <Gold.Chemscore.Lipo.Weighted>
-11.0526

> <Gold.Chemscore.Internal_Hbond.Weighted>
0.0000

> <Gold.Chemscore.DEClash.Weighted>
0.0115

> <Gold.Chemscore.DEInternal.Weighted>
1.9923

> <Gold.Chemscore.Rot.Weighted>
3.2865

> <Gold.Chemscore.Internal.Correction.Weighted>
   9.000000E+99

> <Gold.Protein.RotatedTorsions>
[ 6907 6896 6895 6894 ] final   76.25 input  -60.11 | X-H torsion
[ 7974 7965 7964 7962 ] final  146.84 input  175.53 | X-H torsion
[ 8008 7997 7996 7995 ] final   69.99 input   59.86 | X-H torsion
[ 10167 10162 10161 10158 ] final -130.02 input  -65.29 | X-H torsion
[ 10718 10713 10712 10709 ] final -116.74 input   66.30 | X-H torsion
[ 10763 10752 10751 10750 ] final -107.11 input  -60.55 | X-H torsion
[ 11005 11000 10999 10996 ] final  -56.70 input  -57.11 | X-H torsion

> <Gold.Protein.ActiveResidues>
 VAL166  LYS551  ARG553  GLY616  TRP617  ASP618  TYR619  PRO620  LYS621  CYS622 
 ASP623  PHE694  ASN695  SER759  ASP760  ASP761  ALA762  ILE779  LEU786  VAL792 
 PHE793  MET794  SER795  GLU796  ALA797  LYS798  CYS799  TRP800  GLU811  SER814 

> <Gold.Protein.RotatedAtoms>
  152.5064  134.3997  159.9411 H   0  0  0  0  0  0  0  0  0  0  0  0  # atno 6907 bound_to 6896
  151.3960  133.3767  159.2734 H   0  0  0  0  0  0  0  0  0  0  0  0  # atno 6908 bound_to 6896
  150.9397  134.8828  159.7663 H   0  0  0  0  0  0  0  0  0  0  0  0  # atno 6909 bound_to 6896
  144.8639  139.5955  143.5918 H   0  0  0  0  0  0  0  0  0  0  0  0  # atno 7974 bound_to 7965
  155.7321  140.3491  155.5064 H   0  0  0  0  0  0  0  0  0  0  0  0  # atno 8008 bound_to 7997
  155.9173  140.1061  157.1255 H   0  0  0  0  0  0  0  0  0  0  0  0  # atno 8009 bound_to 7997
  154.4064  140.1256  156.4621 H   0  0  0  0  0  0  0  0  0  0  0  0  # atno 8010 bound_to 7997
  139.9337  143.6242  152.2523 H   0  0  0  0  0  0  0  0  0  0  0  0  # atno 10167 bound_to 10162
  156.0985  130.6152  150.9075 H   0  0  0  0  0  0  0  0  0  0  0  0  # atno 10718 bound_to 10713
  154.8055  135.4687  154.0381 H   0  0  0  0  0  0  0  0  0  0  0  0  # atno 10763 bound_to 10752
  153.1853  135.6847  153.8430 H   0  0  0  0  0  0  0  0  0  0  0  0  # atno 10764 bound_to 10752
  153.7966  135.3236  155.3362 H   0  0  0  0  0  0  0  0  0  0  0  0  # atno 10765 bound_to 10752
  141.1132  133.6610  156.4658 H   0  0  0  0  0  0  0  0  0  0  0  0  # atno 11005 bound_to 11000
  146.2881  139.7061  142.9181 LP  0  0  0  0  0  0  0  0  0  0  0  0  # atno 17320 bound_to 7965
  145.4260  141.0411  143.2937 LP  0  0  0  0  0  0  0  0  0  0  0  0  # atno 17321 bound_to 7965
  139.6761  144.7658  151.1694 LP  0  0  0  0  0  0  0  0  0  0  0  0  # atno 17342 bound_to 10162
  140.7630  143.5793  150.8912 LP  0  0  0  0  0  0  0  0  0  0  0  0  # atno 17343 bound_to 10162
  157.6150  131.0934  150.8726 LP  0  0  0  0  0  0  0  0  0  0  0  0  # atno 17370 bound_to 10713
  156.8859  130.5195  149.5288 LP  0  0  0  0  0  0  0  0  0  0  0  0  # atno 17371 bound_to 10713
  140.4719  134.6745  157.5133 LP  0  0  0  0  0  0  0  0  0  0  0  0  # atno 17394 bound_to 11000
  140.0037  134.6796  155.9489 LP  0  0  0  0  0  0  0  0  0  0  0  0  # atno 17395 bound_to 11000

$$$$
