AV-unprocessed.smi:234|AV-procd|sdf|1798|dock6
  -GOLD-   2262020363D 1   1.00000     0.00000
 Structure written by MMmdl.
 59 62  0  0  0  0  0  0  0  0  1 V2000
  146.3609  130.2082  152.5717 C   0  0  0  0  0  0  0  0  0  0  0  0
  145.2925  130.3250  151.4768 C   0  0  0  0  0  0  0  0  0  0  0  0
  144.5135  131.5075  151.6004 O   0  0  0  0  0  0  0  0  0  0  0  0
  145.1842  132.7088  151.2410 C   0  0  1  0  0  0  0  0  0  0  0  0
  144.3334  133.9775  151.3120 C   0  0  0  0  0  0  0  0  0  0  0  0
  145.5900  134.6621  151.8670 C   0  0  1  0  0  0  0  0  0  0  0  0
  145.3183  135.6624  152.9056 N   0  0  0  0  0  0  0  0  0  0  0  0
  144.0630  135.5605  153.6427 C   0  0  0  0  0  0  0  0  0  0  0  0
  146.3454  136.0424  153.7059 C   0  0  0  0  0  0  0  0  0  0  0  0
  147.1811  135.1100  154.2369 N   0  0  0  0  0  0  0  0  0  0  0  0
  148.1841  135.4841  155.0366 C   0  0  0  0  0  0  0  0  0  0  0  0
  148.5247  136.7132  155.4290 N   0  0  0  0  0  0  0  0  0  0  0  0
  147.6871  137.6516  154.9013 C   0  0  0  0  0  0  0  0  0  0  0  0
  146.5784  137.4036  154.0444 C   0  0  0  0  0  0  0  0  0  0  0  0
  145.9569  138.6010  153.7124 N   0  0  0  0  0  0  0  0  0  0  0  0
  146.6608  139.5065  154.3354 C   0  0  0  0  0  0  0  0  0  0  0  0
  147.7247  139.0253  155.0654 N   0  0  0  0  0  0  0  0  0  0  0  0
  148.6730  139.8089  155.8428 C   0  0  0  0  0  0  0  0  0  0  0  0
  150.0801  139.8919  155.1942 C   0  0  2  0  0  0  0  0  0  0  0  0
  149.9483  140.5824  153.9622 O   0  0  0  0  0  0  0  0  0  0  0  0
  150.7058  138.5315  154.9033 C   0  0  0  0  0  0  0  0  0  0  0  0
  152.1966  138.8305  154.9357 C   0  0  0  0  0  0  0  0  0  0  0  0
  152.3067  139.7356  156.0205 O   0  0  0  0  0  0  0  0  0  0  0  0
  151.1826  140.6136  156.0195 C   0  0  2  0  0  0  0  0  0  0  0  0
  150.8496  140.9267  157.4867 C   0  0  0  0  0  0  0  0  0  0  0  0
  146.0493  133.2737  152.3963 C   0  0  0  0  0  0  0  0  0  0  0  0
  145.6037  132.8743  153.8150 C   0  0  0  0  0  0  0  0  0  0  0  0
  147.5433  132.9647  152.2904 C   0  0  0  0  0  0  0  0  0  0  0  0
  147.0233  129.3655  152.3735 H   0  0  0  0  0  0  0  0  0  0  0  0
  145.9189  130.0469  153.5537 H   0  0  0  0  0  0  0  0  0  0  0  0
  146.9732  131.1090  152.6185 H   0  0  0  0  0  0  0  0  0  0  0  0
  145.7923  130.3702  150.5091 H   0  0  0  0  0  0  0  0  0  0  0  0
  144.6566  129.4392  151.4521 H   0  0  0  0  0  0  0  0  0  0  0  0
  145.7510  132.6303  150.3101 H   0  0  0  0  0  0  0  0  0  0  0  0
  144.0020  134.3594  150.3465 H   0  0  0  0  0  0  0  0  0  0  0  0
  143.5106  133.9071  152.0256 H   0  0  0  0  0  0  0  0  0  0  0  0
  146.2353  135.0283  151.0659 H   0  0  0  0  0  0  0  0  0  0  0  0
  144.2286  135.3094  154.6918 H   0  0  0  0  0  0  0  0  0  0  0  0
  143.4184  134.7900  153.2223 H   0  0  0  0  0  0  0  0  0  0  0  0
  143.5254  136.5079  153.5997 H   0  0  0  0  0  0  0  0  0  0  0  0
  148.8018  134.6838  155.4169 H   0  0  0  0  0  0  0  0  0  0  0  0
  146.4272  140.5596  154.2727 H   0  0  0  0  0  0  0  0  0  0  0  0
  148.2574  140.8083  155.9780 H   0  0  0  0  0  0  0  0  0  0  0  0
  148.7330  139.3624  156.8354 H   0  0  0  0  0  0  0  0  0  0  0  0
  149.6369  139.9732  153.3104 H   0  0  0  0  0  0  0  0  0  0  0  0
  150.4728  137.8321  155.7069 H   0  0  0  0  0  0  0  0  0  0  0  0
  150.3754  138.0833  153.9651 H   0  0  0  0  0  0  0  0  0  0  0  0
  152.8037  137.9388  155.0919 H   0  0  0  0  0  0  0  0  0  0  0  0
  152.5219  139.3159  154.0144 H   0  0  0  0  0  0  0  0  0  0  0  0
  151.4815  141.5421  155.5295 H   0  0  0  0  0  0  0  0  0  0  0  0
  150.0033  141.6092  157.5668 H   0  0  0  0  0  0  0  0  0  0  0  0
  151.6978  141.4015  157.9800 H   0  0  0  0  0  0  0  0  0  0  0  0
  150.6133  140.0205  158.0449 H   0  0  0  0  0  0  0  0  0  0  0  0
  146.1609  133.4142  154.5807 H   0  0  0  0  0  0  0  0  0  0  0  0
  145.7590  131.8104  153.9958 H   0  0  0  0  0  0  0  0  0  0  0  0
  144.5461  133.0758  153.9866 H   0  0  0  0  0  0  0  0  0  0  0  0
  148.1177  133.4563  153.0754 H   0  0  0  0  0  0  0  0  0  0  0  0
  147.9535  133.2938  151.3352 H   0  0  0  0  0  0  0  0  0  0  0  0
  147.7317  131.8936  152.3697 H   0  0  0  0  0  0  0  0  0  0  0  0
  1  2  1  0  0  0  0
  1 29  1  0  0  0  0
  1 30  1  0  0  0  0
  1 31  1  0  0  0  0
  2  3  1  0  0  0  0
  2 32  1  0  0  0  0
  2 33  1  0  0  0  0
  3  4  1  0  0  0  0
  4 26  1  0  0  0  0
  4  5  1  0  0  0  0
  4 34  1  0  0  0  0
  5  6  1  0  0  0  0
  5 35  1  0  0  0  0
  5 36  1  0  0  0  0
  6  7  1  0  0  0  0
  6 26  1  0  0  0  0
  6 37  1  0  0  0  0
  7  8  1  0  0  0  0
  7  9  1  0  0  0  0
  8 38  1  0  0  0  0
  8 39  1  0  0  0  0
  8 40  1  0  0  0  0
  9 14  1  0  0  0  0
  9 10  2  0  0  0  0
 10 11  1  0  0  0  0
 11 12  2  0  0  0  0
 11 41  1  0  0  0  0
 12 13  1  0  0  0  0
 13 17  1  0  0  0  0
 13 14  2  0  0  0  0
 14 15  1  0  0  0  0
 15 16  2  0  0  0  0
 16 17  1  0  0  0  0
 16 42  1  0  0  0  0
 17 18  1  0  0  0  0
 18 19  1  0  0  0  0
 18 43  1  0  0  0  0
 18 44  1  0  0  0  0
 19 24  1  0  0  0  0
 19 20  1  0  0  0  0
 19 21  1  0  0  0  0
 20 45  1  0  0  0  0
 21 22  1  0  0  0  0
 21 46  1  0  0  0  0
 21 47  1  0  0  0  0
 22 23  1  0  0  0  0
 22 48  1  0  0  0  0
 22 49  1  0  0  0  0
 23 24  1  0  0  0  0
 24 25  1  0  0  0  0
 24 50  1  0  0  0  0
 25 51  1  0  0  0  0
 25 52  1  0  0  0  0
 25 53  1  0  0  0  0
 26 27  1  0  0  0  0
 26 28  1  0  0  0  0
 27 54  1  0  0  0  0
 27 55  1  0  0  0  0
 27 56  1  0  0  0  0
 28 57  1  0  0  0  0
 28 58  1  0  0  0  0
 28 59  1  0  0  0  0
M  END
> <s_m_source_file>
AV-unprocessed.smi

> <i_m_source_file_index>
234

> <i_lp_mmshare_version>
43012

> <i_f3d_flags>
0

> <s_epik_input>
W0NIM11bQ0gyXU9bQ0BASF0oQzEoW0NIM10pW0NIM10pW0NIMl1bQ0BIXTFOKFtDSDNdKWMobltjSF1uMiljKGMyMyluW2NIXW4zW0NIMl1bQ0BAXTQoW09IXSlbQ0gyXVtDSDJdT1tDQEhdNFtDSDNd

> <s_epik_cmdline>
J2VwaWtfcHl0aG9uJywgJy1waCcsICc3LjAnLCAnLXRuJywgJzgnLCAnLW1hJywgJzIwMCcsICctbWV0YWxfYmluZGluZycsICctaW1hZScsICc8aW5maWxlLm1hZT4nLCAnLW9tYWUnLCAnPG91dGZpbGUubWFlPic=

> <r_lp_tautomer_probability>
1

> <r_epik_Ionization_Penalty>
0.00349132

> <r_epik_Ionization_Penalty_Charging>
0

> <r_epik_Ionization_Penalty_Neutral>
0.00349132

> <r_epik_State_Penalty>
0.00242418

> <r_epik_Charging_Adjusted_Penalty>
0.00242418

> <i_epik_Tot_Q>
0

> <i_epik_Tot_abs_Q>
0

> <r_epik_Metal_State_Penalty>
-0

> <b_epik_Metal_Only>
0

> <s_lp_Force_Field>
OPLS_2005

> <r_lp_Energy>
48.9285

> <b_lp_Chiralities_Consistent>
1

> <s_lp_Variant>
AV-unprocessed.smi:234-14

> <Gold.Version>
5.8.1

> <Gold.Id.Protein>
6NUR|6NUR_protein|mol2

> <Gold.PLP.Fitness>
41.3277

> <Gold.PLP.PLP>
-35.3228

> <Gold.PLP.part.hbond>
-2.9261

> <Gold.PLP.part.metal>
0.0000

> <Gold.PLP.part.buried>
-1.7530

> <Gold.PLP.part.nonpolar>
-29.9432

> <Gold.PLP.part.repulsive>
1.7396

> <Gold.PLP.ligand.clash>
0.0000

> <Gold.PLP.ligand.torsion>
1.2454

> <Gold.PLP.Chemscore.Hbond>
2.4909

> <Gold.PLP.Chemscore.CHOScore>
0.0000

> <Gold.PLP.Chemscore.Metal>
0.0000

> <Gold.Chemscore.Hbonds>
donor molecule, donor type, donor heavy atom, donor atom, acceptor molecule, acceptor atom, score
      L1  H    20    45       P1  7957  0.45
      P1  H  7989  7998       L1    20  0.66
      P1  H  7997  8010       L1    23  0.83

> <Gold.PLP.Chemscore.Internal.Correction>
1.0231

> <Gold.Rescore>
     Score         DG    S(hbond)    S(metal)    S(lipo)     H(rot)  DE(clash)    DE(int)     intcor
      7.96     -15.62       1.81        0.00      92.39       2.62       1.00       6.65       ----

> <Gold.Chemscore.Fitness>
7.9639

> <Gold.Chemscore.DG>
-15.6162

> <Gold.Chemscore.ZeroCoef>
-5.4800

> <Gold.Chemscore.Hbond>
1.8080

> <Gold.Chemscore.Metal>
0.0000

> <Gold.Chemscore.Lipo>
92.3890

> <Gold.Chemscore.Internal_Hbond>
0.0000

> <Gold.Chemscore.DEClash>
1.0003

> <Gold.Chemscore.DEInternal>
6.6521

> <Gold.Chemscore.Rot>
2.6219

> <Gold.Chemscore.Internal.Correction>
   9.000000E+99

> <Gold.Chemscore.Hbonds>
donor molecule, donor type, donor heavy atom, donor atom, acceptor molecule, acceptor atom, score
      L1  H    20    45       P1  7957  0.45
      P1  H  7989  7998       L1    20  0.12
      P1  H  7997  8010       L1    23  0.37

> <Gold.Chemscore.Hbond.Weighted>
-6.0388

> <Gold.Chemscore.Metal.Weighted>
-0.0000

> <Gold.Chemscore.Lipo.Weighted>
-10.8095

> <Gold.Chemscore.Internal_Hbond.Weighted>
0.0000

> <Gold.Chemscore.DEClash.Weighted>
1.0003

> <Gold.Chemscore.DEInternal.Weighted>
6.6521

> <Gold.Chemscore.Rot.Weighted>
6.7121

> <Gold.Chemscore.Internal.Correction.Weighted>
   9.000000E+99

> <Gold.Protein.RotatedTorsions>
[ 6907 6896 6895 6894 ] final   67.31 input  -60.11 | X-H torsion
[ 7974 7965 7964 7962 ] final -130.21 input  175.53 | X-H torsion
[ 8008 7997 7996 7995 ] final   89.44 input   59.86 | X-H torsion
[ 10167 10162 10161 10158 ] final  -31.37 input  -65.29 | X-H torsion
[ 10718 10713 10712 10709 ] final   95.37 input   66.30 | X-H torsion
[ 10763 10752 10751 10750 ] final -162.77 input  -60.55 | X-H torsion
[ 11005 11000 10999 10996 ] final  120.40 input  -57.11 | X-H torsion

> <Gold.Protein.ActiveResidues>
 VAL166  LYS551  ARG553  GLY616  TRP617  ASP618  TYR619  PRO620  LYS621  CYS622 
 ASP623  PHE694  ASN695  SER759  ASP760  ASP761  ALA762  ILE779  LEU786  VAL792 
 PHE793  MET794  SER795  GLU796  ALA797  LYS798  CYS799  TRP800  GLU811  SER814 

> <Gold.Protein.RotatedAtoms>
  152.4543  134.5326  159.9815 H   0  0  0  0  0  0  0  0  0  0  0  0  # atno 6907 bound_to 6896
  151.5390  133.3430  159.2940 H   0  0  0  0  0  0  0  0  0  0  0  0  # atno 6908 bound_to 6896
  150.8482  134.7829  159.7050 H   0  0  0  0  0  0  0  0  0  0  0  0  # atno 6909 bound_to 6896
  144.9497  140.7331  143.4795 H   0  0  0  0  0  0  0  0  0  0  0  0  # atno 7974 bound_to 7965
  156.0000  140.3360  155.6836 H   0  0  0  0  0  0  0  0  0  0  0  0  # atno 8008 bound_to 7997
  155.6303  140.0684  157.2669 H   0  0  0  0  0  0  0  0  0  0  0  0  # atno 8009 bound_to 7997
  154.4246  140.1761  156.1453 H   0  0  0  0  0  0  0  0  0  0  0  0  # atno 8010 bound_to 7997
  140.7237  143.3776  151.1660 H   0  0  0  0  0  0  0  0  0  0  0  0  # atno 10167 bound_to 10162
  157.6939  131.0543  150.4328 H   0  0  0  0  0  0  0  0  0  0  0  0  # atno 10718 bound_to 10713
  154.7184  135.3020  154.9087 H   0  0  0  0  0  0  0  0  0  0  0  0  # atno 10763 bound_to 10752
  153.9966  135.6712  153.4761 H   0  0  0  0  0  0  0  0  0  0  0  0  # atno 10764 bound_to 10752
  153.0813  135.5007  154.8424 H   0  0  0  0  0  0  0  0  0  0  0  0  # atno 10765 bound_to 10752
  139.9184  134.9634  156.7802 H   0  0  0  0  0  0  0  0  0  0  0  0  # atno 11005 bound_to 11000
  145.2863  139.1900  143.4764 LP  0  0  0  0  0  0  0  0  0  0  0  0  # atno 17320 bound_to 7965
  146.3316  140.2832  142.8611 LP  0  0  0  0  0  0  0  0  0  0  0  0  # atno 17321 bound_to 7965
  139.7359  143.9000  152.3035 LP  0  0  0  0  0  0  0  0  0  0  0  0  # atno 17342 bound_to 10162
  139.8804  144.7020  150.8884 LP  0  0  0  0  0  0  0  0  0  0  0  0  # atno 17343 bound_to 10162
  156.4693  130.4049  149.6528 LP  0  0  0  0  0  0  0  0  0  0  0  0  # atno 17370 bound_to 10713
  156.3614  130.7483  151.2456 LP  0  0  0  0  0  0  0  0  0  0  0  0  # atno 17371 bound_to 10713
  140.6550  133.9696  155.7775 LP  0  0  0  0  0  0  0  0  0  0  0  0  # atno 17394 bound_to 11000
  141.0682  134.0245  157.3564 LP  0  0  0  0  0  0  0  0  0  0  0  0  # atno 17395 bound_to 11000

$$$$
