AV-unprocessed.smi:2991|AV-procd|sdf|11398|dock7
  -GOLD-   2272016323D 1   1.00000     0.00000
 Structure written by MMmdl.
 37 38  0  0  0  0  0  0  0  0  1 V2000
  149.6761  141.2848  155.5398 C   0  0  0  0  0  0  0  0  0  0  0  0
  148.5332  140.8540  154.6399 C   0  0  0  0  0  0  0  0  0  0  0  0
  147.6100  141.8032  154.3724 N   0  0  0  0  0  0  0  0  0  0  0  0
  146.5759  141.4746  153.5717 C   0  0  0  0  0  0  0  0  0  0  0  0
  146.4080  140.1952  153.0082 C   0  0  0  0  0  0  0  0  0  0  0  0
  147.3655  139.1935  153.2979 C   0  0  0  0  0  0  0  0  0  0  0  0
  147.3080  137.8750  152.7656 N   0  0  0  0  0  0  0  0  0  0  0  0
  146.2302  137.1303  152.4667 C   0  0  0  0  0  0  0  0  0  0  0  0
  145.0583  137.4734  152.6229 O   0  0  0  0  0  0  0  0  0  0  0  0
  146.5926  135.9342  151.9812 N   0  0  0  0  0  0  0  0  0  0  0  0
  145.6832  134.8595  151.5810 C   0  0  1  0  0  0  0  0  0  0  0  0
  146.4274  133.8381  150.6916 C   0  0  0  0  0  0  0  0  0  0  0  0
  145.5032  133.0030  149.7915 C   0  0  0  0  0  0  0  0  0  0  0  0
  144.5138  132.1004  150.5435 C   0  0  0  0  0  0  0  0  0  0  0  0
  143.4697  132.8767  151.3645 C   0  0  0  0  0  0  0  0  0  0  0  0
  144.0008  133.3595  152.6331 N   0  0  0  0  0  0  0  0  0  0  0  0
  144.9959  134.2413  152.8133 C   0  0  0  0  0  0  0  0  0  0  0  0
  145.3605  134.5467  153.9487 O   0  0  0  0  0  0  0  0  0  0  0  0
  148.4607  139.5383  154.1247 C   0  0  0  0  0  0  0  0  0  0  0  0
  149.6856  138.3736  154.5040 Cl  0  0  0  0  0  0  0  0  0  0  0  0
  149.6983  140.6739  156.4424 H   0  0  0  0  0  0  0  0  0  0  0  0
  149.5781  142.3283  155.8422 H   0  0  0  0  0  0  0  0  0  0  0  0
  150.6293  141.1729  155.0225 H   0  0  0  0  0  0  0  0  0  0  0  0
  145.8620  142.2588  153.3673 H   0  0  0  0  0  0  0  0  0  0  0  0
  145.5637  140.0159  152.3610 H   0  0  0  0  0  0  0  0  0  0  0  0
  148.2023  137.4189  152.6571 H   0  0  0  0  0  0  0  0  0  0  0  0
  147.5792  135.7350  151.8990 H   0  0  0  0  0  0  0  0  0  0  0  0
  144.8900  135.3205  150.9891 H   0  0  0  0  0  0  0  0  0  0  0  0
  147.1254  134.3632  150.0379 H   0  0  0  0  0  0  0  0  0  0  0  0
  147.0420  133.1814  151.3089 H   0  0  0  0  0  0  0  0  0  0  0  0
  144.9551  133.6649  149.1198 H   0  0  0  0  0  0  0  0  0  0  0  0
  146.1227  132.3767  149.1491 H   0  0  0  0  0  0  0  0  0  0  0  0
  143.9863  131.4942  149.8063 H   0  0  0  0  0  0  0  0  0  0  0  0
  145.0503  131.3956  151.1799 H   0  0  0  0  0  0  0  0  0  0  0  0
  143.0478  133.7018  150.7892 H   0  0  0  0  0  0  0  0  0  0  0  0
  142.6379  132.2129  151.6009 H   0  0  0  0  0  0  0  0  0  0  0  0
  143.5757  132.9764  153.4652 H   0  0  0  0  0  0  0  0  0  0  0  0
  1  2  1  0  0  0  0
  1 21  1  0  0  0  0
  1 22  1  0  0  0  0
  1 23  1  0  0  0  0
  2 19  1  0  0  0  0
  2  3  2  0  0  0  0
  3  4  1  0  0  0  0
  4  5  2  0  0  0  0
  4 24  1  0  0  0  0
  5  6  1  0  0  0  0
  5 25  1  0  0  0  0
  6  7  1  0  0  0  0
  6 19  2  0  0  0  0
  7  8  1  0  0  0  0
  7 26  1  0  0  0  0
  8  9  2  0  0  0  0
  8 10  1  0  0  0  0
 10 11  1  0  0  0  0
 10 27  1  0  0  0  0
 11 17  1  0  0  0  0
 11 12  1  0  0  0  0
 11 28  1  0  0  0  0
 12 13  1  0  0  0  0
 12 29  1  0  0  0  0
 12 30  1  0  0  0  0
 13 14  1  0  0  0  0
 13 31  1  0  0  0  0
 13 32  1  0  0  0  0
 14 15  1  0  0  0  0
 14 33  1  0  0  0  0
 14 34  1  0  0  0  0
 15 16  1  0  0  0  0
 15 35  1  0  0  0  0
 15 36  1  0  0  0  0
 16 17  1  0  0  0  0
 16 37  1  0  0  0  0
 17 18  2  0  0  0  0
 19 20  1  0  0  0  0
M  END
> <s_m_source_file>
AV-unprocessed.smi

> <i_m_source_file_index>
2991

> <i_lp_mmshare_version>
43012

> <i_f3d_flags>
0

> <s_epik_input>
W0NIM11jMW5bY0hdW2NIXWMoYzFDbClbTkhdQyg9TylbTkhdW0NAQEhdMltDSDJdW0NIMl1bQ0gyXVtDSDJdW05IXUMyPU8=

> <s_epik_cmdline>
J2VwaWtfcHl0aG9uJywgJy1waCcsICc3LjAnLCAnLXRuJywgJzgnLCAnLW1hJywgJzIwMCcsICctbWV0YWxfYmluZGluZycsICctaW1hZScsICc8aW5maWxlLm1hZT4nLCAnLW9tYWUnLCAnPG91dGZpbGUubWFlPic=

> <r_epik_Ionization_Penalty>
0.00809016

> <r_epik_Ionization_Penalty_Charging>
0

> <r_epik_Ionization_Penalty_Neutral>
0.00809016

> <r_epik_State_Penalty>
0.00605324

> <r_epik_Charging_Adjusted_Penalty>
0.00605324

> <i_epik_Tot_Q>
0

> <i_epik_Tot_abs_Q>
0

> <r_epik_Metal_State_Penalty>
0.00597181

> <b_epik_Metal_Only>
0

> <s_lp_Force_Field>
OPLS_2005

> <r_lp_Energy>
16.2223

> <b_lp_Chiralities_Consistent>
1

> <s_lp_Variant>
AV-unprocessed.smi:2991-2

> <Gold.Version>
5.8.1

> <Gold.Id.Protein>
6NUR|6NUR_protein|mol2

> <Gold.PLP.Fitness>
33.1957

> <Gold.PLP.PLP>
-26.0938

> <Gold.PLP.part.hbond>
-2.2623

> <Gold.PLP.part.metal>
0.0000

> <Gold.PLP.part.buried>
2.2861

> <Gold.PLP.part.nonpolar>
-26.2942

> <Gold.PLP.part.repulsive>
0.5725

> <Gold.PLP.ligand.clash>
0.0000

> <Gold.PLP.ligand.torsion>
0.3731

> <Gold.PLP.Chemscore.Hbond>
2.6055

> <Gold.PLP.Chemscore.CHOScore>
0.0015

> <Gold.PLP.Chemscore.Metal>
0.0000

> <Gold.Chemscore.Hbonds>
donor molecule, donor type, donor heavy atom, donor atom, acceptor molecule, acceptor atom, score
      L1  H     7    26       P1  7948  0.86
      L1  H    10    27       P1  7948  0.74
      L1  H    16    37       P1 10957  1.00

> <Gold.PLP.Chemscore.Internal.Correction>
0.0270

> <Gold.Rescore>
     Score         DG    S(hbond)    S(metal)    S(lipo)     H(rot)  DE(clash)    DE(int)     intcor
     19.84     -22.41       2.84        0.00      85.46       1.00       1.52       1.05       ----

> <Gold.Chemscore.Fitness>
19.8387

> <Gold.Chemscore.DG>
-22.4104

> <Gold.Chemscore.ZeroCoef>
-5.4800

> <Gold.Chemscore.Hbond>
2.8416

> <Gold.Chemscore.Metal>
0.0000

> <Gold.Chemscore.Lipo>
85.4647

> <Gold.Chemscore.Internal_Hbond>
0.0000

> <Gold.Chemscore.DEClash>
1.5169

> <Gold.Chemscore.DEInternal>
1.0548

> <Gold.Chemscore.Rot>
1.0000

> <Gold.Chemscore.Internal.Correction>
   9.000000E+99

> <Gold.Chemscore.Hbonds>
donor molecule, donor type, donor heavy atom, donor atom, acceptor molecule, acceptor atom, score
      L1  H     7    26       P1  7948  0.84
      L1  H    10    27       P1  7948  0.71
      L1  H    16    37       P1 10957  0.79

> <Gold.Chemscore.Hbond.Weighted>
-9.4911

> <Gold.Chemscore.Metal.Weighted>
-0.0000

> <Gold.Chemscore.Lipo.Weighted>
-9.9994

> <Gold.Chemscore.Internal_Hbond.Weighted>
0.0000

> <Gold.Chemscore.DEClash.Weighted>
1.5169

> <Gold.Chemscore.DEInternal.Weighted>
1.0548

> <Gold.Chemscore.Rot.Weighted>
2.5600

> <Gold.Chemscore.Internal.Correction.Weighted>
   9.000000E+99

> <Gold.Protein.RotatedTorsions>
[ 6907 6896 6895 6894 ] final  118.48 input  -60.11 | X-H torsion
[ 7974 7965 7964 7962 ] final -128.22 input  175.53 | X-H torsion
[ 8008 7997 7996 7995 ] final  176.58 input   59.86 | X-H torsion
[ 10167 10162 10161 10158 ] final    3.62 input  -65.29 | X-H torsion
[ 10718 10713 10712 10709 ] final  118.33 input   66.30 | X-H torsion
[ 10763 10752 10751 10750 ] final  -67.59 input  -60.55 | X-H torsion
[ 11005 11000 10999 10996 ] final  128.52 input  -57.11 | X-H torsion

> <Gold.Protein.ActiveResidues>
 VAL166  LYS551  ARG553  GLY616  TRP617  ASP618  TYR619  PRO620  LYS621  CYS622 
 ASP623  PHE694  ASN695  SER759  ASP760  ASP761  ALA762  ILE779  LEU786  VAL792 
 PHE793  MET794  SER795  GLU796  ALA797  LYS798  CYS799  TRP800  GLU811  SER814 

> <Gold.Protein.RotatedAtoms>
  152.4540  133.7685  159.6785 H   0  0  0  0  0  0  0  0  0  0  0  0  # atno 6907 bound_to 6896
  150.8460  133.7850  159.3049 H   0  0  0  0  0  0  0  0  0  0  0  0  # atno 6908 bound_to 6896
  151.5461  135.1071  159.9990 H   0  0  0  0  0  0  0  0  0  0  0  0  # atno 6909 bound_to 6896
  144.9692  140.7528  143.4681 H   0  0  0  0  0  0  0  0  0  0  0  0  # atno 7974 bound_to 7965
  156.0749  140.1380  156.9783 H   0  0  0  0  0  0  0  0  0  0  0  0  # atno 8008 bound_to 7997
  154.4552  140.0964  156.6787 H   0  0  0  0  0  0  0  0  0  0  0  0  # atno 8009 bound_to 7997
  155.5168  140.3455  155.4401 H   0  0  0  0  0  0  0  0  0  0  0  0  # atno 8010 bound_to 7997
  140.6577  143.7385  150.7682 H   0  0  0  0  0  0  0  0  0  0  0  0  # atno 10167 bound_to 10162
  157.6037  131.1047  150.7740 H   0  0  0  0  0  0  0  0  0  0  0  0  # atno 10718 bound_to 10713
  154.3766  135.6083  153.5768 H   0  0  0  0  0  0  0  0  0  0  0  0  # atno 10763 bound_to 10752
  152.9789  135.5851  154.4459 H   0  0  0  0  0  0  0  0  0  0  0  0  # atno 10764 bound_to 10752
  154.4221  135.2846  155.1946 H   0  0  0  0  0  0  0  0  0  0  0  0  # atno 10765 bound_to 10752
  139.9565  134.9612  156.9013 H   0  0  0  0  0  0  0  0  0  0  0  0  # atno 11005 bound_to 11000
  145.2584  139.2002  143.4905 LP  0  0  0  0  0  0  0  0  0  0  0  0  # atno 17320 bound_to 7965
  146.3377  140.2510  142.8598 LP  0  0  0  0  0  0  0  0  0  0  0  0  # atno 17321 bound_to 7965
  140.1048  143.4754  152.2404 LP  0  0  0  0  0  0  0  0  0  0  0  0  # atno 17342 bound_to 10162
  139.5803  144.7507  151.3658 LP  0  0  0  0  0  0  0  0  0  0  0  0  # atno 17343 bound_to 10162
  156.8133  130.4960  149.5353 LP  0  0  0  0  0  0  0  0  0  0  0  0  # atno 17370 bound_to 10713
  156.1118  130.6045  151.0058 LP  0  0  0  0  0  0  0  0  0  0  0  0  # atno 17371 bound_to 10713
  140.5598  134.0546  155.7395 LP  0  0  0  0  0  0  0  0  0  0  0  0  # atno 17394 bound_to 11000
  141.1237  133.9419  157.2679 LP  0  0  0  0  0  0  0  0  0  0  0  0  # atno 17395 bound_to 11000

$$$$
