AV-unprocessed.smi:2562|AV-procd|sdf|10044|dock1
  -GOLD-   2272014 83D 1   1.00000     0.00000
 Structure written by MMmdl.
 31 32  0  0  0  0  0  0  0  0  2 V2000
  152.4807  143.4074  161.6667 C   0  0  0  0  0  0  0  0  0  0  0  0
  152.1904  143.4933  160.1643 C   0  0  0  0  0  0  0  0  0  0  0  0
  152.0671  142.1111  159.5065 C   0  0  0  0  0  0  0  0  0  0  0  0
  151.4488  142.1873  158.1495 C   0  0  0  0  0  0  0  0  0  0  0  0
  151.0176  143.3449  157.6507 N   0  0  0  0  0  0  0  0  0  0  0  0
  150.5011  142.9642  156.4637 N   0  0  0  0  0  0  0  0  0  0  0  0
  150.6347  141.6430  156.3262 C   0  0  0  0  0  0  0  0  0  0  0  0
  150.1293  140.9110  155.1235 C   0  0  2  0  0  0  0  0  0  0  0  0
  148.6660  141.2655  154.7944 C   0  0  0  0  0  0  0  0  0  0  0  0
  148.1876  140.4414  153.6673 N   0  3  0  0  0  0  0  0  0  0  0  0
  148.3679  139.0013  153.9375 C   0  0  0  0  0  0  0  0  0  0  0  0
  149.8350  138.7105  154.2998 C   0  0  0  0  0  0  0  0  0  0  0  0
  150.2264  139.5168  155.4062 O   0  0  0  0  0  0  0  0  0  0  0  0
  151.2264  141.0820  157.3766 N   0  0  0  0  0  0  0  0  0  0  0  0
  150.0802  143.6127  155.8136 H   0  0  0  0  0  0  0  0  0  0  0  0
  152.5435  144.4028  162.1069 H   0  0  0  0  0  0  0  0  0  0  0  0
  153.4268  142.8993  161.8562 H   0  0  0  0  0  0  0  0  0  0  0  0
  151.6952  142.8616  162.1898 H   0  0  0  0  0  0  0  0  0  0  0  0
  151.2684  144.0546  160.0087 H   0  0  0  0  0  0  0  0  0  0  0  0
  152.9840  144.0616  159.6778 H   0  0  0  0  0  0  0  0  0  0  0  0
  153.0506  141.6461  159.4258 H   0  0  0  0  0  0  0  0  0  0  0  0
  151.4644  141.4519  160.1325 H   0  0  0  0  0  0  0  0  0  0  0  0
  150.7741  141.1513  154.2757 H   0  0  0  0  0  0  0  0  0  0  0  0
  148.0261  141.0877  155.6602 H   0  0  0  0  0  0  0  0  0  0  0  0
  148.5727  142.3208  154.5365 H   0  0  0  0  0  0  0  0  0  0  0  0
  147.2095  140.6328  153.5021 H   0  0  0  0  0  0  0  0  0  0  0  0
  147.7116  138.7053  154.7570 H   0  0  0  0  0  0  0  0  0  0  0  0
  148.0674  138.4278  153.0605 H   0  0  0  0  0  0  0  0  0  0  0  0
  149.9557  137.6606  154.5670 H   0  0  0  0  0  0  0  0  0  0  0  0
  150.4909  138.9001  153.4485 H   0  0  0  0  0  0  0  0  0  0  0  0
  148.7147  140.6841  152.8405 H   0  0  0  0  0  0  0  0  0  0  0  0
  1  2  1  0  0  0  0
  1 16  1  0  0  0  0
  1 17  1  0  0  0  0
  1 18  1  0  0  0  0
  2  3  1  0  0  0  0
  2 19  1  0  0  0  0
  2 20  1  0  0  0  0
  3  4  1  0  0  0  0
  3 21  1  0  0  0  0
  3 22  1  0  0  0  0
  4 14  1  0  0  0  0
  4  5  2  0  0  0  0
  5  6  1  0  0  0  0
  6 15  1  0  0  0  0
  6  7  1  0  0  0  0
  7  8  1  0  0  0  0
  7 14  2  0  0  0  0
  8 13  1  0  0  0  0
  8  9  1  0  0  0  0
  8 23  1  0  0  0  0
  9 10  1  0  0  0  0
  9 24  1  0  0  0  0
  9 25  1  0  0  0  0
 10 11  1  0  0  0  0
 10 26  1  0  0  0  0
 10 31  1  0  0  0  0
 11 12  1  0  0  0  0
 11 27  1  0  0  0  0
 11 28  1  0  0  0  0
 12 13  1  0  0  0  0
 12 29  1  0  0  0  0
 12 30  1  0  0  0  0
M  CHG  1  10   1
M  END
> <s_m_source_file>
AV-unprocessed.smi

> <i_m_source_file_index>
2562

> <i_lp_mmshare_version>
43012

> <i_f3d_flags>
0

> <s_epik_input>
W0NIM11bQ0gyXVtDSDJdYzFuW25IXWMobjEpW0NAQEhdMltDSDJdW05IXVtDSDJdW0NIMl1PMg==

> <s_epik_cmdline>
J2VwaWtfcHl0aG9uJywgJy1waCcsICc3LjAnLCAnLXRuJywgJzgnLCAnLW1hJywgJzIwMCcsICctbWV0YWxfYmluZGluZycsICctaW1hZScsICc8aW5maWxlLm1hZT4nLCAnLW9tYWUnLCAnPG91dGZpbGUubWFlPic=

> <r_epik_Ionization_Penalty>
0.162344

> <r_epik_Ionization_Penalty_Charging>
0.125708

> <r_epik_Ionization_Penalty_Neutral>
0.0366364

> <r_epik_State_Penalty>
0.771409

> <r_epik_Charging_Adjusted_Penalty>
0.897117

> <i_epik_Tot_Q>
1

> <i_epik_Tot_abs_Q>
1

> <r_epik_Metal_State_Penalty>
0.893868

> <b_epik_Metal_Only>
0

> <s_lp_Force_Field>
OPLS_2005

> <r_lp_Energy>
9.76643

> <b_lp_Chiralities_Consistent>
1

> <s_lp_Variant>
AV-unprocessed.smi:2562-3

> <Gold.Version>
5.8.1

> <Gold.Id.Protein>
6NUR|6NUR_protein|mol2

> <Gold.PLP.Fitness>
33.1135

> <Gold.PLP.PLP>
-28.0568

> <Gold.PLP.part.hbond>
-1.9968

> <Gold.PLP.part.metal>
0.0000

> <Gold.PLP.part.buried>
-3.9639

> <Gold.PLP.part.nonpolar>
-23.2713

> <Gold.PLP.part.repulsive>
0.3867

> <Gold.PLP.ligand.clash>
0.0000

> <Gold.PLP.ligand.torsion>
0.2124

> <Gold.PLP.Chemscore.Hbond>
1.8240

> <Gold.PLP.Chemscore.CHOScore>
0.0000

> <Gold.PLP.Chemscore.Metal>
0.0000

> <Gold.Chemscore.Hbonds>
donor molecule, donor type, donor heavy atom, donor atom, acceptor molecule, acceptor atom, score
      L1  H     6    15       P1  8028  0.88
      L1  H    10    31       P1  7957  0.96

> <Gold.PLP.Chemscore.Internal.Correction>
0.0095

> <Gold.Rescore>
     Score         DG    S(hbond)    S(metal)    S(lipo)     H(rot)  DE(clash)    DE(int)     intcor
     14.30     -14.55       1.80        0.00      59.25       1.51       0.06       0.18       ----

> <Gold.Chemscore.Fitness>
14.2999

> <Gold.Chemscore.DG>
-14.5453

> <Gold.Chemscore.ZeroCoef>
-5.4800

> <Gold.Chemscore.Hbond>
1.7970

> <Gold.Chemscore.Metal>
0.0000

> <Gold.Chemscore.Lipo>
59.2545

> <Gold.Chemscore.Internal_Hbond>
0.0000

> <Gold.Chemscore.DEClash>
0.0604

> <Gold.Chemscore.DEInternal>
0.1850

> <Gold.Chemscore.Rot>
1.5115

> <Gold.Chemscore.Internal.Correction>
   9.000000E+99

> <Gold.Chemscore.Hbonds>
donor molecule, donor type, donor heavy atom, donor atom, acceptor molecule, acceptor atom, score
      L1  H     6    15       P1  8028  0.86
      L1  H    10    31       P1  7957  0.89

> <Gold.Chemscore.Hbond.Weighted>
-6.0019

> <Gold.Chemscore.Metal.Weighted>
-0.0000

> <Gold.Chemscore.Lipo.Weighted>
-6.9328

> <Gold.Chemscore.Internal_Hbond.Weighted>
0.0000

> <Gold.Chemscore.DEClash.Weighted>
0.0604

> <Gold.Chemscore.DEInternal.Weighted>
0.1850

> <Gold.Chemscore.Rot.Weighted>
3.8695

> <Gold.Chemscore.Internal.Correction.Weighted>
   9.000000E+99

> <Gold.Protein.RotatedTorsions>
[ 6907 6896 6895 6894 ] final  -77.85 input  -60.11 | X-H torsion
[ 7974 7965 7964 7962 ] final  -57.88 input  175.53 | X-H torsion
[ 8008 7997 7996 7995 ] final   65.20 input   59.86 | X-H torsion
[ 10167 10162 10161 10158 ] final  167.28 input  -65.29 | X-H torsion
[ 10718 10713 10712 10709 ] final  -70.81 input   66.30 | X-H torsion
[ 10763 10752 10751 10750 ] final -166.96 input  -60.55 | X-H torsion
[ 11005 11000 10999 10996 ] final -136.20 input  -57.11 | X-H torsion

> <Gold.Protein.ActiveResidues>
 VAL166  LYS551  ARG553  GLY616  TRP617  ASP618  TYR619  PRO620  LYS621  CYS622 
 ASP623  PHE694  ASN695  SER759  ASP760  ASP761  ALA762  ILE779  LEU786  VAL792 
 PHE793  MET794  SER795  GLU796  ALA797  LYS798  CYS799  TRP800  GLU811  SER814 

> <Gold.Protein.RotatedAtoms>
  150.6988  134.4361  159.5270 H   0  0  0  0  0  0  0  0  0  0  0  0  # atno 6907 bound_to 6896
  152.2079  134.8526  160.0510 H   0  0  0  0  0  0  0  0  0  0  0  0  # atno 6908 bound_to 6896
  151.9422  133.3606  159.4006 H   0  0  0  0  0  0  0  0  0  0  0  0  # atno 6909 bound_to 6896
  145.8458  140.8386  143.0011 H   0  0  0  0  0  0  0  0  0  0  0  0  # atno 7974 bound_to 7965
  155.6580  140.3497  155.4772 H   0  0  0  0  0  0  0  0  0  0  0  0  # atno 8008 bound_to 7997
  155.9792  140.1171  157.0765 H   0  0  0  0  0  0  0  0  0  0  0  0  # atno 8009 bound_to 7997
  154.4187  140.1141  156.5399 H   0  0  0  0  0  0  0  0  0  0  0  0  # atno 8010 bound_to 7997
  139.4942  144.3938  151.9487 H   0  0  0  0  0  0  0  0  0  0  0  0  # atno 10167 bound_to 10162
  156.0391  130.4339  150.2350 H   0  0  0  0  0  0  0  0  0  0  0  0  # atno 10718 bound_to 10713
  154.6780  135.2950  154.9652 H   0  0  0  0  0  0  0  0  0  0  0  0  # atno 10763 bound_to 10752
  154.0656  135.6625  153.4821 H   0  0  0  0  0  0  0  0  0  0  0  0  # atno 10764 bound_to 10752
  153.0529  135.5162  154.7809 H   0  0  0  0  0  0  0  0  0  0  0  0  # atno 10765 bound_to 10752
  140.8827  134.1911  157.4580 H   0  0  0  0  0  0  0  0  0  0  0  0  # atno 11005 bound_to 11000
  144.6731  140.0880  143.7466 LP  0  0  0  0  0  0  0  0  0  0  0  0  # atno 17320 bound_to 7965
  145.9413  139.2671  143.1267 LP  0  0  0  0  0  0  0  0  0  0  0  0  # atno 17321 bound_to 7965
  140.3376  144.3241  150.5974 LP  0  0  0  0  0  0  0  0  0  0  0  0  # atno 17342 bound_to 10162
  140.5592  143.2194  151.7794 LP  0  0  0  0  0  0  0  0  0  0  0  0  # atno 17343 bound_to 10162
  157.0447  131.0045  151.3272 LP  0  0  0  0  0  0  0  0  0  0  0  0  # atno 17370 bound_to 10713
  157.5184  130.7982  149.7781 LP  0  0  0  0  0  0  0  0  0  0  0  0  # atno 17371 bound_to 10713
  139.8721  134.9824  156.5157 LP  0  0  0  0  0  0  0  0  0  0  0  0  # atno 17394 bound_to 11000
  140.8441  133.8182  155.9104 LP  0  0  0  0  0  0  0  0  0  0  0  0  # atno 17395 bound_to 11000

$$$$
