AV-unprocessed.smi:695|AV-procd|sdf|3384|dock1
  -GOLD-   22720 0363D 1   1.00000     0.00000
 Structure written by MMmdl.
 38 39  0  0  0  0  0  0  0  0  1 V2000
  150.5108  131.7354  152.8218 C   0  0  0  0  0  0  0  0  0  0  0  0
  149.7634  132.5639  153.8755 C   0  0  0  0  0  0  0  0  0  0  0  0
  149.9981  133.9909  153.6911 N   0  0  0  0  0  0  0  0  0  0  0  0
  150.7391  134.7557  154.5046 C   0  0  0  0  0  0  0  0  0  0  0  0
  151.3515  134.3280  155.4834 O   0  0  0  0  0  0  0  0  0  0  0  0
  150.7083  136.0455  154.1386 N   0  0  0  0  0  0  0  0  0  0  0  0
  151.3528  137.1448  154.8536 C   0  0  0  0  0  0  0  0  0  0  0  0
  151.2679  138.4780  154.0837 C   0  0  0  0  0  0  0  0  0  0  0  0
  150.7163  139.6084  154.9026 C   0  0  0  0  0  0  0  0  0  0  0  0
  149.4752  140.1846  154.7843 C   0  0  0  0  0  0  0  0  0  0  0  0
  149.2160  141.4235  155.9810 S   0  0  0  0  0  0  0  0  0  0  0  0
  150.8394  141.1224  156.5938 C   0  0  0  0  0  0  0  0  0  0  0  0
  151.3684  141.8312  157.6684 N   0  0  0  0  0  0  0  0  0  0  0  0
  151.0129  143.1907  158.0635 C   0  0  0  0  0  0  0  0  0  0  0  0
  151.6000  143.4401  159.4502 C   0  0  0  0  0  0  0  0  0  0  0  0
  152.8409  142.5688  159.4331 C   0  0  0  0  0  0  0  0  0  0  0  0
  152.3833  141.3670  158.6094 C   0  0  0  0  0  0  0  0  0  0  0  0
  151.4872  140.1625  155.9291 N   0  0  0  0  0  0  0  0  0  0  0  0
  150.3549  130.6691  152.9856 H   0  0  0  0  0  0  0  0  0  0  0  0
  151.5839  131.9242  152.8609 H   0  0  0  0  0  0  0  0  0  0  0  0
  150.1661  131.9694  151.8139 H   0  0  0  0  0  0  0  0  0  0  0  0
  148.6948  132.3460  153.8424 H   0  0  0  0  0  0  0  0  0  0  0  0
  150.1059  132.2877  154.8728 H   0  0  0  0  0  0  0  0  0  0  0  0
  149.5356  134.4323  152.9100 H   0  0  0  0  0  0  0  0  0  0  0  0
  150.1752  136.2910  153.3174 H   0  0  0  0  0  0  0  0  0  0  0  0
  150.9253  137.2571  155.8515 H   0  0  0  0  0  0  0  0  0  0  0  0
  152.3994  136.8783  155.0014 H   0  0  0  0  0  0  0  0  0  0  0  0
  152.2620  138.7396  153.7195 H   0  0  0  0  0  0  0  0  0  0  0  0
  150.6576  138.3361  153.1910 H   0  0  0  0  0  0  0  0  0  0  0  0
  148.6924  139.9405  154.0818 H   0  0  0  0  0  0  0  0  0  0  0  0
  151.4398  143.8837  157.3376 H   0  0  0  0  0  0  0  0  0  0  0  0
  149.9316  143.3309  158.0614 H   0  0  0  0  0  0  0  0  0  0  0  0
  151.8150  144.4922  159.6384 H   0  0  0  0  0  0  0  0  0  0  0  0
  150.9090  143.0894  160.2181 H   0  0  0  0  0  0  0  0  0  0  0  0
  153.6515  143.0870  158.9189 H   0  0  0  0  0  0  0  0  0  0  0  0
  153.1881  142.2952  160.4297 H   0  0  0  0  0  0  0  0  0  0  0  0
  151.9351  140.6112  159.2553 H   0  0  0  0  0  0  0  0  0  0  0  0
  153.2227  140.9054  158.0886 H   0  0  0  0  0  0  0  0  0  0  0  0
  1  2  1  0  0  0  0
  1 19  1  0  0  0  0
  1 20  1  0  0  0  0
  1 21  1  0  0  0  0
  2  3  1  0  0  0  0
  2 22  1  0  0  0  0
  2 23  1  0  0  0  0
  3  4  1  0  0  0  0
  3 24  1  0  0  0  0
  4  5  2  0  0  0  0
  4  6  1  0  0  0  0
  6  7  1  0  0  0  0
  6 25  1  0  0  0  0
  7  8  1  0  0  0  0
  7 26  1  0  0  0  0
  7 27  1  0  0  0  0
  8  9  1  0  0  0  0
  8 28  1  0  0  0  0
  8 29  1  0  0  0  0
  9 18  1  0  0  0  0
  9 10  2  0  0  0  0
 10 11  1  0  0  0  0
 10 30  1  0  0  0  0
 11 12  1  0  0  0  0
 12 13  1  0  0  0  0
 12 18  2  0  0  0  0
 13 17  1  0  0  0  0
 13 14  1  0  0  0  0
 14 15  1  0  0  0  0
 14 31  1  0  0  0  0
 14 32  1  0  0  0  0
 15 16  1  0  0  0  0
 15 33  1  0  0  0  0
 15 34  1  0  0  0  0
 16 17  1  0  0  0  0
 16 35  1  0  0  0  0
 16 36  1  0  0  0  0
 17 37  1  0  0  0  0
 17 38  1  0  0  0  0
M  END
> <s_m_source_file>
AV-unprocessed.smi

> <i_m_source_file_index>
695

> <i_lp_mmshare_version>
43012

> <i_f3d_flags>
0

> <s_epik_input>
W0NIM11bQ0gyXVtOSF1DKD1PKVtOSF1bQ0gyXVtDSDJdYzFbY0hdc2MobjEpTjJbQ0gyXVtDSDJdW0NIMl1bQ0gyXTI=

> <s_epik_cmdline>
J2VwaWtfcHl0aG9uJywgJy1waCcsICc3LjAnLCAnLXRuJywgJzgnLCAnLW1hJywgJzIwMCcsICctbWV0YWxfYmluZGluZycsICctaW1hZScsICc8aW5maWxlLm1hZT4nLCAnLW9tYWUnLCAnPG91dGZpbGUubWFlPic=

> <r_epik_Ionization_Penalty>
0.166233

> <r_epik_Ionization_Penalty_Charging>
0

> <r_epik_Ionization_Penalty_Neutral>
0.166233

> <r_epik_State_Penalty>
0.155475

> <r_epik_Charging_Adjusted_Penalty>
0.155475

> <i_epik_Tot_Q>
0

> <i_epik_Tot_abs_Q>
0

> <r_epik_Metal_State_Penalty>
0.121092

> <b_epik_Metal_Only>
0

> <s_lp_Force_Field>
OPLS_2005

> <r_lp_Energy>
13.2485

> <b_lp_Chiralities_Consistent>
1

> <s_lp_Variant>
AV-unprocessed.smi:695-1

> <Gold.Version>
5.8.1

> <Gold.Id.Protein>
6NUR|6NUR_protein|mol2

> <Gold.PLP.Fitness>
44.1066

> <Gold.PLP.PLP>
-36.8598

> <Gold.PLP.part.hbond>
-2.5489

> <Gold.PLP.part.metal>
0.0000

> <Gold.PLP.part.buried>
-0.0427

> <Gold.PLP.part.nonpolar>
-33.8856

> <Gold.PLP.part.repulsive>
0.0741

> <Gold.PLP.ligand.clash>
0.0000

> <Gold.PLP.ligand.torsion>
0.8952

> <Gold.PLP.Chemscore.Hbond>
1.9920

> <Gold.PLP.Chemscore.CHOScore>
1.0000

> <Gold.PLP.Chemscore.Metal>
0.0000

> <Gold.Chemscore.Hbonds>
donor molecule, donor type, donor heavy atom, donor atom, acceptor molecule, acceptor atom, score
      L1  H     6    25       P1  7948  0.35
      P1  H 10752 10765       L1     5  0.21

> <Gold.PLP.Chemscore.Internal.Correction>
0.0612

> <Gold.Rescore>
     Score         DG    S(hbond)    S(metal)    S(lipo)     H(rot)  DE(clash)    DE(int)     intcor
     16.09     -16.77       1.69        0.00      85.37       1.70       0.15       0.53       ----

> <Gold.Chemscore.Fitness>
16.0864

> <Gold.Chemscore.DG>
-16.7690

> <Gold.Chemscore.ZeroCoef>
-5.4800

> <Gold.Chemscore.Hbond>
1.6897

> <Gold.Chemscore.Metal>
0.0000

> <Gold.Chemscore.Lipo>
85.3677

> <Gold.Chemscore.Internal_Hbond>
0.0000

> <Gold.Chemscore.DEClash>
0.1505

> <Gold.Chemscore.DEInternal>
0.5321

> <Gold.Chemscore.Rot>
1.6963

> <Gold.Chemscore.Internal.Correction>
   9.000000E+99

> <Gold.Chemscore.Hbonds>
donor molecule, donor type, donor heavy atom, donor atom, acceptor molecule, acceptor atom, score
      L1  H     6    25       P1  7948  0.01
      P1  H 10752 10765       L1     5  0.04

> <Gold.Chemscore.Hbond.Weighted>
-5.6436

> <Gold.Chemscore.Metal.Weighted>
-0.0000

> <Gold.Chemscore.Lipo.Weighted>
-9.9880

> <Gold.Chemscore.Internal_Hbond.Weighted>
0.0000

> <Gold.Chemscore.DEClash.Weighted>
0.1505

> <Gold.Chemscore.DEInternal.Weighted>
0.5321

> <Gold.Chemscore.Rot.Weighted>
4.3426

> <Gold.Chemscore.Internal.Correction.Weighted>
   9.000000E+99

> <Gold.Protein.RotatedTorsions>
[ 6907 6896 6895 6894 ] final  -22.94 input  -60.11 | X-H torsion
[ 7974 7965 7964 7962 ] final   43.57 input  175.53 | X-H torsion
[ 8008 7997 7996 7995 ] final   65.43 input   59.86 | X-H torsion
[ 10167 10162 10161 10158 ] final  -21.23 input  -65.29 | X-H torsion
[ 10718 10713 10712 10709 ] final  -83.47 input   66.30 | X-H torsion
[ 10763 10752 10751 10750 ] final -141.41 input  -60.55 | X-H torsion
[ 11005 11000 10999 10996 ] final  164.31 input  -57.11 | X-H torsion

> <Gold.Protein.ActiveResidues>
 VAL166  LYS551  ARG553  GLY616  TRP617  ASP618  TYR619  PRO620  LYS621  CYS622 
 ASP623  PHE694  ASN695  SER759  ASP760  ASP761  ALA762  ILE779  LEU786  VAL792 
 PHE793  MET794  SER795  GLU796  ALA797  LYS798  CYS799  TRP800  GLU811  SER814 

> <Gold.Protein.RotatedAtoms>
  151.2112  135.0482  159.8911 H   0  0  0  0  0  0  0  0  0  0  0  0  # atno 6907 bound_to 6896
  152.5424  134.0743  159.8218 H   0  0  0  0  0  0  0  0  0  0  0  0  # atno 6908 bound_to 6896
  151.0896  133.5278  159.2647 H   0  0  0  0  0  0  0  0  0  0  0  0  # atno 6909 bound_to 6896
  146.0643  139.5171  142.9638 H   0  0  0  0  0  0  0  0  0  0  0  0  # atno 7974 bound_to 7965
  155.6616  140.3497  155.4784 H   0  0  0  0  0  0  0  0  0  0  0  0  # atno 8008 bound_to 7997
  155.9764  140.1166  157.0789 H   0  0  0  0  0  0  0  0  0  0  0  0  # atno 8009 bound_to 7997
  154.4180  140.1147  156.5362 H   0  0  0  0  0  0  0  0  0  0  0  0  # atno 8010 bound_to 7997
  140.7281  143.4648  151.0329 H   0  0  0  0  0  0  0  0  0  0  0  0  # atno 10167 bound_to 10162
  156.0018  130.4666  150.4262 H   0  0  0  0  0  0  0  0  0  0  0  0  # atno 10718 bound_to 10713
  154.8546  135.3525  154.5863 H   0  0  0  0  0  0  0  0  0  0  0  0  # atno 10763 bound_to 10752
  153.6474  135.6995  153.5225 H   0  0  0  0  0  0  0  0  0  0  0  0  # atno 10764 bound_to 10752
  153.2922  135.4231  155.1135 H   0  0  0  0  0  0  0  0  0  0  0  0  # atno 10765 bound_to 10752
  140.2447  134.8024  157.3444 H   0  0  0  0  0  0  0  0  0  0  0  0  # atno 11005 bound_to 11000
  145.6504  141.0264  143.1763 LP  0  0  0  0  0  0  0  0  0  0  0  0  # atno 17320 bound_to 7965
  144.7193  139.8085  143.7387 LP  0  0  0  0  0  0  0  0  0  0  0  0  # atno 17321 bound_to 7965
  139.8335  143.7659  152.3180 LP  0  0  0  0  0  0  0  0  0  0  0  0  # atno 17342 bound_to 10162
  139.7783  144.7453  151.0125 LP  0  0  0  0  0  0  0  0  0  0  0  0  # atno 17343 bound_to 10162
  157.2314  131.0505  151.2490 LP  0  0  0  0  0  0  0  0  0  0  0  0  # atno 17370 bound_to 10713
  157.3707  130.7179  149.6563 LP  0  0  0  0  0  0  0  0  0  0  0  0  # atno 17371 bound_to 10713
  140.1618  134.4719  155.7889 LP  0  0  0  0  0  0  0  0  0  0  0  0  # atno 17394 bound_to 11000
  141.2207  133.6904  156.7557 LP  0  0  0  0  0  0  0  0  0  0  0  0  # atno 17395 bound_to 11000

$$$$
