AV-unprocessed.smi:2106|AV-procd|sdf|8599|dock8
  -GOLD-   2272011333D 1   1.00000     0.00000
 Structure written by MMmdl.
 48 49  0  0  0  0  0  0  0  0  2 V2000
  147.3890  128.8784  153.7112 C   0  0  0  0  0  0  0  0  0  0  0  0
  146.8590  130.0923  153.0051 C   0  0  0  0  0  0  0  0  0  0  0  0
  145.9975  130.1420  151.8744 C   0  0  0  0  0  0  0  0  0  0  0  0
  145.8298  131.4767  151.6342 C   0  0  0  0  0  0  0  0  0  0  0  0
  145.0312  132.1671  150.5777 C   0  0  0  0  0  0  0  0  0  0  0  0
  146.5702  132.1530  152.5888 N   0  0  0  0  0  0  0  0  0  0  0  0
  146.7556  133.5859  152.7705 C   0  0  0  0  0  0  0  0  0  0  0  0
  147.4962  133.8809  154.0763 C   0  0  0  0  0  0  0  0  0  0  0  0
  147.2732  133.2050  155.0799 O   0  0  0  0  0  0  0  0  0  0  0  0
  148.3982  134.8738  154.0426 N   0  0  0  0  0  0  0  0  0  0  0  0
  149.2876  135.2353  155.1416 C   0  0  0  0  0  0  0  0  0  0  0  0
  149.3148  136.7534  155.4092 C   0  0  0  0  0  0  0  0  0  0  0  0
  149.8029  137.5145  154.2267 N   0  3  1  0  0  0  0  0  0  0  0  0
  149.2570  138.8880  154.1160 C   0  0  0  0  0  0  0  0  0  0  0  0
  149.9802  139.8556  155.0755 C   0  0  2  0  0  0  0  0  0  0  0  0
  149.5005  141.3009  154.9048 C   0  0  0  0  0  0  0  0  0  0  0  0
  151.3778  139.8174  154.8048 O   0  0  0  0  0  0  0  0  0  0  0  0
  151.9456  138.5298  155.0207 C   0  0  2  0  0  0  0  0  0  0  0  0
  153.4567  138.6232  154.7831 C   0  0  0  0  0  0  0  0  0  0  0  0
  151.2773  137.5181  154.0687 C   0  0  0  0  0  0  0  0  0  0  0  0
  147.1971  131.2992  153.4281 N   0  0  0  0  0  0  0  0  0  0  0  0
  146.5738  128.2437  154.0588 H   0  0  0  0  0  0  0  0  0  0  0  0
  147.9932  129.1456  154.5788 H   0  0  0  0  0  0  0  0  0  0  0  0
  148.0120  128.2824  153.0445 H   0  0  0  0  0  0  0  0  0  0  0  0
  145.5667  129.3195  151.3228 H   0  0  0  0  0  0  0  0  0  0  0  0
  144.5495  131.4430  149.9207 H   0  0  0  0  0  0  0  0  0  0  0  0
  145.6634  132.8054  149.9614 H   0  0  0  0  0  0  0  0  0  0  0  0
  144.2515  132.7858  151.0218 H   0  0  0  0  0  0  0  0  0  0  0  0
  147.3078  133.9952  151.9240 H   0  0  0  0  0  0  0  0  0  0  0  0
  145.7792  134.0733  152.7774 H   0  0  0  0  0  0  0  0  0  0  0  0
  148.5027  135.3878  153.1797 H   0  0  0  0  0  0  0  0  0  0  0  0
  148.9380  134.7152  156.0340 H   0  0  0  0  0  0  0  0  0  0  0  0
  150.2955  134.8659  154.9451 H   0  0  0  0  0  0  0  0  0  0  0  0
  148.3128  137.0786  155.6914 H   0  0  0  0  0  0  0  0  0  0  0  0
  149.9404  136.9577  156.2790 H   0  0  0  0  0  0  0  0  0  0  0  0
  149.3936  139.2250  153.0875 H   0  0  0  0  0  0  0  0  0  0  0  0
  148.1814  138.8827  154.2970 H   0  0  0  0  0  0  0  0  0  0  0  0
  149.8071  139.5567  156.1108 H   0  0  0  0  0  0  0  0  0  0  0  0
  148.4336  141.3875  155.1115 H   0  0  0  0  0  0  0  0  0  0  0  0
  149.6753  141.6586  153.8897 H   0  0  0  0  0  0  0  0  0  0  0  0
  150.0258  141.9687  155.5879 H   0  0  0  0  0  0  0  0  0  0  0  0
  151.7796  138.2359  156.0582 H   0  0  0  0  0  0  0  0  0  0  0  0
  153.9385  137.6578  154.9407 H   0  0  0  0  0  0  0  0  0  0  0  0
  153.9155  139.3392  155.4653 H   0  0  0  0  0  0  0  0  0  0  0  0
  153.6774  138.9447  153.7649 H   0  0  0  0  0  0  0  0  0  0  0  0
  151.6777  136.5186  154.2325 H   0  0  0  0  0  0  0  0  0  0  0  0
  151.5087  137.7779  153.0347 H   0  0  0  0  0  0  0  0  0  0  0  0
  149.4408  137.0087  153.4312 H   0  0  0  0  0  0  0  0  0  0  0  0
  1  2  1  0  0  0  0
  1 22  1  0  0  0  0
  1 23  1  0  0  0  0
  1 24  1  0  0  0  0
  2 21  2  0  0  0  0
  2  3  1  0  0  0  0
  3  4  2  0  0  0  0
  3 25  1  0  0  0  0
  4  5  1  0  0  0  0
  4  6  1  0  0  0  0
  5 26  1  0  0  0  0
  5 27  1  0  0  0  0
  5 28  1  0  0  0  0
  6  7  1  0  0  0  0
  6 21  1  0  0  0  0
  7  8  1  0  0  0  0
  7 29  1  0  0  0  0
  7 30  1  0  0  0  0
  8  9  2  0  0  0  0
  8 10  1  0  0  0  0
 10 11  1  0  0  0  0
 10 31  1  0  0  0  0
 11 12  1  0  0  0  0
 11 32  1  0  0  0  0
 11 33  1  0  0  0  0
 12 13  1  0  0  0  0
 12 34  1  0  0  0  0
 12 35  1  0  0  0  0
 13 20  1  0  0  0  0
 13 14  1  0  0  0  0
 13 48  1  0  0  0  0
 14 15  1  0  0  0  0
 14 36  1  0  0  0  0
 14 37  1  0  0  0  0
 15 16  1  0  0  0  0
 15 17  1  0  0  0  0
 15 38  1  0  0  0  0
 16 39  1  0  0  0  0
 16 40  1  0  0  0  0
 16 41  1  0  0  0  0
 17 18  1  0  0  0  0
 18 19  1  0  0  0  0
 18 20  1  0  0  0  0
 18 42  1  0  0  0  0
 19 43  1  0  0  0  0
 19 44  1  0  0  0  0
 19 45  1  0  0  0  0
 20 46  1  0  0  0  0
 20 47  1  0  0  0  0
M  CHG  1  13   1
M  END
> <s_m_source_file>
AV-unprocessed.smi

> <i_m_source_file_index>
2106

> <i_lp_mmshare_version>
43012

> <i_f3d_flags>
0

> <s_epik_input>
W0NIM11jMVtjSF1jKFtDSDNdKW4objEpW0NIMl1DKD1PKVtOSF1bQ0gyXVtDSDJdTjJbQ0gyXVtDQEBIXShbQ0gzXSlPW0NAQEhdKFtDSDNdKVtDSDJdMg==

> <s_epik_cmdline>
J2VwaWtfcHl0aG9uJywgJy1waCcsICc3LjAnLCAnLXRuJywgJzgnLCAnLW1hJywgJzIwMCcsICctbWV0YWxfYmluZGluZycsICctaW1hZScsICc8aW5maWxlLm1hZT4nLCAnLW9tYWUnLCAnPG91dGZpbGUubWFlPic=

> <r_lp_tautomer_probability>
1

> <r_epik_Ionization_Penalty>
0.748586

> <r_epik_Ionization_Penalty_Charging>
0.748396

> <r_epik_Ionization_Penalty_Neutral>
0.000189656

> <r_epik_State_Penalty>
0.775162

> <r_epik_Charging_Adjusted_Penalty>
1.52356

> <i_epik_Tot_Q>
1

> <i_epik_Tot_abs_Q>
1

> <r_epik_Metal_State_Penalty>
0.775295

> <b_epik_Metal_Only>
0

> <s_lp_Force_Field>
OPLS_2005

> <r_lp_Energy>
21.363

> <b_lp_Chiralities_Consistent>
1

> <s_lp_Variant>
AV-unprocessed.smi:2106-7

> <Gold.Version>
5.8.1

> <Gold.Id.Protein>
6NUR|6NUR_protein|mol2

> <Gold.PLP.Fitness>
46.7565

> <Gold.PLP.PLP>
-36.1562

> <Gold.PLP.part.hbond>
-3.0000

> <Gold.PLP.part.metal>
0.0000

> <Gold.PLP.part.buried>
-1.6980

> <Gold.PLP.part.nonpolar>
-31.9197

> <Gold.PLP.part.repulsive>
0.2084

> <Gold.PLP.ligand.clash>
0.0000

> <Gold.PLP.ligand.torsion>
0.7243

> <Gold.PLP.Chemscore.Hbond>
4.0000

> <Gold.PLP.Chemscore.CHOScore>
0.0000

> <Gold.PLP.Chemscore.Metal>
0.0000

> <Gold.Chemscore.Hbonds>
donor molecule, donor type, donor heavy atom, donor atom, acceptor molecule, acceptor atom, score
      L1  H    10    31       P1  7948  1.00
      L1  H    13    48       P1  7948  2.00
      P1  H  7989  7998       L1    17  1.00

> <Gold.PLP.Chemscore.Internal.Correction>
0.0488

> <Gold.Rescore>
     Score         DG    S(hbond)    S(metal)    S(lipo)     H(rot)  DE(clash)    DE(int)     intcor
     19.01     -22.33       2.88        0.00      99.68       1.73       0.86       2.46       ----

> <Gold.Chemscore.Fitness>
19.0129

> <Gold.Chemscore.DG>
-22.3320

> <Gold.Chemscore.ZeroCoef>
-5.4800

> <Gold.Chemscore.Hbond>
2.8810

> <Gold.Chemscore.Metal>
0.0000

> <Gold.Chemscore.Lipo>
99.6785

> <Gold.Chemscore.Internal_Hbond>
0.0000

> <Gold.Chemscore.DEClash>
0.8574

> <Gold.Chemscore.DEInternal>
2.4617

> <Gold.Chemscore.Rot>
1.7316

> <Gold.Chemscore.Internal.Correction>
   9.000000E+99

> <Gold.Chemscore.Hbonds>
donor molecule, donor type, donor heavy atom, donor atom, acceptor molecule, acceptor atom, score
      L1  H    10    31       P1  7948  0.94
      L1  H    13    48       P1  7948  0.91
      P1  H  7989  7998       L1    17  0.60

> <Gold.Chemscore.Hbond.Weighted>
-9.6227

> <Gold.Chemscore.Metal.Weighted>
-0.0000

> <Gold.Chemscore.Lipo.Weighted>
-11.6624

> <Gold.Chemscore.Internal_Hbond.Weighted>
0.0000

> <Gold.Chemscore.DEClash.Weighted>
0.8574

> <Gold.Chemscore.DEInternal.Weighted>
2.4617

> <Gold.Chemscore.Rot.Weighted>
4.4330

> <Gold.Chemscore.Internal.Correction.Weighted>
   9.000000E+99

> <Gold.Protein.RotatedTorsions>
[ 6907 6896 6895 6894 ] final  -37.31 input  -60.11 | X-H torsion
[ 7974 7965 7964 7962 ] final  129.79 input  175.53 | X-H torsion
[ 8008 7997 7996 7995 ] final  -35.68 input   59.86 | X-H torsion
[ 10167 10162 10161 10158 ] final  174.31 input  -65.29 | X-H torsion
[ 10718 10713 10712 10709 ] final  130.63 input   66.30 | X-H torsion
[ 10763 10752 10751 10750 ] final   51.92 input  -60.55 | X-H torsion
[ 11005 11000 10999 10996 ] final  -16.41 input  -57.11 | X-H torsion

> <Gold.Protein.ActiveResidues>
 VAL166  LYS551  ARG553  GLY616  TRP617  ASP618  TYR619  PRO620  LYS621  CYS622 
 ASP623  PHE694  ASN695  SER759  ASP760  ASP761  ALA762  ILE779  LEU786  VAL792 
 PHE793  MET794  SER795  GLU796  ALA797  LYS798  CYS799  TRP800  GLU811  SER814 

> <Gold.Protein.RotatedAtoms>
  151.0163  134.9435  159.8034 H   0  0  0  0  0  0  0  0  0  0  0  0  # atno 6907 bound_to 6896
  152.5314  134.2963  159.9071 H   0  0  0  0  0  0  0  0  0  0  0  0  # atno 6908 bound_to 6896
  151.2969  133.4098  159.2671 H   0  0  0  0  0  0  0  0  0  0  0  0  # atno 6909 bound_to 6896
  145.0248  139.4099  143.5179 H   0  0  0  0  0  0  0  0  0  0  0  0  # atno 7974 bound_to 7965
  154.4090  140.1650  156.2252 H   0  0  0  0  0  0  0  0  0  0  0  0  # atno 8008 bound_to 7997
  155.9330  140.3413  155.6241 H   0  0  0  0  0  0  0  0  0  0  0  0  # atno 8009 bound_to 7997
  155.7083  140.0753  157.2372 H   0  0  0  0  0  0  0  0  0  0  0  0  # atno 8010 bound_to 7997
  139.5137  144.3161  152.0246 H   0  0  0  0  0  0  0  0  0  0  0  0  # atno 10167 bound_to 10162
  157.5043  131.1095  150.9383 H   0  0  0  0  0  0  0  0  0  0  0  0  # atno 10718 bound_to 10713
  152.9787  135.5830  154.4493 H   0  0  0  0  0  0  0  0  0  0  0  0  # atno 10763 bound_to 10752
  154.4084  135.2769  155.2054 H   0  0  0  0  0  0  0  0  0  0  0  0  # atno 10764 bound_to 10752
  154.3854  135.6137  153.5868 H   0  0  0  0  0  0  0  0  0  0  0  0  # atno 10765 bound_to 10752
  140.8064  133.8174  155.9520 H   0  0  0  0  0  0  0  0  0  0  0  0  # atno 11005 bound_to 11000
  146.3490  139.9766  142.8700 LP  0  0  0  0  0  0  0  0  0  0  0  0  # atno 17320 bound_to 7965
  145.1847  140.9784  143.4245 LP  0  0  0  0  0  0  0  0  0  0  0  0  # atno 17321 bound_to 7965
  140.2604  144.4073  150.6188 LP  0  0  0  0  0  0  0  0  0  0  0  0  # atno 17342 bound_to 10162
  140.6161  143.2172  151.6788 LP  0  0  0  0  0  0  0  0  0  0  0  0  # atno 17343 bound_to 10162
  157.0043  130.5612  149.5314 LP  0  0  0  0  0  0  0  0  0  0  0  0  # atno 17370 bound_to 10713
  156.0249  130.5343  150.8378 LP  0  0  0  0  0  0  0  0  0  0  0  0  # atno 17371 bound_to 10713
  140.9242  134.2103  157.4907 LP  0  0  0  0  0  0  0  0  0  0  0  0  # atno 17394 bound_to 11000
  139.8717  134.9805  156.5079 LP  0  0  0  0  0  0  0  0  0  0  0  0  # atno 17395 bound_to 11000

$$$$
