AV-unprocessed.smi:1445|AV-procd|sdf|5887|dock1
  -GOLD-   22720 5563D 1   1.00000     0.00000
 Structure written by MMmdl.
 46 47  0  0  0  0  0  0  0  0  2 V2000
  151.6970  138.2696  154.4547 C   0  0  0  0  0  0  0  0  0  0  0  0
  150.3441  138.3265  154.0148 O   0  0  0  0  0  0  0  0  0  0  0  0
  149.6468  139.5087  154.1771 C   0  0  0  0  0  0  0  0  0  0  0  0
  150.2517  140.5273  154.8381 N   0  0  0  0  0  0  0  0  0  0  0  0
  149.5768  141.6845  154.9923 C   0  0  0  0  0  0  0  0  0  0  0  0
  148.2767  141.8888  154.4962 C   0  0  0  0  0  0  0  0  0  0  0  0
  147.6467  140.8342  153.8103 C   0  0  0  0  0  0  0  0  0  0  0  0
  148.3370  139.6072  153.6502 C   0  0  0  0  0  0  0  0  0  0  0  0
  147.8089  138.4764  152.9648 N   0  0  0  0  0  0  0  0  0  0  0  0
  146.5329  138.0697  152.8491 C   0  0  0  0  0  0  0  0  0  0  0  0
  145.5553  138.6205  153.3543 O   0  0  0  0  0  0  0  0  0  0  0  0
  146.4454  136.9543  152.1104 N   0  0  0  0  0  0  0  0  0  0  0  0
  145.2005  136.2718  151.7767 C   0  0  0  0  0  0  0  0  0  0  0  0
  144.9240  135.0906  152.7278 C   0  0  0  0  0  0  0  0  0  0  0  0
  144.8900  133.7885  152.0157 N   0  3  1  0  0  0  0  0  0  0  0  0
  144.0814  133.8485  150.7709 C   0  0  0  0  0  0  0  0  0  0  0  0
  143.9276  132.4539  150.1437 C   0  0  0  0  0  0  0  0  0  0  0  0
  145.2975  131.8126  149.8799 C   0  0  0  0  0  0  0  0  0  0  0  0
  146.1679  131.8089  151.1504 C   0  0  2  0  0  0  0  0  0  0  0  0
  145.7168  130.7588  152.1810 C   0  0  0  0  0  0  0  0  0  0  0  0
  146.2438  133.2251  151.7580 C   0  0  0  0  0  0  0  0  0  0  0  0
  152.1012  137.2781  154.2521 H   0  0  0  0  0  0  0  0  0  0  0  0
  151.7748  138.4449  155.5286 H   0  0  0  0  0  0  0  0  0  0  0  0
  152.3197  138.9939  153.9276 H   0  0  0  0  0  0  0  0  0  0  0  0
  150.0907  142.4728  155.5221 H   0  0  0  0  0  0  0  0  0  0  0  0
  147.7752  142.8351  154.6348 H   0  0  0  0  0  0  0  0  0  0  0  0
  146.6573  140.9981  153.4148 H   0  0  0  0  0  0  0  0  0  0  0  0
  148.5019  137.8779  152.5394 H   0  0  0  0  0  0  0  0  0  0  0  0
  147.2976  136.5625  151.7359 H   0  0  0  0  0  0  0  0  0  0  0  0
  144.3870  136.9976  151.7889 H   0  0  0  0  0  0  0  0  0  0  0  0
  145.2774  135.9112  150.7505 H   0  0  0  0  0  0  0  0  0  0  0  0
  145.7169  135.0721  153.4769 H   0  0  0  0  0  0  0  0  0  0  0  0
  143.9897  135.2298  153.2738 H   0  0  0  0  0  0  0  0  0  0  0  0
  143.0913  134.2499  150.9905 H   0  0  0  0  0  0  0  0  0  0  0  0
  144.5511  134.5327  150.0623 H   0  0  0  0  0  0  0  0  0  0  0  0
  143.3383  131.8170  150.8039 H   0  0  0  0  0  0  0  0  0  0  0  0
  143.3676  132.5264  149.2109 H   0  0  0  0  0  0  0  0  0  0  0  0
  145.1749  130.7996  149.4949 H   0  0  0  0  0  0  0  0  0  0  0  0
  145.8085  132.3759  149.0977 H   0  0  0  0  0  0  0  0  0  0  0  0
  147.1781  131.5280  150.8494 H   0  0  0  0  0  0  0  0  0  0  0  0
  144.7165  130.9638  152.5622 H   0  0  0  0  0  0  0  0  0  0  0  0
  146.3947  130.7339  153.0347 H   0  0  0  0  0  0  0  0  0  0  0  0
  145.7070  129.7600  151.7436 H   0  0  0  0  0  0  0  0  0  0  0  0
  146.7799  133.8889  151.0778 H   0  0  0  0  0  0  0  0  0  0  0  0
  146.8296  133.1891  152.6756 H   0  0  0  0  0  0  0  0  0  0  0  0
  144.4131  133.1420  152.6278 H   0  0  0  0  0  0  0  0  0  0  0  0
  1  2  1  0  0  0  0
  1 22  1  0  0  0  0
  1 23  1  0  0  0  0
  1 24  1  0  0  0  0
  2  3  1  0  0  0  0
  3  8  1  0  0  0  0
  3  4  2  0  0  0  0
  4  5  1  0  0  0  0
  5  6  2  0  0  0  0
  5 25  1  0  0  0  0
  6  7  1  0  0  0  0
  6 26  1  0  0  0  0
  7  8  2  0  0  0  0
  7 27  1  0  0  0  0
  8  9  1  0  0  0  0
  9 10  1  0  0  0  0
  9 28  1  0  0  0  0
 10 11  2  0  0  0  0
 10 12  1  0  0  0  0
 12 13  1  0  0  0  0
 12 29  1  0  0  0  0
 13 14  1  0  0  0  0
 13 30  1  0  0  0  0
 13 31  1  0  0  0  0
 14 15  1  0  0  0  0
 14 32  1  0  0  0  0
 14 33  1  0  0  0  0
 15 21  1  0  0  0  0
 15 16  1  0  0  0  0
 15 46  1  0  0  0  0
 16 17  1  0  0  0  0
 16 34  1  0  0  0  0
 16 35  1  0  0  0  0
 17 18  1  0  0  0  0
 17 36  1  0  0  0  0
 17 37  1  0  0  0  0
 18 19  1  0  0  0  0
 18 38  1  0  0  0  0
 18 39  1  0  0  0  0
 19 20  1  0  0  0  0
 19 21  1  0  0  0  0
 19 40  1  0  0  0  0
 20 41  1  0  0  0  0
 20 42  1  0  0  0  0
 20 43  1  0  0  0  0
 21 44  1  0  0  0  0
 21 45  1  0  0  0  0
M  CHG  1  15   1
M  END
> <s_m_source_file>
AV-unprocessed.smi

> <i_m_source_file_index>
1445

> <i_lp_mmshare_version>
43012

> <i_f3d_flags>
0

> <s_epik_input>
W0NIM11PYzFuW2NIXVtjSF1bY0hdYzFbTkhdQyg9TylbTkhdW0NIMl1bQ0gyXU4yW0NIMl1bQ0gyXVtDSDJdW0NAQEhdKFtDSDNdKVtDSDJdMg==

> <s_epik_cmdline>
J2VwaWtfcHl0aG9uJywgJy1waCcsICc3LjAnLCAnLXRuJywgJzgnLCAnLW1hJywgJzIwMCcsICctbWV0YWxfYmluZGluZycsICctaW1hZScsICc8aW5maWxlLm1hZT4nLCAnLW9tYWUnLCAnPG91dGZpbGUubWFlPic=

> <r_lp_tautomer_probability>
1

> <r_epik_Ionization_Penalty>
0.00179544

> <r_epik_Ionization_Penalty_Charging>
0.00171832

> <r_epik_Ionization_Penalty_Neutral>
7.71118e-05

> <r_epik_State_Penalty>
0.0011618

> <r_epik_Charging_Adjusted_Penalty>
0.00288012

> <i_epik_Tot_Q>
1

> <i_epik_Tot_abs_Q>
1

> <r_epik_Metal_State_Penalty>
-0

> <b_epik_Metal_Only>
0

> <s_lp_Force_Field>
OPLS_2005

> <r_lp_Energy>
21.8859

> <b_lp_Chiralities_Consistent>
1

> <s_lp_Variant>
AV-unprocessed.smi:1445-3

> <Gold.Version>
5.8.1

> <Gold.Id.Protein>
6NUR|6NUR_protein|mol2

> <Gold.PLP.Fitness>
45.0237

> <Gold.PLP.PLP>
-36.1509

> <Gold.PLP.part.hbond>
-4.0000

> <Gold.PLP.part.metal>
0.0000

> <Gold.PLP.part.buried>
0.2743

> <Gold.PLP.part.nonpolar>
-34.8327

> <Gold.PLP.part.repulsive>
2.8965

> <Gold.PLP.ligand.clash>
0.0000

> <Gold.PLP.ligand.torsion>
0.9020

> <Gold.PLP.Chemscore.Hbond>
2.8024

> <Gold.PLP.Chemscore.CHOScore>
0.7304

> <Gold.PLP.Chemscore.Metal>
0.0000

> <Gold.Chemscore.Hbonds>
donor molecule, donor type, donor heavy atom, donor atom, acceptor molecule, acceptor atom, score
      L1  H     9    28       P1  7948  1.00
      L1  H    12    29       P1  7948  1.00
      P1  H  7989  7998       L1     4  0.82
      L1  C     5    25       P1  8028  0.69

> <Gold.PLP.Chemscore.Internal.Correction>
0.0782

> <Gold.Rescore>
     Score         DG    S(hbond)    S(metal)    S(lipo)     H(rot)  DE(clash)    DE(int)     intcor
     16.57     -18.43       1.92        0.00      93.24       1.71       0.31       1.54       ----

> <Gold.Chemscore.Fitness>
16.5727

> <Gold.Chemscore.DG>
-18.4284

> <Gold.Chemscore.ZeroCoef>
-5.4800

> <Gold.Chemscore.Hbond>
1.9217

> <Gold.Chemscore.Metal>
0.0000

> <Gold.Chemscore.Lipo>
93.2417

> <Gold.Chemscore.Internal_Hbond>
0.0000

> <Gold.Chemscore.DEClash>
0.3130

> <Gold.Chemscore.DEInternal>
1.5427

> <Gold.Chemscore.Rot>
1.7107

> <Gold.Chemscore.Internal.Correction>
   9.000000E+99

> <Gold.Chemscore.Hbonds>
donor molecule, donor type, donor heavy atom, donor atom, acceptor molecule, acceptor atom, score
      L1  H     9    28       P1  7948  0.94
      L1  H    12    29       P1  7948  0.97
      P1  H  7989  7998       L1     4  0.07

> <Gold.Chemscore.Hbond.Weighted>
-6.4186

> <Gold.Chemscore.Metal.Weighted>
-0.0000

> <Gold.Chemscore.Lipo.Weighted>
-10.9093

> <Gold.Chemscore.Internal_Hbond.Weighted>
0.0000

> <Gold.Chemscore.DEClash.Weighted>
0.3130

> <Gold.Chemscore.DEInternal.Weighted>
1.5427

> <Gold.Chemscore.Rot.Weighted>
4.3794

> <Gold.Chemscore.Internal.Correction.Weighted>
   9.000000E+99

> <Gold.Protein.RotatedTorsions>
[ 6907 6896 6895 6894 ] final  -87.87 input  -60.11 | X-H torsion
[ 7974 7965 7964 7962 ] final  143.85 input  175.53 | X-H torsion
[ 8008 7997 7996 7995 ] final  -57.07 input   59.86 | X-H torsion
[ 10167 10162 10161 10158 ] final -102.02 input  -65.29 | X-H torsion
[ 10718 10713 10712 10709 ] final  -15.56 input   66.30 | X-H torsion
[ 10763 10752 10751 10750 ] final -118.45 input  -60.55 | X-H torsion
[ 11005 11000 10999 10996 ] final  -88.70 input  -57.11 | X-H torsion

> <Gold.Protein.ActiveResidues>
 VAL166  LYS551  ARG553  GLY616  TRP617  ASP618  TYR619  PRO620  LYS621  CYS622 
 ASP623  PHE694  ASN695  SER759  ASP760  ASP761  ALA762  ILE779  LEU786  VAL792 
 PHE793  MET794  SER795  GLU796  ALA797  LYS798  CYS799  TRP800  GLU811  SER814 

> <Gold.Protein.RotatedAtoms>
  150.6867  134.2830  159.4634 H   0  0  0  0  0  0  0  0  0  0  0  0  # atno 6907 bound_to 6896
  152.0742  134.9511  160.0583 H   0  0  0  0  0  0  0  0  0  0  0  0  # atno 6908 bound_to 6896
  152.0889  133.4155  159.4572 H   0  0  0  0  0  0  0  0  0  0  0  0  # atno 6909 bound_to 6896
  144.8886  139.5592  143.5809 H   0  0  0  0  0  0  0  0  0  0  0  0  # atno 7974 bound_to 7965
  154.4254  140.1115  156.5739 H   0  0  0  0  0  0  0  0  0  0  0  0  # atno 8008 bound_to 7997
  155.6183  140.3495  155.4625 H   0  0  0  0  0  0  0  0  0  0  0  0  # atno 8009 bound_to 7997
  156.0044  140.1206  157.0505 H   0  0  0  0  0  0  0  0  0  0  0  0  # atno 8010 bound_to 7997
  140.2351  143.3579  152.0852 H   0  0  0  0  0  0  0  0  0  0  0  0  # atno 10167 bound_to 10162
  156.6000  130.4821  149.6243 H   0  0  0  0  0  0  0  0  0  0  0  0  # atno 10718 bound_to 10713
  154.8588  135.4273  154.2142 H   0  0  0  0  0  0  0  0  0  0  0  0  # atno 10763 bound_to 10752
  153.3161  135.6979  153.7078 H   0  0  0  0  0  0  0  0  0  0  0  0  # atno 10764 bound_to 10752
  153.6151  135.3512  155.2966 H   0  0  0  0  0  0  0  0  0  0  0  0  # atno 10765 bound_to 10752
  141.1597  133.7585  156.9489 H   0  0  0  0  0  0  0  0  0  0  0  0  # atno 11005 bound_to 11000
  146.3039  139.7517  142.9070 LP  0  0  0  0  0  0  0  0  0  0  0  0  # atno 17320 bound_to 7965
  145.3824  141.0360  143.3170 LP  0  0  0  0  0  0  0  0  0  0  0  0  # atno 17321 bound_to 7965
  139.5096  144.6871  151.5859 LP  0  0  0  0  0  0  0  0  0  0  0  0  # atno 17342 bound_to 10162
  140.6156  143.9355  150.6486 LP  0  0  0  0  0  0  0  0  0  0  0  0  # atno 17343 bound_to 10162
  156.2477  130.6888  151.1615 LP  0  0  0  0  0  0  0  0  0  0  0  0  # atno 17370 bound_to 10713
  157.7282  131.0633  150.5831 LP  0  0  0  0  0  0  0  0  0  0  0  0  # atno 17371 bound_to 10713
  140.1271  134.9380  157.2285 LP  0  0  0  0  0  0  0  0  0  0  0  0  # atno 17394 bound_to 11000
  140.2999  134.3143  155.7292 LP  0  0  0  0  0  0  0  0  0  0  0  0  # atno 17395 bound_to 11000

$$$$
