AV-unprocessed.smi:2440|AV-procd|sdf|9616|dock6
  -GOLD-   2272013253D 1   1.00000     0.00000
 Structure written by MMmdl.
 52 54  0  0  0  0  0  0  0  0  2 V2000
  147.8493  132.9921  151.9196 C   0  0  0  0  0  0  0  0  0  0  0  0
  146.4870  133.0592  151.2515 C   0  0  0  0  0  0  0  0  0  0  0  0
  145.9217  131.8958  150.6856 C   0  0  0  0  0  0  0  0  0  0  0  0
  144.7200  131.8720  150.0732 N   0  0  0  0  0  0  0  0  0  0  0  0
  144.0296  133.0282  149.9986 C   0  0  0  0  0  0  0  0  0  0  0  0
  144.4971  134.2464  150.5290 C   0  0  0  0  0  0  0  0  0  0  0  0
  145.7517  134.2675  151.1848 C   0  0  0  0  0  0  0  0  0  0  0  0
  146.3232  135.4511  151.7320 N   0  0  0  0  0  0  0  0  0  0  0  0
  145.6980  136.5431  152.2049 C   0  0  0  0  0  0  0  0  0  0  0  0
  144.4781  136.6903  152.2751 O   0  0  0  0  0  0  0  0  0  0  0  0
  146.5818  137.4635  152.6187 N   0  0  0  0  0  0  0  0  0  0  0  0
  146.2523  138.7655  153.1932 C   0  0  2  0  0  0  0  0  0  0  0  0
  147.3318  139.7946  152.8105 C   0  0  0  0  0  0  0  0  0  0  0  0
  147.1007  141.1340  153.5361 C   0  0  0  0  0  0  0  0  0  0  0  0
  147.0706  140.9624  155.0175 N   0  3  2  0  0  0  0  0  0  0  0  0
  148.3947  140.6540  155.6621 C   0  0  0  0  0  0  0  0  0  0  0  0
  148.3301  140.7884  157.2079 C   0  0  0  0  0  0  0  0  0  0  0  0
  149.6863  140.5450  157.8884 C   0  0  0  0  0  0  0  0  0  0  0  0
  150.7655  141.4796  157.3349 C   0  0  0  0  0  0  0  0  0  0  0  0
  150.8806  141.3144  155.8171 C   0  0  0  0  0  0  0  0  0  0  0  0
  149.5327  141.5623  155.1215 C   0  0  0  0  0  0  0  0  0  0  0  0
  145.9544  140.0386  155.3733 C   0  0  0  0  0  0  0  0  0  0  0  0
  146.1272  138.6514  154.7240 C   0  0  0  0  0  0  0  0  0  0  0  0
  148.2605  131.9828  151.8823 H   0  0  0  0  0  0  0  0  0  0  0  0
  147.7741  133.2864  152.9669 H   0  0  0  0  0  0  0  0  0  0  0  0
  148.5523  133.6607  151.4220 H   0  0  0  0  0  0  0  0  0  0  0  0
  146.4489  130.9538  150.7223 H   0  0  0  0  0  0  0  0  0  0  0  0
  143.0762  132.9846  149.4930 H   0  0  0  0  0  0  0  0  0  0  0  0
  143.8954  135.1343  150.4104 H   0  0  0  0  0  0  0  0  0  0  0  0
  147.3279  135.4385  151.8270 H   0  0  0  0  0  0  0  0  0  0  0  0
  147.5633  137.2454  152.5269 H   0  0  0  0  0  0  0  0  0  0  0  0
  145.2983  139.1253  152.8033 H   0  0  0  0  0  0  0  0  0  0  0  0
  148.3244  139.4092  153.0462 H   0  0  0  0  0  0  0  0  0  0  0  0
  147.3186  139.9565  151.7318 H   0  0  0  0  0  0  0  0  0  0  0  0
  147.8228  141.8831  153.2191 H   0  0  0  0  0  0  0  0  0  0  0  0
  146.1376  141.5398  153.2232 H   0  0  0  0  0  0  0  0  0  0  0  0
  148.6620  139.6227  155.4315 H   0  0  0  0  0  0  0  0  0  0  0  0
  147.9629  141.7799  157.4768 H   0  0  0  0  0  0  0  0  0  0  0  0
  147.6346  140.0694  157.6370 H   0  0  0  0  0  0  0  0  0  0  0  0
  149.5916  140.6873  158.9653 H   0  0  0  0  0  0  0  0  0  0  0  0
  149.9895  139.5078  157.7398 H   0  0  0  0  0  0  0  0  0  0  0  0
  150.5216  142.5144  157.5786 H   0  0  0  0  0  0  0  0  0  0  0  0
  151.7243  141.2657  157.8081 H   0  0  0  0  0  0  0  0  0  0  0  0
  151.6313  142.0022  155.4265 H   0  0  0  0  0  0  0  0  0  0  0  0
  151.2328  140.3086  155.5842 H   0  0  0  0  0  0  0  0  0  0  0  0
  149.6978  141.3941  154.0586 H   0  0  0  0  0  0  0  0  0  0  0  0
  149.2539  142.6110  155.2354 H   0  0  0  0  0  0  0  0  0  0  0  0
  145.8133  139.9523  156.4482 H   0  0  0  0  0  0  0  0  0  0  0  0
  145.0238  140.4798  155.0134 H   0  0  0  0  0  0  0  0  0  0  0  0
  145.2731  138.0215  154.9766 H   0  0  0  0  0  0  0  0  0  0  0  0
  147.0031  138.1521  155.1398 H   0  0  0  0  0  0  0  0  0  0  0  0
  146.8065  141.8642  155.3888 H   0  0  0  0  0  0  0  0  0  0  0  0
  1  2  1  0  0  0  0
  1 24  1  0  0  0  0
  1 25  1  0  0  0  0
  1 26  1  0  0  0  0
  2  7  1  0  0  0  0
  2  3  2  0  0  0  0
  3  4  1  0  0  0  0
  3 27  1  0  0  0  0
  4  5  2  0  0  0  0
  5  6  1  0  0  0  0
  5 28  1  0  0  0  0
  6  7  2  0  0  0  0
  6 29  1  0  0  0  0
  7  8  1  0  0  0  0
  8  9  1  0  0  0  0
  8 30  1  0  0  0  0
  9 10  2  0  0  0  0
  9 11  1  0  0  0  0
 11 12  1  0  0  0  0
 11 31  1  0  0  0  0
 12 23  1  0  0  0  0
 12 13  1  0  0  0  0
 12 32  1  0  0  0  0
 13 14  1  0  0  0  0
 13 33  1  0  0  0  0
 13 34  1  0  0  0  0
 14 15  1  0  0  0  0
 14 35  1  0  0  0  0
 14 36  1  0  0  0  0
 15 16  1  0  0  0  0
 15 22  1  0  0  0  0
 15 52  1  0  0  0  0
 16 21  1  0  0  0  0
 16 17  1  0  0  0  0
 16 37  1  0  0  0  0
 17 18  1  0  0  0  0
 17 38  1  0  0  0  0
 17 39  1  0  0  0  0
 18 19  1  0  0  0  0
 18 40  1  0  0  0  0
 18 41  1  0  0  0  0
 19 20  1  0  0  0  0
 19 42  1  0  0  0  0
 19 43  1  0  0  0  0
 20 21  1  0  0  0  0
 20 44  1  0  0  0  0
 20 45  1  0  0  0  0
 21 46  1  0  0  0  0
 21 47  1  0  0  0  0
 22 23  1  0  0  0  0
 22 48  1  0  0  0  0
 22 49  1  0  0  0  0
 23 50  1  0  0  0  0
 23 51  1  0  0  0  0
M  CHG  1  15   1
M  END
> <s_m_source_file>
AV-unprocessed.smi

> <i_m_source_file_index>
2440

> <i_lp_mmshare_version>
43012

> <i_f3d_flags>
0

> <s_epik_input>
W0NIM11jMVtjSF1uW2NIXVtjSF1jMVtOSF1DKD1PKVtOSF1bQ0hdMltDSDJdW0NIMl1OKFtDSDJdW0NIMl0yKVtDSF0zW0NIMl1bQ0gyXVtDSDJdW0NIMl1bQ0gyXTM=

> <s_epik_cmdline>
J2VwaWtfcHl0aG9uJywgJy1waCcsICc3LjAnLCAnLXRuJywgJzgnLCAnLW1hJywgJzIwMCcsICctbWV0YWxfYmluZGluZycsICctaW1hZScsICc8aW5maWxlLm1hZT4nLCAnLW9tYWUnLCAnPG91dGZpbGUubWFlPic=

> <r_epik_Ionization_Penalty>
0.180356

> <r_epik_Ionization_Penalty_Charging>
0.00171891

> <r_epik_Ionization_Penalty_Neutral>
0.178637

> <r_epik_State_Penalty>
0.173134

> <r_epik_Charging_Adjusted_Penalty>
0.174853

> <i_epik_Tot_Q>
1

> <i_epik_Tot_abs_Q>
1

> <r_epik_Metal_State_Penalty>
0.131816

> <b_epik_Metal_Only>
0

> <s_lp_Force_Field>
OPLS_2005

> <r_lp_Energy>
36.8114

> <b_lp_Chiralities_Consistent>
1

> <s_lp_Variant>
AV-unprocessed.smi:2440-2

> <Gold.Version>
5.8.1

> <Gold.Id.Protein>
6NUR|6NUR_protein|mol2

> <Gold.PLP.Fitness>
44.1434

> <Gold.PLP.PLP>
-34.2533

> <Gold.PLP.part.hbond>
-2.0437

> <Gold.PLP.part.metal>
0.0000

> <Gold.PLP.part.buried>
-1.1330

> <Gold.PLP.part.nonpolar>
-31.4856

> <Gold.PLP.part.repulsive>
0.6937

> <Gold.PLP.ligand.clash>
0.0000

> <Gold.PLP.ligand.torsion>
0.6301

> <Gold.PLP.Chemscore.Hbond>
2.0000

> <Gold.PLP.Chemscore.CHOScore>
1.7018

> <Gold.PLP.Chemscore.Metal>
0.0000

> <Gold.Chemscore.Hbonds>
donor molecule, donor type, donor heavy atom, donor atom, acceptor molecule, acceptor atom, score
      L1  H     8    30       P1  7948  1.00
      L1  H    11    31       P1  7948  1.00
      L1  C     3    27       P1 10747  0.76
      L1  C     5    28       P1 10186  1.00

> <Gold.PLP.Chemscore.Internal.Correction>
0.0449

> <Gold.Rescore>
     Score         DG    S(hbond)    S(metal)    S(lipo)     H(rot)  DE(clash)    DE(int)     intcor
     18.42     -20.36       1.97        0.00      96.70       1.17       1.29       0.65       ----

> <Gold.Chemscore.Fitness>
18.4232

> <Gold.Chemscore.DG>
-20.3600

> <Gold.Chemscore.ZeroCoef>
-5.4800

> <Gold.Chemscore.Hbond>
1.9657

> <Gold.Chemscore.Metal>
0.0000

> <Gold.Chemscore.Lipo>
96.6982

> <Gold.Chemscore.Internal_Hbond>
0.0000

> <Gold.Chemscore.DEClash>
1.2896

> <Gold.Chemscore.DEInternal>
0.6472

> <Gold.Chemscore.Rot>
1.1715

> <Gold.Chemscore.Internal.Correction>
   9.000000E+99

> <Gold.Chemscore.Hbonds>
donor molecule, donor type, donor heavy atom, donor atom, acceptor molecule, acceptor atom, score
      L1  H     8    30       P1  7948  0.97
      L1  H    11    31       P1  7948  0.96

> <Gold.Chemscore.Hbond.Weighted>
-6.5655

> <Gold.Chemscore.Metal.Weighted>
-0.0000

> <Gold.Chemscore.Lipo.Weighted>
-11.3137

> <Gold.Chemscore.Internal_Hbond.Weighted>
0.0000

> <Gold.Chemscore.DEClash.Weighted>
1.2896

> <Gold.Chemscore.DEInternal.Weighted>
0.6472

> <Gold.Chemscore.Rot.Weighted>
2.9991

> <Gold.Chemscore.Internal.Correction.Weighted>
   9.000000E+99

> <Gold.Protein.RotatedTorsions>
[ 6907 6896 6895 6894 ] final  169.89 input  -60.11 | X-H torsion
[ 7974 7965 7964 7962 ] final   81.24 input  175.53 | X-H torsion
[ 8008 7997 7996 7995 ] final   91.54 input   59.86 | X-H torsion
[ 10167 10162 10161 10158 ] final   13.98 input  -65.29 | X-H torsion
[ 10718 10713 10712 10709 ] final  -63.04 input   66.30 | X-H torsion
[ 10763 10752 10751 10750 ] final -102.72 input  -60.55 | X-H torsion
[ 11005 11000 10999 10996 ] final -133.29 input  -57.11 | X-H torsion

> <Gold.Protein.ActiveResidues>
 VAL166  LYS551  ARG553  GLY616  TRP617  ASP618  TYR619  PRO620  LYS621  CYS622 
 ASP623  PHE694  ASN695  SER759  ASP760  ASP761  ALA762  ILE779  LEU786  VAL792 
 PHE793  MET794  SER795  GLU796  ALA797  LYS798  CYS799  TRP800  GLU811  SER814 

> <Gold.Protein.RotatedAtoms>
  151.8248  133.3400  159.3594 H   0  0  0  0  0  0  0  0  0  0  0  0  # atno 6907 bound_to 6896
  150.7283  134.5539  159.5818 H   0  0  0  0  0  0  0  0  0  0  0  0  # atno 6908 bound_to 6896
  152.2979  134.7646  160.0415 H   0  0  0  0  0  0  0  0  0  0  0  0  # atno 6909 bound_to 6896
  145.6408  139.2425  143.2032 H   0  0  0  0  0  0  0  0  0  0  0  0  # atno 7974 bound_to 7965
  156.0249  140.3336  155.7078 H   0  0  0  0  0  0  0  0  0  0  0  0  # atno 8008 bound_to 7997
  155.5968  140.0651  157.2761 H   0  0  0  0  0  0  0  0  0  0  0  0  # atno 8009 bound_to 7997
  154.4330  140.1817  156.1120 H   0  0  0  0  0  0  0  0  0  0  0  0  # atno 8010 bound_to 7997
  140.5966  143.8688  150.6924 H   0  0  0  0  0  0  0  0  0  0  0  0  # atno 10167 bound_to 10162
  156.0816  130.4216  150.1221 H   0  0  0  0  0  0  0  0  0  0  0  0  # atno 10718 bound_to 10713
  154.7755  135.4850  153.9735 H   0  0  0  0  0  0  0  0  0  0  0  0  # atno 10763 bound_to 10752
  153.1423  135.6775  153.9015 H   0  0  0  0  0  0  0  0  0  0  0  0  # atno 10764 bound_to 10752
  153.8686  135.3146  155.3419 H   0  0  0  0  0  0  0  0  0  0  0  0  # atno 10765 bound_to 10752
  140.9094  134.1588  157.4401 H   0  0  0  0  0  0  0  0  0  0  0  0  # atno 11005 bound_to 11000
  146.1282  140.7220  142.9424 LP  0  0  0  0  0  0  0  0  0  0  0  0  # atno 17320 bound_to 7965
  144.7158  140.4205  143.7045 LP  0  0  0  0  0  0  0  0  0  0  0  0  # atno 17321 bound_to 7965
  140.2224  143.3798  152.1632 LP  0  0  0  0  0  0  0  0  0  0  0  0  # atno 17342 bound_to 10162
  139.5263  144.7105  151.5219 LP  0  0  0  0  0  0  0  0  0  0  0  0  # atno 17343 bound_to 10162
  156.9251  130.9695  151.3542 LP  0  0  0  0  0  0  0  0  0  0  0  0  # atno 17370 bound_to 10713
  157.5935  130.8460  149.8694 LP  0  0  0  0  0  0  0  0  0  0  0  0  # atno 17371 bound_to 10713
  139.8755  134.9929  156.5621 LP  0  0  0  0  0  0  0  0  0  0  0  0  # atno 17394 bound_to 11000
  140.8130  133.8414  155.8827 LP  0  0  0  0  0  0  0  0  0  0  0  0  # atno 17395 bound_to 11000

$$$$
