AV-unprocessed.smi:542|AV-procd|sdf|2874|dock5
  -GOLD-   2262023363D 1   1.00000     0.00000
 Structure written by MMmdl.
 45 47  0  0  0  0  0  0  0  0  2 V2000
  150.4360  139.1746  154.6960 C   0  0  0  0  0  0  0  0  0  0  0  0
  151.4987  140.0386  155.0584 O   0  0  0  0  0  0  0  0  0  0  0  0
  152.2452  139.5477  156.1590 C   0  0  0  0  0  0  0  0  0  0  0  0
  151.5395  139.9649  157.4601 C   0  0  0  0  0  0  0  0  0  0  0  0
  152.3923  139.8022  158.6348 N   0  0  0  0  0  0  0  0  0  0  0  0
  152.8401  140.7491  159.5107 C   0  0  0  0  0  0  0  0  0  0  0  0
  152.5496  142.1164  159.3958 N   0  0  0  0  0  0  0  0  0  0  0  0
  152.0337  142.8256  158.2220 C   0  0  0  0  0  0  0  0  0  0  0  0
  150.8304  143.7226  158.5674 C   0  0  0  0  0  0  0  0  0  0  0  0
  151.2081  144.7511  159.6452 C   0  0  0  0  0  0  0  0  0  0  0  0
  150.0056  145.6058  160.0691 C   0  0  0  0  0  0  0  0  0  0  0  0
  151.8408  144.0159  160.8378 C   0  0  0  0  0  0  0  0  0  0  0  0
  152.9955  143.1095  160.3758 C   0  0  0  0  0  0  0  0  0  0  0  0
  153.5617  140.2584  160.5222 N   0  0  0  0  0  0  0  0  0  0  0  0
  153.5917  138.8981  160.2668 C   0  0  0  0  0  0  0  0  0  0  0  0
  152.8869  138.5954  159.1451 C   0  0  0  0  0  0  0  0  0  0  0  0
  152.7066  137.2151  158.6388 C   0  0  0  0  0  0  0  0  0  0  0  0
  152.0321  136.9872  157.6369 O   0  0  0  0  0  0  0  0  0  0  0  0
  153.3604  136.2902  159.4105 N   0  5  0  0  0  0  0  0  0  0  0  0
  154.0931  136.5559  160.5470 C   0  0  0  0  0  0  0  0  0  0  0  0
  154.6522  135.6622  161.1840 O   0  0  0  0  0  0  0  0  0  0  0  0
  154.2122  137.8456  160.9934 N   0  0  0  0  0  0  0  0  0  0  0  0
  154.9781  138.1577  162.2035 C   0  0  0  0  0  0  0  0  0  0  0  0
  149.8973  139.5926  153.8455 H   0  0  0  0  0  0  0  0  0  0  0  0
  149.7280  139.0547  155.5171 H   0  0  0  0  0  0  0  0  0  0  0  0
  150.8084  138.1907  154.4080 H   0  0  0  0  0  0  0  0  0  0  0  0
  152.3271  138.4626  156.0965 H   0  0  0  0  0  0  0  0  0  0  0  0
  153.2609  139.9411  156.1222 H   0  0  0  0  0  0  0  0  0  0  0  0
  151.1955  140.9940  157.3981 H   0  0  0  0  0  0  0  0  0  0  0  0
  150.6316  139.3790  157.6015 H   0  0  0  0  0  0  0  0  0  0  0  0
  152.8361  143.4360  157.8056 H   0  0  0  0  0  0  0  0  0  0  0  0
  151.7653  142.1290  157.4339 H   0  0  0  0  0  0  0  0  0  0  0  0
  150.4835  144.2338  157.6690 H   0  0  0  0  0  0  0  0  0  0  0  0
  149.9976  143.1111  158.9155 H   0  0  0  0  0  0  0  0  0  0  0  0
  151.9605  145.4199  159.2245 H   0  0  0  0  0  0  0  0  0  0  0  0
  149.2138  144.9913  160.4986 H   0  0  0  0  0  0  0  0  0  0  0  0
  149.5865  146.1422  159.2175 H   0  0  0  0  0  0  0  0  0  0  0  0
  150.2946  146.3461  160.8154 H   0  0  0  0  0  0  0  0  0  0  0  0
  152.2084  144.7361  161.5694 H   0  0  0  0  0  0  0  0  0  0  0  0
  151.0879  143.4125  161.3472 H   0  0  0  0  0  0  0  0  0  0  0  0
  153.4205  142.6085  161.2461 H   0  0  0  0  0  0  0  0  0  0  0  0
  153.7984  143.7078  159.9435 H   0  0  0  0  0  0  0  0  0  0  0  0
  154.5728  137.6203  163.0617 H   0  0  0  0  0  0  0  0  0  0  0  0
  154.9628  139.2190  162.4498 H   0  0  0  0  0  0  0  0  0  0  0  0
  156.0218  137.8661  162.0798 H   0  0  0  0  0  0  0  0  0  0  0  0
  1  2  1  0  0  0  0
  1 24  1  0  0  0  0
  1 25  1  0  0  0  0
  1 26  1  0  0  0  0
  2  3  1  0  0  0  0
  3  4  1  0  0  0  0
  3 27  1  0  0  0  0
  3 28  1  0  0  0  0
  4  5  1  0  0  0  0
  4 29  1  0  0  0  0
  4 30  1  0  0  0  0
  5 16  1  0  0  0  0
  5  6  1  0  0  0  0
  6  7  1  0  0  0  0
  6 14  2  0  0  0  0
  7 13  1  0  0  0  0
  7  8  1  0  0  0  0
  8  9  1  0  0  0  0
  8 31  1  0  0  0  0
  8 32  1  0  0  0  0
  9 10  1  0  0  0  0
  9 33  1  0  0  0  0
  9 34  1  0  0  0  0
 10 11  1  0  0  0  0
 10 12  1  0  0  0  0
 10 35  1  0  0  0  0
 11 36  1  0  0  0  0
 11 37  1  0  0  0  0
 11 38  1  0  0  0  0
 12 13  1  0  0  0  0
 12 39  1  0  0  0  0
 12 40  1  0  0  0  0
 13 41  1  0  0  0  0
 13 42  1  0  0  0  0
 14 15  1  0  0  0  0
 15 22  1  0  0  0  0
 15 16  2  0  0  0  0
 16 17  1  0  0  0  0
 17 18  2  0  0  0  0
 17 19  1  0  0  0  0
 19 20  1  0  0  0  0
 20 21  2  0  0  0  0
 20 22  1  0  0  0  0
 22 23  1  0  0  0  0
 23 43  1  0  0  0  0
 23 44  1  0  0  0  0
 23 45  1  0  0  0  0
M  CHG  1  19  -1
M  END
> <s_m_source_file>
AV-unprocessed.smi

> <i_m_source_file_index>
542

> <i_lp_mmshare_version>
43012

> <i_f3d_flags>
0

> <s_epik_input>
W0NIM11uMWMoPU8pW25IXWMoPU8pYyhjMTIpbihbQ0gyXVtDSDJdT1tDSDNdKWMobjIpTjNbQ0gyXVtDSDJdW0NIXShbQ0gzXSlbQ0gyXVtDSDJdMw==

> <s_epik_cmdline>
J2VwaWtfcHl0aG9uJywgJy1waCcsICc3LjAnLCAnLXRuJywgJzgnLCAnLW1hJywgJzIwMCcsICctbWV0YWxfYmluZGluZycsICctaW1hZScsICc8aW5maWxlLm1hZT4nLCAnLW9tYWUnLCAnPG91dGZpbGUubWFlPic=

> <r_lp_tautomer_probability>
1

> <r_epik_Ionization_Penalty>
5.11335

> <r_epik_Ionization_Penalty_Charging>
0.0783784

> <r_epik_Ionization_Penalty_Neutral>
5.03497

> <r_epik_State_Penalty>
5.01923

> <r_epik_Charging_Adjusted_Penalty>
5.09761

> <i_epik_Tot_Q>
-1

> <i_epik_Tot_abs_Q>
1

> <r_epik_Metal_State_Penalty>
1.13361

> <b_epik_Metal_Only>
1

> <s_lp_Force_Field>
OPLS_2005

> <r_lp_Energy>
42.8721

> <b_lp_Chiralities_Consistent>
1

> <s_lp_Variant>
AV-unprocessed.smi:542-2

> <Gold.Version>
5.8.1

> <Gold.Id.Protein>
6NUR|6NUR_protein|mol2

> <Gold.PLP.Fitness>
48.7428

> <Gold.PLP.PLP>
-40.1137

> <Gold.PLP.part.hbond>
-2.0000

> <Gold.PLP.part.metal>
0.0000

> <Gold.PLP.part.buried>
-4.2614

> <Gold.PLP.part.nonpolar>
-33.0474

> <Gold.PLP.part.repulsive>
0.0394

> <Gold.PLP.ligand.clash>
0.0000

> <Gold.PLP.ligand.torsion>
0.2504

> <Gold.PLP.Chemscore.Hbond>
3.0000

> <Gold.PLP.Chemscore.CHOScore>
0.0000

> <Gold.PLP.Chemscore.Metal>
0.0000

> <Gold.Chemscore.Hbonds>
donor molecule, donor type, donor heavy atom, donor atom, acceptor molecule, acceptor atom, score
      P1  H  6896  6909       L1    19  2.00
      P1  H  7989  7998       L1     2  0.85

> <Gold.PLP.Chemscore.Internal.Correction>
0.1300

> <Gold.Rescore>
     Score         DG    S(hbond)    S(metal)    S(lipo)     H(rot)  DE(clash)    DE(int)     intcor
     14.86     -16.54       1.18        0.00      92.20       1.44       0.28       1.41       ----

> <Gold.Chemscore.Fitness>
14.8574

> <Gold.Chemscore.DG>
-16.5425

> <Gold.Chemscore.ZeroCoef>
-5.4800

> <Gold.Chemscore.Hbond>
1.1838

> <Gold.Chemscore.Metal>
0.0000

> <Gold.Chemscore.Lipo>
92.2042

> <Gold.Chemscore.Internal_Hbond>
0.0000

> <Gold.Chemscore.DEClash>
0.2769

> <Gold.Chemscore.DEInternal>
1.4082

> <Gold.Chemscore.Rot>
1.4372

> <Gold.Chemscore.Internal.Correction>
   9.000000E+99

> <Gold.Chemscore.Hbonds>
donor molecule, donor type, donor heavy atom, donor atom, acceptor molecule, acceptor atom, score
      P1  H  6896  6909       L1    19  0.25
      P1  H  7989  7998       L1     2  0.14

> <Gold.Chemscore.Hbond.Weighted>
-3.9540

> <Gold.Chemscore.Metal.Weighted>
-0.0000

> <Gold.Chemscore.Lipo.Weighted>
-10.7879

> <Gold.Chemscore.Internal_Hbond.Weighted>
0.0000

> <Gold.Chemscore.DEClash.Weighted>
0.2769

> <Gold.Chemscore.DEInternal.Weighted>
1.4082

> <Gold.Chemscore.Rot.Weighted>
3.6793

> <Gold.Chemscore.Internal.Correction.Weighted>
   9.000000E+99

> <Gold.Protein.RotatedTorsions>
[ 6907 6896 6895 6894 ] final  153.78 input  -60.11 | X-H torsion
[ 7974 7965 7964 7962 ] final  -81.87 input  175.53 | X-H torsion
[ 8008 7997 7996 7995 ] final  -23.94 input   59.86 | X-H torsion
[ 10167 10162 10161 10158 ] final    3.41 input  -65.29 | X-H torsion
[ 10718 10713 10712 10709 ] final  -38.82 input   66.30 | X-H torsion
[ 10763 10752 10751 10750 ] final  -16.69 input  -60.55 | X-H torsion
[ 11005 11000 10999 10996 ] final  -83.78 input  -57.11 | X-H torsion

> <Gold.Protein.ActiveResidues>
 VAL166  LYS551  ARG553  GLY616  TRP617  ASP618  TYR619  PRO620  LYS621  CYS622 
 ASP623  PHE694  ASN695  SER759  ASP760  ASP761  ALA762  ILE779  LEU786  VAL792 
 PHE793  MET794  SER795  GLU796  ALA797  LYS798  CYS799  TRP800  GLU811  SER814 

> <Gold.Protein.RotatedAtoms>
  152.0679  133.4092  159.4445 H   0  0  0  0  0  0  0  0  0  0  0  0  # atno 6907 bound_to 6896
  150.6864  134.3125  159.4761 H   0  0  0  0  0  0  0  0  0  0  0  0  # atno 6908 bound_to 6896
  152.0954  134.9378  160.0621 H   0  0  0  0  0  0  0  0  0  0  0  0  # atno 6909 bound_to 6896
  145.5409  140.9510  143.1551 H   0  0  0  0  0  0  0  0  0  0  0  0  # atno 7974 bound_to 7965
  154.4557  140.1967  156.0387 H   0  0  0  0  0  0  0  0  0  0  0  0  # atno 8008 bound_to 7997
  156.0741  140.3280  155.7584 H   0  0  0  0  0  0  0  0  0  0  0  0  # atno 8009 bound_to 7997
  155.5217  140.0570  157.2896 H   0  0  0  0  0  0  0  0  0  0  0  0  # atno 8010 bound_to 7997
  140.6587  143.7360  150.7699 H   0  0  0  0  0  0  0  0  0  0  0  0  # atno 10167 bound_to 10162
  156.2995  130.4238  149.8158 H   0  0  0  0  0  0  0  0  0  0  0  0  # atno 10718 bound_to 10713
  153.5625  135.7009  153.5541 H   0  0  0  0  0  0  0  0  0  0  0  0  # atno 10763 bound_to 10752
  153.3417  135.4019  155.1576 H   0  0  0  0  0  0  0  0  0  0  0  0  # atno 10764 bound_to 10752
  154.8645  135.3743  154.5143 H   0  0  0  0  0  0  0  0  0  0  0  0  # atno 10765 bound_to 10752
  141.1655  133.7312  156.8771 H   0  0  0  0  0  0  0  0  0  0  0  0  # atno 11005 bound_to 11000
  144.7577  139.7033  143.7247 LP  0  0  0  0  0  0  0  0  0  0  0  0  # atno 17320 bound_to 7965
  146.1981  139.5260  142.9761 LP  0  0  0  0  0  0  0  0  0  0  0  0  # atno 17321 bound_to 7965
  140.1025  143.4774  152.2417 LP  0  0  0  0  0  0  0  0  0  0  0  0  # atno 17342 bound_to 10162
  139.5815  144.7512  151.3627 LP  0  0  0  0  0  0  0  0  0  0  0  0  # atno 17343 bound_to 10162
  156.5541  130.8355  151.3309 LP  0  0  0  0  0  0  0  0  0  0  0  0  # atno 17370 bound_to 10713
  157.7364  130.9778  150.2134 LP  0  0  0  0  0  0  0  0  0  0  0  0  # atno 17371 bound_to 10713
  140.1740  134.9080  157.2869 LP  0  0  0  0  0  0  0  0  0  0  0  0  # atno 17394 bound_to 11000
  140.2469  134.3729  155.7457 LP  0  0  0  0  0  0  0  0  0  0  0  0  # atno 17395 bound_to 11000

$$$$
