AV-unprocessed.smi:1911|AV-procd|sdf|7739|dock3
  -GOLD-   22720 9473D 1   1.00000     0.00000
 Structure written by MMmdl.
 52 54  0  0  0  0  0  0  0  0  2 V2000
  149.5889  128.1495  152.4464 N   0  0  0  0  0  0  0  0  0  0  0  0
  148.3958  128.2562  151.8572 C   0  0  0  0  0  0  0  0  0  0  0  0
  148.1178  127.6476  150.8253 O   0  0  0  0  0  0  0  0  0  0  0  0
  147.3668  129.1640  152.5398 C   0  0  0  0  0  0  0  0  0  0  0  0
  147.8323  130.5678  152.6847 N   0  3  2  0  0  0  0  0  0  0  0  0
  148.8049  130.7486  153.7962 C   0  0  0  0  0  0  0  0  0  0  0  0
  149.3578  132.1834  153.8224 C   0  0  0  0  0  0  0  0  0  0  0  0
  148.2216  133.2125  153.9317 C   0  0  1  0  0  0  0  0  0  0  0  0
  148.7673  134.5660  153.8819 N   0  0  0  0  0  0  0  0  0  0  0  0
  149.2469  135.2415  154.9365 C   0  0  0  0  0  0  0  0  0  0  0  0
  149.2635  134.7858  156.0796 O   0  0  0  0  0  0  0  0  0  0  0  0
  149.6756  136.4639  154.5782 N   0  0  0  0  0  0  0  0  0  0  0  0
  150.2541  137.4729  155.3950 C   0  0  0  0  0  0  0  0  0  0  0  0
  150.5225  138.7257  154.8098 C   0  0  0  0  0  0  0  0  0  0  0  0
  151.1091  139.7404  155.5893 C   0  0  0  0  0  0  0  0  0  0  0  0
  151.4209  139.4726  156.9434 C   0  0  0  0  0  0  0  0  0  0  0  0
  152.0123  140.4541  157.7637 N   0  0  0  0  0  0  0  0  0  0  0  0
  151.5947  141.8463  157.7352 C   0  0  0  0  0  0  0  0  0  0  0  0
  152.3949  142.5146  158.8531 C   0  0  0  0  0  0  0  0  0  0  0  0
  152.5597  141.3954  159.8812 C   0  0  0  0  0  0  0  0  0  0  0  0
  152.6461  140.1214  159.0335 C   0  0  0  0  0  0  0  0  0  0  0  0
  151.1816  138.2623  157.5014 N   0  0  0  0  0  0  0  0  0  0  0  0
  150.6178  137.2927  156.7507 C   0  0  0  0  0  0  0  0  0  0  0  0
  147.2106  132.9821  152.7933 C   0  0  0  0  0  0  0  0  0  0  0  0
  146.7049  131.5297  152.7846 C   0  0  0  0  0  0  0  0  0  0  0  0
  150.2987  127.5587  152.0364 H   0  0  0  0  0  0  0  0  0  0  0  0
  149.7814  128.6526  153.3009 H   0  0  0  0  0  0  0  0  0  0  0  0
  146.4699  129.1377  151.9192 H   0  0  0  0  0  0  0  0  0  0  0  0
  147.0853  128.7602  153.5140 H   0  0  0  0  0  0  0  0  0  0  0  0
  148.3206  130.5172  154.7462 H   0  0  0  0  0  0  0  0  0  0  0  0
  149.6345  130.0494  153.6884 H   0  0  0  0  0  0  0  0  0  0  0  0
  150.0472  132.2967  154.6601 H   0  0  0  0  0  0  0  0  0  0  0  0
  149.9390  132.3635  152.9165 H   0  0  0  0  0  0  0  0  0  0  0  0
  147.7195  133.0671  154.8905 H   0  0  0  0  0  0  0  0  0  0  0  0
  148.7875  135.0186  152.9795 H   0  0  0  0  0  0  0  0  0  0  0  0
  149.5227  136.7246  153.6150 H   0  0  0  0  0  0  0  0  0  0  0  0
  150.2786  138.9130  153.7742 H   0  0  0  0  0  0  0  0  0  0  0  0
  151.3104  140.7005  155.1385 H   0  0  0  0  0  0  0  0  0  0  0  0
  151.7948  142.3101  156.7687 H   0  0  0  0  0  0  0  0  0  0  0  0
  150.5245  141.9083  157.9370 H   0  0  0  0  0  0  0  0  0  0  0  0
  153.3743  142.8151  158.4776 H   0  0  0  0  0  0  0  0  0  0  0  0
  151.9020  143.3989  159.2580 H   0  0  0  0  0  0  0  0  0  0  0  0
  153.4270  141.5338  160.5273 H   0  0  0  0  0  0  0  0  0  0  0  0
  151.6731  141.3518  160.5157 H   0  0  0  0  0  0  0  0  0  0  0  0
  152.1583  139.2854  159.5362 H   0  0  0  0  0  0  0  0  0  0  0  0
  153.6855  139.8492  158.8470 H   0  0  0  0  0  0  0  0  0  0  0  0
  150.4819  136.3522  157.2610 H   0  0  0  0  0  0  0  0  0  0  0  0
  146.3636  133.6615  152.8956 H   0  0  0  0  0  0  0  0  0  0  0  0
  147.6749  133.2104  151.8326 H   0  0  0  0  0  0  0  0  0  0  0  0
  146.0279  131.3935  151.9403 H   0  0  0  0  0  0  0  0  0  0  0  0
  146.1300  131.3256  153.6893 H   0  0  0  0  0  0  0  0  0  0  0  0
  148.3195  130.7894  151.8276 H   0  0  0  0  0  0  0  0  0  0  0  0
  1  2  1  0  0  0  0
  1 26  1  0  0  0  0
  1 27  1  0  0  0  0
  2  3  2  0  0  0  0
  2  4  1  0  0  0  0
  4  5  1  0  0  0  0
  4 28  1  0  0  0  0
  4 29  1  0  0  0  0
  5 25  1  0  0  0  0
  5  6  1  0  0  0  0
  5 52  1  0  0  0  0
  6  7  1  0  0  0  0
  6 30  1  0  0  0  0
  6 31  1  0  0  0  0
  7  8  1  0  0  0  0
  7 32  1  0  0  0  0
  7 33  1  0  0  0  0
  8  9  1  0  0  0  0
  8 24  1  0  0  0  0
  8 34  1  0  0  0  0
  9 10  1  0  0  0  0
  9 35  1  0  0  0  0
 10 11  2  0  0  0  0
 10 12  1  0  0  0  0
 12 13  1  0  0  0  0
 12 36  1  0  0  0  0
 13 23  1  0  0  0  0
 13 14  2  0  0  0  0
 14 15  1  0  0  0  0
 14 37  1  0  0  0  0
 15 16  2  0  0  0  0
 15 38  1  0  0  0  0
 16 17  1  0  0  0  0
 16 22  1  0  0  0  0
 17 21  1  0  0  0  0
 17 18  1  0  0  0  0
 18 19  1  0  0  0  0
 18 39  1  0  0  0  0
 18 40  1  0  0  0  0
 19 20  1  0  0  0  0
 19 41  1  0  0  0  0
 19 42  1  0  0  0  0
 20 21  1  0  0  0  0
 20 43  1  0  0  0  0
 20 44  1  0  0  0  0
 21 45  1  0  0  0  0
 21 46  1  0  0  0  0
 22 23  2  0  0  0  0
 23 47  1  0  0  0  0
 24 25  1  0  0  0  0
 24 48  1  0  0  0  0
 24 49  1  0  0  0  0
 25 50  1  0  0  0  0
 25 51  1  0  0  0  0
M  CHG  1   5   1
M  END
> <s_m_source_file>
AV-unprocessed.smi

> <i_m_source_file_index>
1911

> <i_lp_mmshare_version>
43012

> <i_f3d_flags>
0

> <s_epik_input>
W05IMl1DKD1PKVtDSDJdTjFbQ0gyXVtDSDJdW0NIXShbQ0gyXVtDSDJdMSlbTkhdQyg9TylbTkhdYzJbY0hdW2NIXWMobltjSF0yKU4zW0NIMl1bQ0gyXVtDSDJdW0NIMl0z

> <s_epik_cmdline>
J2VwaWtfcHl0aG9uJywgJy1waCcsICc3LjAnLCAnLXRuJywgJzgnLCAnLW1hJywgJzIwMCcsICctbWV0YWxfYmluZGluZycsICctaW1hZScsICc8aW5maWxlLm1hZT4nLCAnLW9tYWUnLCAnPG91dGZpbGUubWFlPic=

> <r_lp_tautomer_probability>
1

> <r_epik_Ionization_Penalty>
0.91661

> <r_epik_Ionization_Penalty_Charging>
0.838844

> <r_epik_Ionization_Penalty_Neutral>
0.0777665

> <r_epik_State_Penalty>
0.927046

> <r_epik_Charging_Adjusted_Penalty>
1.76589

> <i_epik_Tot_Q>
1

> <i_epik_Tot_abs_Q>
1

> <r_epik_Metal_State_Penalty>
0.950553

> <b_epik_Metal_Only>
0

> <s_lp_Force_Field>
OPLS_2005

> <r_lp_Energy>
39.0232

> <b_lp_Chiralities_Consistent>
1

> <s_lp_Variant>
AV-unprocessed.smi:1911-2

> <Gold.Version>
5.8.1

> <Gold.Id.Protein>
6NUR|6NUR_protein|mol2

> <Gold.PLP.Fitness>
49.8330

> <Gold.PLP.PLP>
-40.4789

> <Gold.PLP.part.hbond>
-4.0000

> <Gold.PLP.part.metal>
0.0000

> <Gold.PLP.part.buried>
-4.7084

> <Gold.PLP.part.nonpolar>
-31.2183

> <Gold.PLP.part.repulsive>
0.3410

> <Gold.PLP.ligand.clash>
0.0000

> <Gold.PLP.ligand.torsion>
0.9469

> <Gold.PLP.Chemscore.Hbond>
3.6880

> <Gold.PLP.Chemscore.CHOScore>
0.0000

> <Gold.PLP.Chemscore.Metal>
0.0000

> <Gold.Chemscore.Hbonds>
donor molecule, donor type, donor heavy atom, donor atom, acceptor molecule, acceptor atom, score
      L1  H     1    26       P1 10737  0.70
      L1  H     5    52       P1 10747  1.00
      L1  H     9    35       P1  7948  1.00
      L1  H    12    36       P1  7948  0.98

> <Gold.PLP.Chemscore.Internal.Correction>
0.1838

> <Gold.Rescore>
     Score         DG    S(hbond)    S(metal)    S(lipo)     H(rot)  DE(clash)    DE(int)     intcor
     20.19     -22.44       3.55        0.00      85.21       1.91       0.03       2.22       ----

> <Gold.Chemscore.Fitness>
20.1887

> <Gold.Chemscore.DG>
-22.4357

> <Gold.Chemscore.ZeroCoef>
-5.4800

> <Gold.Chemscore.Hbond>
3.5537

> <Gold.Chemscore.Metal>
0.0000

> <Gold.Chemscore.Lipo>
85.2087

> <Gold.Chemscore.Internal_Hbond>
0.0000

> <Gold.Chemscore.DEClash>
0.0279

> <Gold.Chemscore.DEInternal>
2.2192

> <Gold.Chemscore.Rot>
1.9074

> <Gold.Chemscore.Internal.Correction>
   9.000000E+99

> <Gold.Chemscore.Hbonds>
donor molecule, donor type, donor heavy atom, donor atom, acceptor molecule, acceptor atom, score
      L1  H     1    26       P1 10737  0.72
      L1  H     5    52       P1 10747  0.99
      L1  H     9    35       P1  7948  0.30
      L1  H    12    36       P1  7948  0.73

> <Gold.Chemscore.Hbond.Weighted>
-11.8692

> <Gold.Chemscore.Metal.Weighted>
-0.0000

> <Gold.Chemscore.Lipo.Weighted>
-9.9694

> <Gold.Chemscore.Internal_Hbond.Weighted>
0.0000

> <Gold.Chemscore.DEClash.Weighted>
0.0279

> <Gold.Chemscore.DEInternal.Weighted>
2.2192

> <Gold.Chemscore.Rot.Weighted>
4.8829

> <Gold.Chemscore.Internal.Correction.Weighted>
   9.000000E+99

> <Gold.Protein.RotatedTorsions>
[ 6907 6896 6895 6894 ] final  -76.76 input  -60.11 | X-H torsion
[ 7974 7965 7964 7962 ] final -179.91 input  175.53 | X-H torsion
[ 8008 7997 7996 7995 ] final -145.55 input   59.86 | X-H torsion
[ 10167 10162 10161 10158 ] final -121.70 input  -65.29 | X-H torsion
[ 10718 10713 10712 10709 ] final  105.33 input   66.30 | X-H torsion
[ 10763 10752 10751 10750 ] final  173.96 input  -60.55 | X-H torsion
[ 11005 11000 10999 10996 ] final   91.50 input  -57.11 | X-H torsion

> <Gold.Protein.ActiveResidues>
 VAL166  LYS551  ARG553  GLY616  TRP617  ASP618  TYR619  PRO620  LYS621  CYS622 
 ASP623  PHE694  ASN695  SER759  ASP760  ASP761  ALA762  ILE779  LEU786  VAL792 
 PHE793  MET794  SER795  GLU796  ALA797  LYS798  CYS799  TRP800  GLU811  SER814 

> <Gold.Protein.RotatedAtoms>
  150.7018  134.4524  159.5342 H   0  0  0  0  0  0  0  0  0  0  0  0  # atno 6907 bound_to 6896
  152.2214  134.8406  160.0494 H   0  0  0  0  0  0  0  0  0  0  0  0  # atno 6908 bound_to 6896
  151.9255  133.3562  159.3949 H   0  0  0  0  0  0  0  0  0  0  0  0  # atno 6909 bound_to 6896
  144.7140  140.0647  143.6431 H   0  0  0  0  0  0  0  0  0  0  0  0  # atno 7974 bound_to 7965
  155.5450  140.0611  157.2862 H   0  0  0  0  0  0  0  0  0  0  0  0  # atno 8008 bound_to 7997
  154.4439  140.1912  156.0673 H   0  0  0  0  0  0  0  0  0  0  0  0  # atno 8009 bound_to 7997
  156.0557  140.3278  155.7407 H   0  0  0  0  0  0  0  0  0  0  0  0  # atno 8010 bound_to 7997
  140.0222  143.5333  152.2215 H   0  0  0  0  0  0  0  0  0  0  0  0  # atno 10167 bound_to 10162
  157.6709  131.0825  150.5841 H   0  0  0  0  0  0  0  0  0  0  0  0  # atno 10718 bound_to 10713
  154.4473  135.2763  155.1806 H   0  0  0  0  0  0  0  0  0  0  0  0  # atno 10763 bound_to 10752
  154.3647  135.6122  153.5712 H   0  0  0  0  0  0  0  0  0  0  0  0  # atno 10764 bound_to 10752
  152.9844  135.5843  154.4811 H   0  0  0  0  0  0  0  0  0  0  0  0  # atno 10765 bound_to 10752
  139.8838  134.8678  156.3437 H   0  0  0  0  0  0  0  0  0  0  0  0  # atno 11005 bound_to 11000
  145.9834  139.2959  143.1028 LP  0  0  0  0  0  0  0  0  0  0  0  0  # atno 17320 bound_to 7965
  145.8985  140.9258  143.0515 LP  0  0  0  0  0  0  0  0  0  0  0  0  # atno 17321 bound_to 7965
  139.6132  144.7613  151.2905 LP  0  0  0  0  0  0  0  0  0  0  0  0  # atno 17342 bound_to 10162
  140.7337  143.6786  150.8020 LP  0  0  0  0  0  0  0  0  0  0  0  0  # atno 17343 bound_to 10162
  156.6141  130.4388  149.5847 LP  0  0  0  0  0  0  0  0  0  0  0  0  # atno 17370 bound_to 10713
  156.2407  130.6849  151.1553 LP  0  0  0  0  0  0  0  0  0  0  0  0  # atno 17371 bound_to 10713
  140.9641  133.7369  156.0442 LP  0  0  0  0  0  0  0  0  0  0  0  0  # atno 17394 bound_to 11000
  140.7953  134.3571  157.5454 LP  0  0  0  0  0  0  0  0  0  0  0  0  # atno 17395 bound_to 11000

$$$$
