AV-unprocessed.smi:1175|AV-procd|sdf|4951|dock8
  -GOLD-   22720 3543D 1   1.00000     0.00000
 Structure written by MMmdl.
 36 37  0  0  0  0  0  0  0  0  1 V2000
  153.2108  138.2254  160.4990 O   0  0  0  0  0  0  0  0  0  0  0  0
  153.6225  139.1242  159.7641 C   0  0  0  0  0  0  0  0  0  0  0  0
  154.5018  140.2542  160.3190 C   0  0  0  0  0  0  0  0  0  0  0  0
  153.7280  141.3934  160.8408 N   0  0  0  0  0  0  0  0  0  0  0  0
  153.0406  142.1869  159.9012 C   0  0  0  0  0  0  0  0  0  0  0  0
  152.3046  143.2606  160.2471 C   0  0  0  0  0  0  0  0  0  0  0  0
  151.5248  144.0625  159.2166 C   0  0  0  0  0  0  0  0  0  0  0  0
  152.3381  144.5801  158.2958 F   0  0  0  0  0  0  0  0  0  0  0  0
  150.6478  143.2731  158.5980 F   0  0  0  0  0  0  0  0  0  0  0  0
  150.8521  145.0609  159.7902 F   0  0  0  0  0  0  0  0  0  0  0  0
  152.2201  143.5551  161.6640 C   0  0  0  0  0  0  0  0  0  0  0  0
  152.8615  142.7996  162.5768 C   0  0  0  0  0  0  0  0  0  0  0  0
  153.6740  141.6465  162.1830 C   0  0  0  0  0  0  0  0  0  0  0  0
  154.2678  140.9509  163.0076 O   0  0  0  0  0  0  0  0  0  0  0  0
  153.3272  139.1995  158.4574 N   0  0  0  0  0  0  0  0  0  0  0  0
  152.5091  138.2445  157.7166 C   0  0  0  0  0  0  0  0  0  0  0  0
  151.5459  138.9466  156.7411 C   0  0  1  0  0  0  0  0  0  0  0  0
  151.1964  140.3652  157.1425 C   0  0  0  0  0  0  0  0  0  0  0  0
  150.6592  140.9467  155.8373 C   0  0  0  0  0  0  0  0  0  0  0  0
  151.3186  140.2397  154.7898 O   0  0  0  0  0  0  0  0  0  0  0  0
  152.0955  139.1772  155.3326 C   0  0  0  0  0  0  0  0  0  0  0  0
  155.1536  139.8559  161.0988 H   0  0  0  0  0  0  0  0  0  0  0  0
  155.1754  140.5811  159.5254 H   0  0  0  0  0  0  0  0  0  0  0  0
  153.1422  141.8588  158.8768 H   0  0  0  0  0  0  0  0  0  0  0  0
  151.6348  144.3983  162.0003 H   0  0  0  0  0  0  0  0  0  0  0  0
  152.7765  143.0492  163.6243 H   0  0  0  0  0  0  0  0  0  0  0  0
  153.7045  139.9754  157.9328 H   0  0  0  0  0  0  0  0  0  0  0  0
  153.1852  137.5986  157.1558 H   0  0  0  0  0  0  0  0  0  0  0  0
  151.9613  137.5907  158.3974 H   0  0  0  0  0  0  0  0  0  0  0  0
  150.6210  138.3717  156.6674 H   0  0  0  0  0  0  0  0  0  0  0  0
  150.4743  140.4155  157.9580 H   0  0  0  0  0  0  0  0  0  0  0  0
  152.0936  140.9055  157.4482 H   0  0  0  0  0  0  0  0  0  0  0  0
  149.5867  140.7683  155.7527 H   0  0  0  0  0  0  0  0  0  0  0  0
  150.8304  142.0209  155.7615 H   0  0  0  0  0  0  0  0  0  0  0  0
  153.1371  139.4987  155.3719 H   0  0  0  0  0  0  0  0  0  0  0  0
  152.0401  138.2855  154.7078 H   0  0  0  0  0  0  0  0  0  0  0  0
  1  2  2  0  0  0  0
  2  3  1  0  0  0  0
  2 15  1  0  0  0  0
  3  4  1  0  0  0  0
  3 22  1  0  0  0  0
  3 23  1  0  0  0  0
  4 13  1  0  0  0  0
  4  5  1  0  0  0  0
  5  6  2  0  0  0  0
  5 24  1  0  0  0  0
  6  7  1  0  0  0  0
  6 11  1  0  0  0  0
  7  8  1  0  0  0  0
  7  9  1  0  0  0  0
  7 10  1  0  0  0  0
 11 12  2  0  0  0  0
 11 25  1  0  0  0  0
 12 13  1  0  0  0  0
 12 26  1  0  0  0  0
 13 14  2  0  0  0  0
 15 16  1  0  0  0  0
 15 27  1  0  0  0  0
 16 17  1  0  0  0  0
 16 28  1  0  0  0  0
 16 29  1  0  0  0  0
 17 21  1  0  0  0  0
 17 18  1  0  0  0  0
 17 30  1  0  0  0  0
 18 19  1  0  0  0  0
 18 31  1  0  0  0  0
 18 32  1  0  0  0  0
 19 20  1  0  0  0  0
 19 33  1  0  0  0  0
 19 34  1  0  0  0  0
 20 21  1  0  0  0  0
 21 35  1  0  0  0  0
 21 36  1  0  0  0  0
M  END
> <s_m_source_file>
AV-unprocessed.smi

> <i_m_source_file_index>
1175

> <i_lp_mmshare_version>
43012

> <i_f3d_flags>
0

> <s_epik_input>
W0NIMl0xT1tDSDJdW0NIMl1bQ0BIXTFbQ0gyXVtOSF1DKD1PKVtDSDJdbjJbY0hdYyhDKEYpKEYpRilbY0hdW2NIXWMyPU8=

> <s_epik_cmdline>
J2VwaWtfcHl0aG9uJywgJy1waCcsICc3LjAnLCAnLXRuJywgJzgnLCAnLW1hJywgJzIwMCcsICctbWV0YWxfYmluZGluZycsICctaW1hZScsICc8aW5maWxlLm1hZT4nLCAnLW9tYWUnLCAnPG91dGZpbGUubWFlPic=

> <r_lp_tautomer_probability>
1

> <r_epik_Ionization_Penalty>
3.67963e-08

> <r_epik_Ionization_Penalty_Charging>
1.809e-08

> <r_epik_Ionization_Penalty_Neutral>
1.87063e-08

> <r_epik_State_Penalty>
-0

> <r_epik_Charging_Adjusted_Penalty>
1.809e-08

> <i_epik_Tot_Q>
0

> <i_epik_Tot_abs_Q>
0

> <r_epik_Metal_State_Penalty>
-0

> <b_epik_Metal_Only>
0

> <s_lp_Force_Field>
OPLS_2005

> <r_lp_Energy>
29.657

> <b_lp_Chiralities_Consistent>
1

> <s_lp_Variant>
AV-unprocessed.smi:1175-2

> <Gold.Version>
5.8.1

> <Gold.Id.Protein>
6NUR|6NUR_protein|mol2

> <Gold.PLP.Fitness>
53.2603

> <Gold.PLP.PLP>
-52.2765

> <Gold.PLP.part.hbond>
-1.9316

> <Gold.PLP.part.metal>
0.0000

> <Gold.PLP.part.buried>
-6.0588

> <Gold.PLP.part.nonpolar>
-45.2447

> <Gold.PLP.part.repulsive>
1.2276

> <Gold.PLP.ligand.clash>
0.0000

> <Gold.PLP.ligand.torsion>
1.0367

> <Gold.PLP.Chemscore.Hbond>
1.0000

> <Gold.PLP.Chemscore.CHOScore>
0.0000

> <Gold.PLP.Chemscore.Metal>
0.0000

> <Gold.Chemscore.Hbonds>
donor molecule, donor type, donor heavy atom, donor atom, acceptor molecule, acceptor atom, score
      P1  H  7989  7998       L1    20  0.84

> <Gold.PLP.Chemscore.Internal.Correction>
0.0573

> <Gold.Rescore>
     Score         DG    S(hbond)    S(metal)    S(lipo)     H(rot)  DE(clash)    DE(int)     intcor
     12.89     -14.88       0.96        0.00      93.69       1.87       0.01       1.97       ----

> <Gold.Chemscore.Fitness>
12.8940

> <Gold.Chemscore.DG>
-14.8795

> <Gold.Chemscore.ZeroCoef>
-5.4800

> <Gold.Chemscore.Hbond>
0.9641

> <Gold.Chemscore.Metal>
0.0000

> <Gold.Chemscore.Lipo>
93.6881

> <Gold.Chemscore.Internal_Hbond>
0.0000

> <Gold.Chemscore.DEClash>
0.0107

> <Gold.Chemscore.DEInternal>
1.9749

> <Gold.Chemscore.Rot>
1.8681

> <Gold.Chemscore.Internal.Correction>
   9.000000E+99

> <Gold.Chemscore.Hbonds>
donor molecule, donor type, donor heavy atom, donor atom, acceptor molecule, acceptor atom, score
      P1  H  7989  7998       L1    20  0.80

> <Gold.Chemscore.Hbond.Weighted>
-3.2202

> <Gold.Chemscore.Metal.Weighted>
-0.0000

> <Gold.Chemscore.Lipo.Weighted>
-10.9615

> <Gold.Chemscore.Internal_Hbond.Weighted>
0.0000

> <Gold.Chemscore.DEClash.Weighted>
0.0107

> <Gold.Chemscore.DEInternal.Weighted>
1.9749

> <Gold.Chemscore.Rot.Weighted>
4.7822

> <Gold.Chemscore.Internal.Correction.Weighted>
   9.000000E+99

> <Gold.Protein.RotatedTorsions>
[ 6907 6896 6895 6894 ] final   88.54 input  -60.11 | X-H torsion
[ 7974 7965 7964 7962 ] final  101.67 input  175.53 | X-H torsion
[ 8008 7997 7996 7995 ] final  163.57 input   59.86 | X-H torsion
[ 10167 10162 10161 10158 ] final  -18.30 input  -65.29 | X-H torsion
[ 10718 10713 10712 10709 ] final  157.40 input   66.30 | X-H torsion
[ 10763 10752 10751 10750 ] final  124.98 input  -60.55 | X-H torsion
[ 11005 11000 10999 10996 ] final   35.07 input  -57.11 | X-H torsion

> <Gold.Protein.ActiveResidues>
 VAL166  LYS551  ARG553  GLY616  TRP617  ASP618  TYR619  PRO620  LYS621  CYS622 
 ASP623  PHE694  ASN695  SER759  ASP760  ASP761  ALA762  ILE779  LEU786  VAL792 
 PHE793  MET794  SER795  GLU796  ALA797  LYS798  CYS799  TRP800  GLU811  SER814 

> <Gold.Protein.RotatedAtoms>
  152.5426  134.2105  159.8747 H   0  0  0  0  0  0  0  0  0  0  0  0  # atno 6907 bound_to 6896
  151.2088  133.4561  159.2605 H   0  0  0  0  0  0  0  0  0  0  0  0  # atno 6908 bound_to 6896
  151.0917  134.9932  159.8461 H   0  0  0  0  0  0  0  0  0  0  0  0  # atno 6909 bound_to 6896
  145.3693  139.2401  143.3464 H   0  0  0  0  0  0  0  0  0  0  0  0  # atno 7974 bound_to 7965
  156.1946  140.1720  156.8023 H   0  0  0  0  0  0  0  0  0  0  0  0  # atno 8008 bound_to 7997
  154.5514  140.0717  156.8705 H   0  0  0  0  0  0  0  0  0  0  0  0  # atno 8009 bound_to 7997
  155.3022  140.3362  155.4249 H   0  0  0  0  0  0  0  0  0  0  0  0  # atno 8010 bound_to 7997
  140.7257  143.4930  150.9967 H   0  0  0  0  0  0  0  0  0  0  0  0  # atno 10167 bound_to 10162
  157.1920  131.0656  151.2074 H   0  0  0  0  0  0  0  0  0  0  0  0  # atno 10718 bound_to 10713
  153.6700  135.3332  155.3151 H   0  0  0  0  0  0  0  0  0  0  0  0  # atno 10763 bound_to 10752
  154.8493  135.4384  154.1714 H   0  0  0  0  0  0  0  0  0  0  0  0  # atno 10764 bound_to 10752
  153.2703  135.6999  153.7563 H   0  0  0  0  0  0  0  0  0  0  0  0  # atno 10765 bound_to 10752
  140.2464  134.3354  155.7906 H   0  0  0  0  0  0  0  0  0  0  0  0  # atno 11005 bound_to 11000
  146.2892  140.4341  142.8746 LP  0  0  0  0  0  0  0  0  0  0  0  0  # atno 17320 bound_to 7965
  144.8588  140.7110  143.6120 LP  0  0  0  0  0  0  0  0  0  0  0  0  # atno 17321 bound_to 7965
  139.8636  143.7283  152.3172 LP  0  0  0  0  0  0  0  0  0  0  0  0  # atno 17342 bound_to 10162
  139.7507  144.7535  151.0511 LP  0  0  0  0  0  0  0  0  0  0  0  0  # atno 17343 bound_to 10162
  157.3851  130.7252  149.6657 LP  0  0  0  0  0  0  0  0  0  0  0  0  # atno 17370 bound_to 10713
  155.9710  130.4162  150.4217 LP  0  0  0  0  0  0  0  0  0  0  0  0  # atno 17371 bound_to 10713
  141.2206  133.7328  156.8968 LP  0  0  0  0  0  0  0  0  0  0  0  0  # atno 17394 bound_to 11000
  140.1601  134.9171  157.2704 LP  0  0  0  0  0  0  0  0  0  0  0  0  # atno 17395 bound_to 11000

$$$$
