AV-unprocessed.smi:1768|AV-procd|sdf|7148|dock9
  -GOLD-   22720 8383D 1   1.00000     0.00000
 Structure written by MMmdl.
 32 33  0  0  0  0  0  0  0  0  2 V2000
  146.3489  134.2512  162.4455 C   0  0  0  0  0  0  0  0  0  0  0  0
  146.9292  135.2970  161.5564 C   0  0  0  0  0  0  0  0  0  0  0  0
  146.9981  136.5840  161.9054 N   0  0  0  0  0  0  0  0  0  0  0  0
  147.5755  137.3638  160.9138 N   0  0  0  0  0  0  0  0  0  0  0  0
  147.9228  136.6604  159.8267 C   0  0  0  0  0  0  0  0  0  0  0  0
  148.4992  137.2293  158.7550 N   0  5  0  0  0  0  0  0  0  0  0  0
  149.8199  137.5213  158.7723 C   0  0  0  0  0  0  0  0  0  0  0  0
  150.6629  137.0442  159.5353 O   0  0  0  0  0  0  0  0  0  0  0  0
  150.1855  138.4203  157.8469 N   0  0  0  0  0  0  0  0  0  0  0  0
  151.5355  138.9348  157.6272 C   0  0  1  0  0  0  0  0  0  0  0  0
  151.5752  139.7432  156.3179 C   0  0  0  0  0  0  0  0  0  0  0  0
  151.9563  139.7797  158.8450 C   0  0  2  0  0  0  0  0  0  0  0  0
  151.3807  141.1971  158.8735 C   0  0  0  0  0  0  0  0  0  0  0  0
  152.3911  141.9839  159.6950 C   0  0  0  0  0  0  0  0  0  0  0  0
  153.6121  141.0639  159.7669 C   0  0  0  0  0  0  0  0  0  0  0  0
  153.3526  140.0353  158.8231 O   0  0  0  0  0  0  0  0  0  0  0  0
  147.5732  134.9372  159.9635 S   0  0  0  0  0  0  0  0  0  0  0  0
  145.2604  134.3003  162.4156 H   0  0  0  0  0  0  0  0  0  0  0  0
  146.6806  134.4022  163.4731 H   0  0  0  0  0  0  0  0  0  0  0  0
  146.6641  133.2596  162.1204 H   0  0  0  0  0  0  0  0  0  0  0  0
  149.4593  138.7861  157.2489 H   0  0  0  0  0  0  0  0  0  0  0  0
  152.2266  138.0943  157.5408 H   0  0  0  0  0  0  0  0  0  0  0  0
  152.5805  140.1069  156.1057 H   0  0  0  0  0  0  0  0  0  0  0  0
  150.9110  140.6068  156.3655 H   0  0  0  0  0  0  0  0  0  0  0  0
  151.2672  139.1345  155.4674 H   0  0  0  0  0  0  0  0  0  0  0  0
  151.7081  139.2611  159.7735 H   0  0  0  0  0  0  0  0  0  0  0  0
  151.3362  141.6063  157.8633 H   0  0  0  0  0  0  0  0  0  0  0  0
  150.3756  141.2327  159.2946 H   0  0  0  0  0  0  0  0  0  0  0  0
  152.6297  142.9311  159.2104 H   0  0  0  0  0  0  0  0  0  0  0  0
  152.0140  142.2034  160.6943 H   0  0  0  0  0  0  0  0  0  0  0  0
  154.5430  141.5829  159.5375 H   0  0  0  0  0  0  0  0  0  0  0  0
  153.7031  140.6235  160.7606 H   0  0  0  0  0  0  0  0  0  0  0  0
  1  2  1  0  0  0  0
  1 18  1  0  0  0  0
  1 19  1  0  0  0  0
  1 20  1  0  0  0  0
  2 17  1  0  0  0  0
  2  3  2  0  0  0  0
  3  4  1  0  0  0  0
  4  5  2  0  0  0  0
  5  6  1  0  0  0  0
  5 17  1  0  0  0  0
  6  7  1  0  0  0  0
  7  8  2  0  0  0  0
  7  9  1  0  0  0  0
  9 10  1  0  0  0  0
  9 21  1  0  0  0  0
 10 11  1  0  0  0  0
 10 12  1  0  0  0  0
 10 22  1  0  0  0  0
 11 23  1  0  0  0  0
 11 24  1  0  0  0  0
 11 25  1  0  0  0  0
 12 16  1  0  0  0  0
 12 13  1  0  0  0  0
 12 26  1  0  0  0  0
 13 14  1  0  0  0  0
 13 27  1  0  0  0  0
 13 28  1  0  0  0  0
 14 15  1  0  0  0  0
 14 29  1  0  0  0  0
 14 30  1  0  0  0  0
 15 16  1  0  0  0  0
 15 31  1  0  0  0  0
 15 32  1  0  0  0  0
M  CHG  1   6  -1
M  END
> <s_m_source_file>
AV-unprocessed.smi

> <i_m_source_file_index>
1768

> <i_lp_mmshare_version>
43012

> <i_f3d_flags>
0

> <s_epik_input>
W0NIM11jMW5uYyhzMSlbTkhdQyg9TylbTkhdW0NASF0oW0NIM10pW0NAQEhdMltDSDJdW0NIMl1bQ0gyXU8y

> <s_epik_cmdline>
J2VwaWtfcHl0aG9uJywgJy1waCcsICc3LjAnLCAnLXRuJywgJzgnLCAnLW1hJywgJzIwMCcsICctbWV0YWxfYmluZGluZycsICctaW1hZScsICc8aW5maWxlLm1hZT4nLCAnLW9tYWUnLCAnPG91dGZpbGUubWFlPic=

> <r_lp_tautomer_probability>
1

> <r_epik_Ionization_Penalty>
4.3376

> <r_epik_Ionization_Penalty_Charging>
4.19392

> <r_epik_Ionization_Penalty_Neutral>
0.143681

> <r_epik_State_Penalty>
4.19342

> <r_epik_Charging_Adjusted_Penalty>
8.38735

> <i_epik_Tot_Q>
-1

> <i_epik_Tot_abs_Q>
1

> <r_epik_Metal_State_Penalty>
0.686065

> <b_epik_Metal_Only>
1

> <s_lp_Force_Field>
OPLS_2005

> <r_lp_Energy>
16.4206

> <b_lp_Chiralities_Consistent>
1

> <s_lp_Variant>
AV-unprocessed.smi:1768-6

> <Gold.Version>
5.8.1

> <Gold.Id.Protein>
6NUR|6NUR_protein|mol2

> <Gold.PLP.Fitness>
39.6812

> <Gold.PLP.PLP>
-30.7275

> <Gold.PLP.part.hbond>
-4.0000

> <Gold.PLP.part.metal>
0.0000

> <Gold.PLP.part.buried>
-4.1418

> <Gold.PLP.part.nonpolar>
-22.6280

> <Gold.PLP.part.repulsive>
0.0628

> <Gold.PLP.ligand.clash>
0.0000

> <Gold.PLP.ligand.torsion>
1.1216

> <Gold.PLP.Chemscore.Hbond>
3.7200

> <Gold.PLP.Chemscore.CHOScore>
0.0000

> <Gold.PLP.Chemscore.Metal>
0.0000

> <Gold.Chemscore.Hbonds>
donor molecule, donor type, donor heavy atom, donor atom, acceptor molecule, acceptor atom, score
      P1  H  6896  6909       L1     8  0.99
      P1  H  6931  6943       L1     4  0.77
      P1  H  6934  6947       L1     4  0.94
      P1  H  7997  8008       L1    16  0.68

> <Gold.PLP.Chemscore.Internal.Correction>
0.0369

> <Gold.Rescore>
     Score         DG    S(hbond)    S(metal)    S(lipo)     H(rot)  DE(clash)    DE(int)     intcor
     19.25     -20.15       3.21        0.00      61.54       1.28       0.00       0.89       ----

> <Gold.Chemscore.Fitness>
19.2538

> <Gold.Chemscore.DG>
-20.1474

> <Gold.Chemscore.ZeroCoef>
-5.4800

> <Gold.Chemscore.Hbond>
3.2149

> <Gold.Chemscore.Metal>
0.0000

> <Gold.Chemscore.Lipo>
61.5404

> <Gold.Chemscore.Internal_Hbond>
0.0000

> <Gold.Chemscore.DEClash>
0.0015

> <Gold.Chemscore.DEInternal>
0.8921

> <Gold.Chemscore.Rot>
1.2776

> <Gold.Chemscore.Internal.Correction>
   9.000000E+99

> <Gold.Chemscore.Hbonds>
donor molecule, donor type, donor heavy atom, donor atom, acceptor molecule, acceptor atom, score
      P1  H  6896  6909       L1     8  0.92
      P1  H  6931  6943       L1     4  0.24
      P1  H  6934  6947       L1     4  0.86
      P1  H  7997  8008       L1    16  0.56

> <Gold.Chemscore.Hbond.Weighted>
-10.7378

> <Gold.Chemscore.Metal.Weighted>
-0.0000

> <Gold.Chemscore.Lipo.Weighted>
-7.2002

> <Gold.Chemscore.Internal_Hbond.Weighted>
0.0000

> <Gold.Chemscore.DEClash.Weighted>
0.0015

> <Gold.Chemscore.DEInternal.Weighted>
0.8921

> <Gold.Chemscore.Rot.Weighted>
3.2706

> <Gold.Chemscore.Internal.Correction.Weighted>
   9.000000E+99

> <Gold.Protein.RotatedTorsions>
[ 6907 6896 6895 6894 ] final   94.09 input  -60.11 | X-H torsion
[ 7974 7965 7964 7962 ] final  -39.31 input  175.53 | X-H torsion
[ 8008 7997 7996 7995 ] final  -96.49 input   59.86 | X-H torsion
[ 10167 10162 10161 10158 ] final -162.02 input  -65.29 | X-H torsion
[ 10718 10713 10712 10709 ] final   69.34 input   66.30 | X-H torsion
[ 10763 10752 10751 10750 ] final   44.68 input  -60.55 | X-H torsion
[ 11005 11000 10999 10996 ] final  113.48 input  -57.11 | X-H torsion

> <Gold.Protein.ActiveResidues>
 VAL166  LYS551  ARG553  GLY616  TRP617  ASP618  TYR619  PRO620  LYS621  CYS622 
 ASP623  PHE694  ASN695  SER759  ASP760  ASP761  ALA762  ILE779  LEU786  VAL792 
 PHE793  MET794  SER795  GLU796  ALA797  LYS798  CYS799  TRP800  GLU811  SER814 

> <Gold.Protein.RotatedAtoms>
  152.5451  134.1248  159.8413 H   0  0  0  0  0  0  0  0  0  0  0  0  # atno 6907 bound_to 6896
  151.1300  133.5036  159.2607 H   0  0  0  0  0  0  0  0  0  0  0  0  # atno 6908 bound_to 6896
  151.1686  135.0317  159.8796 H   0  0  0  0  0  0  0  0  0  0  0  0  # atno 6909 bound_to 6896
  146.0407  140.6612  142.9088 H   0  0  0  0  0  0  0  0  0  0  0  0  # atno 7974 bound_to 7965
  154.7751  140.0471  157.1083 H   0  0  0  0  0  0  0  0  0  0  0  0  # atno 8008 bound_to 7997
  154.9772  140.3097  155.4942 H   0  0  0  0  0  0  0  0  0  0  0  0  # atno 8009 bound_to 7997
  156.2927  140.2242  156.4869 H   0  0  0  0  0  0  0  0  0  0  0  0  # atno 8010 bound_to 7997
  139.6423  144.0237  152.2101 H   0  0  0  0  0  0  0  0  0  0  0  0  # atno 10167 bound_to 10162
  157.6340  130.9420  150.0499 H   0  0  0  0  0  0  0  0  0  0  0  0  # atno 10718 bound_to 10713
  152.9837  135.6063  154.3313 H   0  0  0  0  0  0  0  0  0  0  0  0  # atno 10763 bound_to 10752
  154.3016  135.2772  155.2610 H   0  0  0  0  0  0  0  0  0  0  0  0  # atno 10764 bound_to 10752
  154.4860  135.5905  153.6480 H   0  0  0  0  0  0  0  0  0  0  0  0  # atno 10765 bound_to 10752
  139.8954  134.9550  156.6745 H   0  0  0  0  0  0  0  0  0  0  0  0  # atno 11005 bound_to 11000
  144.7073  140.3903  143.7108 LP  0  0  0  0  0  0  0  0  0  0  0  0  # atno 17320 bound_to 7965
  145.6888  139.1634  143.2658 LP  0  0  0  0  0  0  0  0  0  0  0  0  # atno 17321 bound_to 7965
  139.9930  144.6348  150.7797 LP  0  0  0  0  0  0  0  0  0  0  0  0  # atno 17342 bound_to 10162
  140.7497  143.2943  151.3247 LP  0  0  0  0  0  0  0  0  0  0  0  0  # atno 17343 bound_to 10162
  156.1565  130.3643  149.9362 LP  0  0  0  0  0  0  0  0  0  0  0  0  # atno 17370 bound_to 10713
  156.7370  130.9065  151.3629 LP  0  0  0  0  0  0  0  0  0  0  0  0  # atno 17371 bound_to 10713
  140.7348  133.9028  155.8236 LP  0  0  0  0  0  0  0  0  0  0  0  0  # atno 17394 bound_to 11000
  141.0125  134.1001  157.4206 LP  0  0  0  0  0  0  0  0  0  0  0  0  # atno 17395 bound_to 11000

$$$$
