AV-unprocessed.smi:794|AV-procd|sdf|3759|dock9
  -GOLD-   22720 1193D 1   1.00000     0.00000
 Structure written by MMmdl.
 41 43  0  0  0  0  0  0  0  0  1 V2000
  137.7182  136.9131  154.8211 C   0  0  0  0  0  0  0  0  0  0  0  0
  139.1131  136.9676  154.2774 C   0  0  0  0  0  0  0  0  0  0  0  0
  139.9187  135.8260  154.3258 N   0  0  0  0  0  0  0  0  0  0  0  0
  141.1300  136.0386  153.8016 C   0  0  0  0  0  0  0  0  0  0  0  0
  142.1525  135.0575  153.7213 N   0  0  0  0  0  0  0  0  0  0  0  0
  143.3906  135.1866  153.2136 C   0  0  0  0  0  0  0  0  0  0  0  0
  143.8588  136.2180  152.7310 O   0  0  0  0  0  0  0  0  0  0  0  0
  144.0659  134.0306  153.2873 N   0  0  0  0  0  0  0  0  0  0  0  0
  145.4382  133.8190  152.8246 C   0  0  1  0  0  0  0  0  0  0  0  0
  146.2080  132.9318  153.8269 C   0  0  2  0  0  0  0  0  0  0  0  0
  147.7167  133.0419  153.5406 C   0  0  0  0  0  0  0  0  0  0  0  0
  147.8636  132.2627  152.2197 C   0  0  0  0  0  0  0  0  0  0  0  0
  146.4201  131.8066  151.9274 C   0  0  1  0  0  0  0  0  0  0  0  0
  145.9020  131.5234  153.3318 C   0  0  0  0  0  0  0  0  0  0  0  0
  145.5735  133.0269  151.4879 C   0  0  1  0  0  0  0  0  0  0  0  0
  144.2512  132.6351  150.7895 C   0  0  0  0  0  0  0  0  0  0  0  0
  143.5405  133.7890  150.3928 O   0  0  0  0  0  0  0  0  0  0  0  0
  141.3628  137.6731  153.2065 S   0  0  0  0  0  0  0  0  0  0  0  0
  139.7344  138.0552  153.7080 C   0  0  0  0  0  0  0  0  0  0  0  0
  139.1704  139.4215  153.5016 C   0  0  0  0  0  0  0  0  0  0  0  0
  136.9871  137.1582  154.0506 H   0  0  0  0  0  0  0  0  0  0  0  0
  137.5882  137.6229  155.6382 H   0  0  0  0  0  0  0  0  0  0  0  0
  137.4720  135.9223  155.2043 H   0  0  0  0  0  0  0  0  0  0  0  0
  141.9084  134.1475  154.0829 H   0  0  0  0  0  0  0  0  0  0  0  0
  143.6005  133.2344  153.6977 H   0  0  0  0  0  0  0  0  0  0  0  0
  145.9345  134.7881  152.7420 H   0  0  0  0  0  0  0  0  0  0  0  0
  145.9557  133.1189  154.8715 H   0  0  0  0  0  0  0  0  0  0  0  0
  148.0524  134.0761  153.4562 H   0  0  0  0  0  0  0  0  0  0  0  0
  148.2977  132.5664  154.3318 H   0  0  0  0  0  0  0  0  0  0  0  0
  148.2776  132.8744  151.4174 H   0  0  0  0  0  0  0  0  0  0  0  0
  148.5211  131.4030  152.3551 H   0  0  0  0  0  0  0  0  0  0  0  0
  146.3726  130.9592  151.2430 H   0  0  0  0  0  0  0  0  0  0  0  0
  146.4674  130.7495  153.8538 H   0  0  0  0  0  0  0  0  0  0  0  0
  144.8414  131.2706  153.3646 H   0  0  0  0  0  0  0  0  0  0  0  0
  146.1449  133.6296  150.7799 H   0  0  0  0  0  0  0  0  0  0  0  0
  144.4281  132.0069  149.9163 H   0  0  0  0  0  0  0  0  0  0  0  0
  143.6115  132.0739  151.4707 H   0  0  0  0  0  0  0  0  0  0  0  0
  142.7300  133.5187  149.9887 H   0  0  0  0  0  0  0  0  0  0  0  0
  138.7480  139.8101  154.4284 H   0  0  0  0  0  0  0  0  0  0  0  0
  138.3795  139.4028  152.7516 H   0  0  0  0  0  0  0  0  0  0  0  0
  139.9373  140.1196  153.1651 H   0  0  0  0  0  0  0  0  0  0  0  0
  1  2  1  0  0  0  0
  1 21  1  0  0  0  0
  1 22  1  0  0  0  0
  1 23  1  0  0  0  0
  2 19  2  0  0  0  0
  2  3  1  0  0  0  0
  3  4  2  0  0  0  0
  4  5  1  0  0  0  0
  4 18  1  0  0  0  0
  5  6  1  0  0  0  0
  5 24  1  0  0  0  0
  6  7  2  0  0  0  0
  6  8  1  0  0  0  0
  8  9  1  0  0  0  0
  8 25  1  0  0  0  0
  9 15  1  0  0  0  0
  9 10  1  0  0  0  0
  9 26  1  0  0  0  0
 10 14  1  0  0  0  0
 10 11  1  0  0  0  0
 10 27  1  0  0  0  0
 11 12  1  0  0  0  0
 11 28  1  0  0  0  0
 11 29  1  0  0  0  0
 12 13  1  0  0  0  0
 12 30  1  0  0  0  0
 12 31  1  0  0  0  0
 13 14  1  0  0  0  0
 13 15  1  0  0  0  0
 13 32  1  0  0  0  0
 14 33  1  0  0  0  0
 14 34  1  0  0  0  0
 15 16  1  0  0  0  0
 15 35  1  0  0  0  0
 16 17  1  0  0  0  0
 16 36  1  0  0  0  0
 16 37  1  0  0  0  0
 17 38  1  0  0  0  0
 18 19  1  0  0  0  0
 19 20  1  0  0  0  0
 20 39  1  0  0  0  0
 20 40  1  0  0  0  0
 20 41  1  0  0  0  0
M  END
> <s_m_source_file>
AV-unprocessed.smi

> <i_m_source_file_index>
794

> <i_lp_mmshare_version>
43012

> <i_f3d_flags>
0

> <s_epik_input>
W0NIM11jMW5jKHNjMVtDSDNdKVtOSF1DKD1PKVtOSF1bQ0BIXShbQ0BASF0yMylbQ0BIXShbQ0gyXVtPSF0pW0NAQEhdKFtDSDJdMylbQ0gyXVtDSDJdMg==

> <s_epik_cmdline>
J2VwaWtfcHl0aG9uJywgJy1waCcsICc3LjAnLCAnLXRuJywgJzgnLCAnLW1hJywgJzIwMCcsICctbWV0YWxfYmluZGluZycsICctaW1hZScsICc8aW5maWxlLm1hZT4nLCAnLW9tYWUnLCAnPG91dGZpbGUubWFlPic=

> <r_lp_tautomer_probability>
0.999

> <r_epik_Ionization_Penalty>
0.000713029

> <r_epik_Ionization_Penalty_Charging>
0

> <r_epik_Ionization_Penalty_Neutral>
0.000713029

> <r_epik_State_Penalty>
0.000177984

> <r_epik_Charging_Adjusted_Penalty>
0.000177984

> <i_epik_Tot_Q>
0

> <i_epik_Tot_abs_Q>
0

> <r_epik_Metal_State_Penalty>
-0

> <b_epik_Metal_Only>
0

> <s_lp_Force_Field>
OPLS_2005

> <r_lp_Energy>
48.0104

> <b_lp_Chiralities_Consistent>
1

> <s_lp_Variant>
AV-unprocessed.smi:794-4

> <Gold.Version>
5.8.1

> <Gold.Id.Protein>
6NUR|6NUR_protein|mol2

> <Gold.PLP.Fitness>
39.6141

> <Gold.PLP.PLP>
-32.0869

> <Gold.PLP.part.hbond>
-3.2568

> <Gold.PLP.part.metal>
0.0000

> <Gold.PLP.part.buried>
-2.2311

> <Gold.PLP.part.nonpolar>
-26.8450

> <Gold.PLP.part.repulsive>
0.2727

> <Gold.PLP.ligand.clash>
0.0000

> <Gold.PLP.ligand.torsion>
0.2370

> <Gold.PLP.Chemscore.Hbond>
2.6628

> <Gold.PLP.Chemscore.CHOScore>
0.0000

> <Gold.PLP.Chemscore.Metal>
0.0000

> <Gold.Chemscore.Hbonds>
donor molecule, donor type, donor heavy atom, donor atom, acceptor molecule, acceptor atom, score
      L1  H     8    25       P1 10957  0.94
      L1  H    17    38       P1 10186  0.70
      P1  H 11000 11005       L1     3  1.00

> <Gold.PLP.Chemscore.Internal.Correction>
0.0131

> <Gold.Rescore>
     Score         DG    S(hbond)    S(metal)    S(lipo)     H(rot)  DE(clash)    DE(int)     intcor
     15.94     -20.01       2.91        0.00      79.95       1.78       1.97       2.11       ----

> <Gold.Chemscore.Fitness>
15.9354

> <Gold.Chemscore.DG>
-20.0115

> <Gold.Chemscore.ZeroCoef>
-5.4800

> <Gold.Chemscore.Hbond>
2.9141

> <Gold.Chemscore.Metal>
0.0000

> <Gold.Chemscore.Lipo>
79.9537

> <Gold.Chemscore.Internal_Hbond>
0.0000

> <Gold.Chemscore.DEClash>
1.9654

> <Gold.Chemscore.DEInternal>
2.1107

> <Gold.Chemscore.Rot>
1.7798

> <Gold.Chemscore.Internal.Correction>
   9.000000E+99

> <Gold.Chemscore.Hbonds>
donor molecule, donor type, donor heavy atom, donor atom, acceptor molecule, acceptor atom, score
      L1  H     8    25       P1 10957  0.89
      L1  H    17    38       P1 10186  0.68
      P1  H 11000 11005       L1     3  0.52

> <Gold.Chemscore.Hbond.Weighted>
-9.7331

> <Gold.Chemscore.Metal.Weighted>
-0.0000

> <Gold.Chemscore.Lipo.Weighted>
-9.3546

> <Gold.Chemscore.Internal_Hbond.Weighted>
0.0000

> <Gold.Chemscore.DEClash.Weighted>
1.9654

> <Gold.Chemscore.DEInternal.Weighted>
2.1107

> <Gold.Chemscore.Rot.Weighted>
4.5562

> <Gold.Chemscore.Internal.Correction.Weighted>
   9.000000E+99

> <Gold.Protein.RotatedTorsions>
[ 6907 6896 6895 6894 ] final  -54.29 input  -60.11 | X-H torsion
[ 7974 7965 7964 7962 ] final   97.25 input  175.53 | X-H torsion
[ 8008 7997 7996 7995 ] final   13.49 input   59.86 | X-H torsion
[ 10167 10162 10161 10158 ] final   97.72 input  -65.29 | X-H torsion
[ 10718 10713 10712 10709 ] final -170.38 input   66.30 | X-H torsion
[ 10763 10752 10751 10750 ] final -105.61 input  -60.55 | X-H torsion
[ 11005 11000 10999 10996 ] final   42.61 input  -57.11 | X-H torsion

> <Gold.Protein.ActiveResidues>
 VAL166  LYS551  ARG553  GLY616  TRP617  ASP618  TYR619  PRO620  LYS621  CYS622 
 ASP623  PHE694  ASN695  SER759  ASP760  ASP761  ALA762  ILE779  LEU786  VAL792 
 PHE793  MET794  SER795  GLU796  ALA797  LYS798  CYS799  TRP800  GLU811  SER814 

> <Gold.Protein.RotatedAtoms>
  150.8351  134.7621  159.6886 H   0  0  0  0  0  0  0  0  0  0  0  0  # atno 6907 bound_to 6896
  152.4449  134.5511  159.9877 H   0  0  0  0  0  0  0  0  0  0  0  0  # atno 6908 bound_to 6896
  151.5663  133.3358  159.3017 H   0  0  0  0  0  0  0  0  0  0  0  0  # atno 6909 bound_to 6896
  145.4280  139.2314  143.3160 H   0  0  0  0  0  0  0  0  0  0  0  0  # atno 7974 bound_to 7965
  154.8353  140.2906  155.5695 H   0  0  0  0  0  0  0  0  0  0  0  0  # atno 8008 bound_to 7997
  156.3008  140.2524  156.3216 H   0  0  0  0  0  0  0  0  0  0  0  0  # atno 8009 bound_to 7997
  154.9186  140.0386  157.1975 H   0  0  0  0  0  0  0  0  0  0  0  0  # atno 8010 bound_to 7997
  139.7774  144.6900  151.0069 H   0  0  0  0  0  0  0  0  0  0  0  0  # atno 10167 bound_to 10162
  156.7253  130.9286  151.3100 H   0  0  0  0  0  0  0  0  0  0  0  0  # atno 10718 bound_to 10713
  154.7958  135.4742  154.0158 H   0  0  0  0  0  0  0  0  0  0  0  0  # atno 10763 bound_to 10752
  153.1701  135.6823  153.8626 H   0  0  0  0  0  0  0  0  0  0  0  0  # atno 10764 bound_to 10752
  153.8211  135.3204  155.3388 H   0  0  0  0  0  0  0  0  0  0  0  0  # atno 10765 bound_to 10752
  140.1723  134.4207  155.8250 H   0  0  0  0  0  0  0  0  0  0  0  0  # atno 11005 bound_to 11000
  146.2622  140.5013  142.8849 LP  0  0  0  0  0  0  0  0  0  0  0  0  # atno 17320 bound_to 7965
  144.8201  140.6536  143.6358 LP  0  0  0  0  0  0  0  0  0  0  0  0  # atno 17321 bound_to 7965
  140.7817  143.4520  151.0399 LP  0  0  0  0  0  0  0  0  0  0  0  0  # atno 17342 bound_to 10162
  139.8202  143.7831  152.3176 LP  0  0  0  0  0  0  0  0  0  0  0  0  # atno 17343 bound_to 10162
  157.6881  130.9206  150.0440 LP  0  0  0  0  0  0  0  0  0  0  0  0  # atno 17370 bound_to 10713
  156.1566  130.3643  149.9360 LP  0  0  0  0  0  0  0  0  0  0  0  0  # atno 17371 bound_to 10713
  141.2218  133.6961  156.7784 LP  0  0  0  0  0  0  0  0  0  0  0  0  # atno 17394 bound_to 11000
  140.2363  134.8647  157.3528 LP  0  0  0  0  0  0  0  0  0  0  0  0  # atno 17395 bound_to 11000

$$$$
