AV-unprocessed.smi:1697|AV-procd|sdf|6803|dock10
  -GOLD-   22720 7573D 1   1.00000     0.00000
 Structure written by MMmdl.
 54 56  0  0  0  0  0  0  0  0  2 V2000
  144.3399  132.8319  151.0826 C   0  0  0  0  0  0  0  0  0  0  0  0
  144.5376  134.0979  151.9192 C   0  0  0  0  0  0  0  0  0  0  0  0
  145.4006  134.9780  151.2143 O   0  0  0  0  0  0  0  0  0  0  0  0
  145.5080  136.2794  151.7758 C   0  0  2  0  0  0  0  0  0  0  0  0
  146.2269  137.2461  150.8162 C   0  0  0  0  0  0  0  0  0  0  0  0
  146.4973  138.6013  151.4918 C   0  0  0  0  0  0  0  0  0  0  0  0
  147.2805  138.4295  152.7443 N   0  3  1  0  0  0  0  0  0  0  0  0
  147.6920  139.7151  153.3651 C   0  0  0  0  0  0  0  0  0  0  0  0
  148.8474  139.5367  154.3694 C   0  0  2  0  0  0  0  0  0  0  0  0
  148.3113  139.1182  155.6104 O   0  0  0  0  0  0  0  0  0  0  0  0
  149.6420  140.8412  154.5728 C   0  0  0  0  0  0  0  0  0  0  0  0
  150.7529  140.6714  155.4915 N   0  0  0  0  0  0  0  0  0  0  0  0
  151.8112  139.8496  155.3508 C   0  0  0  0  0  0  0  0  0  0  0  0
  152.7234  139.8611  156.3183 N   0  0  0  0  0  0  0  0  0  0  0  0
  152.1937  140.7967  157.1904 C   0  0  0  0  0  0  0  0  0  0  0  0
  152.6797  141.2782  158.4254 C   0  0  0  0  0  0  0  0  0  0  0  0
  151.9618  142.2507  159.1573 C   0  0  0  0  0  0  0  0  0  0  0  0
  152.5228  142.7427  160.4798 C   0  0  0  0  0  0  0  0  0  0  0  0
  150.7349  142.7552  158.6559 C   0  0  0  0  0  0  0  0  0  0  0  0
  149.9445  143.7973  159.4270 C   0  0  0  0  0  0  0  0  0  0  0  0
  150.2358  142.2867  157.4226 C   0  0  0  0  0  0  0  0  0  0  0  0
  150.9605  141.3202  156.7033 C   0  0  0  0  0  0  0  0  0  0  0  0
  146.5837  137.5329  153.7016 C   0  0  0  0  0  0  0  0  0  0  0  0
  146.3201  136.1549  153.0733 C   0  0  0  0  0  0  0  0  0  0  0  0
  143.6843  132.1260  151.5931 H   0  0  0  0  0  0  0  0  0  0  0  0
  145.2911  132.3321  150.8983 H   0  0  0  0  0  0  0  0  0  0  0  0
  143.8913  133.0666  150.1168 H   0  0  0  0  0  0  0  0  0  0  0  0
  143.5718  134.5672  152.1062 H   0  0  0  0  0  0  0  0  0  0  0  0
  144.9718  133.8372  152.8855 H   0  0  0  0  0  0  0  0  0  0  0  0
  144.5167  136.6647  152.0224 H   0  0  0  0  0  0  0  0  0  0  0  0
  147.1710  136.8070  150.4906 H   0  0  0  0  0  0  0  0  0  0  0  0
  145.6337  137.4063  149.9162 H   0  0  0  0  0  0  0  0  0  0  0  0
  147.0324  139.2430  150.7928 H   0  0  0  0  0  0  0  0  0  0  0  0
  145.5535  139.1008  151.7168 H   0  0  0  0  0  0  0  0  0  0  0  0
  147.9690  140.4210  152.5805 H   0  0  0  0  0  0  0  0  0  0  0  0
  146.8465  140.1637  153.8895 H   0  0  0  0  0  0  0  0  0  0  0  0
  149.5337  138.7653  154.0213 H   0  0  0  0  0  0  0  0  0  0  0  0
  148.9679  139.2356  156.2805 H   0  0  0  0  0  0  0  0  0  0  0  0
  150.0418  141.1913  153.6203 H   0  0  0  0  0  0  0  0  0  0  0  0
  148.9933  141.6339  154.9489 H   0  0  0  0  0  0  0  0  0  0  0  0
  151.9213  139.2107  154.4868 H   0  0  0  0  0  0  0  0  0  0  0  0
  153.6133  140.8923  158.8078 H   0  0  0  0  0  0  0  0  0  0  0  0
  151.8313  142.5229  161.2935 H   0  0  0  0  0  0  0  0  0  0  0  0
  152.6896  143.8196  160.4470 H   0  0  0  0  0  0  0  0  0  0  0  0
  153.4750  142.2642  160.7114 H   0  0  0  0  0  0  0  0  0  0  0  0
  149.0168  144.0528  158.9142 H   0  0  0  0  0  0  0  0  0  0  0  0
  150.5276  144.7114  159.5406 H   0  0  0  0  0  0  0  0  0  0  0  0
  149.6863  143.4253  160.4188 H   0  0  0  0  0  0  0  0  0  0  0  0
  149.3036  142.6631  157.0286 H   0  0  0  0  0  0  0  0  0  0  0  0
  147.1937  137.4035  154.5966 H   0  0  0  0  0  0  0  0  0  0  0  0
  145.6454  137.9911  154.0186 H   0  0  0  0  0  0  0  0  0  0  0  0
  145.7911  135.5181  153.7832 H   0  0  0  0  0  0  0  0  0  0  0  0
  147.2716  135.6625  152.8666 H   0  0  0  0  0  0  0  0  0  0  0  0
  148.1373  137.9563  152.4931 H   0  0  0  0  0  0  0  0  0  0  0  0
  1  2  1  0  0  0  0
  1 25  1  0  0  0  0
  1 26  1  0  0  0  0
  1 27  1  0  0  0  0
  2  3  1  0  0  0  0
  2 28  1  0  0  0  0
  2 29  1  0  0  0  0
  3  4  1  0  0  0  0
  4 24  1  0  0  0  0
  4  5  1  0  0  0  0
  4 30  1  0  0  0  0
  5  6  1  0  0  0  0
  5 31  1  0  0  0  0
  5 32  1  0  0  0  0
  6  7  1  0  0  0  0
  6 33  1  0  0  0  0
  6 34  1  0  0  0  0
  7  8  1  0  0  0  0
  7 23  1  0  0  0  0
  7 54  1  0  0  0  0
  8  9  1  0  0  0  0
  8 35  1  0  0  0  0
  8 36  1  0  0  0  0
  9 10  1  0  0  0  0
  9 11  1  0  0  0  0
  9 37  1  0  0  0  0
 10 38  1  0  0  0  0
 11 12  1  0  0  0  0
 11 39  1  0  0  0  0
 11 40  1  0  0  0  0
 12 22  1  0  0  0  0
 12 13  1  0  0  0  0
 13 14  2  0  0  0  0
 13 41  1  0  0  0  0
 14 15  1  0  0  0  0
 15 22  2  0  0  0  0
 15 16  1  0  0  0  0
 16 17  2  0  0  0  0
 16 42  1  0  0  0  0
 17 18  1  0  0  0  0
 17 19  1  0  0  0  0
 18 43  1  0  0  0  0
 18 44  1  0  0  0  0
 18 45  1  0  0  0  0
 19 20  1  0  0  0  0
 19 21  2  0  0  0  0
 20 46  1  0  0  0  0
 20 47  1  0  0  0  0
 20 48  1  0  0  0  0
 21 22  1  0  0  0  0
 21 49  1  0  0  0  0
 23 24  1  0  0  0  0
 23 50  1  0  0  0  0
 23 51  1  0  0  0  0
 24 52  1  0  0  0  0
 24 53  1  0  0  0  0
M  CHG  1   7   1
M  END
> <s_m_source_file>
AV-unprocessed.smi

> <i_m_source_file_index>
1697

> <i_lp_mmshare_version>
43012

> <i_f3d_flags>
0

> <s_epik_input>
W0NIM11bQ0gyXU9bQ0hdMVtDSDJdW0NIMl1OKFtDSDJdW0NIMl0xKVtDSDJdW0NASF0oW09IXSlbQ0gyXW4oW2NIXW4yKWMoYzIzKVtjSF1jKFtDSDNdKWMoW2NIXTMpW0NIM10=

> <s_epik_cmdline>
J2VwaWtfcHl0aG9uJywgJy1waCcsICc3LjAnLCAnLXRuJywgJzgnLCAnLW1hJywgJzIwMCcsICctbWV0YWxfYmluZGluZycsICctaW1hZScsICc8aW5maWxlLm1hZT4nLCAnLW9tYWUnLCAnPG91dGZpbGUubWFlPic=

> <r_epik_Ionization_Penalty>
0.112476

> <r_epik_Ionization_Penalty_Charging>
0.0244612

> <r_epik_Ionization_Penalty_Neutral>
0.0880147

> <r_epik_State_Penalty>
0.0961447

> <r_epik_Charging_Adjusted_Penalty>
0.120606

> <i_epik_Tot_Q>
1

> <i_epik_Tot_abs_Q>
1

> <r_epik_Metal_State_Penalty>
0.0206204

> <b_epik_Metal_Only>
0

> <s_lp_Force_Field>
OPLS_2005

> <r_lp_Energy>
22.6968

> <b_lp_Chiralities_Consistent>
1

> <s_lp_Variant>
AV-unprocessed.smi:1697-1

> <Gold.Version>
5.8.1

> <Gold.Id.Protein>
6NUR|6NUR_protein|mol2

> <Gold.PLP.Fitness>
51.4305

> <Gold.PLP.PLP>
-43.1269

> <Gold.PLP.part.hbond>
-2.0241

> <Gold.PLP.part.metal>
0.0000

> <Gold.PLP.part.buried>
2.9075

> <Gold.PLP.part.nonpolar>
-44.4936

> <Gold.PLP.part.repulsive>
0.2246

> <Gold.PLP.ligand.clash>
0.0000

> <Gold.PLP.ligand.torsion>
0.4345

> <Gold.PLP.Chemscore.Hbond>
3.0000

> <Gold.PLP.Chemscore.CHOScore>
0.0000

> <Gold.PLP.Chemscore.Metal>
0.0000

> <Gold.Chemscore.Hbonds>
donor molecule, donor type, donor heavy atom, donor atom, acceptor molecule, acceptor atom, score
      L1  H     7    54       P1  7948  1.86
      P1  H  7997  8009       L1    14  1.00

> <Gold.PLP.Chemscore.Internal.Correction>
0.1726

> <Gold.Rescore>
     Score         DG    S(hbond)    S(metal)    S(lipo)     H(rot)  DE(clash)    DE(int)     intcor
     15.10     -17.13       1.01        0.00     120.43       2.27       0.95       1.08       ----

> <Gold.Chemscore.Fitness>
15.0964

> <Gold.Chemscore.DG>
-17.1278

> <Gold.Chemscore.ZeroCoef>
-5.4800

> <Gold.Chemscore.Hbond>
1.0092

> <Gold.Chemscore.Metal>
0.0000

> <Gold.Chemscore.Lipo>
120.4342

> <Gold.Chemscore.Internal_Hbond>
0.0000

> <Gold.Chemscore.DEClash>
0.9541

> <Gold.Chemscore.DEInternal>
1.0774

> <Gold.Chemscore.Rot>
2.2710

> <Gold.Chemscore.Internal.Correction>
   9.000000E+99

> <Gold.Chemscore.Hbonds>
donor molecule, donor type, donor heavy atom, donor atom, acceptor molecule, acceptor atom, score
      L1  H     7    54       P1  7948  0.87
      P1  H  7997  8009       L1    14  0.64

> <Gold.Chemscore.Hbond.Weighted>
-3.3707

> <Gold.Chemscore.Metal.Weighted>
-0.0000

> <Gold.Chemscore.Lipo.Weighted>
-14.0908

> <Gold.Chemscore.Internal_Hbond.Weighted>
0.0000

> <Gold.Chemscore.DEClash.Weighted>
0.9541

> <Gold.Chemscore.DEInternal.Weighted>
1.0774

> <Gold.Chemscore.Rot.Weighted>
5.8137

> <Gold.Chemscore.Internal.Correction.Weighted>
   9.000000E+99

> <Gold.Protein.RotatedTorsions>
[ 6907 6896 6895 6894 ] final   86.91 input  -60.11 | X-H torsion
[ 7974 7965 7964 7962 ] final -117.52 input  175.53 | X-H torsion
[ 8008 7997 7996 7995 ] final -150.49 input   59.86 | X-H torsion
[ 10167 10162 10161 10158 ] final  -65.07 input  -65.29 | X-H torsion
[ 10718 10713 10712 10709 ] final -101.05 input   66.30 | X-H torsion
[ 10763 10752 10751 10750 ] final -114.88 input  -60.55 | X-H torsion
[ 11005 11000 10999 10996 ] final  -48.68 input  -57.11 | X-H torsion

> <Gold.Protein.ActiveResidues>
 VAL166  LYS551  ARG553  GLY616  TRP617  ASP618  TYR619  PRO620  LYS621  CYS622 
 ASP623  PHE694  ASN695  SER759  ASP760  ASP761  ALA762  ILE779  LEU786  VAL792 
 PHE793  MET794  SER795  GLU796  ALA797  LYS798  CYS799  TRP800  GLU811  SER814 

> <Gold.Protein.RotatedAtoms>
  152.5402  134.2359  159.8842 H   0  0  0  0  0  0  0  0  0  0  0  0  # atno 6907 bound_to 6896
  151.2328  133.4434  159.2612 H   0  0  0  0  0  0  0  0  0  0  0  0  # atno 6908 bound_to 6896
  151.0699  134.9805  159.8359 H   0  0  0  0  0  0  0  0  0  0  0  0  # atno 6909 bound_to 6896
  145.0842  140.8446  143.4021 H   0  0  0  0  0  0  0  0  0  0  0  0  # atno 7974 bound_to 7965
  155.6244  140.0685  157.2668 H   0  0  0  0  0  0  0  0  0  0  0  0  # atno 8008 bound_to 7997
  154.4221  140.1778  156.1455 H   0  0  0  0  0  0  0  0  0  0  0  0  # atno 8009 bound_to 7997
  155.9983  140.3338  155.6824 H   0  0  0  0  0  0  0  0  0  0  0  0  # atno 8010 bound_to 7997
  140.5756  143.2321  151.6449 H   0  0  0  0  0  0  0  0  0  0  0  0  # atno 10167 bound_to 10162
  156.0182  130.5355  150.6906 H   0  0  0  0  0  0  0  0  0  0  0  0  # atno 10718 bound_to 10713
  154.8458  135.4402  154.1575 H   0  0  0  0  0  0  0  0  0  0  0  0  # atno 10763 bound_to 10752
  153.2720  135.6946  153.7477 H   0  0  0  0  0  0  0  0  0  0  0  0  # atno 10764 bound_to 10752
  153.6714  135.3418  155.3129 H   0  0  0  0  0  0  0  0  0  0  0  0  # atno 10765 bound_to 10752
  141.0715  133.6678  156.3476 H   0  0  0  0  0  0  0  0  0  0  0  0  # atno 11005 bound_to 11000
  145.1142  139.2737  143.5622 LP  0  0  0  0  0  0  0  0  0  0  0  0  # atno 17320 bound_to 7965
  146.3531  140.0746  142.8621 LP  0  0  0  0  0  0  0  0  0  0  0  0  # atno 17321 bound_to 7965
  139.5141  144.3422  152.0730 LP  0  0  0  0  0  0  0  0  0  0  0  0  # atno 17342 bound_to 10162
  140.2565  144.4113  150.6202 LP  0  0  0  0  0  0  0  0  0  0  0  0  # atno 17343 bound_to 10162
  157.4588  131.0881  151.0767 LP  0  0  0  0  0  0  0  0  0  0  0  0  # atno 17370 bound_to 10713
  157.1261  130.6082  149.5517 LP  0  0  0  0  0  0  0  0  0  0  0  0  # atno 17371 bound_to 10713
  140.5663  134.5884  157.5446 LP  0  0  0  0  0  0  0  0  0  0  0  0  # atno 17394 bound_to 11000
  139.9528  134.7587  156.0409 LP  0  0  0  0  0  0  0  0  0  0  0  0  # atno 17395 bound_to 11000

$$$$
