AV-unprocessed.smi:1423|AV-procd|sdf|5798|dock8
  -GOLD-   22720 5453D 1   1.00000     0.00000
 Structure written by MMmdl.
 43 44  0  0  0  0  0  0  0  0  3 V2000
  154.3246  140.5637  160.9206 C   0  0  0  0  0  0  0  0  0  0  0  0
  153.9594  141.9058  160.6185 O   0  0  0  0  0  0  0  0  0  0  0  0
  153.0097  142.1230  159.6412 C   0  0  0  0  0  0  0  0  0  0  0  0
  152.6677  143.4508  159.3181 C   0  0  0  0  0  0  0  0  0  0  0  0
  151.6998  143.6829  158.3223 C   0  0  0  0  0  0  0  0  0  0  0  0
  151.1069  142.5740  157.6719 C   0  0  0  0  0  0  0  0  0  0  0  0
  150.1066  142.6713  156.6657 N   0  0  0  0  0  0  0  0  0  0  0  0
  149.4888  141.6830  155.9957 C   0  0  0  0  0  0  0  0  0  0  0  0
  149.6618  140.4788  156.1808 O   0  0  0  0  0  0  0  0  0  0  0  0
  148.6293  142.1730  155.0903 N   0  0  0  0  0  0  0  0  0  0  0  0
  147.7942  141.3681  154.1986 C   0  0  2  0  0  0  0  0  0  0  0  0
  146.9526  142.2488  153.2539 C   0  0  0  0  0  0  0  0  0  0  0  0
  145.8274  142.9858  154.0010 C   0  0  0  0  0  0  0  0  0  0  0  0
  144.9597  142.0306  154.7412 N   0  3  2  0  0  0  0  0  0  0  0  0
  143.7811  142.6784  155.3691 C   0  0  0  0  0  0  0  0  0  0  0  0
  142.7416  141.6228  155.7606 C   0  0  0  0  0  0  0  0  0  0  0  0
  142.2875  140.9299  154.6992 N   0  5  0  0  0  0  0  0  0  0  0  0
  142.4303  141.4858  156.9419 O   0  0  0  0  0  0  0  0  0  0  0  0
  145.7409  141.2214  155.7106 C   0  0  0  0  0  0  0  0  0  0  0  0
  146.8693  140.4436  155.0091 C   0  0  0  0  0  0  0  0  0  0  0  0
  151.5109  141.2848  158.0778 C   0  0  0  0  0  0  0  0  0  0  0  0
  152.4377  141.0553  159.0318 N   0  0  0  0  0  0  0  0  0  0  0  0
  155.0855  140.5648  161.7008 H   0  0  0  0  0  0  0  0  0  0  0  0
  154.7447  140.0585  160.0498 H   0  0  0  0  0  0  0  0  0  0  0  0
  153.4724  139.9918  161.2906 H   0  0  0  0  0  0  0  0  0  0  0  0
  153.1370  144.2788  159.8286 H   0  0  0  0  0  0  0  0  0  0  0  0
  151.4273  144.7008  158.0928 H   0  0  0  0  0  0  0  0  0  0  0  0
  149.7984  143.6094  156.4562 H   0  0  0  0  0  0  0  0  0  0  0  0
  148.5440  143.1759  155.0136 H   0  0  0  0  0  0  0  0  0  0  0  0
  148.4538  140.7392  153.5976 H   0  0  0  0  0  0  0  0  0  0  0  0
  147.5852  142.9660  152.7298 H   0  0  0  0  0  0  0  0  0  0  0  0
  146.5095  141.6198  152.4804 H   0  0  0  0  0  0  0  0  0  0  0  0
  146.2481  143.7130  154.6973 H   0  0  0  0  0  0  0  0  0  0  0  0
  145.2362  143.5508  153.2799 H   0  0  0  0  0  0  0  0  0  0  0  0
  144.0788  143.1822  156.2896 H   0  0  0  0  0  0  0  0  0  0  0  0
  143.3754  143.4502  154.7114 H   0  0  0  0  0  0  0  0  0  0  0  0
  142.9585  140.6352  153.9793 H   0  0  0  0  0  0  0  0  0  0  0  0
  146.1500  141.8734  156.4840 H   0  0  0  0  0  0  0  0  0  0  0  0
  145.0810  140.5128  156.2121 H   0  0  0  0  0  0  0  0  0  0  0  0
  146.4256  139.7064  154.3383 H   0  0  0  0  0  0  0  0  0  0  0  0
  147.4460  139.8770  155.7413 H   0  0  0  0  0  0  0  0  0  0  0  0
  151.0784  140.4065  157.6212 H   0  0  0  0  0  0  0  0  0  0  0  0
  144.5867  141.3830  154.0615 H   0  0  0  0  0  0  0  0  0  0  0  0
  1  2  1  0  0  0  0
  1 23  1  0  0  0  0
  1 24  1  0  0  0  0
  1 25  1  0  0  0  0
  2  3  1  0  0  0  0
  3 22  1  0  0  0  0
  3  4  2  0  0  0  0
  4  5  1  0  0  0  0
  4 26  1  0  0  0  0
  5  6  2  0  0  0  0
  5 27  1  0  0  0  0
  6  7  1  0  0  0  0
  6 21  1  0  0  0  0
  7  8  1  0  0  0  0
  7 28  1  0  0  0  0
  8  9  2  0  0  0  0
  8 10  1  0  0  0  0
 10 11  1  0  0  0  0
 10 29  1  0  0  0  0
 11 20  1  0  0  0  0
 11 12  1  0  0  0  0
 11 30  1  0  0  0  0
 12 13  1  0  0  0  0
 12 31  1  0  0  0  0
 12 32  1  0  0  0  0
 13 14  1  0  0  0  0
 13 33  1  0  0  0  0
 13 34  1  0  0  0  0
 14 15  1  0  0  0  0
 14 19  1  0  0  0  0
 14 43  1  0  0  0  0
 15 16  1  0  0  0  0
 15 35  1  0  0  0  0
 15 36  1  0  0  0  0
 16 17  1  0  0  0  0
 16 18  2  0  0  0  0
 17 37  1  0  0  0  0
 19 20  1  0  0  0  0
 19 38  1  0  0  0  0
 19 39  1  0  0  0  0
 20 40  1  0  0  0  0
 20 41  1  0  0  0  0
 21 22  2  0  0  0  0
 21 42  1  0  0  0  0
M  CHG  1  14   1
M  CHG  1  17  -1
M  END
> <s_m_source_file>
AV-unprocessed.smi

> <i_m_source_file_index>
1423

> <i_lp_mmshare_version>
43012

> <i_f3d_flags>
0

> <s_epik_input>
W0NIM11PYzFbY0hdW2NIXWMoW2NIXW4xKVtOSF1DKD1PKVtOSF1bQ0hdMltDSDJdW0NIMl1OKFtDSDJdW0NIMl0yKVtDSDJdQyg9TylbTkgyXQ==

> <s_epik_cmdline>
J2VwaWtfcHl0aG9uJywgJy1waCcsICc3LjAnLCAnLXRuJywgJzgnLCAnLW1hJywgJzIwMCcsICctbWV0YWxfYmluZGluZycsICctaW1hZScsICc8aW5maWxlLm1hZT4nLCAnLW9tYWUnLCAnPG91dGZpbGUubWFlPic=

> <r_lp_tautomer_probability>
1

> <r_epik_Ionization_Penalty>
5.72888

> <r_epik_Ionization_Penalty_Charging>
5.7288

> <r_epik_Ionization_Penalty_Neutral>
7.8452e-05

> <r_epik_State_Penalty>
6.54882

> <r_epik_Charging_Adjusted_Penalty>
12.2776

> <i_epik_Tot_Q>
0

> <i_epik_Tot_abs_Q>
2

> <r_epik_Metal_State_Penalty>
2.51301

> <b_epik_Metal_Only>
1

> <s_lp_Force_Field>
OPLS_2005

> <r_lp_Energy>
11.3515

> <b_lp_Chiralities_Consistent>
1

> <s_lp_Variant>
AV-unprocessed.smi:1423-5

> <Gold.Version>
5.8.1

> <Gold.Id.Protein>
6NUR|6NUR_protein|mol2

> <Gold.PLP.Fitness>
51.2486

> <Gold.PLP.PLP>
-36.5583

> <Gold.PLP.part.hbond>
-5.0000

> <Gold.PLP.part.metal>
0.0000

> <Gold.PLP.part.buried>
-5.1065

> <Gold.PLP.part.nonpolar>
-26.7442

> <Gold.PLP.part.repulsive>
0.2934

> <Gold.PLP.ligand.clash>
0.0000

> <Gold.PLP.ligand.torsion>
0.0880

> <Gold.PLP.Chemscore.Hbond>
4.9425

> <Gold.PLP.Chemscore.CHOScore>
0.0000

> <Gold.PLP.Chemscore.Metal>
0.0000

> <Gold.Chemscore.Hbonds>
donor molecule, donor type, donor heavy atom, donor atom, acceptor molecule, acceptor atom, score
      L1  H     7    28       P1  8028  1.00
      L1  H    10    29       P1  8028  1.00
      L1  H    14    43       P1 10175  2.00
      L1  H    17    37       P1 10175  1.00

> <Gold.PLP.Chemscore.Internal.Correction>
0.0387

> <Gold.Rescore>
     Score         DG    S(hbond)    S(metal)    S(lipo)     H(rot)  DE(clash)    DE(int)     intcor
     17.12     -20.71       3.63        0.00      76.73       2.29       1.20       2.39       ----

> <Gold.Chemscore.Fitness>
17.1230

> <Gold.Chemscore.DG>
-20.7119

> <Gold.Chemscore.ZeroCoef>
-5.4800

> <Gold.Chemscore.Hbond>
3.6274

> <Gold.Chemscore.Metal>
0.0000

> <Gold.Chemscore.Lipo>
76.7292

> <Gold.Chemscore.Internal_Hbond>
0.0000

> <Gold.Chemscore.DEClash>
1.1977

> <Gold.Chemscore.DEInternal>
2.3911

> <Gold.Chemscore.Rot>
2.2894

> <Gold.Chemscore.Internal.Correction>
   9.000000E+99

> <Gold.Chemscore.Hbonds>
donor molecule, donor type, donor heavy atom, donor atom, acceptor molecule, acceptor atom, score
      L1  H     7    28       P1  8028  0.98
      L1  H    10    29       P1  8028  0.94
      L1  H    14    43       P1 10175  0.38
      L1  H    17    37       P1 10175  0.80

> <Gold.Chemscore.Hbond.Weighted>
-12.1154

> <Gold.Chemscore.Metal.Weighted>
-0.0000

> <Gold.Chemscore.Lipo.Weighted>
-8.9773

> <Gold.Chemscore.Internal_Hbond.Weighted>
0.0000

> <Gold.Chemscore.DEClash.Weighted>
1.1977

> <Gold.Chemscore.DEInternal.Weighted>
2.3911

> <Gold.Chemscore.Rot.Weighted>
5.8608

> <Gold.Chemscore.Internal.Correction.Weighted>
   9.000000E+99

> <Gold.Protein.RotatedTorsions>
[ 6907 6896 6895 6894 ] final -109.70 input  -60.11 | X-H torsion
[ 7974 7965 7964 7962 ] final   43.23 input  175.53 | X-H torsion
[ 8008 7997 7996 7995 ] final   15.33 input   59.86 | X-H torsion
[ 10167 10162 10161 10158 ] final -121.66 input  -65.29 | X-H torsion
[ 10718 10713 10712 10709 ] final   19.55 input   66.30 | X-H torsion
[ 10763 10752 10751 10750 ] final   -7.04 input  -60.55 | X-H torsion
[ 11005 11000 10999 10996 ] final   97.75 input  -57.11 | X-H torsion

> <Gold.Protein.ActiveResidues>
 VAL166  LYS551  ARG553  GLY616  TRP617  ASP618  TYR619  PRO620  LYS621  CYS622 
 ASP623  PHE694  ASN695  SER759  ASP760  ASP761  ALA762  ILE779  LEU786  VAL792 
 PHE793  MET794  SER795  GLU796  ALA797  LYS798  CYS799  TRP800  GLU811  SER814 

> <Gold.Protein.RotatedAtoms>
  150.7578  133.9490  159.3479 H   0  0  0  0  0  0  0  0  0  0  0  0  # atno 6907 bound_to 6896
  151.7406  135.0853  160.0324 H   0  0  0  0  0  0  0  0  0  0  0  0  # atno 6908 bound_to 6896
  152.3531  133.6166  159.5995 H   0  0  0  0  0  0  0  0  0  0  0  0  # atno 6909 bound_to 6896
  146.0673  139.5211  142.9620 H   0  0  0  0  0  0  0  0  0  0  0  0  # atno 7974 bound_to 7965
  154.8612  140.2944  155.5538 H   0  0  0  0  0  0  0  0  0  0  0  0  # atno 8008 bound_to 7997
  156.3020  140.2478  156.3519 H   0  0  0  0  0  0  0  0  0  0  0  0  # atno 8009 bound_to 7997
  154.8917  140.0394  157.1831 H   0  0  0  0  0  0  0  0  0  0  0  0  # atno 8010 bound_to 7997
  140.0226  143.5329  152.2214 H   0  0  0  0  0  0  0  0  0  0  0  0  # atno 10167 bound_to 10162
  157.1120  130.6513  149.5900 H   0  0  0  0  0  0  0  0  0  0  0  0  # atno 10718 bound_to 10713
  153.4208  135.7010  153.6295 H   0  0  0  0  0  0  0  0  0  0  0  0  # atno 10763 bound_to 10752
  153.4750  135.3706  155.2412 H   0  0  0  0  0  0  0  0  0  0  0  0  # atno 10764 bound_to 10752
  154.8722  135.4052  154.3576 H   0  0  0  0  0  0  0  0  0  0  0  0  # atno 10765 bound_to 10752
  139.8774  134.9016  156.4354 H   0  0  0  0  0  0  0  0  0  0  0  0  # atno 11005 bound_to 11000
  145.6454  141.0275  143.1789 LP  0  0  0  0  0  0  0  0  0  0  0  0  # atno 17320 bound_to 7965
  144.7210  139.8030  143.7382 LP  0  0  0  0  0  0  0  0  0  0  0  0  # atno 17321 bound_to 7965
  139.6130  144.7613  151.2910 LP  0  0  0  0  0  0  0  0  0  0  0  0  # atno 17342 bound_to 10162
  140.7336  143.6790  150.8017 LP  0  0  0  0  0  0  0  0  0  0  0  0  # atno 17343 bound_to 10162
  155.9848  130.4875  150.7002 LP  0  0  0  0  0  0  0  0  0  0  0  0  # atno 17370 bound_to 10713
  157.4551  131.0877  151.0805 LP  0  0  0  0  0  0  0  0  0  0  0  0  # atno 17371 bound_to 10713
  140.9037  133.7761  155.9710 LP  0  0  0  0  0  0  0  0  0  0  0  0  # atno 17394 bound_to 11000
  140.8623  134.2826  157.5229 LP  0  0  0  0  0  0  0  0  0  0  0  0  # atno 17395 bound_to 11000

$$$$
