AV-unprocessed.smi:2062|AV-procd|sdf|8406|dock8
  -GOLD-   2272011 93D 1   1.00000     0.00000
 Structure written by MMmdl.
 41 42  0  0  0  0  0  0  0  0  2 V2000
  151.9162  143.8919  158.3667 C   0  0  0  0  0  0  0  0  0  0  0  0
  151.2809  142.5443  157.9944 C   0  0  0  0  0  0  0  0  0  0  0  0
  152.0757  141.3847  158.6165 C   0  0  0  0  0  0  0  0  0  0  0  0
  151.1724  142.4055  156.4603 C   0  0  0  0  0  0  0  0  0  0  0  0
  150.4171  141.2492  155.9756 N   0  0  0  0  0  0  0  0  0  0  0  0
  149.4665  141.5943  154.9209 C   0  0  0  0  0  0  0  0  0  0  0  0
  148.7120  140.3584  154.4029 C   0  0  0  0  0  0  0  0  0  0  0  0
  149.6470  139.3848  153.9526 O   0  0  0  0  0  0  0  0  0  0  0  0
  150.5531  138.9718  154.9734 C   0  0  1  0  0  0  0  0  0  0  0  0
  151.5042  137.9140  154.3881 C   0  0  0  0  0  0  0  0  0  0  0  0
  150.8332  136.6343  154.1847 N   0  0  0  0  0  0  0  0  0  0  0  0
  151.0897  135.4988  154.8495 C   0  0  0  0  0  0  0  0  0  0  0  0
  151.9663  135.4784  155.7169 O   0  0  0  0  0  0  0  0  0  0  0  0
  150.3135  134.4584  154.4696 N   0  5  0  0  0  0  0  0  0  0  0  0
  150.7393  133.1985  154.6559 C   0  0  0  0  0  0  0  0  0  0  0  0
  151.6747  132.8695  155.5547 N   0  0  0  0  0  0  0  0  0  0  0  0
  151.9701  131.5051  155.5744 C   0  0  0  0  0  0  0  0  0  0  0  0
  151.2498  130.7793  154.6628 C   0  0  0  0  0  0  0  0  0  0  0  0
  150.1717  131.7941  153.7476 S   0  0  0  0  0  0  0  0  0  0  0  0
  151.3158  140.2113  155.4807 C   0  0  0  0  0  0  0  0  0  0  0  0
  152.9304  143.9743  157.9745 H   0  0  0  0  0  0  0  0  0  0  0  0
  151.9671  144.0180  159.4487 H   0  0  0  0  0  0  0  0  0  0  0  0
  151.3360  144.7240  157.9671 H   0  0  0  0  0  0  0  0  0  0  0  0
  150.2820  142.5412  158.4291 H   0  0  0  0  0  0  0  0  0  0  0  0
  153.0907  141.3427  158.2205 H   0  0  0  0  0  0  0  0  0  0  0  0
  151.6002  140.4242  158.4157 H   0  0  0  0  0  0  0  0  0  0  0  0
  152.1450  141.4926  159.6992 H   0  0  0  0  0  0  0  0  0  0  0  0
  150.7356  143.3158  156.0465 H   0  0  0  0  0  0  0  0  0  0  0  0
  152.1864  142.3580  156.0601 H   0  0  0  0  0  0  0  0  0  0  0  0
  148.7363  142.3149  155.2866 H   0  0  0  0  0  0  0  0  0  0  0  0
  149.9906  142.0704  154.0908 H   0  0  0  0  0  0  0  0  0  0  0  0
  148.0809  139.9338  155.1852 H   0  0  0  0  0  0  0  0  0  0  0  0
  148.0570  140.6327  153.5759 H   0  0  0  0  0  0  0  0  0  0  0  0
  149.9887  138.5368  155.8004 H   0  0  0  0  0  0  0  0  0  0  0  0
  151.8954  138.2524  153.4284 H   0  0  0  0  0  0  0  0  0  0  0  0
  152.3675  137.7758  155.0410 H   0  0  0  0  0  0  0  0  0  0  0  0
  150.1048  136.6073  153.4862 H   0  0  0  0  0  0  0  0  0  0  0  0
  152.7094  131.1369  156.2701 H   0  0  0  0  0  0  0  0  0  0  0  0
  151.2872  129.7173  154.4737 H   0  0  0  0  0  0  0  0  0  0  0  0
  151.9330  140.6120  154.6748 H   0  0  0  0  0  0  0  0  0  0  0  0
  151.9998  139.9093  156.2749 H   0  0  0  0  0  0  0  0  0  0  0  0
  1  2  1  0  0  0  0
  1 21  1  0  0  0  0
  1 22  1  0  0  0  0
  1 23  1  0  0  0  0
  2  3  1  0  0  0  0
  2  4  1  0  0  0  0
  2 24  1  0  0  0  0
  3 25  1  0  0  0  0
  3 26  1  0  0  0  0
  3 27  1  0  0  0  0
  4  5  1  0  0  0  0
  4 28  1  0  0  0  0
  4 29  1  0  0  0  0
  5 20  1  0  0  0  0
  5  6  1  0  0  0  0
  6  7  1  0  0  0  0
  6 30  1  0  0  0  0
  6 31  1  0  0  0  0
  7  8  1  0  0  0  0
  7 32  1  0  0  0  0
  7 33  1  0  0  0  0
  8  9  1  0  0  0  0
  9 10  1  0  0  0  0
  9 20  1  0  0  0  0
  9 34  1  0  0  0  0
 10 11  1  0  0  0  0
 10 35  1  0  0  0  0
 10 36  1  0  0  0  0
 11 12  1  0  0  0  0
 11 37  1  0  0  0  0
 12 13  2  0  0  0  0
 12 14  1  0  0  0  0
 14 15  1  0  0  0  0
 15 19  1  0  0  0  0
 15 16  2  0  0  0  0
 16 17  1  0  0  0  0
 17 18  2  0  0  0  0
 17 38  1  0  0  0  0
 18 19  1  0  0  0  0
 18 39  1  0  0  0  0
 20 40  1  0  0  0  0
 20 41  1  0  0  0  0
M  CHG  1  14  -1
M  END
> <s_m_source_file>
AV-unprocessed.smi

> <i_m_source_file_index>
2062

> <i_lp_mmshare_version>
43012

> <i_f3d_flags>
0

> <s_epik_input>
W0NIM11bQ0hdKFtDSDNdKVtDSDJdTjFbQ0gyXVtDSDJdT1tDQEhdKFtDSDJdMSlbQ0gyXVtOSF1DKD1PKVtOSF1jMm5bY0hdW2NIXXMy

> <s_epik_cmdline>
J2VwaWtfcHl0aG9uJywgJy1waCcsICc3LjAnLCAnLXRuJywgJzgnLCAnLW1hJywgJzIwMCcsICctbWV0YWxfYmluZGluZycsICctaW1hZScsICc8aW5maWxlLm1hZT4nLCAnLW9tYWUnLCAnPG91dGZpbGUubWFlPic=

> <r_lp_tautomer_probability>
0.999

> <r_epik_Ionization_Penalty>
7.76343

> <r_epik_Ionization_Penalty_Charging>
5.65212

> <r_epik_Ionization_Penalty_Neutral>
2.11131

> <r_epik_State_Penalty>
6.82229

> <r_epik_Charging_Adjusted_Penalty>
12.4744

> <i_epik_Tot_Q>
-1

> <i_epik_Tot_abs_Q>
1

> <r_epik_Metal_State_Penalty>
2.82401

> <b_epik_Metal_Only>
1

> <s_lp_Force_Field>
OPLS_2005

> <r_lp_Energy>
19.1571

> <b_lp_Chiralities_Consistent>
1

> <s_lp_Variant>
AV-unprocessed.smi:2062-11

> <Gold.Version>
5.8.1

> <Gold.Id.Protein>
6NUR|6NUR_protein|mol2

> <Gold.PLP.Fitness>
41.7021

> <Gold.PLP.PLP>
-37.6552

> <Gold.PLP.part.hbond>
-2.9258

> <Gold.PLP.part.metal>
0.0000

> <Gold.PLP.part.buried>
-5.3668

> <Gold.PLP.part.nonpolar>
-30.8912

> <Gold.PLP.part.repulsive>
1.4124

> <Gold.PLP.ligand.clash>
0.0000

> <Gold.PLP.ligand.torsion>
1.0045

> <Gold.PLP.Chemscore.Hbond>
2.0000

> <Gold.PLP.Chemscore.CHOScore>
0.0000

> <Gold.PLP.Chemscore.Metal>
0.0000

> <Gold.Chemscore.Hbonds>
donor molecule, donor type, donor heavy atom, donor atom, acceptor molecule, acceptor atom, score
      L1  H    11    37       P1  7948  0.70
      P1  H 10752 10764       L1    13  0.57

> <Gold.PLP.Chemscore.Internal.Correction>
0.0560

> <Gold.Rescore>
     Score         DG    S(hbond)    S(metal)    S(lipo)     H(rot)  DE(clash)    DE(int)     intcor
     13.45     -16.41       1.53        0.00      86.42       1.68       0.16       2.81       ----

> <Gold.Chemscore.Fitness>
13.4457

> <Gold.Chemscore.DG>
-16.4087

> <Gold.Chemscore.ZeroCoef>
-5.4800

> <Gold.Chemscore.Hbond>
1.5308

> <Gold.Chemscore.Metal>
0.0000

> <Gold.Chemscore.Lipo>
86.4188

> <Gold.Chemscore.Internal_Hbond>
0.0000

> <Gold.Chemscore.DEClash>
0.1564

> <Gold.Chemscore.DEInternal>
2.8066

> <Gold.Chemscore.Rot>
1.6779

> <Gold.Chemscore.Internal.Correction>
   9.000000E+99

> <Gold.Chemscore.Hbonds>
donor molecule, donor type, donor heavy atom, donor atom, acceptor molecule, acceptor atom, score
      L1  H    11    37       P1  7948  0.07
      P1  H 10752 10764       L1    13  0.36

> <Gold.Chemscore.Hbond.Weighted>
-5.1130

> <Gold.Chemscore.Metal.Weighted>
-0.0000

> <Gold.Chemscore.Lipo.Weighted>
-10.1110

> <Gold.Chemscore.Internal_Hbond.Weighted>
0.0000

> <Gold.Chemscore.DEClash.Weighted>
0.1564

> <Gold.Chemscore.DEInternal.Weighted>
2.8066

> <Gold.Chemscore.Rot.Weighted>
4.2953

> <Gold.Chemscore.Internal.Correction.Weighted>
   9.000000E+99

> <Gold.Protein.RotatedTorsions>
[ 6907 6896 6895 6894 ] final  118.63 input  -60.11 | X-H torsion
[ 7974 7965 7964 7962 ] final -104.93 input  175.53 | X-H torsion
[ 8008 7997 7996 7995 ] final  -25.63 input   59.86 | X-H torsion
[ 10167 10162 10161 10158 ] final   58.23 input  -65.29 | X-H torsion
[ 10718 10713 10712 10709 ] final  -92.33 input   66.30 | X-H torsion
[ 10763 10752 10751 10750 ] final  -25.58 input  -60.55 | X-H torsion
[ 11005 11000 10999 10996 ] final  105.80 input  -57.11 | X-H torsion

> <Gold.Protein.ActiveResidues>
 VAL166  LYS551  ARG553  GLY616  TRP617  ASP618  TYR619  PRO620  LYS621  CYS622 
 ASP623  PHE694  ASN695  SER759  ASP760  ASP761  ALA762  ILE779  LEU786  VAL792 
 PHE793  MET794  SER795  GLU796  ALA797  LYS798  CYS799  TRP800  GLU811  SER814 

> <Gold.Protein.RotatedAtoms>
  152.4530  133.7666  159.6775 H   0  0  0  0  0  0  0  0  0  0  0  0  # atno 6907 bound_to 6896
  150.8447  133.7870  159.3054 H   0  0  0  0  0  0  0  0  0  0  0  0  # atno 6908 bound_to 6896
  151.5484  135.1070  159.9995 H   0  0  0  0  0  0  0  0  0  0  0  0  # atno 6909 bound_to 6896
  145.2369  140.9191  143.3172 H   0  0  0  0  0  0  0  0  0  0  0  0  # atno 7974 bound_to 7965
  154.4466  140.1921  156.0649 H   0  0  0  0  0  0  0  0  0  0  0  0  # atno 8008 bound_to 7997
  156.0555  140.3303  155.7373 H   0  0  0  0  0  0  0  0  0  0  0  0  # atno 8009 bound_to 7997
  155.5492  140.0593  157.2844 H   0  0  0  0  0  0  0  0  0  0  0  0  # atno 8010 bound_to 7997
  140.1894  144.4101  150.6578 H   0  0  0  0  0  0  0  0  0  0  0  0  # atno 10167 bound_to 10162
  156.0001  130.4983  150.5610 H   0  0  0  0  0  0  0  0  0  0  0  0  # atno 10718 bound_to 10713
  153.7022  135.6955  153.5060 H   0  0  0  0  0  0  0  0  0  0  0  0  # atno 10763 bound_to 10752
  153.2334  135.4330  155.0619 H   0  0  0  0  0  0  0  0  0  0  0  0  # atno 10764 bound_to 10752
  154.8341  135.3490  154.6561 H   0  0  0  0  0  0  0  0  0  0  0  0  # atno 10765 bound_to 10752
  139.8806  134.9348  156.5568 H   0  0  0  0  0  0  0  0  0  0  0  0  # atno 11005 bound_to 11000
  144.9624  139.3965  143.6349 LP  0  0  0  0  0  0  0  0  0  0  0  0  # atno 17320 bound_to 7965
  146.3338  139.8684  142.8844 LP  0  0  0  0  0  0  0  0  0  0  0  0  # atno 17321 bound_to 7965
  140.6466  143.2215  151.6172 LP  0  0  0  0  0  0  0  0  0  0  0  0  # atno 17342 bound_to 10162
  139.5262  144.3052  152.1040 LP  0  0  0  0  0  0  0  0  0  0  0  0  # atno 17343 bound_to 10162
  157.3519  131.0735  151.1706 LP  0  0  0  0  0  0  0  0  0  0  0  0  # atno 17370 bound_to 10713
  157.2520  130.6618  149.5935 LP  0  0  0  0  0  0  0  0  0  0  0  0  # atno 17371 bound_to 10713
  140.8199  133.8362  155.8886 LP  0  0  0  0  0  0  0  0  0  0  0  0  # atno 17394 bound_to 11000
  140.9428  134.1879  157.4785 LP  0  0  0  0  0  0  0  0  0  0  0  0  # atno 17395 bound_to 11000

$$$$
