AV-unprocessed.smi:110|AV-procd|sdf|1073|dock4
  -GOLD-   2262018163D 1   1.00000     0.00000
 Structure written by MMmdl.
 46 50  0  0  0  0  0  0  0  0  1 V2000
  152.1852  132.7099  156.9622 O   0  0  0  0  0  0  0  0  0  0  0  0
  151.1004  132.9995  156.1064 C   0  0  0  0  0  0  0  0  0  0  0  0
  150.6426  134.4548  156.3076 C   0  0  1  0  0  0  0  0  0  0  0  0
  151.6866  135.3736  155.9872 O   0  0  0  0  0  0  0  0  0  0  0  0
  151.1552  136.5836  155.5338 C   0  0  2  0  0  0  0  0  0  0  0  0
  151.5703  137.6960  156.4507 N   0  0  0  0  0  0  0  0  0  0  0  0
  152.4094  137.5997  157.5372 C   0  0  0  0  0  0  0  0  0  0  0  0
  152.6242  138.7144  158.1801 N   0  0  0  0  0  0  0  0  0  0  0  0
  151.8648  139.6563  157.4967 C   0  0  0  0  0  0  0  0  0  0  0  0
  151.6361  141.0544  157.6486 C   0  0  0  0  0  0  0  0  0  0  0  0
  152.1806  141.8228  158.6210 N   0  0  0  0  0  0  0  0  0  0  0  0
  153.1210  141.2203  159.5766 C   0  0  0  0  0  0  0  0  0  0  0  0
  153.2175  142.1634  160.7907 C   0  0  0  0  0  0  0  0  0  0  0  0
  152.3809  143.3120  160.3272 C   0  0  0  0  0  0  0  0  0  0  0  0
  152.1578  144.5275  160.9968 C   0  0  0  0  0  0  0  0  0  0  0  0
  151.3488  145.4960  160.3647 C   0  0  0  0  0  0  0  0  0  0  0  0
  150.7936  145.2413  159.0889 C   0  0  0  0  0  0  0  0  0  0  0  0
  151.0338  144.0132  158.4339 C   0  0  0  0  0  0  0  0  0  0  0  0
  151.8238  143.0407  159.0812 C   0  0  0  0  0  0  0  0  0  0  0  0
  150.8574  141.6685  156.7220 N   0  0  0  0  0  0  0  0  0  0  0  0
  150.3018  140.9595  155.7364 C   0  0  0  0  0  0  0  0  0  0  0  0
  150.4060  139.6533  155.4894 N   0  0  0  0  0  0  0  0  0  0  0  0
  151.2107  139.0295  156.3971 C   0  0  0  0  0  0  0  0  0  0  0  0
  149.6258  136.4207  155.4222 C   0  0  2  0  0  0  0  0  0  0  0  0
  148.9057  137.0002  156.4960 O   0  0  0  0  0  0  0  0  0  0  0  0
  149.4700  134.9082  155.4274 C   0  0  1  0  0  0  0  0  0  0  0  0
  149.5848  134.3913  154.1135 O   0  0  0  0  0  0  0  0  0  0  0  0
  150.3483  134.6053  157.3471 H   0  0  0  0  0  0  0  0  0  0  0  0
  151.6210  136.8304  154.5791 H   0  0  0  0  0  0  0  0  0  0  0  0
  149.2738  136.8757  154.4954 H   0  0  0  0  0  0  0  0  0  0  0  0
  148.5085  134.5880  155.8316 H   0  0  0  0  0  0  0  0  0  0  0  0
  152.9632  133.1133  156.6090 H   0  0  0  0  0  0  0  0  0  0  0  0
  151.3760  132.8073  155.0692 H   0  0  0  0  0  0  0  0  0  0  0  0
  150.2927  132.3130  156.3619 H   0  0  0  0  0  0  0  0  0  0  0  0
  152.8660  136.6682  157.8392 H   0  0  0  0  0  0  0  0  0  0  0  0
  152.7861  140.2270  159.8785 H   0  0  0  0  0  0  0  0  0  0  0  0
  154.0959  141.1132  159.0996 H   0  0  0  0  0  0  0  0  0  0  0  0
  152.7878  141.7190  161.6888 H   0  0  0  0  0  0  0  0  0  0  0  0
  154.2426  142.4745  160.9935 H   0  0  0  0  0  0  0  0  0  0  0  0
  152.5971  144.7175  161.9650 H   0  0  0  0  0  0  0  0  0  0  0  0
  151.1601  146.4403  160.8537 H   0  0  0  0  0  0  0  0  0  0  0  0
  150.1852  145.9933  158.6090 H   0  0  0  0  0  0  0  0  0  0  0  0
  150.6206  143.8336  157.4526 H   0  0  0  0  0  0  0  0  0  0  0  0
  149.6871  141.5181  155.0463 H   0  0  0  0  0  0  0  0  0  0  0  0
  149.5191  137.4388  157.0658 H   0  0  0  0  0  0  0  0  0  0  0  0
  149.4562  135.0987  153.5002 H   0  0  0  0  0  0  0  0  0  0  0  0
  1  2  1  0  0  0  0
  1 32  1  0  0  0  0
  2  3  1  0  0  0  0
  2 33  1  0  0  0  0
  2 34  1  0  0  0  0
  3 28  1  0  0  0  0
  3 26  1  0  0  0  0
  3  4  1  0  0  0  0
  4  5  1  0  0  0  0
  5 29  1  0  0  0  0
  5  6  1  0  0  0  0
  5 24  1  0  0  0  0
  6 23  1  0  0  0  0
  6  7  1  0  0  0  0
  7  8  2  0  0  0  0
  7 35  1  0  0  0  0
  8  9  1  0  0  0  0
  9 23  2  0  0  0  0
  9 10  1  0  0  0  0
 10 11  1  0  0  0  0
 10 20  2  0  0  0  0
 11 19  1  0  0  0  0
 11 12  1  0  0  0  0
 12 13  1  0  0  0  0
 12 36  1  0  0  0  0
 12 37  1  0  0  0  0
 13 14  1  0  0  0  0
 13 38  1  0  0  0  0
 13 39  1  0  0  0  0
 14 19  2  0  0  0  0
 14 15  1  0  0  0  0
 15 16  2  0  0  0  0
 15 40  1  0  0  0  0
 16 17  1  0  0  0  0
 16 41  1  0  0  0  0
 17 18  2  0  0  0  0
 17 42  1  0  0  0  0
 18 19  1  0  0  0  0
 18 43  1  0  0  0  0
 20 21  1  0  0  0  0
 21 22  2  0  0  0  0
 21 44  1  0  0  0  0
 22 23  1  0  0  0  0
 24 30  1  0  0  0  0
 24 25  1  0  0  0  0
 24 26  1  0  0  0  0
 25 45  1  0  0  0  0
 26 31  1  0  0  0  0
 26 27  1  0  0  0  0
 27 46  1  0  0  0  0
M  END
> <s_m_source_file>
AV-unprocessed.smi

> <i_m_source_file_index>
110

> <i_lp_mmshare_version>
43012

> <i_f3d_flags>
0

> <s_epik_input>
W09IXVtDSDJdW0NASF0xT1tDQEhdKFtDQEhdKFtPSF0pW0NAQEhdMVtPSF0pbihbY0hdbjIpYyhjMjMpbltjSF1uYzNOKFtDSDJdW0NIMl00KWMoYzQ1KVtjSF1bY0hdW2NIXVtjSF01

> <s_epik_cmdline>
J2VwaWtfcHl0aG9uJywgJy1waCcsICc3LjAnLCAnLXRuJywgJzgnLCAnLW1hJywgJzIwMCcsICctbWV0YWxfYmluZGluZycsICctaW1hZScsICc8aW5maWxlLm1hZT4nLCAnLW9tYWUnLCAnPG91dGZpbGUubWFlPic=

> <r_lp_tautomer_probability>
1

> <r_epik_Ionization_Penalty>
0.00068475

> <r_epik_Ionization_Penalty_Charging>
0

> <r_epik_Ionization_Penalty_Neutral>
0.00068475

> <r_epik_State_Penalty>
0.000417442

> <r_epik_Charging_Adjusted_Penalty>
0.000417442

> <i_epik_Tot_Q>
0

> <i_epik_Tot_abs_Q>
0

> <r_epik_Metal_State_Penalty>
-0

> <b_epik_Metal_Only>
0

> <s_epik_Chemistry_Notes>
This compound contains an acetal/aminal-like group ( X-CH(R)-Y where X, Y are N, S, or O) that may be acid/base labile, releasing an aldehyde.

> <s_lp_Force_Field>
OPLS_2005

> <r_lp_Energy>
62.4803

> <b_lp_Chiralities_Consistent>
1

> <s_lp_Variant>
AV-unprocessed.smi:110-11

> <Gold.Version>
5.8.1

> <Gold.Id.Protein>
6NUR|6NUR_protein|mol2

> <Gold.PLP.Fitness>
54.2337

> <Gold.PLP.PLP>
-48.1190

> <Gold.PLP.part.hbond>
-2.9876

> <Gold.PLP.part.metal>
0.0000

> <Gold.PLP.part.buried>
-7.1846

> <Gold.PLP.part.nonpolar>
-38.7312

> <Gold.PLP.part.repulsive>
0.1067

> <Gold.PLP.ligand.clash>
0.0000

> <Gold.PLP.ligand.torsion>
0.1184

> <Gold.PLP.Chemscore.Hbond>
2.0961

> <Gold.PLP.Chemscore.CHOScore>
0.0000

> <Gold.PLP.Chemscore.Metal>
0.0000

> <Gold.Chemscore.Hbonds>
donor molecule, donor type, donor heavy atom, donor atom, acceptor molecule, acceptor atom, score
      L1  H    27    46       P1  7948  0.65
      P1  H  6896  6909       L1     1  0.01
      P1  H 10752 10764       L1     4  0.94

> <Gold.PLP.Chemscore.Internal.Correction>
0.0633

> <Gold.Rescore>
     Score         DG    S(hbond)    S(metal)    S(lipo)     H(rot)  DE(clash)    DE(int)     intcor
     10.11     -13.36       1.13        0.00     109.01       3.38       0.09       3.15       ----

> <Gold.Chemscore.Fitness>
10.1106

> <Gold.Chemscore.DG>
-13.3559

> <Gold.Chemscore.ZeroCoef>
-5.4800

> <Gold.Chemscore.Hbond>
1.1328

> <Gold.Chemscore.Metal>
0.0000

> <Gold.Chemscore.Lipo>
109.0125

> <Gold.Chemscore.Internal_Hbond>
0.0000

> <Gold.Chemscore.DEClash>
0.0950

> <Gold.Chemscore.DEInternal>
3.1503

> <Gold.Chemscore.Rot>
3.3837

> <Gold.Chemscore.Internal.Correction>
   9.000000E+99

> <Gold.Chemscore.Hbonds>
donor molecule, donor type, donor heavy atom, donor atom, acceptor molecule, acceptor atom, score
      L1  H    27    46       P1  7948  0.05
      P1  H  6896  6909       L1     1  0.05
      P1  H 10752 10764       L1     4  0.27

> <Gold.Chemscore.Hbond.Weighted>
-3.7836

> <Gold.Chemscore.Metal.Weighted>
-0.0000

> <Gold.Chemscore.Lipo.Weighted>
-12.7545

> <Gold.Chemscore.Internal_Hbond.Weighted>
0.0000

> <Gold.Chemscore.DEClash.Weighted>
0.0950

> <Gold.Chemscore.DEInternal.Weighted>
3.1503

> <Gold.Chemscore.Rot.Weighted>
8.6622

> <Gold.Chemscore.Internal.Correction.Weighted>
   9.000000E+99

> <Gold.Protein.RotatedTorsions>
[ 6907 6896 6895 6894 ] final  -63.91 input  -60.11 | X-H torsion
[ 7974 7965 7964 7962 ] final   92.96 input  175.53 | X-H torsion
[ 8008 7997 7996 7995 ] final   84.18 input   59.86 | X-H torsion
[ 10167 10162 10161 10158 ] final  -64.81 input  -65.29 | X-H torsion
[ 10718 10713 10712 10709 ] final   31.34 input   66.30 | X-H torsion
[ 10763 10752 10751 10750 ] final  -16.05 input  -60.55 | X-H torsion
[ 11005 11000 10999 10996 ] final  -45.92 input  -57.11 | X-H torsion

> <Gold.Protein.ActiveResidues>
 VAL166  LYS551  ARG553  GLY616  TRP617  ASP618  TYR619  PRO620  LYS621  CYS622 
 ASP623  PHE694  ASN695  SER759  ASP760  ASP761  ALA762  ILE779  LEU786  VAL792 
 PHE793  MET794  SER795  GLU796  ALA797  LYS798  CYS799  TRP800  GLU811  SER814 

> <Gold.Protein.RotatedAtoms>
  150.7619  134.6370  159.6216 H   0  0  0  0  0  0  0  0  0  0  0  0  # atno 6907 bound_to 6896
  152.3630  134.6841  160.0210 H   0  0  0  0  0  0  0  0  0  0  0  0  # atno 6908 bound_to 6896
  151.7225  133.3279  159.3355 H   0  0  0  0  0  0  0  0  0  0  0  0  # atno 6909 bound_to 6896
  145.4853  139.2277  143.2860 H   0  0  0  0  0  0  0  0  0  0  0  0  # atno 7974 bound_to 7965
  155.9337  140.3413  155.6270 H   0  0  0  0  0  0  0  0  0  0  0  0  # atno 8008 bound_to 7997
  155.7126  140.0773  157.2383 H   0  0  0  0  0  0  0  0  0  0  0  0  # atno 8009 bound_to 7997
  154.4090  140.1620  156.2300 H   0  0  0  0  0  0  0  0  0  0  0  0  # atno 8010 bound_to 7997
  140.5775  143.2323  151.6412 H   0  0  0  0  0  0  0  0  0  0  0  0  # atno 10167 bound_to 10162
  157.2712  130.7208  149.6505 H   0  0  0  0  0  0  0  0  0  0  0  0  # atno 10718 bound_to 10713
  153.5526  135.7011  153.5584 H   0  0  0  0  0  0  0  0  0  0  0  0  # atno 10763 bound_to 10752
  153.3501  135.3997  155.1639 H   0  0  0  0  0  0  0  0  0  0  0  0  # atno 10764 bound_to 10752
  154.8659  135.3763  154.5038 H   0  0  0  0  0  0  0  0  0  0  0  0  # atno 10765 bound_to 10752
  141.0546  133.6730  156.3082 H   0  0  0  0  0  0  0  0  0  0  0  0  # atno 11005 bound_to 11000
  146.2316  140.5643  142.8973 LP  0  0  0  0  0  0  0  0  0  0  0  0  # atno 17320 bound_to 7965
  144.7865  140.5946  143.6570 LP  0  0  0  0  0  0  0  0  0  0  0  0  # atno 17321 bound_to 7965
  139.5151  144.3390  152.0757 LP  0  0  0  0  0  0  0  0  0  0  0  0  # atno 17342 bound_to 10162
  140.2536  144.4143  150.6212 LP  0  0  0  0  0  0  0  0  0  0  0  0  # atno 17343 bound_to 10162
  155.9663  130.4367  150.5145 LP  0  0  0  0  0  0  0  0  0  0  0  0  # atno 17370 bound_to 10713
  157.3070  131.0656  151.2028 LP  0  0  0  0  0  0  0  0  0  0  0  0  # atno 17371 bound_to 10713
  140.5988  134.5576  157.5513 LP  0  0  0  0  0  0  0  0  0  0  0  0  # atno 17394 bound_to 11000
  139.9379  134.7840  156.0753 LP  0  0  0  0  0  0  0  0  0  0  0  0  # atno 17395 bound_to 11000

$$$$
