AV-unprocessed.smi:169|AV-procd|sdf|1399|dock4
  -GOLD-   2262019143D 1   1.00000     0.00000
 Structure written by MMmdl.
 56 60  0  0  0  0  0  0  0  0  2 V2000
  145.9905  142.7459  154.1904 C   0  0  0  0  0  0  0  0  0  0  0  0
  146.3394  142.4918  155.6681 C   0  0  0  0  0  0  0  0  0  0  0  0
  147.5980  141.7269  155.8723 N   0  3  1  0  0  0  0  0  0  0  0  0
  148.4980  141.7319  154.6916 C   0  0  0  0  0  0  0  0  0  0  0  0
  149.1630  140.3576  154.4878 C   0  0  0  0  0  0  0  0  0  0  0  0
  150.1125  139.8908  155.6114 C   0  0  1  0  0  0  0  0  0  0  0  0
  151.2928  140.8407  155.8444 C   0  0  0  0  0  0  0  0  0  0  0  0
  150.8383  141.7511  156.9911 C   0  0  0  0  0  0  0  0  0  0  0  0
  149.5046  141.1582  157.4910 C   0  0  1  0  0  0  0  0  0  0  0  0
  148.2730  142.0393  157.1623 C   0  0  0  0  0  0  0  0  0  0  0  0
  149.4268  139.8233  156.9006 N   0  0  0  0  0  0  0  0  0  0  0  0
  149.6664  138.7982  157.7602 C   0  0  0  0  0  0  0  0  0  0  0  0
  150.9314  138.5184  158.1716 N   0  0  0  0  0  0  0  0  0  0  0  0
  151.1570  137.5221  159.0328 C   0  0  0  0  0  0  0  0  0  0  0  0
  150.2772  136.6931  159.5973 N   0  0  0  0  0  0  0  0  0  0  0  0
  149.0065  136.9605  159.1824 C   0  0  0  0  0  0  0  0  0  0  0  0
  148.6173  137.9866  158.2758 C   0  0  0  0  0  0  0  0  0  0  0  0
  147.2402  137.9602  158.0911 N   0  0  0  0  0  0  0  0  0  0  0  0
  146.8370  136.9813  158.8542 C   0  0  0  0  0  0  0  0  0  0  0  0
  147.8324  136.3190  159.5384 N   0  0  0  0  0  0  0  0  0  0  0  0
  147.6589  135.1991  160.4524 C   0  0  0  0  0  0  0  0  0  0  0  0
  146.7924  135.5117  161.6885 C   0  0  0  0  0  0  0  0  0  0  0  0
  147.6041  136.3895  162.6638 C   0  0  0  0  0  0  0  0  0  0  0  0
  147.1865  137.7403  162.6537 O   0  0  0  0  0  0  0  0  0  0  0  0
  145.3533  135.9715  161.4125 C   0  0  0  0  0  0  0  0  0  0  0  0
  144.8008  134.9458  162.2669 O   0  0  0  0  0  0  0  0  0  0  0  0
  146.0878  134.2916  162.3008 C   0  0  0  0  0  0  0  0  0  0  0  0
  145.0351  143.2653  154.1107 H   0  0  0  0  0  0  0  0  0  0  0  0
  145.9014  141.8172  153.6270 H   0  0  0  0  0  0  0  0  0  0  0  0
  146.7350  143.3696  153.6967 H   0  0  0  0  0  0  0  0  0  0  0  0
  146.4105  143.4435  156.1962 H   0  0  0  0  0  0  0  0  0  0  0  0
  145.5219  141.9491  156.1444 H   0  0  0  0  0  0  0  0  0  0  0  0
  147.9164  141.9418  153.7930 H   0  0  0  0  0  0  0  0  0  0  0  0
  149.2311  142.5356  154.7642 H   0  0  0  0  0  0  0  0  0  0  0  0
  148.3852  139.6055  154.3490 H   0  0  0  0  0  0  0  0  0  0  0  0
  149.7197  140.3772  153.5503 H   0  0  0  0  0  0  0  0  0  0  0  0
  150.4934  138.9155  155.3069 H   0  0  0  0  0  0  0  0  0  0  0  0
  152.1658  140.2688  156.1618 H   0  0  0  0  0  0  0  0  0  0  0  0
  151.5759  141.3959  154.9497 H   0  0  0  0  0  0  0  0  0  0  0  0
  151.5835  141.7414  157.7875 H   0  0  0  0  0  0  0  0  0  0  0  0
  150.7370  142.7860  156.6635 H   0  0  0  0  0  0  0  0  0  0  0  0
  149.5768  141.1004  158.5783 H   0  0  0  0  0  0  0  0  0  0  0  0
  148.5397  143.0943  157.2204 H   0  0  0  0  0  0  0  0  0  0  0  0
  147.5346  141.8770  157.9485 H   0  0  0  0  0  0  0  0  0  0  0  0
  152.1895  137.3686  159.3107 H   0  0  0  0  0  0  0  0  0  0  0  0
  145.7949  136.7077  158.9347 H   0  0  0  0  0  0  0  0  0  0  0  0
  147.2335  134.3702  159.8850 H   0  0  0  0  0  0  0  0  0  0  0  0
  148.6483  134.8618  160.7636 H   0  0  0  0  0  0  0  0  0  0  0  0
  147.5195  136.0162  163.6847 H   0  0  0  0  0  0  0  0  0  0  0  0
  148.6640  136.3827  162.4089 H   0  0  0  0  0  0  0  0  0  0  0  0
  147.1116  138.0403  163.5468 H   0  0  0  0  0  0  0  0  0  0  0  0
  145.1301  136.9790  161.7645 H   0  0  0  0  0  0  0  0  0  0  0  0
  145.0314  135.8411  160.3789 H   0  0  0  0  0  0  0  0  0  0  0  0
  146.1046  133.4053  161.6646 H   0  0  0  0  0  0  0  0  0  0  0  0
  146.4085  134.0435  163.3130 H   0  0  0  0  0  0  0  0  0  0  0  0
  147.2963  140.7668  155.9593 H   0  0  0  0  0  0  0  0  0  0  0  0
  1  2  1  0  0  0  0
  1 28  1  0  0  0  0
  1 29  1  0  0  0  0
  1 30  1  0  0  0  0
  2  3  1  0  0  0  0
  2 31  1  0  0  0  0
  2 32  1  0  0  0  0
  3 10  1  0  0  0  0
  3  4  1  0  0  0  0
  3 56  1  0  0  0  0
  4  5  1  0  0  0  0
  4 33  1  0  0  0  0
  4 34  1  0  0  0  0
  5  6  1  0  0  0  0
  5 35  1  0  0  0  0
  5 36  1  0  0  0  0
  6 11  1  0  0  0  0
  6  7  1  0  0  0  0
  6 37  1  0  0  0  0
  7  8  1  0  0  0  0
  7 38  1  0  0  0  0
  7 39  1  0  0  0  0
  8  9  1  0  0  0  0
  8 40  1  0  0  0  0
  8 41  1  0  0  0  0
  9 10  1  0  0  0  0
  9 11  1  0  0  0  0
  9 42  1  0  0  0  0
 10 43  1  0  0  0  0
 10 44  1  0  0  0  0
 11 12  1  0  0  0  0
 12 17  1  0  0  0  0
 12 13  2  0  0  0  0
 13 14  1  0  0  0  0
 14 15  2  0  0  0  0
 14 45  1  0  0  0  0
 15 16  1  0  0  0  0
 16 20  1  0  0  0  0
 16 17  2  0  0  0  0
 17 18  1  0  0  0  0
 18 19  2  0  0  0  0
 19 20  1  0  0  0  0
 19 46  1  0  0  0  0
 20 21  1  0  0  0  0
 21 22  1  0  0  0  0
 21 47  1  0  0  0  0
 21 48  1  0  0  0  0
 22 27  1  0  0  0  0
 22 23  1  0  0  0  0
 22 25  1  0  0  0  0
 23 24  1  0  0  0  0
 23 49  1  0  0  0  0
 23 50  1  0  0  0  0
 24 51  1  0  0  0  0
 25 26  1  0  0  0  0
 25 52  1  0  0  0  0
 25 53  1  0  0  0  0
 26 27  1  0  0  0  0
 27 54  1  0  0  0  0
 27 55  1  0  0  0  0
M  CHG  1   3   1
M  END
> <s_m_source_file>
AV-unprocessed.smi

> <i_m_source_file_index>
169

> <i_lp_mmshare_version>
43012

> <i_f3d_flags>
0

> <s_epik_input>
W0NASF0xMltDSDJdW0NIMl1OKFtDSDJdW0NIM10pW0NIMl1bQ0BIXShbQ0gyXVtDSDJdMSlOMmMobltjSF1uMyljKGMzNCluW2NIXW40W0NIMl1DNShbQ0gyXVtPSF0pW0NIMl1PW0NIMl01

> <s_epik_cmdline>
J2VwaWtfcHl0aG9uJywgJy1waCcsICc3LjAnLCAnLXRuJywgJzgnLCAnLW1hJywgJzIwMCcsICctbWV0YWxfYmluZGluZycsICctaW1hZScsICc8aW5maWxlLm1hZT4nLCAnLW9tYWUnLCAnPG91dGZpbGUubWFlPic=

> <r_lp_tautomer_probability>
1

> <r_epik_Ionization_Penalty>
0.00274162

> <r_epik_Ionization_Penalty_Charging>
0.00243722

> <r_epik_Ionization_Penalty_Neutral>
0.000304399

> <r_epik_State_Penalty>
-0

> <r_epik_Charging_Adjusted_Penalty>
0.00243722

> <i_epik_Tot_Q>
1

> <i_epik_Tot_abs_Q>
1

> <r_epik_Metal_State_Penalty>
-0

> <b_epik_Metal_Only>
0

> <s_lp_Force_Field>
OPLS_2005

> <r_lp_Energy>
78.3459

> <b_lp_Chiralities_Consistent>
1

> <s_lp_Variant>
AV-unprocessed.smi:169-2

> <Gold.Version>
5.8.1

> <Gold.Id.Protein>
6NUR|6NUR_protein|mol2

> <Gold.PLP.Fitness>
45.3008

> <Gold.PLP.PLP>
-43.8224

> <Gold.PLP.part.hbond>
-3.0164

> <Gold.PLP.part.metal>
0.0000

> <Gold.PLP.part.buried>
-4.4834

> <Gold.PLP.part.nonpolar>
-35.1665

> <Gold.PLP.part.repulsive>
0.0229

> <Gold.PLP.ligand.clash>
0.0000

> <Gold.PLP.ligand.torsion>
1.7772

> <Gold.PLP.Chemscore.Hbond>
1.5040

> <Gold.PLP.Chemscore.CHOScore>
0.0000

> <Gold.PLP.Chemscore.Metal>
0.0000

> <Gold.Chemscore.Hbonds>
donor molecule, donor type, donor heavy atom, donor atom, acceptor molecule, acceptor atom, score
      P1  H  6896  6908       L1    15  1.00
      P1  H  6931  6943       L1    24  0.23
      P1  H  6934  6947       L1    24  0.29

> <Gold.PLP.Chemscore.Internal.Correction>
0.5208

> <Gold.Rescore>
     Score         DG    S(hbond)    S(metal)    S(lipo)     H(rot)  DE(clash)    DE(int)     intcor
     10.79     -13.48       1.50        0.00      82.93       2.62       0.13       2.56       ----

> <Gold.Chemscore.Fitness>
10.7853

> <Gold.Chemscore.DG>
-13.4801

> <Gold.Chemscore.ZeroCoef>
-5.4800

> <Gold.Chemscore.Hbond>
1.4992

> <Gold.Chemscore.Metal>
0.0000

> <Gold.Chemscore.Lipo>
82.9316

> <Gold.Chemscore.Internal_Hbond>
0.0000

> <Gold.Chemscore.DEClash>
0.1334

> <Gold.Chemscore.DEInternal>
2.5614

> <Gold.Chemscore.Rot>
2.6212

> <Gold.Chemscore.Internal.Correction>
   9.000000E+99

> <Gold.Chemscore.Hbonds>
donor molecule, donor type, donor heavy atom, donor atom, acceptor molecule, acceptor atom, score
      P1  H  6896  6908       L1    15  0.74
      P1  H  6931  6943       L1    24  0.01
      P1  H  6934  6947       L1    24  0.27

> <Gold.Chemscore.Hbond.Weighted>
-5.0073

> <Gold.Chemscore.Metal.Weighted>
-0.0000

> <Gold.Chemscore.Lipo.Weighted>
-9.7030

> <Gold.Chemscore.Internal_Hbond.Weighted>
0.0000

> <Gold.Chemscore.DEClash.Weighted>
0.1334

> <Gold.Chemscore.DEInternal.Weighted>
2.5614

> <Gold.Chemscore.Rot.Weighted>
6.7102

> <Gold.Chemscore.Internal.Correction.Weighted>
   9.000000E+99

> <Gold.Protein.RotatedTorsions>
[ 6907 6896 6895 6894 ] final -154.21 input  -60.11 | X-H torsion
[ 7974 7965 7964 7962 ] final -164.34 input  175.53 | X-H torsion
[ 8008 7997 7996 7995 ] final   10.39 input   59.86 | X-H torsion
[ 10167 10162 10161 10158 ] final  -34.77 input  -65.29 | X-H torsion
[ 10718 10713 10712 10709 ] final  173.28 input   66.30 | X-H torsion
[ 10763 10752 10751 10750 ] final  167.18 input  -60.55 | X-H torsion
[ 11005 11000 10999 10996 ] final  172.74 input  -57.11 | X-H torsion

> <Gold.Protein.ActiveResidues>
 VAL166  LYS551  ARG553  GLY616  TRP617  ASP618  TYR619  PRO620  LYS621  CYS622 
 ASP623  PHE694  ASN695  SER759  ASP760  ASP761  ALA762  ILE779  LEU786  VAL792 
 PHE793  MET794  SER795  GLU796  ALA797  LYS798  CYS799  TRP800  GLU811  SER814 

> <Gold.Protein.RotatedAtoms>
  151.2540  133.4335  159.2612 H   0  0  0  0  0  0  0  0  0  0  0  0  # atno 6907 bound_to 6896
  151.0591  134.9725  159.8261 H   0  0  0  0  0  0  0  0  0  0  0  0  # atno 6908 bound_to 6896
  152.5395  134.2491  159.8944 H   0  0  0  0  0  0  0  0  0  0  0  0  # atno 6909 bound_to 6896
  144.7300  140.2976  143.6210 H   0  0  0  0  0  0  0  0  0  0  0  0  # atno 7974 bound_to 7965
  154.7928  140.2838  155.5979 H   0  0  0  0  0  0  0  0  0  0  0  0  # atno 8008 bound_to 7997
  156.2967  140.2601  156.2707 H   0  0  0  0  0  0  0  0  0  0  0  0  # atno 8009 bound_to 7997
  154.9650  140.0377  157.2197 H   0  0  0  0  0  0  0  0  0  0  0  0  # atno 8010 bound_to 7997
  140.7179  143.3524  151.2128 H   0  0  0  0  0  0  0  0  0  0  0  0  # atno 10167 bound_to 10162
  156.9666  131.0077  151.2915 H   0  0  0  0  0  0  0  0  0  0  0  0  # atno 10718 bound_to 10713
  154.3500  135.2753  155.2377 H   0  0  0  0  0  0  0  0  0  0  0  0  # atno 10763 bound_to 10752
  154.4610  135.5907  153.6259 H   0  0  0  0  0  0  0  0  0  0  0  0  # atno 10764 bound_to 10752
  152.9850  135.6065  154.3710 H   0  0  0  0  0  0  0  0  0  0  0  0  # atno 10765 bound_to 10752
  140.3330  134.7341  157.4148 H   0  0  0  0  0  0  0  0  0  0  0  0  # atno 11005 bound_to 11000
  145.7793  139.1885  143.2167 LP  0  0  0  0  0  0  0  0  0  0  0  0  # atno 17320 bound_to 7965
  146.0847  140.7724  142.9624 LP  0  0  0  0  0  0  0  0  0  0  0  0  # atno 17321 bound_to 7965
  139.7058  143.9458  152.2926 LP  0  0  0  0  0  0  0  0  0  0  0  0  # atno 17342 bound_to 10162
  139.9166  144.6824  150.8505 LP  0  0  0  0  0  0  0  0  0  0  0  0  # atno 17343 bound_to 10162
  157.5621  130.8253  149.8280 LP  0  0  0  0  0  0  0  0  0  0  0  0  # atno 17370 bound_to 10713
  156.0300  130.3767  150.1715 LP  0  0  0  0  0  0  0  0  0  0  0  0  # atno 17371 bound_to 10713
  140.0845  134.5685  155.8506 LP  0  0  0  0  0  0  0  0  0  0  0  0  # atno 17394 bound_to 11000
  141.2058  133.6650  156.6206 LP  0  0  0  0  0  0  0  0  0  0  0  0  # atno 17395 bound_to 11000

$$$$
