AV-unprocessed.smi:102|AV-procd|sdf|972|dock10
  -GOLD-   2262017523D 1   1.00000     0.00000
 Structure written by MMmdl.
 43 44  0  0  0  0  0  0  0  0  2 V2000
  147.8585  135.2609  161.2206 C   0  0  0  0  0  0  0  0  0  0  0  0
  147.6814  136.5894  160.4979 C   0  0  0  0  0  0  0  0  0  0  0  0
  147.8736  137.6622  161.0703 O   0  0  0  0  0  0  0  0  0  0  0  0
  147.3074  136.4286  159.2154 O   0  0  0  0  0  0  0  0  0  0  0  0
  146.8537  137.5385  158.4522 C   0  0  0  0  0  0  0  0  0  0  0  0
  148.0429  138.3342  157.8945 C   0  0  1  0  0  0  0  0  0  0  0  0
  148.7667  137.5598  156.9488 O   0  0  0  0  0  0  0  0  0  0  0  0
  149.5229  138.4176  156.1579 C   0  0  2  0  0  0  0  0  0  0  0  0
  150.8797  138.6058  156.8230 N   0  0  0  0  0  0  0  0  0  0  0  0
  151.1640  138.0861  158.0786 C   0  0  0  0  0  0  0  0  0  0  0  0
  152.3909  138.1959  158.6266 C   0  0  0  0  0  0  0  0  0  0  0  0
  152.6284  137.6790  159.8444 F   0  0  0  0  0  0  0  0  0  0  0  0
  153.4580  138.8581  157.8821 C   0  0  0  0  0  0  0  0  0  0  0  0
  154.5673  138.9827  158.3986 O   0  0  0  0  0  0  0  0  0  0  0  0
  153.1723  139.3064  156.6264 N   0  5  0  0  0  0  0  0  0  0  0  0
  151.9358  139.1818  156.0609 C   0  0  0  0  0  0  0  0  0  0  0  0
  151.6911  139.5478  154.9113 O   0  0  0  0  0  0  0  0  0  0  0  0
  148.7113  139.7187  156.0193 C   0  0  1  0  0  0  0  0  0  0  0  0
  148.1100  139.7990  154.7332 O   0  0  0  0  0  0  0  0  0  0  0  0
  147.3992  138.7651  154.2506 C   0  0  0  0  0  0  0  0  0  0  0  0
  146.8974  139.0180  152.8354 C   0  0  0  0  0  0  0  0  0  0  0  0
  147.1513  137.7147  154.8429 O   0  0  0  0  0  0  0  0  0  0  0  0
  147.6212  139.5655  157.0824 C   0  0  2  0  0  0  0  0  0  0  0  0
  147.5676  140.7147  157.9176 O   0  0  0  0  0  0  0  0  0  0  0  0
  147.2859  141.9200  157.3935 C   0  0  0  0  0  0  0  0  0  0  0  0
  147.3352  143.0305  158.4343 C   0  0  0  0  0  0  0  0  0  0  0  0
  147.0199  142.1544  156.2145 O   0  0  0  0  0  0  0  0  0  0  0  0
  148.5811  134.6365  160.6952 H   0  0  0  0  0  0  0  0  0  0  0  0
  146.9087  134.7283  161.2688 H   0  0  0  0  0  0  0  0  0  0  0  0
  148.2157  135.4229  162.2379 H   0  0  0  0  0  0  0  0  0  0  0  0
  146.1695  137.2373  157.6575 H   0  0  0  0  0  0  0  0  0  0  0  0
  146.2831  138.1772  159.1266 H   0  0  0  0  0  0  0  0  0  0  0  0
  148.7110  138.6288  158.7054 H   0  0  0  0  0  0  0  0  0  0  0  0
  149.7331  137.9710  155.1851 H   0  0  0  0  0  0  0  0  0  0  0  0
  150.4102  137.5612  158.6434 H   0  0  0  0  0  0  0  0  0  0  0  0
  149.3347  140.5955  156.1913 H   0  0  0  0  0  0  0  0  0  0  0  0
  147.7295  139.2721  152.1787 H   0  0  0  0  0  0  0  0  0  0  0  0
  146.1849  139.8430  152.8290 H   0  0  0  0  0  0  0  0  0  0  0  0
  146.4030  138.1307  152.4393 H   0  0  0  0  0  0  0  0  0  0  0  0
  146.6561  139.3710  156.6108 H   0  0  0  0  0  0  0  0  0  0  0  0
  146.7496  142.7559  159.3117 H   0  0  0  0  0  0  0  0  0  0  0  0
  146.9320  143.9572  158.0257 H   0  0  0  0  0  0  0  0  0  0  0  0
  148.3645  143.2084  158.7458 H   0  0  0  0  0  0  0  0  0  0  0  0
  1  2  1  0  0  0  0
  1 28  1  0  0  0  0
  1 29  1  0  0  0  0
  1 30  1  0  0  0  0
  2  3  2  0  0  0  0
  2  4  1  0  0  0  0
  4  5  1  0  0  0  0
  5  6  1  0  0  0  0
  5 31  1  0  0  0  0
  5 32  1  0  0  0  0
  6 23  1  0  0  0  0
  6  7  1  0  0  0  0
  6 33  1  0  0  0  0
  7  8  1  0  0  0  0
  8  9  1  0  0  0  0
  8 18  1  0  0  0  0
  8 34  1  0  0  0  0
  9 16  1  0  0  0  0
  9 10  1  0  0  0  0
 10 11  2  0  0  0  0
 10 35  1  0  0  0  0
 11 12  1  0  0  0  0
 11 13  1  0  0  0  0
 13 14  2  0  0  0  0
 13 15  1  0  0  0  0
 15 16  1  0  0  0  0
 16 17  2  0  0  0  0
 18 19  1  0  0  0  0
 18 23  1  0  0  0  0
 18 36  1  0  0  0  0
 19 20  1  0  0  0  0
 20 21  1  0  0  0  0
 20 22  2  0  0  0  0
 21 37  1  0  0  0  0
 21 38  1  0  0  0  0
 21 39  1  0  0  0  0
 23 24  1  0  0  0  0
 23 40  1  0  0  0  0
 24 25  1  0  0  0  0
 25 26  1  0  0  0  0
 25 27  2  0  0  0  0
 26 41  1  0  0  0  0
 26 42  1  0  0  0  0
 26 43  1  0  0  0  0
M  CHG  1  15  -1
M  END
> <s_m_source_file>
AV-unprocessed.smi

> <i_m_source_file_index>
102

> <i_lp_mmshare_version>
43012

> <i_f3d_flags>
0

> <s_epik_input>
W0NIM11DKD1PKU9bQ0gyXVtDQEBIXTFPW0NASF0oW0NAQEhdKE9DKD1PKVtDSDNdKVtDQEhdMU9DKD1PKVtDSDNdKW4yW2NIXWMoRiljKD1PKVtuSF1jMj1P

> <s_epik_cmdline>
J2VwaWtfcHl0aG9uJywgJy1waCcsICc3LjAnLCAnLXRuJywgJzgnLCAnLW1hJywgJzIwMCcsICctbWV0YWxfYmluZGluZycsICctaW1hZScsICc8aW5maWxlLm1hZT4nLCAnLW9tYWUnLCAnPG91dGZpbGUubWFlPic=

> <r_epik_Ionization_Penalty>
1.40304

> <r_epik_Ionization_Penalty_Charging>
1.43915e-08

> <r_epik_Ionization_Penalty_Neutral>
1.40304

> <r_epik_State_Penalty>
1.48536

> <r_epik_Charging_Adjusted_Penalty>
1.48536

> <i_epik_Tot_Q>
-1

> <i_epik_Tot_abs_Q>
1

> <r_epik_Metal_State_Penalty>
0.00663881

> <b_epik_Metal_Only>
0

> <s_epik_Chemistry_Notes>
This compound has an ester and may undergo hydrolysis at high or low pH. This compound contains an acetal/aminal-like group ( X-CH(R)-Y where X, Y are N, S, or O) that may be acid/base labile, releasing an aldehyde.

> <s_lp_Force_Field>
OPLS_2005

> <r_lp_Energy>
19.0054

> <b_lp_Chiralities_Consistent>
1

> <s_lp_Variant>
AV-unprocessed.smi:102-28

> <Gold.Version>
5.8.1

> <Gold.Id.Protein>
6NUR|6NUR_protein|mol2

> <Gold.PLP.Fitness>
38.8321

> <Gold.PLP.PLP>
-24.3786

> <Gold.PLP.part.hbond>
-5.8499

> <Gold.PLP.part.metal>
0.0000

> <Gold.PLP.part.buried>
-3.8160

> <Gold.PLP.part.nonpolar>
-14.6092

> <Gold.PLP.part.repulsive>
0.2945

> <Gold.PLP.ligand.clash>
0.0000

> <Gold.PLP.ligand.torsion>
0.5362

> <Gold.PLP.Chemscore.Hbond>
5.1254

> <Gold.PLP.Chemscore.CHOScore>
0.0000

> <Gold.PLP.Chemscore.Metal>
0.0000

> <Gold.Chemscore.Hbonds>
donor molecule, donor type, donor heavy atom, donor atom, acceptor molecule, acceptor atom, score
      P1  H  6931  6943       L1     3  0.69
      P1  H  6934  6947       L1     3  0.67
      P1  H  7989  7998       L1    17  1.00
      P1  H  7997  8009       L1    14  0.45
      P1  H  7997  8010       L1    15  1.81

> <Gold.PLP.Chemscore.Internal.Correction>
0.1495

> <Gold.Rescore>
     Score         DG    S(hbond)    S(metal)    S(lipo)     H(rot)  DE(clash)    DE(int)     intcor
      6.37     -10.85       3.73        0.00      26.87       4.00       0.63       3.85       ----

> <Gold.Chemscore.Fitness>
6.3740

> <Gold.Chemscore.DG>
-10.8467

> <Gold.Chemscore.ZeroCoef>
-5.4800

> <Gold.Chemscore.Hbond>
3.7277

> <Gold.Chemscore.Metal>
0.0000

> <Gold.Chemscore.Lipo>
26.8695

> <Gold.Chemscore.Internal_Hbond>
0.0000

> <Gold.Chemscore.DEClash>
0.6257

> <Gold.Chemscore.DEInternal>
3.8470

> <Gold.Chemscore.Rot>
3.9951

> <Gold.Chemscore.Internal.Correction>
   9.000000E+99

> <Gold.Chemscore.Hbonds>
donor molecule, donor type, donor heavy atom, donor atom, acceptor molecule, acceptor atom, score
      P1  H  6931  6943       L1     3  0.64
      P1  H  6934  6947       L1     3  0.61
      P1  H  7989  7998       L1    17  0.98
      P1  H  7997  8009       L1    14  0.32
      P1  H  7997  8010       L1    15  0.41

> <Gold.Chemscore.Hbond.Weighted>
-12.4504

> <Gold.Chemscore.Metal.Weighted>
-0.0000

> <Gold.Chemscore.Lipo.Weighted>
-3.1437

> <Gold.Chemscore.Internal_Hbond.Weighted>
0.0000

> <Gold.Chemscore.DEClash.Weighted>
0.6257

> <Gold.Chemscore.DEInternal.Weighted>
3.8470

> <Gold.Chemscore.Rot.Weighted>
10.2274

> <Gold.Chemscore.Internal.Correction.Weighted>
   9.000000E+99

> <Gold.Protein.RotatedTorsions>
[ 6907 6896 6895 6894 ] final  -29.73 input  -60.11 | X-H torsion
[ 7974 7965 7964 7962 ] final  -21.46 input  175.53 | X-H torsion
[ 8008 7997 7996 7995 ] final   85.98 input   59.86 | X-H torsion
[ 10167 10162 10161 10158 ] final   61.20 input  -65.29 | X-H torsion
[ 10718 10713 10712 10709 ] final   32.58 input   66.30 | X-H torsion
[ 10763 10752 10751 10750 ] final  118.49 input  -60.55 | X-H torsion
[ 11005 11000 10999 10996 ] final  -59.41 input  -57.11 | X-H torsion

> <Gold.Protein.ActiveResidues>
 VAL166  LYS551  ARG553  GLY616  TRP617  ASP618  TYR619  PRO620  LYS621  CYS622 
 ASP623  PHE694  ASN695  SER759  ASP760  ASP761  ALA762  ILE779  LEU786  VAL792 
 PHE793  MET794  SER795  GLU796  ALA797  LYS798  CYS799  TRP800  GLU811  SER814 

> <Gold.Protein.RotatedAtoms>
  151.1152  135.0049  159.8512 H   0  0  0  0  0  0  0  0  0  0  0  0  # atno 6907 bound_to 6896
  152.5445  134.1788  159.8637 H   0  0  0  0  0  0  0  0  0  0  0  0  # atno 6908 bound_to 6896
  151.1842  133.4662  159.2627 H   0  0  0  0  0  0  0  0  0  0  0  0  # atno 6909 bound_to 6896
  146.1732  140.4344  142.8524 H   0  0  0  0  0  0  0  0  0  0  0  0  # atno 7974 bound_to 7965
  155.9569  140.3396  155.6457 H   0  0  0  0  0  0  0  0  0  0  0  0  # atno 8008 bound_to 7997
  155.6848  140.0742  157.2489 H   0  0  0  0  0  0  0  0  0  0  0  0  # atno 8009 bound_to 7997
  154.4134  140.1668  156.2009 H   0  0  0  0  0  0  0  0  0  0  0  0  # atno 8010 bound_to 7997
  140.1573  144.4404  150.6727 H   0  0  0  0  0  0  0  0  0  0  0  0  # atno 10167 bound_to 10162
  157.2870  130.7284  149.6589 H   0  0  0  0  0  0  0  0  0  0  0  0  # atno 10718 bound_to 10713
  153.5685  135.3507  155.2828 H   0  0  0  0  0  0  0  0  0  0  0  0  # atno 10763 bound_to 10752
  154.8685  135.4153  154.2752 H   0  0  0  0  0  0  0  0  0  0  0  0  # atno 10764 bound_to 10752
  153.3513  135.7055  153.6856 H   0  0  0  0  0  0  0  0  0  0  0  0  # atno 10765 bound_to 10752
  141.1247  133.6616  156.5067 H   0  0  0  0  0  0  0  0  0  0  0  0  # atno 11005 bound_to 11000
  144.8194  140.6525  143.6362 LP  0  0  0  0  0  0  0  0  0  0  0  0  # atno 17320 bound_to 7965
  145.4284  139.1553  143.4035 LP  0  0  0  0  0  0  0  0  0  0  0  0  # atno 17321 bound_to 7965
  140.6665  143.2270  151.5730 LP  0  0  0  0  0  0  0  0  0  0  0  0  # atno 17342 bound_to 10162
  139.5397  144.2681  152.1326 LP  0  0  0  0  0  0  0  0  0  0  0  0  # atno 17343 bound_to 10162
  155.9666  130.4320  150.4946 LP  0  0  0  0  0  0  0  0  0  0  0  0  # atno 17370 bound_to 10713
  157.2901  131.0624  151.2140 LP  0  0  0  0  0  0  0  0  0  0  0  0  # atno 17371 bound_to 10713
  140.4402  134.7022  157.4988 LP  0  0  0  0  0  0  0  0  0  0  0  0  # atno 17394 bound_to 11000
  140.0234  134.6513  155.9207 LP  0  0  0  0  0  0  0  0  0  0  0  0  # atno 17395 bound_to 11000

$$$$
