AV-unprocessed.smi:2193|AV-procd|sdf|8900|dock1
  -GOLD-   2272012113D 1   1.00000     0.00000
 Structure written by MMmdl.
 41 43  0  0  0  0  0  0  0  0  2 V2000
  150.3804  139.9939  153.9315 O   0  0  0  0  0  0  0  0  0  0  0  0
  149.4408  140.4419  154.8826 C   0  0  0  0  0  0  0  0  0  0  0  0
  150.0905  140.9137  156.1410 C   0  0  0  0  0  0  0  0  0  0  0  0
  150.1495  142.2046  156.5728 N   0  3  0  0  0  0  0  0  0  0  0  0
  150.8439  142.2673  157.7816 C   0  0  0  0  0  0  0  0  0  0  0  0
  151.1561  143.3508  158.5968 C   0  0  0  0  0  0  0  0  0  0  0  0
  151.8809  143.0692  159.7734 C   0  0  0  0  0  0  0  0  0  0  0  0
  152.2665  141.7531  160.1008 C   0  0  0  0  0  0  0  0  0  0  0  0
  151.9452  140.6627  159.2658 C   0  0  0  0  0  0  0  0  0  0  0  0
  151.2288  140.9491  158.1035 C   0  0  0  0  0  0  0  0  0  0  0  0
  150.7428  140.1482  157.0626 N   0  0  0  0  0  0  0  0  0  0  0  0
  150.9832  138.6965  157.0817 C   0  0  0  0  0  0  0  0  0  0  0  0
  150.6631  138.0554  158.4468 C   0  0  2  0  0  0  0  0  0  0  0  0
  151.5140  136.9501  158.6740 O   0  0  0  0  0  0  0  0  0  0  0  0
  149.2061  137.5809  158.5443 C   0  0  0  0  0  0  0  0  0  0  0  0
  148.9180  137.2629  159.8996 O   0  0  0  0  0  0  0  0  0  0  0  0
  148.1493  136.1493  160.1607 C   0  0  0  0  0  0  0  0  0  0  0  0
  147.4874  136.1069  161.4053 C   0  0  0  0  0  0  0  0  0  0  0  0
  146.6803  135.0075  161.7562 C   0  0  0  0  0  0  0  0  0  0  0  0
  146.5275  133.9335  160.8603 C   0  0  0  0  0  0  0  0  0  0  0  0
  145.7519  132.8752  161.1950 F   0  0  0  0  0  0  0  0  0  0  0  0
  147.1829  133.9616  159.6153 C   0  0  0  0  0  0  0  0  0  0  0  0
  147.9898  135.0617  159.2645 C   0  0  0  0  0  0  0  0  0  0  0  0
  149.9617  139.9655  153.0844 H   0  0  0  0  0  0  0  0  0  0  0  0
  148.8552  141.2535  154.4503 H   0  0  0  0  0  0  0  0  0  0  0  0
  148.7472  139.6320  155.1085 H   0  0  0  0  0  0  0  0  0  0  0  0
  150.8613  144.3600  158.3484 H   0  0  0  0  0  0  0  0  0  0  0  0
  152.1458  143.8786  160.4384 H   0  0  0  0  0  0  0  0  0  0  0  0
  152.8199  141.5755  161.0117 H   0  0  0  0  0  0  0  0  0  0  0  0
  152.2431  139.6590  159.5304 H   0  0  0  0  0  0  0  0  0  0  0  0
  150.3526  138.2587  156.3071 H   0  0  0  0  0  0  0  0  0  0  0  0
  152.0109  138.4942  156.7795 H   0  0  0  0  0  0  0  0  0  0  0  0
  150.8511  138.7764  159.2431 H   0  0  0  0  0  0  0  0  0  0  0  0
  152.3394  137.1153  158.2447 H   0  0  0  0  0  0  0  0  0  0  0  0
  148.5320  138.3560  158.1753 H   0  0  0  0  0  0  0  0  0  0  0  0
  149.0696  136.6907  157.9274 H   0  0  0  0  0  0  0  0  0  0  0  0
  147.5988  136.9270  162.0993 H   0  0  0  0  0  0  0  0  0  0  0  0
  146.1790  134.9890  162.7127 H   0  0  0  0  0  0  0  0  0  0  0  0
  147.0672  133.1373  158.9270 H   0  0  0  0  0  0  0  0  0  0  0  0
  148.4766  135.0463  158.3013 H   0  0  0  0  0  0  0  0  0  0  0  0
  149.7470  142.9854  156.0705 H   0  0  0  0  0  0  0  0  0  0  0  0
  1  2  1  0  0  0  0
  1 24  1  0  0  0  0
  2  3  1  0  0  0  0
  2 25  1  0  0  0  0
  2 26  1  0  0  0  0
  3 11  1  0  0  0  0
  3  4  2  0  0  0  0
  4  5  1  0  0  0  0
  4 41  1  0  0  0  0
  5 10  2  0  0  0  0
  5  6  1  0  0  0  0
  6  7  2  0  0  0  0
  6 27  1  0  0  0  0
  7  8  1  0  0  0  0
  7 28  1  0  0  0  0
  8  9  2  0  0  0  0
  8 29  1  0  0  0  0
  9 10  1  0  0  0  0
  9 30  1  0  0  0  0
 10 11  1  0  0  0  0
 11 12  1  0  0  0  0
 12 13  1  0  0  0  0
 12 31  1  0  0  0  0
 12 32  1  0  0  0  0
 13 14  1  0  0  0  0
 13 15  1  0  0  0  0
 13 33  1  0  0  0  0
 14 34  1  0  0  0  0
 15 16  1  0  0  0  0
 15 35  1  0  0  0  0
 15 36  1  0  0  0  0
 16 17  1  0  0  0  0
 17 23  1  0  0  0  0
 17 18  2  0  0  0  0
 18 19  1  0  0  0  0
 18 37  1  0  0  0  0
 19 20  2  0  0  0  0
 19 38  1  0  0  0  0
 20 21  1  0  0  0  0
 20 22  1  0  0  0  0
 22 23  2  0  0  0  0
 22 39  1  0  0  0  0
 23 40  1  0  0  0  0
M  CHG  1   4   1
M  END
> <s_m_source_file>
AV-unprocessed.smi

> <i_m_source_file_index>
2193

> <i_lp_mmshare_version>
43012

> <i_f3d_flags>
0

> <s_epik_input>
W2NIXTFbY0hdW2NIXVtjSF1jKGMxMiluKGMobjIpW0NIMl1bT0hdKVtDSDJdW0NASF0oW09IXSlbQ0gyXU9jM1tjSF1bY0hdYyhGKVtjSF1bY0hdMw==

> <s_epik_cmdline>
J2VwaWtfcHl0aG9uJywgJy1waCcsICc3LjAnLCAnLXRuJywgJzgnLCAnLW1hJywgJzIwMCcsICctbWV0YWxfYmluZGluZycsICctaW1hZScsICc8aW5maWxlLm1hZT4nLCAnLW9tYWUnLCAnPG91dGZpbGUubWFlPic=

> <r_lp_tautomer_probability>
1

> <r_epik_Ionization_Penalty>
1.43752

> <r_epik_Ionization_Penalty_Charging>
1.43666

> <r_epik_Ionization_Penalty_Neutral>
0.000858184

> <r_epik_State_Penalty>
1.52171

> <r_epik_Charging_Adjusted_Penalty>
2.95837

> <i_epik_Tot_Q>
1

> <i_epik_Tot_abs_Q>
1

> <r_epik_Metal_State_Penalty>
5.56725

> <b_epik_Metal_Only>
0

> <s_lp_Force_Field>
OPLS_2005

> <r_lp_Energy>
17.6251

> <b_lp_Chiralities_Consistent>
1

> <s_lp_Variant>
AV-unprocessed.smi:2193-3

> <Gold.Version>
5.8.1

> <Gold.Id.Protein>
6NUR|6NUR_protein|mol2

> <Gold.PLP.Fitness>
58.9542

> <Gold.PLP.PLP>
-46.8175

> <Gold.PLP.part.hbond>
-5.0714

> <Gold.PLP.part.metal>
0.0000

> <Gold.PLP.part.buried>
-5.8650

> <Gold.PLP.part.nonpolar>
-36.9569

> <Gold.PLP.part.repulsive>
0.0627

> <Gold.PLP.ligand.clash>
0.0000

> <Gold.PLP.ligand.torsion>
1.2641

> <Gold.PLP.Chemscore.Hbond>
4.7040

> <Gold.PLP.Chemscore.CHOScore>
0.0000

> <Gold.PLP.Chemscore.Metal>
0.0000

> <Gold.Chemscore.Hbonds>
donor molecule, donor type, donor heavy atom, donor atom, acceptor molecule, acceptor atom, score
      L1  H     1    24       P1  7957  1.00
      L1  H     4    41       P1  8028  2.00
      P1  H  6896  6907       L1    14  0.52
      P1  H  6931  6943       L1    16  0.23
      P1  H  7989  7998       L1     1  0.80

> <Gold.PLP.Chemscore.Internal.Correction>
0.5528

> <Gold.Rescore>
     Score         DG    S(hbond)    S(metal)    S(lipo)     H(rot)  DE(clash)    DE(int)     intcor
     18.57     -19.83       2.94        0.00     111.15       3.31       0.00       1.26       ----

> <Gold.Chemscore.Fitness>
18.5676

> <Gold.Chemscore.DG>
-19.8270

> <Gold.Chemscore.ZeroCoef>
-5.4800

> <Gold.Chemscore.Hbond>
2.9415

> <Gold.Chemscore.Metal>
0.0000

> <Gold.Chemscore.Lipo>
111.1508

> <Gold.Chemscore.Internal_Hbond>
0.0000

> <Gold.Chemscore.DEClash>
0.0021

> <Gold.Chemscore.DEInternal>
1.2573

> <Gold.Chemscore.Rot>
3.3134

> <Gold.Chemscore.Internal.Correction>
   9.000000E+99

> <Gold.Chemscore.Hbonds>
donor molecule, donor type, donor heavy atom, donor atom, acceptor molecule, acceptor atom, score
      L1  H     1    24       P1  7957  0.99
      L1  H     4    41       P1  8028  0.98
      P1  H  6896  6907       L1    14  0.45
      P1  H  6931  6943       L1    16  0.11
      P1  H  7989  7998       L1     1  0.11

> <Gold.Chemscore.Hbond.Weighted>
-9.8247

> <Gold.Chemscore.Metal.Weighted>
-0.0000

> <Gold.Chemscore.Lipo.Weighted>
-13.0046

> <Gold.Chemscore.Internal_Hbond.Weighted>
0.0000

> <Gold.Chemscore.DEClash.Weighted>
0.0021

> <Gold.Chemscore.DEInternal.Weighted>
1.2573

> <Gold.Chemscore.Rot.Weighted>
8.4823

> <Gold.Chemscore.Internal.Correction.Weighted>
   9.000000E+99

> <Gold.Protein.RotatedTorsions>
[ 6907 6896 6895 6894 ] final   -3.69 input  -60.11 | X-H torsion
[ 7974 7965 7964 7962 ] final -115.14 input  175.53 | X-H torsion
[ 8008 7997 7996 7995 ] final -135.75 input   59.86 | X-H torsion
[ 10167 10162 10161 10158 ] final -103.73 input  -65.29 | X-H torsion
[ 10718 10713 10712 10709 ] final   23.23 input   66.30 | X-H torsion
[ 10763 10752 10751 10750 ] final  -64.12 input  -60.55 | X-H torsion
[ 11005 11000 10999 10996 ] final   45.83 input  -57.11 | X-H torsion

> <Gold.Protein.ActiveResidues>
 VAL166  LYS551  ARG553  GLY616  TRP617  ASP618  TYR619  PRO620  LYS621  CYS622 
 ASP623  PHE694  ASN695  SER759  ASP760  ASP761  ALA762  ILE779  LEU786  VAL792 
 PHE793  MET794  SER795  GLU796  ALA797  LYS798  CYS799  TRP800  GLU811  SER814 

> <Gold.Protein.RotatedAtoms>
  151.5097  135.1064  159.9850 H   0  0  0  0  0  0  0  0  0  0  0  0  # atno 6907 bound_to 6896
  152.4667  133.7934  159.6925 H   0  0  0  0  0  0  0  0  0  0  0  0  # atno 6908 bound_to 6896
  150.8654  133.7519  159.3004 H   0  0  0  0  0  0  0  0  0  0  0  0  # atno 6909 bound_to 6896
  145.1119  140.8616  143.3865 H   0  0  0  0  0  0  0  0  0  0  0  0  # atno 7974 bound_to 7965
  155.3838  140.0495  157.3043 H   0  0  0  0  0  0  0  0  0  0  0  0  # atno 8008 bound_to 7997
  154.5069  140.2177  155.9194 H   0  0  0  0  0  0  0  0  0  0  0  0  # atno 8009 bound_to 7997
  156.1537  140.3131  155.8695 H   0  0  0  0  0  0  0  0  0  0  0  0  # atno 8010 bound_to 7997
  140.2168  143.3705  152.1003 H   0  0  0  0  0  0  0  0  0  0  0  0  # atno 10167 bound_to 10162
  157.1633  130.6726  149.6051 H   0  0  0  0  0  0  0  0  0  0  0  0  # atno 10718 bound_to 10713
  154.3253  135.6188  153.5526 H   0  0  0  0  0  0  0  0  0  0  0  0  # atno 10763 bound_to 10752
  152.9816  135.5734  154.5023 H   0  0  0  0  0  0  0  0  0  0  0  0  # atno 10764 bound_to 10752
  154.4699  135.2859  155.1627 H   0  0  0  0  0  0  0  0  0  0  0  0  # atno 10765 bound_to 10752
  140.1424  134.4566  155.8440 H   0  0  0  0  0  0  0  0  0  0  0  0  # atno 11005 bound_to 11000
  145.0838  139.2940  143.5770 LP  0  0  0  0  0  0  0  0  0  0  0  0  # atno 17320 bound_to 7965
  146.3526  140.0352  142.8647 LP  0  0  0  0  0  0  0  0  0  0  0  0  # atno 17321 bound_to 7965
  139.5159  144.6969  151.5604 LP  0  0  0  0  0  0  0  0  0  0  0  0  # atno 17342 bound_to 10162
  140.6284  143.9125  150.6584 LP  0  0  0  0  0  0  0  0  0  0  0  0  # atno 17343 bound_to 10162
  155.9750  130.4704  150.6429 LP  0  0  0  0  0  0  0  0  0  0  0  0  # atno 17370 bound_to 10713
  157.4112  131.0824  151.1219 LP  0  0  0  0  0  0  0  0  0  0  0  0  # atno 17371 bound_to 10713
  141.2188  133.6839  156.7272 LP  0  0  0  0  0  0  0  0  0  0  0  0  # atno 17394 bound_to 11000
  140.2705  134.8396  157.3843 LP  0  0  0  0  0  0  0  0  0  0  0  0  # atno 17395 bound_to 11000

$$$$
