AV-unprocessed.smi:727|AV-procd|sdf|3517|dock1
  -GOLD-   22720 0513D 1   1.00000     0.00000
 Structure written by MMmdl.
 38 39  0  0  0  0  0  0  0  0  1 V2000
  150.9383  140.1412  155.7352 C   0  0  0  0  0  0  0  0  0  0  0  0
  149.6999  140.2319  154.9570 N   0  0  0  0  0  0  0  0  0  0  0  0
  149.0297  141.4667  154.9433 C   0  0  0  0  0  0  0  0  0  0  0  0
  147.8927  141.6416  154.2561 C   0  0  0  0  0  0  0  0  0  0  0  0
  147.3566  140.5227  153.5185 C   0  0  0  0  0  0  0  0  0  0  0  0
  147.9843  139.3192  153.5221 C   0  0  0  0  0  0  0  0  0  0  0  0
  147.5410  138.1767  152.8314 N   0  0  0  0  0  0  0  0  0  0  0  0
  146.2925  137.8003  152.4972 C   0  0  0  0  0  0  0  0  0  0  0  0
  145.2578  138.4130  152.7586 O   0  0  0  0  0  0  0  0  0  0  0  0
  146.3104  136.6361  151.8319 N   0  0  0  0  0  0  0  0  0  0  0  0
  145.1387  135.9241  151.3283 C   0  0  0  0  0  0  0  0  0  0  0  0
  145.4967  134.5394  150.7499 C   0  0  1  0  0  0  0  0  0  0  0  0
  146.1287  133.6436  151.8389 C   0  0  0  0  0  0  0  0  0  0  0  0
  146.2761  132.1983  151.3997 C   0  0  0  0  0  0  0  0  0  0  0  0
  145.6418  131.6805  150.3352 C   0  0  0  0  0  0  0  0  0  0  0  0
  144.7021  132.4819  149.4543 C   0  0  0  0  0  0  0  0  0  0  0  0
  144.2959  133.8221  150.0955 C   0  0  0  0  0  0  0  0  0  0  0  0
  149.2405  139.1395  154.2769 C   0  0  0  0  0  0  0  0  0  0  0  0
  149.8531  138.0690  154.3034 O   0  0  0  0  0  0  0  0  0  0  0  0
  151.1828  141.0718  156.2485 H   0  0  0  0  0  0  0  0  0  0  0  0
  151.7807  139.8966  155.0865 H   0  0  0  0  0  0  0  0  0  0  0  0
  150.8577  139.3638  156.4965 H   0  0  0  0  0  0  0  0  0  0  0  0
  149.4932  142.2544  155.5192 H   0  0  0  0  0  0  0  0  0  0  0  0
  147.3890  142.5970  154.2535 H   0  0  0  0  0  0  0  0  0  0  0  0
  146.4492  140.6952  152.9641 H   0  0  0  0  0  0  0  0  0  0  0  0
  148.2792  137.5386  152.5721 H   0  0  0  0  0  0  0  0  0  0  0  0
  147.2066  136.2031  151.6634 H   0  0  0  0  0  0  0  0  0  0  0  0
  144.4519  135.8018  152.1665 H   0  0  0  0  0  0  0  0  0  0  0  0
  144.6033  136.5173  150.5850 H   0  0  0  0  0  0  0  0  0  0  0  0
  146.2489  134.6901  149.9736 H   0  0  0  0  0  0  0  0  0  0  0  0
  147.1107  134.0308  152.1122 H   0  0  0  0  0  0  0  0  0  0  0  0
  145.5208  133.6549  152.7444 H   0  0  0  0  0  0  0  0  0  0  0  0
  146.9212  131.5710  151.9973 H   0  0  0  0  0  0  0  0  0  0  0  0
  145.7994  130.6464  150.0662 H   0  0  0  0  0  0  0  0  0  0  0  0
  145.2012  132.6559  148.5006 H   0  0  0  0  0  0  0  0  0  0  0  0
  143.8124  131.8879  149.2433 H   0  0  0  0  0  0  0  0  0  0  0  0
  143.5301  133.6456  150.8521 H   0  0  0  0  0  0  0  0  0  0  0  0
  143.8323  134.4474  149.3326 H   0  0  0  0  0  0  0  0  0  0  0  0
  1  2  1  0  0  0  0
  1 20  1  0  0  0  0
  1 21  1  0  0  0  0
  1 22  1  0  0  0  0
  2 18  1  0  0  0  0
  2  3  1  0  0  0  0
  3  4  2  0  0  0  0
  3 23  1  0  0  0  0
  4  5  1  0  0  0  0
  4 24  1  0  0  0  0
  5  6  2  0  0  0  0
  5 25  1  0  0  0  0
  6  7  1  0  0  0  0
  6 18  1  0  0  0  0
  7  8  1  0  0  0  0
  7 26  1  0  0  0  0
  8  9  2  0  0  0  0
  8 10  1  0  0  0  0
 10 11  1  0  0  0  0
 10 27  1  0  0  0  0
 11 12  1  0  0  0  0
 11 28  1  0  0  0  0
 11 29  1  0  0  0  0
 12 17  1  0  0  0  0
 12 13  1  0  0  0  0
 12 30  1  0  0  0  0
 13 14  1  0  0  0  0
 13 31  1  0  0  0  0
 13 32  1  0  0  0  0
 14 15  2  0  0  0  0
 14 33  1  0  0  0  0
 15 16  1  0  0  0  0
 15 34  1  0  0  0  0
 16 17  1  0  0  0  0
 16 35  1  0  0  0  0
 16 36  1  0  0  0  0
 17 37  1  0  0  0  0
 17 38  1  0  0  0  0
 18 19  2  0  0  0  0
M  END
> <s_m_source_file>
AV-unprocessed.smi

> <i_m_source_file_index>
727

> <i_lp_mmshare_version>
43012

> <i_f3d_flags>
0

> <s_epik_input>
W0NIM11uMVtjSF1bY0hdW2NIXWMoYzE9TylbTkhdQyg9TylbTkhdW0NIMl1bQ0BASF0yW0NIMl1bQ0hdPVtDSF1bQ0gyXVtDSDJdMg==

> <s_epik_cmdline>
J2VwaWtfcHl0aG9uJywgJy1waCcsICc3LjAnLCAnLXRuJywgJzgnLCAnLW1hJywgJzIwMCcsICctbWV0YWxfYmluZGluZycsICctaW1hZScsICc8aW5maWxlLm1hZT4nLCAnLW9tYWUnLCAnPG91dGZpbGUubWFlPic=

> <r_lp_tautomer_probability>
1

> <r_epik_Ionization_Penalty>
2.60682e-05

> <r_epik_Ionization_Penalty_Charging>
4.8094e-06

> <r_epik_Ionization_Penalty_Neutral>
2.12588e-05

> <r_epik_State_Penalty>
-0

> <r_epik_Charging_Adjusted_Penalty>
4.8094e-06

> <i_epik_Tot_Q>
0

> <i_epik_Tot_abs_Q>
0

> <r_epik_Metal_State_Penalty>
-0

> <b_epik_Metal_Only>
0

> <s_lp_Force_Field>
OPLS_2005

> <r_lp_Energy>
21.4957

> <b_lp_Chiralities_Consistent>
1

> <s_lp_Variant>
AV-unprocessed.smi:727-2

> <Gold.Version>
5.8.1

> <Gold.Id.Protein>
6NUR|6NUR_protein|mol2

> <Gold.PLP.Fitness>
44.8330

> <Gold.PLP.PLP>
-36.2623

> <Gold.PLP.part.hbond>
-2.5085

> <Gold.PLP.part.metal>
0.0000

> <Gold.PLP.part.buried>
-1.1731

> <Gold.PLP.part.nonpolar>
-37.6128

> <Gold.PLP.part.repulsive>
3.9493

> <Gold.PLP.ligand.clash>
0.0000

> <Gold.PLP.ligand.torsion>
0.2005

> <Gold.PLP.Chemscore.Hbond>
1.9920

> <Gold.PLP.Chemscore.CHOScore>
0.9942

> <Gold.PLP.Chemscore.Metal>
0.0000

> <Gold.Chemscore.Hbonds>
donor molecule, donor type, donor heavy atom, donor atom, acceptor molecule, acceptor atom, score
      L1  H     7    26       P1  7948  1.00
      L1  H    10    27       P1  7948  1.00
      L1  C     3    23       P1  8028  0.95

> <Gold.PLP.Chemscore.Internal.Correction>
0.0130

> <Gold.Rescore>
     Score         DG    S(hbond)    S(metal)    S(lipo)     H(rot)  DE(clash)    DE(int)     intcor
     17.16     -18.73       1.97        0.00      83.50       1.21       1.30       0.27       ----

> <Gold.Chemscore.Fitness>
17.1551

> <Gold.Chemscore.DG>
-18.7280

> <Gold.Chemscore.ZeroCoef>
-5.4800

> <Gold.Chemscore.Hbond>
1.9693

> <Gold.Chemscore.Metal>
0.0000

> <Gold.Chemscore.Lipo>
83.4960

> <Gold.Chemscore.Internal_Hbond>
0.0000

> <Gold.Chemscore.DEClash>
1.2987

> <Gold.Chemscore.DEInternal>
0.2742

> <Gold.Chemscore.Rot>
1.2103

> <Gold.Chemscore.Internal.Correction>
   9.000000E+99

> <Gold.Chemscore.Hbonds>
donor molecule, donor type, donor heavy atom, donor atom, acceptor molecule, acceptor atom, score
      L1  H     7    26       P1  7948  0.98
      L1  H    10    27       P1  7948  0.94

> <Gold.Chemscore.Hbond.Weighted>
-6.5774

> <Gold.Chemscore.Metal.Weighted>
-0.0000

> <Gold.Chemscore.Lipo.Weighted>
-9.7690

> <Gold.Chemscore.Internal_Hbond.Weighted>
0.0000

> <Gold.Chemscore.DEClash.Weighted>
1.2987

> <Gold.Chemscore.DEInternal.Weighted>
0.2742

> <Gold.Chemscore.Rot.Weighted>
3.0984

> <Gold.Chemscore.Internal.Correction.Weighted>
   9.000000E+99

> <Gold.Protein.RotatedTorsions>
[ 6907 6896 6895 6894 ] final  152.21 input  -60.11 | X-H torsion
[ 7974 7965 7964 7962 ] final  164.59 input  175.53 | X-H torsion
[ 8008 7997 7996 7995 ] final  -63.81 input   59.86 | X-H torsion
[ 10167 10162 10161 10158 ] final   92.68 input  -65.29 | X-H torsion
[ 10718 10713 10712 10709 ] final   14.23 input   66.30 | X-H torsion
[ 10763 10752 10751 10750 ] final  113.32 input  -60.55 | X-H torsion
[ 11005 11000 10999 10996 ] final  -37.09 input  -57.11 | X-H torsion

> <Gold.Protein.ActiveResidues>
 VAL166  LYS551  ARG553  GLY616  TRP617  ASP618  TYR619  PRO620  LYS621  CYS622 
 ASP623  PHE694  ASN695  SER759  ASP760  ASP761  ALA762  ILE779  LEU786  VAL792 
 PHE793  MET794  SER795  GLU796  ALA797  LYS798  CYS799  TRP800  GLU811  SER814 

> <Gold.Protein.RotatedAtoms>
  152.0899  133.4195  159.4538 H   0  0  0  0  0  0  0  0  0  0  0  0  # atno 6907 bound_to 6896
  150.6862  134.2884  159.4665 H   0  0  0  0  0  0  0  0  0  0  0  0  # atno 6908 bound_to 6896
  152.0734  134.9518  160.0625 H   0  0  0  0  0  0  0  0  0  0  0  0  # atno 6909 bound_to 6896
  144.7538  139.8348  143.6357 H   0  0  0  0  0  0  0  0  0  0  0  0  # atno 7974 bound_to 7965
  154.4575  140.0967  156.6800 H   0  0  0  0  0  0  0  0  0  0  0  0  # atno 8008 bound_to 7997
  155.5093  140.3476  155.4367 H   0  0  0  0  0  0  0  0  0  0  0  0  # atno 8009 bound_to 7997
  156.0807  140.1372  156.9705 H   0  0  0  0  0  0  0  0  0  0  0  0  # atno 8010 bound_to 7997
  139.8253  144.6712  150.9467 H   0  0  0  0  0  0  0  0  0  0  0  0  # atno 10167 bound_to 10162
  157.0360  130.6212  149.5743 H   0  0  0  0  0  0  0  0  0  0  0  0  # atno 10718 bound_to 10713
  153.4908  135.3659  155.2491 H   0  0  0  0  0  0  0  0  0  0  0  0  # atno 10763 bound_to 10752
  154.8752  135.3977  154.3591 H   0  0  0  0  0  0  0  0  0  0  0  0  # atno 10764 bound_to 10752
  153.4210  135.7080  153.6360 H   0  0  0  0  0  0  0  0  0  0  0  0  # atno 10765 bound_to 10752
  140.9925  133.6997  156.1875 H   0  0  0  0  0  0  0  0  0  0  0  0  # atno 11005 bound_to 11000
  146.1524  139.4611  143.0040 LP  0  0  0  0  0  0  0  0  0  0  0  0  # atno 17320 bound_to 7965
  145.6849  141.0181  143.1586 LP  0  0  0  0  0  0  0  0  0  0  0  0  # atno 17321 bound_to 7965
  140.7810  143.4052  151.1082 LP  0  0  0  0  0  0  0  0  0  0  0  0  # atno 17342 bound_to 10162
  139.7710  143.8495  152.3120 LP  0  0  0  0  0  0  0  0  0  0  0  0  # atno 17343 bound_to 10162
  156.0053  130.5139  150.7809 LP  0  0  0  0  0  0  0  0  0  0  0  0  # atno 17370 bound_to 10713
  157.5141  131.0927  151.0162 LP  0  0  0  0  0  0  0  0  0  0  0  0  # atno 17371 bound_to 10713
  140.7018  134.4556  157.5586 LP  0  0  0  0  0  0  0  0  0  0  0  0  # atno 17394 bound_to 11000
  139.8999  134.8581  156.1941 LP  0  0  0  0  0  0  0  0  0  0  0  0  # atno 17395 bound_to 11000

$$$$
