AV-unprocessed.smi:3343|AV-procd|sdf|12891|dock6
  -GOLD-   2272019293D 1   1.00000     0.00000
 Structure written by MMmdl.
 42 43  0  0  0  0  0  0  0  0  2 V2000
  149.1558  141.1699  154.3298 C   0  0  0  0  0  0  0  0  0  0  0  0
  149.1753  139.6373  154.1615 C   0  0  2  0  0  0  0  0  0  0  0  0
  148.1018  138.9440  155.0136 C   0  0  0  0  0  0  0  0  0  0  0  0
  148.0978  139.0684  156.2386 O   0  0  0  0  0  0  0  0  0  0  0  0
  147.1923  138.2139  154.3489 N   0  0  0  0  0  0  0  0  0  0  0  0
  146.1007  137.4603  154.9591 C   0  0  0  0  0  0  0  0  0  0  0  0
  145.1407  136.8426  153.9200 C   0  0  0  0  0  0  0  0  0  0  0  0
  144.1629  135.9291  154.5181 N   0  0  0  0  0  0  0  0  0  0  0  0
  143.2210  135.4025  153.5258 C   0  0  0  0  0  0  0  0  0  0  0  0
  143.8920  134.4018  152.5593 C   0  0  0  0  0  0  0  0  0  0  0  0
  144.5063  133.2841  153.3131 N   0  3  0  0  0  0  0  0  0  0  0  0
  145.1148  132.2660  152.4310 C   0  0  0  0  0  0  0  0  0  0  0  0
  145.4510  133.7975  154.3325 C   0  0  0  0  0  0  0  0  0  0  0  0
  144.7405  134.8040  155.2618 C   0  0  0  0  0  0  0  0  0  0  0  0
  150.4863  139.0656  154.4438 N   0  0  0  0  0  0  0  0  0  0  0  0
  150.8828  137.7911  154.4475 C   0  0  0  0  0  0  0  0  0  0  0  0
  152.1495  137.6212  154.7999 N   0  0  0  0  0  0  0  0  0  0  0  0
  152.4984  138.9218  155.0289 C   0  0  0  0  0  0  0  0  0  0  0  0
  151.5377  139.8260  154.8396 N   0  0  0  0  0  0  0  0  0  0  0  0
  148.1806  141.5806  154.0659 H   0  0  0  0  0  0  0  0  0  0  0  0
  149.8945  141.6406  153.6805 H   0  0  0  0  0  0  0  0  0  0  0  0
  149.3759  141.4751  155.3536 H   0  0  0  0  0  0  0  0  0  0  0  0
  148.9550  139.4269  153.1134 H   0  0  0  0  0  0  0  0  0  0  0  0
  147.2721  138.1612  153.3439 H   0  0  0  0  0  0  0  0  0  0  0  0
  146.5104  136.6947  155.6190 H   0  0  0  0  0  0  0  0  0  0  0  0
  145.5423  138.1417  155.6028 H   0  0  0  0  0  0  0  0  0  0  0  0
  144.5767  137.6650  153.4783 H   0  0  0  0  0  0  0  0  0  0  0  0
  145.6851  136.3835  153.0959 H   0  0  0  0  0  0  0  0  0  0  0  0
  142.4020  134.9088  154.0510 H   0  0  0  0  0  0  0  0  0  0  0  0
  142.7728  136.2259  152.9683 H   0  0  0  0  0  0  0  0  0  0  0  0
  143.1411  134.0028  151.8766 H   0  0  0  0  0  0  0  0  0  0  0  0
  144.6426  134.8942  151.9397 H   0  0  0  0  0  0  0  0  0  0  0  0
  145.9406  132.6879  151.8563 H   0  0  0  0  0  0  0  0  0  0  0  0
  144.3760  131.8729  151.7316 H   0  0  0  0  0  0  0  0  0  0  0  0
  145.4970  131.4295  153.0171 H   0  0  0  0  0  0  0  0  0  0  0  0
  145.8253  132.9627  154.9261 H   0  0  0  0  0  0  0  0  0  0  0  0
  146.3197  134.2492  153.8514 H   0  0  0  0  0  0  0  0  0  0  0  0
  145.4236  135.1641  156.0297 H   0  0  0  0  0  0  0  0  0  0  0  0
  143.9363  134.2964  155.7965 H   0  0  0  0  0  0  0  0  0  0  0  0
  150.2306  136.9694  154.1907 H   0  0  0  0  0  0  0  0  0  0  0  0
  153.4884  139.2104  155.3502 H   0  0  0  0  0  0  0  0  0  0  0  0
  143.7576  132.8277  153.8150 H   0  0  0  0  0  0  0  0  0  0  0  0
  1  2  1  0  0  0  0
  1 20  1  0  0  0  0
  1 21  1  0  0  0  0
  1 22  1  0  0  0  0
  2  3  1  0  0  0  0
  2 15  1  0  0  0  0
  2 23  1  0  0  0  0
  3  4  2  0  0  0  0
  3  5  1  0  0  0  0
  5  6  1  0  0  0  0
  5 24  1  0  0  0  0
  6  7  1  0  0  0  0
  6 25  1  0  0  0  0
  6 26  1  0  0  0  0
  7  8  1  0  0  0  0
  7 27  1  0  0  0  0
  7 28  1  0  0  0  0
  8 14  1  0  0  0  0
  8  9  1  0  0  0  0
  9 10  1  0  0  0  0
  9 29  1  0  0  0  0
  9 30  1  0  0  0  0
 10 11  1  0  0  0  0
 10 31  1  0  0  0  0
 10 32  1  0  0  0  0
 11 12  1  0  0  0  0
 11 13  1  0  0  0  0
 11 42  1  0  0  0  0
 12 33  1  0  0  0  0
 12 34  1  0  0  0  0
 12 35  1  0  0  0  0
 13 14  1  0  0  0  0
 13 36  1  0  0  0  0
 13 37  1  0  0  0  0
 14 38  1  0  0  0  0
 14 39  1  0  0  0  0
 15 19  1  0  0  0  0
 15 16  1  0  0  0  0
 16 17  2  0  0  0  0
 16 40  1  0  0  0  0
 17 18  1  0  0  0  0
 18 19  2  0  0  0  0
 18 41  1  0  0  0  0
M  CHG  1  11   1
M  END
> <s_m_source_file>
AV-unprocessed.smi

> <i_m_source_file_index>
3343

> <i_lp_mmshare_version>
43012

> <i_f3d_flags>
0

> <s_epik_input>
bjFbY0hdbltjSF1uMVtDQEhdKFtDSDNdKUMoPU8pW05IXVtDSDJdW0NIMl1OMltDSDJdW0NIMl1OKFtDSDNdKVtDSDJdW0NIMl0y

> <s_epik_cmdline>
J2VwaWtfcHl0aG9uJywgJy1waCcsICc3LjAnLCAnLXRuJywgJzgnLCAnLW1hJywgJzIwMCcsICctbWV0YWxfYmluZGluZycsICctaW1hZScsICc8aW5maWxlLm1hZT4nLCAnLW9tYWUnLCAnPG91dGZpbGUubWFlPic=

> <r_lp_tautomer_probability>
1

> <r_epik_Ionization_Penalty>
0.0359277

> <r_epik_Ionization_Penalty_Charging>
0.0358005

> <r_epik_Ionization_Penalty_Neutral>
0.000127293

> <r_epik_State_Penalty>
0.0476325

> <r_epik_Charging_Adjusted_Penalty>
0.0834329

> <i_epik_Tot_Q>
1

> <i_epik_Tot_abs_Q>
1

> <r_epik_Metal_State_Penalty>
0.0476323

> <b_epik_Metal_Only>
0

> <s_lp_Force_Field>
OPLS_2005

> <r_lp_Energy>
27.0486

> <b_lp_Chiralities_Consistent>
1

> <s_lp_Variant>
AV-unprocessed.smi:3343-1

> <Gold.Version>
5.8.1

> <Gold.Id.Protein>
6NUR|6NUR_protein|mol2

> <Gold.PLP.Fitness>
40.1699

> <Gold.PLP.PLP>
-25.7599

> <Gold.PLP.part.hbond>
-3.0000

> <Gold.PLP.part.metal>
0.0000

> <Gold.PLP.part.buried>
-2.9080

> <Gold.PLP.part.nonpolar>
-20.3366

> <Gold.PLP.part.repulsive>
0.2150

> <Gold.PLP.ligand.clash>
0.0000

> <Gold.PLP.ligand.torsion>
0.1253

> <Gold.PLP.Chemscore.Hbond>
3.8000

> <Gold.PLP.Chemscore.CHOScore>
1.0462

> <Gold.PLP.Chemscore.Metal>
0.0000

> <Gold.Chemscore.Hbonds>
donor molecule, donor type, donor heavy atom, donor atom, acceptor molecule, acceptor atom, score
      L1  H    11    42       P1 10957  2.00
      P1  H  7989  7998       L1    19  1.00
      P1  H 10752 10765       L1    17  0.42
      L1  C    16    40       P1  7948  0.53

> <Gold.PLP.Chemscore.Internal.Correction>
0.1220

> <Gold.Rescore>
     Score         DG    S(hbond)    S(metal)    S(lipo)     H(rot)  DE(clash)    DE(int)     intcor
      9.56      -9.78       2.11        0.00      33.94       2.63       0.05       0.17       ----

> <Gold.Chemscore.Fitness>
9.5570

> <Gold.Chemscore.DG>
-9.7805

> <Gold.Chemscore.ZeroCoef>
-5.4800

> <Gold.Chemscore.Hbond>
2.1127

> <Gold.Chemscore.Metal>
0.0000

> <Gold.Chemscore.Lipo>
33.9414

> <Gold.Chemscore.Internal_Hbond>
0.0000

> <Gold.Chemscore.DEClash>
0.0504

> <Gold.Chemscore.DEInternal>
0.1731

> <Gold.Chemscore.Rot>
2.6278

> <Gold.Chemscore.Internal.Correction>
   9.000000E+99

> <Gold.Chemscore.Hbonds>
donor molecule, donor type, donor heavy atom, donor atom, acceptor molecule, acceptor atom, score
      L1  H    11    42       P1 10957  0.91
      P1  H  7989  7998       L1    19  0.24
      P1  H 10752 10765       L1    17  0.36

> <Gold.Chemscore.Hbond.Weighted>
-7.0564

> <Gold.Chemscore.Metal.Weighted>
-0.0000

> <Gold.Chemscore.Lipo.Weighted>
-3.9711

> <Gold.Chemscore.Internal_Hbond.Weighted>
0.0000

> <Gold.Chemscore.DEClash.Weighted>
0.0504

> <Gold.Chemscore.DEInternal.Weighted>
0.1731

> <Gold.Chemscore.Rot.Weighted>
6.7271

> <Gold.Chemscore.Internal.Correction.Weighted>
   9.000000E+99

> <Gold.Protein.RotatedTorsions>
[ 6907 6896 6895 6894 ] final    9.23 input  -60.11 | X-H torsion
[ 7974 7965 7964 7962 ] final   18.56 input  175.53 | X-H torsion
[ 8008 7997 7996 7995 ] final -147.00 input   59.86 | X-H torsion
[ 10167 10162 10161 10158 ] final -165.33 input  -65.29 | X-H torsion
[ 10718 10713 10712 10709 ] final  104.35 input   66.30 | X-H torsion
[ 10763 10752 10751 10750 ] final  153.81 input  -60.55 | X-H torsion
[ 11005 11000 10999 10996 ] final  -89.15 input  -57.11 | X-H torsion

> <Gold.Protein.ActiveResidues>
 VAL166  LYS551  ARG553  GLY616  TRP617  ASP618  TYR619  PRO620  LYS621  CYS622 
 ASP623  PHE694  ASN695  SER759  ASP760  ASP761  ALA762  ILE779  LEU786  VAL792 
 PHE793  MET794  SER795  GLU796  ALA797  LYS798  CYS799  TRP800  GLU811  SER814 

> <Gold.Protein.RotatedAtoms>
  151.7189  135.0898  160.0280 H   0  0  0  0  0  0  0  0  0  0  0  0  # atno 6907 bound_to 6896
  152.3615  133.6298  159.6027 H   0  0  0  0  0  0  0  0  0  0  0  0  # atno 6908 bound_to 6896
  150.7607  133.9333  159.3475 H   0  0  0  0  0  0  0  0  0  0  0  0  # atno 6909 bound_to 6896
  146.2181  139.8440  142.8635 H   0  0  0  0  0  0  0  0  0  0  0  0  # atno 7974 bound_to 7965
  155.5685  140.0632  157.2812 H   0  0  0  0  0  0  0  0  0  0  0  0  # atno 8008 bound_to 7997
  154.4368  140.1873  156.0901 H   0  0  0  0  0  0  0  0  0  0  0  0  # atno 8009 bound_to 7997
  156.0394  140.3297  155.7230 H   0  0  0  0  0  0  0  0  0  0  0  0  # atno 8010 bound_to 7997
  139.6189  144.0664  152.1914 H   0  0  0  0  0  0  0  0  0  0  0  0  # atno 10167 bound_to 10162
  157.6743  131.0801  150.5693 H   0  0  0  0  0  0  0  0  0  0  0  0  # atno 10718 bound_to 10713
  154.1422  135.2820  155.3158 H   0  0  0  0  0  0  0  0  0  0  0  0  # atno 10763 bound_to 10752
  154.6279  135.5445  153.7650 H   0  0  0  0  0  0  0  0  0  0  0  0  # atno 10764 bound_to 10752
  153.0247  135.6455  154.1569 H   0  0  0  0  0  0  0  0  0  0  0  0  # atno 10765 bound_to 10752
  141.1590  133.7612  156.9553 H   0  0  0  0  0  0  0  0  0  0  0  0  # atno 11005 bound_to 11000
  145.2870  141.0156  143.3685 LP  0  0  0  0  0  0  0  0  0  0  0  0  # atno 17320 bound_to 7965
  144.9106  139.4533  143.6588 LP  0  0  0  0  0  0  0  0  0  0  0  0  # atno 17321 bound_to 7965
  140.0301  144.6087  150.7495 LP  0  0  0  0  0  0  0  0  0  0  0  0  # atno 17342 bound_to 10162
  140.7369  143.2759  151.3744 LP  0  0  0  0  0  0  0  0  0  0  0  0  # atno 17343 bound_to 10162
  156.5995  130.4350  149.5903 LP  0  0  0  0  0  0  0  0  0  0  0  0  # atno 17370 bound_to 10713
  156.2518  130.6911  151.1651 LP  0  0  0  0  0  0  0  0  0  0  0  0  # atno 17371 bound_to 10713
  140.1229  134.9405  157.2229 LP  0  0  0  0  0  0  0  0  0  0  0  0  # atno 17394 bound_to 11000
  140.3049  134.3090  155.7280 LP  0  0  0  0  0  0  0  0  0  0  0  0  # atno 17395 bound_to 11000

$$$$
