AV-unprocessed.smi:91|AV-procd|sdf|833|dock7
  -GOLD-   2262017253D 1   1.00000     0.00000
 Structure written by MMmdl.
 60 63  0  0  0  0  0  0  0  0  1 V2000
  146.1459  133.2604  156.7708 C   0  0  0  0  0  0  0  0  0  0  0  0
  146.5951  134.2499  157.6795 O   0  0  0  0  0  0  0  0  0  0  0  0
  147.7997  133.8820  158.3333 C   0  0  0  0  0  0  0  0  0  0  0  0
  148.9979  134.1231  157.4046 C   0  0  2  0  0  0  0  0  0  0  0  0
  149.1077  135.5843  156.9335 C   0  0  0  0  0  0  0  0  0  0  0  0
  150.1975  135.7120  155.9782 N   0  0  0  0  0  0  0  0  0  0  0  0
  150.4775  136.9892  155.6447 C   0  0  0  0  0  0  0  0  0  0  0  0
  150.4997  137.3643  154.3387 N   0  0  0  0  0  0  0  0  0  0  0  0
  150.7741  138.6322  154.0164 C   0  0  0  0  0  0  0  0  0  0  0  0
  151.0471  139.6592  154.8246 N   0  0  0  0  0  0  0  0  0  0  0  0
  151.0206  139.2822  156.1353 C   0  0  0  0  0  0  0  0  0  0  0  0
  150.7492  137.9755  156.6273 C   0  0  0  0  0  0  0  0  0  0  0  0
  150.8162  137.9620  158.0141 N   0  0  0  0  0  0  0  0  0  0  0  0
  151.1110  139.1949  158.3261 C   0  0  0  0  0  0  0  0  0  0  0  0
  151.2436  140.0573  157.2602 N   0  0  0  0  0  0  0  0  0  0  0  0
  151.5543  141.4756  157.3182 C   0  0  0  0  0  0  0  0  0  0  0  0
  150.9367  142.1670  158.5644 C   0  0  2  0  0  0  0  0  0  0  0  0
  149.4569  142.5360  158.3131 C   0  0  0  0  0  0  0  0  0  0  0  0
  148.6549  141.3770  158.2304 O   0  0  0  0  0  0  0  0  0  0  0  0
  151.7543  143.4145  158.9888 C   0  0  2  0  0  0  0  0  0  0  0  0
  151.5285  143.8737  160.4192 C   0  0  0  0  0  0  0  0  0  0  0  0
  152.0594  145.3013  160.3855 C   0  0  0  0  0  0  0  0  0  0  0  0
  151.7472  145.7877  159.0865 O   0  0  0  0  0  0  0  0  0  0  0  0
  151.4051  144.7018  158.2305 C   0  0  0  0  0  0  0  0  0  0  0  0
  150.0419  134.8188  154.8376 C   0  0  0  0  0  0  0  0  0  0  0  0
  149.9259  133.3496  155.3025 C   0  0  0  0  0  0  0  0  0  0  0  0
  149.4734  132.4681  154.1286 C   0  0  0  0  0  0  0  0  0  0  0  0
  151.2635  132.8117  155.8544 C   0  0  0  0  0  0  0  0  0  0  0  0
  148.8863  133.2448  156.2830 O   0  0  0  0  0  0  0  0  0  0  0  0
  145.2214  133.5904  156.2974 H   0  0  0  0  0  0  0  0  0  0  0  0
  145.9445  132.3180  157.2818 H   0  0  0  0  0  0  0  0  0  0  0  0
  146.8817  133.0831  155.9854 H   0  0  0  0  0  0  0  0  0  0  0  0
  147.9170  134.4729  159.2431 H   0  0  0  0  0  0  0  0  0  0  0  0
  147.7639  132.8325  158.6297 H   0  0  0  0  0  0  0  0  0  0  0  0
  149.8958  133.8632  157.9651 H   0  0  0  0  0  0  0  0  0  0  0  0
  148.1762  135.9023  156.4628 H   0  0  0  0  0  0  0  0  0  0  0  0
  149.2802  136.2423  157.7865 H   0  0  0  0  0  0  0  0  0  0  0  0
  150.7743  138.8564  152.9598 H   0  0  0  0  0  0  0  0  0  0  0  0
  151.2390  139.5073  159.3514 H   0  0  0  0  0  0  0  0  0  0  0  0
  152.6381  141.5883  157.2921 H   0  0  0  0  0  0  0  0  0  0  0  0
  151.2009  141.9360  156.3947 H   0  0  0  0  0  0  0  0  0  0  0  0
  150.9555  141.4690  159.4039 H   0  0  0  0  0  0  0  0  0  0  0  0
  149.0568  143.1415  159.1255 H   0  0  0  0  0  0  0  0  0  0  0  0
  149.3500  143.1189  157.3978 H   0  0  0  0  0  0  0  0  0  0  0  0
  147.9212  141.5574  157.6627 H   0  0  0  0  0  0  0  0  0  0  0  0
  152.8187  143.2128  158.8557 H   0  0  0  0  0  0  0  0  0  0  0  0
  150.4634  143.8776  160.6558 H   0  0  0  0  0  0  0  0  0  0  0  0
  152.0433  143.2611  161.1592 H   0  0  0  0  0  0  0  0  0  0  0  0
  151.6256  145.9290  161.1641 H   0  0  0  0  0  0  0  0  0  0  0  0
  153.1431  145.3072  160.5083 H   0  0  0  0  0  0  0  0  0  0  0  0
  151.9322  144.7798  157.2794 H   0  0  0  0  0  0  0  0  0  0  0  0
  150.3346  144.7546  158.0275 H   0  0  0  0  0  0  0  0  0  0  0  0
  149.1442  135.1028  154.2856 H   0  0  0  0  0  0  0  0  0  0  0  0
  150.8847  134.9352  154.1546 H   0  0  0  0  0  0  0  0  0  0  0  0
  150.1939  132.4959  153.3105 H   0  0  0  0  0  0  0  0  0  0  0  0
  148.5121  132.7983  153.7338 H   0  0  0  0  0  0  0  0  0  0  0  0
  149.3610  131.4280  154.4365 H   0  0  0  0  0  0  0  0  0  0  0  0
  152.0222  132.7791  155.0719 H   0  0  0  0  0  0  0  0  0  0  0  0
  151.1480  131.7999  156.2440 H   0  0  0  0  0  0  0  0  0  0  0  0
  151.6641  133.4311  156.6563 H   0  0  0  0  0  0  0  0  0  0  0  0
  1  2  1  0  0  0  0
  1 30  1  0  0  0  0
  1 31  1  0  0  0  0
  1 32  1  0  0  0  0
  2  3  1  0  0  0  0
  3  4  1  0  0  0  0
  3 33  1  0  0  0  0
  3 34  1  0  0  0  0
  4 29  1  0  0  0  0
  4  5  1  0  0  0  0
  4 35  1  0  0  0  0
  5  6  1  0  0  0  0
  5 36  1  0  0  0  0
  5 37  1  0  0  0  0
  6  7  1  0  0  0  0
  6 25  1  0  0  0  0
  7 12  1  0  0  0  0
  7  8  2  0  0  0  0
  8  9  1  0  0  0  0
  9 10  2  0  0  0  0
  9 38  1  0  0  0  0
 10 11  1  0  0  0  0
 11 15  1  0  0  0  0
 11 12  2  0  0  0  0
 12 13  1  0  0  0  0
 13 14  2  0  0  0  0
 14 15  1  0  0  0  0
 14 39  1  0  0  0  0
 15 16  1  0  0  0  0
 16 17  1  0  0  0  0
 16 40  1  0  0  0  0
 16 41  1  0  0  0  0
 17 18  1  0  0  0  0
 17 20  1  0  0  0  0
 17 42  1  0  0  0  0
 18 19  1  0  0  0  0
 18 43  1  0  0  0  0
 18 44  1  0  0  0  0
 19 45  1  0  0  0  0
 20 24  1  0  0  0  0
 20 21  1  0  0  0  0
 20 46  1  0  0  0  0
 21 22  1  0  0  0  0
 21 47  1  0  0  0  0
 21 48  1  0  0  0  0
 22 23  1  0  0  0  0
 22 49  1  0  0  0  0
 22 50  1  0  0  0  0
 23 24  1  0  0  0  0
 24 51  1  0  0  0  0
 24 52  1  0  0  0  0
 25 26  1  0  0  0  0
 25 53  1  0  0  0  0
 25 54  1  0  0  0  0
 26 27  1  0  0  0  0
 26 28  1  0  0  0  0
 26 29  1  0  0  0  0
 27 55  1  0  0  0  0
 27 56  1  0  0  0  0
 27 57  1  0  0  0  0
 28 58  1  0  0  0  0
 28 59  1  0  0  0  0
 28 60  1  0  0  0  0
M  END
> <s_m_source_file>
AV-unprocessed.smi

> <i_m_source_file_index>
91

> <i_lp_mmshare_version>
43012

> <i_f3d_flags>
0

> <s_epik_input>
W0NIM11PW0NIMl1bQ0BASF0oTzEpW0NIMl1OKFtDSDJdQzEoW0NIM10pW0NIM10pYyhuW2NIXW4yKWMoYzIzKW5bY0hdbjNbQ0gyXVtDQEhdKFtDSDJdW09IXSlbQ0BASF00W0NIMl1bQ0gyXU9bQ0gyXTQ=

> <s_epik_cmdline>
J2VwaWtfcHl0aG9uJywgJy1waCcsICc3LjAnLCAnLXRuJywgJzgnLCAnLW1hJywgJzIwMCcsICctbWV0YWxfYmluZGluZycsICctaW1hZScsICc8aW5maWxlLm1hZT4nLCAnLW9tYWUnLCAnPG91dGZpbGUubWFlPic=

> <r_lp_tautomer_probability>
1

> <r_epik_Ionization_Penalty>
8.63591e-05

> <r_epik_Ionization_Penalty_Charging>
0

> <r_epik_Ionization_Penalty_Neutral>
8.63591e-05

> <r_epik_State_Penalty>
-0

> <r_epik_Charging_Adjusted_Penalty>
0

> <i_epik_Tot_Q>
0

> <i_epik_Tot_abs_Q>
0

> <r_epik_Metal_State_Penalty>
-0

> <b_epik_Metal_Only>
0

> <s_lp_Force_Field>
OPLS_2005

> <r_lp_Energy>
49.9364

> <b_lp_Chiralities_Consistent>
1

> <s_lp_Variant>
AV-unprocessed.smi:91-1

> <Gold.Version>
5.8.1

> <Gold.Id.Protein>
6NUR|6NUR_protein|mol2

> <Gold.PLP.Fitness>
43.9269

> <Gold.PLP.PLP>
-40.3026

> <Gold.PLP.part.hbond>
-2.2132

> <Gold.PLP.part.metal>
0.0000

> <Gold.PLP.part.buried>
-8.5176

> <Gold.PLP.part.nonpolar>
-29.6210

> <Gold.PLP.part.repulsive>
0.5403

> <Gold.PLP.ligand.clash>
0.0000

> <Gold.PLP.ligand.torsion>
1.2109

> <Gold.PLP.Chemscore.Hbond>
0.9000

> <Gold.PLP.Chemscore.CHOScore>
0.9992

> <Gold.PLP.Chemscore.Metal>
0.0000

> <Gold.Chemscore.Hbonds>
donor molecule, donor type, donor heavy atom, donor atom, acceptor molecule, acceptor atom, score
      P1  H  7989  7998       L1    10  0.85
      L1  C     9    38       P1  7957  0.97

> <Gold.PLP.Chemscore.Internal.Correction>
0.3486

> <Gold.Rescore>
     Score         DG    S(hbond)    S(metal)    S(lipo)     H(rot)  DE(clash)    DE(int)     intcor
      6.53      -9.66       0.21        0.00      95.97       3.03       0.37       2.76       ----

> <Gold.Chemscore.Fitness>
6.5321

> <Gold.Chemscore.DG>
-9.6604

> <Gold.Chemscore.ZeroCoef>
-5.4800

> <Gold.Chemscore.Hbond>
0.2108

> <Gold.Chemscore.Metal>
0.0000

> <Gold.Chemscore.Lipo>
95.9747

> <Gold.Chemscore.Internal_Hbond>
0.0000

> <Gold.Chemscore.DEClash>
0.3689

> <Gold.Chemscore.DEInternal>
2.7594

> <Gold.Chemscore.Rot>
3.0284

> <Gold.Chemscore.Internal.Correction>
   9.000000E+99

> <Gold.Chemscore.Hbonds>
donor molecule, donor type, donor heavy atom, donor atom, acceptor molecule, acceptor atom, score
      P1  H  7989  7998       L1    10  0.15

> <Gold.Chemscore.Hbond.Weighted>
-0.7042

> <Gold.Chemscore.Metal.Weighted>
-0.0000

> <Gold.Chemscore.Lipo.Weighted>
-11.2290

> <Gold.Chemscore.Internal_Hbond.Weighted>
0.0000

> <Gold.Chemscore.DEClash.Weighted>
0.3689

> <Gold.Chemscore.DEInternal.Weighted>
2.7594

> <Gold.Chemscore.Rot.Weighted>
7.7528

> <Gold.Chemscore.Internal.Correction.Weighted>
   9.000000E+99

> <Gold.Protein.RotatedTorsions>
[ 6907 6896 6895 6894 ] final  -57.36 input  -60.11 | X-H torsion
[ 7974 7965 7964 7962 ] final  -58.86 input  175.53 | X-H torsion
[ 8008 7997 7996 7995 ] final -112.11 input   59.86 | X-H torsion
[ 10167 10162 10161 10158 ] final  -31.98 input  -65.29 | X-H torsion
[ 10718 10713 10712 10709 ] final    4.48 input   66.30 | X-H torsion
[ 10763 10752 10751 10750 ] final  -71.74 input  -60.55 | X-H torsion
[ 11005 11000 10999 10996 ] final -133.82 input  -57.11 | X-H torsion

> <Gold.Protein.ActiveResidues>
 VAL166  LYS551  ARG553  GLY616  TRP617  ASP618  TYR619  PRO620  LYS621  CYS622 
 ASP623  PHE694  ASN695  SER759  ASP760  ASP761  ALA762  ILE779  LEU786  VAL792 
 PHE793  MET794  SER795  GLU796  ALA797  LYS798  CYS799  TRP800  GLU811  SER814 

> <Gold.Protein.RotatedAtoms>
  150.8092  134.7237  159.6672 H   0  0  0  0  0  0  0  0  0  0  0  0  # atno 6907 bound_to 6896
  152.4212  134.5948  159.9994 H   0  0  0  0  0  0  0  0  0  0  0  0  # atno 6908 bound_to 6896
  151.6163  133.3305  159.3114 H   0  0  0  0  0  0  0  0  0  0  0  0  # atno 6909 bound_to 6896
  145.8343  140.8459  143.0067 H   0  0  0  0  0  0  0  0  0  0  0  0  # atno 7974 bound_to 7965
  155.0002  140.0394  157.2357 H   0  0  0  0  0  0  0  0  0  0  0  0  # atno 8008 bound_to 7997
  154.7550  140.2774  155.6238 H   0  0  0  0  0  0  0  0  0  0  0  0  # atno 8009 bound_to 7997
  156.2893  140.2639  156.2314 H   0  0  0  0  0  0  0  0  0  0  0  0  # atno 8010 bound_to 7997
  140.7228  143.3729  151.1744 H   0  0  0  0  0  0  0  0  0  0  0  0  # atno 10167 bound_to 10162
  156.8932  130.5695  149.5649 H   0  0  0  0  0  0  0  0  0  0  0  0  # atno 10718 bound_to 10713
  154.4359  135.5952  153.6098 H   0  0  0  0  0  0  0  0  0  0  0  0  # atno 10763 bound_to 10752
  152.9802  135.5986  154.3781 H   0  0  0  0  0  0  0  0  0  0  0  0  # atno 10764 bound_to 10752
  154.3625  135.2841  155.2290 H   0  0  0  0  0  0  0  0  0  0  0  0  # atno 10765 bound_to 10752
  140.9046  134.1646  157.4435 H   0  0  0  0  0  0  0  0  0  0  0  0  # atno 11005 bound_to 11000
  144.6737  140.0719  143.7472 LP  0  0  0  0  0  0  0  0  0  0  0  0  # atno 17320 bound_to 7965
  145.9536  139.2750  143.1198 LP  0  0  0  0  0  0  0  0  0  0  0  0  # atno 17321 bound_to 7965
  139.7304  143.9082  152.3017 LP  0  0  0  0  0  0  0  0  0  0  0  0  # atno 17342 bound_to 10162
  139.8869  144.6987  150.8814 LP  0  0  0  0  0  0  0  0  0  0  0  0  # atno 17343 bound_to 10162
  156.0618  130.5670  150.9209 LP  0  0  0  0  0  0  0  0  0  0  0  0  # atno 17370 bound_to 10713
  157.6071  131.0938  150.8860 LP  0  0  0  0  0  0  0  0  0  0  0  0  # atno 17371 bound_to 10713
  139.8747  134.9912  156.5537 LP  0  0  0  0  0  0  0  0  0  0  0  0  # atno 17394 bound_to 11000
  140.8187  133.8371  155.8875 LP  0  0  0  0  0  0  0  0  0  0  0  0  # atno 17395 bound_to 11000

$$$$
