AV-unprocessed.smi:1417|AV-procd|sdf|5766|dock6
  -GOLD-   22720 5403D 1   1.00000     0.00000
 Structure written by MMmdl.
 40 41  0  0  0  0  0  0  0  0  2 V2000
  150.0928  141.7788  155.6740 C   0  0  0  0  0  0  0  0  0  0  0  0
  148.8780  141.3885  154.9042 C   0  0  0  0  0  0  0  0  0  0  0  0
  148.2581  140.1897  154.6914 C   0  0  0  0  0  0  0  0  0  0  0  0
  147.1518  140.5445  153.8653 C   0  0  0  0  0  0  0  0  0  0  0  0
  146.1721  139.6595  153.3458 N   0  0  0  0  0  0  0  0  0  0  0  0
  146.1933  138.3165  153.3146 C   0  0  0  0  0  0  0  0  0  0  0  0
  147.0942  137.6059  153.7602 O   0  0  0  0  0  0  0  0  0  0  0  0
  145.0925  137.8271  152.7254 N   0  0  0  0  0  0  0  0  0  0  0  0
  144.8072  136.4092  152.5268 C   0  0  2  0  0  0  0  0  0  0  0  0
  145.6411  135.8396  151.3639 C   0  0  0  0  0  0  0  0  0  0  0  0
  145.2669  134.3771  151.0769 C   0  0  0  0  0  0  0  0  0  0  0  0
  143.8140  134.2461  150.7885 N   0  3  1  0  0  0  0  0  0  0  0  0
  143.4262  132.8795  150.3549 C   0  0  0  0  0  0  0  0  0  0  0  0
  143.7538  132.6086  148.8826 C   0  0  0  0  0  0  0  0  0  0  0  0
  142.8113  132.9142  147.9884 N   0  0  0  0  0  0  0  0  0  0  0  0
  144.8442  132.1452  148.5531 O   0  0  0  0  0  0  0  0  0  0  0  0
  142.9887  134.7432  151.9185 C   0  0  0  0  0  0  0  0  0  0  0  0
  143.3106  136.2141  152.2332 C   0  0  0  0  0  0  0  0  0  0  0  0
  147.1075  141.8375  153.6022 N   0  0  0  0  0  0  0  0  0  0  0  0
  148.2111  142.3871  154.2652 O   0  0  0  0  0  0  0  0  0  0  0  0
  150.6805  140.9014  155.9452 H   0  0  0  0  0  0  0  0  0  0  0  0
  149.8172  142.2978  156.5921 H   0  0  0  0  0  0  0  0  0  0  0  0
  150.7280  142.4424  155.0870 H   0  0  0  0  0  0  0  0  0  0  0  0
  148.5617  139.2268  155.0730 H   0  0  0  0  0  0  0  0  0  0  0  0
  145.3599  140.1059  152.9457 H   0  0  0  0  0  0  0  0  0  0  0  0
  144.4022  138.4834  152.3899 H   0  0  0  0  0  0  0  0  0  0  0  0
  145.0507  135.8643  153.4413 H   0  0  0  0  0  0  0  0  0  0  0  0
  145.4823  136.4367  150.4643 H   0  0  0  0  0  0  0  0  0  0  0  0
  146.7054  135.9051  151.5932 H   0  0  0  0  0  0  0  0  0  0  0  0
  145.8534  134.0184  150.2305 H   0  0  0  0  0  0  0  0  0  0  0  0
  145.5288  133.7492  151.9301 H   0  0  0  0  0  0  0  0  0  0  0  0
  143.8965  132.1339  150.9985 H   0  0  0  0  0  0  0  0  0  0  0  0
  142.3483  132.7514  150.4621 H   0  0  0  0  0  0  0  0  0  0  0  0
  142.9714  132.7544  147.0041 H   0  0  0  0  0  0  0  0  0  0  0  0
  141.9338  133.3047  148.3017 H   0  0  0  0  0  0  0  0  0  0  0  0
  141.9306  134.6560  151.6689 H   0  0  0  0  0  0  0  0  0  0  0  0
  143.1602  134.1214  152.7986 H   0  0  0  0  0  0  0  0  0  0  0  0
  142.7158  136.5463  153.0850 H   0  0  0  0  0  0  0  0  0  0  0  0
  143.0137  136.8365  151.3874 H   0  0  0  0  0  0  0  0  0  0  0  0
  143.6150  134.8515  150.0045 H   0  0  0  0  0  0  0  0  0  0  0  0
  1  2  1  0  0  0  0
  1 21  1  0  0  0  0
  1 22  1  0  0  0  0
  1 23  1  0  0  0  0
  2 20  1  0  0  0  0
  2  3  2  0  0  0  0
  3  4  1  0  0  0  0
  3 24  1  0  0  0  0
  4  5  1  0  0  0  0
  4 19  2  0  0  0  0
  5  6  1  0  0  0  0
  5 25  1  0  0  0  0
  6  7  2  0  0  0  0
  6  8  1  0  0  0  0
  8  9  1  0  0  0  0
  8 26  1  0  0  0  0
  9 18  1  0  0  0  0
  9 10  1  0  0  0  0
  9 27  1  0  0  0  0
 10 11  1  0  0  0  0
 10 28  1  0  0  0  0
 10 29  1  0  0  0  0
 11 12  1  0  0  0  0
 11 30  1  0  0  0  0
 11 31  1  0  0  0  0
 12 13  1  0  0  0  0
 12 17  1  0  0  0  0
 12 40  1  0  0  0  0
 13 14  1  0  0  0  0
 13 32  1  0  0  0  0
 13 33  1  0  0  0  0
 14 15  1  0  0  0  0
 14 16  2  0  0  0  0
 15 34  1  0  0  0  0
 15 35  1  0  0  0  0
 17 18  1  0  0  0  0
 17 36  1  0  0  0  0
 17 37  1  0  0  0  0
 18 38  1  0  0  0  0
 18 39  1  0  0  0  0
 19 20  1  0  0  0  0
M  CHG  1  12   1
M  END
> <s_m_source_file>
AV-unprocessed.smi

> <i_m_source_file_index>
1417

> <i_lp_mmshare_version>
43012

> <i_f3d_flags>
0

> <s_epik_input>
W0NIM11jMVtjSF1jKG5vMSlbTkhdQyg9TylbTkhdW0NIXTJbQ0gyXVtDSDJdTihbQ0gyXVtDSDJdMilbQ0gyXUMoPU8pW05IMl0=

> <s_epik_cmdline>
J2VwaWtfcHl0aG9uJywgJy1waCcsICc3LjAnLCAnLXRuJywgJzgnLCAnLW1hJywgJzIwMCcsICctbWV0YWxfYmluZGluZycsICctaW1hZScsICc8aW5maWxlLm1hZT4nLCAnLW9tYWUnLCAnPG91dGZpbGUubWFlPic=

> <r_epik_Ionization_Penalty>
0.867698

> <r_epik_Ionization_Penalty_Charging>
0.867623

> <r_epik_Ionization_Penalty_Neutral>
7.46743e-05

> <r_epik_State_Penalty>
0.904669

> <r_epik_Charging_Adjusted_Penalty>
1.77229

> <i_epik_Tot_Q>
1

> <i_epik_Tot_abs_Q>
1

> <r_epik_Metal_State_Penalty>
0.930696

> <b_epik_Metal_Only>
0

> <s_lp_Force_Field>
OPLS_2005

> <r_lp_Energy>
11.2149

> <b_lp_Chiralities_Consistent>
1

> <s_lp_Variant>
AV-unprocessed.smi:1417-2

> <Gold.Version>
5.8.1

> <Gold.Id.Protein>
6NUR|6NUR_protein|mol2

> <Gold.PLP.Fitness>
39.5137

> <Gold.PLP.PLP>
-31.0108

> <Gold.PLP.part.hbond>
-7.5507

> <Gold.PLP.part.metal>
0.0000

> <Gold.PLP.part.buried>
-5.2252

> <Gold.PLP.part.nonpolar>
-23.7201

> <Gold.PLP.part.repulsive>
4.9155

> <Gold.PLP.ligand.clash>
0.0000

> <Gold.PLP.ligand.torsion>
0.8766

> <Gold.PLP.Chemscore.Hbond>
3.4096

> <Gold.PLP.Chemscore.CHOScore>
0.0000

> <Gold.PLP.Chemscore.Metal>
0.0000

> <Gold.Chemscore.Hbonds>
donor molecule, donor type, donor heavy atom, donor atom, acceptor molecule, acceptor atom, score
      L1  H     5    25       P1 10175  1.00
      L1  H     8    26       P1 10175  0.80
      L1  H    15    34       P1 10195  0.54
      L1  H    15    35       P1 10186  0.99

> <Gold.PLP.Chemscore.Internal.Correction>
0.0273

> <Gold.Rescore>
     Score         DG    S(hbond)    S(metal)    S(lipo)     H(rot)  DE(clash)    DE(int)     intcor
     14.03     -17.98       3.51        0.00      51.47       2.05       1.97       1.97       ----

> <Gold.Chemscore.Fitness>
14.0323

> <Gold.Chemscore.DG>
-17.9798

> <Gold.Chemscore.ZeroCoef>
-5.4800

> <Gold.Chemscore.Hbond>
3.5075

> <Gold.Chemscore.Metal>
0.0000

> <Gold.Chemscore.Lipo>
51.4677

> <Gold.Chemscore.Internal_Hbond>
0.0000

> <Gold.Chemscore.DEClash>
1.9740

> <Gold.Chemscore.DEInternal>
1.9734

> <Gold.Chemscore.Rot>
2.0457

> <Gold.Chemscore.Internal.Correction>
   9.000000E+99

> <Gold.Chemscore.Hbonds>
donor molecule, donor type, donor heavy atom, donor atom, acceptor molecule, acceptor atom, score
      L1  H     5    25       P1 10175  0.99
      L1  H     8    26       P1 10175  0.76
      L1  H    15    34       P1 10195  0.54
      L1  H    15    35       P1 10186  0.94
      P1  H  8022  8030       L1    20  0.02

> <Gold.Chemscore.Hbond.Weighted>
-11.7151

> <Gold.Chemscore.Metal.Weighted>
-0.0000

> <Gold.Chemscore.Lipo.Weighted>
-6.0217

> <Gold.Chemscore.Internal_Hbond.Weighted>
0.0000

> <Gold.Chemscore.DEClash.Weighted>
1.9740

> <Gold.Chemscore.DEInternal.Weighted>
1.9734

> <Gold.Chemscore.Rot.Weighted>
5.2371

> <Gold.Chemscore.Internal.Correction.Weighted>
   9.000000E+99

> <Gold.Protein.RotatedTorsions>
[ 6907 6896 6895 6894 ] final  140.19 input  -60.11 | X-H torsion
[ 7974 7965 7964 7962 ] final   85.81 input  175.53 | X-H torsion
[ 8008 7997 7996 7995 ] final -101.80 input   59.86 | X-H torsion
[ 10167 10162 10161 10158 ] final -139.45 input  -65.29 | X-H torsion
[ 10718 10713 10712 10709 ] final -121.73 input   66.30 | X-H torsion
[ 10763 10752 10751 10750 ] final  -96.14 input  -60.55 | X-H torsion
[ 11005 11000 10999 10996 ] final  -52.50 input  -57.11 | X-H torsion

> <Gold.Protein.ActiveResidues>
 VAL166  LYS551  ARG553  GLY616  TRP617  ASP618  TYR619  PRO620  LYS621  CYS622 
 ASP623  PHE694  ASN695  SER759  ASP760  ASP761  ALA762  ILE779  LEU786  VAL792 
 PHE793  MET794  SER795  GLU796  ALA797  LYS798  CYS799  TRP800  GLU811  SER814 

> <Gold.Protein.RotatedAtoms>
  152.2460  133.5175  159.5297 H   0  0  0  0  0  0  0  0  0  0  0  0  # atno 6907 bound_to 6896
  150.7079  134.1025  159.3980 H   0  0  0  0  0  0  0  0  0  0  0  0  # atno 6908 bound_to 6896
  151.8945  135.0403  160.0551 H   0  0  0  0  0  0  0  0  0  0  0  0  # atno 6909 bound_to 6896
  145.5805  139.2324  143.2355 H   0  0  0  0  0  0  0  0  0  0  0  0  # atno 7974 bound_to 7965
  154.8476  140.0432  157.1583 H   0  0  0  0  0  0  0  0  0  0  0  0  # atno 8008 bound_to 7997
  154.8977  140.2995  155.5314 H   0  0  0  0  0  0  0  0  0  0  0  0  # atno 8009 bound_to 7997
  156.2995  140.2381  156.4001 H   0  0  0  0  0  0  0  0  0  0  0  0  # atno 8010 bound_to 7997
  139.8378  143.7361  152.2664 H   0  0  0  0  0  0  0  0  0  0  0  0  # atno 10167 bound_to 10162
  156.1361  130.6431  150.9698 H   0  0  0  0  0  0  0  0  0  0  0  0  # atno 10718 bound_to 10713
  154.7213  135.5094  153.8816 H   0  0  0  0  0  0  0  0  0  0  0  0  # atno 10763 bound_to 10752
  153.0865  135.6647  153.9948 H   0  0  0  0  0  0  0  0  0  0  0  0  # atno 10764 bound_to 10752
  153.9770  135.3032  155.3402 H   0  0  0  0  0  0  0  0  0  0  0  0  # atno 10765 bound_to 10752
  141.0927  133.6630  156.4034 H   0  0  0  0  0  0  0  0  0  0  0  0  # atno 11005 bound_to 11000
  146.1719  140.6632  142.9229 LP  0  0  0  0  0  0  0  0  0  0  0  0  # atno 17320 bound_to 7965
  144.7396  140.4905  143.6879 LP  0  0  0  0  0  0  0  0  0  0  0  0  # atno 17321 bound_to 7965
  139.7589  144.7512  151.0394 LP  0  0  0  0  0  0  0  0  0  0  0  0  # atno 17342 bound_to 10162
  140.7801  143.4774  151.0064 LP  0  0  0  0  0  0  0  0  0  0  0  0  # atno 17343 bound_to 10162
  157.6533  131.0893  150.8002 LP  0  0  0  0  0  0  0  0  0  0  0  0  # atno 17370 bound_to 10713
  156.8082  130.4943  149.5359 LP  0  0  0  0  0  0  0  0  0  0  0  0  # atno 17371 bound_to 10713
  140.5213  134.6302  157.5319 LP  0  0  0  0  0  0  0  0  0  0  0  0  # atno 17394 bound_to 11000
  139.9757  134.7219  155.9955 LP  0  0  0  0  0  0  0  0  0  0  0  0  # atno 17395 bound_to 11000

$$$$
