AV-unprocessed.smi:229|AV-procd|sdf|1760|dock1
  -GOLD-   2262020293D 1   1.00000     0.00000
 Structure written by MMmdl.
 58 62  0  0  0  0  0  0  0  0  1 V2000
  144.8214  134.9743  150.5874 C   0  0  0  0  0  0  0  0  0  0  0  0
  145.7302  135.9937  151.2854 C   0  0  0  0  0  0  0  0  0  0  0  0
  145.2812  136.3122  152.7193 C   0  0  1  0  0  0  0  0  0  0  0  0
  146.1634  137.3917  153.3685 C   0  0  0  0  0  0  0  0  0  0  0  0
  145.6361  137.7354  154.6843 N   0  0  0  0  0  0  0  0  0  0  0  0
  146.4330  138.4214  155.5419 C   0  0  0  0  0  0  0  0  0  0  0  0
  146.2126  138.3477  156.8821 N   0  0  0  0  0  0  0  0  0  0  0  0
  146.9924  139.0208  157.7335 C   0  0  0  0  0  0  0  0  0  0  0  0
  148.0284  139.8178  157.4649 N   0  0  0  0  0  0  0  0  0  0  0  0
  148.2503  139.9014  156.1222 C   0  0  0  0  0  0  0  0  0  0  0  0
  147.5096  139.2421  155.1008 C   0  0  0  0  0  0  0  0  0  0  0  0
  148.0223  139.5807  153.8534 N   0  0  0  0  0  0  0  0  0  0  0  0
  149.0141  140.3851  154.1225 C   0  0  0  0  0  0  0  0  0  0  0  0
  149.2174  140.6360  155.4603 N   0  0  0  0  0  0  0  0  0  0  0  0
  150.2321  141.4975  156.0413 C   0  0  0  0  0  0  0  0  0  0  0  0
  149.9046  141.8948  157.4943 C   0  0  2  0  0  0  0  0  0  0  0  0
  148.7265  142.6798  157.5077 O   0  0  0  0  0  0  0  0  0  0  0  0
  151.0698  142.6542  158.1619 C   0  0  1  0  0  0  0  0  0  0  0  0
  151.5946  143.9035  157.4456 C   0  0  0  0  0  0  0  0  0  0  0  0
  152.2005  144.6717  158.5985 C   0  0  0  0  0  0  0  0  0  0  0  0
  151.2040  144.3846  159.7187 C   0  0  0  0  0  0  0  0  0  0  0  0
  150.7280  143.0620  159.4843 O   0  0  0  0  0  0  0  0  0  0  0  0
  144.2449  138.1689  154.6406 C   0  0  0  0  0  0  0  0  0  0  0  0
  143.3621  137.1066  153.9461 C   0  0  2  0  0  0  0  0  0  0  0  0
  141.9541  137.6402  153.6999 C   0  0  0  0  0  0  0  0  0  0  0  0
  141.1666  137.1154  154.8906 C   0  0  0  0  0  0  0  0  0  0  0  0
  141.6881  135.8089  155.0425 O   0  0  0  0  0  0  0  0  0  0  0  0
  143.0942  135.8676  154.8333 C   0  0  0  0  0  0  0  0  0  0  0  0
  143.9286  136.7721  152.6754 O   0  0  0  0  0  0  0  0  0  0  0  0
  145.1768  134.7644  149.5786 H   0  0  0  0  0  0  0  0  0  0  0  0
  143.7986  135.3436  150.5090 H   0  0  0  0  0  0  0  0  0  0  0  0
  144.7961  134.0312  151.1339 H   0  0  0  0  0  0  0  0  0  0  0  0
  146.7467  135.5993  151.3038 H   0  0  0  0  0  0  0  0  0  0  0  0
  145.7679  136.9120  150.6984 H   0  0  0  0  0  0  0  0  0  0  0  0
  145.3482  135.4001  153.3129 H   0  0  0  0  0  0  0  0  0  0  0  0
  147.1865  137.0232  153.4565 H   0  0  0  0  0  0  0  0  0  0  0  0
  146.1898  138.2857  152.7435 H   0  0  0  0  0  0  0  0  0  0  0  0
  146.7512  138.9047  158.7799 H   0  0  0  0  0  0  0  0  0  0  0  0
  149.6225  140.8283  153.3474 H   0  0  0  0  0  0  0  0  0  0  0  0
  151.1879  140.9740  155.9993 H   0  0  0  0  0  0  0  0  0  0  0  0
  150.3352  142.3842  155.4147 H   0  0  0  0  0  0  0  0  0  0  0  0
  149.7090  140.9872  158.0670 H   0  0  0  0  0  0  0  0  0  0  0  0
  148.7192  143.2206  156.7328 H   0  0  0  0  0  0  0  0  0  0  0  0
  151.9048  141.9628  158.2866 H   0  0  0  0  0  0  0  0  0  0  0  0
  152.3149  143.6722  156.6607 H   0  0  0  0  0  0  0  0  0  0  0  0
  150.7872  144.4887  157.0048 H   0  0  0  0  0  0  0  0  0  0  0  0
  153.1794  144.2612  158.8505 H   0  0  0  0  0  0  0  0  0  0  0  0
  152.3170  145.7360  158.3925 H   0  0  0  0  0  0  0  0  0  0  0  0
  151.6485  144.4803  160.7095 H   0  0  0  0  0  0  0  0  0  0  0  0
  150.3587  145.0715  159.6585 H   0  0  0  0  0  0  0  0  0  0  0  0
  143.8542  138.3843  155.6345 H   0  0  0  0  0  0  0  0  0  0  0  0
  144.2044  139.1061  154.0836 H   0  0  0  0  0  0  0  0  0  0  0  0
  141.9050  138.7250  153.6012 H   0  0  0  0  0  0  0  0  0  0  0  0
  141.5428  137.2079  152.7865 H   0  0  0  0  0  0  0  0  0  0  0  0
  141.3671  137.7027  155.7880 H   0  0  0  0  0  0  0  0  0  0  0  0
  140.0909  137.1027  154.7149 H   0  0  0  0  0  0  0  0  0  0  0  0
  143.4188  134.9345  154.3737 H   0  0  0  0  0  0  0  0  0  0  0  0
  143.5958  135.9526  155.7983 H   0  0  0  0  0  0  0  0  0  0  0  0
  1  2  1  0  0  0  0
  1 30  1  0  0  0  0
  1 31  1  0  0  0  0
  1 32  1  0  0  0  0
  2  3  1  0  0  0  0
  2 33  1  0  0  0  0
  2 34  1  0  0  0  0
  3 29  1  0  0  0  0
  3  4  1  0  0  0  0
  3 35  1  0  0  0  0
  4  5  1  0  0  0  0
  4 36  1  0  0  0  0
  4 37  1  0  0  0  0
  5  6  1  0  0  0  0
  5 23  1  0  0  0  0
  6 11  1  0  0  0  0
  6  7  2  0  0  0  0
  7  8  1  0  0  0  0
  8  9  2  0  0  0  0
  8 38  1  0  0  0  0
  9 10  1  0  0  0  0
 10 14  1  0  0  0  0
 10 11  2  0  0  0  0
 11 12  1  0  0  0  0
 12 13  2  0  0  0  0
 13 14  1  0  0  0  0
 13 39  1  0  0  0  0
 14 15  1  0  0  0  0
 15 16  1  0  0  0  0
 15 40  1  0  0  0  0
 15 41  1  0  0  0  0
 16 17  1  0  0  0  0
 16 18  1  0  0  0  0
 16 42  1  0  0  0  0
 17 43  1  0  0  0  0
 18 22  1  0  0  0  0
 18 19  1  0  0  0  0
 18 44  1  0  0  0  0
 19 20  1  0  0  0  0
 19 45  1  0  0  0  0
 19 46  1  0  0  0  0
 20 21  1  0  0  0  0
 20 47  1  0  0  0  0
 20 48  1  0  0  0  0
 21 22  1  0  0  0  0
 21 49  1  0  0  0  0
 21 50  1  0  0  0  0
 23 24  1  0  0  0  0
 23 51  1  0  0  0  0
 23 52  1  0  0  0  0
 24 28  1  0  0  0  0
 24 25  1  0  0  0  0
 24 29  1  0  0  0  0
 25 26  1  0  0  0  0
 25 53  1  0  0  0  0
 25 54  1  0  0  0  0
 26 27  1  0  0  0  0
 26 55  1  0  0  0  0
 26 56  1  0  0  0  0
 27 28  1  0  0  0  0
 28 57  1  0  0  0  0
 28 58  1  0  0  0  0
M  END
> <s_m_source_file>
AV-unprocessed.smi

> <i_m_source_file_index>
229

> <i_lp_mmshare_version>
43012

> <i_f3d_flags>
0

> <s_epik_input>
W0NIMl0xT1tDSDJdW0NIMl1bQ0BdMTJbQ0gyXU4oW0NIMl1bQ0BIXShPMilbQ0gyXVtDSDNdKWMobltjSF1uMyljKGMzNCluW2NIXW40W0NIMl1bQ0BIXShbT0hdKVtDQEBIXTVbQ0gyXVtDSDJdW0NIMl1PNQ==

> <s_epik_cmdline>
J2VwaWtfcHl0aG9uJywgJy1waCcsICc3LjAnLCAnLXRuJywgJzgnLCAnLW1hJywgJzIwMCcsICctbWV0YWxfYmluZGluZycsICctaW1hZScsICc8aW5maWxlLm1hZT4nLCAnLW9tYWUnLCAnPG91dGZpbGUubWFlPic=

> <r_lp_tautomer_probability>
1

> <r_epik_Ionization_Penalty>
0.00318402

> <r_epik_Ionization_Penalty_Charging>
0

> <r_epik_Ionization_Penalty_Neutral>
0.00318402

> <r_epik_State_Penalty>
0.00215642

> <r_epik_Charging_Adjusted_Penalty>
0.00215642

> <i_epik_Tot_Q>
0

> <i_epik_Tot_abs_Q>
0

> <r_epik_Metal_State_Penalty>
-0

> <b_epik_Metal_Only>
0

> <s_lp_Force_Field>
OPLS_2005

> <r_lp_Energy>
56.4449

> <b_lp_Chiralities_Consistent>
1

> <s_lp_Variant>
AV-unprocessed.smi:229-14

> <Gold.Version>
5.8.1

> <Gold.Id.Protein>
6NUR|6NUR_protein|mol2

> <Gold.PLP.Fitness>
44.1326

> <Gold.PLP.PLP>
-38.7224

> <Gold.PLP.part.hbond>
-2.6887

> <Gold.PLP.part.metal>
0.0000

> <Gold.PLP.part.buried>
-4.6828

> <Gold.PLP.part.nonpolar>
-32.5460

> <Gold.PLP.part.repulsive>
0.4914

> <Gold.PLP.ligand.clash>
0.0000

> <Gold.PLP.ligand.torsion>
0.6721

> <Gold.PLP.Chemscore.Hbond>
1.2512

> <Gold.PLP.Chemscore.CHOScore>
0.8404

> <Gold.PLP.Chemscore.Metal>
0.0000

> <Gold.Chemscore.Hbonds>
donor molecule, donor type, donor heavy atom, donor atom, acceptor molecule, acceptor atom, score
      L1  H    17    43       P1  8028  1.00
      P1  H 11000 11005       L1    27  0.26
      L1  C    13    39       P1  7957  0.86

> <Gold.PLP.Chemscore.Internal.Correction>
0.4796

> <Gold.Rescore>
     Score         DG    S(hbond)    S(metal)    S(lipo)     H(rot)  DE(clash)    DE(int)     intcor
     10.56     -14.22       1.17        0.00      95.16       2.46       0.30       3.36       ----

> <Gold.Chemscore.Fitness>
10.5642

> <Gold.Chemscore.DG>
-14.2220

> <Gold.Chemscore.ZeroCoef>
-5.4800

> <Gold.Chemscore.Hbond>
1.1687

> <Gold.Chemscore.Metal>
0.0000

> <Gold.Chemscore.Lipo>
95.1616

> <Gold.Chemscore.Internal_Hbond>
0.0000

> <Gold.Chemscore.DEClash>
0.2984

> <Gold.Chemscore.DEInternal>
3.3594

> <Gold.Chemscore.Rot>
2.4591

> <Gold.Chemscore.Internal.Correction>
   9.000000E+99

> <Gold.Chemscore.Hbonds>
donor molecule, donor type, donor heavy atom, donor atom, acceptor molecule, acceptor atom, score
      L1  H    17    43       P1  8028  0.74
      P1  H 11000 11005       L1    27  0.24

> <Gold.Chemscore.Hbond.Weighted>
-3.9034

> <Gold.Chemscore.Metal.Weighted>
-0.0000

> <Gold.Chemscore.Lipo.Weighted>
-11.1339

> <Gold.Chemscore.Internal_Hbond.Weighted>
0.0000

> <Gold.Chemscore.DEClash.Weighted>
0.2984

> <Gold.Chemscore.DEInternal.Weighted>
3.3594

> <Gold.Chemscore.Rot.Weighted>
6.2953

> <Gold.Chemscore.Internal.Correction.Weighted>
   9.000000E+99

> <Gold.Protein.RotatedTorsions>
[ 6907 6896 6895 6894 ] final  -45.84 input  -60.11 | X-H torsion
[ 7974 7965 7964 7962 ] final -151.17 input  175.53 | X-H torsion
[ 8008 7997 7996 7995 ] final  151.72 input   59.86 | X-H torsion
[ 10167 10162 10161 10158 ] final   -3.16 input  -65.29 | X-H torsion
[ 10718 10713 10712 10709 ] final -152.39 input   66.30 | X-H torsion
[ 10763 10752 10751 10750 ] final   61.79 input  -60.55 | X-H torsion
[ 11005 11000 10999 10996 ] final   34.96 input  -57.11 | X-H torsion

> <Gold.Protein.ActiveResidues>
 VAL166  LYS551  ARG553  GLY616  TRP617  ASP618  TYR619  PRO620  LYS621  CYS622 
 ASP623  PHE694  ASN695  SER759  ASP760  ASP761  ALA762  ILE779  LEU786  VAL792 
 PHE793  MET794  SER795  GLU796  ALA797  LYS798  CYS799  TRP800  GLU811  SER814 

> <Gold.Protein.RotatedAtoms>
  150.9176  134.8594  159.7467 H   0  0  0  0  0  0  0  0  0  0  0  0  # atno 6907 bound_to 6896
  152.4976  134.4265  159.9508 H   0  0  0  0  0  0  0  0  0  0  0  0  # atno 6908 bound_to 6896
  151.4302  133.3633  159.2803 H   0  0  0  0  0  0  0  0  0  0  0  0  # atno 6909 bound_to 6896
  144.7865  140.4834  143.5802 H   0  0  0  0  0  0  0  0  0  0  0  0  # atno 7974 bound_to 7965
  156.2661  140.2040  156.6221 H   0  0  0  0  0  0  0  0  0  0  0  0  # atno 8008 bound_to 7997
  154.6749  140.0546  157.0229 H   0  0  0  0  0  0  0  0  0  0  0  0  # atno 8009 bound_to 7997
  155.1084  140.3213  155.4531 H   0  0  0  0  0  0  0  0  0  0  0  0  # atno 8010 bound_to 7997
  140.6879  143.6572  150.8298 H   0  0  0  0  0  0  0  0  0  0  0  0  # atno 10167 bound_to 10162
  156.4718  130.8262  151.2491 H   0  0  0  0  0  0  0  0  0  0  0  0  # atno 10718 bound_to 10713
  152.9962  135.5488  154.6091 H   0  0  0  0  0  0  0  0  0  0  0  0  # atno 10763 bound_to 10752
  154.5415  135.2820  155.1093 H   0  0  0  0  0  0  0  0  0  0  0  0  # atno 10764 bound_to 10752
  154.2368  135.6423  153.5246 H   0  0  0  0  0  0  0  0  0  0  0  0  # atno 10765 bound_to 10752
  140.2475  134.3342  155.7902 H   0  0  0  0  0  0  0  0  0  0  0  0  # atno 11005 bound_to 11000
  145.5907  139.1495  143.3183 LP  0  0  0  0  0  0  0  0  0  0  0  0  # atno 17320 bound_to 7965
  146.2099  140.6033  142.9064 LP  0  0  0  0  0  0  0  0  0  0  0  0  # atno 17321 bound_to 7965
  140.0281  143.5472  152.2772 LP  0  0  0  0  0  0  0  0  0  0  0  0  # atno 17342 bound_to 10162
  139.6255  144.7636  151.2649 LP  0  0  0  0  0  0  0  0  0  0  0  0  # atno 17343 bound_to 10162
  157.7490  131.0074  150.3187 LP  0  0  0  0  0  0  0  0  0  0  0  0  # atno 17370 bound_to 10713
  156.3610  130.3847  149.7251 LP  0  0  0  0  0  0  0  0  0  0  0  0  # atno 17371 bound_to 10713
  141.2205  133.7334  156.8984 LP  0  0  0  0  0  0  0  0  0  0  0  0  # atno 17394 bound_to 11000
  140.1591  134.9178  157.2692 LP  0  0  0  0  0  0  0  0  0  0  0  0  # atno 17395 bound_to 11000

$$$$
