AV-unprocessed.smi:2435|AV-procd|sdf|9592|dock4
  -GOLD-   2272013223D 1   1.00000     0.00000
 Structure written by MMmdl.
 44 45  0  0  0  0  0  0  0  0  1 V2000
  151.1221  137.8380  154.2889 C   0  0  0  0  0  0  0  0  0  0  0  0
  150.7053  137.3428  155.5499 O   0  0  0  0  0  0  0  0  0  0  0  0
  150.9217  136.0194  155.7064 C   0  0  0  0  0  0  0  0  0  0  0  0
  150.3552  134.9227  155.1178 C   0  0  0  0  0  0  0  0  0  0  0  0
  149.3360  134.8380  154.1351 N   0  0  0  0  0  0  0  0  0  0  0  0
  148.2874  134.0000  154.1196 C   0  0  0  0  0  0  0  0  0  0  0  0
  148.0463  133.1535  154.9798 O   0  0  0  0  0  0  0  0  0  0  0  0
  147.5110  134.2128  153.0473 N   0  0  0  0  0  0  0  0  0  0  0  0
  146.2877  133.4811  152.7255 C   0  0  0  0  0  0  0  0  0  0  0  0
  146.6868  132.1154  152.1352 C   0  0  0  0  0  0  0  0  0  0  0  0
  145.5138  131.2138  151.7125 C   0  0  0  0  0  0  0  0  0  0  0  0
  144.8440  131.6811  150.4103 C   0  0  0  0  0  0  0  0  0  0  0  0
  143.7387  132.7378  150.5794 C   0  0  0  0  0  0  0  0  0  0  0  0
  143.9609  133.7978  151.6726 C   0  0  0  0  0  0  0  0  0  0  0  0
  145.3961  134.3356  151.7964 C   0  0  0  0  0  0  0  0  0  0  0  0
  150.9678  133.8070  155.7525 C   0  0  0  0  0  0  0  0  0  0  0  0
  150.7185  132.3409  155.5428 C   0  0  0  0  0  0  0  0  0  0  0  0
  151.8819  134.1980  156.6336 N   0  0  0  0  0  0  0  0  0  0  0  0
  151.8624  135.5530  156.6001 N   0  0  0  0  0  0  0  0  0  0  0  0
  152.7464  136.3069  157.4650 C   0  0  0  0  0  0  0  0  0  0  0  0
  150.9017  138.9033  154.2237 H   0  0  0  0  0  0  0  0  0  0  0  0
  150.5951  137.3343  153.4771 H   0  0  0  0  0  0  0  0  0  0  0  0
  152.1948  137.7079  154.1408 H   0  0  0  0  0  0  0  0  0  0  0  0
  149.3593  135.5463  153.4163 H   0  0  0  0  0  0  0  0  0  0  0  0
  147.7870  134.9364  152.3998 H   0  0  0  0  0  0  0  0  0  0  0  0
  145.7461  133.2939  153.6549 H   0  0  0  0  0  0  0  0  0  0  0  0
  147.3584  132.2577  151.2872 H   0  0  0  0  0  0  0  0  0  0  0  0
  147.2716  131.5792  152.8840 H   0  0  0  0  0  0  0  0  0  0  0  0
  145.9137  130.2134  151.5421 H   0  0  0  0  0  0  0  0  0  0  0  0
  144.7846  131.1088  152.5166 H   0  0  0  0  0  0  0  0  0  0  0  0
  145.6058  132.0564  149.7261 H   0  0  0  0  0  0  0  0  0  0  0  0
  144.4077  130.8181  149.9056 H   0  0  0  0  0  0  0  0  0  0  0  0
  143.5969  133.2368  149.6202 H   0  0  0  0  0  0  0  0  0  0  0  0
  142.7942  132.2338  150.7875 H   0  0  0  0  0  0  0  0  0  0  0  0
  143.2890  134.6318  151.4667 H   0  0  0  0  0  0  0  0  0  0  0  0
  143.6366  133.4044  152.6367 H   0  0  0  0  0  0  0  0  0  0  0  0
  145.3277  135.3406  152.2153 H   0  0  0  0  0  0  0  0  0  0  0  0
  145.8528  134.4560  150.8131 H   0  0  0  0  0  0  0  0  0  0  0  0
  150.2076  132.1558  154.5978 H   0  0  0  0  0  0  0  0  0  0  0  0
  150.0981  131.9333  156.3411 H   0  0  0  0  0  0  0  0  0  0  0  0
  151.6527  131.7791  155.5261 H   0  0  0  0  0  0  0  0  0  0  0  0
  153.0642  137.2211  156.9630 H   0  0  0  0  0  0  0  0  0  0  0  0
  153.6302  135.7173  157.7123 H   0  0  0  0  0  0  0  0  0  0  0  0
  152.2215  136.5689  158.3837 H   0  0  0  0  0  0  0  0  0  0  0  0
  1  2  1  0  0  0  0
  1 21  1  0  0  0  0
  1 22  1  0  0  0  0
  1 23  1  0  0  0  0
  2  3  1  0  0  0  0
  3 19  1  0  0  0  0
  3  4  2  0  0  0  0
  4  5  1  0  0  0  0
  4 16  1  0  0  0  0
  5  6  1  0  0  0  0
  5 24  1  0  0  0  0
  6  7  2  0  0  0  0
  6  8  1  0  0  0  0
  8  9  1  0  0  0  0
  8 25  1  0  0  0  0
  9 15  1  0  0  0  0
  9 10  1  0  0  0  0
  9 26  1  0  0  0  0
 10 11  1  0  0  0  0
 10 27  1  0  0  0  0
 10 28  1  0  0  0  0
 11 12  1  0  0  0  0
 11 29  1  0  0  0  0
 11 30  1  0  0  0  0
 12 13  1  0  0  0  0
 12 31  1  0  0  0  0
 12 32  1  0  0  0  0
 13 14  1  0  0  0  0
 13 33  1  0  0  0  0
 13 34  1  0  0  0  0
 14 15  1  0  0  0  0
 14 35  1  0  0  0  0
 14 36  1  0  0  0  0
 15 37  1  0  0  0  0
 15 38  1  0  0  0  0
 16 17  1  0  0  0  0
 16 18  2  0  0  0  0
 17 39  1  0  0  0  0
 17 40  1  0  0  0  0
 17 41  1  0  0  0  0
 18 19  1  0  0  0  0
 19 20  1  0  0  0  0
 20 42  1  0  0  0  0
 20 43  1  0  0  0  0
 20 44  1  0  0  0  0
M  END
> <s_m_source_file>
AV-unprocessed.smi

> <i_m_source_file_index>
2435

> <i_lp_mmshare_version>
43012

> <i_f3d_flags>
0

> <s_epik_input>
W0NIM11uMW5jKFtDSDNdKWMoYzFPW0NIM10pW05IXUMoPU8pW05IXVtDSF0yW0NIMl1bQ0gyXVtDSDJdW0NIMl1bQ0gyXVtDSDJdMg==

> <s_epik_cmdline>
J2VwaWtfcHl0aG9uJywgJy1waCcsICc3LjAnLCAnLXRuJywgJzgnLCAnLW1hJywgJzIwMCcsICctbWV0YWxfYmluZGluZycsICctaW1hZScsICc8aW5maWxlLm1hZT4nLCAnLW9tYWUnLCAnPG91dGZpbGUubWFlPic=

> <r_lp_tautomer_probability>
1

> <r_epik_Ionization_Penalty>
0.000417553

> <r_epik_Ionization_Penalty_Charging>
0

> <r_epik_Ionization_Penalty_Neutral>
0.000417553

> <r_epik_State_Penalty>
-0

> <r_epik_Charging_Adjusted_Penalty>
0

> <i_epik_Tot_Q>
0

> <i_epik_Tot_abs_Q>
0

> <r_epik_Metal_State_Penalty>
-0

> <b_epik_Metal_Only>
0

> <s_lp_Force_Field>
OPLS_2005

> <r_lp_Energy>
21.6667

> <b_lp_Chiralities_Consistent>
1

> <s_lp_Variant>
AV-unprocessed.smi:2435-1

> <Gold.Version>
5.8.1

> <Gold.Id.Protein>
6NUR|6NUR_protein|mol2

> <Gold.PLP.Fitness>
36.8155

> <Gold.PLP.PLP>
-32.1815

> <Gold.PLP.part.hbond>
-2.9848

> <Gold.PLP.part.metal>
0.0000

> <Gold.PLP.part.buried>
-4.6565

> <Gold.PLP.part.nonpolar>
-25.2624

> <Gold.PLP.part.repulsive>
0.1145

> <Gold.PLP.ligand.clash>
0.0000

> <Gold.PLP.ligand.torsion>
0.6921

> <Gold.PLP.Chemscore.Hbond>
2.0000

> <Gold.PLP.Chemscore.CHOScore>
0.0000

> <Gold.PLP.Chemscore.Metal>
0.0000

> <Gold.Chemscore.Hbonds>
donor molecule, donor type, donor heavy atom, donor atom, acceptor molecule, acceptor atom, score
      L1  H     5    24       P1  7948  1.00
      L1  H     8    25       P1  7948  1.00

> <Gold.PLP.Chemscore.Internal.Correction>
0.0181

> <Gold.Rescore>
     Score         DG    S(hbond)    S(metal)    S(lipo)     H(rot)  DE(clash)    DE(int)     intcor
     16.09     -18.23       2.01        0.00      78.01       1.21       0.11       2.02       ----

> <Gold.Chemscore.Fitness>
16.0937

> <Gold.Chemscore.DG>
-18.2260

> <Gold.Chemscore.ZeroCoef>
-5.4800

> <Gold.Chemscore.Hbond>
2.0122

> <Gold.Chemscore.Metal>
0.0000

> <Gold.Chemscore.Lipo>
78.0138

> <Gold.Chemscore.Internal_Hbond>
0.0000

> <Gold.Chemscore.DEClash>
0.1081

> <Gold.Chemscore.DEInternal>
2.0242

> <Gold.Chemscore.Rot>
1.2119

> <Gold.Chemscore.Internal.Correction>
   9.000000E+99

> <Gold.Chemscore.Hbonds>
donor molecule, donor type, donor heavy atom, donor atom, acceptor molecule, acceptor atom, score
      L1  H     5    24       P1  7948  0.25
      L1  H     8    25       P1  7948  0.86

> <Gold.Chemscore.Hbond.Weighted>
-6.7207

> <Gold.Chemscore.Metal.Weighted>
-0.0000

> <Gold.Chemscore.Lipo.Weighted>
-9.1276

> <Gold.Chemscore.Internal_Hbond.Weighted>
0.0000

> <Gold.Chemscore.DEClash.Weighted>
0.1081

> <Gold.Chemscore.DEInternal.Weighted>
2.0242

> <Gold.Chemscore.Rot.Weighted>
3.1024

> <Gold.Chemscore.Internal.Correction.Weighted>
   9.000000E+99

> <Gold.Protein.RotatedTorsions>
[ 6907 6896 6895 6894 ] final -137.34 input  -60.11 | X-H torsion
[ 7974 7965 7964 7962 ] final -132.42 input  175.53 | X-H torsion
[ 8008 7997 7996 7995 ] final  134.63 input   59.86 | X-H torsion
[ 10167 10162 10161 10158 ] final  125.66 input  -65.29 | X-H torsion
[ 10718 10713 10712 10709 ] final   84.33 input   66.30 | X-H torsion
[ 10763 10752 10751 10750 ] final -138.55 input  -60.55 | X-H torsion
[ 11005 11000 10999 10996 ] final -107.59 input  -57.11 | X-H torsion

> <Gold.Protein.ActiveResidues>
 VAL166  LYS551  ARG553  GLY616  TRP617  ASP618  TYR619  PRO620  LYS621  CYS622 
 ASP623  PHE694  ASN695  SER759  ASP760  ASP761  ALA762  ILE779  LEU786  VAL792 
 PHE793  MET794  SER795  GLU796  ALA797  LYS798  CYS799  TRP800  GLU811  SER814 

> <Gold.Protein.RotatedAtoms>
  151.0212  133.5875  159.2670 H   0  0  0  0  0  0  0  0  0  0  0  0  # atno 6907 bound_to 6896
  151.2991  135.0762  159.9241 H   0  0  0  0  0  0  0  0  0  0  0  0  # atno 6908 bound_to 6896
  152.5323  133.9897  159.7899 H   0  0  0  0  0  0  0  0  0  0  0  0  # atno 6909 bound_to 6896
  144.9287  140.7103  143.4919 H   0  0  0  0  0  0  0  0  0  0  0  0  # atno 7974 bound_to 7965
  156.3000  140.2491  156.3449 H   0  0  0  0  0  0  0  0  0  0  0  0  # atno 8008 bound_to 7997
  154.9020  140.0406  157.1917 H   0  0  0  0  0  0  0  0  0  0  0  0  # atno 8009 bound_to 7997
  154.8491  140.2903  155.5614 H   0  0  0  0  0  0  0  0  0  0  0  0  # atno 8010 bound_to 7997
  139.5673  144.6919  151.3875 H   0  0  0  0  0  0  0  0  0  0  0  0  # atno 10167 bound_to 10162
  157.6896  131.0129  150.2657 H   0  0  0  0  0  0  0  0  0  0  0  0  # atno 10718 bound_to 10713
  154.8634  135.3609  154.5403 H   0  0  0  0  0  0  0  0  0  0  0  0  # atno 10763 bound_to 10752
  153.6024  135.7012  153.5384 H   0  0  0  0  0  0  0  0  0  0  0  0  # atno 10764 bound_to 10752
  153.3279  135.4133  155.1432 H   0  0  0  0  0  0  0  0  0  0  0  0  # atno 10765 bound_to 10752
  141.0946  133.8994  157.1994 H   0  0  0  0  0  0  0  0  0  0  0  0  # atno 11005 bound_to 11000
  145.3176  139.1798  143.4605 LP  0  0  0  0  0  0  0  0  0  0  0  0  # atno 17320 bound_to 7965
  146.3237  140.3190  142.8632 LP  0  0  0  0  0  0  0  0  0  0  0  0  # atno 17321 bound_to 7965
  140.6957  143.7755  150.7323 LP  0  0  0  0  0  0  0  0  0  0  0  0  # atno 17342 bound_to 10162
  140.1251  143.4577  152.2289 LP  0  0  0  0  0  0  0  0  0  0  0  0  # atno 17343 bound_to 10162
  156.3228  130.3788  149.7559 LP  0  0  0  0  0  0  0  0  0  0  0  0  # atno 17370 bound_to 10713
  156.5124  130.8178  151.3174 LP  0  0  0  0  0  0  0  0  0  0  0  0  # atno 17371 bound_to 10713
  139.9779  135.0108  156.9677 LP  0  0  0  0  0  0  0  0  0  0  0  0  # atno 17394 bound_to 11000
  140.5171  134.0944  155.7283 LP  0  0  0  0  0  0  0  0  0  0  0  0  # atno 17395 bound_to 11000

$$$$
