AV-unprocessed.smi:655|AV-procd|sdf|3214|dock8
  -GOLD-   22720 0153D 1   1.00000     0.00000
 Structure written by MMmdl.
 35 36  0  0  0  0  0  0  0  0  1 V2000
  152.8784  142.9528  162.2893 C   0  0  0  0  0  0  0  0  0  0  0  0
  152.8437  142.9338  160.7546 C   0  0  2  0  0  0  0  0  0  0  0  0
  152.0035  144.0952  160.1960 C   0  0  0  0  0  0  0  0  0  0  0  0
  151.9667  144.0870  158.6574 C   0  0  0  0  0  0  0  0  0  0  0  0
  151.4787  142.7400  158.0662 C   0  0  1  0  0  0  0  0  0  0  0  0
  150.1235  142.5394  158.4255 O   0  0  0  0  0  0  0  0  0  0  0  0
  151.5710  142.6688  156.5141 C   0  0  0  0  0  0  0  0  0  0  0  0
  150.8097  141.6091  155.8885 N   0  0  0  0  0  0  0  0  0  0  0  0
  149.5793  141.8332  155.2877 C   0  0  0  0  0  0  0  0  0  0  0  0
  148.8427  140.8531  154.7112 C   0  0  0  0  0  0  0  0  0  0  0  0
  147.3144  141.2132  153.9912 Cl  0  0  0  0  0  0  0  0  0  0  0  0
  149.3382  139.4776  154.6980 C   0  0  0  0  0  0  0  0  0  0  0  0
  148.7541  138.5149  154.2044 O   0  0  0  0  0  0  0  0  0  0  0  0
  150.5826  139.2984  155.3091 N   0  0  0  0  0  0  0  0  0  0  0  0
  151.3476  140.3011  155.9059 C   0  0  0  0  0  0  0  0  0  0  0  0
  152.4347  140.0205  156.4106 O   0  0  0  0  0  0  0  0  0  0  0  0
  152.2792  141.5667  158.6816 C   0  0  0  0  0  0  0  0  0  0  0  0
  152.3124  141.5923  160.2204 C   0  0  0  0  0  0  0  0  0  0  0  0
  150.9618  138.3624  155.3183 H   0  0  0  0  0  0  0  0  0  0  0  0
  151.8780  142.8442  162.7098 H   0  0  0  0  0  0  0  0  0  0  0  0
  153.2958  143.8891  162.6610 H   0  0  0  0  0  0  0  0  0  0  0  0
  153.4932  142.1409  162.6786 H   0  0  0  0  0  0  0  0  0  0  0  0
  153.8682  143.0568  160.4000 H   0  0  0  0  0  0  0  0  0  0  0  0
  150.9867  144.0374  160.5867 H   0  0  0  0  0  0  0  0  0  0  0  0
  152.4089  145.0466  160.5418 H   0  0  0  0  0  0  0  0  0  0  0  0
  151.3340  144.9071  158.3154 H   0  0  0  0  0  0  0  0  0  0  0  0
  152.9693  144.2993  158.2851 H   0  0  0  0  0  0  0  0  0  0  0  0
  149.5744  142.8978  157.7451 H   0  0  0  0  0  0  0  0  0  0  0  0
  151.1654  143.5834  156.0783 H   0  0  0  0  0  0  0  0  0  0  0  0
  152.5985  142.6177  156.1463 H   0  0  0  0  0  0  0  0  0  0  0  0
  149.1805  142.8379  155.2834 H   0  0  0  0  0  0  0  0  0  0  0  0
  151.8753  140.6123  158.3400 H   0  0  0  0  0  0  0  0  0  0  0  0
  153.3073  141.6028  158.3185 H   0  0  0  0  0  0  0  0  0  0  0  0
  152.9385  140.7757  160.5815 H   0  0  0  0  0  0  0  0  0  0  0  0
  151.3126  141.4065  160.6152 H   0  0  0  0  0  0  0  0  0  0  0  0
  1  2  1  0  0  0  0
  1 20  1  0  0  0  0
  1 21  1  0  0  0  0
  1 22  1  0  0  0  0
  2 18  1  0  0  0  0
  2  3  1  0  0  0  0
  2 23  1  0  0  0  0
  3  4  1  0  0  0  0
  3 24  1  0  0  0  0
  3 25  1  0  0  0  0
  4  5  1  0  0  0  0
  4 26  1  0  0  0  0
  4 27  1  0  0  0  0
  5  6  1  0  0  0  0
  5  7  1  0  0  0  0
  5 17  1  0  0  0  0
  6 28  1  0  0  0  0
  7  8  1  0  0  0  0
  7 29  1  0  0  0  0
  7 30  1  0  0  0  0
  8 15  1  0  0  0  0
  8  9  1  0  0  0  0
  9 10  2  0  0  0  0
  9 31  1  0  0  0  0
 10 11  1  0  0  0  0
 10 12  1  0  0  0  0
 12 13  2  0  0  0  0
 12 14  1  0  0  0  0
 14 19  1  0  0  0  0
 14 15  1  0  0  0  0
 15 16  2  0  0  0  0
 17 18  1  0  0  0  0
 17 32  1  0  0  0  0
 17 33  1  0  0  0  0
 18 34  1  0  0  0  0
 18 35  1  0  0  0  0
M  END
> <s_m_source_file>
AV-unprocessed.smi

> <i_m_source_file_index>
655

> <i_lp_mmshare_version>
43012

> <i_f3d_flags>
0

> <s_epik_input>
W0NIMl0xW0NIMl1bQ0BIXShbQ0gzXSlbQ0gyXVtDSDJdW0NAQF0xKFtPSF0pW0NIMl1uMltjSF1jKENsKWMoPU8pW25IXWMyPU8=

> <s_epik_cmdline>
J2VwaWtfcHl0aG9uJywgJy1waCcsICc3LjAnLCAnLXRuJywgJzgnLCAnLW1hJywgJzIwMCcsICctbWV0YWxfYmluZGluZycsICctaW1hZScsICc8aW5maWxlLm1hZT4nLCAnLW9tYWUnLCAnPG91dGZpbGUubWFlPic=

> <r_lp_tautomer_probability>
0.999537

> <r_epik_Ionization_Penalty>
0.0114762

> <r_epik_Ionization_Penalty_Charging>
0.0114753

> <r_epik_Ionization_Penalty_Neutral>
8.25878e-07

> <r_epik_State_Penalty>
0.00883314

> <r_epik_Charging_Adjusted_Penalty>
0.0203085

> <i_epik_Tot_Q>
0

> <i_epik_Tot_abs_Q>
0

> <r_epik_Metal_State_Penalty>
1.64347

> <b_epik_Metal_Only>
0

> <s_lp_Force_Field>
OPLS_2005

> <r_lp_Energy>
18.0938

> <b_lp_Chiralities_Consistent>
1

> <s_lp_Variant>
AV-unprocessed.smi:655-1

> <Gold.Version>
5.8.1

> <Gold.Id.Protein>
6NUR|6NUR_protein|mol2

> <Gold.PLP.Fitness>
43.2489

> <Gold.PLP.PLP>
-38.1204

> <Gold.PLP.part.hbond>
-1.0000

> <Gold.PLP.part.metal>
0.0000

> <Gold.PLP.part.buried>
-4.1018

> <Gold.PLP.part.nonpolar>
-32.8997

> <Gold.PLP.part.repulsive>
0.2837

> <Gold.PLP.ligand.clash>
0.0000

> <Gold.PLP.ligand.torsion>
0.4388

> <Gold.PLP.Chemscore.Hbond>
1.0000

> <Gold.PLP.Chemscore.CHOScore>
1.0000

> <Gold.PLP.Chemscore.Metal>
0.0000

> <Gold.Chemscore.Hbonds>
donor molecule, donor type, donor heavy atom, donor atom, acceptor molecule, acceptor atom, score
      P1  H  7997  8009       L1    16  1.00
      L1  C     9    31       P1  8028  0.76

> <Gold.PLP.Chemscore.Internal.Correction>
0.0060

> <Gold.Rescore>
     Score         DG    S(hbond)    S(metal)    S(lipo)     H(rot)  DE(clash)    DE(int)     intcor
     13.63     -16.90       1.00        0.00     109.28       1.84       1.37       1.90       ----

> <Gold.Chemscore.Fitness>
13.6327

> <Gold.Chemscore.DG>
-16.9015

> <Gold.Chemscore.ZeroCoef>
-5.4800

> <Gold.Chemscore.Hbond>
1.0035

> <Gold.Chemscore.Metal>
0.0000

> <Gold.Chemscore.Lipo>
109.2832

> <Gold.Chemscore.Internal_Hbond>
0.0000

> <Gold.Chemscore.DEClash>
1.3722

> <Gold.Chemscore.DEInternal>
1.8965

> <Gold.Chemscore.Rot>
1.8424

> <Gold.Chemscore.Internal.Correction>
   9.000000E+99

> <Gold.Chemscore.Hbonds>
donor molecule, donor type, donor heavy atom, donor atom, acceptor molecule, acceptor atom, score
      P1  H  7997  8009       L1    16  0.99

> <Gold.Chemscore.Hbond.Weighted>
-3.3517

> <Gold.Chemscore.Metal.Weighted>
-0.0000

> <Gold.Chemscore.Lipo.Weighted>
-12.7861

> <Gold.Chemscore.Internal_Hbond.Weighted>
0.0000

> <Gold.Chemscore.DEClash.Weighted>
1.3722

> <Gold.Chemscore.DEInternal.Weighted>
1.8965

> <Gold.Chemscore.Rot.Weighted>
4.7164

> <Gold.Chemscore.Internal.Correction.Weighted>
   9.000000E+99

> <Gold.Protein.RotatedTorsions>
[ 6907 6896 6895 6894 ] final  121.16 input  -60.11 | X-H torsion
[ 7974 7965 7964 7962 ] final   54.94 input  175.53 | X-H torsion
[ 8008 7997 7996 7995 ] final -159.92 input   59.86 | X-H torsion
[ 10167 10162 10161 10158 ] final   78.98 input  -65.29 | X-H torsion
[ 10718 10713 10712 10709 ] final  -69.74 input   66.30 | X-H torsion
[ 10763 10752 10751 10750 ] final   64.98 input  -60.55 | X-H torsion
[ 11005 11000 10999 10996 ] final  -43.25 input  -57.11 | X-H torsion

> <Gold.Protein.ActiveResidues>
 VAL166  LYS551  ARG553  GLY616  TRP617  ASP618  TYR619  PRO620  LYS621  CYS622 
 ASP623  PHE694  ASN695  SER759  ASP760  ASP761  ALA762  ILE779  LEU786  VAL792 
 PHE793  MET794  SER795  GLU796  ALA797  LYS798  CYS799  TRP800  GLU811  SER814 

> <Gold.Protein.RotatedAtoms>
  152.4343  133.7332  159.6598 H   0  0  0  0  0  0  0  0  0  0  0  0  # atno 6907 bound_to 6896
  150.8225  133.8218  159.3139 H   0  0  0  0  0  0  0  0  0  0  0  0  # atno 6908 bound_to 6896
  151.5896  135.1056  160.0087 H   0  0  0  0  0  0  0  0  0  0  0  0  # atno 6909 bound_to 6896
  145.9556  139.4012  143.0279 H   0  0  0  0  0  0  0  0  0  0  0  0  # atno 7974 bound_to 7965
  155.7698  140.0850  157.2114 H   0  0  0  0  0  0  0  0  0  0  0  0  # atno 8008 bound_to 7997
  154.3997  140.1527  156.2986 H   0  0  0  0  0  0  0  0  0  0  0  0  # atno 8009 bound_to 7997
  155.8758  140.3423  155.5856 H   0  0  0  0  0  0  0  0  0  0  0  0  # atno 8010 bound_to 7997
  139.9652  144.5933  150.8036 H   0  0  0  0  0  0  0  0  0  0  0  0  # atno 10167 bound_to 10162
  156.0441  130.4318  150.2192 H   0  0  0  0  0  0  0  0  0  0  0  0  # atno 10718 bound_to 10713
  153.0077  135.5373  154.6595 H   0  0  0  0  0  0  0  0  0  0  0  0  # atno 10763 bound_to 10752
  154.5807  135.2850  155.0737 H   0  0  0  0  0  0  0  0  0  0  0  0  # atno 10764 bound_to 10752
  154.1867  135.6507  153.5101 H   0  0  0  0  0  0  0  0  0  0  0  0  # atno 10765 bound_to 10752
  141.0371  133.6795  156.2707 H   0  0  0  0  0  0  0  0  0  0  0  0  # atno 11005 bound_to 11000
  145.8111  140.9725  143.0948 LP  0  0  0  0  0  0  0  0  0  0  0  0  # atno 17320 bound_to 7965
  144.6804  139.9922  143.7484 LP  0  0  0  0  0  0  0  0  0  0  0  0  # atno 17321 bound_to 7965
  140.7540  143.3019  151.3059 LP  0  0  0  0  0  0  0  0  0  0  0  0  # atno 17342 bound_to 10162
  139.6523  144.0339  152.2635 LP  0  0  0  0  0  0  0  0  0  0  0  0  # atno 17343 bound_to 10162
  157.0283  131.0000  151.3319 LP  0  0  0  0  0  0  0  0  0  0  0  0  # atno 17370 bound_to 10713
  157.5295  130.8049  149.7901 LP  0  0  0  0  0  0  0  0  0  0  0  0  # atno 17371 bound_to 10713
  140.6302  134.5272  157.5558 LP  0  0  0  0  0  0  0  0  0  0  0  0  # atno 17394 bound_to 11000
  139.9249  134.8076  156.1100 LP  0  0  0  0  0  0  0  0  0  0  0  0  # atno 17395 bound_to 11000

$$$$
