AV-unprocessed.smi:2527|AV-procd|sdf|9942|dock3
  -GOLD-   2272013583D 1   1.00000     0.00000
 Structure written by MMmdl.
 36 38  0  0  0  0  0  0  0  0  1 V2000
  152.9319  137.5750  160.4675 C   0  0  0  0  0  0  0  0  0  0  0  0
  151.7900  137.0928  159.7822 O   0  0  0  0  0  0  0  0  0  0  0  0
  151.1864  138.0815  158.9636 C   0  0  0  0  0  0  0  0  0  0  0  0
  152.2282  138.6518  157.9907 C   0  0  0  0  0  0  0  0  0  0  0  0
  151.9082  140.0123  157.5833 N   0  0  0  0  0  0  0  0  0  0  0  0
  151.4625  140.4381  156.3750 C   0  0  0  0  0  0  0  0  0  0  0  0
  151.1943  139.3034  155.0426 S   0  0  0  0  0  0  0  0  0  0  0  0
  149.3823  139.3613  154.9212 C   0  0  0  0  0  0  0  0  0  0  0  0
  148.8346  140.7331  154.5941 C   0  0  0  0  0  0  0  0  0  0  0  0
  147.4840  140.8450  154.3806 N   0  0  0  0  0  0  0  0  0  0  0  0
  147.2565  142.1262  154.1192 C   0  0  0  0  0  0  0  0  0  0  0  0
  146.1802  142.6636  153.8685 O   0  0  0  0  0  0  0  0  0  0  0  0
  148.4635  142.7004  154.1911 N   0  0  0  0  0  0  0  0  0  0  0  0
  149.4734  141.8454  154.4891 N   0  0  0  0  0  0  0  0  0  0  0  0
  151.2408  141.7510  156.2792 N   0  0  0  0  0  0  0  0  0  0  0  0
  151.5696  142.2148  157.5373 C   0  0  0  0  0  0  0  0  0  0  0  0
  151.5425  143.5234  158.0703 C   0  0  0  0  0  0  0  0  0  0  0  0
  151.9262  143.7575  159.4071 C   0  0  0  0  0  0  0  0  0  0  0  0
  151.8858  145.3607  160.0428 Cl  0  0  0  0  0  0  0  0  0  0  0  0
  152.3409  142.6879  160.2274 C   0  0  0  0  0  0  0  0  0  0  0  0
  152.3751  141.3768  159.7154 C   0  0  0  0  0  0  0  0  0  0  0  0
  151.9920  141.1497  158.3799 C   0  0  0  0  0  0  0  0  0  0  0  0
  148.6718  143.6782  154.0478 H   0  0  0  0  0  0  0  0  0  0  0  0
  146.8092  140.0951  154.4179 H   0  0  0  0  0  0  0  0  0  0  0  0
  153.3545  136.7780  161.0793 H   0  0  0  0  0  0  0  0  0  0  0  0
  152.6748  138.4054  161.1265 H   0  0  0  0  0  0  0  0  0  0  0  0
  153.7005  137.9067  159.7683 H   0  0  0  0  0  0  0  0  0  0  0  0
  150.3577  137.6465  158.4031 H   0  0  0  0  0  0  0  0  0  0  0  0
  150.7764  138.8804  159.5835 H   0  0  0  0  0  0  0  0  0  0  0  0
  153.2129  138.6512  158.4589 H   0  0  0  0  0  0  0  0  0  0  0  0
  152.3138  138.0197  157.1068 H   0  0  0  0  0  0  0  0  0  0  0  0
  149.0602  138.6502  154.1595 H   0  0  0  0  0  0  0  0  0  0  0  0
  148.9500  139.0338  155.8671 H   0  0  0  0  0  0  0  0  0  0  0  0
  151.2244  144.3476  157.4493 H   0  0  0  0  0  0  0  0  0  0  0  0
  152.6317  142.8730  161.2511 H   0  0  0  0  0  0  0  0  0  0  0  0
  152.6876  140.5555  160.3429 H   0  0  0  0  0  0  0  0  0  0  0  0
  1  2  1  0  0  0  0
  1 25  1  0  0  0  0
  1 26  1  0  0  0  0
  1 27  1  0  0  0  0
  2  3  1  0  0  0  0
  3  4  1  0  0  0  0
  3 28  1  0  0  0  0
  3 29  1  0  0  0  0
  4  5  1  0  0  0  0
  4 30  1  0  0  0  0
  4 31  1  0  0  0  0
  5 22  1  0  0  0  0
  5  6  1  0  0  0  0
  6  7  1  0  0  0  0
  6 15  2  0  0  0  0
  7  8  1  0  0  0  0
  8 32  1  0  0  0  0
  8 33  1  0  0  0  0
  8  9  1  0  0  0  0
  9 14  2  0  0  0  0
  9 10  1  0  0  0  0
 10 11  1  0  0  0  0
 10 24  1  0  0  0  0
 11 13  1  0  0  0  0
 11 12  2  0  0  0  0
 13 14  1  0  0  0  0
 13 23  1  0  0  0  0
 15 16  1  0  0  0  0
 16 22  2  0  0  0  0
 16 17  1  0  0  0  0
 17 18  2  0  0  0  0
 17 34  1  0  0  0  0
 18 19  1  0  0  0  0
 18 20  1  0  0  0  0
 20 21  2  0  0  0  0
 20 35  1  0  0  0  0
 21 22  1  0  0  0  0
 21 36  1  0  0  0  0
M  END
> <s_m_source_file>
AV-unprocessed.smi

> <i_m_source_file_index>
2527

> <i_lp_mmshare_version>
43012

> <i_f3d_flags>
0

> <s_epik_input>
W2NIXTFjKENsKVtjSF1bY0hdYyhjMTIpbihbQ0gyXVtDSDJdT1tDSDNdKWMobjIpU1tDSDJdYzNuYyg9TylbbkhdW25IXTM=

> <s_epik_cmdline>
J2VwaWtfcHl0aG9uJywgJy1waCcsICc3LjAnLCAnLXRuJywgJzgnLCAnLW1hJywgJzIwMCcsICctbWV0YWxfYmluZGluZycsICctaW1hZScsICc8aW5maWxlLm1hZT4nLCAnLW9tYWUnLCAnPG91dGZpbGUubWFlPic=

> <r_lp_tautomer_probability>
0.999897

> <r_epik_Ionization_Penalty>
0.0426825

> <r_epik_Ionization_Penalty_Charging>
0.0333494

> <r_epik_Ionization_Penalty_Neutral>
0.00933306

> <r_epik_State_Penalty>
0.0341975

> <r_epik_Charging_Adjusted_Penalty>
0.0675469

> <i_epik_Tot_Q>
0

> <i_epik_Tot_abs_Q>
0

> <r_epik_Metal_State_Penalty>
0.388349

> <b_epik_Metal_Only>
0

> <s_lp_Force_Field>
OPLS_2005

> <r_lp_Energy>
27.9539

> <b_lp_Chiralities_Consistent>
1

> <s_lp_Variant>
AV-unprocessed.smi:2527-1

> <Gold.Version>
5.8.1

> <Gold.Id.Protein>
6NUR|6NUR_protein|mol2

> <Gold.PLP.Fitness>
47.4694

> <Gold.PLP.PLP>
-43.7006

> <Gold.PLP.part.hbond>
-3.5303

> <Gold.PLP.part.metal>
0.0000

> <Gold.PLP.part.buried>
-6.2571

> <Gold.PLP.part.nonpolar>
-35.9568

> <Gold.PLP.part.repulsive>
1.9703

> <Gold.PLP.ligand.clash>
0.0000

> <Gold.PLP.ligand.torsion>
0.3843

> <Gold.PLP.Chemscore.Hbond>
1.4800

> <Gold.PLP.Chemscore.CHOScore>
0.0000

> <Gold.PLP.Chemscore.Metal>
0.0000

> <Gold.Chemscore.Hbonds>
donor molecule, donor type, donor heavy atom, donor atom, acceptor molecule, acceptor atom, score
      L1  H    13    23       P1  8028  0.34
      P1  H  6896  6908       L1     2  1.00

> <Gold.PLP.Chemscore.Internal.Correction>
0.0974

> <Gold.Rescore>
     Score         DG    S(hbond)    S(metal)    S(lipo)     H(rot)  DE(clash)    DE(int)     intcor
     13.54     -15.71       1.87        0.00      96.64       2.86       0.06       2.11       ----

> <Gold.Chemscore.Fitness>
13.5411

> <Gold.Chemscore.DG>
-15.7130

> <Gold.Chemscore.ZeroCoef>
-5.4800

> <Gold.Chemscore.Hbond>
1.8715

> <Gold.Chemscore.Metal>
0.0000

> <Gold.Chemscore.Lipo>
96.6400

> <Gold.Chemscore.Internal_Hbond>
0.0000

> <Gold.Chemscore.DEClash>
0.0580

> <Gold.Chemscore.DEInternal>
2.1139

> <Gold.Chemscore.Rot>
2.8613

> <Gold.Chemscore.Internal.Correction>
   9.000000E+99

> <Gold.Chemscore.Hbonds>
donor molecule, donor type, donor heavy atom, donor atom, acceptor molecule, acceptor atom, score
      L1  H    13    23       P1  8028  0.34
      P1  H  6896  6908       L1     2  0.74

> <Gold.Chemscore.Hbond.Weighted>
-6.2510

> <Gold.Chemscore.Metal.Weighted>
-0.0000

> <Gold.Chemscore.Lipo.Weighted>
-11.3069

> <Gold.Chemscore.Internal_Hbond.Weighted>
0.0000

> <Gold.Chemscore.DEClash.Weighted>
0.0580

> <Gold.Chemscore.DEInternal.Weighted>
2.1139

> <Gold.Chemscore.Rot.Weighted>
7.3249

> <Gold.Chemscore.Internal.Correction.Weighted>
   9.000000E+99

> <Gold.Protein.RotatedTorsions>
[ 6907 6896 6895 6894 ] final -116.27 input  -60.11 | X-H torsion
[ 7974 7965 7964 7962 ] final  175.21 input  175.53 | X-H torsion
[ 8008 7997 7996 7995 ] final   -6.54 input   59.86 | X-H torsion
[ 10167 10162 10161 10158 ] final  159.68 input  -65.29 | X-H torsion
[ 10718 10713 10712 10709 ] final -175.57 input   66.30 | X-H torsion
[ 10763 10752 10751 10750 ] final  134.66 input  -60.55 | X-H torsion
[ 11005 11000 10999 10996 ] final  -58.30 input  -57.11 | X-H torsion

> <Gold.Protein.ActiveResidues>
 VAL166  LYS551  ARG553  GLY616  TRP617  ASP618  TYR619  PRO620  LYS621  CYS622 
 ASP623  PHE694  ASN695  SER759  ASP760  ASP761  ALA762  ILE779  LEU786  VAL792 
 PHE793  MET794  SER795  GLU796  ALA797  LYS798  CYS799  TRP800  GLU811  SER814 

> <Gold.Protein.RotatedAtoms>
  150.8042  133.8541  159.3213 H   0  0  0  0  0  0  0  0  0  0  0  0  # atno 6907 bound_to 6896
  151.6345  135.1017  160.0138 H   0  0  0  0  0  0  0  0  0  0  0  0  # atno 6908 bound_to 6896
  152.4132  133.6956  159.6451 H   0  0  0  0  0  0  0  0  0  0  0  0  # atno 6909 bound_to 6896
  144.7206  139.9913  143.6440 H   0  0  0  0  0  0  0  0  0  0  0  0  # atno 7974 bound_to 7965
  154.5927  140.2430  155.7898 H   0  0  0  0  0  0  0  0  0  0  0  0  # atno 8008 bound_to 7997
  156.2258  140.2983  156.0018 H   0  0  0  0  0  0  0  0  0  0  0  0  # atno 8009 bound_to 7997
  155.2345  140.0405  157.2957 H   0  0  0  0  0  0  0  0  0  0  0  0  # atno 8010 bound_to 7997
  139.4834  144.4707  151.8580 H   0  0  0  0  0  0  0  0  0  0  0  0  # atno 10167 bound_to 10162
  156.8018  130.9555  151.3118 H   0  0  0  0  0  0  0  0  0  0  0  0  # atno 10718 bound_to 10713
  153.8271  135.3108  155.3415 H   0  0  0  0  0  0  0  0  0  0  0  0  # atno 10763 bound_to 10752
  154.7988  135.4739  154.0229 H   0  0  0  0  0  0  0  0  0  0  0  0  # atno 10764 bound_to 10752
  153.1657  135.6869  153.8769 H   0  0  0  0  0  0  0  0  0  0  0  0  # atno 10765 bound_to 10752
  141.1201  133.6612  156.4899 H   0  0  0  0  0  0  0  0  0  0  0  0  # atno 11005 bound_to 11000
  146.0409  139.3421  143.0698 LP  0  0  0  0  0  0  0  0  0  0  0  0  # atno 17320 bound_to 7965
  145.8336  140.9618  143.0836 LP  0  0  0  0  0  0  0  0  0  0  0  0  # atno 17321 bound_to 7965
  140.4175  144.2287  150.5887 LP  0  0  0  0  0  0  0  0  0  0  0  0  # atno 17342 bound_to 10162
  140.4906  143.2349  151.8824 LP  0  0  0  0  0  0  0  0  0  0  0  0  # atno 17343 bound_to 10162
  157.6550  130.8916  149.9710 LP  0  0  0  0  0  0  0  0  0  0  0  0  # atno 17370 bound_to 10713
  156.1097  130.3650  150.0071 LP  0  0  0  0  0  0  0  0  0  0  0  0  # atno 17371 bound_to 10713
  140.4532  134.6910  157.5049 LP  0  0  0  0  0  0  0  0  0  0  0  0  # atno 17394 bound_to 11000
  140.0152  134.6630  155.9320 LP  0  0  0  0  0  0  0  0  0  0  0  0  # atno 17395 bound_to 11000

$$$$
