AV-unprocessed.smi:1933|AV-procd|sdf|7817|dock7
  -GOLD-   22720 9563D 1   1.00000     0.00000
 Structure written by MMmdl.
 47 49  0  0  0  0  0  0  0  0  1 V2000
  145.3597  135.7731  154.1909 O   0  0  0  0  0  0  0  0  0  0  0  0
  146.3482  135.9573  153.4805 C   0  0  0  0  0  0  0  0  0  0  0  0
  147.3281  136.8225  153.7806 N   0  0  0  0  0  0  0  0  0  0  0  0
  147.3873  137.6652  154.9722 C   0  0  0  0  0  0  0  0  0  0  0  0
  148.4768  137.1982  155.9743 C   0  0  2  0  0  0  0  0  0  0  0  0
  147.9261  136.9520  157.4100 C   0  0  1  0  0  0  0  0  0  0  0  0
  148.9200  136.3844  158.4099 C   0  0  0  0  0  0  0  0  0  0  0  0
  148.2555  136.6750  159.7607 C   0  0  0  0  0  0  0  0  0  0  0  0
  147.1584  137.5453  159.4893 O   0  0  0  0  0  0  0  0  0  0  0  0
  147.3375  138.1170  158.2032 C   0  0  0  0  0  0  0  0  0  0  0  0
  149.7354  137.9683  155.9130 N   0  0  0  0  0  0  0  0  0  0  0  0
  149.6127  139.3997  156.2014 C   0  0  0  0  0  0  0  0  0  0  0  0
  150.9855  140.0922  156.2162 C   0  0  0  0  0  0  0  0  0  0  0  0
  151.6310  139.8902  154.9627 O   0  0  0  0  0  0  0  0  0  0  0  0
  151.7994  138.5124  154.6446 C   0  0  0  0  0  0  0  0  0  0  0  0
  150.4314  137.8078  154.6385 C   0  0  0  0  0  0  0  0  0  0  0  0
  146.6044  135.3152  152.3276 N   0  0  0  0  0  0  0  0  0  0  0  0
  145.8431  134.2915  151.7039 C   0  0  0  0  0  0  0  0  0  0  0  0
  146.4864  133.1949  151.0741 C   0  0  0  0  0  0  0  0  0  0  0  0
  145.7057  132.1799  150.4885 C   0  0  0  0  0  0  0  0  0  0  0  0
  144.3048  132.2777  150.5548 C   0  0  0  0  0  0  0  0  0  0  0  0
  143.7487  133.3891  151.2137 C   0  0  0  0  0  0  0  0  0  0  0  0
  144.4938  134.3629  151.7782 N   0  0  0  0  0  0  0  0  0  0  0  0
  148.1012  136.9010  153.1362 H   0  0  0  0  0  0  0  0  0  0  0  0
  147.6009  138.6764  154.6268 H   0  0  0  0  0  0  0  0  0  0  0  0
  146.4132  137.7145  155.4611 H   0  0  0  0  0  0  0  0  0  0  0  0
  148.7332  136.1890  155.6478 H   0  0  0  0  0  0  0  0  0  0  0  0
  147.1338  136.2068  157.3306 H   0  0  0  0  0  0  0  0  0  0  0  0
  149.1083  135.3216  158.2547 H   0  0  0  0  0  0  0  0  0  0  0  0
  149.8759  136.9062  158.3539 H   0  0  0  0  0  0  0  0  0  0  0  0
  147.8864  135.7640  160.2328 H   0  0  0  0  0  0  0  0  0  0  0  0
  148.9562  137.1526  160.4464 H   0  0  0  0  0  0  0  0  0  0  0  0
  148.0348  138.9440  158.3145 H   0  0  0  0  0  0  0  0  0  0  0  0
  146.4006  138.4931  157.7934 H   0  0  0  0  0  0  0  0  0  0  0  0
  148.9958  139.8821  155.4424 H   0  0  0  0  0  0  0  0  0  0  0  0
  149.1167  139.5771  157.1497 H   0  0  0  0  0  0  0  0  0  0  0  0
  150.8688  141.1622  156.3882 H   0  0  0  0  0  0  0  0  0  0  0  0
  151.6074  139.7024  157.0238 H   0  0  0  0  0  0  0  0  0  0  0  0
  152.2739  138.4267  153.6671 H   0  0  0  0  0  0  0  0  0  0  0  0
  152.4695  138.0455  155.3684 H   0  0  0  0  0  0  0  0  0  0  0  0
  150.5810  136.7488  154.4255 H   0  0  0  0  0  0  0  0  0  0  0  0
  149.8253  138.2080  153.8252 H   0  0  0  0  0  0  0  0  0  0  0  0
  147.5039  135.4986  151.9081 H   0  0  0  0  0  0  0  0  0  0  0  0
  147.5623  133.1103  151.0418 H   0  0  0  0  0  0  0  0  0  0  0  0
  146.1751  131.3376  150.0018 H   0  0  0  0  0  0  0  0  0  0  0  0
  143.6733  131.5182  150.1180 H   0  0  0  0  0  0  0  0  0  0  0  0
  142.6773  133.4990  151.2928 H   0  0  0  0  0  0  0  0  0  0  0  0
  1  2  2  0  0  0  0
  2  3  1  0  0  0  0
  2 17  1  0  0  0  0
  3  4  1  0  0  0  0
  3 24  1  0  0  0  0
  4  5  1  0  0  0  0
  4 25  1  0  0  0  0
  4 26  1  0  0  0  0
  5  6  1  0  0  0  0
  5 11  1  0  0  0  0
  5 27  1  0  0  0  0
  6 10  1  0  0  0  0
  6  7  1  0  0  0  0
  6 28  1  0  0  0  0
  7  8  1  0  0  0  0
  7 29  1  0  0  0  0
  7 30  1  0  0  0  0
  8  9  1  0  0  0  0
  8 31  1  0  0  0  0
  8 32  1  0  0  0  0
  9 10  1  0  0  0  0
 10 33  1  0  0  0  0
 10 34  1  0  0  0  0
 11 16  1  0  0  0  0
 11 12  1  0  0  0  0
 12 13  1  0  0  0  0
 12 35  1  0  0  0  0
 12 36  1  0  0  0  0
 13 14  1  0  0  0  0
 13 37  1  0  0  0  0
 13 38  1  0  0  0  0
 14 15  1  0  0  0  0
 15 16  1  0  0  0  0
 15 39  1  0  0  0  0
 15 40  1  0  0  0  0
 16 41  1  0  0  0  0
 16 42  1  0  0  0  0
 17 18  1  0  0  0  0
 17 43  1  0  0  0  0
 18 23  1  0  0  0  0
 18 19  2  0  0  0  0
 19 20  1  0  0  0  0
 19 44  1  0  0  0  0
 20 21  2  0  0  0  0
 20 45  1  0  0  0  0
 21 22  1  0  0  0  0
 21 46  1  0  0  0  0
 22 23  2  0  0  0  0
 22 47  1  0  0  0  0
M  END
> <s_m_source_file>
AV-unprocessed.smi

> <i_m_source_file_index>
1933

> <i_lp_mmshare_version>
43012

> <i_f3d_flags>
0

> <s_epik_input>
bjFbY0hdW2NIXVtjSF1bY0hdYzFbTkhdQyg9TylbTkhdW0NIMl1bQ0BIXShbQ0BASF0yW0NIMl1bQ0gyXU9bQ0gyXTIpTjNbQ0gyXVtDSDJdT1tDSDJdW0NIMl0z

> <s_epik_cmdline>
J2VwaWtfcHl0aG9uJywgJy1waCcsICc3LjAnLCAnLXRuJywgJzgnLCAnLW1hJywgJzIwMCcsICctbWV0YWxfYmluZGluZycsICctaW1hZScsICc8aW5maWxlLm1hZT4nLCAnLW9tYWUnLCAnPG91dGZpbGUubWFlPic=

> <r_epik_Ionization_Penalty>
0.125062

> <r_epik_Ionization_Penalty_Charging>
0

> <r_epik_Ionization_Penalty_Neutral>
0.125062

> <r_epik_State_Penalty>
0.114484

> <r_epik_Charging_Adjusted_Penalty>
0.114484

> <i_epik_Tot_Q>
0

> <i_epik_Tot_abs_Q>
0

> <r_epik_Metal_State_Penalty>
0.114484

> <b_epik_Metal_Only>
0

> <s_lp_Force_Field>
OPLS_2005

> <r_lp_Energy>
60.0985

> <b_lp_Chiralities_Consistent>
1

> <s_lp_Variant>
AV-unprocessed.smi:1933-3

> <Gold.Version>
5.8.1

> <Gold.Id.Protein>
6NUR|6NUR_protein|mol2

> <Gold.PLP.Fitness>
42.6292

> <Gold.PLP.PLP>
-30.3203

> <Gold.PLP.part.hbond>
-4.0000

> <Gold.PLP.part.metal>
0.0000

> <Gold.PLP.part.buried>
-5.6213

> <Gold.PLP.part.nonpolar>
-22.1437

> <Gold.PLP.part.repulsive>
0.2560

> <Gold.PLP.ligand.clash>
0.0000

> <Gold.PLP.ligand.torsion>
1.1832

> <Gold.PLP.Chemscore.Hbond>
3.7920

> <Gold.PLP.Chemscore.CHOScore>
1.0000

> <Gold.PLP.Chemscore.Metal>
0.0000

> <Gold.Chemscore.Hbonds>
donor molecule, donor type, donor heavy atom, donor atom, acceptor molecule, acceptor atom, score
      L1  H     3    24       P1  7948  0.96
      L1  H    17    43       P1  7948  1.00
      P1  H  6934  6947       L1     9  0.80
      P1  H  7989  7998       L1    14  1.00
      L1  C    22    47       P1 10186  0.88

> <Gold.PLP.Chemscore.Internal.Correction>
0.2993

> <Gold.Rescore>
     Score         DG    S(hbond)    S(metal)    S(lipo)     H(rot)  DE(clash)    DE(int)     intcor
     18.15     -20.58       3.47        0.00      67.52       1.72       0.01       2.42       ----

> <Gold.Chemscore.Fitness>
18.1505

> <Gold.Chemscore.DG>
-20.5832

> <Gold.Chemscore.ZeroCoef>
-5.4800

> <Gold.Chemscore.Hbond>
3.4721

> <Gold.Chemscore.Metal>
0.0000

> <Gold.Chemscore.Lipo>
67.5170

> <Gold.Chemscore.Internal_Hbond>
0.0000

> <Gold.Chemscore.DEClash>
0.0106

> <Gold.Chemscore.DEInternal>
2.4221

> <Gold.Chemscore.Rot>
1.7161

> <Gold.Chemscore.Internal.Correction>
   9.000000E+99

> <Gold.Chemscore.Hbonds>
donor molecule, donor type, donor heavy atom, donor atom, acceptor molecule, acceptor atom, score
      L1  H     3    24       P1  7948  0.92
      L1  H    17    43       P1  7948  0.96
      P1  H  6934  6947       L1     9  0.34
      P1  H  7989  7998       L1    14  0.73

> <Gold.Chemscore.Hbond.Weighted>
-11.5970

> <Gold.Chemscore.Metal.Weighted>
-0.0000

> <Gold.Chemscore.Lipo.Weighted>
-7.8995

> <Gold.Chemscore.Internal_Hbond.Weighted>
0.0000

> <Gold.Chemscore.DEClash.Weighted>
0.0106

> <Gold.Chemscore.DEInternal.Weighted>
2.4221

> <Gold.Chemscore.Rot.Weighted>
4.3932

> <Gold.Chemscore.Internal.Correction.Weighted>
   9.000000E+99

> <Gold.Protein.RotatedTorsions>
[ 6907 6896 6895 6894 ] final   99.13 input  -60.11 | X-H torsion
[ 7974 7965 7964 7962 ] final   24.52 input  175.53 | X-H torsion
[ 8008 7997 7996 7995 ] final  148.47 input   59.86 | X-H torsion
[ 10167 10162 10161 10158 ] final  -47.09 input  -65.29 | X-H torsion
[ 10718 10713 10712 10709 ] final  143.95 input   66.30 | X-H torsion
[ 10763 10752 10751 10750 ] final  -13.74 input  -60.55 | X-H torsion
[ 11005 11000 10999 10996 ] final   45.12 input  -57.11 | X-H torsion

> <Gold.Protein.ActiveResidues>
 VAL166  LYS551  ARG553  GLY616  TRP617  ASP618  TYR619  PRO620  LYS621  CYS622 
 ASP623  PHE694  ASN695  SER759  ASP760  ASP761  ALA762  ILE779  LEU786  VAL792 
 PHE793  MET794  SER795  GLU796  ALA797  LYS798  CYS799  TRP800  GLU811  SER814 

> <Gold.Protein.RotatedAtoms>
  152.5397  134.0475  159.8094 H   0  0  0  0  0  0  0  0  0  0  0  0  # atno 6907 bound_to 6896
  151.0621  133.5527  159.2640 H   0  0  0  0  0  0  0  0  0  0  0  0  # atno 6908 bound_to 6896
  151.2422  135.0601  159.9083 H   0  0  0  0  0  0  0  0  0  0  0  0  # atno 6909 bound_to 6896
  146.1934  139.7594  142.8815 H   0  0  0  0  0  0  0  0  0  0  0  0  # atno 7974 bound_to 7965
  156.2790  140.2128  156.5704 H   0  0  0  0  0  0  0  0  0  0  0  0  # atno 8008 bound_to 7997
  154.7140  140.0509  157.0600 H   0  0  0  0  0  0  0  0  0  0  0  0  # atno 8009 bound_to 7997
  155.0567  140.3162  155.4677 H   0  0  0  0  0  0  0  0  0  0  0  0  # atno 8010 bound_to 7997
  140.6790  143.2800  151.3877 H   0  0  0  0  0  0  0  0  0  0  0  0  # atno 10167 bound_to 10162
  157.3629  131.0968  151.0899 H   0  0  0  0  0  0  0  0  0  0  0  0  # atno 10718 bound_to 10713
  153.5178  135.7016  153.5747 H   0  0  0  0  0  0  0  0  0  0  0  0  # atno 10763 bound_to 10752
  153.3810  135.3920  155.1856 H   0  0  0  0  0  0  0  0  0  0  0  0  # atno 10764 bound_to 10752
  154.8697  135.3835  154.4663 H   0  0  0  0  0  0  0  0  0  0  0  0  # atno 10765 bound_to 10752
  140.1489  134.4487  155.8396 H   0  0  0  0  0  0  0  0  0  0  0  0  # atno 11005 bound_to 11000
  145.3722  141.0344  143.3224 LP  0  0  0  0  0  0  0  0  0  0  0  0  # atno 17320 bound_to 7965
  144.8531  139.5292  143.6847 LP  0  0  0  0  0  0  0  0  0  0  0  0  # atno 17321 bound_to 7965
  139.6100  144.1119  152.2288 LP  0  0  0  0  0  0  0  0  0  0  0  0  # atno 17342 bound_to 10162
  140.0530  144.5918  150.7321 LP  0  0  0  0  0  0  0  0  0  0  0  0  # atno 17343 bound_to 10162
  157.2032  130.6404  149.5746 LP  0  0  0  0  0  0  0  0  0  0  0  0  # atno 17370 bound_to 10713
  155.9741  130.4684  150.6359 LP  0  0  0  0  0  0  0  0  0  0  0  0  # atno 17371 bound_to 10713
  141.2196  133.6864  156.7385 LP  0  0  0  0  0  0  0  0  0  0  0  0  # atno 17394 bound_to 11000
  140.2629  134.8452  157.3776 LP  0  0  0  0  0  0  0  0  0  0  0  0  # atno 17395 bound_to 11000

$$$$
