AV-unprocessed.smi:2693|AV-procd|sdf|10397|dock4
  -GOLD-   2272014433D 1   1.00000     0.00000
 Structure written by MMmdl.
 45 47  0  0  0  0  0  0  0  0  1 V2000
  150.1450  128.4652  154.8046 C   0  0  0  0  0  0  0  0  0  0  0  0
  149.1535  129.1896  154.0152 N   0  0  0  0  0  0  0  0  0  0  0  0
  148.2329  128.4017  153.2006 C   0  0  0  0  0  0  0  0  0  0  0  0
  149.0909  130.5860  154.0344 C   0  0  0  0  0  0  0  0  0  0  0  0
  149.9006  131.2284  154.8866 N   0  0  0  0  0  0  0  0  0  0  0  0
  149.8449  132.5766  154.9068 C   0  0  0  0  0  0  0  0  0  0  0  0
  148.9676  133.3006  154.0750 C   0  0  0  0  0  0  0  0  0  0  0  0
  148.9746  134.7197  154.1349 N   0  0  0  0  0  0  0  0  0  0  0  0
  149.2418  135.5077  155.1895 C   0  0  0  0  0  0  0  0  0  0  0  0
  149.5785  135.1147  156.3059 O   0  0  0  0  0  0  0  0  0  0  0  0
  149.1221  136.8022  154.8682 N   0  0  0  0  0  0  0  0  0  0  0  0
  149.3734  137.9147  155.7905 C   0  0  2  0  0  0  0  0  0  0  0  0
  148.5579  139.1627  155.4442 C   0  0  2  0  0  0  0  0  0  0  0  0
  147.3516  139.4539  154.6268 C   0  0  0  0  0  0  0  0  0  0  0  0
  147.8696  140.7676  153.9807 C   0  0  0  0  0  0  0  0  0  0  0  0
  149.2789  140.8500  154.3164 O   0  0  0  0  0  0  0  0  0  0  0  0
  149.6710  139.5008  154.4739 C   0  0  1  0  0  0  0  0  0  0  0  0
  150.6380  138.8017  155.4557 C   0  0  0  0  0  0  0  0  0  0  0  0
  151.2218  139.6557  156.5956 C   0  0  0  0  0  0  0  0  0  0  0  0
  151.8349  138.0947  154.8098 C   0  0  0  0  0  0  0  0  0  0  0  0
  148.1625  132.5248  153.2074 C   0  0  0  0  0  0  0  0  0  0  0  0
  148.2297  131.1764  153.1954 N   0  0  0  0  0  0  0  0  0  0  0  0
  151.1494  128.6799  154.4394 H   0  0  0  0  0  0  0  0  0  0  0  0
  149.9941  127.3868  154.7568 H   0  0  0  0  0  0  0  0  0  0  0  0
  150.0887  128.7593  155.8531 H   0  0  0  0  0  0  0  0  0  0  0  0
  148.2620  128.7318  152.1617 H   0  0  0  0  0  0  0  0  0  0  0  0
  147.2126  128.5120  153.5686 H   0  0  0  0  0  0  0  0  0  0  0  0
  148.4829  127.3408  153.2154 H   0  0  0  0  0  0  0  0  0  0  0  0
  150.5069  133.0799  155.5960 H   0  0  0  0  0  0  0  0  0  0  0  0
  148.7921  135.1914  153.2611 H   0  0  0  0  0  0  0  0  0  0  0  0
  148.8463  137.0401  153.9269 H   0  0  0  0  0  0  0  0  0  0  0  0
  149.3015  137.6427  156.8450 H   0  0  0  0  0  0  0  0  0  0  0  0
  148.5471  139.8162  156.3199 H   0  0  0  0  0  0  0  0  0  0  0  0
  147.1586  138.6797  153.8832 H   0  0  0  0  0  0  0  0  0  0  0  0
  146.4558  139.6060  155.2293 H   0  0  0  0  0  0  0  0  0  0  0  0
  147.7374  140.7459  152.8982 H   0  0  0  0  0  0  0  0  0  0  0  0
  147.3502  141.6446  154.3678 H   0  0  0  0  0  0  0  0  0  0  0  0
  149.6054  138.9727  153.5169 H   0  0  0  0  0  0  0  0  0  0  0  0
  151.8992  140.4182  156.2098 H   0  0  0  0  0  0  0  0  0  0  0  0
  151.7890  139.0428  157.2971 H   0  0  0  0  0  0  0  0  0  0  0  0
  150.4664  140.1769  157.1809 H   0  0  0  0  0  0  0  0  0  0  0  0
  152.6111  138.8034  154.5190 H   0  0  0  0  0  0  0  0  0  0  0  0
  151.5527  137.5527  153.9070 H   0  0  0  0  0  0  0  0  0  0  0  0
  152.2854  137.3727  155.4915 H   0  0  0  0  0  0  0  0  0  0  0  0
  147.4743  132.9611  152.5007 H   0  0  0  0  0  0  0  0  0  0  0  0
  1  2  1  0  0  0  0
  1 23  1  0  0  0  0
  1 24  1  0  0  0  0
  1 25  1  0  0  0  0
  2  3  1  0  0  0  0
  2  4  1  0  0  0  0
  3 26  1  0  0  0  0
  3 27  1  0  0  0  0
  3 28  1  0  0  0  0
  4 22  1  0  0  0  0
  4  5  2  0  0  0  0
  5  6  1  0  0  0  0
  6  7  2  0  0  0  0
  6 29  1  0  0  0  0
  7  8  1  0  0  0  0
  7 21  1  0  0  0  0
  8  9  1  0  0  0  0
  8 30  1  0  0  0  0
  9 10  2  0  0  0  0
  9 11  1  0  0  0  0
 11 12  1  0  0  0  0
 11 31  1  0  0  0  0
 12 18  1  0  0  0  0
 12 13  1  0  0  0  0
 12 32  1  0  0  0  0
 13 17  1  0  0  0  0
 13 14  1  0  0  0  0
 13 33  1  0  0  0  0
 14 15  1  0  0  0  0
 14 34  1  0  0  0  0
 14 35  1  0  0  0  0
 15 16  1  0  0  0  0
 15 36  1  0  0  0  0
 15 37  1  0  0  0  0
 16 17  1  0  0  0  0
 17 18  1  0  0  0  0
 17 38  1  0  0  0  0
 18 19  1  0  0  0  0
 18 20  1  0  0  0  0
 19 39  1  0  0  0  0
 19 40  1  0  0  0  0
 19 41  1  0  0  0  0
 20 42  1  0  0  0  0
 20 43  1  0  0  0  0
 20 44  1  0  0  0  0
 21 22  2  0  0  0  0
 21 45  1  0  0  0  0
M  END
> <s_m_source_file>
AV-unprocessed.smi

> <i_m_source_file_index>
2693

> <i_lp_mmshare_version>
43012

> <i_f3d_flags>
0

> <s_epik_input>
W0NIM11OKFtDSDNdKWMxbltjSF1jKFtjSF1uMSlbTkhdQyg9TylbTkhdW0NASF0yQyhbQ0gzXSkoW0NIM10pW0NAQEhdKFtDQEhdMjMpT1tDSDJdW0NIMl0z

> <s_epik_cmdline>
J2VwaWtfcHl0aG9uJywgJy1waCcsICc3LjAnLCAnLXRuJywgJzgnLCAnLW1hJywgJzIwMCcsICctbWV0YWxfYmluZGluZycsICctaW1hZScsICc8aW5maWxlLm1hZT4nLCAnLW9tYWUnLCAnPG91dGZpbGUubWFlPic=

> <r_lp_tautomer_probability>
1

> <r_epik_Ionization_Penalty>
0.00031779

> <r_epik_Ionization_Penalty_Charging>
0

> <r_epik_Ionization_Penalty_Neutral>
0.00031779

> <r_epik_State_Penalty>
-0

> <r_epik_Charging_Adjusted_Penalty>
0

> <i_epik_Tot_Q>
0

> <i_epik_Tot_abs_Q>
0

> <r_epik_Metal_State_Penalty>
-0

> <b_epik_Metal_Only>
0

> <s_lp_Force_Field>
OPLS_2005

> <r_lp_Energy>
57.3168

> <b_lp_Chiralities_Consistent>
1

> <s_lp_Variant>
AV-unprocessed.smi:2693-1

> <Gold.Version>
5.8.1

> <Gold.Id.Protein>
6NUR|6NUR_protein|mol2

> <Gold.PLP.Fitness>
39.7485

> <Gold.PLP.PLP>
-34.4988

> <Gold.PLP.part.hbond>
-3.4356

> <Gold.PLP.part.metal>
0.0000

> <Gold.PLP.part.buried>
-2.4752

> <Gold.PLP.part.nonpolar>
-29.1878

> <Gold.PLP.part.repulsive>
2.0872

> <Gold.PLP.ligand.clash>
0.0000

> <Gold.PLP.ligand.torsion>
0.4193

> <Gold.PLP.Chemscore.Hbond>
1.9417

> <Gold.PLP.Chemscore.CHOScore>
0.0000

> <Gold.PLP.Chemscore.Metal>
0.0000

> <Gold.Chemscore.Hbonds>
donor molecule, donor type, donor heavy atom, donor atom, acceptor molecule, acceptor atom, score
      L1  H     8    30       P1  7948  1.00
      L1  H    11    31       P1  7948  0.44

> <Gold.PLP.Chemscore.Internal.Correction>
0.2633

> <Gold.Rescore>
     Score         DG    S(hbond)    S(metal)    S(lipo)     H(rot)  DE(clash)    DE(int)     intcor
     14.37     -16.05       1.58        0.00      67.21       1.00       0.13       1.55       ----

> <Gold.Chemscore.Fitness>
14.3660

> <Gold.Chemscore.DG>
-16.0468

> <Gold.Chemscore.ZeroCoef>
-5.4800

> <Gold.Chemscore.Hbond>
1.5757

> <Gold.Chemscore.Metal>
0.0000

> <Gold.Chemscore.Lipo>
67.2144

> <Gold.Chemscore.Internal_Hbond>
0.0000

> <Gold.Chemscore.DEClash>
0.1308

> <Gold.Chemscore.DEInternal>
1.5500

> <Gold.Chemscore.Rot>
1.0000

> <Gold.Chemscore.Internal.Correction>
   9.000000E+99

> <Gold.Chemscore.Hbonds>
donor molecule, donor type, donor heavy atom, donor atom, acceptor molecule, acceptor atom, score
      L1  H     8    30       P1  7948  0.60
      L1  H    11    31       P1  7948  0.45

> <Gold.Chemscore.Hbond.Weighted>
-5.2627

> <Gold.Chemscore.Metal.Weighted>
-0.0000

> <Gold.Chemscore.Lipo.Weighted>
-7.8641

> <Gold.Chemscore.Internal_Hbond.Weighted>
0.0000

> <Gold.Chemscore.DEClash.Weighted>
0.1308

> <Gold.Chemscore.DEInternal.Weighted>
1.5500

> <Gold.Chemscore.Rot.Weighted>
2.5600

> <Gold.Chemscore.Internal.Correction.Weighted>
   9.000000E+99

> <Gold.Protein.RotatedTorsions>
[ 6907 6896 6895 6894 ] final  148.31 input  -60.11 | X-H torsion
[ 7974 7965 7964 7962 ] final   50.18 input  175.53 | X-H torsion
[ 8008 7997 7996 7995 ] final -151.90 input   59.86 | X-H torsion
[ 10167 10162 10161 10158 ] final  -44.76 input  -65.29 | X-H torsion
[ 10718 10713 10712 10709 ] final  178.87 input   66.30 | X-H torsion
[ 10763 10752 10751 10750 ] final  151.64 input  -60.55 | X-H torsion
[ 11005 11000 10999 10996 ] final   15.56 input  -57.11 | X-H torsion

> <Gold.Protein.ActiveResidues>
 VAL166  LYS551  ARG553  GLY616  TRP617  ASP618  TYR619  PRO620  LYS621  CYS622 
 ASP623  PHE694  ASN695  SER759  ASP760  ASP761  ALA762  ILE779  LEU786  VAL792 
 PHE793  MET794  SER795  GLU796  ALA797  LYS798  CYS799  TRP800  GLU811  SER814 

> <Gold.Protein.RotatedAtoms>
  152.1432  133.4476  159.4776 H   0  0  0  0  0  0  0  0  0  0  0  0  # atno 6907 bound_to 6896
  150.6888  134.2280  159.4432 H   0  0  0  0  0  0  0  0  0  0  0  0  # atno 6908 bound_to 6896
  152.0172  134.9843  160.0620 H   0  0  0  0  0  0  0  0  0  0  0  0  # atno 6909 bound_to 6896
  146.0036  139.4466  142.9999 H   0  0  0  0  0  0  0  0  0  0  0  0  # atno 7974 bound_to 7965
  155.6468  140.0707  157.2600 H   0  0  0  0  0  0  0  0  0  0  0  0  # atno 8008 bound_to 7997
  154.4171  140.1740  156.1681 H   0  0  0  0  0  0  0  0  0  0  0  0  # atno 8009 bound_to 7997
  155.9810  140.3353  155.6666 H   0  0  0  0  0  0  0  0  0  0  0  0  # atno 8010 bound_to 7997
  140.6884  143.2914  151.3541 H   0  0  0  0  0  0  0  0  0  0  0  0  # atno 10167 bound_to 10162
  156.8841  130.9825  151.3058 H   0  0  0  0  0  0  0  0  0  0  0  0  # atno 10718 bound_to 10713
  154.1071  135.2841  155.3239 H   0  0  0  0  0  0  0  0  0  0  0  0  # atno 10763 bound_to 10752
  154.6515  135.5367  153.7911 H   0  0  0  0  0  0  0  0  0  0  0  0  # atno 10764 bound_to 10752
  153.0358  135.6511  154.1232 H   0  0  0  0  0  0  0  0  0  0  0  0  # atno 10765 bound_to 10752
  140.4570  134.1166  155.7710 H   0  0  0  0  0  0  0  0  0  0  0  0  # atno 11005 bound_to 11000
  145.7449  140.9994  143.1281 LP  0  0  0  0  0  0  0  0  0  0  0  0  # atno 17320 bound_to 7965
  144.6928  139.9144  143.7465 LP  0  0  0  0  0  0  0  0  0  0  0  0  # atno 17321 bound_to 7965
  139.6264  144.0806  152.2438 LP  0  0  0  0  0  0  0  0  0  0  0  0  # atno 17342 bound_to 10162
  140.0267  144.6112  150.7522 LP  0  0  0  0  0  0  0  0  0  0  0  0  # atno 17343 bound_to 10162
  157.6123  130.8592  149.8971 LP  0  0  0  0  0  0  0  0  0  0  0  0  # atno 17370 bound_to 10713
  156.0662  130.3692  150.0873 LP  0  0  0  0  0  0  0  0  0  0  0  0  # atno 17371 bound_to 10713
  141.1638  133.8741  157.1772 LP  0  0  0  0  0  0  0  0  0  0  0  0  # atno 17394 bound_to 11000
  139.9970  135.0043  157.0104 LP  0  0  0  0  0  0  0  0  0  0  0  0  # atno 17395 bound_to 11000

$$$$
