AV-unprocessed.smi:119|AV-procd|sdf|1134|dock3
  -GOLD-   2262018263D 1   1.00000     0.00000
 Structure written by MMmdl.
 51 54  0  0  0  0  0  0  0  0  1 V2000
  152.6341  138.5011  155.6832 C   0  0  0  0  0  0  0  0  0  0  0  0
  152.1649  139.8990  156.1068 C   0  0  1  0  0  0  0  0  0  0  0  0
  150.8134  140.2507  155.4525 C   0  0  0  0  0  0  0  0  0  0  0  0
  150.3831  141.7204  155.6168 C   0  0  0  0  0  0  0  0  0  0  0  0
  150.0071  142.0374  156.9983 N   0  0  0  0  0  0  0  0  0  0  0  0
  148.7618  141.7624  157.4621 C   0  0  0  0  0  0  0  0  0  0  0  0
  148.4463  141.9461  158.6401 O   0  0  0  0  0  0  0  0  0  0  0  0
  147.7025  141.2120  156.4795 C   0  0  0  0  0  0  0  0  0  0  0  0
  146.7172  142.2292  156.0520 N   0  0  0  0  0  0  0  0  0  0  0  0
  146.5851  142.5191  154.6714 C   0  0  0  0  0  0  0  0  0  0  0  0
  147.2848  141.9539  153.8297 O   0  0  0  0  0  0  0  0  0  0  0  0
  145.5690  143.5086  154.3305 C   0  0  0  0  0  0  0  0  0  0  0  0
  145.3692  143.8415  153.0440 F   0  0  0  0  0  0  0  0  0  0  0  0
  144.8192  144.0930  155.2876 C   0  0  0  0  0  0  0  0  0  0  0  0
  144.9615  143.8020  156.6321 N   0  0  0  0  0  0  0  0  0  0  0  0
  144.0914  144.4618  157.6795 C   0  0  2  0  0  0  0  0  0  0  0  0
  143.1323  145.4591  157.0197 C   0  0  0  0  0  0  0  0  0  0  0  0
  143.9046  146.7552  157.1347 C   0  0  0  0  0  0  0  0  0  0  0  0
  144.6108  146.5738  158.4736 C   0  0  0  0  0  0  0  0  0  0  0  0
  144.9032  145.1812  158.5634 O   0  0  0  0  0  0  0  0  0  0  0  0
  145.9142  142.8449  157.0421 C   0  0  0  0  0  0  0  0  0  0  0  0
  146.0335  142.5444  158.2324 O   0  0  0  0  0  0  0  0  0  0  0  0
  151.0291  142.5567  157.8339 C   0  0  0  0  0  0  0  0  0  0  0  0
  151.0203  143.9268  158.1766 C   0  0  0  0  0  0  0  0  0  0  0  0
  152.0273  144.4544  159.0073 C   0  0  0  0  0  0  0  0  0  0  0  0
  153.0463  143.6160  159.4983 C   0  0  0  0  0  0  0  0  0  0  0  0
  153.0617  142.2503  159.1555 C   0  0  0  0  0  0  0  0  0  0  0  0
  152.0611  141.7184  158.3183 C   0  0  0  0  0  0  0  0  0  0  0  0
  152.1085  139.9964  157.9215 S   0  0  0  0  0  0  0  0  0  0  0  0
  152.7405  138.4323  154.6004 H   0  0  0  0  0  0  0  0  0  0  0  0
  151.9264  137.7339  155.9988 H   0  0  0  0  0  0  0  0  0  0  0  0
  153.6025  138.2627  156.1240 H   0  0  0  0  0  0  0  0  0  0  0  0
  152.9151  140.6155  155.7702 H   0  0  0  0  0  0  0  0  0  0  0  0
  150.8871  140.0491  154.3833 H   0  0  0  0  0  0  0  0  0  0  0  0
  150.0334  139.5842  155.8235 H   0  0  0  0  0  0  0  0  0  0  0  0
  151.1933  142.3779  155.2979 H   0  0  0  0  0  0  0  0  0  0  0  0
  149.5564  141.9407  154.9392 H   0  0  0  0  0  0  0  0  0  0  0  0
  148.1925  140.7965  155.5976 H   0  0  0  0  0  0  0  0  0  0  0  0
  147.2139  140.3545  156.9436 H   0  0  0  0  0  0  0  0  0  0  0  0
  144.0764  144.8115  154.9748 H   0  0  0  0  0  0  0  0  0  0  0  0
  143.5921  143.6523  158.2146 H   0  0  0  0  0  0  0  0  0  0  0  0
  142.8786  145.1807  155.9958 H   0  0  0  0  0  0  0  0  0  0  0  0
  142.2168  145.5051  157.6111 H   0  0  0  0  0  0  0  0  0  0  0  0
  144.6344  146.8320  156.3279 H   0  0  0  0  0  0  0  0  0  0  0  0
  143.2670  147.6390  157.1042 H   0  0  0  0  0  0  0  0  0  0  0  0
  145.5142  147.1784  158.5575 H   0  0  0  0  0  0  0  0  0  0  0  0
  143.9440  146.8433  159.2938 H   0  0  0  0  0  0  0  0  0  0  0  0
  150.2401  144.5749  157.8043 H   0  0  0  0  0  0  0  0  0  0  0  0
  152.0174  145.5021  159.2691 H   0  0  0  0  0  0  0  0  0  0  0  0
  153.8172  144.0200  160.1378 H   0  0  0  0  0  0  0  0  0  0  0  0
  153.8459  141.6122  159.5357 H   0  0  0  0  0  0  0  0  0  0  0  0
  1  2  1  0  0  0  0
  1 30  1  0  0  0  0
  1 31  1  0  0  0  0
  1 32  1  0  0  0  0
  2 29  1  0  0  0  0
  2  3  1  0  0  0  0
  2 33  1  0  0  0  0
  3  4  1  0  0  0  0
  3 34  1  0  0  0  0
  3 35  1  0  0  0  0
  4  5  1  0  0  0  0
  4 36  1  0  0  0  0
  4 37  1  0  0  0  0
  5  6  1  0  0  0  0
  5 23  1  0  0  0  0
  6  7  2  0  0  0  0
  6  8  1  0  0  0  0
  8  9  1  0  0  0  0
  8 38  1  0  0  0  0
  8 39  1  0  0  0  0
  9 21  1  0  0  0  0
  9 10  1  0  0  0  0
 10 11  2  0  0  0  0
 10 12  1  0  0  0  0
 12 13  1  0  0  0  0
 12 14  2  0  0  0  0
 14 15  1  0  0  0  0
 14 40  1  0  0  0  0
 15 16  1  0  0  0  0
 15 21  1  0  0  0  0
 16 20  1  0  0  0  0
 16 17  1  0  0  0  0
 16 41  1  0  0  0  0
 17 18  1  0  0  0  0
 17 42  1  0  0  0  0
 17 43  1  0  0  0  0
 18 19  1  0  0  0  0
 18 44  1  0  0  0  0
 18 45  1  0  0  0  0
 19 20  1  0  0  0  0
 19 46  1  0  0  0  0
 19 47  1  0  0  0  0
 21 22  2  0  0  0  0
 23 28  2  0  0  0  0
 23 24  1  0  0  0  0
 24 25  2  0  0  0  0
 24 48  1  0  0  0  0
 25 26  1  0  0  0  0
 25 49  1  0  0  0  0
 26 27  2  0  0  0  0
 26 50  1  0  0  0  0
 27 28  1  0  0  0  0
 27 51  1  0  0  0  0
 28 29  1  0  0  0  0
M  END
> <s_m_source_file>
AV-unprocessed.smi

> <i_m_source_file_index>
119

> <i_lp_mmshare_version>
43012

> <i_f3d_flags>
0

> <s_epik_input>
W2NIXTFbY0hdW2NIXVtjSF1jKGMxMilTW0NASF0oW0NIM10pW0NIMl1bQ0gyXU4yQyg9TylbQ0gyXW4zYyg9TyljKEYpW2NIXW4oYzM9TylbQ0BASF00W0NIMl1bQ0gyXVtDSDJdTzQ=

> <s_epik_cmdline>
J2VwaWtfcHl0aG9uJywgJy1waCcsICc3LjAnLCAnLXRuJywgJzgnLCAnLW1hJywgJzIwMCcsICctbWV0YWxfYmluZGluZycsICctaW1hZScsICc8aW5maWxlLm1hZT4nLCAnLW9tYWUnLCAnPG91dGZpbGUubWFlPic=

> <r_lp_tautomer_probability>
1

> <r_epik_Ionization_Penalty>
1.68882e-06

> <r_epik_Ionization_Penalty_Charging>
3.67303e-09

> <r_epik_Ionization_Penalty_Neutral>
1.68515e-06

> <r_epik_State_Penalty>
-0

> <r_epik_Charging_Adjusted_Penalty>
3.67303e-09

> <i_epik_Tot_Q>
0

> <i_epik_Tot_abs_Q>
0

> <r_epik_Metal_State_Penalty>
-0

> <b_epik_Metal_Only>
0

> <s_epik_Chemistry_Notes>
This compound contains an acetal/aminal-like group ( X-CH(R)-Y where X, Y are N, S, or O) that may be acid/base labile, releasing an aldehyde.

> <s_lp_Force_Field>
OPLS_2005

> <r_lp_Energy>
49.252

> <b_lp_Chiralities_Consistent>
1

> <s_lp_Variant>
AV-unprocessed.smi:119-2

> <Gold.Version>
5.8.1

> <Gold.Id.Protein>
6NUR|6NUR_protein|mol2

> <Gold.PLP.Fitness>
52.2531

> <Gold.PLP.PLP>
-52.6909

> <Gold.PLP.part.hbond>
-0.9467

> <Gold.PLP.part.metal>
0.0000

> <Gold.PLP.part.buried>
-4.4851

> <Gold.PLP.part.nonpolar>
-46.0152

> <Gold.PLP.part.repulsive>
0.4684

> <Gold.PLP.ligand.clash>
0.0000

> <Gold.PLP.ligand.torsion>
0.2305

> <Gold.PLP.Chemscore.Hbond>
0.0000

> <Gold.PLP.Chemscore.CHOScore>
0.0000

> <Gold.PLP.Chemscore.Metal>
0.0000

> <Gold.PLP.Chemscore.Internal.Correction>
0.0231

> <Gold.Rescore>
     Score         DG    S(hbond)    S(metal)    S(lipo)     H(rot)  DE(clash)    DE(int)     intcor
     13.33     -16.17       0.00        0.00     124.80       1.53       0.06       2.78       ----

> <Gold.Chemscore.Fitness>
13.3308

> <Gold.Chemscore.DG>
-16.1737

> <Gold.Chemscore.ZeroCoef>
-5.4800

> <Gold.Chemscore.Hbond>
0.0000

> <Gold.Chemscore.Metal>
0.0000

> <Gold.Chemscore.Lipo>
124.8019

> <Gold.Chemscore.Internal_Hbond>
0.0000

> <Gold.Chemscore.DEClash>
0.0640

> <Gold.Chemscore.DEInternal>
2.7790

> <Gold.Chemscore.Rot>
1.5266

> <Gold.Chemscore.Internal.Correction>
   9.000000E+99

> <Gold.Chemscore.Hbond.Weighted>
-0.0000

> <Gold.Chemscore.Metal.Weighted>
-0.0000

> <Gold.Chemscore.Lipo.Weighted>
-14.6018

> <Gold.Chemscore.Internal_Hbond.Weighted>
0.0000

> <Gold.Chemscore.DEClash.Weighted>
0.0640

> <Gold.Chemscore.DEInternal.Weighted>
2.7790

> <Gold.Chemscore.Rot.Weighted>
3.9081

> <Gold.Chemscore.Internal.Correction.Weighted>
   9.000000E+99

> <Gold.Protein.RotatedTorsions>
[ 6907 6896 6895 6894 ] final  172.68 input  -60.11 | X-H torsion
[ 7974 7965 7964 7962 ] final -121.07 input  175.53 | X-H torsion
[ 8008 7997 7996 7995 ] final   -5.55 input   59.86 | X-H torsion
[ 10167 10162 10161 10158 ] final  -82.83 input  -65.29 | X-H torsion
[ 10718 10713 10712 10709 ] final  -24.02 input   66.30 | X-H torsion
[ 10763 10752 10751 10750 ] final   26.75 input  -60.55 | X-H torsion
[ 11005 11000 10999 10996 ] final   65.49 input  -57.11 | X-H torsion

> <Gold.Protein.ActiveResidues>
 VAL166  LYS551  ARG553  GLY616  TRP617  ASP618  TYR619  PRO620  LYS621  CYS622 
 ASP623  PHE694  ASN695  SER759  ASP760  ASP761  ALA762  ILE779  LEU786  VAL792 
 PHE793  MET794  SER795  GLU796  ALA797  LYS798  CYS799  TRP800  GLU811  SER814 

> <Gold.Protein.RotatedAtoms>
  151.7804  133.3349  159.3469 H   0  0  0  0  0  0  0  0  0  0  0  0  # atno 6907 bound_to 6896
  150.7428  134.5936  159.6010 H   0  0  0  0  0  0  0  0  0  0  0  0  # atno 6908 bound_to 6896
  152.3280  134.7297  160.0348 H   0  0  0  0  0  0  0  0  0  0  0  0  # atno 6909 bound_to 6896
  145.0444  140.8169  143.4247 H   0  0  0  0  0  0  0  0  0  0  0  0  # atno 7974 bound_to 7965
  154.6028  140.2455  155.7770 H   0  0  0  0  0  0  0  0  0  0  0  0  # atno 8008 bound_to 7997
  156.2322  140.2963  156.0169 H   0  0  0  0  0  0  0  0  0  0  0  0  # atno 8009 bound_to 7997
  155.2182  140.0399  157.2934 H   0  0  0  0  0  0  0  0  0  0  0  0  # atno 8010 bound_to 7997
  140.4283  143.2558  151.8794 H   0  0  0  0  0  0  0  0  0  0  0  0  # atno 10167 bound_to 10162
  156.4832  130.4550  149.6799 H   0  0  0  0  0  0  0  0  0  0  0  0  # atno 10718 bound_to 10713
  153.0601  135.6553  154.0482 H   0  0  0  0  0  0  0  0  0  0  0  0  # atno 10763 bound_to 10752
  154.0152  135.2925  155.3389 H   0  0  0  0  0  0  0  0  0  0  0  0  # atno 10764 bound_to 10752
  154.6936  135.5273  153.8494 H   0  0  0  0  0  0  0  0  0  0  0  0  # atno 10765 bound_to 10752
  139.9891  134.6620  156.0122 H   0  0  0  0  0  0  0  0  0  0  0  0  # atno 11005 bound_to 11000
  145.1607  139.2460  143.5393 LP  0  0  0  0  0  0  0  0  0  0  0  0  # atno 17320 bound_to 7965
  146.3512  140.1333  142.8596 LP  0  0  0  0  0  0  0  0  0  0  0  0  # atno 17321 bound_to 7965
  139.4784  144.5362  151.8595 LP  0  0  0  0  0  0  0  0  0  0  0  0  # atno 17342 bound_to 10162
  140.4456  144.1927  150.5894 LP  0  0  0  0  0  0  0  0  0  0  0  0  # atno 17343 bound_to 10162
  156.3501  130.7427  151.2385 LP  0  0  0  0  0  0  0  0  0  0  0  0  # atno 17370 bound_to 10713
  157.7481  131.0379  150.4480 LP  0  0  0  0  0  0  0  0  0  0  0  0  # atno 17371 bound_to 10713
  141.1551  133.6544  156.4135 LP  0  0  0  0  0  0  0  0  0  0  0  0  # atno 17394 bound_to 11000
  140.4943  134.6546  157.5223 LP  0  0  0  0  0  0  0  0  0  0  0  0  # atno 17395 bound_to 11000

$$$$
