AV-unprocessed.smi:2478|AV-procd|sdf|9765|dock5
  -GOLD-   2272013403D 1   1.00000     0.00000
 Structure written by MMmdl.
 42 43  0  0  0  0  0  0  0  0  1 V2000
  153.2161  142.0141  161.1793 C   0  0  0  0  0  0  0  0  0  0  0  0
  152.9613  143.3243  160.4178 C   0  0  2  0  0  0  0  0  0  0  0  0
  151.7544  144.0930  160.9926 C   0  0  0  0  0  0  0  0  0  0  0  0
  151.5236  145.4184  160.2494 C   0  0  0  0  0  0  0  0  0  0  0  0
  151.3552  145.1892  158.7399 C   0  0  0  0  0  0  0  0  0  0  0  0
  152.5528  144.4215  158.1546 C   0  0  0  0  0  0  0  0  0  0  0  0
  152.8036  143.0960  158.8970 C   0  0  2  0  0  0  0  0  0  0  0  0
  151.6883  142.2458  158.6644 O   0  0  0  0  0  0  0  0  0  0  0  0
  151.9420  141.1655  157.7768 C   0  0  0  0  0  0  0  0  0  0  0  0
  150.6270  140.7181  157.1368 C   0  0  0  0  0  0  0  0  0  0  0  0
  149.8689  139.9819  157.7679 O   0  0  0  0  0  0  0  0  0  0  0  0
  150.3855  141.1896  155.8994 N   0  0  0  0  0  0  0  0  0  0  0  0
  149.2737  140.9439  155.0511 C   0  0  0  0  0  0  0  0  0  0  0  0
  148.5280  141.9330  154.4988 N   0  0  0  0  0  0  0  0  0  0  0  0
  147.4886  141.6093  153.7031 C   0  0  0  0  0  0  0  0  0  0  0  0
  147.1317  140.2822  153.4071 C   0  0  0  0  0  0  0  0  0  0  0  0
  147.8972  139.2478  153.9727 C   0  0  0  0  0  0  0  0  0  0  0  0
  148.9843  139.5765  154.8164 C   0  0  0  0  0  0  0  0  0  0  0  0
  149.7817  138.6099  155.3887 O   0  0  0  0  0  0  0  0  0  0  0  0
  150.6532  137.9301  154.5979 C   0  0  0  0  0  0  0  0  0  0  0  0
  151.7991  138.6366  154.4397 F   0  0  0  0  0  0  0  0  0  0  0  0
  150.9743  136.7489  155.1787 F   0  0  0  0  0  0  0  0  0  0  0  0
  152.3627  141.3388  161.1090 H   0  0  0  0  0  0  0  0  0  0  0  0
  153.3996  142.2056  162.2368 H   0  0  0  0  0  0  0  0  0  0  0  0
  154.0878  141.4926  160.7831 H   0  0  0  0  0  0  0  0  0  0  0  0
  153.8440  143.9494  160.5611 H   0  0  0  0  0  0  0  0  0  0  0  0
  150.8566  143.4769  160.9264 H   0  0  0  0  0  0  0  0  0  0  0  0
  151.9107  144.2936  162.0530 H   0  0  0  0  0  0  0  0  0  0  0  0
  150.6418  145.9197  160.6496 H   0  0  0  0  0  0  0  0  0  0  0  0
  152.3667  146.0876  160.4249 H   0  0  0  0  0  0  0  0  0  0  0  0
  150.4351  144.6329  158.5560 H   0  0  0  0  0  0  0  0  0  0  0  0
  151.2425  146.1460  158.2294 H   0  0  0  0  0  0  0  0  0  0  0  0
  152.3890  144.2296  157.0937 H   0  0  0  0  0  0  0  0  0  0  0  0
  153.4453  145.0452  158.2193 H   0  0  0  0  0  0  0  0  0  0  0  0
  153.7223  142.6521  158.5077 H   0  0  0  0  0  0  0  0  0  0  0  0
  152.6459  141.4730  157.0019 H   0  0  0  0  0  0  0  0  0  0  0  0
  152.3766  140.3215  158.3143 H   0  0  0  0  0  0  0  0  0  0  0  0
  151.1056  141.7786  155.5063 H   0  0  0  0  0  0  0  0  0  0  0  0
  146.9264  142.4327  153.2883 H   0  0  0  0  0  0  0  0  0  0  0  0
  146.2945  140.0638  152.7610 H   0  0  0  0  0  0  0  0  0  0  0  0
  147.6505  138.2195  153.7543 H   0  0  0  0  0  0  0  0  0  0  0  0
  150.2250  137.7153  153.6182 H   0  0  0  0  0  0  0  0  0  0  0  0
  1  2  1  0  0  0  0
  1 23  1  0  0  0  0
  1 24  1  0  0  0  0
  1 25  1  0  0  0  0
  2  7  1  0  0  0  0
  2  3  1  0  0  0  0
  2 26  1  0  0  0  0
  3  4  1  0  0  0  0
  3 27  1  0  0  0  0
  3 28  1  0  0  0  0
  4  5  1  0  0  0  0
  4 29  1  0  0  0  0
  4 30  1  0  0  0  0
  5  6  1  0  0  0  0
  5 31  1  0  0  0  0
  5 32  1  0  0  0  0
  6  7  1  0  0  0  0
  6 33  1  0  0  0  0
  6 34  1  0  0  0  0
  7  8  1  0  0  0  0
  7 35  1  0  0  0  0
  8  9  1  0  0  0  0
  9 10  1  0  0  0  0
  9 36  1  0  0  0  0
  9 37  1  0  0  0  0
 10 11  2  0  0  0  0
 10 12  1  0  0  0  0
 12 13  1  0  0  0  0
 12 38  1  0  0  0  0
 13 18  1  0  0  0  0
 13 14  2  0  0  0  0
 14 15  1  0  0  0  0
 15 16  2  0  0  0  0
 15 39  1  0  0  0  0
 16 17  1  0  0  0  0
 16 40  1  0  0  0  0
 17 18  2  0  0  0  0
 17 41  1  0  0  0  0
 18 19  1  0  0  0  0
 19 20  1  0  0  0  0
 20 21  1  0  0  0  0
 20 22  1  0  0  0  0
 20 42  1  0  0  0  0
M  END
> <s_m_source_file>
AV-unprocessed.smi

> <i_m_source_file_index>
2478

> <i_lp_mmshare_version>
43012

> <i_f3d_flags>
0

> <s_epik_input>
W0NIM11bQ0BASF0xW0NIMl1bQ0gyXVtDSDJdW0NIMl1bQ0BIXTFPW0NIMl1DKD1PKVtOSF1jMm5bY0hdW2NIXVtjSF1jMk9bQ0hdKEYpRg==

> <s_epik_cmdline>
J2VwaWtfcHl0aG9uJywgJy1waCcsICc3LjAnLCAnLXRuJywgJzgnLCAnLW1hJywgJzIwMCcsICctbWV0YWxfYmluZGluZycsICctaW1hZScsICc8aW5maWxlLm1hZT4nLCAnLW9tYWUnLCAnPG91dGZpbGUubWFlPic=

> <r_lp_tautomer_probability>
1

> <r_epik_Ionization_Penalty>
6.06012e-05

> <r_epik_Ionization_Penalty_Charging>
0

> <r_epik_Ionization_Penalty_Neutral>
6.06012e-05

> <r_epik_State_Penalty>
-0

> <r_epik_Charging_Adjusted_Penalty>
0

> <i_epik_Tot_Q>
0

> <i_epik_Tot_abs_Q>
0

> <r_epik_Metal_State_Penalty>
-0

> <b_epik_Metal_Only>
0

> <s_lp_Force_Field>
OPLS_2005

> <r_lp_Energy>
14.1885

> <b_lp_Chiralities_Consistent>
1

> <s_lp_Variant>
AV-unprocessed.smi:2478-3

> <Gold.Version>
5.8.1

> <Gold.Id.Protein>
6NUR|6NUR_protein|mol2

> <Gold.PLP.Fitness>
47.1068

> <Gold.PLP.PLP>
-50.9279

> <Gold.PLP.part.hbond>
-1.0000

> <Gold.PLP.part.metal>
0.0000

> <Gold.PLP.part.buried>
-6.1305

> <Gold.PLP.part.nonpolar>
-43.2958

> <Gold.PLP.part.repulsive>
0.9152

> <Gold.PLP.ligand.clash>
0.0000

> <Gold.PLP.ligand.torsion>
1.9787

> <Gold.PLP.Chemscore.Hbond>
0.0221

> <Gold.PLP.Chemscore.CHOScore>
0.0000

> <Gold.PLP.Chemscore.Metal>
0.0000

> <Gold.PLP.Chemscore.Internal.Correction>
0.0699

> <Gold.Rescore>
     Score         DG    S(hbond)    S(metal)    S(lipo)     H(rot)  DE(clash)    DE(int)     intcor
     10.87     -15.73       0.00        0.00     128.02       1.85       0.13       4.73       ----

> <Gold.Chemscore.Fitness>
10.8718

> <Gold.Chemscore.DG>
-15.7275

> <Gold.Chemscore.ZeroCoef>
-5.4800

> <Gold.Chemscore.Hbond>
0.0000

> <Gold.Chemscore.Metal>
0.0000

> <Gold.Chemscore.Lipo>
128.0222

> <Gold.Chemscore.Internal_Hbond>
0.0000

> <Gold.Chemscore.DEClash>
0.1287

> <Gold.Chemscore.DEInternal>
4.7271

> <Gold.Chemscore.Rot>
1.8481

> <Gold.Chemscore.Internal.Correction>
   9.000000E+99

> <Gold.Chemscore.Hbond.Weighted>
-0.0000

> <Gold.Chemscore.Metal.Weighted>
-0.0000

> <Gold.Chemscore.Lipo.Weighted>
-14.9786

> <Gold.Chemscore.Internal_Hbond.Weighted>
0.0000

> <Gold.Chemscore.DEClash.Weighted>
0.1287

> <Gold.Chemscore.DEInternal.Weighted>
4.7271

> <Gold.Chemscore.Rot.Weighted>
4.7311

> <Gold.Chemscore.Internal.Correction.Weighted>
   9.000000E+99

> <Gold.Protein.RotatedTorsions>
[ 6907 6896 6895 6894 ] final  151.91 input  -60.11 | X-H torsion
[ 7974 7965 7964 7962 ] final  -57.35 input  175.53 | X-H torsion
[ 8008 7997 7996 7995 ] final  -16.39 input   59.86 | X-H torsion
[ 10167 10162 10161 10158 ] final   93.07 input  -65.29 | X-H torsion
[ 10718 10713 10712 10709 ] final  -87.09 input   66.30 | X-H torsion
[ 10763 10752 10751 10750 ] final -108.10 input  -60.55 | X-H torsion
[ 11005 11000 10999 10996 ] final -136.22 input  -57.11 | X-H torsion

> <Gold.Protein.ActiveResidues>
 VAL166  LYS551  ARG553  GLY616  TRP617  ASP618  TYR619  PRO620  LYS621  CYS622 
 ASP623  PHE694  ASN695  SER759  ASP760  ASP761  ALA762  ILE779  LEU786  VAL792 
 PHE793  MET794  SER795  GLU796  ALA797  LYS798  CYS799  TRP800  GLU811  SER814 

> <Gold.Protein.RotatedAtoms>
  152.0941  133.4215  159.4556 H   0  0  0  0  0  0  0  0  0  0  0  0  # atno 6907 bound_to 6896
  150.6863  134.2837  159.4647 H   0  0  0  0  0  0  0  0  0  0  0  0  # atno 6908 bound_to 6896
  152.0691  134.9544  160.0625 H   0  0  0  0  0  0  0  0  0  0  0  0  # atno 6909 bound_to 6896
  145.8520  140.8345  142.9980 H   0  0  0  0  0  0  0  0  0  0  0  0  # atno 7974 bound_to 7965
  154.5057  140.2171  155.9256 H   0  0  0  0  0  0  0  0  0  0  0  0  # atno 8008 bound_to 7997
  156.1490  140.3165  155.8584 H   0  0  0  0  0  0  0  0  0  0  0  0  # atno 8009 bound_to 7997
  155.3975  140.0482  157.3029 H   0  0  0  0  0  0  0  0  0  0  0  0  # atno 8010 bound_to 7997
  139.8215  144.6729  150.9513 H   0  0  0  0  0  0  0  0  0  0  0  0  # atno 10167 bound_to 10162
  155.9987  130.4787  150.4813 H   0  0  0  0  0  0  0  0  0  0  0  0  # atno 10718 bound_to 10713
  154.8115  135.4650  154.0530 H   0  0  0  0  0  0  0  0  0  0  0  0  # atno 10763 bound_to 10752
  153.1957  135.6861  153.8302 H   0  0  0  0  0  0  0  0  0  0  0  0  # atno 10764 bound_to 10752
  153.7805  135.3257  155.3342 H   0  0  0  0  0  0  0  0  0  0  0  0  # atno 10765 bound_to 10752
  140.8826  134.1913  157.4581 H   0  0  0  0  0  0  0  0  0  0  0  0  # atno 11005 bound_to 11000
  144.6729  140.0968  143.7462 LP  0  0  0  0  0  0  0  0  0  0  0  0  # atno 17320 bound_to 7965
  145.9346  139.2628  143.1305 LP  0  0  0  0  0  0  0  0  0  0  0  0  # atno 17321 bound_to 7965
  140.7813  143.4087  151.1028 LP  0  0  0  0  0  0  0  0  0  0  0  0  # atno 17342 bound_to 10162
  139.7747  143.8442  152.3127 LP  0  0  0  0  0  0  0  0  0  0  0  0  # atno 17343 bound_to 10162
  157.2818  131.0608  151.2192 LP  0  0  0  0  0  0  0  0  0  0  0  0  # atno 17370 bound_to 10713
  157.3236  130.6949  149.6283 LP  0  0  0  0  0  0  0  0  0  0  0  0  # atno 17371 bound_to 10713
  139.8721  134.9824  156.5154 LP  0  0  0  0  0  0  0  0  0  0  0  0  # atno 17394 bound_to 11000
  140.8443  133.8180  155.9106 LP  0  0  0  0  0  0  0  0  0  0  0  0  # atno 17395 bound_to 11000

$$$$
