AV-unprocessed.smi:1741|AV-procd|sdf|7018|dock5
  -GOLD-   22720 8233D 1   1.00000     0.00000
 Structure written by MMmdl.
 38 39  0  0  0  0  0  0  0  0  1 V2000
  143.7942  131.8089  150.4450 C   0  0  0  0  0  0  0  0  0  0  0  0
  143.7976  133.2198  149.8440 C   0  0  0  0  0  0  0  0  0  0  0  0
  144.2792  134.2074  150.7903 N   0  0  0  0  0  0  0  0  0  0  0  0
  145.5242  134.8025  150.8437 C   0  0  0  0  0  0  0  0  0  0  0  0
  145.4800  135.6559  151.9099 C   0  0  0  0  0  0  0  0  0  0  0  0
  146.4875  136.5144  152.4184 N   0  0  0  0  0  0  0  0  0  0  0  0
  146.3230  137.5882  153.2082 C   0  0  0  0  0  0  0  0  0  0  0  0
  145.2424  137.9840  153.6457 O   0  0  0  0  0  0  0  0  0  0  0  0
  147.4967  138.1846  153.4625 N   0  0  0  0  0  0  0  0  0  0  0  0
  147.6918  139.3810  154.2790 C   0  0  2  0  0  0  0  0  0  0  0  0
  146.8076  140.5065  153.7202 C   0  0  0  0  0  0  0  0  0  0  0  0
  149.1860  139.7585  154.2877 C   0  0  1  0  0  0  0  0  0  0  0  0
  149.5738  140.8124  155.3260 C   0  0  0  0  0  0  0  0  0  0  0  0
  151.0477  140.5404  155.5830 C   0  0  0  0  0  0  0  0  0  0  0  0
  151.2791  139.1474  154.9915 C   0  0  0  0  0  0  0  0  0  0  0  0
  149.9826  138.6533  154.6866 O   0  0  0  0  0  0  0  0  0  0  0  0
  144.1770  135.5254  152.4563 C   0  0  0  0  0  0  0  0  0  0  0  0
  143.4567  134.6479  151.7745 N   0  0  0  0  0  0  0  0  0  0  0  0
  143.4210  131.0821  149.7236 H   0  0  0  0  0  0  0  0  0  0  0  0
  143.1570  131.7589  151.3285 H   0  0  0  0  0  0  0  0  0  0  0  0
  144.7984  131.5005  150.7372 H   0  0  0  0  0  0  0  0  0  0  0  0
  144.4253  133.2514  148.9525 H   0  0  0  0  0  0  0  0  0  0  0  0
  142.7902  133.4978  149.5323 H   0  0  0  0  0  0  0  0  0  0  0  0
  146.3037  134.5668  150.1344 H   0  0  0  0  0  0  0  0  0  0  0  0
  147.4327  136.2961  152.1392 H   0  0  0  0  0  0  0  0  0  0  0  0
  148.3275  137.7764  153.0600 H   0  0  0  0  0  0  0  0  0  0  0  0
  147.3783  139.1919  155.3072 H   0  0  0  0  0  0  0  0  0  0  0  0
  146.8795  141.4078  154.3290 H   0  0  0  0  0  0  0  0  0  0  0  0
  145.7584  140.2094  153.7048 H   0  0  0  0  0  0  0  0  0  0  0  0
  147.0949  140.7693  152.7015 H   0  0  0  0  0  0  0  0  0  0  0  0
  149.5047  140.0820  153.2946 H   0  0  0  0  0  0  0  0  0  0  0  0
  149.3863  141.8303  154.9833 H   0  0  0  0  0  0  0  0  0  0  0  0
  149.0100  140.6590  156.2472 H   0  0  0  0  0  0  0  0  0  0  0  0
  151.6824  141.2769  155.0889 H   0  0  0  0  0  0  0  0  0  0  0  0
  151.2682  140.5683  156.6507 H   0  0  0  0  0  0  0  0  0  0  0  0
  151.8635  139.2142  154.0728 H   0  0  0  0  0  0  0  0  0  0  0  0
  151.8007  138.4810  155.6791 H   0  0  0  0  0  0  0  0  0  0  0  0
  143.7390  136.0263  153.3070 H   0  0  0  0  0  0  0  0  0  0  0  0
  1  2  1  0  0  0  0
  1 19  1  0  0  0  0
  1 20  1  0  0  0  0
  1 21  1  0  0  0  0
  2  3  1  0  0  0  0
  2 22  1  0  0  0  0
  2 23  1  0  0  0  0
  3 18  1  0  0  0  0
  3  4  1  0  0  0  0
  4  5  2  0  0  0  0
  4 24  1  0  0  0  0
  5  6  1  0  0  0  0
  5 17  1  0  0  0  0
  6  7  1  0  0  0  0
  6 25  1  0  0  0  0
  7  8  2  0  0  0  0
  7  9  1  0  0  0  0
  9 10  1  0  0  0  0
  9 26  1  0  0  0  0
 10 11  1  0  0  0  0
 10 12  1  0  0  0  0
 10 27  1  0  0  0  0
 11 28  1  0  0  0  0
 11 29  1  0  0  0  0
 11 30  1  0  0  0  0
 12 16  1  0  0  0  0
 12 13  1  0  0  0  0
 12 31  1  0  0  0  0
 13 14  1  0  0  0  0
 13 32  1  0  0  0  0
 13 33  1  0  0  0  0
 14 15  1  0  0  0  0
 14 34  1  0  0  0  0
 14 35  1  0  0  0  0
 15 16  1  0  0  0  0
 15 36  1  0  0  0  0
 15 37  1  0  0  0  0
 17 18  2  0  0  0  0
 17 38  1  0  0  0  0
M  END
> <s_m_source_file>
AV-unprocessed.smi

> <i_m_source_file_index>
1741

> <i_lp_mmshare_version>
43012

> <i_f3d_flags>
0

> <s_epik_input>
W0NIM11bQ0gyXW4xW2NIXWMoW2NIXW4xKVtOSF1DKD1PKVtOSF1bQ0BIXShbQ0gzXSlbQ0BASF0yW0NIMl1bQ0gyXVtDSDJdTzI=

> <s_epik_cmdline>
J2VwaWtfcHl0aG9uJywgJy1waCcsICc3LjAnLCAnLXRuJywgJzgnLCAnLW1hJywgJzIwMCcsICctbWV0YWxfYmluZGluZycsICctaW1hZScsICc8aW5maWxlLm1hZT4nLCAnLW9tYWUnLCAnPG91dGZpbGUubWFlPic=

> <r_lp_tautomer_probability>
1

> <r_epik_Ionization_Penalty>
0.000179292

> <r_epik_Ionization_Penalty_Charging>
0

> <r_epik_Ionization_Penalty_Neutral>
0.000179292

> <r_epik_State_Penalty>
-0

> <r_epik_Charging_Adjusted_Penalty>
0

> <i_epik_Tot_Q>
0

> <i_epik_Tot_abs_Q>
0

> <r_epik_Metal_State_Penalty>
-0

> <b_epik_Metal_Only>
0

> <s_lp_Force_Field>
OPLS_2005

> <r_lp_Energy>
22.1528

> <b_lp_Chiralities_Consistent>
1

> <s_lp_Variant>
AV-unprocessed.smi:1741-3

> <Gold.Version>
5.8.1

> <Gold.Id.Protein>
6NUR|6NUR_protein|mol2

> <Gold.PLP.Fitness>
36.4235

> <Gold.PLP.PLP>
-28.8384

> <Gold.PLP.part.hbond>
-1.9792

> <Gold.PLP.part.metal>
0.0000

> <Gold.PLP.part.buried>
-2.3382

> <Gold.PLP.part.nonpolar>
-26.2581

> <Gold.PLP.part.repulsive>
0.5627

> <Gold.PLP.ligand.clash>
0.0000

> <Gold.PLP.ligand.torsion>
0.4248

> <Gold.PLP.Chemscore.Hbond>
1.8553

> <Gold.PLP.Chemscore.CHOScore>
0.9451

> <Gold.PLP.Chemscore.Metal>
0.0000

> <Gold.Chemscore.Hbonds>
donor molecule, donor type, donor heavy atom, donor atom, acceptor molecule, acceptor atom, score
      L1  H     6    25       P1  7948  1.00
      L1  H     9    26       P1  7948  0.84
      L1  C     4    24       P1  7921  0.92

> <Gold.PLP.Chemscore.Internal.Correction>
0.0335

> <Gold.Rescore>
     Score         DG    S(hbond)    S(metal)    S(lipo)     H(rot)  DE(clash)    DE(int)     intcor
     13.73     -16.79       1.90        0.00      72.64       1.38       0.27       2.80       ----

> <Gold.Chemscore.Fitness>
13.7254

> <Gold.Chemscore.DG>
-16.7866

> <Gold.Chemscore.ZeroCoef>
-5.4800

> <Gold.Chemscore.Hbond>
1.8976

> <Gold.Chemscore.Metal>
0.0000

> <Gold.Chemscore.Lipo>
72.6387

> <Gold.Chemscore.Internal_Hbond>
0.0000

> <Gold.Chemscore.DEClash>
0.2658

> <Gold.Chemscore.DEInternal>
2.7954

> <Gold.Chemscore.Rot>
1.3790

> <Gold.Chemscore.Internal.Correction>
   9.000000E+99

> <Gold.Chemscore.Hbonds>
donor molecule, donor type, donor heavy atom, donor atom, acceptor molecule, acceptor atom, score
      L1  H     6    25       P1  7948  0.93
      L1  H     9    26       P1  7948  0.78

> <Gold.Chemscore.Hbond.Weighted>
-6.3380

> <Gold.Chemscore.Metal.Weighted>
-0.0000

> <Gold.Chemscore.Lipo.Weighted>
-8.4987

> <Gold.Chemscore.Internal_Hbond.Weighted>
0.0000

> <Gold.Chemscore.DEClash.Weighted>
0.2658

> <Gold.Chemscore.DEInternal.Weighted>
2.7954

> <Gold.Chemscore.Rot.Weighted>
3.5302

> <Gold.Chemscore.Internal.Correction.Weighted>
   9.000000E+99

> <Gold.Protein.RotatedTorsions>
[ 6907 6896 6895 6894 ] final -138.45 input  -60.11 | X-H torsion
[ 7974 7965 7964 7962 ] final  175.91 input  175.53 | X-H torsion
[ 8008 7997 7996 7995 ] final   27.01 input   59.86 | X-H torsion
[ 10167 10162 10161 10158 ] final   30.06 input  -65.29 | X-H torsion
[ 10718 10713 10712 10709 ] final -102.47 input   66.30 | X-H torsion
[ 10763 10752 10751 10750 ] final  -91.38 input  -60.55 | X-H torsion
[ 11005 11000 10999 10996 ] final   51.99 input  -57.11 | X-H torsion

> <Gold.Protein.ActiveResidues>
 VAL166  LYS551  ARG553  GLY616  TRP617  ASP618  TYR619  PRO620  LYS621  CYS622 
 ASP623  PHE694  ASN695  SER759  ASP760  ASP761  ALA762  ILE779  LEU786  VAL792 
 PHE793  MET794  SER795  GLU796  ALA797  LYS798  CYS799  TRP800  GLU811  SER814 

> <Gold.Protein.RotatedAtoms>
  151.0351  133.5755  159.2656 H   0  0  0  0  0  0  0  0  0  0  0  0  # atno 6907 bound_to 6896
  151.2822  135.0716  159.9183 H   0  0  0  0  0  0  0  0  0  0  0  0  # atno 6908 bound_to 6896
  152.5353  134.0064  159.7972 H   0  0  0  0  0  0  0  0  0  0  0  0  # atno 6909 bound_to 6896
  144.7193  140.0017  143.6440 H   0  0  0  0  0  0  0  0  0  0  0  0  # atno 7974 bound_to 7965
  155.0362  140.3164  155.4741 H   0  0  0  0  0  0  0  0  0  0  0  0  # atno 8008 bound_to 7997
  156.2864  140.2171  156.5427 H   0  0  0  0  0  0  0  0  0  0  0  0  # atno 8009 bound_to 7997
  154.7328  140.0480  157.0730 H   0  0  0  0  0  0  0  0  0  0  0  0  # atno 8010 bound_to 7997
  140.4711  144.0761  150.6237 H   0  0  0  0  0  0  0  0  0  0  0  0  # atno 10167 bound_to 10162
  156.0230  130.5421  150.7113 H   0  0  0  0  0  0  0  0  0  0  0  0  # atno 10718 bound_to 10713
  154.6754  135.5270  153.8193 H   0  0  0  0  0  0  0  0  0  0  0  0  # atno 10763 bound_to 10752
  153.0529  135.6539  154.0658 H   0  0  0  0  0  0  0  0  0  0  0  0  # atno 10764 bound_to 10752
  154.0552  135.2966  155.3314 H   0  0  0  0  0  0  0  0  0  0  0  0  # atno 10765 bound_to 10752
  140.0886  134.5240  155.8874 H   0  0  0  0  0  0  0  0  0  0  0  0  # atno 11005 bound_to 11000
  146.0330  139.3352  143.0744 LP  0  0  0  0  0  0  0  0  0  0  0  0  # atno 17320 bound_to 7965
  145.8429  140.9571  143.0790 LP  0  0  0  0  0  0  0  0  0  0  0  0  # atno 17321 bound_to 7965
  140.3976  143.2720  151.9987 LP  0  0  0  0  0  0  0  0  0  0  0  0  # atno 17342 bound_to 10162
  139.4818  144.6025  151.7580 LP  0  0  0  0  0  0  0  0  0  0  0  0  # atno 17343 bound_to 10162
  157.4750  131.0897  151.0600 LP  0  0  0  0  0  0  0  0  0  0  0  0  # atno 17370 bound_to 10713
  157.1049  130.5997  149.5468 LP  0  0  0  0  0  0  0  0  0  0  0  0  # atno 17371 bound_to 10713
  141.2071  133.6661  156.6282 LP  0  0  0  0  0  0  0  0  0  0  0  0  # atno 17394 bound_to 11000
  140.3384  134.7870  157.4379 LP  0  0  0  0  0  0  0  0  0  0  0  0  # atno 17395 bound_to 11000

$$$$
