AV-unprocessed.smi:2954|AV-procd|sdf|11297|dock3
  -GOLD-   2272016193D 1   1.00000     0.00000
 Structure written by MMmdl.
 42 44  0  0  0  0  0  0  0  0  1 V2000
  151.7667  137.2651  157.2402 C   0  0  0  0  0  0  0  0  0  0  0  0
  151.1398  138.5954  156.7828 C   0  0  2  0  0  0  0  0  0  0  0  0
  151.3141  138.8652  155.3536 N   0  0  0  0  0  0  0  0  0  0  0  0
  152.4737  139.0620  154.7098 C   0  0  0  0  0  0  0  0  0  0  0  0
  153.5656  139.0323  155.2718 O   0  0  0  0  0  0  0  0  0  0  0  0
  151.6169  139.7795  157.5911 C   0  0  0  0  0  0  0  0  0  0  0  0
  152.5126  139.6515  158.5739 N   0  0  0  0  0  0  0  0  0  0  0  0
  152.6451  140.9413  159.0455 C   0  0  0  0  0  0  0  0  0  0  0  0
  153.4411  141.4589  160.0922 C   0  0  0  0  0  0  0  0  0  0  0  0
  153.4034  142.8335  160.4045 C   0  0  0  0  0  0  0  0  0  0  0  0
  152.5716  143.7078  159.6757 C   0  0  0  0  0  0  0  0  0  0  0  0
  151.7737  143.2123  158.6267 C   0  0  0  0  0  0  0  0  0  0  0  0
  151.8158  141.8390  158.3181 C   0  0  0  0  0  0  0  0  0  0  0  0
  151.1702  141.0454  157.3737 N   0  0  0  0  0  0  0  0  0  0  0  0
  150.2043  141.5165  156.3896 C   0  0  0  0  0  0  0  0  0  0  0  0
  148.7825  141.5678  156.9662 C   0  0  0  0  0  0  0  0  0  0  0  0
  147.8849  141.9246  155.9240 O   0  0  0  0  0  0  0  0  0  0  0  0
  147.6887  141.0390  154.8867 C   0  0  0  0  0  0  0  0  0  0  0  0
  148.2655  139.7448  154.8325 C   0  0  0  0  0  0  0  0  0  0  0  0
  148.0154  138.8978  153.7354 C   0  0  0  0  0  0  0  0  0  0  0  0
  147.1903  139.3310  152.6816 C   0  0  0  0  0  0  0  0  0  0  0  0
  146.6151  140.6142  152.7253 C   0  0  0  0  0  0  0  0  0  0  0  0
  146.8629  141.4632  153.8219 C   0  0  0  0  0  0  0  0  0  0  0  0
  146.1395  143.0320  153.8575 Cl  0  0  0  0  0  0  0  0  0  0  0  0
  151.5136  137.0586  158.2805 H   0  0  0  0  0  0  0  0  0  0  0  0
  152.8546  137.2768  157.1669 H   0  0  0  0  0  0  0  0  0  0  0  0
  151.4001  136.4312  156.6410 H   0  0  0  0  0  0  0  0  0  0  0  0
  150.0665  138.4777  156.9118 H   0  0  0  0  0  0  0  0  0  0  0  0
  150.4699  138.9022  154.8013 H   0  0  0  0  0  0  0  0  0  0  0  0
  152.3260  139.2455  153.6348 H   0  0  0  0  0  0  0  0  0  0  0  0
  154.0791  140.7961  160.6580 H   0  0  0  0  0  0  0  0  0  0  0  0
  154.0140  143.2182  161.2081 H   0  0  0  0  0  0  0  0  0  0  0  0
  152.5455  144.7590  159.9230 H   0  0  0  0  0  0  0  0  0  0  0  0
  151.1321  143.8803  158.0715 H   0  0  0  0  0  0  0  0  0  0  0  0
  150.5011  142.5132  156.0619 H   0  0  0  0  0  0  0  0  0  0  0  0
  150.2491  140.8887  155.5002 H   0  0  0  0  0  0  0  0  0  0  0  0
  148.5165  140.5940  157.3797 H   0  0  0  0  0  0  0  0  0  0  0  0
  148.7374  142.3020  157.7719 H   0  0  0  0  0  0  0  0  0  0  0  0
  148.9061  139.3785  155.6202 H   0  0  0  0  0  0  0  0  0  0  0  0
  148.4584  137.9135  153.7031 H   0  0  0  0  0  0  0  0  0  0  0  0
  146.9990  138.6806  151.8408 H   0  0  0  0  0  0  0  0  0  0  0  0
  145.9814  140.9472  151.9164 H   0  0  0  0  0  0  0  0  0  0  0  0
  1  2  1  0  0  0  0
  1 25  1  0  0  0  0
  1 26  1  0  0  0  0
  1 27  1  0  0  0  0
  2  3  1  0  0  0  0
  2  6  1  0  0  0  0
  2 28  1  0  0  0  0
  3  4  1  0  0  0  0
  3 29  1  0  0  0  0
  4  5  2  0  0  0  0
  4 30  1  0  0  0  0
  6 14  1  0  0  0  0
  6  7  2  0  0  0  0
  7  8  1  0  0  0  0
  8 13  2  0  0  0  0
  8  9  1  0  0  0  0
  9 10  2  0  0  0  0
  9 31  1  0  0  0  0
 10 11  1  0  0  0  0
 10 32  1  0  0  0  0
 11 12  2  0  0  0  0
 11 33  1  0  0  0  0
 12 13  1  0  0  0  0
 12 34  1  0  0  0  0
 13 14  1  0  0  0  0
 14 15  1  0  0  0  0
 15 16  1  0  0  0  0
 15 35  1  0  0  0  0
 15 36  1  0  0  0  0
 16 17  1  0  0  0  0
 16 37  1  0  0  0  0
 16 38  1  0  0  0  0
 17 18  1  0  0  0  0
 18 23  1  0  0  0  0
 18 19  2  0  0  0  0
 19 20  1  0  0  0  0
 19 39  1  0  0  0  0
 20 21  2  0  0  0  0
 20 40  1  0  0  0  0
 21 22  1  0  0  0  0
 21 41  1  0  0  0  0
 22 23  2  0  0  0  0
 22 42  1  0  0  0  0
 23 24  1  0  0  0  0
M  END
> <s_m_source_file>
AV-unprocessed.smi

> <i_m_source_file_index>
2954

> <i_lp_mmshare_version>
43012

> <i_f3d_flags>
0

> <s_epik_input>
Tz1bQ0hdW05IXVtDQEBIXShbQ0gzXSljKG4xKW4oYyhjMTIpW2NIXVtjSF1bY0hdW2NIXTIpW0NIMl1bQ0gyXU9jM1tjSF1bY0hdW2NIXVtjSF1jM0Ns

> <s_epik_cmdline>
J2VwaWtfcHl0aG9uJywgJy1waCcsICc3LjAnLCAnLXRuJywgJzgnLCAnLW1hJywgJzIwMCcsICctbWV0YWxfYmluZGluZycsICctaW1hZScsICc8aW5maWxlLm1hZT4nLCAnLW9tYWUnLCAnPG91dGZpbGUubWFlPic=

> <r_lp_tautomer_probability>
1

> <r_epik_Ionization_Penalty>
0.0861383

> <r_epik_Ionization_Penalty_Charging>
0

> <r_epik_Ionization_Penalty_Neutral>
0.0861383

> <r_epik_State_Penalty>
0.0766841

> <r_epik_Charging_Adjusted_Penalty>
0.0766841

> <i_epik_Tot_Q>
0

> <i_epik_Tot_abs_Q>
0

> <r_epik_Metal_State_Penalty>
0.0668745

> <b_epik_Metal_Only>
0

> <s_lp_Force_Field>
OPLS_2005

> <r_lp_Energy>
13.8103

> <b_lp_Chiralities_Consistent>
1

> <s_lp_Variant>
AV-unprocessed.smi:2954-1

> <Gold.Version>
5.8.1

> <Gold.Id.Protein>
6NUR|6NUR_protein|mol2

> <Gold.PLP.Fitness>
44.7255

> <Gold.PLP.PLP>
-42.5534

> <Gold.PLP.part.hbond>
-1.0000

> <Gold.PLP.part.metal>
0.0000

> <Gold.PLP.part.buried>
-3.4611

> <Gold.PLP.part.nonpolar>
-39.1289

> <Gold.PLP.part.repulsive>
1.4961

> <Gold.PLP.ligand.clash>
0.0000

> <Gold.PLP.ligand.torsion>
0.4532

> <Gold.PLP.Chemscore.Hbond>
0.9920

> <Gold.PLP.Chemscore.CHOScore>
0.0000

> <Gold.PLP.Chemscore.Metal>
0.0000

> <Gold.Chemscore.Hbonds>
donor molecule, donor type, donor heavy atom, donor atom, acceptor molecule, acceptor atom, score
      P1  H  7997  8009       L1     5  1.00

> <Gold.PLP.Chemscore.Internal.Correction>
0.1026

> <Gold.Rescore>
     Score         DG    S(hbond)    S(metal)    S(lipo)     H(rot)  DE(clash)    DE(int)     intcor
     16.24     -16.96       0.83        0.00     124.53       2.28       0.22       0.50       ----

> <Gold.Chemscore.Fitness>
16.2416

> <Gold.Chemscore.DG>
-16.9618

> <Gold.Chemscore.ZeroCoef>
-5.4800

> <Gold.Chemscore.Hbond>
0.8267

> <Gold.Chemscore.Metal>
0.0000

> <Gold.Chemscore.Lipo>
124.5305

> <Gold.Chemscore.Internal_Hbond>
0.0000

> <Gold.Chemscore.DEClash>
0.2163

> <Gold.Chemscore.DEInternal>
0.5039

> <Gold.Chemscore.Rot>
2.2849

> <Gold.Chemscore.Internal.Correction>
   9.000000E+99

> <Gold.Chemscore.Hbonds>
donor molecule, donor type, donor heavy atom, donor atom, acceptor molecule, acceptor atom, score
      P1  H  7997  8009       L1     5  0.92

> <Gold.Chemscore.Hbond.Weighted>
-2.7611

> <Gold.Chemscore.Metal.Weighted>
-0.0000

> <Gold.Chemscore.Lipo.Weighted>
-14.5701

> <Gold.Chemscore.Internal_Hbond.Weighted>
0.0000

> <Gold.Chemscore.DEClash.Weighted>
0.2163

> <Gold.Chemscore.DEInternal.Weighted>
0.5039

> <Gold.Chemscore.Rot.Weighted>
5.8495

> <Gold.Chemscore.Internal.Correction.Weighted>
   9.000000E+99

> <Gold.Protein.RotatedTorsions>
[ 6907 6896 6895 6894 ] final   94.00 input  -60.11 | X-H torsion
[ 7974 7965 7964 7962 ] final  141.40 input  175.53 | X-H torsion
[ 8008 7997 7996 7995 ] final -143.94 input   59.86 | X-H torsion
[ 10167 10162 10161 10158 ] final    5.40 input  -65.29 | X-H torsion
[ 10718 10713 10712 10709 ] final   35.84 input   66.30 | X-H torsion
[ 10763 10752 10751 10750 ] final -137.13 input  -60.55 | X-H torsion
[ 11005 11000 10999 10996 ] final   57.50 input  -57.11 | X-H torsion

> <Gold.Protein.ActiveResidues>
 VAL166  LYS551  ARG553  GLY616  TRP617  ASP618  TYR619  PRO620  LYS621  CYS622 
 ASP623  PHE694  ASN695  SER759  ASP760  ASP761  ALA762  ILE779  LEU786  VAL792 
 PHE793  MET794  SER795  GLU796  ALA797  LYS798  CYS799  TRP800  GLU811  SER814 

> <Gold.Protein.RotatedAtoms>
  152.5451  134.1261  159.8419 H   0  0  0  0  0  0  0  0  0  0  0  0  # atno 6907 bound_to 6896
  151.1312  133.5028  159.2606 H   0  0  0  0  0  0  0  0  0  0  0  0  # atno 6908 bound_to 6896
  151.1673  135.0311  159.8791 H   0  0  0  0  0  0  0  0  0  0  0  0  # atno 6909 bound_to 6896
  144.9100  139.5306  143.5713 H   0  0  0  0  0  0  0  0  0  0  0  0  # atno 7974 bound_to 7965
  155.5187  140.0589  157.2910 H   0  0  0  0  0  0  0  0  0  0  0  0  # atno 8008 bound_to 7997
  154.4525  140.1956  156.0423 H   0  0  0  0  0  0  0  0  0  0  0  0  # atno 8009 bound_to 7997
  156.0733  140.3257  155.7607 H   0  0  0  0  0  0  0  0  0  0  0  0  # atno 8010 bound_to 7997
  140.6484  143.7606  150.7535 H   0  0  0  0  0  0  0  0  0  0  0  0  # atno 10167 bound_to 10162
  157.3276  130.7481  149.6826 H   0  0  0  0  0  0  0  0  0  0  0  0  # atno 10718 bound_to 10713
  154.8668  135.3651  154.5174 H   0  0  0  0  0  0  0  0  0  0  0  0  # atno 10763 bound_to 10752
  153.5805  135.7018  153.5470 H   0  0  0  0  0  0  0  0  0  0  0  0  # atno 10764 bound_to 10752
  153.3461  135.4085  155.1572 H   0  0  0  0  0  0  0  0  0  0  0  0  # atno 10765 bound_to 10752
  140.0448  134.5821  155.9336 H   0  0  0  0  0  0  0  0  0  0  0  0  # atno 11005 bound_to 11000
  146.3153  139.7898  142.8988 LP  0  0  0  0  0  0  0  0  0  0  0  0  # atno 17320 bound_to 7965
  145.3471  141.0300  143.3360 LP  0  0  0  0  0  0  0  0  0  0  0  0  # atno 17321 bound_to 7965
  140.1252  143.4576  152.2289 LP  0  0  0  0  0  0  0  0  0  0  0  0  # atno 17342 bound_to 10162
  139.5696  144.7455  151.3926 LP  0  0  0  0  0  0  0  0  0  0  0  0  # atno 17343 bound_to 10162
  155.9692  130.4204  150.4424 LP  0  0  0  0  0  0  0  0  0  0  0  0  # atno 17370 bound_to 10713
  157.2450  131.0534  151.2414 LP  0  0  0  0  0  0  0  0  0  0  0  0  # atno 17371 bound_to 10713
  141.1901  133.6567  156.5398 LP  0  0  0  0  0  0  0  0  0  0  0  0  # atno 17394 bound_to 11000
  140.4011  134.7356  157.4780 LP  0  0  0  0  0  0  0  0  0  0  0  0  # atno 17395 bound_to 11000

$$$$
