AV-unprocessed.smi:3308|AV-procd|sdf|12709|dock8
  -GOLD-   2272019 43D 1   1.00000     0.00000
 Structure written by MMmdl.
 41 42  0  0  0  0  0  0  0  0  2 V2000
  150.5886  141.0758  155.5663 C   0  0  0  0  0  0  0  0  0  0  0  0
  149.3972  141.3964  156.4870 C   0  0  1  0  0  0  0  0  0  0  0  0
  149.7348  142.5817  157.3067 N   0  3  0  0  0  0  0  0  0  0  0  0
  151.1449  142.6566  157.7463 C   0  0  0  0  0  0  0  0  0  0  0  0
  151.3421  143.6345  158.9131 C   0  0  0  0  0  0  0  0  0  0  0  0
  150.8193  144.7492  158.8695 O   0  0  0  0  0  0  0  0  0  0  0  0
  152.0908  143.2332  159.9610 N   0  0  0  0  0  0  0  0  0  0  0  0
  152.3404  144.0603  161.1400 C   0  0  0  0  0  0  0  0  0  0  0  0
  152.9926  143.1325  162.1656 C   0  0  0  0  0  0  0  0  0  0  0  0
  153.6516  142.0502  161.3221 C   0  0  0  0  0  0  0  0  0  0  0  0
  152.7527  141.9351  160.0902 C   0  0  0  0  0  0  0  0  0  0  0  0
  148.0731  141.6330  155.7107 C   0  0  2  0  0  0  0  0  0  0  0  0
  146.8759  141.9158  156.6384 C   0  0  0  0  0  0  0  0  0  0  0  0
  147.7568  140.5288  154.8132 N   0  0  0  0  0  0  0  0  0  0  0  0
  146.7172  140.4326  153.9109 C   0  0  0  0  0  0  0  0  0  0  0  0
  146.8193  139.2170  153.2978 C   0  0  0  0  0  0  0  0  0  0  0  0
  147.9667  138.6298  153.8993 C   0  0  0  0  0  0  0  0  0  0  0  0
  148.5249  139.4157  154.8058 N   0  0  0  0  0  0  0  0  0  0  0  0
  150.4352  140.1505  155.0106 H   0  0  0  0  0  0  0  0  0  0  0  0
  151.5057  140.9511  156.1430 H   0  0  0  0  0  0  0  0  0  0  0  0
  150.7570  141.8745  154.8432 H   0  0  0  0  0  0  0  0  0  0  0  0
  149.2648  140.5360  157.1457 H   0  0  0  0  0  0  0  0  0  0  0  0
  149.5360  143.4115  156.7661 H   0  0  0  0  0  0  0  0  0  0  0  0
  151.4809  141.6643  158.0491 H   0  0  0  0  0  0  0  0  0  0  0  0
  151.7606  142.9734  156.9033 H   0  0  0  0  0  0  0  0  0  0  0  0
  153.0203  144.8691  160.8683 H   0  0  0  0  0  0  0  0  0  0  0  0
  151.4248  144.5047  161.5336 H   0  0  0  0  0  0  0  0  0  0  0  0
  153.6975  143.6506  162.8165 H   0  0  0  0  0  0  0  0  0  0  0  0
  152.2231  142.6847  162.7959 H   0  0  0  0  0  0  0  0  0  0  0  0
  154.6462  142.3808  161.0198 H   0  0  0  0  0  0  0  0  0  0  0  0
  153.7621  141.1058  161.8559 H   0  0  0  0  0  0  0  0  0  0  0  0
  151.9974  141.1629  160.2423 H   0  0  0  0  0  0  0  0  0  0  0  0
  153.3356  141.6745  159.2058 H   0  0  0  0  0  0  0  0  0  0  0  0
  148.2101  142.5126  155.0797 H   0  0  0  0  0  0  0  0  0  0  0  0
  147.0206  142.8310  157.2126 H   0  0  0  0  0  0  0  0  0  0  0  0
  146.7156  141.1013  157.3456 H   0  0  0  0  0  0  0  0  0  0  0  0
  145.9577  142.0410  156.0636 H   0  0  0  0  0  0  0  0  0  0  0  0
  145.9982  141.2279  153.7804 H   0  0  0  0  0  0  0  0  0  0  0  0
  146.1719  138.8079  152.5363 H   0  0  0  0  0  0  0  0  0  0  0  0
  148.4067  137.6627  153.7056 H   0  0  0  0  0  0  0  0  0  0  0  0
  149.1415  142.5880  158.1242 H   0  0  0  0  0  0  0  0  0  0  0  0
  1  2  1  0  0  0  0
  1 19  1  0  0  0  0
  1 20  1  0  0  0  0
  1 21  1  0  0  0  0
  2  3  1  0  0  0  0
  2 12  1  0  0  0  0
  2 22  1  0  0  0  0
  3  4  1  0  0  0  0
  3 23  1  0  0  0  0
  3 41  1  0  0  0  0
  4  5  1  0  0  0  0
  4 24  1  0  0  0  0
  4 25  1  0  0  0  0
  5  6  2  0  0  0  0
  5  7  1  0  0  0  0
  7 11  1  0  0  0  0
  7  8  1  0  0  0  0
  8  9  1  0  0  0  0
  8 26  1  0  0  0  0
  8 27  1  0  0  0  0
  9 10  1  0  0  0  0
  9 28  1  0  0  0  0
  9 29  1  0  0  0  0
 10 11  1  0  0  0  0
 10 30  1  0  0  0  0
 10 31  1  0  0  0  0
 11 32  1  0  0  0  0
 11 33  1  0  0  0  0
 12 13  1  0  0  0  0
 12 14  1  0  0  0  0
 12 34  1  0  0  0  0
 13 35  1  0  0  0  0
 13 36  1  0  0  0  0
 13 37  1  0  0  0  0
 14 18  1  0  0  0  0
 14 15  1  0  0  0  0
 15 16  2  0  0  0  0
 15 38  1  0  0  0  0
 16 17  1  0  0  0  0
 16 39  1  0  0  0  0
 17 18  2  0  0  0  0
 17 40  1  0  0  0  0
M  CHG  1   3   1
M  END
> <s_m_source_file>
AV-unprocessed.smi

> <i_m_source_file_index>
3308

> <i_lp_mmshare_version>
43012

> <i_f3d_flags>
0

> <s_epik_input>
bjFbY0hdW2NIXVtjSF1uMVtDQEBIXShbQ0gzXSlbQ0BIXShbQ0gzXSlbTkhdW0NIMl1DKD1PKU4yW0NIMl1bQ0gyXVtDSDJdW0NIMl0y

> <s_epik_cmdline>
J2VwaWtfcHl0aG9uJywgJy1waCcsICc3LjAnLCAnLXRuJywgJzgnLCAnLW1hJywgJzIwMCcsICctbWV0YWxfYmluZGluZycsICctaW1hZScsICc8aW5maWxlLm1hZT4nLCAnLW9tYWUnLCAnPG91dGZpbGUubWFlPic=

> <r_lp_tautomer_probability>
1

> <r_epik_Ionization_Penalty>
0.141739

> <r_epik_Ionization_Penalty_Charging>
0.141731

> <r_epik_Ionization_Penalty_Neutral>
8.82171e-06

> <r_epik_State_Penalty>
0.131043

> <r_epik_Charging_Adjusted_Penalty>
0.272773

> <i_epik_Tot_Q>
1

> <i_epik_Tot_abs_Q>
1

> <r_epik_Metal_State_Penalty>
0.131385

> <b_epik_Metal_Only>
0

> <s_lp_Force_Field>
OPLS_2005

> <r_lp_Energy>
34.0204

> <b_lp_Chiralities_Consistent>
1

> <s_lp_Variant>
AV-unprocessed.smi:3308-2

> <Gold.Version>
5.8.1

> <Gold.Id.Protein>
6NUR|6NUR_protein|mol2

> <Gold.PLP.Fitness>
46.5670

> <Gold.PLP.PLP>
-37.5866

> <Gold.PLP.part.hbond>
-1.0000

> <Gold.PLP.part.metal>
0.0000

> <Gold.PLP.part.buried>
-3.5708

> <Gold.PLP.part.nonpolar>
-33.2992

> <Gold.PLP.part.repulsive>
0.2828

> <Gold.PLP.ligand.clash>
0.0108

> <Gold.PLP.ligand.torsion>
0.4811

> <Gold.PLP.Chemscore.Hbond>
2.0000

> <Gold.PLP.Chemscore.CHOScore>
1.2887

> <Gold.PLP.Chemscore.Metal>
0.0000

> <Gold.Chemscore.Hbonds>
donor molecule, donor type, donor heavy atom, donor atom, acceptor molecule, acceptor atom, score
      L1  H     3    23       P1  8028  2.00
      L1  C    15    38       P1 10175  0.32
      L1  C    17    40       P1  7948  1.00

> <Gold.PLP.Chemscore.Internal.Correction>
0.0871

> <Gold.Rescore>
     Score         DG    S(hbond)    S(metal)    S(lipo)     H(rot)  DE(clash)    DE(int)     intcor
     13.31     -15.26       1.00        0.00      94.20       1.78       0.06       1.90       ----

> <Gold.Chemscore.Fitness>
13.3066

> <Gold.Chemscore.DG>
-15.2645

> <Gold.Chemscore.ZeroCoef>
-5.4800

> <Gold.Chemscore.Hbond>
0.9968

> <Gold.Chemscore.Metal>
0.0000

> <Gold.Chemscore.Lipo>
94.1994

> <Gold.Chemscore.Internal_Hbond>
0.0000

> <Gold.Chemscore.DEClash>
0.0622

> <Gold.Chemscore.DEInternal>
1.8957

> <Gold.Chemscore.Rot>
1.7836

> <Gold.Chemscore.Internal.Correction>
   9.000000E+99

> <Gold.Chemscore.Hbonds>
donor molecule, donor type, donor heavy atom, donor atom, acceptor molecule, acceptor atom, score
      L1  H     3    23       P1  8028  0.99

> <Gold.Chemscore.Hbond.Weighted>
-3.3292

> <Gold.Chemscore.Metal.Weighted>
-0.0000

> <Gold.Chemscore.Lipo.Weighted>
-11.0213

> <Gold.Chemscore.Internal_Hbond.Weighted>
0.0000

> <Gold.Chemscore.DEClash.Weighted>
0.0622

> <Gold.Chemscore.DEInternal.Weighted>
1.8957

> <Gold.Chemscore.Rot.Weighted>
4.5660

> <Gold.Chemscore.Internal.Correction.Weighted>
   9.000000E+99

> <Gold.Protein.RotatedTorsions>
[ 6907 6896 6895 6894 ] final -175.21 input  -60.11 | X-H torsion
[ 7974 7965 7964 7962 ] final  138.99 input  175.53 | X-H torsion
[ 8008 7997 7996 7995 ] final  122.42 input   59.86 | X-H torsion
[ 10167 10162 10161 10158 ] final -168.70 input  -65.29 | X-H torsion
[ 10718 10713 10712 10709 ] final   30.50 input   66.30 | X-H torsion
[ 10763 10752 10751 10750 ] final  -40.97 input  -60.55 | X-H torsion
[ 11005 11000 10999 10996 ] final  -99.52 input  -57.11 | X-H torsion

> <Gold.Protein.ActiveResidues>
 VAL166  LYS551  ARG553  GLY616  TRP617  ASP618  TYR619  PRO620  LYS621  CYS622 
 ASP623  PHE694  ASN695  SER759  ASP760  ASP761  ALA762  ILE779  LEU786  VAL792 
 PHE793  MET794  SER795  GLU796  ALA797  LYS798  CYS799  TRP800  GLU811  SER814 

> <Gold.Protein.RotatedAtoms>
  151.5848  133.3373  159.3015 H   0  0  0  0  0  0  0  0  0  0  0  0  # atno 6907 bound_to 6896
  150.8293  134.7542  159.6851 H   0  0  0  0  0  0  0  0  0  0  0  0  # atno 6908 bound_to 6896
  152.4378  134.5657  159.9958 H   0  0  0  0  0  0  0  0  0  0  0  0  # atno 6909 bound_to 6896
  144.9320  139.5035  143.5613 H   0  0  0  0  0  0  0  0  0  0  0  0  # atno 7974 bound_to 7965
  156.2727  140.2786  156.1465 H   0  0  0  0  0  0  0  0  0  0  0  0  # atno 8008 bound_to 7997
  155.0898  140.0388  157.2683 H   0  0  0  0  0  0  0  0  0  0  0  0  # atno 8009 bound_to 7997
  154.6898  140.2626  155.6829 H   0  0  0  0  0  0  0  0  0  0  0  0  # atno 8010 bound_to 7997
  139.5968  144.1094  152.1699 H   0  0  0  0  0  0  0  0  0  0  0  0  # atno 10167 bound_to 10162
  157.2604  130.7158  149.6451 H   0  0  0  0  0  0  0  0  0  0  0  0  # atno 10718 bound_to 10713
  153.9548  135.6746  153.4744 H   0  0  0  0  0  0  0  0  0  0  0  0  # atno 10763 bound_to 10752
  153.0867  135.4895  154.8607 H   0  0  0  0  0  0  0  0  0  0  0  0  # atno 10764 bound_to 10752
  154.7305  135.3137  154.8858 H   0  0  0  0  0  0  0  0  0  0  0  0  # atno 10765 bound_to 10752
  141.1306  133.8327  157.0982 H   0  0  0  0  0  0  0  0  0  0  0  0  # atno 11005 bound_to 11000
  146.3251  139.8277  142.8914 LP  0  0  0  0  0  0  0  0  0  0  0  0  # atno 17320 bound_to 7965
  145.3127  141.0224  143.3545 LP  0  0  0  0  0  0  0  0  0  0  0  0  # atno 17321 bound_to 7965
  140.0681  144.5802  150.7212 LP  0  0  0  0  0  0  0  0  0  0  0  0  # atno 17342 bound_to 10162
  140.7219  143.2597  151.4251 LP  0  0  0  0  0  0  0  0  0  0  0  0  # atno 17343 bound_to 10162
  155.9664  130.4399  150.5278 LP  0  0  0  0  0  0  0  0  0  0  0  0  # atno 17370 bound_to 10713
  157.3181  131.0676  151.1952 LP  0  0  0  0  0  0  0  0  0  0  0  0  # atno 17371 bound_to 10713
  140.0350  134.9883  157.0853 LP  0  0  0  0  0  0  0  0  0  0  0  0  # atno 17394 bound_to 11000
  140.4225  134.1866  155.7165 LP  0  0  0  0  0  0  0  0  0  0  0  0  # atno 17395 bound_to 11000

$$$$
