AV-unprocessed.smi:1396|AV-procd|sdf|5674|dock3
  -GOLD-   22720 5293D 1   1.00000     0.00000
 Structure written by MMmdl.
 46 47  0  0  0  0  0  0  0  0  1 V2000
  151.3570  130.8823  163.3713 C   0  0  0  0  0  0  0  0  0  0  0  0
  152.0340  132.0979  163.7958 N   0  0  0  0  0  0  0  0  0  0  0  0
  152.6956  132.2280  164.9548 C   0  0  0  0  0  0  0  0  0  0  0  0
  152.8047  131.3192  165.7776 O   0  0  0  0  0  0  0  0  0  0  0  0
  153.3389  133.5929  165.2284 C   0  0  0  0  0  0  0  0  0  0  0  0
  153.1397  134.5993  164.1596 N   0  0  0  0  0  0  0  0  0  0  0  0
  154.0489  134.3067  163.0462 C   0  0  0  0  0  0  0  0  0  0  0  0
  153.7792  135.2523  161.8628 C   0  0  0  0  0  0  0  0  0  0  0  0
  153.9389  136.7201  162.2818 C   0  0  0  0  0  0  0  0  0  0  0  0
  153.5688  137.5967  161.1750 N   0  0  0  0  0  0  0  0  0  0  0  0
  153.4324  138.9276  161.2587 C   0  0  0  0  0  0  0  0  0  0  0  0
  153.6309  139.5664  162.2919 O   0  0  0  0  0  0  0  0  0  0  0  0
  153.0736  139.4549  160.0758 N   0  0  0  0  0  0  0  0  0  0  0  0
  152.7535  140.8056  159.7713 C   0  0  0  0  0  0  0  0  0  0  0  0
  152.8366  141.7554  160.8090 C   0  0  0  0  0  0  0  0  0  0  0  0
  152.5507  143.1050  160.5298 C   0  0  0  0  0  0  0  0  0  0  0  0
  152.1975  143.4660  159.2145 C   0  0  0  0  0  0  0  0  0  0  0  0
  151.9212  144.7908  158.9446 O   0  0  0  0  0  0  0  0  0  0  0  0
  152.0005  145.7285  160.0128 C   0  0  0  0  0  0  0  0  0  0  0  0
  152.1258  142.5622  158.2063 N   0  0  0  0  0  0  0  0  0  0  0  0
  152.3994  141.2690  158.4806 C   0  0  0  0  0  0  0  0  0  0  0  0
  153.0561  136.9847  163.5127 C   0  0  0  0  0  0  0  0  0  0  0  0
  153.3470  135.9748  164.6362 C   0  0  0  0  0  0  0  0  0  0  0  0
  150.9146  131.0273  162.3858 H   0  0  0  0  0  0  0  0  0  0  0  0
  150.5598  130.6199  164.0679 H   0  0  0  0  0  0  0  0  0  0  0  0
  152.0566  130.0477  163.3113 H   0  0  0  0  0  0  0  0  0  0  0  0
  151.9905  132.8951  163.1772 H   0  0  0  0  0  0  0  0  0  0  0  0
  152.9566  133.9811  166.1744 H   0  0  0  0  0  0  0  0  0  0  0  0
  154.4068  133.4230  165.3733 H   0  0  0  0  0  0  0  0  0  0  0  0
  155.0878  134.3934  163.3696 H   0  0  0  0  0  0  0  0  0  0  0  0
  153.9067  133.2779  162.7129 H   0  0  0  0  0  0  0  0  0  0  0  0
  154.4614  135.0217  161.0438 H   0  0  0  0  0  0  0  0  0  0  0  0
  152.7705  135.0789  161.4840 H   0  0  0  0  0  0  0  0  0  0  0  0
  154.9842  136.8930  162.5448 H   0  0  0  0  0  0  0  0  0  0  0  0
  153.3919  137.1542  160.2851 H   0  0  0  0  0  0  0  0  0  0  0  0
  153.0476  138.8171  159.2939 H   0  0  0  0  0  0  0  0  0  0  0  0
  153.1147  141.4563  161.8091 H   0  0  0  0  0  0  0  0  0  0  0  0
  152.6042  143.8503  161.3096 H   0  0  0  0  0  0  0  0  0  0  0  0
  151.7502  146.7218  159.6403 H   0  0  0  0  0  0  0  0  0  0  0  0
  153.0080  145.7751  160.4289 H   0  0  0  0  0  0  0  0  0  0  0  0
  151.2950  145.4870  160.8092 H   0  0  0  0  0  0  0  0  0  0  0  0
  152.3509  140.6101  157.6280 H   0  0  0  0  0  0  0  0  0  0  0  0
  153.2188  137.9975  163.8831 H   0  0  0  0  0  0  0  0  0  0  0  0
  152.0022  136.9235  163.2362 H   0  0  0  0  0  0  0  0  0  0  0  0
  152.6858  136.2037  165.4717 H   0  0  0  0  0  0  0  0  0  0  0  0
  154.3686  136.0973  165.0002 H   0  0  0  0  0  0  0  0  0  0  0  0
  1  2  1  0  0  0  0
  1 24  1  0  0  0  0
  1 25  1  0  0  0  0
  1 26  1  0  0  0  0
  2  3  1  0  0  0  0
  2 27  1  0  0  0  0
  3  4  2  0  0  0  0
  3  5  1  0  0  0  0
  5  6  1  0  0  0  0
  5 28  1  0  0  0  0
  5 29  1  0  0  0  0
  6 23  1  0  0  0  0
  6  7  1  0  0  0  0
  7  8  1  0  0  0  0
  7 30  1  0  0  0  0
  7 31  1  0  0  0  0
  8  9  1  0  0  0  0
  8 32  1  0  0  0  0
  8 33  1  0  0  0  0
  9 10  1  0  0  0  0
  9 22  1  0  0  0  0
  9 34  1  0  0  0  0
 10 11  1  0  0  0  0
 10 35  1  0  0  0  0
 11 12  2  0  0  0  0
 11 13  1  0  0  0  0
 13 14  1  0  0  0  0
 13 36  1  0  0  0  0
 14 21  1  0  0  0  0
 14 15  2  0  0  0  0
 15 16  1  0  0  0  0
 15 37  1  0  0  0  0
 16 17  2  0  0  0  0
 16 38  1  0  0  0  0
 17 18  1  0  0  0  0
 17 20  1  0  0  0  0
 18 19  1  0  0  0  0
 19 39  1  0  0  0  0
 19 40  1  0  0  0  0
 19 41  1  0  0  0  0
 20 21  2  0  0  0  0
 21 42  1  0  0  0  0
 22 23  1  0  0  0  0
 22 43  1  0  0  0  0
 22 44  1  0  0  0  0
 23 45  1  0  0  0  0
 23 46  1  0  0  0  0
M  END
> <s_m_source_file>
AV-unprocessed.smi

> <i_m_source_file_index>
1396

> <i_lp_mmshare_version>
43012

> <i_f3d_flags>
0

> <s_epik_input>
W0NIM11bTkhdQyg9TylbQ0gyXU4xW0NIMl1bQ0gyXVtDSF0oW0NIMl1bQ0gyXTEpW05IXUMoPU8pW05IXWMyW2NIXVtjSF1jKE9bQ0gzXSluW2NIXTI=

> <s_epik_cmdline>
J2VwaWtfcHl0aG9uJywgJy1waCcsICc3LjAnLCAnLXRuJywgJzgnLCAnLW1hJywgJzIwMCcsICctbWV0YWxfYmluZGluZycsICctaW1hZScsICc8aW5maWxlLm1hZT4nLCAnLW9tYWUnLCAnPG91dGZpbGUubWFlPic=

> <r_lp_tautomer_probability>
1

> <r_epik_Ionization_Penalty>
0.16483

> <r_epik_Ionization_Penalty_Charging>
0

> <r_epik_Ionization_Penalty_Neutral>
0.16483

> <r_epik_State_Penalty>
0.154069

> <r_epik_Charging_Adjusted_Penalty>
0.154069

> <i_epik_Tot_Q>
0

> <i_epik_Tot_abs_Q>
0

> <r_epik_Metal_State_Penalty>
0.158584

> <b_epik_Metal_Only>
0

> <s_lp_Force_Field>
OPLS_2005

> <r_lp_Energy>
15.765

> <b_lp_Chiralities_Consistent>
1

> <s_lp_Variant>
AV-unprocessed.smi:1396-1

> <Gold.Version>
5.8.1

> <Gold.Id.Protein>
6NUR|6NUR_protein|mol2

> <Gold.PLP.Fitness>
40.8018

> <Gold.PLP.PLP>
-41.9600

> <Gold.PLP.part.hbond>
0.0000

> <Gold.PLP.part.metal>
0.0000

> <Gold.PLP.part.buried>
-6.8135

> <Gold.PLP.part.nonpolar>
-35.1001

> <Gold.PLP.part.repulsive>
0.2904

> <Gold.PLP.ligand.clash>
0.7255

> <Gold.PLP.ligand.torsion>
0.2429

> <Gold.PLP.Chemscore.Hbond>
0.0000

> <Gold.PLP.Chemscore.CHOScore>
0.0000

> <Gold.PLP.Chemscore.Metal>
0.0000

> <Gold.PLP.Chemscore.Internal.Correction>
0.0532

> <Gold.Rescore>
     Score         DG    S(hbond)    S(metal)    S(lipo)     H(rot)  DE(clash)    DE(int)     intcor
      8.40     -11.83       0.00        0.00      97.27       1.96       0.02       3.41       ----

> <Gold.Chemscore.Fitness>
8.3980

> <Gold.Chemscore.DG>
-11.8321

> <Gold.Chemscore.ZeroCoef>
-5.4800

> <Gold.Chemscore.Hbond>
0.0000

> <Gold.Chemscore.Metal>
0.0000

> <Gold.Chemscore.Lipo>
97.2745

> <Gold.Chemscore.Internal_Hbond>
0.0000

> <Gold.Chemscore.DEClash>
0.0222

> <Gold.Chemscore.DEInternal>
3.4119

> <Gold.Chemscore.Rot>
1.9645

> <Gold.Chemscore.Internal.Correction>
   9.000000E+99

> <Gold.Chemscore.Hbond.Weighted>
-0.0000

> <Gold.Chemscore.Metal.Weighted>
-0.0000

> <Gold.Chemscore.Lipo.Weighted>
-11.3811

> <Gold.Chemscore.Internal_Hbond.Weighted>
0.0000

> <Gold.Chemscore.DEClash.Weighted>
0.0222

> <Gold.Chemscore.DEInternal.Weighted>
3.4119

> <Gold.Chemscore.Rot.Weighted>
5.0290

> <Gold.Chemscore.Internal.Correction.Weighted>
   9.000000E+99

> <Gold.Protein.RotatedTorsions>
[ 6907 6896 6895 6894 ] final   25.60 input  -60.11 | X-H torsion
[ 7974 7965 7964 7962 ] final   92.17 input  175.53 | X-H torsion
[ 8008 7997 7996 7995 ] final   95.97 input   59.86 | X-H torsion
[ 10167 10162 10161 10158 ] final   59.37 input  -65.29 | X-H torsion
[ 10718 10713 10712 10709 ] final  -89.05 input   66.30 | X-H torsion
[ 10763 10752 10751 10750 ] final -140.62 input  -60.55 | X-H torsion
[ 11005 11000 10999 10996 ] final -143.14 input  -57.11 | X-H torsion

> <Gold.Protein.ActiveResidues>
 VAL166  LYS551  ARG553  GLY616  TRP617  ASP618  TYR619  PRO620  LYS621  CYS622 
 ASP623  PHE694  ASN695  SER759  ASP760  ASP761  ALA762  ILE779  LEU786  VAL792 
 PHE793  MET794  SER795  GLU796  ALA797  LYS798  CYS799  TRP800  GLU811  SER814 

> <Gold.Protein.RotatedAtoms>
  151.9750  135.0058  160.0554 H   0  0  0  0  0  0  0  0  0  0  0  0  # atno 6907 bound_to 6896
  152.1749  133.4663  159.4936 H   0  0  0  0  0  0  0  0  0  0  0  0  # atno 6908 bound_to 6896
  150.6907  134.1824  159.4297 H   0  0  0  0  0  0  0  0  0  0  0  0  # atno 6909 bound_to 6896
  145.4959  139.2276  143.2804 H   0  0  0  0  0  0  0  0  0  0  0  0  # atno 7974 bound_to 7965
  156.0746  140.3279  155.7618 H   0  0  0  0  0  0  0  0  0  0  0  0  # atno 8008 bound_to 7997
  155.5251  140.0588  157.2917 H   0  0  0  0  0  0  0  0  0  0  0  0  # atno 8009 bound_to 7997
  154.4548  140.1937  156.0428 H   0  0  0  0  0  0  0  0  0  0  0  0  # atno 8010 bound_to 7997
  140.1772  144.4218  150.6632 H   0  0  0  0  0  0  0  0  0  0  0  0  # atno 10167 bound_to 10162
  155.9984  130.4858  150.5113 H   0  0  0  0  0  0  0  0  0  0  0  0  # atno 10718 bound_to 10713
  154.8572  135.3548  154.5737 H   0  0  0  0  0  0  0  0  0  0  0  0  # atno 10763 bound_to 10752
  153.6349  135.7000  153.5267 H   0  0  0  0  0  0  0  0  0  0  0  0  # atno 10764 bound_to 10752
  153.3019  135.4204  155.1219 H   0  0  0  0  0  0  0  0  0  0  0  0  # atno 10765 bound_to 10752
  140.8155  134.2694  157.4923 H   0  0  0  0  0  0  0  0  0  0  0  0  # atno 11005 bound_to 11000
  146.2256  140.5756  142.8998 LP  0  0  0  0  0  0  0  0  0  0  0  0  # atno 17320 bound_to 7965
  144.7807  140.5835  143.6607 LP  0  0  0  0  0  0  0  0  0  0  0  0  # atno 17321 bound_to 7965
  140.6543  143.2233  151.6004 LP  0  0  0  0  0  0  0  0  0  0  0  0  # atno 17342 bound_to 10162
  139.5312  144.2911  152.1151 LP  0  0  0  0  0  0  0  0  0  0  0  0  # atno 17343 bound_to 10162
  157.3085  131.0659  151.2017 LP  0  0  0  0  0  0  0  0  0  0  0  0  # atno 17370 bound_to 10713
  157.2972  130.6825  149.6145 LP  0  0  0  0  0  0  0  0  0  0  0  0  # atno 17371 bound_to 10713
  139.8711  134.9506  156.4062 LP  0  0  0  0  0  0  0  0  0  0  0  0  # atno 17394 bound_to 11000
  140.9153  133.7682  155.9841 LP  0  0  0  0  0  0  0  0  0  0  0  0  # atno 17395 bound_to 11000

$$$$
