AV-unprocessed.smi:652|AV-procd|sdf|3199|dock3
  -GOLD-   22720 0133D 1   1.00000     0.00000
 Structure written by MMmdl.
 49 50  0  0  0  0  0  0  0  0  3 V2000
  145.9434  142.9754  153.7323 C   0  0  0  0  0  0  0  0  0  0  0  0
  146.2674  141.5726  154.2637 C   0  0  0  0  0  0  0  0  0  0  0  0
  147.1079  140.7677  153.2595 C   0  0  0  0  0  0  0  0  0  0  0  0
  145.0238  140.8703  154.5687 N   0  0  0  0  0  0  0  0  0  0  0  0
  144.6285  140.4831  155.7917 C   0  0  0  0  0  0  0  0  0  0  0  0
  145.2881  140.6894  156.8107 O   0  0  0  0  0  0  0  0  0  0  0  0
  143.2834  139.7520  155.8662 C   0  0  0  0  0  0  0  0  0  0  0  0
  143.3209  138.3513  155.2200 C   0  0  0  0  0  0  0  0  0  0  0  0
  142.6499  138.3194  153.8927 N   0  3  2  0  0  0  0  0  0  0  0  0
  141.1891  138.5696  153.9622 C   0  0  0  0  0  0  0  0  0  0  0  0
  140.4337  137.3224  154.4558 C   0  0  0  0  0  0  0  0  0  0  0  0
  140.7136  136.2256  153.5939 O   0  0  0  0  0  0  0  0  0  0  0  0
  142.0979  135.8923  153.5621 C   0  0  1  0  0  0  0  0  0  0  0  0
  142.2823  134.6341  152.6955 C   0  0  0  0  0  0  0  0  0  0  0  0
  143.6140  134.0575  152.8218 N   0  0  0  0  0  0  0  0  0  0  0  0
  144.1694  133.3151  151.7712 C   0  0  0  0  0  0  0  0  0  0  0  0
  145.4518  132.7200  151.8109 C   0  0  0  0  0  0  0  0  0  0  0  0
  145.8860  131.9979  150.6862 C   0  0  0  0  0  0  0  0  0  0  0  0
  145.0117  131.9143  149.5880 C   0  0  0  0  0  0  0  0  0  0  0  0
  143.7894  132.4912  149.5695 N   0  0  0  0  0  0  0  0  0  0  0  0
  143.4026  133.1750  150.6606 N   0  3  0  0  0  0  0  0  0  0  0  0
  142.9270  137.1070  153.0790 C   0  0  0  0  0  0  0  0  0  0  0  0
  146.8559  143.5345  153.5234 H   0  0  0  0  0  0  0  0  0  0  0  0
  145.3664  143.5486  154.4591 H   0  0  0  0  0  0  0  0  0  0  0  0
  145.3646  142.9274  152.8089 H   0  0  0  0  0  0  0  0  0  0  0  0
  146.8433  141.6912  155.1835 H   0  0  0  0  0  0  0  0  0  0  0  0
  148.0402  141.2837  153.0283 H   0  0  0  0  0  0  0  0  0  0  0  0
  146.5706  140.6177  152.3224 H   0  0  0  0  0  0  0  0  0  0  0  0
  147.3685  139.7859  153.6558 H   0  0  0  0  0  0  0  0  0  0  0  0
  144.4189  140.6636  153.7870 H   0  0  0  0  0  0  0  0  0  0  0  0
  143.0012  139.6688  156.9166 H   0  0  0  0  0  0  0  0  0  0  0  0
  142.5278  140.3742  155.3866 H   0  0  0  0  0  0  0  0  0  0  0  0
  144.3462  137.9888  155.1448 H   0  0  0  0  0  0  0  0  0  0  0  0
  142.8010  137.6564  155.8816 H   0  0  0  0  0  0  0  0  0  0  0  0
  140.9736  139.4301  154.5970 H   0  0  0  0  0  0  0  0  0  0  0  0
  140.8364  138.8326  152.9641 H   0  0  0  0  0  0  0  0  0  0  0  0
  140.7033  137.0754  155.4838 H   0  0  0  0  0  0  0  0  0  0  0  0
  139.3598  137.5086  154.4475 H   0  0  0  0  0  0  0  0  0  0  0  0
  142.4070  135.6268  154.5740 H   0  0  0  0  0  0  0  0  0  0  0  0
  141.5418  133.8849  152.9786 H   0  0  0  0  0  0  0  0  0  0  0  0
  142.1008  134.8851  151.6496 H   0  0  0  0  0  0  0  0  0  0  0  0
  144.2092  134.3763  153.5730 H   0  0  0  0  0  0  0  0  0  0  0  0
  146.0966  132.8072  152.6727 H   0  0  0  0  0  0  0  0  0  0  0  0
  146.8565  131.5241  150.6643 H   0  0  0  0  0  0  0  0  0  0  0  0
  145.2991  131.3713  148.6995 H   0  0  0  0  0  0  0  0  0  0  0  0
  142.6678  137.3430  152.0463 H   0  0  0  0  0  0  0  0  0  0  0  0
  143.9900  136.8696  153.0745 H   0  0  0  0  0  0  0  0  0  0  0  0
  143.0371  139.1034  153.3865 H   0  0  0  0  0  0  0  0  0  0  0  0
  142.4804  133.6116  150.6532 H   0  0  0  0  0  0  0  0  0  0  0  0
  1  2  1  0  0  0  0
  1 23  1  0  0  0  0
  1 24  1  0  0  0  0
  1 25  1  0  0  0  0
  2  3  1  0  0  0  0
  2  4  1  0  0  0  0
  2 26  1  0  0  0  0
  3 27  1  0  0  0  0
  3 28  1  0  0  0  0
  3 29  1  0  0  0  0
  4  5  1  0  0  0  0
  4 30  1  0  0  0  0
  5  6  2  0  0  0  0
  5  7  1  0  0  0  0
  7  8  1  0  0  0  0
  7 31  1  0  0  0  0
  7 32  1  0  0  0  0
  8  9  1  0  0  0  0
  8 33  1  0  0  0  0
  8 34  1  0  0  0  0
  9 22  1  0  0  0  0
  9 10  1  0  0  0  0
  9 48  1  0  0  0  0
 10 11  1  0  0  0  0
 10 35  1  0  0  0  0
 10 36  1  0  0  0  0
 11 12  1  0  0  0  0
 11 37  1  0  0  0  0
 11 38  1  0  0  0  0
 12 13  1  0  0  0  0
 13 14  1  0  0  0  0
 13 22  1  0  0  0  0
 13 39  1  0  0  0  0
 14 15  1  0  0  0  0
 14 40  1  0  0  0  0
 14 41  1  0  0  0  0
 15 16  1  0  0  0  0
 15 42  1  0  0  0  0
 16 21  1  0  0  0  0
 16 17  2  0  0  0  0
 17 18  1  0  0  0  0
 17 43  1  0  0  0  0
 18 19  2  0  0  0  0
 18 44  1  0  0  0  0
 19 20  1  0  0  0  0
 19 45  1  0  0  0  0
 20 21  2  0  0  0  0
 21 49  1  0  0  0  0
 22 46  1  0  0  0  0
 22 47  1  0  0  0  0
M  CHG  1   9   1
M  CHG  1  21   1
M  END
> <s_m_source_file>
AV-unprocessed.smi

> <i_m_source_file_index>
652

> <i_lp_mmshare_version>
43012

> <i_f3d_flags>
0

> <s_epik_input>
W0NIM11bQ0hdKFtDSDNdKVtOSF1DKD1PKVtDSDJdW0NIMl1OMVtDSDJdW0NIMl1PW0NASF0oW0NIMl0xKVtDSDJdW05IXWMyW2NIXVtjSF1bY0hdbm4y

> <s_epik_cmdline>
J2VwaWtfcHl0aG9uJywgJy1waCcsICc3LjAnLCAnLXRuJywgJzgnLCAnLW1hJywgJzIwMCcsICctbWV0YWxfYmluZGluZycsICctaW1hZScsICc8aW5maWxlLm1hZT4nLCAnLW9tYWUnLCAnPG91dGZpbGUubWFlPic=

> <r_lp_tautomer_probability>
0.966961

> <r_epik_Ionization_Penalty>
2.79885

> <r_epik_Ionization_Penalty_Charging>
2.79884

> <r_epik_Ionization_Penalty_Neutral>
3.2567e-06

> <r_epik_State_Penalty>
2.43203

> <r_epik_Charging_Adjusted_Penalty>
5.23087

> <i_epik_Tot_Q>
2

> <i_epik_Tot_abs_Q>
2

> <r_epik_Metal_State_Penalty>
2.43963

> <b_epik_Metal_Only>
0

> <s_lp_Force_Field>
OPLS_2005

> <r_lp_Energy>
35.8493

> <b_lp_Chiralities_Consistent>
1

> <s_lp_Variant>
AV-unprocessed.smi:652-8

> <Gold.Version>
5.8.1

> <Gold.Id.Protein>
6NUR|6NUR_protein|mol2

> <Gold.PLP.Fitness>
49.3206

> <Gold.PLP.PLP>
-35.8706

> <Gold.PLP.part.hbond>
-3.1155

> <Gold.PLP.part.metal>
0.0000

> <Gold.PLP.part.buried>
-8.6132

> <Gold.PLP.part.nonpolar>
-24.7356

> <Gold.PLP.part.repulsive>
0.3973

> <Gold.PLP.ligand.clash>
0.2491

> <Gold.PLP.ligand.torsion>
0.6977

> <Gold.PLP.Chemscore.Hbond>
5.0000

> <Gold.PLP.Chemscore.CHOScore>
0.0000

> <Gold.PLP.Chemscore.Metal>
0.0000

> <Gold.Chemscore.Hbonds>
donor molecule, donor type, donor heavy atom, donor atom, acceptor molecule, acceptor atom, score
      L1  H     4    30       P1 10175  0.93
      L1  H     9    48       P1 10175  2.00
      L1  H    21    49       P1 10186  1.92

> <Gold.PLP.Chemscore.Internal.Correction>
0.0945

> <Gold.Rescore>
     Score         DG    S(hbond)    S(metal)    S(lipo)     H(rot)  DE(clash)    DE(int)     intcor
     17.66     -18.45       2.97        0.00      77.14       2.33       0.15       0.64       ----

> <Gold.Chemscore.Fitness>
17.6637

> <Gold.Chemscore.DG>
-18.4533

> <Gold.Chemscore.ZeroCoef>
-5.4800

> <Gold.Chemscore.Hbond>
2.9697

> <Gold.Chemscore.Metal>
0.0000

> <Gold.Chemscore.Lipo>
77.1435

> <Gold.Chemscore.Internal_Hbond>
0.0000

> <Gold.Chemscore.DEClash>
0.1516

> <Gold.Chemscore.DEInternal>
0.6381

> <Gold.Chemscore.Rot>
2.3326

> <Gold.Chemscore.Internal.Correction>
   9.000000E+99

> <Gold.Chemscore.Hbonds>
donor molecule, donor type, donor heavy atom, donor atom, acceptor molecule, acceptor atom, score
      L1  H     4    30       P1 10175  0.88
      L1  H     9    48       P1 10175  1.00
      L1  H    21    49       P1 10186  0.83

> <Gold.Chemscore.Hbond.Weighted>
-9.9189

> <Gold.Chemscore.Metal.Weighted>
-0.0000

> <Gold.Chemscore.Lipo.Weighted>
-9.0258

> <Gold.Chemscore.Internal_Hbond.Weighted>
0.0000

> <Gold.Chemscore.DEClash.Weighted>
0.1516

> <Gold.Chemscore.DEInternal.Weighted>
0.6381

> <Gold.Chemscore.Rot.Weighted>
5.9714

> <Gold.Chemscore.Internal.Correction.Weighted>
   9.000000E+99

> <Gold.Protein.RotatedTorsions>
[ 6907 6896 6895 6894 ] final  -84.02 input  -60.11 | X-H torsion
[ 7974 7965 7964 7962 ] final  165.71 input  175.53 | X-H torsion
[ 8008 7997 7996 7995 ] final  178.70 input   59.86 | X-H torsion
[ 10167 10162 10161 10158 ] final   83.65 input  -65.29 | X-H torsion
[ 10718 10713 10712 10709 ] final  109.43 input   66.30 | X-H torsion
[ 10763 10752 10751 10750 ] final -109.79 input  -60.55 | X-H torsion
[ 11005 11000 10999 10996 ] final   47.65 input  -57.11 | X-H torsion

> <Gold.Protein.ActiveResidues>
 VAL166  LYS551  ARG553  GLY616  TRP617  ASP618  TYR619  PRO620  LYS621  CYS622 
 ASP623  PHE694  ASN695  SER759  ASP760  ASP761  ALA762  ILE779  LEU786  VAL792 
 PHE793  MET794  SER795  GLU796  ALA797  LYS798  CYS799  TRP800  GLU811  SER814 

> <Gold.Protein.RotatedAtoms>
  150.6880  134.3423  159.4872 H   0  0  0  0  0  0  0  0  0  0  0  0  # atno 6907 bound_to 6896
  152.1275  134.9157  160.0569 H   0  0  0  0  0  0  0  0  0  0  0  0  # atno 6908 bound_to 6896
  152.0340  133.3914  159.4346 H   0  0  0  0  0  0  0  0  0  0  0  0  # atno 6909 bound_to 6896
  144.7491  139.8510  143.6372 H   0  0  0  0  0  0  0  0  0  0  0  0  # atno 7974 bound_to 7965
  156.0517  140.1327  157.0043 H   0  0  0  0  0  0  0  0  0  0  0  0  # atno 8008 bound_to 7997
  154.4438  140.1009  156.6456 H   0  0  0  0  0  0  0  0  0  0  0  0  # atno 8009 bound_to 7997
  155.5513  140.3463  155.4471 H   0  0  0  0  0  0  0  0  0  0  0  0  # atno 8010 bound_to 7997
  139.9162  144.6241  150.8487 H   0  0  0  0  0  0  0  0  0  0  0  0  # atno 10167 bound_to 10162
  157.6541  131.0913  150.6453 H   0  0  0  0  0  0  0  0  0  0  0  0  # atno 10718 bound_to 10713
  154.8212  135.4588  154.0786 H   0  0  0  0  0  0  0  0  0  0  0  0  # atno 10763 bound_to 10752
  153.2137  135.6885  153.8089 H   0  0  0  0  0  0  0  0  0  0  0  0  # atno 10764 bound_to 10752
  153.7531  135.3295  155.3301 H   0  0  0  0  0  0  0  0  0  0  0  0  # atno 10765 bound_to 10752
  140.1261  134.4767  155.8559 H   0  0  0  0  0  0  0  0  0  0  0  0  # atno 11005 bound_to 11000
  146.1416  139.4475  143.0105 LP  0  0  0  0  0  0  0  0  0  0  0  0  # atno 17320 bound_to 7965
  145.7009  141.0136  143.1505 LP  0  0  0  0  0  0  0  0  0  0  0  0  # atno 17321 bound_to 7965
  140.7673  143.3330  151.2370 LP  0  0  0  0  0  0  0  0  0  0  0  0  # atno 17342 bound_to 10162
  139.6900  143.9708  152.2854 LP  0  0  0  0  0  0  0  0  0  0  0  0  # atno 17343 bound_to 10162
  156.6761  130.4553  149.5642 LP  0  0  0  0  0  0  0  0  0  0  0  0  # atno 17370 bound_to 10713
  156.1962  130.6591  151.1117 LP  0  0  0  0  0  0  0  0  0  0  0  0  # atno 17371 bound_to 10713
  141.2161  133.6778  156.6980 LP  0  0  0  0  0  0  0  0  0  0  0  0  # atno 17394 bound_to 11000
  140.2903  134.8246  157.4010 LP  0  0  0  0  0  0  0  0  0  0  0  0  # atno 17395 bound_to 11000

$$$$
