AV-unprocessed.smi:1580|AV-procd|sdf|6359|dock5
  -GOLD-   22720 6583D 1   1.00000     0.00000
 Structure written by MMmdl.
 37 38  0  0  0  0  0  0  0  0  1 V2000
  151.1101  136.6658  156.4892 C   0  0  0  0  0  0  0  0  0  0  0  0
  151.9328  138.1279  155.7363 S   0  0  0  0  0  0  0  0  0  0  0  0
  153.1354  138.4271  156.5295 O   0  0  0  0  0  0  0  0  0  0  0  0
  152.0572  137.8935  154.2892 O   0  0  0  0  0  0  0  0  0  0  0  0
  150.7542  139.4518  155.9805 C   0  0  0  0  0  0  0  0  0  0  0  0
  150.6726  140.5134  155.0579 C   0  0  0  0  0  0  0  0  0  0  0  0
  149.7559  141.5501  155.3168 C   0  0  0  0  0  0  0  0  0  0  0  0
  148.9631  141.4881  156.4904 C   0  0  0  0  0  0  0  0  0  0  0  0
  148.0024  142.4633  156.8784 N   0  0  0  0  0  0  0  0  0  0  0  0
  146.9491  142.3460  157.7056 C   0  0  0  0  0  0  0  0  0  0  0  0
  146.6109  141.3216  158.2971 O   0  0  0  0  0  0  0  0  0  0  0  0
  146.2935  143.5095  157.8169 N   0  0  0  0  0  0  0  0  0  0  0  0
  145.0949  143.7197  158.6210 C   0  0  0  0  0  0  0  0  0  0  0  0
  143.8221  143.6617  157.7602 C   0  0  1  0  0  0  0  0  0  0  0  0
  143.6066  144.9044  156.8984 C   0  0  0  0  0  0  0  0  0  0  0  0
  142.7511  144.3542  155.7806 C   0  0  0  0  0  0  0  0  0  0  0  0
  143.3711  142.9768  155.5663 C   0  0  0  0  0  0  0  0  0  0  0  0
  143.8918  142.5800  156.8329 O   0  0  0  0  0  0  0  0  0  0  0  0
  149.1495  140.3844  157.3509 C   0  0  0  0  0  0  0  0  0  0  0  0
  150.0256  139.3859  157.1146 N   0  0  0  0  0  0  0  0  0  0  0  0
  151.7559  135.7939  156.3880 H   0  0  0  0  0  0  0  0  0  0  0  0
  150.1648  136.4783  155.9803 H   0  0  0  0  0  0  0  0  0  0  0  0
  150.9223  136.8583  157.5453 H   0  0  0  0  0  0  0  0  0  0  0  0
  151.2927  140.5391  154.1742 H   0  0  0  0  0  0  0  0  0  0  0  0
  149.6940  142.3645  154.6134 H   0  0  0  0  0  0  0  0  0  0  0  0
  148.1514  143.3839  156.4921 H   0  0  0  0  0  0  0  0  0  0  0  0
  146.6366  144.3038  157.2971 H   0  0  0  0  0  0  0  0  0  0  0  0
  145.0464  142.9753  159.4174 H   0  0  0  0  0  0  0  0  0  0  0  0
  145.1731  144.6906  159.1108 H   0  0  0  0  0  0  0  0  0  0  0  0
  142.9410  143.5123  158.3866 H   0  0  0  0  0  0  0  0  0  0  0  0
  143.1292  145.7205  157.4413 H   0  0  0  0  0  0  0  0  0  0  0  0
  144.5545  145.2672  156.4979 H   0  0  0  0  0  0  0  0  0  0  0  0
  141.7175  144.2545  156.1146 H   0  0  0  0  0  0  0  0  0  0  0  0
  142.7640  144.9730  154.8830 H   0  0  0  0  0  0  0  0  0  0  0  0
  142.6507  142.2524  155.1863 H   0  0  0  0  0  0  0  0  0  0  0  0
  144.1971  143.0369  154.8567 H   0  0  0  0  0  0  0  0  0  0  0  0
  148.5762  140.2985  158.2625 H   0  0  0  0  0  0  0  0  0  0  0  0
  1  2  1  0  0  0  0
  1 21  1  0  0  0  0
  1 22  1  0  0  0  0
  1 23  1  0  0  0  0
  2  3  2  0  0  0  0
  2  4  2  0  0  0  0
  2  5  1  0  0  0  0
  5 20  1  0  0  0  0
  5  6  2  0  0  0  0
  6  7  1  0  0  0  0
  6 24  1  0  0  0  0
  7  8  2  0  0  0  0
  7 25  1  0  0  0  0
  8  9  1  0  0  0  0
  8 19  1  0  0  0  0
  9 10  1  0  0  0  0
  9 26  1  0  0  0  0
 10 11  2  0  0  0  0
 10 12  1  0  0  0  0
 12 13  1  0  0  0  0
 12 27  1  0  0  0  0
 13 14  1  0  0  0  0
 13 28  1  0  0  0  0
 13 29  1  0  0  0  0
 14 18  1  0  0  0  0
 14 15  1  0  0  0  0
 14 30  1  0  0  0  0
 15 16  1  0  0  0  0
 15 31  1  0  0  0  0
 15 32  1  0  0  0  0
 16 17  1  0  0  0  0
 16 33  1  0  0  0  0
 16 34  1  0  0  0  0
 17 18  1  0  0  0  0
 17 35  1  0  0  0  0
 17 36  1  0  0  0  0
 19 20  2  0  0  0  0
 19 37  1  0  0  0  0
M  END
> <s_m_source_file>
AV-unprocessed.smi

> <i_m_source_file_index>
1580

> <i_lp_mmshare_version>
43012

> <i_f3d_flags>
0

> <s_epik_input>
W0NIM11TKD1PKSg9TyljMVtjSF1bY0hdYyhbY0hdbjEpW05IXUMoPU8pW05IXVtDSDJdW0NAQEhdMltDSDJdW0NIMl1bQ0gyXU8y

> <s_epik_cmdline>
J2VwaWtfcHl0aG9uJywgJy1waCcsICc3LjAnLCAnLXRuJywgJzgnLCAnLW1hJywgJzIwMCcsICctbWV0YWxfYmluZGluZycsICctaW1hZScsICc8aW5maWxlLm1hZT4nLCAnLW9tYWUnLCAnPG91dGZpbGUubWFlPic=

> <r_lp_tautomer_probability>
1

> <r_epik_Ionization_Penalty>
3.28405e-05

> <r_epik_Ionization_Penalty_Charging>
0

> <r_epik_Ionization_Penalty_Neutral>
3.28405e-05

> <r_epik_State_Penalty>
-0

> <r_epik_Charging_Adjusted_Penalty>
0

> <i_epik_Tot_Q>
0

> <i_epik_Tot_abs_Q>
0

> <r_epik_Metal_State_Penalty>
-0

> <b_epik_Metal_Only>
0

> <s_lp_Force_Field>
OPLS_2005

> <r_lp_Energy>
18.5383

> <b_lp_Chiralities_Consistent>
1

> <s_lp_Variant>
AV-unprocessed.smi:1580-2

> <Gold.Version>
5.8.1

> <Gold.Id.Protein>
6NUR|6NUR_protein|mol2

> <Gold.PLP.Fitness>
49.6379

> <Gold.PLP.PLP>
-37.3403

> <Gold.PLP.part.hbond>
-7.0000

> <Gold.PLP.part.metal>
0.0000

> <Gold.PLP.part.buried>
-5.1067

> <Gold.PLP.part.nonpolar>
-25.8579

> <Gold.PLP.part.repulsive>
0.4337

> <Gold.PLP.ligand.clash>
0.0000

> <Gold.PLP.ligand.torsion>
1.5523

> <Gold.PLP.Chemscore.Hbond>
4.4580

> <Gold.PLP.Chemscore.CHOScore>
0.0000

> <Gold.PLP.Chemscore.Metal>
0.0000

> <Gold.Chemscore.Hbonds>
donor molecule, donor type, donor heavy atom, donor atom, acceptor molecule, acceptor atom, score
      L1  H     9    26       P1  8028  0.90
      L1  H    12    27       P1  8029  0.24
      P1  H  7997  8010       L1     3  0.06
      P1  H 10752 10763       L1     4  0.07

> <Gold.PLP.Chemscore.Internal.Correction>
2.0282

> <Gold.Rescore>
     Score         DG    S(hbond)    S(metal)    S(lipo)     H(rot)  DE(clash)    DE(int)     intcor
     17.63     -20.52       3.41        0.00      59.09       1.27       0.12       2.77       ----

> <Gold.Chemscore.Fitness>
17.6262

> <Gold.Chemscore.DG>
-20.5179

> <Gold.Chemscore.ZeroCoef>
-5.4800

> <Gold.Chemscore.Hbond>
3.4078

> <Gold.Chemscore.Metal>
0.0000

> <Gold.Chemscore.Lipo>
59.0897

> <Gold.Chemscore.Internal_Hbond>
0.0000

> <Gold.Chemscore.DEClash>
0.1235

> <Gold.Chemscore.DEInternal>
2.7682

> <Gold.Chemscore.Rot>
1.2725

> <Gold.Chemscore.Internal.Correction>
   9.000000E+99

> <Gold.Chemscore.Hbonds>
donor molecule, donor type, donor heavy atom, donor atom, acceptor molecule, acceptor atom, score
      L1  H     9    26       P1  8028  0.18
      P1  H  6934  6946       L1    11  0.02
      P1  H  7997  8010       L1     3  0.06
      P1  H 10752 10763       L1     4  0.05

> <Gold.Chemscore.Hbond.Weighted>
-11.3820

> <Gold.Chemscore.Metal.Weighted>
-0.0000

> <Gold.Chemscore.Lipo.Weighted>
-6.9135

> <Gold.Chemscore.Internal_Hbond.Weighted>
0.0000

> <Gold.Chemscore.DEClash.Weighted>
0.1235

> <Gold.Chemscore.DEInternal.Weighted>
2.7682

> <Gold.Chemscore.Rot.Weighted>
3.2576

> <Gold.Chemscore.Internal.Correction.Weighted>
   9.000000E+99

> <Gold.Protein.RotatedTorsions>
[ 6907 6896 6895 6894 ] final  116.60 input  -60.11 | X-H torsion
[ 7974 7965 7964 7962 ] final -159.35 input  175.53 | X-H torsion
[ 8008 7997 7996 7995 ] final  113.10 input   59.86 | X-H torsion
[ 10167 10162 10161 10158 ] final  139.26 input  -65.29 | X-H torsion
[ 10718 10713 10712 10709 ] final  -26.30 input   66.30 | X-H torsion
[ 10763 10752 10751 10750 ] final   28.02 input  -60.55 | X-H torsion
[ 11005 11000 10999 10996 ] final  123.11 input  -57.11 | X-H torsion

> <Gold.Protein.ActiveResidues>
 VAL166  LYS551  ARG553  GLY616  TRP617  ASP618  TYR619  PRO620  LYS621  CYS622 
 ASP623  PHE694  ASN695  SER759  ASP760  ASP761  ALA762  ILE779  LEU786  VAL792 
 PHE793  MET794  SER795  GLU796  ALA797  LYS798  CYS799  TRP800  GLU811  SER814 

> <Gold.Protein.RotatedAtoms>
  152.4667  133.7939  159.6916 H   0  0  0  0  0  0  0  0  0  0  0  0  # atno 6907 bound_to 6896
  150.8635  133.7599  159.2991 H   0  0  0  0  0  0  0  0  0  0  0  0  # atno 6908 bound_to 6896
  151.5157  135.1069  159.9917 H   0  0  0  0  0  0  0  0  0  0  0  0  # atno 6909 bound_to 6896
  144.7469  140.3698  143.6078 H   0  0  0  0  0  0  0  0  0  0  0  0  # atno 7974 bound_to 7965
  156.2236  140.2986  156.0013 H   0  0  0  0  0  0  0  0  0  0  0  0  # atno 8008 bound_to 7997
  155.2416  140.0422  157.2992 H   0  0  0  0  0  0  0  0  0  0  0  0  # atno 8009 bound_to 7997
  154.5880  140.2393  155.7968 H   0  0  0  0  0  0  0  0  0  0  0  0  # atno 8010 bound_to 7997
  139.5084  144.6305  151.5829 H   0  0  0  0  0  0  0  0  0  0  0  0  # atno 10167 bound_to 10162
  156.4531  130.4488  149.6977 H   0  0  0  0  0  0  0  0  0  0  0  0  # atno 10718 bound_to 10713
  153.0518  135.6523  154.0674 H   0  0  0  0  0  0  0  0  0  0  0  0  # atno 10763 bound_to 10752
  154.0361  135.2907  155.3363 H   0  0  0  0  0  0  0  0  0  0  0  0  # atno 10764 bound_to 10752
  154.6811  135.5319  153.8331 H   0  0  0  0  0  0  0  0  0  0  0  0  # atno 10765 bound_to 10752
  139.9298  134.9641  156.8210 H   0  0  0  0  0  0  0  0  0  0  0  0  # atno 11005 bound_to 11000
  145.7090  139.1680  143.2550 LP  0  0  0  0  0  0  0  0  0  0  0  0  # atno 17320 bound_to 7965
  146.1361  140.7121  142.9389 LP  0  0  0  0  0  0  0  0  0  0  0  0  # atno 17321 bound_to 7965
  140.6036  143.9565  150.6403 LP  0  0  0  0  0  0  0  0  0  0  0  0  # atno 17342 bound_to 10162
  140.2785  143.3406  152.1173 LP  0  0  0  0  0  0  0  0  0  0  0  0  # atno 17343 bound_to 10162
  156.3795  130.7572  151.2563 LP  0  0  0  0  0  0  0  0  0  0  0  0  # atno 17370 bound_to 10713
  157.7502  131.0299  150.4116 LP  0  0  0  0  0  0  0  0  0  0  0  0  # atno 17371 bound_to 10713
  140.6234  133.9973  155.7628 LP  0  0  0  0  0  0  0  0  0  0  0  0  # atno 17394 bound_to 11000
  141.0879  133.9962  157.3284 LP  0  0  0  0  0  0  0  0  0  0  0  0  # atno 17395 bound_to 11000

$$$$
