AV-unprocessed.smi:1381|AV-procd|sdf|5604|dock1
  -GOLD-   22720 5213D 1   1.00000     0.00000
 Structure written by MMmdl.
 42 43  0  0  0  0  0  0  0  0  1 V2000
  143.6305  143.6784  162.2585 C   0  0  0  0  0  0  0  0  0  0  0  0
  144.4133  143.9249  161.0145 C   0  0  0  0  0  0  0  0  0  0  0  0
  145.5323  143.3424  160.4891 C   0  0  0  0  0  0  0  0  0  0  0  0
  145.7373  144.0702  159.2869 C   0  0  0  0  0  0  0  0  0  0  0  0
  146.8284  143.7702  158.4321 N   0  0  0  0  0  0  0  0  0  0  0  0
  147.3489  142.5608  158.1625 C   0  0  0  0  0  0  0  0  0  0  0  0
  146.9575  141.4967  158.6433 O   0  0  0  0  0  0  0  0  0  0  0  0
  148.3662  142.6506  157.2940 N   0  0  0  0  0  0  0  0  0  0  0  0
  149.1602  141.5232  156.8161 C   0  0  0  0  0  0  0  0  0  0  0  0
  150.0795  140.9595  157.9174 C   0  0  0  0  0  0  0  0  0  0  0  0
  150.8802  141.9521  158.6355 N   0  0  0  0  0  0  0  0  0  0  0  0
  151.5122  142.9174  157.7391 C   0  0  0  0  0  0  0  0  0  0  0  0
  152.3839  143.9449  158.4890 C   0  0  1  0  0  0  0  0  0  0  0  0
  151.5624  144.9998  159.2502 C   0  0  0  0  0  0  0  0  0  0  0  0
  153.3124  143.2773  159.3448 O   0  0  0  0  0  0  0  0  0  0  0  0
  152.7387  142.3273  160.2409 C   0  0  2  0  0  0  0  0  0  0  0  0
  153.8779  141.6594  161.0184 C   0  0  0  0  0  0  0  0  0  0  0  0
  151.9093  141.3074  159.4407 C   0  0  0  0  0  0  0  0  0  0  0  0
  144.8244  145.0104  159.0944 N   0  0  0  0  0  0  0  0  0  0  0  0
  143.9712  144.9219  160.2007 O   0  0  0  0  0  0  0  0  0  0  0  0
  143.9651  142.7674  162.7549 H   0  0  0  0  0  0  0  0  0  0  0  0
  142.5692  143.5708  162.0341 H   0  0  0  0  0  0  0  0  0  0  0  0
  143.7470  144.5066  162.9579 H   0  0  0  0  0  0  0  0  0  0  0  0
  146.1100  142.5287  160.9020 H   0  0  0  0  0  0  0  0  0  0  0  0
  147.2535  144.5606  157.9706 H   0  0  0  0  0  0  0  0  0  0  0  0
  148.6243  143.5647  156.9523 H   0  0  0  0  0  0  0  0  0  0  0  0
  148.4982  140.7363  156.4514 H   0  0  0  0  0  0  0  0  0  0  0  0
  149.7389  141.8465  155.9515 H   0  0  0  0  0  0  0  0  0  0  0  0
  149.4523  140.4258  158.6329 H   0  0  0  0  0  0  0  0  0  0  0  0
  150.7364  140.2042  157.4837 H   0  0  0  0  0  0  0  0  0  0  0  0
  152.1359  142.3866  157.0182 H   0  0  0  0  0  0  0  0  0  0  0  0
  150.7595  143.4513  157.1597 H   0  0  0  0  0  0  0  0  0  0  0  0
  152.9804  144.4801  157.7497 H   0  0  0  0  0  0  0  0  0  0  0  0
  150.9485  145.5827  158.5635 H   0  0  0  0  0  0  0  0  0  0  0  0
  152.2161  145.6938  159.7785 H   0  0  0  0  0  0  0  0  0  0  0  0
  150.8925  144.5488  159.9819 H   0  0  0  0  0  0  0  0  0  0  0  0
  152.0936  142.8435  160.9527 H   0  0  0  0  0  0  0  0  0  0  0  0
  153.4924  140.9290  161.7302 H   0  0  0  0  0  0  0  0  0  0  0  0
  154.4523  142.3977  161.5783 H   0  0  0  0  0  0  0  0  0  0  0  0
  154.5644  141.1432  160.3466 H   0  0  0  0  0  0  0  0  0  0  0  0
  151.4468  140.6022  160.1323 H   0  0  0  0  0  0  0  0  0  0  0  0
  152.5694  140.7240  158.7968 H   0  0  0  0  0  0  0  0  0  0  0  0
  1  2  1  0  0  0  0
  1 21  1  0  0  0  0
  1 22  1  0  0  0  0
  1 23  1  0  0  0  0
  2 20  1  0  0  0  0
  2  3  2  0  0  0  0
  3  4  1  0  0  0  0
  3 24  1  0  0  0  0
  4  5  1  0  0  0  0
  4 19  2  0  0  0  0
  5  6  1  0  0  0  0
  5 25  1  0  0  0  0
  6  7  2  0  0  0  0
  6  8  1  0  0  0  0
  8  9  1  0  0  0  0
  8 26  1  0  0  0  0
  9 10  1  0  0  0  0
  9 27  1  0  0  0  0
  9 28  1  0  0  0  0
 10 11  1  0  0  0  0
 10 29  1  0  0  0  0
 10 30  1  0  0  0  0
 11 18  1  0  0  0  0
 11 12  1  0  0  0  0
 12 13  1  0  0  0  0
 12 31  1  0  0  0  0
 12 32  1  0  0  0  0
 13 14  1  0  0  0  0
 13 15  1  0  0  0  0
 13 33  1  0  0  0  0
 14 34  1  0  0  0  0
 14 35  1  0  0  0  0
 14 36  1  0  0  0  0
 15 16  1  0  0  0  0
 16 17  1  0  0  0  0
 16 18  1  0  0  0  0
 16 37  1  0  0  0  0
 17 38  1  0  0  0  0
 17 39  1  0  0  0  0
 17 40  1  0  0  0  0
 18 41  1  0  0  0  0
 18 42  1  0  0  0  0
 19 20  1  0  0  0  0
M  END
> <s_m_source_file>
AV-unprocessed.smi

> <i_m_source_file_index>
1381

> <i_lp_mmshare_version>
43012

> <i_f3d_flags>
0

> <s_epik_input>
W0NIM11jMVtjSF1jKG5vMSlbTkhdQyg9TylbTkhdW0NIMl1bQ0gyXU4yW0NIMl1bQ0BASF0oW0NIM10pT1tDQEBIXShbQ0gzXSlbQ0gyXTI=

> <s_epik_cmdline>
J2VwaWtfcHl0aG9uJywgJy1waCcsICc3LjAnLCAnLXRuJywgJzgnLCAnLW1hJywgJzIwMCcsICctbWV0YWxfYmluZGluZycsICctaW1hZScsICc8aW5maWxlLm1hZT4nLCAnLW9tYWUnLCAnPG91dGZpbGUubWFlPic=

> <r_epik_Ionization_Penalty>
0.214073

> <r_epik_Ionization_Penalty_Charging>
0

> <r_epik_Ionization_Penalty_Neutral>
0.214073

> <r_epik_State_Penalty>
0.204211

> <r_epik_Charging_Adjusted_Penalty>
0.204211

> <i_epik_Tot_Q>
0

> <i_epik_Tot_abs_Q>
0

> <r_epik_Metal_State_Penalty>
0.217067

> <b_epik_Metal_Only>
0

> <s_lp_Force_Field>
OPLS_2005

> <r_lp_Energy>
24.2919

> <b_lp_Chiralities_Consistent>
1

> <s_lp_Variant>
AV-unprocessed.smi:1381-3

> <Gold.Version>
5.8.1

> <Gold.Id.Protein>
6NUR|6NUR_protein|mol2

> <Gold.PLP.Fitness>
45.4049

> <Gold.PLP.PLP>
-39.1971

> <Gold.PLP.part.hbond>
-3.1711

> <Gold.PLP.part.metal>
0.0000

> <Gold.PLP.part.buried>
-6.1236

> <Gold.PLP.part.nonpolar>
-30.0980

> <Gold.PLP.part.repulsive>
0.4025

> <Gold.PLP.ligand.clash>
0.0000

> <Gold.PLP.ligand.torsion>
0.4355

> <Gold.PLP.Chemscore.Hbond>
2.3460

> <Gold.PLP.Chemscore.CHOScore>
0.0000

> <Gold.PLP.Chemscore.Metal>
0.0000

> <Gold.Chemscore.Hbonds>
donor molecule, donor type, donor heavy atom, donor atom, acceptor molecule, acceptor atom, score
      L1  H     5    25       P1  8029  1.00
      L1  H     8    26       P1  8028  0.95
      P1  H  6934  6946       L1     7  0.32

> <Gold.PLP.Chemscore.Internal.Correction>
0.0407

> <Gold.Rescore>
     Score         DG    S(hbond)    S(metal)    S(lipo)     H(rot)  DE(clash)    DE(int)     intcor
     15.61     -17.28       1.46        0.00      93.63       1.57       0.10       1.57       ----

> <Gold.Chemscore.Fitness>
15.6145

> <Gold.Chemscore.DG>
-17.2847

> <Gold.Chemscore.ZeroCoef>
-5.4800

> <Gold.Chemscore.Hbond>
1.4578

> <Gold.Chemscore.Metal>
0.0000

> <Gold.Chemscore.Lipo>
93.6260

> <Gold.Chemscore.Internal_Hbond>
0.0000

> <Gold.Chemscore.DEClash>
0.1013

> <Gold.Chemscore.DEInternal>
1.5689

> <Gold.Chemscore.Rot>
1.5697

> <Gold.Chemscore.Internal.Correction>
   9.000000E+99

> <Gold.Chemscore.Hbonds>
donor molecule, donor type, donor heavy atom, donor atom, acceptor molecule, acceptor atom, score
      L1  H     5    25       P1  8029  0.50
      L1  H     8    26       P1  8028  0.21
      P1  H  6934  6946       L1     7  0.33

> <Gold.Chemscore.Hbond.Weighted>
-4.8689

> <Gold.Chemscore.Metal.Weighted>
-0.0000

> <Gold.Chemscore.Lipo.Weighted>
-10.9542

> <Gold.Chemscore.Internal_Hbond.Weighted>
0.0000

> <Gold.Chemscore.DEClash.Weighted>
0.1013

> <Gold.Chemscore.DEInternal.Weighted>
1.5689

> <Gold.Chemscore.Rot.Weighted>
4.0185

> <Gold.Chemscore.Internal.Correction.Weighted>
   9.000000E+99

> <Gold.Protein.RotatedTorsions>
[ 6907 6896 6895 6894 ] final -168.04 input  -60.11 | X-H torsion
[ 7974 7965 7964 7962 ] final  -37.03 input  175.53 | X-H torsion
[ 8008 7997 7996 7995 ] final  -92.31 input   59.86 | X-H torsion
[ 10167 10162 10161 10158 ] final  -99.82 input  -65.29 | X-H torsion
[ 10718 10713 10712 10709 ] final   71.61 input   66.30 | X-H torsion
[ 10763 10752 10751 10750 ] final  -16.30 input  -60.55 | X-H torsion
[ 11005 11000 10999 10996 ] final  161.88 input  -57.11 | X-H torsion

> <Gold.Protein.ActiveResidues>
 VAL166  LYS551  ARG553  GLY616  TRP617  ASP618  TYR619  PRO620  LYS621  CYS622 
 ASP623  PHE694  ASN695  SER759  ASP760  ASP761  ALA762  ILE779  LEU786  VAL792 
 PHE793  MET794  SER795  GLU796  ALA797  LYS798  CYS799  TRP800  GLU811  SER814 

> <Gold.Protein.RotatedAtoms>
  151.4692  133.3573  159.2820 H   0  0  0  0  0  0  0  0  0  0  0  0  # atno 6907 bound_to 6896
  150.8973  134.8384  159.7346 H   0  0  0  0  0  0  0  0  0  0  0  0  # atno 6908 bound_to 6896
  152.4858  134.4608  159.9656 H   0  0  0  0  0  0  0  0  0  0  0  0  # atno 6909 bound_to 6896
  146.0610  140.6348  142.8997 H   0  0  0  0  0  0  0  0  0  0  0  0  # atno 7974 bound_to 7965
  154.7215  140.0510  157.0644 H   0  0  0  0  0  0  0  0  0  0  0  0  # atno 8008 bound_to 7997
  155.0421  140.3170  155.4702 H   0  0  0  0  0  0  0  0  0  0  0  0  # atno 8009 bound_to 7997
  156.2818  140.2131  156.5545 H   0  0  0  0  0  0  0  0  0  0  0  0  # atno 8010 bound_to 7997
  140.2584  143.3424  152.0649 H   0  0  0  0  0  0  0  0  0  0  0  0  # atno 10167 bound_to 10162
  157.6460  130.9537  150.0813 H   0  0  0  0  0  0  0  0  0  0  0  0  # atno 10718 bound_to 10713
  153.5565  135.7010  153.5567 H   0  0  0  0  0  0  0  0  0  0  0  0  # atno 10763 bound_to 10752
  153.3468  135.4006  155.1615 H   0  0  0  0  0  0  0  0  0  0  0  0  # atno 10764 bound_to 10752
  154.8654  135.3755  154.5079 H   0  0  0  0  0  0  0  0  0  0  0  0  # atno 10765 bound_to 10752
  140.2201  134.8202  157.3212 H   0  0  0  0  0  0  0  0  0  0  0  0  # atno 11005 bound_to 11000
  144.7175  140.4260  143.7033 LP  0  0  0  0  0  0  0  0  0  0  0  0  # atno 17320 bound_to 7965
  145.6559  139.1573  143.2835 LP  0  0  0  0  0  0  0  0  0  0  0  0  # atno 17321 bound_to 7965
  139.5024  144.6734  151.6186 LP  0  0  0  0  0  0  0  0  0  0  0  0  # atno 17342 bound_to 10162
  140.5985  143.9652  150.6370 LP  0  0  0  0  0  0  0  0  0  0  0  0  # atno 17343 bound_to 10162
  156.1788  130.3649  149.9063 LP  0  0  0  0  0  0  0  0  0  0  0  0  # atno 17370 bound_to 10713
  156.7021  130.8937  151.3600 LP  0  0  0  0  0  0  0  0  0  0  0  0  # atno 17371 bound_to 10713
  140.1858  134.4433  155.7744 LP  0  0  0  0  0  0  0  0  0  0  0  0  # atno 17394 bound_to 11000
  141.2223  133.7004  156.7945 LP  0  0  0  0  0  0  0  0  0  0  0  0  # atno 17395 bound_to 11000

$$$$
