AV-unprocessed.smi:1853|AV-procd|sdf|7528|dock1
  -GOLD-   22720 9233D 1   1.00000     0.00000
 Structure written by MMmdl.
 43 45  0  0  0  0  0  0  0  0  2 V2000
  151.8406  146.0233  159.9903 C   0  0  0  0  0  0  0  0  0  0  0  0
  151.8447  144.5788  159.5344 C   0  0  0  0  0  0  0  0  0  0  0  0
  152.4598  143.5845  160.3202 C   0  0  0  0  0  0  0  0  0  0  0  0
  152.4602  142.2443  159.8888 C   0  0  0  0  0  0  0  0  0  0  0  0
  151.8505  141.8756  158.6722 C   0  0  0  0  0  0  0  0  0  0  0  0
  151.8944  140.5416  158.3294 O   0  0  0  0  0  0  0  0  0  0  0  0
  150.8430  140.0170  157.5294 C   0  0  0  0  0  0  0  0  0  0  0  0
  151.2550  140.0748  156.0517 C   0  0  0  0  0  0  0  0  0  0  0  0
  150.2621  139.4434  155.1707 N   0  0  0  0  0  0  0  0  0  0  0  0
  150.1426  138.1496  154.7533 C   0  0  0  0  0  0  0  0  0  0  0  0
  151.0414  137.0055  155.1198 C   0  0  0  0  0  0  0  0  0  0  0  0
  150.7524  135.7644  154.4071 N   0  0  0  0  0  0  0  0  0  0  0  0
  150.0229  134.7502  154.8944 C   0  0  0  0  0  0  0  0  0  0  0  0
  149.4628  134.7619  155.9891 O   0  0  0  0  0  0  0  0  0  0  0  0
  149.0511  138.0929  153.9361 N   0  3  0  0  0  0  0  0  0  0  0  0
  148.4585  139.3522  153.8464 C   0  0  0  0  0  0  0  0  0  0  0  0
  147.3329  139.7831  153.1509 C   0  0  0  0  0  0  0  0  0  0  0  0
  146.9946  141.1465  153.2777 C   0  0  0  0  0  0  0  0  0  0  0  0
  147.7629  142.0230  154.0716 C   0  0  0  0  0  0  0  0  0  0  0  0
  148.9027  141.5741  154.7711 C   0  0  0  0  0  0  0  0  0  0  0  0
  149.2303  140.2249  154.6394 C   0  0  0  0  0  0  0  0  0  0  0  0
  151.2369  142.8820  157.8843 C   0  0  0  0  0  0  0  0  0  0  0  0
  151.2355  144.2230  158.3151 C   0  0  0  0  0  0  0  0  0  0  0  0
  152.0851  146.1037  161.0501 H   0  0  0  0  0  0  0  0  0  0  0  0
  150.8582  146.4704  159.8355 H   0  0  0  0  0  0  0  0  0  0  0  0
  152.5733  146.5985  159.4242 H   0  0  0  0  0  0  0  0  0  0  0  0
  152.9337  143.8441  161.2556 H   0  0  0  0  0  0  0  0  0  0  0  0
  152.9371  141.4914  160.4985 H   0  0  0  0  0  0  0  0  0  0  0  0
  150.6301  138.9849  157.8114 H   0  0  0  0  0  0  0  0  0  0  0  0
  149.9333  140.6013  157.6749 H   0  0  0  0  0  0  0  0  0  0  0  0
  151.4083  141.1049  155.7291 H   0  0  0  0  0  0  0  0  0  0  0  0
  152.2069  139.5634  155.9059 H   0  0  0  0  0  0  0  0  0  0  0  0
  152.0716  137.2930  154.9093 H   0  0  0  0  0  0  0  0  0  0  0  0
  150.9822  136.8216  156.1931 H   0  0  0  0  0  0  0  0  0  0  0  0
  151.1692  135.6538  153.4938 H   0  0  0  0  0  0  0  0  0  0  0  0
  149.9905  133.9109  154.1825 H   0  0  0  0  0  0  0  0  0  0  0  0
  146.7417  139.1130  152.5442 H   0  0  0  0  0  0  0  0  0  0  0  0
  146.1277  141.5271  152.7573 H   0  0  0  0  0  0  0  0  0  0  0  0
  147.4716  143.0606  154.1465 H   0  0  0  0  0  0  0  0  0  0  0  0
  149.4828  142.2527  155.3787 H   0  0  0  0  0  0  0  0  0  0  0  0
  150.7586  142.6520  156.9445 H   0  0  0  0  0  0  0  0  0  0  0  0
  150.7638  144.9796  157.7050 H   0  0  0  0  0  0  0  0  0  0  0  0
  148.7300  137.2458  153.4855 H   0  0  0  0  0  0  0  0  0  0  0  0
  1  2  1  0  0  0  0
  1 24  1  0  0  0  0
  1 25  1  0  0  0  0
  1 26  1  0  0  0  0
  2 23  1  0  0  0  0
  2  3  2  0  0  0  0
  3  4  1  0  0  0  0
  3 27  1  0  0  0  0
  4  5  2  0  0  0  0
  4 28  1  0  0  0  0
  5  6  1  0  0  0  0
  5 22  1  0  0  0  0
  6  7  1  0  0  0  0
  7  8  1  0  0  0  0
  7 29  1  0  0  0  0
  7 30  1  0  0  0  0
  8  9  1  0  0  0  0
  8 31  1  0  0  0  0
  8 32  1  0  0  0  0
  9 21  1  0  0  0  0
  9 10  1  0  0  0  0
 10 11  1  0  0  0  0
 10 15  2  0  0  0  0
 11 12  1  0  0  0  0
 11 33  1  0  0  0  0
 11 34  1  0  0  0  0
 12 13  1  0  0  0  0
 12 35  1  0  0  0  0
 13 14  2  0  0  0  0
 13 36  1  0  0  0  0
 15 16  1  0  0  0  0
 15 43  1  0  0  0  0
 16 21  2  0  0  0  0
 16 17  1  0  0  0  0
 17 18  2  0  0  0  0
 17 37  1  0  0  0  0
 18 19  1  0  0  0  0
 18 38  1  0  0  0  0
 19 20  2  0  0  0  0
 19 39  1  0  0  0  0
 20 21  1  0  0  0  0
 20 40  1  0  0  0  0
 22 23  2  0  0  0  0
 22 41  1  0  0  0  0
 23 42  1  0  0  0  0
M  CHG  1  15   1
M  END
> <s_m_source_file>
AV-unprocessed.smi

> <i_m_source_file_index>
1853

> <i_lp_mmshare_version>
43012

> <i_f3d_flags>
0

> <s_epik_input>
W0NIM11jMVtjSF1bY0hdYyhbY0hdW2NIXTEpT1tDSDJdW0NIMl1uKGMobjIpW0NIMl1bTkhdW0NIXT1PKWMoYzIzKVtjSF1bY0hdW2NIXVtjSF0z

> <s_epik_cmdline>
J2VwaWtfcHl0aG9uJywgJy1waCcsICc3LjAnLCAnLXRuJywgJzgnLCAnLW1hJywgJzIwMCcsICctbWV0YWxfYmluZGluZycsICctaW1hZScsICc8aW5maWxlLm1hZT4nLCAnLW9tYWUnLCAnPG91dGZpbGUubWFlPic=

> <r_lp_tautomer_probability>
1

> <r_epik_Ionization_Penalty>
1.39966

> <r_epik_Ionization_Penalty_Charging>
1.39966

> <r_epik_Ionization_Penalty_Neutral>
7.38905e-08

> <r_epik_State_Penalty>
1.4817

> <r_epik_Charging_Adjusted_Penalty>
2.88136

> <i_epik_Tot_Q>
1

> <i_epik_Tot_abs_Q>
1

> <r_epik_Metal_State_Penalty>
1.53574

> <b_epik_Metal_Only>
0

> <s_lp_Force_Field>
OPLS_2005

> <r_lp_Energy>
13.1997

> <b_lp_Chiralities_Consistent>
1

> <s_lp_Variant>
AV-unprocessed.smi:1853-2

> <Gold.Version>
5.8.1

> <Gold.Id.Protein>
6NUR|6NUR_protein|mol2

> <Gold.PLP.Fitness>
57.7113

> <Gold.PLP.PLP>
-52.0377

> <Gold.PLP.part.hbond>
-2.9698

> <Gold.PLP.part.metal>
0.0000

> <Gold.PLP.part.buried>
-2.3500

> <Gold.PLP.part.nonpolar>
-47.2843

> <Gold.PLP.part.repulsive>
0.1542

> <Gold.PLP.ligand.clash>
0.0000

> <Gold.PLP.ligand.torsion>
1.1726

> <Gold.PLP.Chemscore.Hbond>
2.6320

> <Gold.PLP.Chemscore.CHOScore>
0.0000

> <Gold.PLP.Chemscore.Metal>
0.0000

> <Gold.Chemscore.Hbonds>
donor molecule, donor type, donor heavy atom, donor atom, acceptor molecule, acceptor atom, score
      L1  H    12    35       P1  7949  1.00
      L1  H    15    43       P1  7948  1.60

> <Gold.PLP.Chemscore.Internal.Correction>
0.1228

> <Gold.Rescore>
     Score         DG    S(hbond)    S(metal)    S(lipo)     H(rot)  DE(clash)    DE(int)     intcor
     17.40     -19.11       1.26        0.00     134.21       2.46       0.57       1.14       ----

> <Gold.Chemscore.Fitness>
17.4039

> <Gold.Chemscore.DG>
-19.1083

> <Gold.Chemscore.ZeroCoef>
-5.4800

> <Gold.Chemscore.Hbond>
1.2647

> <Gold.Chemscore.Metal>
0.0000

> <Gold.Chemscore.Lipo>
134.2081

> <Gold.Chemscore.Internal_Hbond>
0.0000

> <Gold.Chemscore.DEClash>
0.5672

> <Gold.Chemscore.DEInternal>
1.1372

> <Gold.Chemscore.Rot>
2.4603

> <Gold.Chemscore.Internal.Correction>
   9.000000E+99

> <Gold.Chemscore.Hbonds>
donor molecule, donor type, donor heavy atom, donor atom, acceptor molecule, acceptor atom, score
      L1  H    12    35       P1  7949  0.27
      L1  H    15    43       P1  7948  0.79

> <Gold.Chemscore.Hbond.Weighted>
-4.2242

> <Gold.Chemscore.Metal.Weighted>
-0.0000

> <Gold.Chemscore.Lipo.Weighted>
-15.7023

> <Gold.Chemscore.Internal_Hbond.Weighted>
0.0000

> <Gold.Chemscore.DEClash.Weighted>
0.5672

> <Gold.Chemscore.DEInternal.Weighted>
1.1372

> <Gold.Chemscore.Rot.Weighted>
6.2983

> <Gold.Chemscore.Internal.Correction.Weighted>
   9.000000E+99

> <Gold.Protein.RotatedTorsions>
[ 6907 6896 6895 6894 ] final -147.49 input  -60.11 | X-H torsion
[ 7974 7965 7964 7962 ] final   11.70 input  175.53 | X-H torsion
[ 8008 7997 7996 7995 ] final    6.71 input   59.86 | X-H torsion
[ 10167 10162 10161 10158 ] final  -20.67 input  -65.29 | X-H torsion
[ 10718 10713 10712 10709 ] final   64.46 input   66.30 | X-H torsion
[ 10763 10752 10751 10750 ] final  127.55 input  -60.55 | X-H torsion
[ 11005 11000 10999 10996 ] final  106.81 input  -57.11 | X-H torsion

> <Gold.Protein.ActiveResidues>
 VAL166  LYS551  ARG553  GLY616  TRP617  ASP618  TYR619  PRO620  LYS621  CYS622 
 ASP623  PHE694  ASN695  SER759  ASP760  ASP761  ALA762  ILE779  LEU786  VAL792 
 PHE793  MET794  SER795  GLU796  ALA797  LYS798  CYS799  TRP800  GLU811  SER814 

> <Gold.Protein.RotatedAtoms>
  151.1564  133.4874  159.2594 H   0  0  0  0  0  0  0  0  0  0  0  0  # atno 6907 bound_to 6896
  151.1500  135.0222  159.8674 H   0  0  0  0  0  0  0  0  0  0  0  0  # atno 6908 bound_to 6896
  152.5463  134.1449  159.8547 H   0  0  0  0  0  0  0  0  0  0  0  0  # atno 6909 bound_to 6896
  146.2366  139.9447  142.8478 H   0  0  0  0  0  0  0  0  0  0  0  0  # atno 7974 bound_to 7965
  154.7445  140.2755  155.6345 H   0  0  0  0  0  0  0  0  0  0  0  0  # atno 8008 bound_to 7997
  156.2881  140.2690  156.2107 H   0  0  0  0  0  0  0  0  0  0  0  0  # atno 8009 bound_to 7997
  155.0216  140.0371  157.2429 H   0  0  0  0  0  0  0  0  0  0  0  0  # atno 8010 bound_to 7997
  140.7277  143.4700  151.0260 H   0  0  0  0  0  0  0  0  0  0  0  0  # atno 10167 bound_to 10162
  157.6041  130.9161  149.9849 H   0  0  0  0  0  0  0  0  0  0  0  0  # atno 10718 bound_to 10713
  153.7113  135.3268  155.3246 H   0  0  0  0  0  0  0  0  0  0  0  0  # atno 10763 bound_to 10752
  154.8384  135.4477  154.1311 H   0  0  0  0  0  0  0  0  0  0  0  0  # atno 10764 bound_to 10752
  153.2406  135.6970  153.7867 H   0  0  0  0  0  0  0  0  0  0  0  0  # atno 10765 bound_to 10752
  139.8819  134.9381  156.5724 H   0  0  0  0  0  0  0  0  0  0  0  0  # atno 11005 bound_to 11000
  145.1919  140.9815  143.4206 LP  0  0  0  0  0  0  0  0  0  0  0  0  # atno 17320 bound_to 7965
  144.9850  139.3746  143.6243 LP  0  0  0  0  0  0  0  0  0  0  0  0  # atno 17321 bound_to 7965
  139.8391  143.7587  152.3180 LP  0  0  0  0  0  0  0  0  0  0  0  0  # atno 17342 bound_to 10162
  139.7730  144.7470  151.0197 LP  0  0  0  0  0  0  0  0  0  0  0  0  # atno 17343 bound_to 10162
  156.1122  130.3649  150.0029 LP  0  0  0  0  0  0  0  0  0  0  0  0  # atno 17370 bound_to 10713
  156.8125  130.9330  151.3644 LP  0  0  0  0  0  0  0  0  0  0  0  0  # atno 17371 bound_to 10713
  140.8088  133.8445  155.8792 LP  0  0  0  0  0  0  0  0  0  0  0  0  # atno 17394 bound_to 11000
  140.9525  134.1760  157.4717 LP  0  0  0  0  0  0  0  0  0  0  0  0  # atno 17395 bound_to 11000

$$$$
