AV-unprocessed.smi:1145|AV-procd|sdf|4882|dock5
  -GOLD-   22720 3453D 1   1.00000     0.00000
 Structure written by MMmdl.
 36 37  0  0  0  0  0  0  0  0  1 V2000
  152.4733  138.4498  154.4385 C   0  0  0  0  0  0  0  0  0  0  0  0
  151.5955  138.6373  155.6842 C   0  0  2  0  0  0  0  0  0  0  0  0
  150.1062  138.3875  155.3792 C   0  0  0  0  0  0  0  0  0  0  0  0
  149.3866  139.6210  155.1108 N   0  0  0  0  0  0  0  0  0  0  0  0
  148.7984  140.0284  153.9321 C   0  0  0  0  0  0  0  0  0  0  0  0
  148.2331  141.2501  154.1610 C   0  0  0  0  0  0  0  0  0  0  0  0
  148.5307  141.5094  155.5281 C   0  0  0  0  0  0  0  0  0  0  0  0
  149.2211  140.5326  156.0940 N   0  0  0  0  0  0  0  0  0  0  0  0
  151.7769  139.9872  156.2138 N   0  0  0  0  0  0  0  0  0  0  0  0
  151.8335  140.3164  157.5131 C   0  0  0  0  0  0  0  0  0  0  0  0
  151.7847  139.4894  158.4245 O   0  0  0  0  0  0  0  0  0  0  0  0
  151.9575  141.8124  157.8302 C   0  0  2  0  0  0  0  0  0  0  0  0
  152.1287  142.0497  159.3396 C   0  0  0  0  0  0  0  0  0  0  0  0
  152.3062  143.5456  159.6449 C   0  0  0  0  0  0  0  0  0  0  0  0
  151.2919  144.4409  158.9178 C   0  0  0  0  0  0  0  0  0  0  0  0
  151.1077  145.5899  159.3127 O   0  0  0  0  0  0  0  0  0  0  0  0
  150.6516  143.9573  157.8386 N   0  0  0  0  0  0  0  0  0  0  0  0
  150.7213  142.5879  157.3278 C   0  0  0  0  0  0  0  0  0  0  0  0
  152.3752  137.4403  154.0386 H   0  0  0  0  0  0  0  0  0  0  0  0
  153.5267  138.6082  154.6730 H   0  0  0  0  0  0  0  0  0  0  0  0
  152.1986  139.1498  153.6488 H   0  0  0  0  0  0  0  0  0  0  0  0
  151.9099  137.9013  156.4266 H   0  0  0  0  0  0  0  0  0  0  0  0
  149.9931  137.7118  154.5296 H   0  0  0  0  0  0  0  0  0  0  0  0
  149.6266  137.9008  156.2292 H   0  0  0  0  0  0  0  0  0  0  0  0
  148.8285  139.4199  153.0402 H   0  0  0  0  0  0  0  0  0  0  0  0
  147.6885  141.8645  153.4592 H   0  0  0  0  0  0  0  0  0  0  0  0
  148.2678  142.3727  156.1213 H   0  0  0  0  0  0  0  0  0  0  0  0
  151.8233  140.7352  155.5369 H   0  0  0  0  0  0  0  0  0  0  0  0
  152.8413  142.2047  157.3231 H   0  0  0  0  0  0  0  0  0  0  0  0
  151.2611  141.6709  159.8832 H   0  0  0  0  0  0  0  0  0  0  0  0
  152.9915  141.4974  159.7145 H   0  0  0  0  0  0  0  0  0  0  0  0
  152.2390  143.7177  160.7197 H   0  0  0  0  0  0  0  0  0  0  0  0
  153.3038  143.8632  159.3398 H   0  0  0  0  0  0  0  0  0  0  0  0
  150.0141  144.5800  157.3635 H   0  0  0  0  0  0  0  0  0  0  0  0
  150.7185  142.6218  156.2376 H   0  0  0  0  0  0  0  0  0  0  0  0
  149.8012  142.0831  157.6262 H   0  0  0  0  0  0  0  0  0  0  0  0
  1  2  1  0  0  0  0
  1 19  1  0  0  0  0
  1 20  1  0  0  0  0
  1 21  1  0  0  0  0
  2  3  1  0  0  0  0
  2  9  1  0  0  0  0
  2 22  1  0  0  0  0
  3  4  1  0  0  0  0
  3 23  1  0  0  0  0
  3 24  1  0  0  0  0
  4  8  1  0  0  0  0
  4  5  1  0  0  0  0
  5  6  2  0  0  0  0
  5 25  1  0  0  0  0
  6  7  1  0  0  0  0
  6 26  1  0  0  0  0
  7  8  2  0  0  0  0
  7 27  1  0  0  0  0
  9 10  1  0  0  0  0
  9 28  1  0  0  0  0
 10 11  2  0  0  0  0
 10 12  1  0  0  0  0
 12 18  1  0  0  0  0
 12 13  1  0  0  0  0
 12 29  1  0  0  0  0
 13 14  1  0  0  0  0
 13 30  1  0  0  0  0
 13 31  1  0  0  0  0
 14 15  1  0  0  0  0
 14 32  1  0  0  0  0
 14 33  1  0  0  0  0
 15 16  2  0  0  0  0
 15 17  1  0  0  0  0
 17 18  1  0  0  0  0
 17 34  1  0  0  0  0
 18 35  1  0  0  0  0
 18 36  1  0  0  0  0
M  END
> <s_m_source_file>
AV-unprocessed.smi

> <i_m_source_file_index>
1145

> <i_lp_mmshare_version>
43012

> <i_f3d_flags>
0

> <s_epik_input>
bjFbY0hdW2NIXVtjSF1uMVtDSDJdW0NAQEhdKFtDSDNdKVtOSF1DKD1PKVtDQEBIXTJbQ0gyXVtDSDJdQyg9TylbTkhdW0NIMl0y

> <s_epik_cmdline>
J2VwaWtfcHl0aG9uJywgJy1waCcsICc3LjAnLCAnLXRuJywgJzgnLCAnLW1hJywgJzIwMCcsICctbWV0YWxfYmluZGluZycsICctaW1hZScsICc8aW5maWxlLm1hZT4nLCAnLW9tYWUnLCAnPG91dGZpbGUubWFlPic=

> <r_lp_tautomer_probability>
1

> <r_epik_Ionization_Penalty>
0.000314064

> <r_epik_Ionization_Penalty_Charging>
0

> <r_epik_Ionization_Penalty_Neutral>
0.000314064

> <r_epik_State_Penalty>
-0

> <r_epik_Charging_Adjusted_Penalty>
0

> <i_epik_Tot_Q>
0

> <i_epik_Tot_abs_Q>
0

> <r_epik_Metal_State_Penalty>
-0

> <b_epik_Metal_Only>
0

> <s_lp_Force_Field>
OPLS_2005

> <r_lp_Energy>
12.6815

> <b_lp_Chiralities_Consistent>
1

> <s_lp_Variant>
AV-unprocessed.smi:1145-1

> <Gold.Version>
5.8.1

> <Gold.Id.Protein>
6NUR|6NUR_protein|mol2

> <Gold.PLP.Fitness>
38.2185

> <Gold.PLP.PLP>
-31.5368

> <Gold.PLP.part.hbond>
-2.0000

> <Gold.PLP.part.metal>
0.0000

> <Gold.PLP.part.buried>
-2.7480

> <Gold.PLP.part.nonpolar>
-27.7542

> <Gold.PLP.part.repulsive>
0.3823

> <Gold.PLP.ligand.clash>
0.0000

> <Gold.PLP.ligand.torsion>
0.8691

> <Gold.PLP.Chemscore.Hbond>
0.8800

> <Gold.PLP.Chemscore.CHOScore>
1.9195

> <Gold.PLP.Chemscore.Metal>
0.0000

> <Gold.Chemscore.Hbonds>
donor molecule, donor type, donor heavy atom, donor atom, acceptor molecule, acceptor atom, score
      L1  H    17    34       P1  8028  0.86
      L1  C     5    25       P1  7957  0.91
      L1  C     7    27       P1  8028  0.94

> <Gold.PLP.Chemscore.Internal.Correction>
0.0213

> <Gold.Rescore>
     Score         DG    S(hbond)    S(metal)    S(lipo)     H(rot)  DE(clash)    DE(int)     intcor
      9.83     -12.03       0.88        0.00      70.16       1.80       0.16       2.05       ----

> <Gold.Chemscore.Fitness>
9.8293

> <Gold.Chemscore.DG>
-12.0346

> <Gold.Chemscore.ZeroCoef>
-5.4800

> <Gold.Chemscore.Hbond>
0.8829

> <Gold.Chemscore.Metal>
0.0000

> <Gold.Chemscore.Lipo>
70.1630

> <Gold.Chemscore.Internal_Hbond>
0.0000

> <Gold.Chemscore.DEClash>
0.1567

> <Gold.Chemscore.DEInternal>
2.0487

> <Gold.Chemscore.Rot>
1.7982

> <Gold.Chemscore.Internal.Correction>
   9.000000E+99

> <Gold.Chemscore.Hbonds>
donor molecule, donor type, donor heavy atom, donor atom, acceptor molecule, acceptor atom, score
      L1  H    17    34       P1  8028  0.21

> <Gold.Chemscore.Hbond.Weighted>
-2.9490

> <Gold.Chemscore.Metal.Weighted>
-0.0000

> <Gold.Chemscore.Lipo.Weighted>
-8.2091

> <Gold.Chemscore.Internal_Hbond.Weighted>
0.0000

> <Gold.Chemscore.DEClash.Weighted>
0.1567

> <Gold.Chemscore.DEInternal.Weighted>
2.0487

> <Gold.Chemscore.Rot.Weighted>
4.6035

> <Gold.Chemscore.Internal.Correction.Weighted>
   9.000000E+99

> <Gold.Protein.RotatedTorsions>
[ 6907 6896 6895 6894 ] final  -74.04 input  -60.11 | X-H torsion
[ 7974 7965 7964 7962 ] final  118.18 input  175.53 | X-H torsion
[ 8008 7997 7996 7995 ] final  -41.34 input   59.86 | X-H torsion
[ 10167 10162 10161 10158 ] final  131.77 input  -65.29 | X-H torsion
[ 10718 10713 10712 10709 ] final   46.41 input   66.30 | X-H torsion
[ 10763 10752 10751 10750 ] final  -56.87 input  -60.55 | X-H torsion
[ 11005 11000 10999 10996 ] final  -68.77 input  -57.11 | X-H torsion

> <Gold.Protein.ActiveResidues>
 VAL166  LYS551  ARG553  GLY616  TRP617  ASP618  TYR619  PRO620  LYS621  CYS622 
 ASP623  PHE694  ASN695  SER759  ASP760  ASP761  ALA762  ILE779  LEU786  VAL792 
 PHE793  MET794  SER795  GLU796  ALA797  LYS798  CYS799  TRP800  GLU811  SER814 

> <Gold.Protein.RotatedAtoms>
  150.7107  134.4928  159.5523 H   0  0  0  0  0  0  0  0  0  0  0  0  # atno 6907 bound_to 6896
  152.2542  134.8099  160.0450 H   0  0  0  0  0  0  0  0  0  0  0  0  # atno 6908 bound_to 6896
  151.8836  133.3465  159.3811 H   0  0  0  0  0  0  0  0  0  0  0  0  # atno 6909 bound_to 6896
  145.1583  139.3169  143.4530 H   0  0  0  0  0  0  0  0  0  0  0  0  # atno 7974 bound_to 7965
  154.4005  140.1502  156.3175 H   0  0  0  0  0  0  0  0  0  0  0  0  # atno 8008 bound_to 7997
  155.8560  140.3455  155.5703 H   0  0  0  0  0  0  0  0  0  0  0  0  # atno 8009 bound_to 7997
  155.7932  140.0859  157.1988 H   0  0  0  0  0  0  0  0  0  0  0  0  # atno 8010 bound_to 7997
  139.5369  144.6691  151.4755 H   0  0  0  0  0  0  0  0  0  0  0  0  # atno 10167 bound_to 10162
  157.4478  130.8120  149.7758 H   0  0  0  0  0  0  0  0  0  0  0  0  # atno 10718 bound_to 10713
  154.2135  135.6390  153.5122 H   0  0  0  0  0  0  0  0  0  0  0  0  # atno 10763 bound_to 10752
  152.9984  135.5479  154.6190 H   0  0  0  0  0  0  0  0  0  0  0  0  # atno 10764 bound_to 10752
  154.5633  135.2910  155.0872 H   0  0  0  0  0  0  0  0  0  0  0  0  # atno 10765 bound_to 10752
  141.1539  133.6748  156.6498 H   0  0  0  0  0  0  0  0  0  0  0  0  # atno 11005 bound_to 11000
  146.3486  140.1684  142.8590 LP  0  0  0  0  0  0  0  0  0  0  0  0  # atno 17320 bound_to 7965
  145.0357  140.8906  143.5082 LP  0  0  0  0  0  0  0  0  0  0  0  0  # atno 17321 bound_to 7965
  140.6580  143.8559  150.6856 LP  0  0  0  0  0  0  0  0  0  0  0  0  # atno 17342 bound_to 10162
  140.1944  143.4010  152.1839 LP  0  0  0  0  0  0  0  0  0  0  0  0  # atno 17343 bound_to 10162
  155.9974  130.3900  150.2740 LP  0  0  0  0  0  0  0  0  0  0  0  0  # atno 17370 bound_to 10713
  157.0910  131.0169  151.3122 LP  0  0  0  0  0  0  0  0  0  0  0  0  # atno 17371 bound_to 10713
  140.3329  134.7913  157.4340 LP  0  0  0  0  0  0  0  0  0  0  0  0  # atno 17394 bound_to 11000
  140.1001  134.5484  155.8361 LP  0  0  0  0  0  0  0  0  0  0  0  0  # atno 17395 bound_to 11000

$$$$
