AV-unprocessed.smi:1809|AV-procd|sdf|7328|dock5
  -GOLD-   22720 8583D 1   1.00000     0.00000
 Structure written by MMmdl.
 39 41  0  0  0  0  0  0  0  0  3 V2000
  155.1586  142.4292  168.4377 C   0  0  0  0  0  0  0  0  0  0  0  0
  155.3446  141.8444  167.0797 C   0  0  0  0  0  0  0  0  0  0  0  0
  154.8964  142.4375  165.9705 N   0  0  0  0  0  0  0  0  0  0  0  0
  155.1915  141.7044  164.8299 N   0  0  0  0  0  0  0  0  0  0  0  0
  155.8675  140.5763  165.0903 C   0  0  0  0  0  0  0  0  0  0  0  0
  156.2504  139.7256  164.1235 N   0  5  0  0  0  0  0  0  0  0  0  0
  155.4393  139.4976  163.0660 C   0  0  0  0  0  0  0  0  0  0  0  0
  155.1063  138.3966  162.6215 O   0  0  0  0  0  0  0  0  0  0  0  0
  154.9822  140.6148  162.4870 N   0  0  0  0  0  0  0  0  0  0  0  0
  154.0914  140.6549  161.3353 C   0  0  0  0  0  0  0  0  0  0  0  0
  153.7210  142.1020  160.9845 C   0  0  1  0  0  0  0  0  0  0  0  0
  152.9326  142.1846  159.6561 C   0  0  0  0  0  0  0  0  0  0  0  0
  152.5086  143.5819  159.4545 N   0  3  1  0  0  0  0  0  0  0  0  0
  151.7513  143.9145  158.2356 C   0  0  0  0  0  0  0  0  0  0  0  0
  150.9543  145.1837  158.5994 C   0  0  0  0  0  0  0  0  0  0  0  0
  151.2091  145.4217  160.0991 C   0  0  0  0  0  0  0  0  0  0  0  0
  151.7034  144.0615  160.5800 C   0  0  2  0  0  0  0  0  0  0  0  0
  152.5483  144.0032  161.8588 C   0  0  0  0  0  0  0  0  0  0  0  0
  152.9343  142.6418  162.0538 O   0  0  0  0  0  0  0  0  0  0  0  0
  156.1750  140.3217  166.8079 S   0  0  0  0  0  0  0  0  0  0  0  0
  155.8351  143.2725  168.5759 H   0  0  0  0  0  0  0  0  0  0  0  0
  155.3681  141.6825  169.2038 H   0  0  0  0  0  0  0  0  0  0  0  0
  154.1326  142.7764  168.5611 H   0  0  0  0  0  0  0  0  0  0  0  0
  155.2728  141.4979  162.8802 H   0  0  0  0  0  0  0  0  0  0  0  0
  154.5926  140.1819  160.4895 H   0  0  0  0  0  0  0  0  0  0  0  0
  153.1901  140.0755  161.5421 H   0  0  0  0  0  0  0  0  0  0  0  0
  154.6365  142.6898  160.8922 H   0  0  0  0  0  0  0  0  0  0  0  0
  153.5546  141.8648  158.8192 H   0  0  0  0  0  0  0  0  0  0  0  0
  152.0593  141.5307  159.6835 H   0  0  0  0  0  0  0  0  0  0  0  0
  152.4223  144.0692  157.3902 H   0  0  0  0  0  0  0  0  0  0  0  0
  151.0688  143.1009  157.9848 H   0  0  0  0  0  0  0  0  0  0  0  0
  151.2694  146.0441  158.0079 H   0  0  0  0  0  0  0  0  0  0  0  0
  149.8921  145.0254  158.4083 H   0  0  0  0  0  0  0  0  0  0  0  0
  151.9891  146.1734  160.2281 H   0  0  0  0  0  0  0  0  0  0  0  0
  150.3207  145.7619  160.6321 H   0  0  0  0  0  0  0  0  0  0  0  0
  150.8383  143.4045  160.6968 H   0  0  0  0  0  0  0  0  0  0  0  0
  153.4295  144.6429  161.7885 H   0  0  0  0  0  0  0  0  0  0  0  0
  151.9676  144.3387  162.7182 H   0  0  0  0  0  0  0  0  0  0  0  0
  153.3434  144.1506  159.4379 H   0  0  0  0  0  0  0  0  0  0  0  0
  1  2  1  0  0  0  0
  1 21  1  0  0  0  0
  1 22  1  0  0  0  0
  1 23  1  0  0  0  0
  2 20  1  0  0  0  0
  2  3  2  0  0  0  0
  3  4  1  0  0  0  0
  4  5  2  0  0  0  0
  5  6  1  0  0  0  0
  5 20  1  0  0  0  0
  6  7  1  0  0  0  0
  7  8  2  0  0  0  0
  7  9  1  0  0  0  0
  9 10  1  0  0  0  0
  9 24  1  0  0  0  0
 10 11  1  0  0  0  0
 10 25  1  0  0  0  0
 10 26  1  0  0  0  0
 11 19  1  0  0  0  0
 11 12  1  0  0  0  0
 11 27  1  0  0  0  0
 12 13  1  0  0  0  0
 12 28  1  0  0  0  0
 12 29  1  0  0  0  0
 13 17  1  0  0  0  0
 13 14  1  0  0  0  0
 13 39  1  0  0  0  0
 14 15  1  0  0  0  0
 14 30  1  0  0  0  0
 14 31  1  0  0  0  0
 15 16  1  0  0  0  0
 15 32  1  0  0  0  0
 15 33  1  0  0  0  0
 16 17  1  0  0  0  0
 16 34  1  0  0  0  0
 16 35  1  0  0  0  0
 17 18  1  0  0  0  0
 17 36  1  0  0  0  0
 18 19  1  0  0  0  0
 18 37  1  0  0  0  0
 18 38  1  0  0  0  0
M  CHG  1   6  -1
M  CHG  1  13   1
M  END
> <s_m_source_file>
AV-unprocessed.smi

> <i_m_source_file_index>
1809

> <i_lp_mmshare_version>
43012

> <i_f3d_flags>
0

> <s_epik_input>
W0NIM11jMW5uYyhzMSlbTkhdQyg9TylbTkhdW0NIMl1bQ0BIXShbQ0gyXTIpT1tDSDJdW0NAQEhdKE4yMylbQ0gyXVtDSDJdW0NIMl0z

> <s_epik_cmdline>
J2VwaWtfcHl0aG9uJywgJy1waCcsICc3LjAnLCAnLXRuJywgJzgnLCAnLW1hJywgJzIwMCcsICctbWV0YWxfYmluZGluZycsICctaW1hZScsICc8aW5maWxlLm1hZT4nLCAnLW9tYWUnLCAnPG91dGZpbGUubWFlPic=

> <r_lp_tautomer_probability>
1

> <r_epik_Ionization_Penalty>
3.2601

> <r_epik_Ionization_Penalty_Charging>
3.1406

> <r_epik_Ionization_Penalty_Neutral>
0.119497

> <r_epik_State_Penalty>
3.08894

> <r_epik_Charging_Adjusted_Penalty>
6.22954

> <i_epik_Tot_Q>
0

> <i_epik_Tot_abs_Q>
2

> <r_epik_Metal_State_Penalty>
0.510807

> <b_epik_Metal_Only>
1

> <s_lp_Force_Field>
OPLS_2005

> <r_lp_Energy>
29.8237

> <b_lp_Chiralities_Consistent>
1

> <s_lp_Variant>
AV-unprocessed.smi:1809-20

> <Gold.Version>
5.8.1

> <Gold.Id.Protein>
6NUR|6NUR_protein|mol2

> <Gold.PLP.Fitness>
42.2140

> <Gold.PLP.PLP>
-43.6740

> <Gold.PLP.part.hbond>
-1.2610

> <Gold.PLP.part.metal>
0.0000

> <Gold.PLP.part.buried>
-9.4103

> <Gold.PLP.part.nonpolar>
-32.7650

> <Gold.PLP.part.repulsive>
0.1034

> <Gold.PLP.ligand.clash>
0.0013

> <Gold.PLP.ligand.torsion>
0.7454

> <Gold.PLP.Chemscore.Hbond>
0.0000

> <Gold.PLP.Chemscore.CHOScore>
0.0000

> <Gold.PLP.Chemscore.Metal>
0.0000

> <Gold.PLP.Chemscore.Internal.Correction>
0.0321

> <Gold.Rescore>
     Score         DG    S(hbond)    S(metal)    S(lipo)     H(rot)  DE(clash)    DE(int)     intcor
     13.90     -14.74       0.00        0.00     108.10       1.32       0.28       0.56       ----

> <Gold.Chemscore.Fitness>
13.9005

> <Gold.Chemscore.DG>
-14.7370

> <Gold.Chemscore.ZeroCoef>
-5.4800

> <Gold.Chemscore.Hbond>
0.0000

> <Gold.Chemscore.Metal>
0.0000

> <Gold.Chemscore.Lipo>
108.1026

> <Gold.Chemscore.Internal_Hbond>
0.0000

> <Gold.Chemscore.DEClash>
0.2788

> <Gold.Chemscore.DEInternal>
0.5577

> <Gold.Chemscore.Rot>
1.3246

> <Gold.Chemscore.Internal.Correction>
   9.000000E+99

> <Gold.Chemscore.Hbond.Weighted>
-0.0000

> <Gold.Chemscore.Metal.Weighted>
-0.0000

> <Gold.Chemscore.Lipo.Weighted>
-12.6480

> <Gold.Chemscore.Internal_Hbond.Weighted>
0.0000

> <Gold.Chemscore.DEClash.Weighted>
0.2788

> <Gold.Chemscore.DEInternal.Weighted>
0.5577

> <Gold.Chemscore.Rot.Weighted>
3.3910

> <Gold.Chemscore.Internal.Correction.Weighted>
   9.000000E+99

> <Gold.Protein.RotatedTorsions>
[ 6907 6896 6895 6894 ] final  -31.74 input  -60.11 | X-H torsion
[ 7974 7965 7964 7962 ] final  162.23 input  175.53 | X-H torsion
[ 8008 7997 7996 7995 ] final  -81.96 input   59.86 | X-H torsion
[ 10167 10162 10161 10158 ] final  -53.79 input  -65.29 | X-H torsion
[ 10718 10713 10712 10709 ] final  -50.79 input   66.30 | X-H torsion
[ 10763 10752 10751 10750 ] final  -15.90 input  -60.55 | X-H torsion
[ 11005 11000 10999 10996 ] final   22.91 input  -57.11 | X-H torsion

> <Gold.Protein.ActiveResidues>
 VAL166  LYS551  ARG553  GLY616  TRP617  ASP618  TYR619  PRO620  LYS621  CYS622 
 ASP623  PHE694  ASN695  SER759  ASP760  ASP761  ALA762  ILE779  LEU786  VAL792 
 PHE793  MET794  SER795  GLU796  ALA797  LYS798  CYS799  TRP800  GLU811  SER814 

> <Gold.Protein.RotatedAtoms>
  151.0880  134.9899  159.8388 H   0  0  0  0  0  0  0  0  0  0  0  0  # atno 6907 bound_to 6896
  152.5426  134.2100  159.8756 H   0  0  0  0  0  0  0  0  0  0  0  0  # atno 6908 bound_to 6896
  151.2134  133.4499  159.2632 H   0  0  0  0  0  0  0  0  0  0  0  0  # atno 6909 bound_to 6896
  144.7647  139.8010  143.6319 H   0  0  0  0  0  0  0  0  0  0  0  0  # atno 7974 bound_to 7965
  154.6037  140.0640  156.9403 H   0  0  0  0  0  0  0  0  0  0  0  0  # atno 8008 bound_to 7997
  155.2089  140.3321  155.4313 H   0  0  0  0  0  0  0  0  0  0  0  0  # atno 8009 bound_to 7997
  156.2334  140.1851  156.7166 H   0  0  0  0  0  0  0  0  0  0  0  0  # atno 8010 bound_to 7997
  140.6465  143.2539  151.4843 H   0  0  0  0  0  0  0  0  0  0  0  0  # atno 10167 bound_to 10162
  156.1768  130.4150  149.9565 H   0  0  0  0  0  0  0  0  0  0  0  0  # atno 10718 bound_to 10713
  153.5503  135.7011  153.5594 H   0  0  0  0  0  0  0  0  0  0  0  0  # atno 10763 bound_to 10752
  153.3521  135.3992  155.1654 H   0  0  0  0  0  0  0  0  0  0  0  0  # atno 10764 bound_to 10752
  154.8662  135.3768  154.5014 H   0  0  0  0  0  0  0  0  0  0  0  0  # atno 10765 bound_to 10752
  140.3754  134.1978  155.7665 H   0  0  0  0  0  0  0  0  0  0  0  0  # atno 11005 bound_to 11000
  146.1743  139.4907  142.9907 LP  0  0  0  0  0  0  0  0  0  0  0  0  # atno 17320 bound_to 7965
  145.6508  141.0263  143.1761 LP  0  0  0  0  0  0  0  0  0  0  0  0  # atno 17321 bound_to 7965
  139.5677  144.2004  152.1789 LP  0  0  0  0  0  0  0  0  0  0  0  0  # atno 17342 bound_to 10162
  140.1290  144.5305  150.6814 LP  0  0  0  0  0  0  0  0  0  0  0  0  # atno 17343 bound_to 10162
  156.7348  130.9057  151.3628 LP  0  0  0  0  0  0  0  0  0  0  0  0  # atno 17370 bound_to 10713
  157.6841  130.9168  150.0342 LP  0  0  0  0  0  0  0  0  0  0  0  0  # atno 17371 bound_to 10713
  141.1941  133.8136  157.0771 LP  0  0  0  0  0  0  0  0  0  0  0  0  # atno 17394 bound_to 11000
  140.0519  134.9801  157.1152 LP  0  0  0  0  0  0  0  0  0  0  0  0  # atno 17395 bound_to 11000

$$$$
