AV-unprocessed.smi:2781|AV-procd|sdf|10720|dock3
  -GOLD-   2272015153D 1   1.00000     0.00000
 Structure written by MMmdl.
 35 38  0  0  0  0  0  0  0  0  1 V2000
  151.3770  140.9877  155.8795 O   0  0  0  0  0  0  0  0  0  0  0  0
  150.6241  141.9566  155.9838 C   0  0  0  0  0  0  0  0  0  0  0  0
  149.3895  142.0416  155.4570 N   0  0  0  0  0  0  0  0  0  0  0  0
  148.6926  141.0703  154.6899 C   0  0  0  0  0  0  0  0  0  0  0  0
  147.3976  141.4544  154.2731 C   0  0  0  0  0  0  0  0  0  0  0  0
  146.6227  140.5622  153.5067 C   0  0  0  0  0  0  0  0  0  0  0  0
  147.1654  139.3077  153.1770 C   0  0  0  0  0  0  0  0  0  0  0  0
  146.4586  138.4173  152.4414 F   0  0  0  0  0  0  0  0  0  0  0  0
  148.4617  139.0021  153.6307 C   0  0  0  0  0  0  0  0  0  0  0  0
  149.2052  139.8564  154.3658 N   0  0  0  0  0  0  0  0  0  0  0  0
  150.9421  143.0759  156.6488 N   0  0  0  0  0  0  0  0  0  0  0  0
  152.1750  143.3222  157.3260 C   0  0  2  0  0  0  0  0  0  0  0  0
  152.3414  142.9634  158.7983 C   0  0  2  0  0  0  0  0  0  0  0  0
  151.2697  142.8509  159.8854 C   0  0  1  0  0  0  0  0  0  0  0  0
  151.8122  143.5721  161.1383 C   0  0  0  0  0  0  0  0  0  0  0  0
  151.7445  145.0633  160.7188 C   0  0  0  0  0  0  0  0  0  0  0  0
  151.1731  144.9788  159.2868 C   0  0  2  0  0  0  0  0  0  0  0  0
  150.1737  143.8397  159.4881 C   0  0  0  0  0  0  0  0  0  0  0  0
  152.2758  144.4072  158.3919 C   0  0  2  0  0  0  0  0  0  0  0  0
  148.8899  142.9023  155.6248 H   0  0  0  0  0  0  0  0  0  0  0  0
  146.9972  142.4228  154.5357 H   0  0  0  0  0  0  0  0  0  0  0  0
  145.6312  140.8367  153.1783 H   0  0  0  0  0  0  0  0  0  0  0  0
  148.9146  138.0495  153.3980 H   0  0  0  0  0  0  0  0  0  0  0  0
  150.2586  143.8180  156.6788 H   0  0  0  0  0  0  0  0  0  0  0  0
  153.0740  143.1940  156.7248 H   0  0  0  0  0  0  0  0  0  0  0  0
  153.3132  142.5590  159.0756 H   0  0  0  0  0  0  0  0  0  0  0  0
  150.9412  141.8252  160.0537 H   0  0  0  0  0  0  0  0  0  0  0  0
  151.1766  143.3848  162.0048 H   0  0  0  0  0  0  0  0  0  0  0  0
  152.8251  143.2571  161.3925 H   0  0  0  0  0  0  0  0  0  0  0  0
  151.0754  145.6200  161.3765 H   0  0  0  0  0  0  0  0  0  0  0  0
  152.7210  145.5486  160.7481 H   0  0  0  0  0  0  0  0  0  0  0  0
  150.7558  145.9105  158.9046 H   0  0  0  0  0  0  0  0  0  0  0  0
  149.5968  143.5662  158.6097 H   0  0  0  0  0  0  0  0  0  0  0  0
  149.4564  144.0326  160.2889 H   0  0  0  0  0  0  0  0  0  0  0  0
  153.2035  144.9770  158.3949 H   0  0  0  0  0  0  0  0  0  0  0  0
  1  2  2  0  0  0  0
  2  3  1  0  0  0  0
  2 11  1  0  0  0  0
  3  4  1  0  0  0  0
  3 20  1  0  0  0  0
  4 10  1  0  0  0  0
  4  5  2  0  0  0  0
  5  6  1  0  0  0  0
  5 21  1  0  0  0  0
  6  7  2  0  0  0  0
  6 22  1  0  0  0  0
  7  8  1  0  0  0  0
  7  9  1  0  0  0  0
  9 10  2  0  0  0  0
  9 23  1  0  0  0  0
 11 12  1  0  0  0  0
 11 24  1  0  0  0  0
 12 19  1  0  0  0  0
 12 13  1  0  0  0  0
 12 25  1  0  0  0  0
 13 19  1  0  0  0  0
 13 14  1  0  0  0  0
 13 26  1  0  0  0  0
 14 18  1  0  0  0  0
 14 15  1  0  0  0  0
 14 27  1  0  0  0  0
 15 16  1  0  0  0  0
 15 28  1  0  0  0  0
 15 29  1  0  0  0  0
 16 17  1  0  0  0  0
 16 30  1  0  0  0  0
 16 31  1  0  0  0  0
 17 18  1  0  0  0  0
 17 19  1  0  0  0  0
 17 32  1  0  0  0  0
 18 33  1  0  0  0  0
 18 34  1  0  0  0  0
 19 35  1  0  0  0  0
M  END
> <s_m_source_file>
AV-unprocessed.smi

> <i_m_source_file_index>
2781

> <i_lp_mmshare_version>
43012

> <i_f3d_flags>
0

> <s_epik_input>
bjFbY0hdYyhGKVtjSF1bY0hdYzFbTkhdQyg9TylbTkhdW0NASF0yW0NAQEhdM1tDQEhdKFtDSDJdNClbQ0gyXVtDSDJdW0NASF00W0NASF0yMw==

> <s_epik_cmdline>
J2VwaWtfcHl0aG9uJywgJy1waCcsICc3LjAnLCAnLXRuJywgJzgnLCAnLW1hJywgJzIwMCcsICctbWV0YWxfYmluZGluZycsICctaW1hZScsICc8aW5maWxlLm1hZT4nLCAnLW9tYWUnLCAnPG91dGZpbGUubWFlPic=

> <r_lp_tautomer_probability>
1

> <r_epik_Ionization_Penalty>
4.05776e-05

> <r_epik_Ionization_Penalty_Charging>
0

> <r_epik_Ionization_Penalty_Neutral>
4.05776e-05

> <r_epik_State_Penalty>
-0

> <r_epik_Charging_Adjusted_Penalty>
0

> <i_epik_Tot_Q>
0

> <i_epik_Tot_abs_Q>
0

> <r_epik_Metal_State_Penalty>
-0

> <b_epik_Metal_Only>
0

> <s_lp_Force_Field>
OPLS_2005

> <r_lp_Energy>
83.3371

> <b_lp_Chiralities_Consistent>
1

> <s_lp_Variant>
AV-unprocessed.smi:2781-4

> <Gold.Version>
5.8.1

> <Gold.Id.Protein>
6NUR|6NUR_protein|mol2

> <Gold.PLP.Fitness>
49.0643

> <Gold.PLP.PLP>
-40.6557

> <Gold.PLP.part.hbond>
-2.2044

> <Gold.PLP.part.metal>
0.0000

> <Gold.PLP.part.buried>
-2.9681

> <Gold.PLP.part.nonpolar>
-36.4132

> <Gold.PLP.part.repulsive>
0.3977

> <Gold.PLP.ligand.clash>
0.0000

> <Gold.PLP.ligand.torsion>
0.3206

> <Gold.PLP.Chemscore.Hbond>
2.0000

> <Gold.PLP.Chemscore.CHOScore>
1.0000

> <Gold.PLP.Chemscore.Metal>
0.0000

> <Gold.Chemscore.Hbonds>
donor molecule, donor type, donor heavy atom, donor atom, acceptor molecule, acceptor atom, score
      L1  H     3    20       P1  8028  0.99
      L1  H    11    24       P1  8028  0.90
      P1  H  7989  7998       L1     1  0.08
      L1  C     9    23       P1  7948  1.00

> <Gold.PLP.Chemscore.Internal.Correction>
0.0498

> <Gold.Rescore>
     Score         DG    S(hbond)    S(metal)    S(lipo)     H(rot)  DE(clash)    DE(int)     intcor
     19.55     -22.73       1.96        0.00     113.40       1.00       1.55       1.64       ----

> <Gold.Chemscore.Fitness>
19.5489

> <Gold.Chemscore.DG>
-22.7325

> <Gold.Chemscore.ZeroCoef>
-5.4800

> <Gold.Chemscore.Hbond>
1.9596

> <Gold.Chemscore.Metal>
0.0000

> <Gold.Chemscore.Lipo>
113.3977

> <Gold.Chemscore.Internal_Hbond>
0.0000

> <Gold.Chemscore.DEClash>
1.5480

> <Gold.Chemscore.DEInternal>
1.6356

> <Gold.Chemscore.Rot>
1.0000

> <Gold.Chemscore.Internal.Correction>
   9.000000E+99

> <Gold.Chemscore.Hbonds>
donor molecule, donor type, donor heavy atom, donor atom, acceptor molecule, acceptor atom, score
      L1  H     3    20       P1  8028  0.93
      L1  H    11    24       P1  8028  0.88
      P1  H  7989  7998       L1     1  0.03

> <Gold.Chemscore.Hbond.Weighted>
-6.5449

> <Gold.Chemscore.Metal.Weighted>
-0.0000

> <Gold.Chemscore.Lipo.Weighted>
-13.2675

> <Gold.Chemscore.Internal_Hbond.Weighted>
0.0000

> <Gold.Chemscore.DEClash.Weighted>
1.5480

> <Gold.Chemscore.DEInternal.Weighted>
1.6356

> <Gold.Chemscore.Rot.Weighted>
2.5600

> <Gold.Chemscore.Internal.Correction.Weighted>
   9.000000E+99

> <Gold.Protein.RotatedTorsions>
[ 6907 6896 6895 6894 ] final -119.75 input  -60.11 | X-H torsion
[ 7974 7965 7964 7962 ] final -126.80 input  175.53 | X-H torsion
[ 8008 7997 7996 7995 ] final -177.05 input   59.86 | X-H torsion
[ 10167 10162 10161 10158 ] final   29.06 input  -65.29 | X-H torsion
[ 10718 10713 10712 10709 ] final   17.13 input   66.30 | X-H torsion
[ 10763 10752 10751 10750 ] final   -9.34 input  -60.55 | X-H torsion
[ 11005 11000 10999 10996 ] final  162.21 input  -57.11 | X-H torsion

> <Gold.Protein.ActiveResidues>
 VAL166  LYS551  ARG553  GLY616  TRP617  ASP618  TYR619  PRO620  LYS621  CYS622 
 ASP623  PHE694  ASN695  SER759  ASP760  ASP761  ALA762  ILE779  LEU786  VAL792 
 PHE793  MET794  SER795  GLU796  ALA797  LYS798  CYS799  TRP800  GLU811  SER814 

> <Gold.Protein.RotatedAtoms>
  150.8333  133.8055  159.3089 H   0  0  0  0  0  0  0  0  0  0  0  0  # atno 6907 bound_to 6896
  151.5779  135.1058  160.0020 H   0  0  0  0  0  0  0  0  0  0  0  0  # atno 6908 bound_to 6896
  152.4409  133.7405  159.6694 H   0  0  0  0  0  0  0  0  0  0  0  0  # atno 6909 bound_to 6896
  144.9836  140.7664  143.4597 H   0  0  0  0  0  0  0  0  0  0  0  0  # atno 7974 bound_to 7965
  156.0023  140.1223  157.0536 H   0  0  0  0  0  0  0  0  0  0  0  0  # atno 8008 bound_to 7997
  154.4246  140.1104  156.5782 H   0  0  0  0  0  0  0  0  0  0  0  0  # atno 8009 bound_to 7997
  155.6196  140.3472  155.4650 H   0  0  0  0  0  0  0  0  0  0  0  0  # atno 8010 bound_to 7997
  140.4799  144.0633  150.6262 H   0  0  0  0  0  0  0  0  0  0  0  0  # atno 10167 bound_to 10162
  157.0777  130.6375  149.5819 H   0  0  0  0  0  0  0  0  0  0  0  0  # atno 10718 bound_to 10713
  153.4534  135.7015  153.6095 H   0  0  0  0  0  0  0  0  0  0  0  0  # atno 10763 bound_to 10752
  153.4420  135.3778  155.2233 H   0  0  0  0  0  0  0  0  0  0  0  0  # atno 10764 bound_to 10752
  154.8728  135.3976  154.3950 H   0  0  0  0  0  0  0  0  0  0  0  0  # atno 10765 bound_to 10752
  140.2235  134.8178  157.3244 H   0  0  0  0  0  0  0  0  0  0  0  0  # atno 11005 bound_to 11000
  145.2385  139.2083  143.5005 LP  0  0  0  0  0  0  0  0  0  0  0  0  # atno 17320 bound_to 7965
  146.3414  140.2276  142.8592 LP  0  0  0  0  0  0  0  0  0  0  0  0  # atno 17321 bound_to 7965
  140.3871  143.2772  152.0103 LP  0  0  0  0  0  0  0  0  0  0  0  0  # atno 17342 bound_to 10162
  139.4831  144.6107  151.7438 LP  0  0  0  0  0  0  0  0  0  0  0  0  # atno 17343 bound_to 10162
  155.9932  130.4992  150.7372 LP  0  0  0  0  0  0  0  0  0  0  0  0  # atno 17370 bound_to 10713
  157.4826  131.0903  151.0519 LP  0  0  0  0  0  0  0  0  0  0  0  0  # atno 17371 bound_to 10713
  140.1825  134.4472  155.7763 LP  0  0  0  0  0  0  0  0  0  0  0  0  # atno 17394 bound_to 11000
  141.2222  133.6990  156.7892 LP  0  0  0  0  0  0  0  0  0  0  0  0  # atno 17395 bound_to 11000

$$$$
