AV-unprocessed.smi:558|AV-procd|sdf|2923|dock7
  -GOLD-   2262023413D 1   1.00000     0.00000
 Structure written by MMmdl.
 36 37  0  0  0  0  0  0  0  0  1 V2000
  151.7246  144.3015  158.0257 C   0  0  0  0  0  0  0  0  0  0  0  0
  152.2479  143.6699  159.2817 C   0  0  0  0  0  0  0  0  0  0  0  0
  152.2431  144.1970  160.6031 C   0  0  0  0  0  0  0  0  0  0  0  0
  152.8347  143.2235  161.3578 C   0  0  0  0  0  0  0  0  0  0  0  0
  153.1176  143.1875  162.8243 C   0  0  0  0  0  0  0  0  0  0  0  0
  153.1583  142.1886  160.4963 N   0  0  0  0  0  0  0  0  0  0  0  0
  153.8002  140.9150  160.7833 C   0  0  0  0  0  0  0  0  0  0  0  0
  153.9403  140.0649  159.5191 C   0  0  0  0  0  0  0  0  0  0  0  0
  155.0349  139.5931  159.2131 O   0  0  0  0  0  0  0  0  0  0  0  0
  152.8242  139.8762  158.7981 N   0  0  0  0  0  0  0  0  0  0  0  0
  152.7314  139.1068  157.5617 C   0  0  0  0  0  0  0  0  0  0  0  0
  151.3959  139.3525  156.8361 C   0  0  1  0  0  0  0  0  0  0  0  0
  151.0090  140.8142  156.7444 C   0  0  0  0  0  0  0  0  0  0  0  0
  149.9611  140.7946  155.6355 C   0  0  0  0  0  0  0  0  0  0  0  0
  150.3324  139.7276  154.7673 O   0  0  0  0  0  0  0  0  0  0  0  0
  151.3741  138.9563  155.3585 C   0  0  0  0  0  0  0  0  0  0  0  0
  152.7972  142.4683  159.2247 N   0  0  0  0  0  0  0  0  0  0  0  0
  151.3576  145.3104  158.2153 H   0  0  0  0  0  0  0  0  0  0  0  0
  150.9007  143.7217  157.6092 H   0  0  0  0  0  0  0  0  0  0  0  0
  152.5034  144.3696  157.2659 H   0  0  0  0  0  0  0  0  0  0  0  0
  151.8620  145.1478  160.9456 H   0  0  0  0  0  0  0  0  0  0  0  0
  152.9435  144.1638  163.2766 H   0  0  0  0  0  0  0  0  0  0  0  0
  154.1537  142.9117  163.0199 H   0  0  0  0  0  0  0  0  0  0  0  0
  152.4713  142.4676  163.3262 H   0  0  0  0  0  0  0  0  0  0  0  0
  154.7879  141.0970  161.2103 H   0  0  0  0  0  0  0  0  0  0  0  0
  153.2243  140.3850  161.5426 H   0  0  0  0  0  0  0  0  0  0  0  0
  151.9716  140.3029  159.1302 H   0  0  0  0  0  0  0  0  0  0  0  0
  153.5561  139.4165  156.9194 H   0  0  0  0  0  0  0  0  0  0  0  0
  152.8780  138.0421  157.7515 H   0  0  0  0  0  0  0  0  0  0  0  0
  150.5978  138.8177  157.3540 H   0  0  0  0  0  0  0  0  0  0  0  0
  150.6258  141.2168  157.6824 H   0  0  0  0  0  0  0  0  0  0  0  0
  151.8653  141.4170  156.4381 H   0  0  0  0  0  0  0  0  0  0  0  0
  148.9753  140.5774  156.0487 H   0  0  0  0  0  0  0  0  0  0  0  0
  149.9025  141.7430  155.1010 H   0  0  0  0  0  0  0  0  0  0  0  0
  152.3145  139.2217  154.8732 H   0  0  0  0  0  0  0  0  0  0  0  0
  151.2091  137.8885  155.2131 H   0  0  0  0  0  0  0  0  0  0  0  0
  1  2  1  0  0  0  0
  1 18  1  0  0  0  0
  1 19  1  0  0  0  0
  1 20  1  0  0  0  0
  2 17  2  0  0  0  0
  2  3  1  0  0  0  0
  3  4  2  0  0  0  0
  3 21  1  0  0  0  0
  4  5  1  0  0  0  0
  4  6  1  0  0  0  0
  5 22  1  0  0  0  0
  5 23  1  0  0  0  0
  5 24  1  0  0  0  0
  6  7  1  0  0  0  0
  6 17  1  0  0  0  0
  7  8  1  0  0  0  0
  7 25  1  0  0  0  0
  7 26  1  0  0  0  0
  8  9  2  0  0  0  0
  8 10  1  0  0  0  0
 10 11  1  0  0  0  0
 10 27  1  0  0  0  0
 11 12  1  0  0  0  0
 11 28  1  0  0  0  0
 11 29  1  0  0  0  0
 12 16  1  0  0  0  0
 12 13  1  0  0  0  0
 12 30  1  0  0  0  0
 13 14  1  0  0  0  0
 13 31  1  0  0  0  0
 13 32  1  0  0  0  0
 14 15  1  0  0  0  0
 14 33  1  0  0  0  0
 14 34  1  0  0  0  0
 15 16  1  0  0  0  0
 16 35  1  0  0  0  0
 16 36  1  0  0  0  0
M  END
> <s_m_source_file>
AV-unprocessed.smi

> <i_m_source_file_index>
558

> <i_lp_mmshare_version>
43012

> <i_f3d_flags>
0

> <s_epik_input>
W0NIM11jMVtjSF1jKFtDSDNdKW4objEpW0NIMl1DKD1PKVtOSF1bQ0gyXVtDQEBIXTJbQ0gyXVtDSDJdT1tDSDJdMg==

> <s_epik_cmdline>
J2VwaWtfcHl0aG9uJywgJy1waCcsICc3LjAnLCAnLXRuJywgJzgnLCAnLW1hJywgJzIwMCcsICctbWV0YWxfYmluZGluZycsICctaW1hZScsICc8aW5maWxlLm1hZT4nLCAnLW9tYWUnLCAnPG91dGZpbGUubWFlPic=

> <r_lp_tautomer_probability>
1

> <r_epik_Ionization_Penalty>
0.000376629

> <r_epik_Ionization_Penalty_Charging>
0

> <r_epik_Ionization_Penalty_Neutral>
0.000376629

> <r_epik_State_Penalty>
-0

> <r_epik_Charging_Adjusted_Penalty>
0

> <i_epik_Tot_Q>
0

> <i_epik_Tot_abs_Q>
0

> <r_epik_Metal_State_Penalty>
-0

> <b_epik_Metal_Only>
0

> <s_lp_Force_Field>
OPLS_2005

> <r_lp_Energy>
17.6381

> <b_lp_Chiralities_Consistent>
1

> <s_lp_Variant>
AV-unprocessed.smi:558-2

> <Gold.Version>
5.8.1

> <Gold.Id.Protein>
6NUR|6NUR_protein|mol2

> <Gold.PLP.Fitness>
47.6286

> <Gold.PLP.PLP>
-42.2960

> <Gold.PLP.part.hbond>
-2.0000

> <Gold.PLP.part.metal>
0.0000

> <Gold.PLP.part.buried>
-2.3455

> <Gold.PLP.part.nonpolar>
-37.3916

> <Gold.PLP.part.repulsive>
0.1955

> <Gold.PLP.ligand.clash>
0.0000

> <Gold.PLP.ligand.torsion>
0.2638

> <Gold.PLP.Chemscore.Hbond>
1.9500

> <Gold.PLP.Chemscore.CHOScore>
0.0000

> <Gold.PLP.Chemscore.Metal>
0.0000

> <Gold.Chemscore.Hbonds>
donor molecule, donor type, donor heavy atom, donor atom, acceptor molecule, acceptor atom, score
      P1  H  7989  7998       L1    15  0.46
      P1  H  7997  8010       L1     9  1.00

> <Gold.PLP.Chemscore.Internal.Correction>
0.0103

> <Gold.Rescore>
     Score         DG    S(hbond)    S(metal)    S(lipo)     H(rot)  DE(clash)    DE(int)     intcor
     12.47     -15.99       0.59        0.00     106.68       1.54       1.50       2.02       ----

> <Gold.Chemscore.Fitness>
12.4707

> <Gold.Chemscore.DG>
-15.9941

> <Gold.Chemscore.ZeroCoef>
-5.4800

> <Gold.Chemscore.Hbond>
0.5902

> <Gold.Chemscore.Metal>
0.0000

> <Gold.Chemscore.Lipo>
106.6825

> <Gold.Chemscore.Internal_Hbond>
0.0000

> <Gold.Chemscore.DEClash>
1.5016

> <Gold.Chemscore.DEInternal>
2.0218

> <Gold.Chemscore.Rot>
1.5387

> <Gold.Chemscore.Internal.Correction>
   9.000000E+99

> <Gold.Chemscore.Hbonds>
donor molecule, donor type, donor heavy atom, donor atom, acceptor molecule, acceptor atom, score
      P1  H  7989  7998       L1    15  0.01
      P1  H  7997  8010       L1     9  0.72

> <Gold.Chemscore.Hbond.Weighted>
-1.9714

> <Gold.Chemscore.Metal.Weighted>
-0.0000

> <Gold.Chemscore.Lipo.Weighted>
-12.4819

> <Gold.Chemscore.Internal_Hbond.Weighted>
0.0000

> <Gold.Chemscore.DEClash.Weighted>
1.5016

> <Gold.Chemscore.DEInternal.Weighted>
2.0218

> <Gold.Chemscore.Rot.Weighted>
3.9392

> <Gold.Chemscore.Internal.Correction.Weighted>
   9.000000E+99

> <Gold.Protein.RotatedTorsions>
[ 6907 6896 6895 6894 ] final  -55.02 input  -60.11 | X-H torsion
[ 7974 7965 7964 7962 ] final   88.96 input  175.53 | X-H torsion
[ 8008 7997 7996 7995 ] final  -21.64 input   59.86 | X-H torsion
[ 10167 10162 10161 10158 ] final   76.31 input  -65.29 | X-H torsion
[ 10718 10713 10712 10709 ] final -124.43 input   66.30 | X-H torsion
[ 10763 10752 10751 10750 ] final  -85.53 input  -60.55 | X-H torsion
[ 11005 11000 10999 10996 ] final -168.72 input  -57.11 | X-H torsion

> <Gold.Protein.ActiveResidues>
 VAL166  LYS551  ARG553  GLY616  TRP617  ASP618  TYR619  PRO620  LYS621  CYS622 
 ASP623  PHE694  ASN695  SER759  ASP760  ASP761  ALA762  ILE779  LEU786  VAL792 
 PHE793  MET794  SER795  GLU796  ALA797  LYS798  CYS799  TRP800  GLU811  SER814 

> <Gold.Protein.RotatedAtoms>
  150.8287  134.7530  159.6834 H   0  0  0  0  0  0  0  0  0  0  0  0  # atno 6907 bound_to 6896
  152.4395  134.5617  159.9906 H   0  0  0  0  0  0  0  0  0  0  0  0  # atno 6908 bound_to 6896
  151.5783  133.3343  159.3039 H   0  0  0  0  0  0  0  0  0  0  0  0  # atno 6909 bound_to 6896
  145.5387  139.2287  143.2578 H   0  0  0  0  0  0  0  0  0  0  0  0  # atno 7974 bound_to 7965
  154.4693  140.2029  156.0037 H   0  0  0  0  0  0  0  0  0  0  0  0  # atno 8008 bound_to 7997
  156.0982  140.3248  155.7877 H   0  0  0  0  0  0  0  0  0  0  0  0  # atno 8009 bound_to 7997
  155.4842  140.0541  157.2953 H   0  0  0  0  0  0  0  0  0  0  0  0  # atno 8010 bound_to 7997
  139.9936  144.5739  150.7797 H   0  0  0  0  0  0  0  0  0  0  0  0  # atno 10167 bound_to 10162
  156.1587  130.6586  151.0019 H   0  0  0  0  0  0  0  0  0  0  0  0  # atno 10718 bound_to 10713
  154.6122  135.5481  153.7485 H   0  0  0  0  0  0  0  0  0  0  0  0  # atno 10763 bound_to 10752
  153.0200  135.6392  154.1562 H   0  0  0  0  0  0  0  0  0  0  0  0  # atno 10764 bound_to 10752
  154.1499  135.2903  155.3118 H   0  0  0  0  0  0  0  0  0  0  0  0  # atno 10765 bound_to 10752
  140.5388  134.5543  157.5094 H   0  0  0  0  0  0  0  0  0  0  0  0  # atno 11005 bound_to 11000
  146.1995  140.6207  142.9109 LP  0  0  0  0  0  0  0  0  0  0  0  0  # atno 17320 bound_to 7965
  144.7588  140.5372  143.6750 LP  0  0  0  0  0  0  0  0  0  0  0  0  # atno 17321 bound_to 7965
  140.7445  143.2862  151.3456 LP  0  0  0  0  0  0  0  0  0  0  0  0  # atno 17342 bound_to 10162
  139.6322  144.0698  152.2486 LP  0  0  0  0  0  0  0  0  0  0  0  0  # atno 17343 bound_to 10162
  157.6715  131.0860  150.7600 LP  0  0  0  0  0  0  0  0  0  0  0  0  # atno 17370 bound_to 10713
  156.7663  130.4815  149.5427 LP  0  0  0  0  0  0  0  0  0  0  0  0  # atno 17371 bound_to 10713
  139.9515  134.7609  156.0438 LP  0  0  0  0  0  0  0  0  0  0  0  0  # atno 17394 bound_to 11000
  141.1239  133.6605  156.3286 LP  0  0  0  0  0  0  0  0  0  0  0  0  # atno 17395 bound_to 11000

$$$$
