AV-unprocessed.smi:1906|AV-procd|sdf|7727|dock7
  -GOLD-   22720 9473D 1   1.00000     0.00000
 Structure written by MMmdl.
 35 37  0  0  0  0  0  0  0  0  1 V2000
  152.2831  138.9388  155.7053 C   0  0  0  0  0  0  0  0  0  0  0  0
  150.9282  139.3603  155.2321 C   0  0  0  0  0  0  0  0  0  0  0  0
  150.1372  138.5488  154.5293 N   0  0  0  0  0  0  0  0  0  0  0  0
  149.0153  139.3270  154.3178 C   0  0  0  0  0  0  0  0  0  0  0  0
  147.8113  139.0393  153.6357 C   0  0  0  0  0  0  0  0  0  0  0  0
  146.7900  140.0083  153.5501 C   0  0  0  0  0  0  0  0  0  0  0  0
  146.9571  141.2763  154.1437 C   0  0  0  0  0  0  0  0  0  0  0  0
  148.1486  141.5837  154.8284 C   0  0  0  0  0  0  0  0  0  0  0  0
  149.1644  140.6127  154.9107 C   0  0  0  0  0  0  0  0  0  0  0  0
  150.4263  140.5925  155.4951 N   0  0  0  0  0  0  0  0  0  0  0  0
  151.0444  141.6847  156.2339 C   0  0  0  0  0  0  0  0  0  0  0  0
  151.5081  141.2602  157.6413 C   0  0  2  0  0  0  0  0  0  0  0  0
  150.5683  140.3706  158.2120 O   0  0  0  0  0  0  0  0  0  0  0  0
  151.7637  142.4702  158.5253 C   0  0  0  0  0  0  0  0  0  0  0  0
  151.5089  143.7756  158.0500 C   0  0  0  0  0  0  0  0  0  0  0  0
  151.7615  144.8918  158.8713 C   0  0  0  0  0  0  0  0  0  0  0  0
  152.2708  144.7094  160.1714 C   0  0  0  0  0  0  0  0  0  0  0  0
  152.5284  143.4101  160.6494 C   0  0  0  0  0  0  0  0  0  0  0  0
  153.0201  143.2333  161.8985 F   0  0  0  0  0  0  0  0  0  0  0  0
  152.2770  142.2941  159.8282 C   0  0  0  0  0  0  0  0  0  0  0  0
  152.5288  137.9460  155.3267 H   0  0  0  0  0  0  0  0  0  0  0  0
  152.3078  138.9065  156.7947 H   0  0  0  0  0  0  0  0  0  0  0  0
  153.0437  139.6358  155.3539 H   0  0  0  0  0  0  0  0  0  0  0  0
  147.6729  138.0714  153.1776 H   0  0  0  0  0  0  0  0  0  0  0  0
  145.8737  139.7775  153.0267 H   0  0  0  0  0  0  0  0  0  0  0  0
  146.1703  142.0130  154.0732 H   0  0  0  0  0  0  0  0  0  0  0  0
  148.2803  142.5537  155.2845 H   0  0  0  0  0  0  0  0  0  0  0  0
  151.9000  142.0335  155.6542 H   0  0  0  0  0  0  0  0  0  0  0  0
  150.3554  142.5275  156.2913 H   0  0  0  0  0  0  0  0  0  0  0  0
  152.4421  140.7041  157.5500 H   0  0  0  0  0  0  0  0  0  0  0  0
  150.3779  140.6599  159.0913 H   0  0  0  0  0  0  0  0  0  0  0  0
  151.1223  143.9246  157.0521 H   0  0  0  0  0  0  0  0  0  0  0  0
  151.5662  145.8882  158.5030 H   0  0  0  0  0  0  0  0  0  0  0  0
  152.4652  145.5655  160.8006 H   0  0  0  0  0  0  0  0  0  0  0  0
  152.4820  141.3018  160.2026 H   0  0  0  0  0  0  0  0  0  0  0  0
  1  2  1  0  0  0  0
  1 21  1  0  0  0  0
  1 22  1  0  0  0  0
  1 23  1  0  0  0  0
  2 10  1  0  0  0  0
  2  3  2  0  0  0  0
  3  4  1  0  0  0  0
  4  9  2  0  0  0  0
  4  5  1  0  0  0  0
  5  6  2  0  0  0  0
  5 24  1  0  0  0  0
  6  7  1  0  0  0  0
  6 25  1  0  0  0  0
  7  8  2  0  0  0  0
  7 26  1  0  0  0  0
  8  9  1  0  0  0  0
  8 27  1  0  0  0  0
  9 10  1  0  0  0  0
 10 11  1  0  0  0  0
 11 12  1  0  0  0  0
 11 28  1  0  0  0  0
 11 29  1  0  0  0  0
 12 13  1  0  0  0  0
 12 14  1  0  0  0  0
 12 30  1  0  0  0  0
 13 31  1  0  0  0  0
 14 20  1  0  0  0  0
 14 15  2  0  0  0  0
 15 16  1  0  0  0  0
 15 32  1  0  0  0  0
 16 17  2  0  0  0  0
 16 33  1  0  0  0  0
 17 18  1  0  0  0  0
 17 34  1  0  0  0  0
 18 19  1  0  0  0  0
 18 20  2  0  0  0  0
 20 35  1  0  0  0  0
M  END
> <s_m_source_file>
AV-unprocessed.smi

> <i_m_source_file_index>
1906

> <i_lp_mmshare_version>
43012

> <i_f3d_flags>
0

> <s_epik_input>
W2NIXTFbY0hdW2NIXVtjSF1jKGMxMiluKGMobjIpW0NIM10pW0NIMl1bQ0BIXShbT0hdKWMzW2NIXVtjSF1bY0hdYyhGKVtjSF0z

> <s_epik_cmdline>
J2VwaWtfcHl0aG9uJywgJy1waCcsICc3LjAnLCAnLXRuJywgJzgnLCAnLW1hJywgJzIwMCcsICctbWV0YWxfYmluZGluZycsICctaW1hZScsICc8aW5maWxlLm1hZT4nLCAnLW9tYWUnLCAnPG91dGZpbGUubWFlPic=

> <r_epik_Ionization_Penalty>
0.129664

> <r_epik_Ionization_Penalty_Charging>
0

> <r_epik_Ionization_Penalty_Neutral>
0.129664

> <r_epik_State_Penalty>
0.119073

> <r_epik_Charging_Adjusted_Penalty>
0.119073

> <i_epik_Tot_Q>
0

> <i_epik_Tot_abs_Q>
0

> <r_epik_Metal_State_Penalty>
0.000131867

> <b_epik_Metal_Only>
0

> <s_lp_Force_Field>
OPLS_2005

> <r_lp_Energy>
10.1528

> <b_lp_Chiralities_Consistent>
1

> <s_lp_Variant>
AV-unprocessed.smi:1906-1

> <Gold.Version>
5.8.1

> <Gold.Id.Protein>
6NUR|6NUR_protein|mol2

> <Gold.PLP.Fitness>
50.0191

> <Gold.PLP.PLP>
-50.4386

> <Gold.PLP.part.hbond>
0.0000

> <Gold.PLP.part.metal>
0.0000

> <Gold.PLP.part.buried>
-2.4094

> <Gold.PLP.part.nonpolar>
-47.4461

> <Gold.PLP.part.repulsive>
0.1945

> <Gold.PLP.ligand.clash>
0.0000

> <Gold.PLP.ligand.torsion>
0.2213

> <Gold.PLP.Chemscore.Hbond>
0.0000

> <Gold.PLP.Chemscore.CHOScore>
0.0000

> <Gold.PLP.Chemscore.Metal>
0.0000

> <Gold.PLP.Chemscore.Internal.Correction>
0.0230

> <Gold.Rescore>
     Score         DG    S(hbond)    S(metal)    S(lipo)     H(rot)  DE(clash)    DE(int)     intcor
     15.54     -15.75       0.00        0.00     126.98       1.79       0.04       0.18       ----

> <Gold.Chemscore.Fitness>
15.5353

> <Gold.Chemscore.DG>
-15.7478

> <Gold.Chemscore.ZeroCoef>
-5.4800

> <Gold.Chemscore.Hbond>
0.0000

> <Gold.Chemscore.Metal>
0.0000

> <Gold.Chemscore.Lipo>
126.9814

> <Gold.Chemscore.Internal_Hbond>
0.0000

> <Gold.Chemscore.DEClash>
0.0360

> <Gold.Chemscore.DEInternal>
0.1765

> <Gold.Chemscore.Rot>
1.7926

> <Gold.Chemscore.Internal.Correction>
   9.000000E+99

> <Gold.Chemscore.Hbond.Weighted>
-0.0000

> <Gold.Chemscore.Metal.Weighted>
-0.0000

> <Gold.Chemscore.Lipo.Weighted>
-14.8568

> <Gold.Chemscore.Internal_Hbond.Weighted>
0.0000

> <Gold.Chemscore.DEClash.Weighted>
0.0360

> <Gold.Chemscore.DEInternal.Weighted>
0.1765

> <Gold.Chemscore.Rot.Weighted>
4.5890

> <Gold.Chemscore.Internal.Correction.Weighted>
   9.000000E+99

> <Gold.Protein.RotatedTorsions>
[ 6907 6896 6895 6894 ] final -167.12 input  -60.11 | X-H torsion
[ 7974 7965 7964 7962 ] final   76.97 input  175.53 | X-H torsion
[ 8008 7997 7996 7995 ] final    0.38 input   59.86 | X-H torsion
[ 10167 10162 10161 10158 ] final   -0.60 input  -65.29 | X-H torsion
[ 10718 10713 10712 10709 ] final  -42.55 input   66.30 | X-H torsion
[ 10763 10752 10751 10750 ] final  -92.84 input  -60.55 | X-H torsion
[ 11005 11000 10999 10996 ] final  -33.50 input  -57.11 | X-H torsion

> <Gold.Protein.ActiveResidues>
 VAL166  LYS551  ARG553  GLY616  TRP617  ASP618  TYR619  PRO620  LYS621  CYS622 
 ASP623  PHE694  ASN695  SER759  ASP760  ASP761  ALA762  ILE779  LEU786  VAL792 
 PHE793  MET794  SER795  GLU796  ALA797  LYS798  CYS799  TRP800  GLU811  SER814 

> <Gold.Protein.RotatedAtoms>
  151.4545  133.3608  159.2799 H   0  0  0  0  0  0  0  0  0  0  0  0  # atno 6907 bound_to 6896
  150.9068  134.8485  159.7408 H   0  0  0  0  0  0  0  0  0  0  0  0  # atno 6908 bound_to 6896
  152.4910  134.4471  159.9614 H   0  0  0  0  0  0  0  0  0  0  0  0  # atno 6909 bound_to 6896
  145.6960  139.2567  143.1732 H   0  0  0  0  0  0  0  0  0  0  0  0  # atno 7974 bound_to 7965
  154.6674  140.2604  155.7044 H   0  0  0  0  0  0  0  0  0  0  0  0  # atno 8008 bound_to 7997
  156.2644  140.2836  156.1091 H   0  0  0  0  0  0  0  0  0  0  0  0  # atno 8009 bound_to 7997
  155.1219  140.0377  157.2742 H   0  0  0  0  0  0  0  0  0  0  0  0  # atno 8010 bound_to 7997
  140.6774  143.6875  150.8054 H   0  0  0  0  0  0  0  0  0  0  0  0  # atno 10167 bound_to 10162
  156.2584  130.4194  149.8570 H   0  0  0  0  0  0  0  0  0  0  0  0  # atno 10718 bound_to 10713
  154.6900  135.5216  153.8380 H   0  0  0  0  0  0  0  0  0  0  0  0  # atno 10763 bound_to 10752
  153.0625  135.6573  154.0438 H   0  0  0  0  0  0  0  0  0  0  0  0  # atno 10764 bound_to 10752
  154.0314  135.2985  155.3347 H   0  0  0  0  0  0  0  0  0  0  0  0  # atno 10765 bound_to 10752
  140.9640  133.7148  156.1415 H   0  0  0  0  0  0  0  0  0  0  0  0  # atno 11005 bound_to 11000
  146.0840  140.7732  142.9628 LP  0  0  0  0  0  0  0  0  0  0  0  0  # atno 17320 bound_to 7965
  144.6982  140.3533  143.7177 LP  0  0  0  0  0  0  0  0  0  0  0  0  # atno 17321 bound_to 7965
  140.0570  143.5192  152.2646 LP  0  0  0  0  0  0  0  0  0  0  0  0  # atno 17342 bound_to 10162
  139.6075  144.7600  151.3028 LP  0  0  0  0  0  0  0  0  0  0  0  0  # atno 17343 bound_to 10162
  156.6093  130.8580  151.3450 LP  0  0  0  0  0  0  0  0  0  0  0  0  # atno 17370 bound_to 10713
  157.7241  130.9599  150.1561 LP  0  0  0  0  0  0  0  0  0  0  0  0  # atno 17371 bound_to 10713
  140.7426  134.4133  157.5552 LP  0  0  0  0  0  0  0  0  0  0  0  0  # atno 17394 bound_to 11000
  139.8888  134.8847  156.2455 LP  0  0  0  0  0  0  0  0  0  0  0  0  # atno 17395 bound_to 11000

$$$$
