AV-unprocessed.smi:3240|AV-procd|sdf|12382|dock6
  -GOLD-   2272018243D 1   1.00000     0.00000
 Structure written by MMmdl.
 44 45  0  0  0  0  0  0  0  0  2 V2000
  152.8248  143.5558  163.4215 C   0  0  0  0  0  0  0  0  0  0  0  0
  152.6753  143.2001  161.9702 C   0  0  0  0  0  0  0  0  0  0  0  0
  153.2126  142.0738  161.2847 C   0  0  0  0  0  0  0  0  0  0  0  0
  152.8948  142.0548  160.0003 N   0  0  0  0  0  0  0  0  0  0  0  0
  152.1476  143.1640  159.8205 N   0  0  0  0  0  0  0  0  0  0  0  0
  151.6119  143.4752  158.5079 C   0  0  0  0  0  0  0  0  0  0  0  0
  150.2330  142.8139  158.2629 C   0  0  1  0  0  0  0  0  0  0  0  0
  149.0943  143.6815  158.8184 C   0  0  0  0  0  0  0  0  0  0  0  0
  149.9950  142.5634  156.8236 N   0  3  0  0  0  0  0  0  0  0  0  0
  148.9349  141.5784  156.5157 C   0  0  0  0  0  0  0  0  0  0  0  0
  149.0385  141.0368  155.0693 C   0  0  0  0  0  0  0  0  0  0  0  0
  149.0565  142.1581  154.2059 O   0  0  0  0  0  0  0  0  0  0  0  0
  150.3191  140.2040  154.8133 C   0  0  0  0  0  0  0  0  0  0  0  0
  150.2886  138.8449  155.5348 C   0  0  0  0  0  0  0  0  0  0  0  0
  149.0390  138.0381  155.1485 C   0  0  0  0  0  0  0  0  0  0  0  0
  147.7522  138.8389  155.4012 C   0  0  0  0  0  0  0  0  0  0  0  0
  147.7922  140.2032  154.6883 C   0  0  0  0  0  0  0  0  0  0  0  0
  151.9982  143.8731  160.9933 C   0  0  0  0  0  0  0  0  0  0  0  0
  153.3729  142.7916  163.9730 H   0  0  0  0  0  0  0  0  0  0  0  0
  151.8564  143.6708  163.9091 H   0  0  0  0  0  0  0  0  0  0  0  0
  153.3648  144.4937  163.5513 H   0  0  0  0  0  0  0  0  0  0  0  0
  153.8214  141.2741  161.6807 H   0  0  0  0  0  0  0  0  0  0  0  0
  151.5384  144.5612  158.4344 H   0  0  0  0  0  0  0  0  0  0  0  0
  152.3406  143.1807  157.7504 H   0  0  0  0  0  0  0  0  0  0  0  0
  150.1815  141.8540  158.7806 H   0  0  0  0  0  0  0  0  0  0  0  0
  149.2126  143.8438  159.8904 H   0  0  0  0  0  0  0  0  0  0  0  0
  148.1251  143.2055  158.6651 H   0  0  0  0  0  0  0  0  0  0  0  0
  149.0654  144.6588  158.3349 H   0  0  0  0  0  0  0  0  0  0  0  0
  149.7162  143.4362  156.3983 H   0  0  0  0  0  0  0  0  0  0  0  0
  149.0017  140.7570  157.2253 H   0  0  0  0  0  0  0  0  0  0  0  0
  147.9619  142.0470  156.6711 H   0  0  0  0  0  0  0  0  0  0  0  0
  149.0500  142.9435  154.7325 H   0  0  0  0  0  0  0  0  0  0  0  0
  150.4225  140.0210  153.7425 H   0  0  0  0  0  0  0  0  0  0  0  0
  151.2121  140.7578  155.1045 H   0  0  0  0  0  0  0  0  0  0  0  0
  151.1845  138.2754  155.2853 H   0  0  0  0  0  0  0  0  0  0  0  0
  150.3140  138.9927  156.6148 H   0  0  0  0  0  0  0  0  0  0  0  0
  149.0950  137.7645  154.0941 H   0  0  0  0  0  0  0  0  0  0  0  0
  149.0115  137.1028  155.7085 H   0  0  0  0  0  0  0  0  0  0  0  0
  146.8902  138.2681  155.0542 H   0  0  0  0  0  0  0  0  0  0  0  0
  147.6088  138.9782  156.4728 H   0  0  0  0  0  0  0  0  0  0  0  0
  146.8796  140.7598  154.9055 H   0  0  0  0  0  0  0  0  0  0  0  0
  147.7866  140.0267  153.6112 H   0  0  0  0  0  0  0  0  0  0  0  0
  151.4283  144.7899  161.0361 H   0  0  0  0  0  0  0  0  0  0  0  0
  150.8589  142.2623  156.3963 H   0  0  0  0  0  0  0  0  0  0  0  0
  1  2  1  0  0  0  0
  1 19  1  0  0  0  0
  1 20  1  0  0  0  0
  1 21  1  0  0  0  0
  2 18  2  0  0  0  0
  2  3  1  0  0  0  0
  3  4  2  0  0  0  0
  3 22  1  0  0  0  0
  4  5  1  0  0  0  0
  5  6  1  0  0  0  0
  5 18  1  0  0  0  0
  6  7  1  0  0  0  0
  6 23  1  0  0  0  0
  6 24  1  0  0  0  0
  7  8  1  0  0  0  0
  7  9  1  0  0  0  0
  7 25  1  0  0  0  0
  8 26  1  0  0  0  0
  8 27  1  0  0  0  0
  8 28  1  0  0  0  0
  9 10  1  0  0  0  0
  9 29  1  0  0  0  0
  9 44  1  0  0  0  0
 10 11  1  0  0  0  0
 10 30  1  0  0  0  0
 10 31  1  0  0  0  0
 11 17  1  0  0  0  0
 11 12  1  0  0  0  0
 11 13  1  0  0  0  0
 12 32  1  0  0  0  0
 13 14  1  0  0  0  0
 13 33  1  0  0  0  0
 13 34  1  0  0  0  0
 14 15  1  0  0  0  0
 14 35  1  0  0  0  0
 14 36  1  0  0  0  0
 15 16  1  0  0  0  0
 15 37  1  0  0  0  0
 15 38  1  0  0  0  0
 16 17  1  0  0  0  0
 16 39  1  0  0  0  0
 16 40  1  0  0  0  0
 17 41  1  0  0  0  0
 17 42  1  0  0  0  0
 18 43  1  0  0  0  0
M  CHG  1   9   1
M  END
> <s_m_source_file>
AV-unprocessed.smi

> <i_m_source_file_index>
3240

> <i_lp_mmshare_version>
43012

> <i_f3d_flags>
0

> <s_epik_input>
W0NIM11jMVtjSF1ubihbY0hdMSlbQ0gyXVtDQEhdKFtDSDNdKVtOSF1bQ0gyXUMyKFtPSF0pW0NIMl1bQ0gyXVtDSDJdW0NIMl1bQ0gyXTI=

> <s_epik_cmdline>
J2VwaWtfcHl0aG9uJywgJy1waCcsICc3LjAnLCAnLXRuJywgJzgnLCAnLW1hJywgJzIwMCcsICctbWV0YWxfYmluZGluZycsICctaW1hZScsICc8aW5maWxlLm1hZT4nLCAnLW9tYWUnLCAnPG91dGZpbGUubWFlPic=

> <r_lp_tautomer_probability>
1

> <r_epik_Ionization_Penalty>
0.0111573

> <r_epik_Ionization_Penalty_Charging>
0.0111472

> <r_epik_Ionization_Penalty_Neutral>
1.01652e-05

> <r_epik_State_Penalty>
0.00856328

> <r_epik_Charging_Adjusted_Penalty>
0.0197104

> <i_epik_Tot_Q>
1

> <i_epik_Tot_abs_Q>
1

> <r_epik_Metal_State_Penalty>
0.00856448

> <b_epik_Metal_Only>
0

> <s_lp_Force_Field>
OPLS_2005

> <r_lp_Energy>
18.8853

> <b_lp_Chiralities_Consistent>
1

> <s_lp_Variant>
AV-unprocessed.smi:3240-2

> <Gold.Version>
5.8.1

> <Gold.Id.Protein>
6NUR|6NUR_protein|mol2

> <Gold.PLP.Fitness>
46.4125

> <Gold.PLP.PLP>
-38.5232

> <Gold.PLP.part.hbond>
-3.0000

> <Gold.PLP.part.metal>
0.0000

> <Gold.PLP.part.buried>
-2.5765

> <Gold.PLP.part.nonpolar>
-32.9497

> <Gold.PLP.part.repulsive>
0.0425

> <Gold.PLP.ligand.clash>
0.0000

> <Gold.PLP.ligand.torsion>
0.9319

> <Gold.PLP.Chemscore.Hbond>
3.2400

> <Gold.PLP.Chemscore.CHOScore>
0.0000

> <Gold.PLP.Chemscore.Metal>
0.0000

> <Gold.Chemscore.Hbonds>
donor molecule, donor type, donor heavy atom, donor atom, acceptor molecule, acceptor atom, score
      L1  H     9    29       P1  8028  2.00
      L1  H    12    32       P1  8028  1.00
      P1  H  8011  8017       L1    12  0.30

> <Gold.PLP.Chemscore.Internal.Correction>
0.0331

> <Gold.Rescore>
     Score         DG    S(hbond)    S(metal)    S(lipo)     H(rot)  DE(clash)    DE(int)     intcor
     17.38     -20.13       2.21        0.00     108.57       2.12       2.24       0.50       ----

> <Gold.Chemscore.Fitness>
17.3842

> <Gold.Chemscore.DG>
-20.1256

> <Gold.Chemscore.ZeroCoef>
-5.4800

> <Gold.Chemscore.Hbond>
2.2061

> <Gold.Chemscore.Metal>
0.0000

> <Gold.Chemscore.Lipo>
108.5692

> <Gold.Chemscore.Internal_Hbond>
0.0000

> <Gold.Chemscore.DEClash>
2.2389

> <Gold.Chemscore.DEInternal>
0.5025

> <Gold.Chemscore.Rot>
2.1193

> <Gold.Chemscore.Internal.Correction>
   9.000000E+99

> <Gold.Chemscore.Hbonds>
donor molecule, donor type, donor heavy atom, donor atom, acceptor molecule, acceptor atom, score
      L1  H     9    29       P1  8028  1.00
      L1  H    12    32       P1  8028  0.97
      P1  H  8011  8017       L1    12  0.24

> <Gold.Chemscore.Hbond.Weighted>
-7.3684

> <Gold.Chemscore.Metal.Weighted>
-0.0000

> <Gold.Chemscore.Lipo.Weighted>
-12.7026

> <Gold.Chemscore.Internal_Hbond.Weighted>
0.0000

> <Gold.Chemscore.DEClash.Weighted>
2.2389

> <Gold.Chemscore.DEInternal.Weighted>
0.5025

> <Gold.Chemscore.Rot.Weighted>
5.4254

> <Gold.Chemscore.Internal.Correction.Weighted>
   9.000000E+99

> <Gold.Protein.RotatedTorsions>
[ 6907 6896 6895 6894 ] final  139.30 input  -60.11 | X-H torsion
[ 7974 7965 7964 7962 ] final -140.43 input  175.53 | X-H torsion
[ 8008 7997 7996 7995 ] final -108.72 input   59.86 | X-H torsion
[ 10167 10162 10161 10158 ] final   28.57 input  -65.29 | X-H torsion
[ 10718 10713 10712 10709 ] final   61.11 input   66.30 | X-H torsion
[ 10763 10752 10751 10750 ] final -171.29 input  -60.55 | X-H torsion
[ 11005 11000 10999 10996 ] final   18.21 input  -57.11 | X-H torsion

> <Gold.Protein.ActiveResidues>
 VAL166  LYS551  ARG553  GLY616  TRP617  ASP618  TYR619  PRO620  LYS621  CYS622 
 ASP623  PHE694  ASN695  SER759  ASP760  ASP761  ALA762  ILE779  LEU786  VAL792 
 PHE793  MET794  SER795  GLU796  ALA797  LYS798  CYS799  TRP800  GLU811  SER814 

> <Gold.Protein.RotatedAtoms>
  152.2565  133.5260  159.5355 H   0  0  0  0  0  0  0  0  0  0  0  0  # atno 6907 bound_to 6896
  150.7110  134.0889  159.3933 H   0  0  0  0  0  0  0  0  0  0  0  0  # atno 6908 bound_to 6896
  151.8807  135.0454  160.0539 H   0  0  0  0  0  0  0  0  0  0  0  0  # atno 6909 bound_to 6896
  144.8597  140.6200  143.5336 H   0  0  0  0  0  0  0  0  0  0  0  0  # atno 7974 bound_to 7965
  154.9486  140.0401  157.2132 H   0  0  0  0  0  0  0  0  0  0  0  0  # atno 8008 bound_to 7997
  154.8000  140.2850  155.5906 H   0  0  0  0  0  0  0  0  0  0  0  0  # atno 8009 bound_to 7997
  156.2960  140.2557  156.2866 H   0  0  0  0  0  0  0  0  0  0  0  0  # atno 8010 bound_to 7997
  140.4841  144.0570  150.6275 H   0  0  0  0  0  0  0  0  0  0  0  0  # atno 10167 bound_to 10162
  157.5803  130.8976  149.9420 H   0  0  0  0  0  0  0  0  0  0  0  0  # atno 10718 bound_to 10713
  154.6322  135.2888  155.0203 H   0  0  0  0  0  0  0  0  0  0  0  0  # atno 10763 bound_to 10752
  154.1360  135.6526  153.4936 H   0  0  0  0  0  0  0  0  0  0  0  0  # atno 10764 bound_to 10752
  153.0285  135.5321  154.7154 H   0  0  0  0  0  0  0  0  0  0  0  0  # atno 10765 bound_to 10752
  140.4274  134.1456  155.7677 H   0  0  0  0  0  0  0  0  0  0  0  0  # atno 11005 bound_to 11000
  145.4336  139.1545  143.4009 LP  0  0  0  0  0  0  0  0  0  0  0  0  # atno 17320 bound_to 7965
  146.2851  140.4453  142.8761 LP  0  0  0  0  0  0  0  0  0  0  0  0  # atno 17321 bound_to 7965
  140.3821  143.2797  152.0159 LP  0  0  0  0  0  0  0  0  0  0  0  0  # atno 17342 bound_to 10162
  139.4838  144.6146  151.7369 LP  0  0  0  0  0  0  0  0  0  0  0  0  # atno 17343 bound_to 10162
  156.0849  130.3669  150.0507 LP  0  0  0  0  0  0  0  0  0  0  0  0  # atno 17370 bound_to 10713
  156.8647  130.9504  151.3615 LP  0  0  0  0  0  0  0  0  0  0  0  0  # atno 17371 bound_to 10713
  141.1760  133.8513  157.1420 LP  0  0  0  0  0  0  0  0  0  0  0  0  # atno 17394 bound_to 11000
  140.0158  134.9968  157.0490 LP  0  0  0  0  0  0  0  0  0  0  0  0  # atno 17395 bound_to 11000

$$$$
