AV-unprocessed.smi:1205|AV-procd|sdf|5040|dock7
  -GOLD-   22720 4 63D 1   1.00000     0.00000
 Structure written by MMmdl.
 49 50  0  0  0  0  0  0  0  0  2 V2000
  153.5479  141.5895  160.6912 C   0  0  0  0  0  0  0  0  0  0  0  0
  152.4148  142.0784  159.8379 C   0  0  0  0  0  0  0  0  0  0  0  0
  152.0593  141.6560  158.5239 C   0  0  0  0  0  0  0  0  0  0  0  0
  150.9664  142.4300  158.2444 C   0  0  0  0  0  0  0  0  0  0  0  0
  150.2081  142.4628  157.1163 N   0  0  0  0  0  0  0  0  0  0  0  0
  149.8348  141.4418  156.3254 C   0  0  0  0  0  0  0  0  0  0  0  0
  150.1278  140.2581  156.4965 O   0  0  0  0  0  0  0  0  0  0  0  0
  149.0784  141.8704  155.3048 N   0  0  0  0  0  0  0  0  0  0  0  0
  148.5075  141.0114  154.2721 C   0  0  0  0  0  0  0  0  0  0  0  0
  146.9587  140.9637  154.3286 C   0  0  1  0  0  0  0  0  0  0  0  0
  146.3119  142.3286  154.0248 C   0  0  0  0  0  0  0  0  0  0  0  0
  146.3716  139.8983  153.4641 N   0  3  1  0  0  0  0  0  0  0  0  0
  146.9959  139.7498  152.1211 C   0  0  0  0  0  0  0  0  0  0  0  0
  146.1648  138.8059  151.2383 C   0  0  0  0  0  0  0  0  0  0  0  0
  145.9893  137.4392  151.9135 C   0  0  0  0  0  0  0  0  0  0  0  0
  145.3795  137.6090  153.3158 C   0  0  1  0  0  0  0  0  0  0  0  0
  145.2164  136.2569  154.0240 C   0  0  0  0  0  0  0  0  0  0  0  0
  146.2284  138.5874  154.1529 C   0  0  0  0  0  0  0  0  0  0  0  0
  150.7103  143.2456  159.3243 N   0  0  0  0  0  0  0  0  0  0  0  0
  149.6695  144.2391  159.5040 C   0  0  0  0  0  0  0  0  0  0  0  0
  151.6089  143.0241  160.3077 N   0  0  0  0  0  0  0  0  0  0  0  0
  154.1124  140.8056  160.1855 H   0  0  0  0  0  0  0  0  0  0  0  0
  153.1826  141.1795  161.6327 H   0  0  0  0  0  0  0  0  0  0  0  0
  154.2405  142.3984  160.9249 H   0  0  0  0  0  0  0  0  0  0  0  0
  152.5414  140.9117  157.9082 H   0  0  0  0  0  0  0  0  0  0  0  0
  149.8745  143.3777  156.8508 H   0  0  0  0  0  0  0  0  0  0  0  0
  148.8862  142.8593  155.2355 H   0  0  0  0  0  0  0  0  0  0  0  0
  148.8428  141.4050  153.3128 H   0  0  0  0  0  0  0  0  0  0  0  0
  148.9352  140.0120  154.3624 H   0  0  0  0  0  0  0  0  0  0  0  0
  146.6671  140.7242  155.3522 H   0  0  0  0  0  0  0  0  0  0  0  0
  146.5981  143.0756  154.7656 H   0  0  0  0  0  0  0  0  0  0  0  0
  145.2238  142.2598  154.0434 H   0  0  0  0  0  0  0  0  0  0  0  0
  146.6062  142.7125  153.0483 H   0  0  0  0  0  0  0  0  0  0  0  0
  147.0762  140.7178  151.6277 H   0  0  0  0  0  0  0  0  0  0  0  0
  148.0083  139.3562  152.2191 H   0  0  0  0  0  0  0  0  0  0  0  0
  145.1870  139.2491  151.0444 H   0  0  0  0  0  0  0  0  0  0  0  0
  146.6469  138.6823  150.2682 H   0  0  0  0  0  0  0  0  0  0  0  0
  145.3545  136.8003  151.2983 H   0  0  0  0  0  0  0  0  0  0  0  0
  146.9567  136.9403  151.9860 H   0  0  0  0  0  0  0  0  0  0  0  0
  144.3837  138.0404  153.2010 H   0  0  0  0  0  0  0  0  0  0  0  0
  146.1789  135.7646  154.1664 H   0  0  0  0  0  0  0  0  0  0  0  0
  144.5813  135.5854  153.4454 H   0  0  0  0  0  0  0  0  0  0  0  0
  144.7567  136.3797  155.0051 H   0  0  0  0  0  0  0  0  0  0  0  0
  147.2134  138.1598  154.3444 H   0  0  0  0  0  0  0  0  0  0  0  0
  145.7523  138.7326  155.1236 H   0  0  0  0  0  0  0  0  0  0  0  0
  148.7077  143.8254  159.2001 H   0  0  0  0  0  0  0  0  0  0  0  0
  149.8914  145.1149  158.8937 H   0  0  0  0  0  0  0  0  0  0  0  0
  149.6061  144.5421  160.5500 H   0  0  0  0  0  0  0  0  0  0  0  0
  145.4241  140.2025  153.2911 H   0  0  0  0  0  0  0  0  0  0  0  0
  1  2  1  0  0  0  0
  1 22  1  0  0  0  0
  1 23  1  0  0  0  0
  1 24  1  0  0  0  0
  2 21  2  0  0  0  0
  2  3  1  0  0  0  0
  3  4  2  0  0  0  0
  3 25  1  0  0  0  0
  4  5  1  0  0  0  0
  4 19  1  0  0  0  0
  5  6  1  0  0  0  0
  5 26  1  0  0  0  0
  6  7  2  0  0  0  0
  6  8  1  0  0  0  0
  8  9  1  0  0  0  0
  8 27  1  0  0  0  0
  9 10  1  0  0  0  0
  9 28  1  0  0  0  0
  9 29  1  0  0  0  0
 10 11  1  0  0  0  0
 10 12  1  0  0  0  0
 10 30  1  0  0  0  0
 11 31  1  0  0  0  0
 11 32  1  0  0  0  0
 11 33  1  0  0  0  0
 12 18  1  0  0  0  0
 12 13  1  0  0  0  0
 12 49  1  0  0  0  0
 13 14  1  0  0  0  0
 13 34  1  0  0  0  0
 13 35  1  0  0  0  0
 14 15  1  0  0  0  0
 14 36  1  0  0  0  0
 14 37  1  0  0  0  0
 15 16  1  0  0  0  0
 15 38  1  0  0  0  0
 15 39  1  0  0  0  0
 16 17  1  0  0  0  0
 16 18  1  0  0  0  0
 16 40  1  0  0  0  0
 17 41  1  0  0  0  0
 17 42  1  0  0  0  0
 17 43  1  0  0  0  0
 18 44  1  0  0  0  0
 18 45  1  0  0  0  0
 19 20  1  0  0  0  0
 19 21  1  0  0  0  0
 20 46  1  0  0  0  0
 20 47  1  0  0  0  0
 20 48  1  0  0  0  0
M  CHG  1  12   1
M  END
> <s_m_source_file>
AV-unprocessed.smi

> <i_m_source_file_index>
1205

> <i_lp_mmshare_version>
43012

> <i_f3d_flags>
0

> <s_epik_input>
W0NIM11jMVtjSF1jKG4objEpW0NIM10pW05IXUMoPU8pW05IXVtDSDJdW0NASF0oW0NIM10pTjJbQ0gyXVtDSDJdW0NIMl1bQ0BASF0oW0NIM10pW0NIMl0y

> <s_epik_cmdline>
J2VwaWtfcHl0aG9uJywgJy1waCcsICc3LjAnLCAnLXRuJywgJzgnLCAnLW1hJywgJzIwMCcsICctbWV0YWxfYmluZGluZycsICctaW1hZScsICc8aW5maWxlLm1hZT4nLCAnLW9tYWUnLCAnPG91dGZpbGUubWFlPic=

> <r_lp_tautomer_probability>
1

> <r_epik_Ionization_Penalty>
0.0020309

> <r_epik_Ionization_Penalty_Charging>
0.00195276

> <r_epik_Ionization_Penalty_Neutral>
7.81448e-05

> <r_epik_State_Penalty>
0.00133177

> <r_epik_Charging_Adjusted_Penalty>
0.00328452

> <i_epik_Tot_Q>
1

> <i_epik_Tot_abs_Q>
1

> <r_epik_Metal_State_Penalty>
-0

> <b_epik_Metal_Only>
0

> <s_lp_Force_Field>
OPLS_2005

> <r_lp_Energy>
21.6269

> <b_lp_Chiralities_Consistent>
1

> <s_lp_Variant>
AV-unprocessed.smi:1205-2

> <Gold.Version>
5.8.1

> <Gold.Id.Protein>
6NUR|6NUR_protein|mol2

> <Gold.PLP.Fitness>
46.9825

> <Gold.PLP.PLP>
-36.8244

> <Gold.PLP.part.hbond>
-3.0000

> <Gold.PLP.part.metal>
0.0000

> <Gold.PLP.part.buried>
3.7165

> <Gold.PLP.part.nonpolar>
-37.9773

> <Gold.PLP.part.repulsive>
0.2888

> <Gold.PLP.ligand.clash>
0.0000

> <Gold.PLP.ligand.torsion>
0.9790

> <Gold.PLP.Chemscore.Hbond>
4.0000

> <Gold.PLP.Chemscore.CHOScore>
0.0000

> <Gold.PLP.Chemscore.Metal>
0.0000

> <Gold.Chemscore.Hbonds>
donor molecule, donor type, donor heavy atom, donor atom, acceptor molecule, acceptor atom, score
      L1  H     5    26       P1  8028  0.98
      L1  H     8    27       P1  8028  1.00
      L1  H    12    49       P1 10175  2.00

> <Gold.PLP.Chemscore.Internal.Correction>
0.1161

> <Gold.Rescore>
     Score         DG    S(hbond)    S(metal)    S(lipo)     H(rot)  DE(clash)    DE(int)     intcor
     18.96     -23.20       2.94        0.00      99.57       1.47       3.59       0.65       ----

> <Gold.Chemscore.Fitness>
18.9558

> <Gold.Chemscore.DG>
-23.1982

> <Gold.Chemscore.ZeroCoef>
-5.4800

> <Gold.Chemscore.Hbond>
2.9403

> <Gold.Chemscore.Metal>
0.0000

> <Gold.Chemscore.Lipo>
99.5734

> <Gold.Chemscore.Internal_Hbond>
0.0000

> <Gold.Chemscore.DEClash>
3.5933

> <Gold.Chemscore.DEInternal>
0.6491

> <Gold.Chemscore.Rot>
1.4658

> <Gold.Chemscore.Internal.Correction>
   9.000000E+99

> <Gold.Chemscore.Hbonds>
donor molecule, donor type, donor heavy atom, donor atom, acceptor molecule, acceptor atom, score
      L1  H     5    26       P1  8028  0.90
      L1  H     8    27       P1  8028  1.00
      L1  H    12    49       P1 10175  0.99

> <Gold.Chemscore.Hbond.Weighted>
-9.8207

> <Gold.Chemscore.Metal.Weighted>
-0.0000

> <Gold.Chemscore.Lipo.Weighted>
-11.6501

> <Gold.Chemscore.Internal_Hbond.Weighted>
0.0000

> <Gold.Chemscore.DEClash.Weighted>
3.5933

> <Gold.Chemscore.DEInternal.Weighted>
0.6491

> <Gold.Chemscore.Rot.Weighted>
3.7526

> <Gold.Chemscore.Internal.Correction.Weighted>
   9.000000E+99

> <Gold.Protein.RotatedTorsions>
[ 6907 6896 6895 6894 ] final   47.52 input  -60.11 | X-H torsion
[ 7974 7965 7964 7962 ] final   90.55 input  175.53 | X-H torsion
[ 8008 7997 7996 7995 ] final  -28.65 input   59.86 | X-H torsion
[ 10167 10162 10161 10158 ] final -117.90 input  -65.29 | X-H torsion
[ 10718 10713 10712 10709 ] final -162.52 input   66.30 | X-H torsion
[ 10763 10752 10751 10750 ] final  178.65 input  -60.55 | X-H torsion
[ 11005 11000 10999 10996 ] final   94.31 input  -57.11 | X-H torsion

> <Gold.Protein.ActiveResidues>
 VAL166  LYS551  ARG553  GLY616  TRP617  ASP618  TYR619  PRO620  LYS621  CYS622 
 ASP623  PHE694  ASN695  SER759  ASP760  ASP761  ALA762  ILE779  LEU786  VAL792 
 PHE793  MET794  SER795  GLU796  ALA797  LYS798  CYS799  TRP800  GLU811  SER814 

> <Gold.Protein.RotatedAtoms>
  152.2689  134.7954  160.0417 H   0  0  0  0  0  0  0  0  0  0  0  0  # atno 6907 bound_to 6896
  151.8573  133.3445  159.3700 H   0  0  0  0  0  0  0  0  0  0  0  0  # atno 6908 bound_to 6896
  150.7144  134.5168  159.5678 H   0  0  0  0  0  0  0  0  0  0  0  0  # atno 6909 bound_to 6896
  145.5174  139.2278  143.2690 H   0  0  0  0  0  0  0  0  0  0  0  0  # atno 7974 bound_to 7965
  154.4323  140.1839  156.1124 H   0  0  0  0  0  0  0  0  0  0  0  0  # atno 8008 bound_to 7997
  156.0208  140.3341  155.7011 H   0  0  0  0  0  0  0  0  0  0  0  0  # atno 8009 bound_to 7997
  155.5979  140.0637  157.2731 H   0  0  0  0  0  0  0  0  0  0  0  0  # atno 8010 bound_to 7997
  140.0633  143.4947  152.2020 H   0  0  0  0  0  0  0  0  0  0  0  0  # atno 10167 bound_to 10162
  156.6115  130.8853  151.2937 H   0  0  0  0  0  0  0  0  0  0  0  0  # atno 10718 bound_to 10713
  154.5104  135.2788  155.1347 H   0  0  0  0  0  0  0  0  0  0  0  0  # atno 10763 bound_to 10752
  154.2945  135.6260  153.5402 H   0  0  0  0  0  0  0  0  0  0  0  0  # atno 10764 bound_to 10752
  152.9918  135.5682  154.5568 H   0  0  0  0  0  0  0  0  0  0  0  0  # atno 10765 bound_to 10752
  139.8800  134.8838  156.3845 H   0  0  0  0  0  0  0  0  0  0  0  0  # atno 11005 bound_to 11000
  146.2127  140.5985  142.9052 LP  0  0  0  0  0  0  0  0  0  0  0  0  # atno 17320 bound_to 7965
  144.7694  140.5604  143.6680 LP  0  0  0  0  0  0  0  0  0  0  0  0  # atno 17321 bound_to 7965
  139.5880  144.7539  151.3471 LP  0  0  0  0  0  0  0  0  0  0  0  0  # atno 17342 bound_to 10162
  140.7161  143.7262  150.7658 LP  0  0  0  0  0  0  0  0  0  0  0  0  # atno 17343 bound_to 10162
  157.7253  130.9613  150.1607 LP  0  0  0  0  0  0  0  0  0  0  0  0  # atno 17370 bound_to 10713
  156.2385  130.3688  149.8363 LP  0  0  0  0  0  0  0  0  0  0  0  0  # atno 17371 bound_to 10713
  140.9376  133.7537  156.0104 LP  0  0  0  0  0  0  0  0  0  0  0  0  # atno 17394 bound_to 11000
  140.8258  134.3236  157.5366 LP  0  0  0  0  0  0  0  0  0  0  0  0  # atno 17395 bound_to 11000

$$$$
