AV-unprocessed.smi:2691|AV-procd|sdf|10393|dock2
  -GOLD-   2272014423D 1   1.00000     0.00000
 Structure written by MMmdl.
 50 52  0  0  0  0  0  0  0  0  2 V2000
  151.7278  143.5759  160.4639 C   0  0  0  0  0  0  0  0  0  0  0  0
  151.6748  142.6686  159.2462 C   0  0  0  0  0  0  0  0  0  0  0  0
  150.6948  142.9209  158.2595 C   0  0  0  0  0  0  0  0  0  0  0  0
  150.6695  142.0722  157.1592 C   0  0  0  0  0  0  0  0  0  0  0  0
  149.8392  142.0530  156.0359 N   0  3  0  0  0  0  0  0  0  0  0  0
  150.1973  141.0199  155.2240 C   0  0  0  0  0  0  0  0  0  0  0  0
  151.2452  140.3816  155.8117 N   0  0  0  0  0  0  0  0  0  0  0  0
  151.9997  139.2030  155.3680 C   0  0  0  0  0  0  0  0  0  0  0  0
  151.0819  138.0694  154.8588 C   0  0  1  0  0  0  0  0  0  0  0  0
  151.8020  137.1860  154.0218 O   0  0  0  0  0  0  0  0  0  0  0  0
  150.3255  137.2638  155.9466 C   0  0  0  0  0  0  0  0  0  0  0  0
  150.3380  135.8023  155.7475 N   0  0  0  0  0  0  0  0  0  0  0  0
  149.5289  135.2902  154.7130 C   0  0  0  0  0  0  0  0  0  0  0  0
  149.4754  134.0232  154.4517 N   0  0  0  0  0  0  0  0  0  0  0  0
  150.2426  133.1252  155.2017 C   0  0  0  0  0  0  0  0  0  0  0  0
  150.1322  131.6496  154.8407 C   0  0  0  0  0  0  0  0  0  0  0  0
  148.6733  131.1656  154.8601 C   0  0  0  0  0  0  0  0  0  0  0  0
  151.0290  130.7839  155.7395 C   0  0  0  0  0  0  0  0  0  0  0  0
  151.0389  133.5694  156.2040 C   0  0  0  0  0  0  0  0  0  0  0  0
  151.1191  134.9947  156.5226 C   0  0  0  0  0  0  0  0  0  0  0  0
  151.8383  135.4321  157.4206 O   0  0  0  0  0  0  0  0  0  0  0  0
  151.5755  141.0031  157.0200 C   0  0  0  0  0  0  0  0  0  0  0  0
  152.5485  140.7411  157.9811 C   0  0  0  0  0  0  0  0  0  0  0  0
  152.5911  141.5935  159.1078 C   0  0  0  0  0  0  0  0  0  0  0  0
  153.6421  141.3332  160.1736 C   0  0  0  0  0  0  0  0  0  0  0  0
  150.9337  144.3229  160.4397 H   0  0  0  0  0  0  0  0  0  0  0  0
  152.6809  144.1036  160.5063 H   0  0  0  0  0  0  0  0  0  0  0  0
  151.6106  142.9972  161.3804 H   0  0  0  0  0  0  0  0  0  0  0  0
  149.9946  143.7375  158.3578 H   0  0  0  0  0  0  0  0  0  0  0  0
  149.7303  140.7499  154.2875 H   0  0  0  0  0  0  0  0  0  0  0  0
  152.6758  139.5359  154.5796 H   0  0  0  0  0  0  0  0  0  0  0  0
  152.6249  138.8619  156.1940 H   0  0  0  0  0  0  0  0  0  0  0  0
  150.3240  138.5127  154.2120 H   0  0  0  0  0  0  0  0  0  0  0  0
  151.2971  137.0343  153.2373 H   0  0  0  0  0  0  0  0  0  0  0  0
  150.7758  137.5022  156.9121 H   0  0  0  0  0  0  0  0  0  0  0  0
  149.3004  137.6259  156.0460 H   0  0  0  0  0  0  0  0  0  0  0  0
  148.9512  136.0304  154.1571 H   0  0  0  0  0  0  0  0  0  0  0  0
  150.4937  131.5341  153.8176 H   0  0  0  0  0  0  0  0  0  0  0  0
  148.0493  131.7755  154.2064 H   0  0  0  0  0  0  0  0  0  0  0  0
  148.2467  131.2077  155.8628 H   0  0  0  0  0  0  0  0  0  0  0  0
  148.5997  130.1340  154.5149 H   0  0  0  0  0  0  0  0  0  0  0  0
  152.0672  131.1139  155.6906 H   0  0  0  0  0  0  0  0  0  0  0  0
  151.0019  129.7390  155.4293 H   0  0  0  0  0  0  0  0  0  0  0  0
  150.7147  130.8272  156.7827 H   0  0  0  0  0  0  0  0  0  0  0  0
  151.6288  132.8700  156.7780 H   0  0  0  0  0  0  0  0  0  0  0  0
  153.2430  139.9209  157.8759 H   0  0  0  0  0  0  0  0  0  0  0  0
  154.2942  140.5041  159.8969 H   0  0  0  0  0  0  0  0  0  0  0  0
  153.1693  141.0833  161.1237 H   0  0  0  0  0  0  0  0  0  0  0  0
  154.2686  142.2135  160.3187 H   0  0  0  0  0  0  0  0  0  0  0  0
  149.0812  142.6932  155.8372 H   0  0  0  0  0  0  0  0  0  0  0  0
  1  2  1  0  0  0  0
  1 26  1  0  0  0  0
  1 27  1  0  0  0  0
  1 28  1  0  0  0  0
  2 24  1  0  0  0  0
  2  3  2  0  0  0  0
  3  4  1  0  0  0  0
  3 29  1  0  0  0  0
  4 22  2  0  0  0  0
  4  5  1  0  0  0  0
  5  6  2  0  0  0  0
  5 50  1  0  0  0  0
  6  7  1  0  0  0  0
  6 30  1  0  0  0  0
  7  8  1  0  0  0  0
  7 22  1  0  0  0  0
  8  9  1  0  0  0  0
  8 31  1  0  0  0  0
  8 32  1  0  0  0  0
  9 10  1  0  0  0  0
  9 11  1  0  0  0  0
  9 33  1  0  0  0  0
 10 34  1  0  0  0  0
 11 12  1  0  0  0  0
 11 35  1  0  0  0  0
 11 36  1  0  0  0  0
 12 20  1  0  0  0  0
 12 13  1  0  0  0  0
 13 14  2  0  0  0  0
 13 37  1  0  0  0  0
 14 15  1  0  0  0  0
 15 16  1  0  0  0  0
 15 19  2  0  0  0  0
 16 17  1  0  0  0  0
 16 18  1  0  0  0  0
 16 38  1  0  0  0  0
 17 39  1  0  0  0  0
 17 40  1  0  0  0  0
 17 41  1  0  0  0  0
 18 42  1  0  0  0  0
 18 43  1  0  0  0  0
 18 44  1  0  0  0  0
 19 20  1  0  0  0  0
 19 45  1  0  0  0  0
 20 21  2  0  0  0  0
 22 23  1  0  0  0  0
 23 24  2  0  0  0  0
 23 46  1  0  0  0  0
 24 25  1  0  0  0  0
 25 47  1  0  0  0  0
 25 48  1  0  0  0  0
 25 49  1  0  0  0  0
M  CHG  1   5   1
M  END
> <s_m_source_file>
AV-unprocessed.smi

> <i_m_source_file_index>
2691

> <i_lp_mmshare_version>
43012

> <i_f3d_flags>
0

> <s_epik_input>
W0NIM11jKFtjSF0xKWMoW0NIM10pW2NIXWMoYzEyKW4oW2NIXW4yKVtDSDJdW0NASF0oW09IXSlbQ0gyXW4zW2NIXW5jKFtDSF0oW0NIM10pW0NIM10pW2NIXWMzPU8=

> <s_epik_cmdline>
J2VwaWtfcHl0aG9uJywgJy1waCcsICc3LjAnLCAnLXRuJywgJzgnLCAnLW1hJywgJzIwMCcsICctbWV0YWxfYmluZGluZycsICctaW1hZScsICc8aW5maWxlLm1hZT4nLCAnLW9tYWUnLCAnPG91dGZpbGUubWFlPic=

> <r_lp_tautomer_probability>
1

> <r_epik_Ionization_Penalty>
1.0357

> <r_epik_Ionization_Penalty_Charging>
1.03568

> <r_epik_Ionization_Penalty_Neutral>
1.29543e-05

> <r_epik_State_Penalty>
1.08724

> <r_epik_Charging_Adjusted_Penalty>
2.12292

> <i_epik_Tot_Q>
1

> <i_epik_Tot_abs_Q>
1

> <r_epik_Metal_State_Penalty>
1.18376

> <b_epik_Metal_Only>
0

> <s_lp_Force_Field>
OPLS_2005

> <r_lp_Energy>
24.9035

> <b_lp_Chiralities_Consistent>
1

> <s_lp_Variant>
AV-unprocessed.smi:2691-4

> <Gold.Version>
5.8.1

> <Gold.Id.Protein>
6NUR|6NUR_protein|mol2

> <Gold.PLP.Fitness>
57.2777

> <Gold.PLP.PLP>
-46.7439

> <Gold.PLP.part.hbond>
-4.0000

> <Gold.PLP.part.metal>
0.0000

> <Gold.PLP.part.buried>
-2.8347

> <Gold.PLP.part.nonpolar>
-38.4514

> <Gold.PLP.part.repulsive>
0.2552

> <Gold.PLP.ligand.clash>
0.0000

> <Gold.PLP.ligand.torsion>
1.1979

> <Gold.PLP.Chemscore.Hbond>
3.3919

> <Gold.PLP.Chemscore.CHOScore>
0.8708

> <Gold.PLP.Chemscore.Metal>
0.0000

> <Gold.Chemscore.Hbonds>
donor molecule, donor type, donor heavy atom, donor atom, acceptor molecule, acceptor atom, score
      L1  H     5    50       P1  8028  1.40
      L1  H    10    34       P1  7949  0.89
      P1  H 10752 10763       L1    10  1.00
      L1  C    13    37       P1  7948  0.87

> <Gold.PLP.Chemscore.Internal.Correction>
0.1416

> <Gold.Rescore>
     Score         DG    S(hbond)    S(metal)    S(lipo)     H(rot)  DE(clash)    DE(int)     intcor
     16.49     -18.84       2.04        0.00     110.96       2.52       1.07       1.28       ----

> <Gold.Chemscore.Fitness>
16.4912

> <Gold.Chemscore.DG>
-18.8409

> <Gold.Chemscore.ZeroCoef>
-5.4800

> <Gold.Chemscore.Hbond>
2.0449

> <Gold.Chemscore.Metal>
0.0000

> <Gold.Chemscore.Lipo>
110.9634

> <Gold.Chemscore.Internal_Hbond>
0.0000

> <Gold.Chemscore.DEClash>
1.0730

> <Gold.Chemscore.DEInternal>
1.2767

> <Gold.Chemscore.Rot>
2.5202

> <Gold.Chemscore.Internal.Correction>
   9.000000E+99

> <Gold.Chemscore.Hbonds>
donor molecule, donor type, donor heavy atom, donor atom, acceptor molecule, acceptor atom, score
      L1  H     5    50       P1  8028  0.66
      L1  H    10    34       P1  7949  0.58
      P1  H 10752 10763       L1    10  0.33

> <Gold.Chemscore.Hbond.Weighted>
-6.8299

> <Gold.Chemscore.Metal.Weighted>
-0.0000

> <Gold.Chemscore.Lipo.Weighted>
-12.9827

> <Gold.Chemscore.Internal_Hbond.Weighted>
0.0000

> <Gold.Chemscore.DEClash.Weighted>
1.0730

> <Gold.Chemscore.DEInternal.Weighted>
1.2767

> <Gold.Chemscore.Rot.Weighted>
6.4517

> <Gold.Chemscore.Internal.Correction.Weighted>
   9.000000E+99

> <Gold.Protein.RotatedTorsions>
[ 6907 6896 6895 6894 ] final  135.53 input  -60.11 | X-H torsion
[ 7974 7965 7964 7962 ] final -176.57 input  175.53 | X-H torsion
[ 8008 7997 7996 7995 ] final  117.67 input   59.86 | X-H torsion
[ 10167 10162 10161 10158 ] final  169.36 input  -65.29 | X-H torsion
[ 10718 10713 10712 10709 ] final  -87.09 input   66.30 | X-H torsion
[ 10763 10752 10751 10750 ] final   22.50 input  -60.55 | X-H torsion
[ 11005 11000 10999 10996 ] final -131.35 input  -57.11 | X-H torsion

> <Gold.Protein.ActiveResidues>
 VAL166  LYS551  ARG553  GLY616  TRP617  ASP618  TYR619  PRO620  LYS621  CYS622 
 ASP623  PHE694  ASN695  SER759  ASP760  ASP761  ALA762  ILE779  LEU786  VAL792 
 PHE793  MET794  SER795  GLU796  ALA797  LYS798  CYS799  TRP800  GLU811  SER814 

> <Gold.Protein.RotatedAtoms>
  152.2994  133.5640  159.5608 H   0  0  0  0  0  0  0  0  0  0  0  0  # atno 6907 bound_to 6896
  150.7270  134.0314  159.3743 H   0  0  0  0  0  0  0  0  0  0  0  0  # atno 6908 bound_to 6896
  151.8215  135.0650  160.0476 H   0  0  0  0  0  0  0  0  0  0  0  0  # atno 6909 bound_to 6896
  144.7127  140.1151  143.6408 H   0  0  0  0  0  0  0  0  0  0  0  0  # atno 7974 bound_to 7965
  156.2506  140.2891  156.0715 H   0  0  0  0  0  0  0  0  0  0  0  0  # atno 8008 bound_to 7997
  155.1666  140.0401  157.2871 H   0  0  0  0  0  0  0  0  0  0  0  0  # atno 8009 bound_to 7997
  154.6355  140.2510  155.7390 H   0  0  0  0  0  0  0  0  0  0  0  0  # atno 8010 bound_to 7997
  139.4990  144.3714  151.9720 H   0  0  0  0  0  0  0  0  0  0  0  0  # atno 10167 bound_to 10162
  155.9987  130.4788  150.4815 H   0  0  0  0  0  0  0  0  0  0  0  0  # atno 10718 bound_to 10713
  153.0911  135.6647  153.9853 H   0  0  0  0  0  0  0  0  0  0  0  0  # atno 10763 bound_to 10752
  153.9449  135.2990  155.3442 H   0  0  0  0  0  0  0  0  0  0  0  0  # atno 10764 bound_to 10752
  154.7325  135.5116  153.9061 H   0  0  0  0  0  0  0  0  0  0  0  0  # atno 10765 bound_to 10752
  140.9266  134.1375  157.4270 H   0  0  0  0  0  0  0  0  0  0  0  0  # atno 11005 bound_to 11000
  145.9420  139.2675  143.1263 LP  0  0  0  0  0  0  0  0  0  0  0  0  # atno 17320 bound_to 7965
  145.9413  140.8977  143.0306 LP  0  0  0  0  0  0  0  0  0  0  0  0  # atno 17321 bound_to 7965
  140.3150  144.3494  150.6024 LP  0  0  0  0  0  0  0  0  0  0  0  0  # atno 17342 bound_to 10162
  140.5768  143.2176  151.7500 LP  0  0  0  0  0  0  0  0  0  0  0  0  # atno 17343 bound_to 10162
  157.2819  131.0608  151.2191 LP  0  0  0  0  0  0  0  0  0  0  0  0  # atno 17370 bound_to 10713
  157.3235  130.6949  149.6282 LP  0  0  0  0  0  0  0  0  0  0  0  0  # atno 17371 bound_to 10713
  139.8787  134.9990  156.5932 LP  0  0  0  0  0  0  0  0  0  0  0  0  # atno 17394 bound_to 11000
  140.7918  133.8576  155.8652 LP  0  0  0  0  0  0  0  0  0  0  0  0  # atno 17395 bound_to 11000

$$$$
