AV-unprocessed.smi:1135|AV-procd|sdf|4858|dock4
  -GOLD-   22720 3433D 1   1.00000     0.00000
 Structure written by MMmdl.
 45 46  0  0  0  0  0  0  0  0  1 V2000
  153.8008  141.3441  160.9507 C   0  0  0  0  0  0  0  0  0  0  0  0
  152.5253  142.1520  160.6727 C   0  0  2  0  0  0  0  0  0  0  0  0
  152.1889  142.1713  159.1727 C   0  0  0  0  0  0  0  0  0  0  0  0
  150.9169  142.9881  158.8848 C   0  0  0  0  0  0  0  0  0  0  0  0
  150.9637  144.4382  159.4302 C   0  0  1  0  0  0  0  0  0  0  0  0
  151.9395  145.2967  158.5892 C   0  0  0  0  0  0  0  0  0  0  0  0
  149.5979  144.9630  159.2956 N   0  0  0  0  0  0  0  0  0  0  0  0
  148.5797  144.8767  160.1682 C   0  0  0  0  0  0  0  0  0  0  0  0
  148.6407  144.3196  161.2643 O   0  0  0  0  0  0  0  0  0  0  0  0
  147.4790  145.4810  159.6999 N   0  0  0  0  0  0  0  0  0  0  0  0
  146.2140  145.5829  160.4184 C   0  0  0  0  0  0  0  0  0  0  0  0
  145.0705  146.0139  159.4851 C   0  0  0  0  0  0  0  0  0  0  0  0
  145.2676  147.4164  158.9415 C   0  0  0  0  0  0  0  0  0  0  0  0
  145.5730  148.4877  159.8081 C   0  0  0  0  0  0  0  0  0  0  0  0
  145.7434  149.7713  159.2541 C   0  0  0  0  0  0  0  0  0  0  0  0
  145.6004  149.9339  157.8626 C   0  0  0  0  0  0  0  0  0  0  0  0
  145.2920  148.8006  157.0839 C   0  0  0  0  0  0  0  0  0  0  0  0
  145.1284  147.5650  157.6046 N   0  0  0  0  0  0  0  0  0  0  0  0
  151.3685  144.4090  160.9295 C   0  0  0  0  0  0  0  0  0  0  0  0
  152.6412  143.5895  161.2063 C   0  0  0  0  0  0  0  0  0  0  0  0
  154.6649  141.7840  160.4515 H   0  0  0  0  0  0  0  0  0  0  0  0
  153.6995  140.3174  160.5978 H   0  0  0  0  0  0  0  0  0  0  0  0
  154.0175  141.3053  162.0185 H   0  0  0  0  0  0  0  0  0  0  0  0
  151.7036  141.6622  161.1976 H   0  0  0  0  0  0  0  0  0  0  0  0
  153.0284  142.5770  158.6077 H   0  0  0  0  0  0  0  0  0  0  0  0
  152.0498  141.1511  158.8133 H   0  0  0  0  0  0  0  0  0  0  0  0
  150.7252  142.9965  157.8109 H   0  0  0  0  0  0  0  0  0  0  0  0
  150.0729  142.4603  159.3327 H   0  0  0  0  0  0  0  0  0  0  0  0
  152.9499  144.8903  158.5936 H   0  0  0  0  0  0  0  0  0  0  0  0
  152.0141  146.3170  158.9647 H   0  0  0  0  0  0  0  0  0  0  0  0
  151.6189  145.3530  157.5484 H   0  0  0  0  0  0  0  0  0  0  0  0
  149.4084  145.4498  158.4316 H   0  0  0  0  0  0  0  0  0  0  0  0
  147.5211  145.9097  158.7869 H   0  0  0  0  0  0  0  0  0  0  0  0
  145.9934  144.6076  160.8532 H   0  0  0  0  0  0  0  0  0  0  0  0
  146.3098  146.2804  161.2524 H   0  0  0  0  0  0  0  0  0  0  0  0
  144.9851  145.3185  158.6489 H   0  0  0  0  0  0  0  0  0  0  0  0
  144.1187  145.9716  160.0168 H   0  0  0  0  0  0  0  0  0  0  0  0
  145.6739  148.3314  160.8723 H   0  0  0  0  0  0  0  0  0  0  0  0
  145.9782  150.6156  159.8851 H   0  0  0  0  0  0  0  0  0  0  0  0
  145.7227  150.9038  157.4037 H   0  0  0  0  0  0  0  0  0  0  0  0
  145.1726  148.8894  156.0142 H   0  0  0  0  0  0  0  0  0  0  0  0
  151.5103  145.4209  161.3097 H   0  0  0  0  0  0  0  0  0  0  0  0
  150.5533  143.9806  161.5150 H   0  0  0  0  0  0  0  0  0  0  0  0
  152.8297  143.5708  162.2801 H   0  0  0  0  0  0  0  0  0  0  0  0
  153.5029  144.0842  160.7575 H   0  0  0  0  0  0  0  0  0  0  0  0
  1  2  1  0  0  0  0
  1 21  1  0  0  0  0
  1 22  1  0  0  0  0
  1 23  1  0  0  0  0
  2 20  1  0  0  0  0
  2  3  1  0  0  0  0
  2 24  1  0  0  0  0
  3  4  1  0  0  0  0
  3 25  1  0  0  0  0
  3 26  1  0  0  0  0
  4  5  1  0  0  0  0
  4 27  1  0  0  0  0
  4 28  1  0  0  0  0
  5  6  1  0  0  0  0
  5  7  1  0  0  0  0
  5 19  1  0  0  0  0
  6 29  1  0  0  0  0
  6 30  1  0  0  0  0
  6 31  1  0  0  0  0
  7  8  1  0  0  0  0
  7 32  1  0  0  0  0
  8  9  2  0  0  0  0
  8 10  1  0  0  0  0
 10 11  1  0  0  0  0
 10 33  1  0  0  0  0
 11 12  1  0  0  0  0
 11 34  1  0  0  0  0
 11 35  1  0  0  0  0
 12 13  1  0  0  0  0
 12 36  1  0  0  0  0
 12 37  1  0  0  0  0
 13 18  1  0  0  0  0
 13 14  2  0  0  0  0
 14 15  1  0  0  0  0
 14 38  1  0  0  0  0
 15 16  2  0  0  0  0
 15 39  1  0  0  0  0
 16 17  1  0  0  0  0
 16 40  1  0  0  0  0
 17 18  2  0  0  0  0
 17 41  1  0  0  0  0
 19 20  1  0  0  0  0
 19 42  1  0  0  0  0
 19 43  1  0  0  0  0
 20 44  1  0  0  0  0
 20 45  1  0  0  0  0
M  END
> <s_m_source_file>
AV-unprocessed.smi

> <i_m_source_file_index>
1135

> <i_lp_mmshare_version>
43012

> <i_f3d_flags>
0

> <s_epik_input>
W0NIMl0xW0NIMl1bQ0BIXShbQ0gzXSlbQ0gyXVtDSDJdW0NAQF0xKFtDSDNdKVtOSF1DKD1PKVtOSF1bQ0gyXVtDSDJdYzJbY0hdW2NIXVtjSF1bY0hdbjI=

> <s_epik_cmdline>
J2VwaWtfcHl0aG9uJywgJy1waCcsICc3LjAnLCAnLXRuJywgJzgnLCAnLW1hJywgJzIwMCcsICctbWV0YWxfYmluZGluZycsICctaW1hZScsICc8aW5maWxlLm1hZT4nLCAnLW9tYWUnLCAnPG91dGZpbGUubWFlPic=

> <r_epik_Ionization_Penalty>
0.0448679

> <r_epik_Ionization_Penalty_Charging>
0

> <r_epik_Ionization_Penalty_Neutral>
0.0448679

> <r_epik_State_Penalty>
0.0379931

> <r_epik_Charging_Adjusted_Penalty>
0.0379931

> <i_epik_Tot_Q>
0

> <i_epik_Tot_abs_Q>
0

> <r_epik_Metal_State_Penalty>
0.0353093

> <b_epik_Metal_Only>
0

> <s_lp_Force_Field>
OPLS_2005

> <r_lp_Energy>
8.69074

> <b_lp_Chiralities_Consistent>
1

> <s_lp_Variant>
AV-unprocessed.smi:1135-1

> <Gold.Version>
5.8.1

> <Gold.Id.Protein>
6NUR|6NUR_protein|mol2

> <Gold.PLP.Fitness>
58.2971

> <Gold.PLP.PLP>
-51.8863

> <Gold.PLP.part.hbond>
-2.8618

> <Gold.PLP.part.metal>
0.0000

> <Gold.PLP.part.buried>
-9.6838

> <Gold.PLP.part.nonpolar>
-40.3243

> <Gold.PLP.part.repulsive>
0.7263

> <Gold.PLP.ligand.clash>
0.0087

> <Gold.PLP.ligand.torsion>
0.7479

> <Gold.PLP.Chemscore.Hbond>
2.6320

> <Gold.PLP.Chemscore.CHOScore>
0.0000

> <Gold.PLP.Chemscore.Metal>
0.0000

> <Gold.Chemscore.Hbonds>
donor molecule, donor type, donor heavy atom, donor atom, acceptor molecule, acceptor atom, score
      L1  H     7    32       P1  8029  0.83
      L1  H    10    33       P1  8029  1.00
      P1  H  6933  6944       L1     9  0.80

> <Gold.PLP.Chemscore.Internal.Correction>
0.0193

> <Gold.Rescore>
     Score         DG    S(hbond)    S(metal)    S(lipo)     H(rot)  DE(clash)    DE(int)     intcor
     24.73     -26.83       2.72        0.00     136.05       1.42       0.03       2.07       ----

> <Gold.Chemscore.Fitness>
24.7270

> <Gold.Chemscore.DG>
-26.8311

> <Gold.Chemscore.ZeroCoef>
-5.4800

> <Gold.Chemscore.Hbond>
2.7160

> <Gold.Chemscore.Metal>
0.0000

> <Gold.Chemscore.Lipo>
136.0538

> <Gold.Chemscore.Internal_Hbond>
0.0000

> <Gold.Chemscore.DEClash>
0.0343

> <Gold.Chemscore.DEInternal>
2.0698

> <Gold.Chemscore.Rot>
1.4213

> <Gold.Chemscore.Internal.Correction>
   9.000000E+99

> <Gold.Chemscore.Hbonds>
donor molecule, donor type, donor heavy atom, donor atom, acceptor molecule, acceptor atom, score
      L1  H     7    32       P1  8029  0.69
      L1  H    10    33       P1  8029  0.92
      P1  H  6933  6944       L1     9  0.78

> <Gold.Chemscore.Hbond.Weighted>
-9.0714

> <Gold.Chemscore.Metal.Weighted>
-0.0000

> <Gold.Chemscore.Lipo.Weighted>
-15.9183

> <Gold.Chemscore.Internal_Hbond.Weighted>
0.0000

> <Gold.Chemscore.DEClash.Weighted>
0.0343

> <Gold.Chemscore.DEInternal.Weighted>
2.0698

> <Gold.Chemscore.Rot.Weighted>
3.6385

> <Gold.Chemscore.Internal.Correction.Weighted>
   9.000000E+99

> <Gold.Protein.RotatedTorsions>
[ 6907 6896 6895 6894 ] final  164.43 input  -60.11 | X-H torsion
[ 7974 7965 7964 7962 ] final  -14.67 input  175.53 | X-H torsion
[ 8008 7997 7996 7995 ] final   12.92 input   59.86 | X-H torsion
[ 10167 10162 10161 10158 ] final  175.17 input  -65.29 | X-H torsion
[ 10718 10713 10712 10709 ] final   13.17 input   66.30 | X-H torsion
[ 10763 10752 10751 10750 ] final   24.28 input  -60.55 | X-H torsion
[ 11005 11000 10999 10996 ] final  -92.20 input  -57.11 | X-H torsion

> <Gold.Protein.ActiveResidues>
 VAL166  LYS551  ARG553  GLY616  TRP617  ASP618  TYR619  PRO620  LYS621  CYS622 
 ASP623  PHE694  ASN695  SER759  ASP760  ASP761  ALA762  ILE779  LEU786  VAL792 
 PHE793  MET794  SER795  GLU796  ALA797  LYS798  CYS799  TRP800  GLU811  SER814 

> <Gold.Protein.RotatedAtoms>
  151.9100  133.3559  159.3860 H   0  0  0  0  0  0  0  0  0  0  0  0  # atno 6907 bound_to 6896
  150.7060  134.4741  159.5449 H   0  0  0  0  0  0  0  0  0  0  0  0  # atno 6908 bound_to 6896
  152.2346  134.8289  160.0520 H   0  0  0  0  0  0  0  0  0  0  0  0  # atno 6909 bound_to 6896
  146.2064  140.3382  142.8405 H   0  0  0  0  0  0  0  0  0  0  0  0  # atno 7974 bound_to 7965
  154.8272  140.2893  155.5746 H   0  0  0  0  0  0  0  0  0  0  0  0  # atno 8008 bound_to 7997
  156.3002  140.2539  156.3122 H   0  0  0  0  0  0  0  0  0  0  0  0  # atno 8009 bound_to 7997
  154.9271  140.0384  157.2018 H   0  0  0  0  0  0  0  0  0  0  0  0  # atno 8010 bound_to 7997
  139.5168  144.3062  152.0334 H   0  0  0  0  0  0  0  0  0  0  0  0  # atno 10167 bound_to 10162
  157.0207  130.6154  149.5721 H   0  0  0  0  0  0  0  0  0  0  0  0  # atno 10718 bound_to 10713
  153.0775  135.6609  154.0114 H   0  0  0  0  0  0  0  0  0  0  0  0  # atno 10763 bound_to 10752
  153.9744  135.2961  155.3426 H   0  0  0  0  0  0  0  0  0  0  0  0  # atno 10764 bound_to 10752
  154.7167  135.5182  153.8820 H   0  0  0  0  0  0  0  0  0  0  0  0  # atno 10765 bound_to 10752
  141.1527  133.7805  156.9986 H   0  0  0  0  0  0  0  0  0  0  0  0  # atno 11005 bound_to 11000
  144.8804  140.7393  143.5990 LP  0  0  0  0  0  0  0  0  0  0  0  0  # atno 17320 bound_to 7965
  145.3302  139.1762  143.4541 LP  0  0  0  0  0  0  0  0  0  0  0  0  # atno 17321 bound_to 7965
  140.2508  144.4171  150.6223 LP  0  0  0  0  0  0  0  0  0  0  0  0  # atno 17342 bound_to 10162
  140.6226  143.2178  151.6663 LP  0  0  0  0  0  0  0  0  0  0  0  0  # atno 17343 bound_to 10162
  156.0103  130.5194  150.7967 LP  0  0  0  0  0  0  0  0  0  0  0  0  # atno 17370 bound_to 10713
  157.5251  131.0933  151.0028 LP  0  0  0  0  0  0  0  0  0  0  0  0  # atno 17371 bound_to 10713
  140.0955  134.9567  157.1842 LP  0  0  0  0  0  0  0  0  0  0  0  0  # atno 17394 bound_to 11000
  140.3388  134.2727  155.7215 LP  0  0  0  0  0  0  0  0  0  0  0  0  # atno 17395 bound_to 11000

$$$$
