AV-unprocessed.smi:2460|AV-procd|sdf|9715|dock6
  -GOLD-   2272013353D 1   1.00000     0.00000
 Structure written by MMmdl.
 46 48  0  0  0  0  0  0  0  0  1 V2000
  139.8973  141.0944  157.6587 C   0  0  0  0  0  0  0  0  0  0  0  0
  139.7200  140.6920  156.1848 C   0  0  0  0  0  0  0  0  0  0  0  0
  138.6778  141.5828  155.4915 C   0  0  0  0  0  0  0  0  0  0  0  0
  141.0562  140.6666  155.4321 C   0  0  0  0  0  0  0  0  0  0  0  0
  141.5321  139.2398  155.6208 C   0  0  2  0  0  0  0  0  0  0  0  0
  142.4620  138.8376  154.5674 N   0  0  0  0  0  0  0  0  0  0  0  0
  142.8243  137.5758  154.2998 C   0  0  0  0  0  0  0  0  0  0  0  0
  142.4350  136.6043  154.9472 O   0  0  0  0  0  0  0  0  0  0  0  0
  143.6357  137.5208  153.2306 N   0  0  0  0  0  0  0  0  0  0  0  0
  144.1909  136.3692  152.6127 C   0  0  0  0  0  0  0  0  0  0  0  0
  145.0478  136.5310  151.5039 C   0  0  0  0  0  0  0  0  0  0  0  0
  145.6130  135.4775  150.8765 N   0  0  0  0  0  0  0  0  0  0  0  0
  145.3229  134.2644  151.3551 C   0  0  0  0  0  0  0  0  0  0  0  0
  145.9733  133.0997  150.6757 C   0  0  0  0  0  0  0  0  0  0  0  0
  145.1578  132.1360  149.8380 C   0  0  0  0  0  0  0  0  0  0  0  0
  145.7228  131.6843  151.1558 C   0  0  0  0  0  0  0  0  0  0  0  0
  144.5541  133.9886  152.4122 N   0  0  0  0  0  0  0  0  0  0  0  0
  143.9827  135.0362  153.0447 C   0  0  0  0  0  0  0  0  0  0  0  0
  140.2079  138.4446  155.6212 C   0  0  0  0  0  0  0  0  0  0  0  0
  139.6971  138.0583  154.2167 C   0  0  0  0  0  0  0  0  0  0  0  0
  140.2681  137.2106  156.5353 C   0  0  0  0  0  0  0  0  0  0  0  0
  139.2468  139.3461  156.1679 O   0  0  0  0  0  0  0  0  0  0  0  0
  140.2684  142.1156  157.7477 H   0  0  0  0  0  0  0  0  0  0  0  0
  140.6027  140.4393  158.1706 H   0  0  0  0  0  0  0  0  0  0  0  0
  138.9508  141.0380  158.1969 H   0  0  0  0  0  0  0  0  0  0  0  0
  139.0079  142.6212  155.4563 H   0  0  0  0  0  0  0  0  0  0  0  0
  137.7231  141.5540  156.0173 H   0  0  0  0  0  0  0  0  0  0  0  0
  138.4979  141.2561  154.4668 H   0  0  0  0  0  0  0  0  0  0  0  0
  140.8975  140.8695  154.3717 H   0  0  0  0  0  0  0  0  0  0  0  0
  141.7708  141.4032  155.8009 H   0  0  0  0  0  0  0  0  0  0  0  0
  142.0128  139.1716  156.5990 H   0  0  0  0  0  0  0  0  0  0  0  0
  142.8293  139.5728  153.9814 H   0  0  0  0  0  0  0  0  0  0  0  0
  143.8112  138.3955  152.7580 H   0  0  0  0  0  0  0  0  0  0  0  0
  145.2786  137.5105  151.1116 H   0  0  0  0  0  0  0  0  0  0  0  0
  146.9753  133.3498  150.3321 H   0  0  0  0  0  0  0  0  0  0  0  0
  144.0825  132.2941  149.7828 H   0  0  0  0  0  0  0  0  0  0  0  0
  145.6184  131.7462  148.9327 H   0  0  0  0  0  0  0  0  0  0  0  0
  146.5610  130.9912  151.1332 H   0  0  0  0  0  0  0  0  0  0  0  0
  145.0230  131.5416  151.9770 H   0  0  0  0  0  0  0  0  0  0  0  0
  143.3797  134.7888  153.9043 H   0  0  0  0  0  0  0  0  0  0  0  0
  140.3488  137.3264  153.7387 H   0  0  0  0  0  0  0  0  0  0  0  0
  139.6308  138.9253  153.5593 H   0  0  0  0  0  0  0  0  0  0  0  0
  138.7018  137.6170  154.2725 H   0  0  0  0  0  0  0  0  0  0  0  0
  140.9859  136.4782  156.1659 H   0  0  0  0  0  0  0  0  0  0  0  0
  139.2971  136.7188  156.5973 H   0  0  0  0  0  0  0  0  0  0  0  0
  140.5627  137.4836  157.5489 H   0  0  0  0  0  0  0  0  0  0  0  0
  1  2  1  0  0  0  0
  1 23  1  0  0  0  0
  1 24  1  0  0  0  0
  1 25  1  0  0  0  0
  2 22  1  0  0  0  0
  2  3  1  0  0  0  0
  2  4  1  0  0  0  0
  3 26  1  0  0  0  0
  3 27  1  0  0  0  0
  3 28  1  0  0  0  0
  4  5  1  0  0  0  0
  4 29  1  0  0  0  0
  4 30  1  0  0  0  0
  5  6  1  0  0  0  0
  5 19  1  0  0  0  0
  5 31  1  0  0  0  0
  6  7  1  0  0  0  0
  6 32  1  0  0  0  0
  7  8  2  0  0  0  0
  7  9  1  0  0  0  0
  9 10  1  0  0  0  0
  9 33  1  0  0  0  0
 10 18  1  0  0  0  0
 10 11  2  0  0  0  0
 11 12  1  0  0  0  0
 11 34  1  0  0  0  0
 12 13  2  0  0  0  0
 13 14  1  0  0  0  0
 13 17  1  0  0  0  0
 14 16  1  0  0  0  0
 14 15  1  0  0  0  0
 14 35  1  0  0  0  0
 15 16  1  0  0  0  0
 15 36  1  0  0  0  0
 15 37  1  0  0  0  0
 16 38  1  0  0  0  0
 16 39  1  0  0  0  0
 17 18  2  0  0  0  0
 18 40  1  0  0  0  0
 19 20  1  0  0  0  0
 19 21  1  0  0  0  0
 19 22  1  0  0  0  0
 20 41  1  0  0  0  0
 20 42  1  0  0  0  0
 20 43  1  0  0  0  0
 21 44  1  0  0  0  0
 21 45  1  0  0  0  0
 21 46  1  0  0  0  0
M  END
> <s_m_source_file>
AV-unprocessed.smi

> <i_m_source_file_index>
2460

> <i_lp_mmshare_version>
43012

> <i_f3d_flags>
0

> <s_epik_input>
W0NIM11DMShbQ0gzXSlbQ0gyXVtDQEhdKEMoTzEpKFtDSDNdKVtDSDNdKVtOSF1DKD1PKVtOSF1jMltjSF1uYyhuW2NIXTIpW0NIXTNbQ0gyXVtDSDJdMw==

> <s_epik_cmdline>
J2VwaWtfcHl0aG9uJywgJy1waCcsICc3LjAnLCAnLXRuJywgJzgnLCAnLW1hJywgJzIwMCcsICctbWV0YWxfYmluZGluZycsICctaW1hZScsICc8aW5maWxlLm1hZT4nLCAnLW9tYWUnLCAnPG91dGZpbGUubWFlPic=

> <r_lp_tautomer_probability>
1

> <r_epik_Ionization_Penalty>
2.38399e-05

> <r_epik_Ionization_Penalty_Charging>
0

> <r_epik_Ionization_Penalty_Neutral>
2.38399e-05

> <r_epik_State_Penalty>
-0

> <r_epik_Charging_Adjusted_Penalty>
0

> <i_epik_Tot_Q>
0

> <i_epik_Tot_abs_Q>
0

> <r_epik_Metal_State_Penalty>
-0

> <b_epik_Metal_Only>
0

> <s_lp_Force_Field>
OPLS_2005

> <r_lp_Energy>
17.9428

> <b_lp_Chiralities_Consistent>
1

> <s_lp_Variant>
AV-unprocessed.smi:2460-2

> <Gold.Version>
5.8.1

> <Gold.Id.Protein>
6NUR|6NUR_protein|mol2

> <Gold.PLP.Fitness>
39.9031

> <Gold.PLP.PLP>
-32.7439

> <Gold.PLP.part.hbond>
-2.3132

> <Gold.PLP.part.metal>
0.0000

> <Gold.PLP.part.buried>
-4.4701

> <Gold.PLP.part.nonpolar>
-26.6709

> <Gold.PLP.part.repulsive>
0.4713

> <Gold.PLP.ligand.clash>
0.0000

> <Gold.PLP.ligand.torsion>
0.2572

> <Gold.PLP.Chemscore.Hbond>
1.9750

> <Gold.PLP.Chemscore.CHOScore>
0.5398

> <Gold.PLP.Chemscore.Metal>
0.0000

> <Gold.Chemscore.Hbonds>
donor molecule, donor type, donor heavy atom, donor atom, acceptor molecule, acceptor atom, score
      L1  H     6    32       P1 10175  1.00
      L1  H     9    33       P1 10175  0.91
      L1  C    11    34       P1 10171  0.83

> <Gold.PLP.Chemscore.Internal.Correction>
0.1292

> <Gold.Rescore>
     Score         DG    S(hbond)    S(metal)    S(lipo)     H(rot)  DE(clash)    DE(int)     intcor
     13.31     -18.23       1.81        0.00      83.23       1.18       0.89       4.03       ----

> <Gold.Chemscore.Fitness>
13.3144

> <Gold.Chemscore.DG>
-18.2335

> <Gold.Chemscore.ZeroCoef>
-5.4800

> <Gold.Chemscore.Hbond>
1.8062

> <Gold.Chemscore.Metal>
0.0000

> <Gold.Chemscore.Lipo>
83.2272

> <Gold.Chemscore.Internal_Hbond>
0.0000

> <Gold.Chemscore.DEClash>
0.8852

> <Gold.Chemscore.DEInternal>
4.0340

> <Gold.Chemscore.Rot>
1.1785

> <Gold.Chemscore.Internal.Correction>
   9.000000E+99

> <Gold.Chemscore.Hbonds>
donor molecule, donor type, donor heavy atom, donor atom, acceptor molecule, acceptor atom, score
      L1  H     6    32       P1 10175  1.00
      L1  H     9    33       P1 10175  0.85

> <Gold.Chemscore.Hbond.Weighted>
-6.0328

> <Gold.Chemscore.Metal.Weighted>
-0.0000

> <Gold.Chemscore.Lipo.Weighted>
-9.7376

> <Gold.Chemscore.Internal_Hbond.Weighted>
0.0000

> <Gold.Chemscore.DEClash.Weighted>
0.8852

> <Gold.Chemscore.DEInternal.Weighted>
4.0340

> <Gold.Chemscore.Rot.Weighted>
3.0169

> <Gold.Chemscore.Internal.Correction.Weighted>
   9.000000E+99

> <Gold.Protein.RotatedTorsions>
[ 6907 6896 6895 6894 ] final  156.29 input  -60.11 | X-H torsion
[ 7974 7965 7964 7962 ] final -179.62 input  175.53 | X-H torsion
[ 8008 7997 7996 7995 ] final  -99.34 input   59.86 | X-H torsion
[ 10167 10162 10161 10158 ] final   76.88 input  -65.29 | X-H torsion
[ 10718 10713 10712 10709 ] final  -71.43 input   66.30 | X-H torsion
[ 10763 10752 10751 10750 ] final   77.84 input  -60.55 | X-H torsion
[ 11005 11000 10999 10996 ] final   45.25 input  -57.11 | X-H torsion

> <Gold.Protein.ActiveResidues>
 VAL166  LYS551  ARG553  GLY616  TRP617  ASP618  TYR619  PRO620  LYS621  CYS622 
 ASP623  PHE694  ASN695  SER759  ASP760  ASP761  ALA762  ILE779  LEU786  VAL792 
 PHE793  MET794  SER795  GLU796  ALA797  LYS798  CYS799  TRP800  GLU811  SER814 

> <Gold.Protein.RotatedAtoms>
  152.0319  133.3941  159.4300 H   0  0  0  0  0  0  0  0  0  0  0  0  # atno 6907 bound_to 6896
  150.6881  134.3511  159.4919 H   0  0  0  0  0  0  0  0  0  0  0  0  # atno 6908 bound_to 6896
  152.1299  134.9142  160.0610 H   0  0  0  0  0  0  0  0  0  0  0  0  # atno 6909 bound_to 6896
  144.7138  140.0690  143.6430 H   0  0  0  0  0  0  0  0  0  0  0  0  # atno 7974 bound_to 7965
  154.8134  140.0448  157.1359 H   0  0  0  0  0  0  0  0  0  0  0  0  # atno 8008 bound_to 7997
  154.9342  140.3044  155.5133 H   0  0  0  0  0  0  0  0  0  0  0  0  # atno 8009 bound_to 7997
  156.2974  140.2317  156.4404 H   0  0  0  0  0  0  0  0  0  0  0  0  # atno 8010 bound_to 7997
  139.9875  144.5781  150.7846 H   0  0  0  0  0  0  0  0  0  0  0  0  # atno 10167 bound_to 10162
  156.0363  130.4351  150.2442 H   0  0  0  0  0  0  0  0  0  0  0  0  # atno 10718 bound_to 10713
  153.0828  135.4899  154.8538 H   0  0  0  0  0  0  0  0  0  0  0  0  # atno 10763 bound_to 10752
  154.7173  135.3032  154.9106 H   0  0  0  0  0  0  0  0  0  0  0  0  # atno 10764 bound_to 10752
  153.9781  135.6793  153.4802 H   0  0  0  0  0  0  0  0  0  0  0  0  # atno 10765 bound_to 10752
  140.1477  134.4502  155.8404 H   0  0  0  0  0  0  0  0  0  0  0  0  # atno 11005 bound_to 11000
  145.9799  139.2933  143.1048 LP  0  0  0  0  0  0  0  0  0  0  0  0  # atno 17320 bound_to 7965
  145.9022  140.9235  143.0497 LP  0  0  0  0  0  0  0  0  0  0  0  0  # atno 17321 bound_to 7965
  140.7467  143.2894  151.3372 LP  0  0  0  0  0  0  0  0  0  0  0  0  # atno 17342 bound_to 10162
  139.6364  144.0622  152.2519 LP  0  0  0  0  0  0  0  0  0  0  0  0  # atno 17343 bound_to 10162
  157.0541  131.0071  151.3244 LP  0  0  0  0  0  0  0  0  0  0  0  0  # atno 17370 bound_to 10713
  157.5119  130.7944  149.7714 LP  0  0  0  0  0  0  0  0  0  0  0  0  # atno 17371 bound_to 10713
  141.2195  133.6859  156.7364 LP  0  0  0  0  0  0  0  0  0  0  0  0  # atno 17394 bound_to 11000
  140.2643  134.8442  157.3788 LP  0  0  0  0  0  0  0  0  0  0  0  0  # atno 17395 bound_to 11000

$$$$
