AV-unprocessed.smi:957|AV-procd|sdf|4266|dock5
  -GOLD-   22720 2173D 1   1.00000     0.00000
 Structure written by MMmdl.
 30 31  0  0  0  0  0  0  0  0  2 V2000
  154.8744  140.4716  162.1936 C   0  0  0  0  0  0  0  0  0  0  0  0
  153.8403  141.3455  161.4732 C   0  0  0  0  0  0  0  0  0  0  0  0
  153.5526  140.8517  160.1376 N   0  0  0  0  0  0  0  0  0  0  0  0
  154.0687  139.7716  159.5309 C   0  0  0  0  0  0  0  0  0  0  0  0
  153.6257  139.5517  158.2945 N   0  0  0  0  0  0  0  0  0  0  0  0
  152.7359  140.5784  158.0580 N   0  0  0  0  0  0  0  0  0  0  0  0
  152.7241  141.3165  159.1760 C   0  0  0  0  0  0  0  0  0  0  0  0
  151.8796  142.5505  159.3347 C   0  0  1  0  0  0  0  0  0  0  0  0
  152.6975  143.7437  159.8654 C   0  0  0  0  0  0  0  0  0  0  0  0
  151.8079  144.9890  159.9995 C   0  0  0  0  0  0  0  0  0  0  0  0
  151.1002  145.3033  158.6711 C   0  0  0  0  0  0  0  0  0  0  0  0
  150.3241  144.1344  158.2029 N   0  3  0  0  0  0  0  0  0  0  0  0
  151.1544  142.9226  158.0249 C   0  0  0  0  0  0  0  0  0  0  0  0
  155.0677  140.8498  163.1976 H   0  0  0  0  0  0  0  0  0  0  0  0
  155.8240  140.4508  161.6590 H   0  0  0  0  0  0  0  0  0  0  0  0
  154.5218  139.4441  162.2885 H   0  0  0  0  0  0  0  0  0  0  0  0
  152.9110  141.3641  162.0437 H   0  0  0  0  0  0  0  0  0  0  0  0
  154.1818  142.3786  161.4069 H   0  0  0  0  0  0  0  0  0  0  0  0
  154.7919  139.1258  160.0071 H   0  0  0  0  0  0  0  0  0  0  0  0
  151.1067  142.3439  160.0739 H   0  0  0  0  0  0  0  0  0  0  0  0
  153.1416  143.4988  160.8308 H   0  0  0  0  0  0  0  0  0  0  0  0
  153.5246  143.9612  159.1882 H   0  0  0  0  0  0  0  0  0  0  0  0
  151.0653  144.8273  160.7821 H   0  0  0  0  0  0  0  0  0  0  0  0
  152.4075  145.8436  160.3145 H   0  0  0  0  0  0  0  0  0  0  0  0
  150.4275  146.1526  158.7918 H   0  0  0  0  0  0  0  0  0  0  0  0
  151.8296  145.5790  157.9082 H   0  0  0  0  0  0  0  0  0  0  0  0
  149.6038  143.9343  158.8818 H   0  0  0  0  0  0  0  0  0  0  0  0
  151.8728  143.1024  157.2238 H   0  0  0  0  0  0  0  0  0  0  0  0
  150.5137  142.1023  157.6997 H   0  0  0  0  0  0  0  0  0  0  0  0
  149.8865  144.3632  157.3215 H   0  0  0  0  0  0  0  0  0  0  0  0
  1  2  1  0  0  0  0
  1 14  1  0  0  0  0
  1 15  1  0  0  0  0
  1 16  1  0  0  0  0
  2  3  1  0  0  0  0
  2 17  1  0  0  0  0
  2 18  1  0  0  0  0
  3  7  1  0  0  0  0
  3  4  1  0  0  0  0
  4  5  2  0  0  0  0
  4 19  1  0  0  0  0
  5  6  1  0  0  0  0
  6  7  2  0  0  0  0
  7  8  1  0  0  0  0
  8 13  1  0  0  0  0
  8  9  1  0  0  0  0
  8 20  1  0  0  0  0
  9 10  1  0  0  0  0
  9 21  1  0  0  0  0
  9 22  1  0  0  0  0
 10 11  1  0  0  0  0
 10 23  1  0  0  0  0
 10 24  1  0  0  0  0
 11 12  1  0  0  0  0
 11 25  1  0  0  0  0
 11 26  1  0  0  0  0
 12 13  1  0  0  0  0
 12 27  1  0  0  0  0
 12 30  1  0  0  0  0
 13 28  1  0  0  0  0
 13 29  1  0  0  0  0
M  CHG  1  12   1
M  END
> <s_m_source_file>
AV-unprocessed.smi

> <i_m_source_file_index>
957

> <i_lp_mmshare_version>
43012

> <i_f3d_flags>
0

> <s_epik_input>
W0NIM11bQ0gyXW4xW2NIXW5uYzFbQ0BASF0yW0NIMl1bQ0gyXVtDSDJdW05IXVtDSDJdMg==

> <s_epik_cmdline>
J2VwaWtfcHl0aG9uJywgJy1waCcsICc3LjAnLCAnLXRuJywgJzgnLCAnLW1hJywgJzIwMCcsICctbWV0YWxfYmluZGluZycsICctaW1hZScsICc8aW5maWxlLm1hZT4nLCAnLW9tYWUnLCAnPG91dGZpbGUubWFlPic=

> <r_lp_tautomer_probability>
1

> <r_epik_Ionization_Penalty>
0.000442722

> <r_epik_Ionization_Penalty_Charging>
0.000426856

> <r_epik_Ionization_Penalty_Neutral>
1.58656e-05

> <r_epik_State_Penalty>
-0

> <r_epik_Charging_Adjusted_Penalty>
0.000426856

> <i_epik_Tot_Q>
1

> <i_epik_Tot_abs_Q>
1

> <r_epik_Metal_State_Penalty>
-0

> <b_epik_Metal_Only>
0

> <s_lp_Force_Field>
OPLS_2005

> <r_lp_Energy>
16.0383

> <b_lp_Chiralities_Consistent>
1

> <s_lp_Variant>
AV-unprocessed.smi:957-2

> <Gold.Version>
5.8.1

> <Gold.Id.Protein>
6NUR|6NUR_protein|mol2

> <Gold.PLP.Fitness>
40.7302

> <Gold.PLP.PLP>
-31.9870

> <Gold.PLP.part.hbond>
-3.5479

> <Gold.PLP.part.metal>
0.0000

> <Gold.PLP.part.buried>
-0.5468

> <Gold.PLP.part.nonpolar>
-26.1934

> <Gold.PLP.part.repulsive>
0.0680

> <Gold.PLP.ligand.clash>
0.0000

> <Gold.PLP.ligand.torsion>
0.1418

> <Gold.PLP.Chemscore.Hbond>
3.0000

> <Gold.PLP.Chemscore.CHOScore>
0.0000

> <Gold.PLP.Chemscore.Metal>
0.0000

> <Gold.Chemscore.Hbonds>
donor molecule, donor type, donor heavy atom, donor atom, acceptor molecule, acceptor atom, score
      L1  H    12    30       P1  8028  2.00
      P1  H  7997  8008       L1     5  1.00

> <Gold.PLP.Chemscore.Internal.Correction>
0.0267

> <Gold.Rescore>
     Score         DG    S(hbond)    S(metal)    S(lipo)     H(rot)  DE(clash)    DE(int)     intcor
     13.90     -14.17       1.03        0.00      72.36       1.26       0.13       0.14       ----

> <Gold.Chemscore.Fitness>
13.9034

> <Gold.Chemscore.DG>
-14.1704

> <Gold.Chemscore.ZeroCoef>
-5.4800

> <Gold.Chemscore.Hbond>
1.0308

> <Gold.Chemscore.Metal>
0.0000

> <Gold.Chemscore.Lipo>
72.3626

> <Gold.Chemscore.Internal_Hbond>
0.0000

> <Gold.Chemscore.DEClash>
0.1263

> <Gold.Chemscore.DEInternal>
0.1406

> <Gold.Chemscore.Rot>
1.2573

> <Gold.Chemscore.Internal.Correction>
   9.000000E+99

> <Gold.Chemscore.Hbonds>
donor molecule, donor type, donor heavy atom, donor atom, acceptor molecule, acceptor atom, score
      L1  H    12    30       P1  8028  0.34
      P1  H  7997  8008       L1     5  0.12

> <Gold.Chemscore.Hbond.Weighted>
-3.4427

> <Gold.Chemscore.Metal.Weighted>
-0.0000

> <Gold.Chemscore.Lipo.Weighted>
-8.4664

> <Gold.Chemscore.Internal_Hbond.Weighted>
0.0000

> <Gold.Chemscore.DEClash.Weighted>
0.1263

> <Gold.Chemscore.DEInternal.Weighted>
0.1406

> <Gold.Chemscore.Rot.Weighted>
3.2188

> <Gold.Chemscore.Internal.Correction.Weighted>
   9.000000E+99

> <Gold.Protein.RotatedTorsions>
[ 6907 6896 6895 6894 ] final  -50.48 input  -60.11 | X-H torsion
[ 7974 7965 7964 7962 ] final  -69.94 input  175.53 | X-H torsion
[ 8008 7997 7996 7995 ] final -110.27 input   59.86 | X-H torsion
[ 10167 10162 10161 10158 ] final  157.21 input  -65.29 | X-H torsion
[ 10718 10713 10712 10709 ] final   57.94 input   66.30 | X-H torsion
[ 10763 10752 10751 10750 ] final -102.09 input  -60.55 | X-H torsion
[ 11005 11000 10999 10996 ] final  109.28 input  -57.11 | X-H torsion

> <Gold.Protein.ActiveResidues>
 VAL166  LYS551  ARG553  GLY616  TRP617  ASP618  TYR619  PRO620  LYS621  CYS622 
 ASP623  PHE694  ASN695  SER759  ASP760  ASP761  ALA762  ILE779  LEU786  VAL792 
 PHE793  MET794  SER795  GLU796  ALA797  LYS798  CYS799  TRP800  GLU811  SER814 

> <Gold.Protein.RotatedAtoms>
  150.8703  134.8076  159.7149 H   0  0  0  0  0  0  0  0  0  0  0  0  # atno 6907 bound_to 6896
  152.4710  134.4957  159.9719 H   0  0  0  0  0  0  0  0  0  0  0  0  # atno 6908 bound_to 6896
  151.5046  133.3459  159.2910 H   0  0  0  0  0  0  0  0  0  0  0  0  # atno 6909 bound_to 6896
  145.6973  140.9130  143.0749 H   0  0  0  0  0  0  0  0  0  0  0  0  # atno 7974 bound_to 7965
  154.9720  140.0397  157.2238 H   0  0  0  0  0  0  0  0  0  0  0  0  # atno 8008 bound_to 7997
  154.7793  140.2816  155.6054 H   0  0  0  0  0  0  0  0  0  0  0  0  # atno 8009 bound_to 7997
  156.2933  140.2595  156.2614 H   0  0  0  0  0  0  0  0  0  0  0  0  # atno 8010 bound_to 7997
  139.4822  144.4938  151.8269 H   0  0  0  0  0  0  0  0  0  0  0  0  # atno 10167 bound_to 10162
  157.5555  130.8797  149.9029 H   0  0  0  0  0  0  0  0  0  0  0  0  # atno 10718 bound_to 10713
  154.7707  135.4873  153.9644 H   0  0  0  0  0  0  0  0  0  0  0  0  # atno 10763 bound_to 10752
  153.1364  135.6763  153.9103 H   0  0  0  0  0  0  0  0  0  0  0  0  # atno 10764 bound_to 10752
  153.8791  135.3134  155.3423 H   0  0  0  0  0  0  0  0  0  0  0  0  # atno 10765 bound_to 10752
  139.8859  134.9454  156.6101 H   0  0  0  0  0  0  0  0  0  0  0  0  # atno 11005 bound_to 11000
  144.6979  139.8901  143.7452 LP  0  0  0  0  0  0  0  0  0  0  0  0  # atno 17320 bound_to 7965
  146.0829  139.3816  143.0453 LP  0  0  0  0  0  0  0  0  0  0  0  0  # atno 17321 bound_to 7965
  140.4425  144.1967  150.5892 LP  0  0  0  0  0  0  0  0  0  0  0  0  # atno 17342 bound_to 10162
  140.4669  143.2427  151.9143 LP  0  0  0  0  0  0  0  0  0  0  0  0  # atno 17343 bound_to 10162
  156.0615  130.3699  150.0972 LP  0  0  0  0  0  0  0  0  0  0  0  0  # atno 17370 bound_to 10713
  156.9141  130.9661  151.3558 LP  0  0  0  0  0  0  0  0  0  0  0  0  # atno 17371 bound_to 10713
  140.7818  133.8654  155.8574 LP  0  0  0  0  0  0  0  0  0  0  0  0  # atno 17394 bound_to 11000
  140.9754  134.1476  157.4541 LP  0  0  0  0  0  0  0  0  0  0  0  0  # atno 17395 bound_to 11000

$$$$
