AV-unprocessed.smi:1477|AV-procd|sdf|5981|dock9
  -GOLD-   22720 6 73D 1   1.00000     0.00000
 Structure written by MMmdl.
 33 34  0  0  0  0  0  0  0  0  1 V2000
  152.8200  139.9586  159.6786 C   0  0  0  0  0  0  0  0  0  0  0  0
  152.4143  141.2526  159.1250 N   0  0  0  0  0  0  0  0  0  0  0  0
  151.4947  141.2512  158.0594 C   0  0  0  0  0  0  0  0  0  0  0  0
  151.0569  142.3820  157.4759 C   0  0  0  0  0  0  0  0  0  0  0  0
  150.1394  142.2591  156.4226 N   0  0  0  0  0  0  0  0  0  0  0  0
  150.0400  141.3003  155.4806 C   0  0  0  0  0  0  0  0  0  0  0  0
  150.7706  140.3158  155.3857 O   0  0  0  0  0  0  0  0  0  0  0  0
  148.9256  141.4945  154.4521 C   0  0  0  0  0  0  0  0  0  0  0  0
  147.8953  140.5464  154.6866 O   0  0  0  0  0  0  0  0  0  0  0  0
  147.9670  139.4387  153.8057 C   0  0  0  0  0  0  0  0  0  0  0  0
  146.6755  139.3448  153.0218 C   0  0  0  0  0  0  0  0  0  0  0  0
  146.0671  137.9941  152.7193 C   0  0  0  0  0  0  0  0  0  0  0  0
  146.6649  138.8151  151.6056 C   0  0  0  0  0  0  0  0  0  0  0  0
  151.5763  143.6358  158.0038 C   0  0  0  0  0  0  0  0  0  0  0  0
  152.4560  143.6439  159.0248 C   0  0  0  0  0  0  0  0  0  0  0  0
  152.9266  142.4041  159.6469 C   0  0  0  0  0  0  0  0  0  0  0  0
  153.7303  142.3998  160.5799 O   0  0  0  0  0  0  0  0  0  0  0  0
  152.3701  139.1153  159.1537 H   0  0  0  0  0  0  0  0  0  0  0  0
  152.5280  139.8837  160.7269 H   0  0  0  0  0  0  0  0  0  0  0  0
  153.9024  139.8374  159.6181 H   0  0  0  0  0  0  0  0  0  0  0  0
  151.1685  140.2700  157.7449 H   0  0  0  0  0  0  0  0  0  0  0  0
  149.4515  142.9968  156.3716 H   0  0  0  0  0  0  0  0  0  0  0  0
  148.5375  142.5106  154.5360 H   0  0  0  0  0  0  0  0  0  0  0  0
  149.3292  141.3721  153.4455 H   0  0  0  0  0  0  0  0  0  0  0  0
  148.8100  139.5452  153.1207 H   0  0  0  0  0  0  0  0  0  0  0  0
  148.1059  138.5152  154.3694 H   0  0  0  0  0  0  0  0  0  0  0  0
  145.9664  140.1397  153.2457 H   0  0  0  0  0  0  0  0  0  0  0  0
  146.6134  137.1083  153.0374 H   0  0  0  0  0  0  0  0  0  0  0  0
  144.9828  137.9121  152.7584 H   0  0  0  0  0  0  0  0  0  0  0  0
  145.9796  139.2816  150.9009 H   0  0  0  0  0  0  0  0  0  0  0  0
  147.6084  138.4757  151.1824 H   0  0  0  0  0  0  0  0  0  0  0  0
  151.2742  144.5899  157.6049 H   0  0  0  0  0  0  0  0  0  0  0  0
  152.8227  144.5890  159.3976 H   0  0  0  0  0  0  0  0  0  0  0  0
  1  2  1  0  0  0  0
  1 18  1  0  0  0  0
  1 19  1  0  0  0  0
  1 20  1  0  0  0  0
  2 16  1  0  0  0  0
  2  3  1  0  0  0  0
  3  4  2  0  0  0  0
  3 21  1  0  0  0  0
  4  5  1  0  0  0  0
  4 14  1  0  0  0  0
  5  6  1  0  0  0  0
  5 22  1  0  0  0  0
  6  7  2  0  0  0  0
  6  8  1  0  0  0  0
  8  9  1  0  0  0  0
  8 23  1  0  0  0  0
  8 24  1  0  0  0  0
  9 10  1  0  0  0  0
 10 11  1  0  0  0  0
 10 25  1  0  0  0  0
 10 26  1  0  0  0  0
 11 13  1  0  0  0  0
 11 12  1  0  0  0  0
 11 27  1  0  0  0  0
 12 13  1  0  0  0  0
 12 28  1  0  0  0  0
 12 29  1  0  0  0  0
 13 30  1  0  0  0  0
 13 31  1  0  0  0  0
 14 15  2  0  0  0  0
 14 32  1  0  0  0  0
 15 16  1  0  0  0  0
 15 33  1  0  0  0  0
 16 17  2  0  0  0  0
M  END
> <s_m_source_file>
AV-unprocessed.smi

> <i_m_source_file_index>
1477

> <i_lp_mmshare_version>
43012

> <i_f3d_flags>
0

> <s_epik_input>
Tz1jMVtjSF1bY0hdYyhbY0hdbjFbQ0gzXSlbTkhdQyg9TylbQ0gyXU9bQ0gyXVtDSF0yW0NIMl1bQ0gyXTI=

> <s_epik_cmdline>
J2VwaWtfcHl0aG9uJywgJy1waCcsICc3LjAnLCAnLXRuJywgJzgnLCAnLW1hJywgJzIwMCcsICctbWV0YWxfYmluZGluZycsICctaW1hZScsICc8aW5maWxlLm1hZT4nLCAnLW9tYWUnLCAnPG91dGZpbGUubWFlPic=

> <r_lp_tautomer_probability>
1

> <r_epik_Ionization_Penalty>
2.50647e-06

> <r_epik_Ionization_Penalty_Charging>
2.2009e-06

> <r_epik_Ionization_Penalty_Neutral>
3.05566e-07

> <r_epik_State_Penalty>
-0

> <r_epik_Charging_Adjusted_Penalty>
2.2009e-06

> <i_epik_Tot_Q>
0

> <i_epik_Tot_abs_Q>
0

> <r_epik_Metal_State_Penalty>
-0

> <b_epik_Metal_Only>
0

> <s_lp_Force_Field>
OPLS_2005

> <r_lp_Energy>
27.664

> <b_lp_Chiralities_Consistent>
1

> <s_lp_Variant>
AV-unprocessed.smi:1477-1

> <Gold.Version>
5.8.1

> <Gold.Id.Protein>
6NUR|6NUR_protein|mol2

> <Gold.PLP.Fitness>
41.4246

> <Gold.PLP.PLP>
-38.0205

> <Gold.PLP.part.hbond>
-2.0000

> <Gold.PLP.part.metal>
0.0000

> <Gold.PLP.part.buried>
1.7635

> <Gold.PLP.part.nonpolar>
-36.6432

> <Gold.PLP.part.repulsive>
0.2259

> <Gold.PLP.ligand.clash>
0.0000

> <Gold.PLP.ligand.torsion>
1.4944

> <Gold.PLP.Chemscore.Hbond>
1.9440

> <Gold.PLP.Chemscore.CHOScore>
0.0000

> <Gold.PLP.Chemscore.Metal>
0.0000

> <Gold.Chemscore.Hbonds>
donor molecule, donor type, donor heavy atom, donor atom, acceptor molecule, acceptor atom, score
      L1  H     5    22       P1  8028  0.99
      P1  H  7989  7998       L1     7  0.54

> <Gold.PLP.Chemscore.Internal.Correction>
0.5609

> <Gold.Rescore>
     Score         DG    S(hbond)    S(metal)    S(lipo)     H(rot)  DE(clash)    DE(int)     intcor
     13.95     -15.98       1.36        0.00      85.59       1.58       0.33       1.71       ----

> <Gold.Chemscore.Fitness>
13.9504

> <Gold.Chemscore.DG>
-15.9835

> <Gold.Chemscore.ZeroCoef>
-5.4800

> <Gold.Chemscore.Hbond>
1.3603

> <Gold.Chemscore.Metal>
0.0000

> <Gold.Chemscore.Lipo>
85.5888

> <Gold.Chemscore.Internal_Hbond>
0.0000

> <Gold.Chemscore.DEClash>
0.3273

> <Gold.Chemscore.DEInternal>
1.7058

> <Gold.Chemscore.Rot>
1.5834

> <Gold.Chemscore.Internal.Correction>
   9.000000E+99

> <Gold.Chemscore.Hbonds>
donor molecule, donor type, donor heavy atom, donor atom, acceptor molecule, acceptor atom, score
      L1  H     5    22       P1  8028  0.93
      P1  H  7989  7998       L1     7  0.06

> <Gold.Chemscore.Hbond.Weighted>
-4.5433

> <Gold.Chemscore.Metal.Weighted>
-0.0000

> <Gold.Chemscore.Lipo.Weighted>
-10.0139

> <Gold.Chemscore.Internal_Hbond.Weighted>
0.0000

> <Gold.Chemscore.DEClash.Weighted>
0.3273

> <Gold.Chemscore.DEInternal.Weighted>
1.7058

> <Gold.Chemscore.Rot.Weighted>
4.0536

> <Gold.Chemscore.Internal.Correction.Weighted>
   9.000000E+99

> <Gold.Protein.RotatedTorsions>
[ 6907 6896 6895 6894 ] final  139.14 input  -60.11 | X-H torsion
[ 7974 7965 7964 7962 ] final  125.76 input  175.53 | X-H torsion
[ 8008 7997 7996 7995 ] final -161.98 input   59.86 | X-H torsion
[ 10167 10162 10161 10158 ] final -149.38 input  -65.29 | X-H torsion
[ 10718 10713 10712 10709 ] final  -22.34 input   66.30 | X-H torsion
[ 10763 10752 10751 10750 ] final   55.34 input  -60.55 | X-H torsion
[ 11005 11000 10999 10996 ] final -173.54 input  -57.11 | X-H torsion

> <Gold.Protein.ActiveResidues>
 VAL166  LYS551  ARG553  GLY616  TRP617  ASP618  TYR619  PRO620  LYS621  CYS622 
 ASP623  PHE694  ASN695  SER759  ASP760  ASP761  ALA762  ILE779  LEU786  VAL792 
 PHE793  MET794  SER795  GLU796  ALA797  LYS798  CYS799  TRP800  GLU811  SER814 

> <Gold.Protein.RotatedAtoms>
  152.2583  133.5275  159.5366 H   0  0  0  0  0  0  0  0  0  0  0  0  # atno 6907 bound_to 6896
  150.7116  134.0864  159.3925 H   0  0  0  0  0  0  0  0  0  0  0  0  # atno 6908 bound_to 6896
  151.8783  135.0463  160.0537 H   0  0  0  0  0  0  0  0  0  0  0  0  # atno 6909 bound_to 6896
  145.0694  139.3742  143.4965 H   0  0  0  0  0  0  0  0  0  0  0  0  # atno 7974 bound_to 7965
  155.8002  140.0891  157.1961 H   0  0  0  0  0  0  0  0  0  0  0  0  # atno 8008 bound_to 7997
  154.3982  140.1474  156.3324 H   0  0  0  0  0  0  0  0  0  0  0  0  # atno 8009 bound_to 7997
  155.8470  140.3436  155.5671 H   0  0  0  0  0  0  0  0  0  0  0  0  # atno 8010 bound_to 7997
  139.7448  143.8608  152.2572 H   0  0  0  0  0  0  0  0  0  0  0  0  # atno 10167 bound_to 10162
  156.5058  130.4598  149.6675 H   0  0  0  0  0  0  0  0  0  0  0  0  # atno 10718 bound_to 10713
  152.9816  135.5714  154.5051 H   0  0  0  0  0  0  0  0  0  0  0  0  # atno 10763 bound_to 10752
  154.4564  135.2780  155.1746 H   0  0  0  0  0  0  0  0  0  0  0  0  # atno 10764 bound_to 10752
  154.3352  135.6241  153.5623 H   0  0  0  0  0  0  0  0  0  0  0  0  # atno 10765 bound_to 10752
  140.4846  134.6042  157.4932 H   0  0  0  0  0  0  0  0  0  0  0  0  # atno 11005 bound_to 11000
  146.3528  140.0431  142.8641 LP  0  0  0  0  0  0  0  0  0  0  0  0  # atno 17320 bound_to 7965
  145.1312  140.9518  143.4543 LP  0  0  0  0  0  0  0  0  0  0  0  0  # atno 17321 bound_to 7965
  139.8569  144.7137  150.9147 LP  0  0  0  0  0  0  0  0  0  0  0  0  # atno 17342 bound_to 10162
  140.7790  143.3851  151.1408 LP  0  0  0  0  0  0  0  0  0  0  0  0  # atno 17343 bound_to 10162
  156.3288  130.7320  151.2246 LP  0  0  0  0  0  0  0  0  0  0  0  0  # atno 17370 bound_to 10713
  157.7457  131.0435  150.4749 LP  0  0  0  0  0  0  0  0  0  0  0  0  # atno 17371 bound_to 10713
  139.9805  134.7144  155.9868 LP  0  0  0  0  0  0  0  0  0  0  0  0  # atno 17394 bound_to 11000
  141.1514  133.6548  156.4025 LP  0  0  0  0  0  0  0  0  0  0  0  0  # atno 17395 bound_to 11000

$$$$
