AV-unprocessed.smi:175|AV-procd|sdf|1432|dock5
  -GOLD-   2262019213D 1   1.00000     0.00000
 Structure written by MMmdl.
 47 50  0  0  0  0  0  0  0  0  1 V2000
  148.9832  141.3564  155.6313 C   0  0  0  0  0  0  0  0  0  0  0  0
  149.4459  140.3990  154.5219 C   0  0  1  0  0  0  0  0  0  0  0  0
  150.7699  139.9772  154.8400 O   0  0  0  0  0  0  0  0  0  0  0  0
  150.9695  138.6688  154.3356 C   0  0  0  0  0  0  0  0  0  0  0  0
  149.6392  137.9966  154.6373 C   0  0  0  0  0  0  0  0  0  0  0  0
  148.6220  139.0935  154.3332 C   0  0  2  0  0  0  0  0  0  0  0  0
  148.2789  138.9956  152.9610 O   0  0  0  0  0  0  0  0  0  0  0  0
  147.3168  138.9756  155.1636 C   0  0  0  0  0  0  0  0  0  0  0  0
  147.4973  138.2767  156.4270 N   0  0  0  0  0  0  0  0  0  0  0  0
  147.5265  138.8376  157.6849 C   0  0  0  0  0  0  0  0  0  0  0  0
  147.7101  137.9972  158.6668 N   0  0  0  0  0  0  0  0  0  0  0  0
  147.8058  136.7634  158.0369 C   0  0  0  0  0  0  0  0  0  0  0  0
  148.0069  135.4363  158.4954 C   0  0  0  0  0  0  0  0  0  0  0  0
  148.1464  135.1491  159.8081 N   0  0  0  0  0  0  0  0  0  0  0  0
  148.5548  136.2773  160.6427 C   0  0  0  0  0  0  0  0  0  0  0  0
  147.6503  136.1433  161.8516 C   0  0  0  0  0  0  0  0  0  0  0  0
  147.6834  136.9164  162.8075 O   0  0  0  0  0  0  0  0  0  0  0  0
  146.8415  135.0922  161.7060 N   0  0  0  0  0  0  0  0  0  0  0  0
  145.8135  134.6405  162.6411 C   0  0  0  0  0  0  0  0  0  0  0  0
  144.4544  135.3195  162.3949 C   0  0  0  0  0  0  0  0  0  0  0  0
  144.0811  135.0963  161.1356 F   0  0  0  0  0  0  0  0  0  0  0  0
  143.5283  134.8118  163.2081 F   0  0  0  0  0  0  0  0  0  0  0  0
  144.5306  136.6363  162.5854 F   0  0  0  0  0  0  0  0  0  0  0  0
  147.0433  134.4193  160.4344 C   0  0  0  0  0  0  0  0  0  0  0  0
  148.0380  134.4391  157.5724 N   0  0  0  0  0  0  0  0  0  0  0  0
  147.8880  134.7279  156.2759 C   0  0  0  0  0  0  0  0  0  0  0  0
  147.6990  135.9185  155.7018 N   0  0  0  0  0  0  0  0  0  0  0  0
  147.6660  136.9182  156.6299 C   0  0  0  0  0  0  0  0  0  0  0  0
  147.9752  141.7270  155.4442 H   0  0  0  0  0  0  0  0  0  0  0  0
  149.6420  142.2231  155.6894 H   0  0  0  0  0  0  0  0  0  0  0  0
  148.9946  140.8728  156.6083 H   0  0  0  0  0  0  0  0  0  0  0  0
  149.4941  140.9572  153.5850 H   0  0  0  0  0  0  0  0  0  0  0  0
  151.1572  138.7096  153.2616 H   0  0  0  0  0  0  0  0  0  0  0  0
  151.8126  138.1741  154.8180 H   0  0  0  0  0  0  0  0  0  0  0  0
  149.4831  137.0779  154.0700 H   0  0  0  0  0  0  0  0  0  0  0  0
  149.6100  137.7412  155.6971 H   0  0  0  0  0  0  0  0  0  0  0  0
  148.7227  139.6847  152.4907 H   0  0  0  0  0  0  0  0  0  0  0  0
  146.9170  139.9644  155.3902 H   0  0  0  0  0  0  0  0  0  0  0  0
  146.5477  138.4543  154.5925 H   0  0  0  0  0  0  0  0  0  0  0  0
  147.4123  139.8984  157.8530 H   0  0  0  0  0  0  0  0  0  0  0  0
  149.6008  136.1776  160.9336 H   0  0  0  0  0  0  0  0  0  0  0  0
  148.4110  137.2483  160.1652 H   0  0  0  0  0  0  0  0  0  0  0  0
  145.7087  133.5567  162.5714 H   0  0  0  0  0  0  0  0  0  0  0  0
  146.1462  134.8477  163.6591 H   0  0  0  0  0  0  0  0  0  0  0  0
  146.1227  134.4300  159.8482 H   0  0  0  0  0  0  0  0  0  0  0  0
  147.3328  133.3807  160.5967 H   0  0  0  0  0  0  0  0  0  0  0  0
  147.9246  133.8848  155.6020 H   0  0  0  0  0  0  0  0  0  0  0  0
  1  2  1  0  0  0  0
  1 29  1  0  0  0  0
  1 30  1  0  0  0  0
  1 31  1  0  0  0  0
  2  6  1  0  0  0  0
  2  3  1  0  0  0  0
  2 32  1  0  0  0  0
  3  4  1  0  0  0  0
  4  5  1  0  0  0  0
  4 33  1  0  0  0  0
  4 34  1  0  0  0  0
  5  6  1  0  0  0  0
  5 35  1  0  0  0  0
  5 36  1  0  0  0  0
  6  7  1  0  0  0  0
  6  8  1  0  0  0  0
  7 37  1  0  0  0  0
  8  9  1  0  0  0  0
  8 38  1  0  0  0  0
  8 39  1  0  0  0  0
  9 28  1  0  0  0  0
  9 10  1  0  0  0  0
 10 11  2  0  0  0  0
 10 40  1  0  0  0  0
 11 12  1  0  0  0  0
 12 28  2  0  0  0  0
 12 13  1  0  0  0  0
 13 14  1  0  0  0  0
 13 25  2  0  0  0  0
 14 24  1  0  0  0  0
 14 15  1  0  0  0  0
 15 16  1  0  0  0  0
 15 41  1  0  0  0  0
 15 42  1  0  0  0  0
 16 17  2  0  0  0  0
 16 18  1  0  0  0  0
 18 19  1  0  0  0  0
 18 24  1  0  0  0  0
 19 20  1  0  0  0  0
 19 43  1  0  0  0  0
 19 44  1  0  0  0  0
 20 21  1  0  0  0  0
 20 22  1  0  0  0  0
 20 23  1  0  0  0  0
 24 45  1  0  0  0  0
 24 46  1  0  0  0  0
 25 26  1  0  0  0  0
 26 27  2  0  0  0  0
 26 47  1  0  0  0  0
 27 28  1  0  0  0  0
M  END
> <s_m_source_file>
AV-unprocessed.smi

> <i_m_source_file_index>
175

> <i_lp_mmshare_version>
43012

> <i_f3d_flags>
0

> <s_epik_input>
W0NIMl0xW0NIMl1PW0NAQEhdKFtDSDNdKVtDQEBdMShbT0hdKVtDSDJdbihbY0hdbjIpYyhjMjMpbltjSF1uYzNONFtDSDJdQyg9TylOKFtDSDJdNClbQ0gyXUMoRikoRilG

> <s_epik_cmdline>
J2VwaWtfcHl0aG9uJywgJy1waCcsICc3LjAnLCAnLXRuJywgJzgnLCAnLW1hJywgJzIwMCcsICctbWV0YWxfYmluZGluZycsICctaW1hZScsICc8aW5maWxlLm1hZT4nLCAnLW9tYWUnLCAnPG91dGZpbGUubWFlPic=

> <r_lp_tautomer_probability>
1

> <r_epik_Ionization_Penalty>
0.000307802

> <r_epik_Ionization_Penalty_Charging>
0

> <r_epik_Ionization_Penalty_Neutral>
0.000307802

> <r_epik_State_Penalty>
-0

> <r_epik_Charging_Adjusted_Penalty>
0

> <i_epik_Tot_Q>
0

> <i_epik_Tot_abs_Q>
0

> <r_epik_Metal_State_Penalty>
-0

> <b_epik_Metal_Only>
0

> <s_epik_Chemistry_Notes>
This compound contains an acetal/aminal-like group ( X-CH(R)-Y where X, Y are N, S, or O) that may be acid/base labile, releasing an aldehyde.

> <s_lp_Force_Field>
OPLS_2005

> <r_lp_Energy>
36.4888

> <b_lp_Chiralities_Consistent>
1

> <s_lp_Variant>
AV-unprocessed.smi:175-4

> <Gold.Version>
5.8.1

> <Gold.Id.Protein>
6NUR|6NUR_protein|mol2

> <Gold.PLP.Fitness>
42.9110

> <Gold.PLP.PLP>
-38.2025

> <Gold.PLP.part.hbond>
-4.3164

> <Gold.PLP.part.metal>
0.0000

> <Gold.PLP.part.buried>
-6.4817

> <Gold.PLP.part.nonpolar>
-27.4724

> <Gold.PLP.part.repulsive>
0.1211

> <Gold.PLP.ligand.clash>
0.0000

> <Gold.PLP.ligand.torsion>
1.6229

> <Gold.PLP.Chemscore.Hbond>
2.5440

> <Gold.PLP.Chemscore.CHOScore>
0.0000

> <Gold.PLP.Chemscore.Metal>
0.0000

> <Gold.Chemscore.Hbonds>
donor molecule, donor type, donor heavy atom, donor atom, acceptor molecule, acceptor atom, score
      L1  H     7    37       P1  7957  0.88
      P1  H  6931  6943       L1    17  0.61
      P1  H  7989  7998       L1     3  0.72

> <Gold.PLP.Chemscore.Internal.Correction>
0.3223

> <Gold.Rescore>
     Score         DG    S(hbond)    S(metal)    S(lipo)     H(rot)  DE(clash)    DE(int)     intcor
      5.53      -8.74       1.41        0.00      54.40       3.05       0.17       3.04       ----

> <Gold.Chemscore.Fitness>
5.5259

> <Gold.Chemscore.DG>
-8.7429

> <Gold.Chemscore.ZeroCoef>
-5.4800

> <Gold.Chemscore.Hbond>
1.4078

> <Gold.Chemscore.Metal>
0.0000

> <Gold.Chemscore.Lipo>
54.4038

> <Gold.Chemscore.Internal_Hbond>
0.0000

> <Gold.Chemscore.DEClash>
0.1749

> <Gold.Chemscore.DEInternal>
3.0421

> <Gold.Chemscore.Rot>
3.0487

> <Gold.Chemscore.Internal.Correction>
   9.000000E+99

> <Gold.Chemscore.Hbonds>
donor molecule, donor type, donor heavy atom, donor atom, acceptor molecule, acceptor atom, score
      L1  H     7    37       P1  7957  0.86
      P1  H  6931  6943       L1    17  0.09
      P1  H  7989  7998       L1     3  0.02

> <Gold.Chemscore.Hbond.Weighted>
-4.7022

> <Gold.Chemscore.Metal.Weighted>
-0.0000

> <Gold.Chemscore.Lipo.Weighted>
-6.3652

> <Gold.Chemscore.Internal_Hbond.Weighted>
0.0000

> <Gold.Chemscore.DEClash.Weighted>
0.1749

> <Gold.Chemscore.DEInternal.Weighted>
3.0421

> <Gold.Chemscore.Rot.Weighted>
7.8046

> <Gold.Chemscore.Internal.Correction.Weighted>
   9.000000E+99

> <Gold.Protein.RotatedTorsions>
[ 6907 6896 6895 6894 ] final  161.72 input  -60.11 | X-H torsion
[ 7974 7965 7964 7962 ] final -105.50 input  175.53 | X-H torsion
[ 8008 7997 7996 7995 ] final -113.58 input   59.86 | X-H torsion
[ 10167 10162 10161 10158 ] final   43.65 input  -65.29 | X-H torsion
[ 10718 10713 10712 10709 ] final   78.64 input   66.30 | X-H torsion
[ 10763 10752 10751 10750 ] final  150.40 input  -60.55 | X-H torsion
[ 11005 11000 10999 10996 ] final -136.11 input  -57.11 | X-H torsion

> <Gold.Protein.ActiveResidues>
 VAL166  LYS551  ARG553  GLY616  TRP617  ASP618  TYR619  PRO620  LYS621  CYS622 
 ASP623  PHE694  ASN695  SER759  ASP760  ASP761  ALA762  ILE779  LEU786  VAL792 
 PHE793  MET794  SER795  GLU796  ALA797  LYS798  CYS799  TRP800  GLU811  SER814 

> <Gold.Protein.RotatedAtoms>
  151.9513  133.3667  159.4000 H   0  0  0  0  0  0  0  0  0  0  0  0  # atno 6907 bound_to 6896
  150.6980  134.4337  159.5269 H   0  0  0  0  0  0  0  0  0  0  0  0  # atno 6908 bound_to 6896
  152.2011  134.8587  160.0558 H   0  0  0  0  0  0  0  0  0  0  0  0  # atno 6909 bound_to 6896
  145.2297  140.9166  143.3211 H   0  0  0  0  0  0  0  0  0  0  0  0  # atno 7974 bound_to 7965
  155.0230  140.0393  157.2444 H   0  0  0  0  0  0  0  0  0  0  0  0  # atno 8008 bound_to 7997
  154.7362  140.2740  155.6389 H   0  0  0  0  0  0  0  0  0  0  0  0  # atno 8009 bound_to 7997
  156.2853  140.2674  156.2076 H   0  0  0  0  0  0  0  0  0  0  0  0  # atno 8010 bound_to 7997
  140.3423  144.2455  150.6154 H   0  0  0  0  0  0  0  0  0  0  0  0  # atno 10167 bound_to 10162
  157.6751  130.9877  150.1816 H   0  0  0  0  0  0  0  0  0  0  0  0  # atno 10718 bound_to 10713
  154.0869  135.2855  155.3279 H   0  0  0  0  0  0  0  0  0  0  0  0  # atno 10763 bound_to 10752
  154.6646  135.5322  153.8064 H   0  0  0  0  0  0  0  0  0  0  0  0  # atno 10764 bound_to 10752
  153.0428  135.6542  154.1041 H   0  0  0  0  0  0  0  0  0  0  0  0  # atno 10765 bound_to 10752
  140.8835  134.1902  157.4575 H   0  0  0  0  0  0  0  0  0  0  0  0  # atno 11005 bound_to 11000
  144.9688  139.3902  143.6319 LP  0  0  0  0  0  0  0  0  0  0  0  0  # atno 17320 bound_to 7965
  146.3356  139.8776  142.8829 LP  0  0  0  0  0  0  0  0  0  0  0  0  # atno 17321 bound_to 7965
  140.5298  143.2246  151.8257 LP  0  0  0  0  0  0  0  0  0  0  0  0  # atno 17342 bound_to 10162
  139.4838  144.4735  151.9396 LP  0  0  0  0  0  0  0  0  0  0  0  0  # atno 17343 bound_to 10162
  156.2547  130.3704  149.8194 LP  0  0  0  0  0  0  0  0  0  0  0  0  # atno 17370 bound_to 10713
  156.5957  130.8525  151.3419 LP  0  0  0  0  0  0  0  0  0  0  0  0  # atno 17371 bound_to 10713
  139.8722  134.9828  156.5170 LP  0  0  0  0  0  0  0  0  0  0  0  0  # atno 17394 bound_to 11000
  140.8433  133.8188  155.9096 LP  0  0  0  0  0  0  0  0  0  0  0  0  # atno 17395 bound_to 11000

$$$$
