AV-unprocessed.smi:2205|AV-procd|sdf|8941|dock7
  -GOLD-   2272012163D 1   1.00000     0.00000
 Structure written by MMmdl.
 36 37  0  0  0  0  0  0  0  0  1 V2000
  153.2606  138.0426  156.9244 C   0  0  0  0  0  0  0  0  0  0  0  0
  153.3495  138.9065  155.8055 O   0  0  0  0  0  0  0  0  0  0  0  0
  152.6493  138.4094  154.6768 C   0  0  0  0  0  0  0  0  0  0  0  0
  151.1864  138.1356  155.0616 C   0  0  0  0  0  0  0  0  0  0  0  0
  150.3597  139.3469  154.9571 N   0  0  0  0  0  0  0  0  0  0  0  0
  150.7874  140.4770  155.6818 C   0  0  0  0  0  0  0  0  0  0  0  0
  150.1163  141.6495  155.6601 C   0  0  0  0  0  0  0  0  0  0  0  0
  150.4852  142.8166  156.3469 N   0  0  0  0  0  0  0  0  0  0  0  0
  151.2900  142.9683  157.4176 C   0  0  0  0  0  0  0  0  0  0  0  0
  151.8617  142.0554  158.0136 O   0  0  0  0  0  0  0  0  0  0  0  0
  151.4692  144.4175  157.8954 C   0  0  0  0  0  0  0  0  0  0  0  0
  152.8753  144.7456  158.4246 C   0  0  0  0  0  0  0  0  0  0  0  0
  152.3261  144.7871  159.8540 C   0  0  0  0  0  0  0  0  0  0  0  0
  150.9018  144.7057  159.2956 C   0  0  0  0  0  0  0  0  0  0  0  0
  148.9203  141.7012  154.8469 C   0  0  0  0  0  0  0  0  0  0  0  0
  148.5066  140.6294  154.1439 C   0  0  0  0  0  0  0  0  0  0  0  0
  149.2435  139.3641  154.1697 C   0  0  0  0  0  0  0  0  0  0  0  0
  148.8798  138.3825  153.5214 O   0  0  0  0  0  0  0  0  0  0  0  0
  153.8000  138.4773  157.7656 H   0  0  0  0  0  0  0  0  0  0  0  0
  153.7043  137.0702  156.7068 H   0  0  0  0  0  0  0  0  0  0  0  0
  152.2237  137.8948  157.2288 H   0  0  0  0  0  0  0  0  0  0  0  0
  152.7025  139.1184  153.8489 H   0  0  0  0  0  0  0  0  0  0  0  0
  153.1173  137.4835  154.3396 H   0  0  0  0  0  0  0  0  0  0  0  0
  150.7818  137.3494  154.4221 H   0  0  0  0  0  0  0  0  0  0  0  0
  151.1422  137.7237  156.0709 H   0  0  0  0  0  0  0  0  0  0  0  0
  151.6977  140.3052  156.2333 H   0  0  0  0  0  0  0  0  0  0  0  0
  150.0818  143.6652  155.9780 H   0  0  0  0  0  0  0  0  0  0  0  0
  151.1274  145.1446  157.1571 H   0  0  0  0  0  0  0  0  0  0  0  0
  153.6246  143.9681  158.2686 H   0  0  0  0  0  0  0  0  0  0  0  0
  153.2375  145.7146  158.0789 H   0  0  0  0  0  0  0  0  0  0  0  0
  152.6020  143.9077  160.4371 H   0  0  0  0  0  0  0  0  0  0  0  0
  152.5439  145.7116  160.3895 H   0  0  0  0  0  0  0  0  0  0  0  0
  150.3706  145.6569  159.3440 H   0  0  0  0  0  0  0  0  0  0  0  0
  150.3075  143.9016  159.7321 H   0  0  0  0  0  0  0  0  0  0  0  0
  148.3453  142.6147  154.7979 H   0  0  0  0  0  0  0  0  0  0  0  0
  147.6100  140.7028  153.5460 H   0  0  0  0  0  0  0  0  0  0  0  0
  1  2  1  0  0  0  0
  1 19  1  0  0  0  0
  1 20  1  0  0  0  0
  1 21  1  0  0  0  0
  2  3  1  0  0  0  0
  3  4  1  0  0  0  0
  3 22  1  0  0  0  0
  3 23  1  0  0  0  0
  4  5  1  0  0  0  0
  4 24  1  0  0  0  0
  4 25  1  0  0  0  0
  5 17  1  0  0  0  0
  5  6  1  0  0  0  0
  6  7  2  0  0  0  0
  6 26  1  0  0  0  0
  7  8  1  0  0  0  0
  7 15  1  0  0  0  0
  8  9  1  0  0  0  0
  8 27  1  0  0  0  0
  9 10  2  0  0  0  0
  9 11  1  0  0  0  0
 11 14  1  0  0  0  0
 11 12  1  0  0  0  0
 11 28  1  0  0  0  0
 12 13  1  0  0  0  0
 12 29  1  0  0  0  0
 12 30  1  0  0  0  0
 13 14  1  0  0  0  0
 13 31  1  0  0  0  0
 13 32  1  0  0  0  0
 14 33  1  0  0  0  0
 14 34  1  0  0  0  0
 15 16  2  0  0  0  0
 15 35  1  0  0  0  0
 16 17  1  0  0  0  0
 16 36  1  0  0  0  0
 17 18  2  0  0  0  0
M  END
> <s_m_source_file>
AV-unprocessed.smi

> <i_m_source_file_index>
2205

> <i_lp_mmshare_version>
43012

> <i_f3d_flags>
0

> <s_epik_input>
W0NIM11PW0NIMl1bQ0gyXW4xW2NIXWMoW2NIXVtjSF1jMT1PKVtOSF1DKD1PKVtDSF0yW0NIMl1bQ0gyXVtDSDJdMg==

> <s_epik_cmdline>
J2VwaWtfcHl0aG9uJywgJy1waCcsICc3LjAnLCAnLXRuJywgJzgnLCAnLW1hJywgJzIwMCcsICctbWV0YWxfYmluZGluZycsICctaW1hZScsICc8aW5maWxlLm1hZT4nLCAnLW9tYWUnLCAnPG91dGZpbGUubWFlPic=

> <r_lp_tautomer_probability>
1

> <r_epik_Ionization_Penalty>
2.40107e-06

> <r_epik_Ionization_Penalty_Charging>
2.27812e-06

> <r_epik_Ionization_Penalty_Neutral>
1.2295e-07

> <r_epik_State_Penalty>
-0

> <r_epik_Charging_Adjusted_Penalty>
2.27812e-06

> <i_epik_Tot_Q>
0

> <i_epik_Tot_abs_Q>
0

> <r_epik_Metal_State_Penalty>
-0

> <b_epik_Metal_Only>
0

> <s_lp_Force_Field>
OPLS_2005

> <r_lp_Energy>
28.3384

> <b_lp_Chiralities_Consistent>
1

> <s_lp_Variant>
AV-unprocessed.smi:2205-1

> <Gold.Version>
5.8.1

> <Gold.Id.Protein>
6NUR|6NUR_protein|mol2

> <Gold.PLP.Fitness>
44.8737

> <Gold.PLP.PLP>
-39.7458

> <Gold.PLP.part.hbond>
-2.0000

> <Gold.PLP.part.metal>
0.0000

> <Gold.PLP.part.buried>
-3.6481

> <Gold.PLP.part.nonpolar>
-37.7077

> <Gold.PLP.part.repulsive>
4.4244

> <Gold.PLP.ligand.clash>
0.0000

> <Gold.PLP.ligand.torsion>
0.6183

> <Gold.PLP.Chemscore.Hbond>
2.0000

> <Gold.PLP.Chemscore.CHOScore>
0.0000

> <Gold.PLP.Chemscore.Metal>
0.0000

> <Gold.Chemscore.Hbonds>
donor molecule, donor type, donor heavy atom, donor atom, acceptor molecule, acceptor atom, score
      L1  H     8    27       P1  8028  1.00
      P1  H  7997  8010       L1     2  1.00

> <Gold.PLP.Chemscore.Internal.Correction>
0.3646

> <Gold.Rescore>
     Score         DG    S(hbond)    S(metal)    S(lipo)     H(rot)  DE(clash)    DE(int)     intcor
     16.43     -19.16       1.90        0.00      96.76       1.56       1.12       1.60       ----

> <Gold.Chemscore.Fitness>
16.4311

> <Gold.Chemscore.DG>
-19.1583

> <Gold.Chemscore.ZeroCoef>
-5.4800

> <Gold.Chemscore.Hbond>
1.9010

> <Gold.Chemscore.Metal>
0.0000

> <Gold.Chemscore.Lipo>
96.7609

> <Gold.Chemscore.Internal_Hbond>
0.0000

> <Gold.Chemscore.DEClash>
1.1242

> <Gold.Chemscore.DEInternal>
1.6029

> <Gold.Chemscore.Rot>
1.5594

> <Gold.Chemscore.Internal.Correction>
   9.000000E+99

> <Gold.Chemscore.Hbonds>
donor molecule, donor type, donor heavy atom, donor atom, acceptor molecule, acceptor atom, score
      L1  H     8    27       P1  8028  0.98
      P1  H  7997  8010       L1     2  0.67

> <Gold.Chemscore.Hbond.Weighted>
-6.3493

> <Gold.Chemscore.Metal.Weighted>
-0.0000

> <Gold.Chemscore.Lipo.Weighted>
-11.3210

> <Gold.Chemscore.Internal_Hbond.Weighted>
0.0000

> <Gold.Chemscore.DEClash.Weighted>
1.1242

> <Gold.Chemscore.DEInternal.Weighted>
1.6029

> <Gold.Chemscore.Rot.Weighted>
3.9920

> <Gold.Chemscore.Internal.Correction.Weighted>
   9.000000E+99

> <Gold.Protein.RotatedTorsions>
[ 6907 6896 6895 6894 ] final   96.53 input  -60.11 | X-H torsion
[ 7974 7965 7964 7962 ] final  -69.83 input  175.53 | X-H torsion
[ 8008 7997 7996 7995 ] final   88.33 input   59.86 | X-H torsion
[ 10167 10162 10161 10158 ] final   30.58 input  -65.29 | X-H torsion
[ 10718 10713 10712 10709 ] final  127.52 input   66.30 | X-H torsion
[ 10763 10752 10751 10750 ] final  109.53 input  -60.55 | X-H torsion
[ 11005 11000 10999 10996 ] final  -22.83 input  -57.11 | X-H torsion

> <Gold.Protein.ActiveResidues>
 VAL166  LYS551  ARG553  GLY616  TRP617  ASP618  TYR619  PRO620  LYS621  CYS622 
 ASP623  PHE694  ASN695  SER759  ASP760  ASP761  ALA762  ILE779  LEU786  VAL792 
 PHE793  MET794  SER795  GLU796  ALA797  LYS798  CYS799  TRP800  GLU811  SER814 

> <Gold.Protein.RotatedAtoms>
  152.5434  134.0872  159.8260 H   0  0  0  0  0  0  0  0  0  0  0  0  # atno 6907 bound_to 6896
  151.0966  133.5268  159.2619 H   0  0  0  0  0  0  0  0  0  0  0  0  # atno 6908 bound_to 6896
  151.2039  135.0463  159.8938 H   0  0  0  0  0  0  0  0  0  0  0  0  # atno 6909 bound_to 6896
  145.6987  140.9125  143.0743 H   0  0  0  0  0  0  0  0  0  0  0  0  # atno 7974 bound_to 7965
  155.9865  140.3372  155.6712 H   0  0  0  0  0  0  0  0  0  0  0  0  # atno 8008 bound_to 7997
  155.6478  140.0702  157.2615 H   0  0  0  0  0  0  0  0  0  0  0  0  # atno 8009 bound_to 7997
  154.4207  140.1731  156.1630 H   0  0  0  0  0  0  0  0  0  0  0  0  # atno 8010 bound_to 7997
  140.4665  144.0828  150.6226 H   0  0  0  0  0  0  0  0  0  0  0  0  # atno 10167 bound_to 10162
  157.5325  131.1098  150.8986 H   0  0  0  0  0  0  0  0  0  0  0  0  # atno 10718 bound_to 10713
  153.4361  135.3777  155.2200 H   0  0  0  0  0  0  0  0  0  0  0  0  # atno 10763 bound_to 10752
  154.8752  135.3851  154.4209 H   0  0  0  0  0  0  0  0  0  0  0  0  # atno 10764 bound_to 10752
  153.4749  135.7087  153.6035 H   0  0  0  0  0  0  0  0  0  0  0  0  # atno 10765 bound_to 10752
  140.8694  133.7731  156.0168 H   0  0  0  0  0  0  0  0  0  0  0  0  # atno 11005 bound_to 11000
  144.6975  139.8918  143.7453 LP  0  0  0  0  0  0  0  0  0  0  0  0  # atno 17320 bound_to 7965
  146.0817  139.3805  143.0460 LP  0  0  0  0  0  0  0  0  0  0  0  0  # atno 17321 bound_to 7965
  140.4030  143.2694  151.9925 LP  0  0  0  0  0  0  0  0  0  0  0  0  # atno 17342 bound_to 10162
  139.4812  144.5981  151.7654 LP  0  0  0  0  0  0  0  0  0  0  0  0  # atno 17343 bound_to 10162
  156.9563  130.5438  149.5284 LP  0  0  0  0  0  0  0  0  0  0  0  0  # atno 17370 bound_to 10713
  156.0433  130.5513  150.8823 LP  0  0  0  0  0  0  0  0  0  0  0  0  # atno 17371 bound_to 10713
  140.8591  134.2862  157.5242 LP  0  0  0  0  0  0  0  0  0  0  0  0  # atno 17394 bound_to 11000
  139.8711  134.9508  156.4067 LP  0  0  0  0  0  0  0  0  0  0  0  0  # atno 17395 bound_to 11000

$$$$
