AV-unprocessed.smi:2306|AV-procd|sdf|9249|dock5
  -GOLD-   2272012473D 1   1.00000     0.00000
 Structure written by MMmdl.
 41 42  0  0  0  0  0  0  0  0  1 V2000
  152.8617  141.4474  159.4437 C   0  0  0  0  0  0  0  0  0  0  0  0
  152.3060  140.8918  158.1444 C   0  0  0  0  0  0  0  0  0  0  0  0
  152.6887  139.5838  157.8338 N   0  0  0  0  0  0  0  0  0  0  0  0
  152.2682  139.0307  156.7436 C   0  0  0  0  0  0  0  0  0  0  0  0
  151.4277  139.7116  155.8465 N   0  0  0  0  0  0  0  0  0  0  0  0
  151.0213  138.9725  154.6389 C   0  0  0  0  0  0  0  0  0  0  0  0
  149.4944  138.7390  154.5838 C   0  0  1  0  0  0  0  0  0  0  0  0
  149.1035  138.2949  153.3002 O   0  0  0  0  0  0  0  0  0  0  0  0
  149.0092  137.6919  155.6013 C   0  0  0  0  0  0  0  0  0  0  0  0
  149.0144  136.4016  155.0100 O   0  0  0  0  0  0  0  0  0  0  0  0
  149.6009  135.4127  155.8397 C   0  0  0  0  0  0  0  0  0  0  0  0
  149.3365  134.0126  155.3199 C   0  0  0  0  0  0  0  0  0  0  0  0
  149.9422  132.8994  155.9400 C   0  0  0  0  0  0  0  0  0  0  0  0
  149.7081  131.6003  155.4479 C   0  0  0  0  0  0  0  0  0  0  0  0
  148.8733  131.4097  154.3297 C   0  0  0  0  0  0  0  0  0  0  0  0
  148.2742  132.5189  153.7023 C   0  0  0  0  0  0  0  0  0  0  0  0
  148.5073  133.8180  154.1944 C   0  0  0  0  0  0  0  0  0  0  0  0
  150.9934  140.9831  156.0816 C   0  0  0  0  0  0  0  0  0  0  0  0
  150.2368  141.5636  155.3012 O   0  0  0  0  0  0  0  0  0  0  0  0
  151.4870  141.6028  157.3220 C   0  0  0  0  0  0  0  0  0  0  0  0
  151.0377  143.0304  157.6078 C   0  0  0  0  0  0  0  0  0  0  0  0
  152.0517  141.7353  160.1141 H   0  0  0  0  0  0  0  0  0  0  0  0
  153.4828  142.3222  159.2499 H   0  0  0  0  0  0  0  0  0  0  0  0
  153.4760  140.7095  159.9610 H   0  0  0  0  0  0  0  0  0  0  0  0
  152.5329  138.0112  156.4580 H   0  0  0  0  0  0  0  0  0  0  0  0
  151.3686  139.4668  153.7295 H   0  0  0  0  0  0  0  0  0  0  0  0
  151.5315  138.0069  154.6256 H   0  0  0  0  0  0  0  0  0  0  0  0
  148.9637  139.6708  154.7829 H   0  0  0  0  0  0  0  0  0  0  0  0
  149.3987  138.9249  152.6603 H   0  0  0  0  0  0  0  0  0  0  0  0
  149.6850  137.6873  156.4579 H   0  0  0  0  0  0  0  0  0  0  0  0
  148.0167  137.9461  155.9782 H   0  0  0  0  0  0  0  0  0  0  0  0
  150.6805  135.5605  155.8918 H   0  0  0  0  0  0  0  0  0  0  0  0
  149.2090  135.5071  156.8538 H   0  0  0  0  0  0  0  0  0  0  0  0
  150.5863  133.0371  156.7961 H   0  0  0  0  0  0  0  0  0  0  0  0
  150.1701  130.7501  155.9275 H   0  0  0  0  0  0  0  0  0  0  0  0
  148.6941  130.4138  153.9521 H   0  0  0  0  0  0  0  0  0  0  0  0
  147.6368  132.3737  152.8425 H   0  0  0  0  0  0  0  0  0  0  0  0
  148.0469  134.6644  153.7059 H   0  0  0  0  0  0  0  0  0  0  0  0
  151.3402  143.6901  156.7937 H   0  0  0  0  0  0  0  0  0  0  0  0
  151.4542  143.4361  158.5283 H   0  0  0  0  0  0  0  0  0  0  0  0
  149.9513  143.0729  157.6917 H   0  0  0  0  0  0  0  0  0  0  0  0
  1  2  1  0  0  0  0
  1 22  1  0  0  0  0
  1 23  1  0  0  0  0
  1 24  1  0  0  0  0
  2 20  2  0  0  0  0
  2  3  1  0  0  0  0
  3  4  2  0  0  0  0
  4  5  1  0  0  0  0
  4 25  1  0  0  0  0
  5  6  1  0  0  0  0
  5 18  1  0  0  0  0
  6  7  1  0  0  0  0
  6 26  1  0  0  0  0
  6 27  1  0  0  0  0
  7  8  1  0  0  0  0
  7  9  1  0  0  0  0
  7 28  1  0  0  0  0
  8 29  1  0  0  0  0
  9 10  1  0  0  0  0
  9 30  1  0  0  0  0
  9 31  1  0  0  0  0
 10 11  1  0  0  0  0
 11 12  1  0  0  0  0
 11 32  1  0  0  0  0
 11 33  1  0  0  0  0
 12 17  1  0  0  0  0
 12 13  2  0  0  0  0
 13 14  1  0  0  0  0
 13 34  1  0  0  0  0
 14 15  2  0  0  0  0
 14 35  1  0  0  0  0
 15 16  1  0  0  0  0
 15 36  1  0  0  0  0
 16 17  2  0  0  0  0
 16 37  1  0  0  0  0
 17 38  1  0  0  0  0
 18 19  2  0  0  0  0
 18 20  1  0  0  0  0
 20 21  1  0  0  0  0
 21 39  1  0  0  0  0
 21 40  1  0  0  0  0
 21 41  1  0  0  0  0
M  END
> <s_m_source_file>
AV-unprocessed.smi

> <i_m_source_file_index>
2306

> <i_lp_mmshare_version>
43012

> <i_f3d_flags>
0

> <s_epik_input>
W0NIM11jMW5bY0hdbihjKD1PKWMxW0NIM10pW0NIMl1bQ0BIXShbT0hdKVtDSDJdT1tDSDJdYzJbY0hdW2NIXVtjSF1bY0hdW2NIXTI=

> <s_epik_cmdline>
J2VwaWtfcHl0aG9uJywgJy1waCcsICc3LjAnLCAnLXRuJywgJzgnLCAnLW1hJywgJzIwMCcsICctbWV0YWxfYmluZGluZycsICctaW1hZScsICc8aW5maWxlLm1hZT4nLCAnLW9tYWUnLCAnPG91dGZpbGUubWFlPic=

> <r_lp_tautomer_probability>
1

> <r_epik_Ionization_Penalty>
5.35985e-05

> <r_epik_Ionization_Penalty_Charging>
1.17753e-07

> <r_epik_Ionization_Penalty_Neutral>
5.34808e-05

> <r_epik_State_Penalty>
-0

> <r_epik_Charging_Adjusted_Penalty>
1.17753e-07

> <i_epik_Tot_Q>
0

> <i_epik_Tot_abs_Q>
0

> <r_epik_Metal_State_Penalty>
-0

> <b_epik_Metal_Only>
0

> <s_lp_Force_Field>
OPLS_2005

> <r_lp_Energy>
24.4772

> <b_lp_Chiralities_Consistent>
1

> <s_lp_Variant>
AV-unprocessed.smi:2306-2

> <Gold.Version>
5.8.1

> <Gold.Id.Protein>
6NUR|6NUR_protein|mol2

> <Gold.PLP.Fitness>
43.4041

> <Gold.PLP.PLP>
-39.8978

> <Gold.PLP.part.hbond>
-3.5016

> <Gold.PLP.part.metal>
0.0000

> <Gold.PLP.part.buried>
-3.6491

> <Gold.PLP.part.nonpolar>
-32.5481

> <Gold.PLP.part.repulsive>
0.2506

> <Gold.PLP.ligand.clash>
0.0000

> <Gold.PLP.ligand.torsion>
0.8508

> <Gold.PLP.Chemscore.Hbond>
1.7072

> <Gold.PLP.Chemscore.CHOScore>
0.0000

> <Gold.PLP.Chemscore.Metal>
0.0000

> <Gold.Chemscore.Hbonds>
donor molecule, donor type, donor heavy atom, donor atom, acceptor molecule, acceptor atom, score
      L1  H     8    29       P1  7957  1.00
      P1  H  7989  7998       L1    19  0.04
      P1  H  7997  8009       L1     3  0.29

> <Gold.PLP.Chemscore.Internal.Correction>
0.0863

> <Gold.Rescore>
     Score         DG    S(hbond)    S(metal)    S(lipo)     H(rot)  DE(clash)    DE(int)     intcor
     10.95     -12.60       1.00        0.00      87.50       2.52       0.20       1.45       ----

> <Gold.Chemscore.Fitness>
10.9492

> <Gold.Chemscore.DG>
-12.6027

> <Gold.Chemscore.ZeroCoef>
-5.4800

> <Gold.Chemscore.Hbond>
0.9960

> <Gold.Chemscore.Metal>
0.0000

> <Gold.Chemscore.Lipo>
87.4987

> <Gold.Chemscore.Internal_Hbond>
0.0000

> <Gold.Chemscore.DEClash>
0.2016

> <Gold.Chemscore.DEInternal>
1.4519

> <Gold.Chemscore.Rot>
2.5162

> <Gold.Chemscore.Internal.Correction>
   9.000000E+99

> <Gold.Chemscore.Hbonds>
donor molecule, donor type, donor heavy atom, donor atom, acceptor molecule, acceptor atom, score
      L1  H     8    29       P1  7957  0.94
      P1  H  7997  8009       L1     3  0.01

> <Gold.Chemscore.Hbond.Weighted>
-3.3267

> <Gold.Chemscore.Metal.Weighted>
-0.0000

> <Gold.Chemscore.Lipo.Weighted>
-10.2373

> <Gold.Chemscore.Internal_Hbond.Weighted>
0.0000

> <Gold.Chemscore.DEClash.Weighted>
0.2016

> <Gold.Chemscore.DEInternal.Weighted>
1.4519

> <Gold.Chemscore.Rot.Weighted>
6.4414

> <Gold.Chemscore.Internal.Correction.Weighted>
   9.000000E+99

> <Gold.Protein.RotatedTorsions>
[ 6907 6896 6895 6894 ] final  -84.08 input  -60.11 | X-H torsion
[ 7974 7965 7964 7962 ] final  124.90 input  175.53 | X-H torsion
[ 8008 7997 7996 7995 ] final  137.97 input   59.86 | X-H torsion
[ 10167 10162 10161 10158 ] final   -5.90 input  -65.29 | X-H torsion
[ 10718 10713 10712 10709 ] final  -80.85 input   66.30 | X-H torsion
[ 10763 10752 10751 10750 ] final  147.99 input  -60.55 | X-H torsion
[ 11005 11000 10999 10996 ] final  -68.72 input  -57.11 | X-H torsion

> <Gold.Protein.ActiveResidues>
 VAL166  LYS551  ARG553  GLY616  TRP617  ASP618  TYR619  PRO620  LYS621  CYS622 
 ASP623  PHE694  ASN695  SER759  ASP760  ASP761  ALA762  ILE779  LEU786  VAL792 
 PHE793  MET794  SER795  GLU796  ALA797  LYS798  CYS799  TRP800  GLU811  SER814 

> <Gold.Protein.RotatedAtoms>
  150.6879  134.3414  159.4869 H   0  0  0  0  0  0  0  0  0  0  0  0  # atno 6907 bound_to 6896
  152.1266  134.9163  160.0570 H   0  0  0  0  0  0  0  0  0  0  0  0  # atno 6908 bound_to 6896
  152.0349  133.3918  159.4349 H   0  0  0  0  0  0  0  0  0  0  0  0  # atno 6909 bound_to 6896
  145.0791  139.3671  143.4918 H   0  0  0  0  0  0  0  0  0  0  0  0  # atno 7974 bound_to 7965
  156.3000  140.2406  156.3996 H   0  0  0  0  0  0  0  0  0  0  0  0  # atno 8008 bound_to 7997
  154.8539  140.0423  157.1642 H   0  0  0  0  0  0  0  0  0  0  0  0  # atno 8009 bound_to 7997
  154.8969  140.2971  155.5343 H   0  0  0  0  0  0  0  0  0  0  0  0  # atno 8010 bound_to 7997
  140.6979  143.6255  150.8572 H   0  0  0  0  0  0  0  0  0  0  0  0  # atno 10167 bound_to 10162
  156.0062  130.4586  150.3863 H   0  0  0  0  0  0  0  0  0  0  0  0  # atno 10718 bound_to 10713
  154.0474  135.2884  155.3346 H   0  0  0  0  0  0  0  0  0  0  0  0  # atno 10763 bound_to 10752
  154.6891  135.5233  153.8370 H   0  0  0  0  0  0  0  0  0  0  0  0  # atno 10764 bound_to 10752
  153.0575  135.6601  154.0673 H   0  0  0  0  0  0  0  0  0  0  0  0  # atno 10765 bound_to 10752
  141.1538  133.6747  156.6489 H   0  0  0  0  0  0  0  0  0  0  0  0  # atno 11005 bound_to 11000
  146.3530  140.0573  142.8631 LP  0  0  0  0  0  0  0  0  0  0  0  0  # atno 17320 bound_to 7965
  145.1200  140.9456  143.4606 LP  0  0  0  0  0  0  0  0  0  0  0  0  # atno 17321 bound_to 7965
  139.9974  143.5781  152.2888 LP  0  0  0  0  0  0  0  0  0  0  0  0  # atno 17342 bound_to 10162
  139.6458  144.7658  151.2247 LP  0  0  0  0  0  0  0  0  0  0  0  0  # atno 17343 bound_to 10162
  157.1940  131.0422  151.2685 LP  0  0  0  0  0  0  0  0  0  0  0  0  # atno 17370 bound_to 10713
  157.4036  130.7346  149.6785 LP  0  0  0  0  0  0  0  0  0  0  0  0  # atno 17371 bound_to 10713
  140.3335  134.7908  157.4344 LP  0  0  0  0  0  0  0  0  0  0  0  0  # atno 17394 bound_to 11000
  140.0996  134.5490  155.8365 LP  0  0  0  0  0  0  0  0  0  0  0  0  # atno 17395 bound_to 11000

$$$$
