AV-unprocessed.smi:1015|AV-procd|sdf|4435|dock9
  -GOLD-   22720 2393D 1   1.00000     0.00000
 Structure written by MMmdl.
 43 44  0  0  0  0  0  0  0  0  2 V2000
  152.3110  143.1090  160.1519 C   0  0  0  0  0  0  0  0  0  0  0  0
  150.9605  142.7812  159.8758 O   0  0  0  0  0  0  0  0  0  0  0  0
  150.6902  142.7143  158.4854 C   0  0  0  0  0  0  0  0  0  0  0  0
  149.3053  142.0814  158.2782 C   0  0  0  0  0  0  0  0  0  0  0  0
  148.8379  142.1820  156.8721 N   0  3  2  0  0  0  0  0  0  0  0  0
  147.4331  141.7251  156.7142 C   0  0  0  0  0  0  0  0  0  0  0  0
  146.9235  141.9575  155.2792 C   0  0  0  0  0  0  0  0  0  0  0  0
  147.8279  141.2949  154.2233 C   0  0  2  0  0  0  0  0  0  0  0  0
  147.6486  139.7585  154.1854 C   0  0  0  0  0  0  0  0  0  0  0  0
  148.9184  139.0680  153.9852 N   0  0  0  0  0  0  0  0  0  0  0  0
  149.5850  138.3770  154.9238 C   0  0  0  0  0  0  0  0  0  0  0  0
  149.1546  138.1810  156.0599 O   0  0  0  0  0  0  0  0  0  0  0  0
  150.9684  137.8598  154.5321 C   0  0  0  0  0  0  0  0  0  0  0  0
  151.9226  138.1142  155.5950 N   0  0  0  0  0  0  0  0  0  0  0  0
  152.4200  139.2570  156.0728 C   0  0  0  0  0  0  0  0  0  0  0  0
  153.2494  139.0446  157.0830 N   0  0  0  0  0  0  0  0  0  0  0  0
  153.2445  137.6656  157.2096 N   0  0  0  0  0  0  0  0  0  0  0  0
  152.4582  137.1079  156.3305 N   0  0  0  0  0  0  0  0  0  0  0  0
  149.2796  141.7661  154.4545 C   0  0  0  0  0  0  0  0  0  0  0  0
  149.7443  141.5165  155.8992 C   0  0  0  0  0  0  0  0  0  0  0  0
  152.4666  143.1435  161.2301 H   0  0  0  0  0  0  0  0  0  0  0  0
  152.5709  144.0863  159.7431 H   0  0  0  0  0  0  0  0  0  0  0  0
  152.9912  142.3638  159.7374 H   0  0  0  0  0  0  0  0  0  0  0  0
  150.7525  143.7034  158.0313 H   0  0  0  0  0  0  0  0  0  0  0  0
  151.4458  142.0947  157.9998 H   0  0  0  0  0  0  0  0  0  0  0  0
  149.3128  141.0353  158.5876 H   0  0  0  0  0  0  0  0  0  0  0  0
  148.6016  142.5906  158.9382 H   0  0  0  0  0  0  0  0  0  0  0  0
  147.3581  140.6710  156.9840 H   0  0  0  0  0  0  0  0  0  0  0  0
  146.7921  142.2704  157.4079 H   0  0  0  0  0  0  0  0  0  0  0  0
  145.8997  141.5945  155.1825 H   0  0  0  0  0  0  0  0  0  0  0  0
  146.8808  143.0311  155.0901 H   0  0  0  0  0  0  0  0  0  0  0  0
  147.5162  141.6684  153.2466 H   0  0  0  0  0  0  0  0  0  0  0  0
  147.1459  139.3982  155.0833 H   0  0  0  0  0  0  0  0  0  0  0  0
  146.9976  139.4892  153.3533 H   0  0  0  0  0  0  0  0  0  0  0  0
  149.3483  139.1665  153.0767 H   0  0  0  0  0  0  0  0  0  0  0  0
  150.9294  136.7878  154.3318 H   0  0  0  0  0  0  0  0  0  0  0  0
  151.3119  138.3490  153.6196 H   0  0  0  0  0  0  0  0  0  0  0  0
  152.1682  140.2359  155.6916 H   0  0  0  0  0  0  0  0  0  0  0  0
  149.9659  141.2944  153.7514 H   0  0  0  0  0  0  0  0  0  0  0  0
  149.3421  142.8352  154.2472 H   0  0  0  0  0  0  0  0  0  0  0  0
  150.7597  141.8952  156.0066 H   0  0  0  0  0  0  0  0  0  0  0  0
  149.7879  140.4469  156.1081 H   0  0  0  0  0  0  0  0  0  0  0  0
  148.8377  143.1668  156.6462 H   0  0  0  0  0  0  0  0  0  0  0  0
  1  2  1  0  0  0  0
  1 21  1  0  0  0  0
  1 22  1  0  0  0  0
  1 23  1  0  0  0  0
  2  3  1  0  0  0  0
  3  4  1  0  0  0  0
  3 24  1  0  0  0  0
  3 25  1  0  0  0  0
  4  5  1  0  0  0  0
  4 26  1  0  0  0  0
  4 27  1  0  0  0  0
  5 20  1  0  0  0  0
  5  6  1  0  0  0  0
  5 43  1  0  0  0  0
  6  7  1  0  0  0  0
  6 28  1  0  0  0  0
  6 29  1  0  0  0  0
  7  8  1  0  0  0  0
  7 30  1  0  0  0  0
  7 31  1  0  0  0  0
  8  9  1  0  0  0  0
  8 19  1  0  0  0  0
  8 32  1  0  0  0  0
  9 10  1  0  0  0  0
  9 33  1  0  0  0  0
  9 34  1  0  0  0  0
 10 11  1  0  0  0  0
 10 35  1  0  0  0  0
 11 12  2  0  0  0  0
 11 13  1  0  0  0  0
 13 14  1  0  0  0  0
 13 36  1  0  0  0  0
 13 37  1  0  0  0  0
 14 18  1  0  0  0  0
 14 15  1  0  0  0  0
 15 16  2  0  0  0  0
 15 38  1  0  0  0  0
 16 17  1  0  0  0  0
 17 18  2  0  0  0  0
 19 20  1  0  0  0  0
 19 39  1  0  0  0  0
 19 40  1  0  0  0  0
 20 41  1  0  0  0  0
 20 42  1  0  0  0  0
M  CHG  1   5   1
M  END
> <s_m_source_file>
AV-unprocessed.smi

> <i_m_source_file_index>
1015

> <i_lp_mmshare_version>
43012

> <i_f3d_flags>
0

> <s_epik_input>
W0NIM11PW0NIMl1bQ0gyXU4xW0NIMl1bQ0gyXVtDSF0oW0NIMl1bQ0gyXTEpW0NIMl1bTkhdQyg9TylbQ0gyXW4yW2NIXW5ubjI=

> <s_epik_cmdline>
J2VwaWtfcHl0aG9uJywgJy1waCcsICc3LjAnLCAnLXRuJywgJzgnLCAnLW1hJywgJzIwMCcsICctbWV0YWxfYmluZGluZycsICctaW1hZScsICc8aW5maWxlLm1hZT4nLCAnLW9tYWUnLCAnPG91dGZpbGUubWFlPic=

> <r_lp_tautomer_probability>
1

> <r_epik_Ionization_Penalty>
0.0104119

> <r_epik_Ionization_Penalty_Charging>
0.0104107

> <r_epik_Ionization_Penalty_Neutral>
1.19574e-06

> <r_epik_State_Penalty>
0.00795975

> <r_epik_Charging_Adjusted_Penalty>
0.0183705

> <i_epik_Tot_Q>
1

> <i_epik_Tot_abs_Q>
1

> <r_epik_Metal_State_Penalty>
0.00795975

> <b_epik_Metal_Only>
0

> <s_lp_Force_Field>
OPLS_2005

> <r_lp_Energy>
22.9597

> <b_lp_Chiralities_Consistent>
1

> <s_lp_Variant>
AV-unprocessed.smi:1015-2

> <Gold.Version>
5.8.1

> <Gold.Id.Protein>
6NUR|6NUR_protein|mol2

> <Gold.PLP.Fitness>
45.9601

> <Gold.PLP.PLP>
-33.5808

> <Gold.PLP.part.hbond>
-4.9363

> <Gold.PLP.part.metal>
0.0000

> <Gold.PLP.part.buried>
-1.7823

> <Gold.PLP.part.nonpolar>
-26.8626

> <Gold.PLP.part.repulsive>
0.1206

> <Gold.PLP.ligand.clash>
0.0000

> <Gold.PLP.ligand.torsion>
0.9922

> <Gold.PLP.Chemscore.Hbond>
4.7680

> <Gold.PLP.Chemscore.CHOScore>
0.0000

> <Gold.PLP.Chemscore.Metal>
0.0000

> <Gold.Chemscore.Hbonds>
donor molecule, donor type, donor heavy atom, donor atom, acceptor molecule, acceptor atom, score
      L1  H     5    43       P1  8028  2.00
      L1  H    10    35       P1  7957  0.78
      P1  H  7997  8009       L1    16  0.90
      P1  H 10752 10763       L1    18  0.58

> <Gold.PLP.Chemscore.Internal.Correction>
0.0597

> <Gold.Rescore>
     Score         DG    S(hbond)    S(metal)    S(lipo)     H(rot)  DE(clash)    DE(int)     intcor
     15.50     -17.75       3.74        0.00      67.95       3.19       1.30       0.94       ----

> <Gold.Chemscore.Fitness>
15.5015

> <Gold.Chemscore.DG>
-17.7453

> <Gold.Chemscore.ZeroCoef>
-5.4800

> <Gold.Chemscore.Hbond>
3.7391

> <Gold.Chemscore.Metal>
0.0000

> <Gold.Chemscore.Lipo>
67.9507

> <Gold.Chemscore.Internal_Hbond>
0.0000

> <Gold.Chemscore.DEClash>
1.3005

> <Gold.Chemscore.DEInternal>
0.9432

> <Gold.Chemscore.Rot>
3.1928

> <Gold.Chemscore.Internal.Correction>
   9.000000E+99

> <Gold.Chemscore.Hbonds>
donor molecule, donor type, donor heavy atom, donor atom, acceptor molecule, acceptor atom, score
      L1  H     5    43       P1  8028  0.90
      L1  H    10    35       P1  7957  0.75
      P1  H  7997  8009       L1    16  0.17
      P1  H 10752 10763       L1    18  0.44

> <Gold.Chemscore.Hbond.Weighted>
-12.4888

> <Gold.Chemscore.Metal.Weighted>
-0.0000

> <Gold.Chemscore.Lipo.Weighted>
-7.9502

> <Gold.Chemscore.Internal_Hbond.Weighted>
0.0000

> <Gold.Chemscore.DEClash.Weighted>
1.3005

> <Gold.Chemscore.DEInternal.Weighted>
0.9432

> <Gold.Chemscore.Rot.Weighted>
8.1737

> <Gold.Chemscore.Internal.Correction.Weighted>
   9.000000E+99

> <Gold.Protein.RotatedTorsions>
[ 6907 6896 6895 6894 ] final -170.84 input  -60.11 | X-H torsion
[ 7974 7965 7964 7962 ] final   91.26 input  175.53 | X-H torsion
[ 8008 7997 7996 7995 ] final  178.80 input   59.86 | X-H torsion
[ 10167 10162 10161 10158 ] final  -40.36 input  -65.29 | X-H torsion
[ 10718 10713 10712 10709 ] final   70.26 input   66.30 | X-H torsion
[ 10763 10752 10751 10750 ] final   89.36 input  -60.55 | X-H torsion
[ 11005 11000 10999 10996 ] final   35.85 input  -57.11 | X-H torsion

> <Gold.Protein.ActiveResidues>
 VAL166  LYS551  ARG553  GLY616  TRP617  ASP618  TYR619  PRO620  LYS621  CYS622 
 ASP623  PHE694  ASN695  SER759  ASP760  ASP761  ALA762  ILE779  LEU786  VAL792 
 PHE793  MET794  SER795  GLU796  ALA797  LYS798  CYS799  TRP800  GLU811  SER814 

> <Gold.Protein.RotatedAtoms>
  151.5141  133.3479  159.2889 H   0  0  0  0  0  0  0  0  0  0  0  0  # atno 6907 bound_to 6896
  150.8693  134.8066  159.7154 H   0  0  0  0  0  0  0  0  0  0  0  0  # atno 6908 bound_to 6896
  152.4687  134.5023  159.9780 H   0  0  0  0  0  0  0  0  0  0  0  0  # atno 6909 bound_to 6896
  145.5080  139.2276  143.2740 H   0  0  0  0  0  0  0  0  0  0  0  0  # atno 7974 bound_to 7965
  156.0505  140.1324  157.0055 H   0  0  0  0  0  0  0  0  0  0  0  0  # atno 8008 bound_to 7997
  154.4433  140.1012  156.6440 H   0  0  0  0  0  0  0  0  0  0  0  0  # atno 8009 bound_to 7997
  155.5530  140.3463  155.4475 H   0  0  0  0  0  0  0  0  0  0  0  0  # atno 8010 bound_to 7997
  140.7036  143.3158  151.2913 H   0  0  0  0  0  0  0  0  0  0  0  0  # atno 10167 bound_to 10162
  157.6390  130.9468  150.0626 H   0  0  0  0  0  0  0  0  0  0  0  0  # atno 10718 bound_to 10713
  153.1863  135.4473  155.0093 H   0  0  0  0  0  0  0  0  0  0  0  0  # atno 10763 bound_to 10752
  154.8062  135.3275  154.7426 H   0  0  0  0  0  0  0  0  0  0  0  0  # atno 10764 bound_to 10752
  153.7885  135.6972  153.4931 H   0  0  0  0  0  0  0  0  0  0  0  0  # atno 10765 bound_to 10752
  140.2385  134.3443  155.7935 H   0  0  0  0  0  0  0  0  0  0  0  0  # atno 11005 bound_to 11000
  146.2184  140.5885  142.9028 LP  0  0  0  0  0  0  0  0  0  0  0  0  # atno 17320 bound_to 7965
  144.7743  140.5706  143.6649 LP  0  0  0  0  0  0  0  0  0  0  0  0  # atno 17321 bound_to 7965
  139.6596  144.0213  152.2683 LP  0  0  0  0  0  0  0  0  0  0  0  0  # atno 17342 bound_to 10162
  139.9776  144.6450  150.7930 LP  0  0  0  0  0  0  0  0  0  0  0  0  # atno 17343 bound_to 10162
  156.1654  130.3645  149.9240 LP  0  0  0  0  0  0  0  0  0  0  0  0  # atno 17370 bound_to 10713
  156.7228  130.9013  151.3619 LP  0  0  0  0  0  0  0  0  0  0  0  0  # atno 17371 bound_to 10713
  141.2212  133.7285  156.8846 LP  0  0  0  0  0  0  0  0  0  0  0  0  # atno 17394 bound_to 11000
  140.1678  134.9121  157.2795 LP  0  0  0  0  0  0  0  0  0  0  0  0  # atno 17395 bound_to 11000

$$$$
