AV-unprocessed.smi:429|AV-procd|sdf|2545|dock10
  -GOLD-   2262022513D 1   1.00000     0.00000
 Structure written by MMmdl.
 43 44  0  0  0  0  0  0  0  0  1 V2000
  149.3934  131.7268  155.1279 C   0  0  0  0  0  0  0  0  0  0  0  0
  148.6774  132.6447  154.1312 C   0  0  0  0  0  0  0  0  0  0  0  0
  149.4157  133.9741  153.9182 C   0  0  0  0  0  0  0  0  0  0  0  0
  149.5276  134.7985  155.2137 C   0  0  0  0  0  0  0  0  0  0  0  0
  150.6257  135.8650  155.1545 C   0  0  0  0  0  0  0  0  0  0  0  0
  151.5057  135.9076  156.0148 O   0  0  0  0  0  0  0  0  0  0  0  0
  150.5568  136.7311  154.1318 N   0  0  0  0  0  0  0  0  0  0  0  0
  151.4998  137.8195  153.8931 C   0  0  0  0  0  0  0  0  0  0  0  0
  151.5191  138.8825  154.9824 C   0  0  0  0  0  0  0  0  0  0  0  0
  150.5062  139.8577  155.0939 C   0  0  0  0  0  0  0  0  0  0  0  0
  150.5879  140.8138  156.1240 C   0  0  0  0  0  0  0  0  0  0  0  0
  151.6834  140.7738  157.0194 C   0  0  0  0  0  0  0  0  0  0  0  0
  151.7821  141.7176  158.0653 N   0  0  0  0  0  0  0  0  0  0  0  0
  151.6993  143.1355  157.7184 C   0  0  0  0  0  0  0  0  0  0  0  0
  151.5394  143.9904  158.9867 C   0  0  0  0  0  0  0  0  0  0  0  0
  152.6006  143.7078  159.8923 O   0  0  0  0  0  0  0  0  0  0  0  0
  152.5940  142.3456  160.3052 C   0  0  0  0  0  0  0  0  0  0  0  0
  152.7883  141.4293  159.0847 C   0  0  0  0  0  0  0  0  0  0  0  0
  152.6634  139.8443  156.8976 N   0  0  0  0  0  0  0  0  0  0  0  0
  152.5796  138.9293  155.9091 C   0  0  0  0  0  0  0  0  0  0  0  0
  148.8485  130.7912  155.2549 H   0  0  0  0  0  0  0  0  0  0  0  0
  149.4772  132.1985  156.1075 H   0  0  0  0  0  0  0  0  0  0  0  0
  150.3994  131.4824  154.7861 H   0  0  0  0  0  0  0  0  0  0  0  0
  148.5747  132.1266  153.1772 H   0  0  0  0  0  0  0  0  0  0  0  0
  147.6655  132.8410  154.4871 H   0  0  0  0  0  0  0  0  0  0  0  0
  150.4123  133.7693  153.5238 H   0  0  0  0  0  0  0  0  0  0  0  0
  148.8951  134.5568  153.1566 H   0  0  0  0  0  0  0  0  0  0  0  0
  148.5711  135.2812  155.4215 H   0  0  0  0  0  0  0  0  0  0  0  0
  149.7353  134.1395  156.0573 H   0  0  0  0  0  0  0  0  0  0  0  0
  149.8008  136.6272  153.4704 H   0  0  0  0  0  0  0  0  0  0  0  0
  152.5027  137.4110  153.7553 H   0  0  0  0  0  0  0  0  0  0  0  0
  151.2316  138.3008  152.9525 H   0  0  0  0  0  0  0  0  0  0  0  0
  149.6771  139.8810  154.4022 H   0  0  0  0  0  0  0  0  0  0  0  0
  149.8214  141.5698  156.2049 H   0  0  0  0  0  0  0  0  0  0  0  0
  152.6025  143.4297  157.1820 H   0  0  0  0  0  0  0  0  0  0  0  0
  150.8522  143.3136  157.0550 H   0  0  0  0  0  0  0  0  0  0  0  0
  151.5636  145.0497  158.7308 H   0  0  0  0  0  0  0  0  0  0  0  0
  150.5773  143.8005  159.4654 H   0  0  0  0  0  0  0  0  0  0  0  0
  153.3989  142.1889  161.0234 H   0  0  0  0  0  0  0  0  0  0  0  0
  151.6597  142.1147  160.8195 H   0  0  0  0  0  0  0  0  0  0  0  0
  152.7471  140.3919  159.4131 H   0  0  0  0  0  0  0  0  0  0  0  0
  153.7785  141.5862  158.6548 H   0  0  0  0  0  0  0  0  0  0  0  0
  153.3850  138.2115  155.8596 H   0  0  0  0  0  0  0  0  0  0  0  0
  1  2  1  0  0  0  0
  1 21  1  0  0  0  0
  1 22  1  0  0  0  0
  1 23  1  0  0  0  0
  2  3  1  0  0  0  0
  2 24  1  0  0  0  0
  2 25  1  0  0  0  0
  3  4  1  0  0  0  0
  3 26  1  0  0  0  0
  3 27  1  0  0  0  0
  4  5  1  0  0  0  0
  4 28  1  0  0  0  0
  4 29  1  0  0  0  0
  5  6  2  0  0  0  0
  5  7  1  0  0  0  0
  7  8  1  0  0  0  0
  7 30  1  0  0  0  0
  8  9  1  0  0  0  0
  8 31  1  0  0  0  0
  8 32  1  0  0  0  0
  9 20  1  0  0  0  0
  9 10  2  0  0  0  0
 10 11  1  0  0  0  0
 10 33  1  0  0  0  0
 11 12  2  0  0  0  0
 11 34  1  0  0  0  0
 12 13  1  0  0  0  0
 12 19  1  0  0  0  0
 13 18  1  0  0  0  0
 13 14  1  0  0  0  0
 14 15  1  0  0  0  0
 14 35  1  0  0  0  0
 14 36  1  0  0  0  0
 15 16  1  0  0  0  0
 15 37  1  0  0  0  0
 15 38  1  0  0  0  0
 16 17  1  0  0  0  0
 17 18  1  0  0  0  0
 17 39  1  0  0  0  0
 17 40  1  0  0  0  0
 18 41  1  0  0  0  0
 18 42  1  0  0  0  0
 19 20  2  0  0  0  0
 20 43  1  0  0  0  0
M  END
> <s_m_source_file>
AV-unprocessed.smi

> <i_m_source_file_index>
429

> <i_lp_mmshare_version>
43012

> <i_f3d_flags>
0

> <s_epik_input>
W0NIM11bQ0gyXVtDSDJdW0NIMl1DKD1PKVtOSF1bQ0gyXWMxW2NIXVtjSF1jKG5bY0hdMSlOMltDSDJdW0NIMl1PW0NIMl1bQ0gyXTI=

> <s_epik_cmdline>
J2VwaWtfcHl0aG9uJywgJy1waCcsICc3LjAnLCAnLXRuJywgJzgnLCAnLW1hJywgJzIwMCcsICctbWV0YWxfYmluZGluZycsICctaW1hZScsICc8aW5maWxlLm1hZT4nLCAnLW9tYWUnLCAnPG91dGZpbGUubWFlPic=

> <r_lp_tautomer_probability>
1

> <r_epik_Ionization_Penalty>
0.00508978

> <r_epik_Ionization_Penalty_Charging>
0

> <r_epik_Ionization_Penalty_Neutral>
0.00508978

> <r_epik_State_Penalty>
0.0037045

> <r_epik_Charging_Adjusted_Penalty>
0.0037045

> <i_epik_Tot_Q>
0

> <i_epik_Tot_abs_Q>
0

> <r_epik_Metal_State_Penalty>
-0

> <b_epik_Metal_Only>
0

> <s_lp_Force_Field>
OPLS_2005

> <r_lp_Energy>
15.7693

> <b_lp_Chiralities_Consistent>
1

> <s_lp_Variant>
AV-unprocessed.smi:429-1

> <Gold.Version>
5.8.1

> <Gold.Id.Protein>
6NUR|6NUR_protein|mol2

> <Gold.PLP.Fitness>
48.3729

> <Gold.PLP.PLP>
-40.6060

> <Gold.PLP.part.hbond>
-4.0000

> <Gold.PLP.part.metal>
0.0000

> <Gold.PLP.part.buried>
-1.9874

> <Gold.PLP.part.nonpolar>
-34.0030

> <Gold.PLP.part.repulsive>
0.1040

> <Gold.PLP.ligand.clash>
0.0000

> <Gold.PLP.ligand.torsion>
0.5026

> <Gold.PLP.Chemscore.Hbond>
2.8056

> <Gold.PLP.Chemscore.CHOScore>
0.0000

> <Gold.PLP.Chemscore.Metal>
0.0000

> <Gold.Chemscore.Hbonds>
donor molecule, donor type, donor heavy atom, donor atom, acceptor molecule, acceptor atom, score
      L1  H     7    30       P1  7948  1.00
      P1  H  7997  8008       L1    19  0.79
      P1  H 10752 10763       L1     6  1.00

> <Gold.PLP.Chemscore.Internal.Correction>
0.3552

> <Gold.Rescore>
     Score         DG    S(hbond)    S(metal)    S(lipo)     H(rot)  DE(clash)    DE(int)     intcor
     18.58     -19.26       2.15        0.00      95.11       1.77       0.25       0.43       ----

> <Gold.Chemscore.Fitness>
18.5813

> <Gold.Chemscore.DG>
-19.2576

> <Gold.Chemscore.ZeroCoef>
-5.4800

> <Gold.Chemscore.Hbond>
2.1487

> <Gold.Chemscore.Metal>
0.0000

> <Gold.Chemscore.Lipo>
95.1106

> <Gold.Chemscore.Internal_Hbond>
0.0000

> <Gold.Chemscore.DEClash>
0.2511

> <Gold.Chemscore.DEInternal>
0.4252

> <Gold.Chemscore.Rot>
1.7684

> <Gold.Chemscore.Internal.Correction>
   9.000000E+99

> <Gold.Chemscore.Hbonds>
donor molecule, donor type, donor heavy atom, donor atom, acceptor molecule, acceptor atom, score
      L1  H     7    30       P1  7948  0.34
      P1  H  7997  8008       L1    19  0.15
      P1  H 10752 10763       L1     6  0.34

> <Gold.Chemscore.Hbond.Weighted>
-7.1767

> <Gold.Chemscore.Metal.Weighted>
-0.0000

> <Gold.Chemscore.Lipo.Weighted>
-11.1279

> <Gold.Chemscore.Internal_Hbond.Weighted>
0.0000

> <Gold.Chemscore.DEClash.Weighted>
0.2511

> <Gold.Chemscore.DEInternal.Weighted>
0.4252

> <Gold.Chemscore.Rot.Weighted>
4.5271

> <Gold.Chemscore.Internal.Correction.Weighted>
   9.000000E+99

> <Gold.Protein.RotatedTorsions>
[ 6907 6896 6895 6894 ] final  137.45 input  -60.11 | X-H torsion
[ 7974 7965 7964 7962 ] final   35.06 input  175.53 | X-H torsion
[ 8008 7997 7996 7995 ] final  -78.00 input   59.86 | X-H torsion
[ 10167 10162 10161 10158 ] final   39.06 input  -65.29 | X-H torsion
[ 10718 10713 10712 10709 ] final   39.98 input   66.30 | X-H torsion
[ 10763 10752 10751 10750 ] final   84.47 input  -60.55 | X-H torsion
[ 11005 11000 10999 10996 ] final -120.66 input  -57.11 | X-H torsion

> <Gold.Protein.ActiveResidues>
 VAL166  LYS551  ARG553  GLY616  TRP617  ASP618  TYR619  PRO620  LYS621  CYS622 
 ASP623  PHE694  ASN695  SER759  ASP760  ASP761  ALA762  ILE779  LEU786  VAL792 
 PHE793  MET794  SER795  GLU796  ALA797  LYS798  CYS799  TRP800  GLU811  SER814 

> <Gold.Protein.RotatedAtoms>
  152.2779  133.5442  159.5479 H   0  0  0  0  0  0  0  0  0  0  0  0  # atno 6907 bound_to 6896
  150.7184  134.0606  159.3839 H   0  0  0  0  0  0  0  0  0  0  0  0  # atno 6908 bound_to 6896
  151.8518  135.0555  160.0510 H   0  0  0  0  0  0  0  0  0  0  0  0  # atno 6909 bound_to 6896
  146.1309  139.6190  142.9227 H   0  0  0  0  0  0  0  0  0  0  0  0  # atno 7974 bound_to 7965
  154.5648  140.0701  156.8875 H   0  0  0  0  0  0  0  0  0  0  0  0  # atno 8008 bound_to 7997
  155.2743  140.3367  155.4244 H   0  0  0  0  0  0  0  0  0  0  0  0  # atno 8009 bound_to 7997
  156.2072  140.1744  156.7760 H   0  0  0  0  0  0  0  0  0  0  0  0  # atno 8010 bound_to 7997
  140.3877  144.1895  150.6130 H   0  0  0  0  0  0  0  0  0  0  0  0  # atno 10167 bound_to 10162
  157.3769  130.7732  149.7162 H   0  0  0  0  0  0  0  0  0  0  0  0  # atno 10718 bound_to 10713
  153.1384  135.4653  154.9458 H   0  0  0  0  0  0  0  0  0  0  0  0  # atno 10763 bound_to 10752
  154.7726  135.3163  154.8160 H   0  0  0  0  0  0  0  0  0  0  0  0  # atno 10764 bound_to 10752
  153.8688  135.6905  153.4830 H   0  0  0  0  0  0  0  0  0  0  0  0  # atno 10765 bound_to 10752
  141.0127  134.0241  157.3392 H   0  0  0  0  0  0  0  0  0  0  0  0  # atno 11005 bound_to 11000
  145.5262  141.0429  143.2408 LP  0  0  0  0  0  0  0  0  0  0  0  0  # atno 17320 bound_to 7965
  144.7690  139.6779  143.7203 LP  0  0  0  0  0  0  0  0  0  0  0  0  # atno 17321 bound_to 7965
  140.4872  143.2359  151.8870 LP  0  0  0  0  0  0  0  0  0  0  0  0  # atno 17342 bound_to 10162
  139.4791  144.5205  151.8808 LP  0  0  0  0  0  0  0  0  0  0  0  0  # atno 17343 bound_to 10162
  155.9767  130.4072  150.3761 LP  0  0  0  0  0  0  0  0  0  0  0  0  # atno 17370 bound_to 10713
  157.1859  131.0403  151.2725 LP  0  0  0  0  0  0  0  0  0  0  0  0  # atno 17371 bound_to 10713
  139.9099  135.0188  156.7647 LP  0  0  0  0  0  0  0  0  0  0  0  0  # atno 17394 bound_to 11000
  140.6706  133.9563  155.7854 LP  0  0  0  0  0  0  0  0  0  0  0  0  # atno 17395 bound_to 11000

$$$$
