AV-unprocessed.smi:100|AV-procd|sdf|911|dock4
  -GOLD-   2262017413D 1   1.00000     0.00000
 Structure written by MMmdl.
 31 33  0  0  0  0  0  0  0  0  1 V2000
  153.3812  137.7053  157.0658 N   0  0  0  0  0  0  0  0  0  0  0  0
  152.3178  138.0061  156.3073 C   0  0  0  0  0  0  0  0  0  0  0  0
  152.1073  137.2858  155.1809 N   0  0  0  0  0  0  0  0  0  0  0  0
  151.0527  137.5653  154.4082 C   0  0  0  0  0  0  0  0  0  0  0  0
  150.1141  138.4996  154.5817 N   0  0  0  0  0  0  0  0  0  0  0  0
  150.3268  139.2252  155.7185 C   0  0  0  0  0  0  0  0  0  0  0  0
  151.4040  139.0415  156.6295 C   0  0  0  0  0  0  0  0  0  0  0  0
  151.3077  139.9580  157.6676 N   0  0  0  0  0  0  0  0  0  0  0  0
  150.2322  140.6422  157.3830 C   0  0  0  0  0  0  0  0  0  0  0  0
  149.5797  140.2695  156.2280 N   0  0  0  0  0  0  0  0  0  0  0  0
  148.3322  140.8704  155.6564 C   0  0  2  0  0  0  0  0  0  0  0  0
  147.4326  139.8575  155.3267 O   0  0  0  0  0  0  0  0  0  0  0  0
  146.7581  140.1563  154.1035 C   0  0  2  0  0  0  0  0  0  0  0  0
  147.0653  139.0370  153.0947 C   0  0  0  0  0  0  0  0  0  0  0  0
  146.7923  139.4728  151.7795 O   0  0  0  0  0  0  0  0  0  0  0  0
  147.2629  141.5385  153.6628 C   0  0  1  0  0  0  0  0  0  0  0  0
  146.4145  142.4758  154.0895 F   0  0  0  0  0  0  0  0  0  0  0  0
  148.5841  141.6992  154.3903 C   0  0  2  0  0  0  0  0  0  0  0  0
  149.6724  141.2505  153.6032 O   0  0  0  0  0  0  0  0  0  0  0  0
  153.5602  138.2273  157.9115 H   0  0  0  0  0  0  0  0  0  0  0  0
  153.9976  136.9534  156.7933 H   0  0  0  0  0  0  0  0  0  0  0  0
  150.9445  136.9531  153.5250 H   0  0  0  0  0  0  0  0  0  0  0  0
  149.8823  141.4466  158.0137 H   0  0  0  0  0  0  0  0  0  0  0  0
  147.9065  141.4653  156.4661 H   0  0  0  0  0  0  0  0  0  0  0  0
  145.6847  140.1811  154.2979 H   0  0  0  0  0  0  0  0  0  0  0  0
  148.1034  138.7122  153.1648 H   0  0  0  0  0  0  0  0  0  0  0  0
  146.4413  138.1667  153.3000 H   0  0  0  0  0  0  0  0  0  0  0  0
  147.6056  139.5042  151.2993 H   0  0  0  0  0  0  0  0  0  0  0  0
  147.3409  141.6569  152.5812 H   0  0  0  0  0  0  0  0  0  0  0  0
  148.7782  142.7363  154.6662 H   0  0  0  0  0  0  0  0  0  0  0  0
  149.3289  140.8543  152.8169 H   0  0  0  0  0  0  0  0  0  0  0  0
  1  2  1  0  0  0  0
  1 20  1  0  0  0  0
  1 21  1  0  0  0  0
  2  7  1  0  0  0  0
  2  3  2  0  0  0  0
  3  4  1  0  0  0  0
  4  5  2  0  0  0  0
  4 22  1  0  0  0  0
  5  6  1  0  0  0  0
  6 10  1  0  0  0  0
  6  7  2  0  0  0  0
  7  8  1  0  0  0  0
  8  9  2  0  0  0  0
  9 10  1  0  0  0  0
  9 23  1  0  0  0  0
 10 11  1  0  0  0  0
 11 18  1  0  0  0  0
 11 12  1  0  0  0  0
 11 24  1  0  0  0  0
 12 13  1  0  0  0  0
 13 14  1  0  0  0  0
 13 16  1  0  0  0  0
 13 25  1  0  0  0  0
 14 15  1  0  0  0  0
 14 26  1  0  0  0  0
 14 27  1  0  0  0  0
 15 28  1  0  0  0  0
 16 17  1  0  0  0  0
 16 18  1  0  0  0  0
 16 29  1  0  0  0  0
 18 19  1  0  0  0  0
 18 30  1  0  0  0  0
 19 31  1  0  0  0  0
M  END
> <s_m_source_file>
AV-unprocessed.smi

> <i_m_source_file_index>
100

> <i_lp_mmshare_version>
43012

> <i_f3d_flags>
0

> <s_epik_input>
bjFbY0hdbmMoW05IMl0pYyhjMTIpbltjSF1uMltDQEBIXTNPW0NAQEhdKFtDSDJdW09IXSlbQ0BIXShGKVtDQEhdM1tPSF0=

> <s_epik_cmdline>
J2VwaWtfcHl0aG9uJywgJy1waCcsICc3LjAnLCAnLXRuJywgJzgnLCAnLW1hJywgJzIwMCcsICctbWV0YWxfYmluZGluZycsICctaW1hZScsICc8aW5maWxlLm1hZT4nLCAnLW9tYWUnLCAnPG91dGZpbGUubWFlPic=

> <r_lp_tautomer_probability>
1

> <r_epik_Ionization_Penalty>
0.000750324

> <r_epik_Ionization_Penalty_Charging>
0

> <r_epik_Ionization_Penalty_Neutral>
0.000750324

> <r_epik_State_Penalty>
-0

> <r_epik_Charging_Adjusted_Penalty>
0

> <i_epik_Tot_Q>
0

> <i_epik_Tot_abs_Q>
0

> <r_epik_Metal_State_Penalty>
-0

> <b_epik_Metal_Only>
0

> <s_epik_Chemistry_Notes>
This compound contains an acetal/aminal-like group ( X-CH(R)-Y where X, Y are N, S, or O) that may be acid/base labile, releasing an aldehyde.

> <s_lp_Force_Field>
OPLS_2005

> <r_lp_Energy>
38.301

> <b_lp_Chiralities_Consistent>
1

> <s_lp_Variant>
AV-unprocessed.smi:100-15

> <Gold.Version>
5.8.1

> <Gold.Id.Protein>
6NUR|6NUR_protein|mol2

> <Gold.PLP.Fitness>
39.7610

> <Gold.PLP.PLP>
-28.1845

> <Gold.PLP.part.hbond>
-4.8182

> <Gold.PLP.part.metal>
0.0000

> <Gold.PLP.part.buried>
-3.5746

> <Gold.PLP.part.nonpolar>
-19.5361

> <Gold.PLP.part.repulsive>
0.4220

> <Gold.PLP.ligand.clash>
0.0000

> <Gold.PLP.ligand.torsion>
0.3904

> <Gold.PLP.Chemscore.Hbond>
3.0400

> <Gold.PLP.Chemscore.CHOScore>
1.0786

> <Gold.PLP.Chemscore.Metal>
0.0000

> <Gold.Chemscore.Hbonds>
donor molecule, donor type, donor heavy atom, donor atom, acceptor molecule, acceptor atom, score
      L1  H    15    28       P1  7957  1.00
      L1  H    19    31       P1  7957  0.99
      P1  H  7989  7998       L1    19  0.19
      P1  H 10752 10765       L1     3  0.85
      L1  C     4    22       P1  7948  0.10
      L1  C     4    22       P1  7949  0.98

> <Gold.PLP.Chemscore.Internal.Correction>
0.0014

> <Gold.Rescore>
     Score         DG    S(hbond)    S(metal)    S(lipo)     H(rot)  DE(clash)    DE(int)     intcor
      8.52     -10.60       2.85        0.00      32.29       3.19       0.56       1.52       ----

> <Gold.Chemscore.Fitness>
8.5158

> <Gold.Chemscore.DG>
-10.5982

> <Gold.Chemscore.ZeroCoef>
-5.4800

> <Gold.Chemscore.Hbond>
2.8464

> <Gold.Chemscore.Metal>
0.0000

> <Gold.Chemscore.Lipo>
32.2897

> <Gold.Chemscore.Internal_Hbond>
0.0000

> <Gold.Chemscore.DEClash>
0.5596

> <Gold.Chemscore.DEInternal>
1.5228

> <Gold.Chemscore.Rot>
3.1901

> <Gold.Chemscore.Internal.Correction>
   9.000000E+99

> <Gold.Chemscore.Hbonds>
donor molecule, donor type, donor heavy atom, donor atom, acceptor molecule, acceptor atom, score
      L1  H    15    28       P1  7957  0.85
      L1  H    19    31       P1  7957  0.94
      P1  H  7989  7998       L1    19  0.08
      P1  H 10752 10765       L1     3  0.66

> <Gold.Chemscore.Hbond.Weighted>
-9.5070

> <Gold.Chemscore.Metal.Weighted>
-0.0000

> <Gold.Chemscore.Lipo.Weighted>
-3.7779

> <Gold.Chemscore.Internal_Hbond.Weighted>
0.0000

> <Gold.Chemscore.DEClash.Weighted>
0.5596

> <Gold.Chemscore.DEInternal.Weighted>
1.5228

> <Gold.Chemscore.Rot.Weighted>
8.1667

> <Gold.Chemscore.Internal.Correction.Weighted>
   9.000000E+99

> <Gold.Protein.RotatedTorsions>
[ 6907 6896 6895 6894 ] final  130.61 input  -60.11 | X-H torsion
[ 7974 7965 7964 7962 ] final -103.18 input  175.53 | X-H torsion
[ 8008 7997 7996 7995 ] final   30.48 input   59.86 | X-H torsion
[ 10167 10162 10161 10158 ] final  154.12 input  -65.29 | X-H torsion
[ 10718 10713 10712 10709 ] final   82.34 input   66.30 | X-H torsion
[ 10763 10752 10751 10750 ] final -179.20 input  -60.55 | X-H torsion
[ 11005 11000 10999 10996 ] final    0.22 input  -57.11 | X-H torsion

> <Gold.Protein.ActiveResidues>
 VAL166  LYS551  ARG553  GLY616  TRP617  ASP618  TYR619  PRO620  LYS621  CYS622 
 ASP623  PHE694  ASN695  SER759  ASP760  ASP761  ALA762  ILE779  LEU786  VAL792 
 PHE793  MET794  SER795  GLU796  ALA797  LYS798  CYS799  TRP800  GLU811  SER814 

> <Gold.Protein.RotatedAtoms>
  152.3509  133.6178  159.5943 H   0  0  0  0  0  0  0  0  0  0  0  0  # atno 6907 bound_to 6896
  150.7537  133.9576  159.3514 H   0  0  0  0  0  0  0  0  0  0  0  0  # atno 6908 bound_to 6896
  151.7428  135.0851  160.0369 H   0  0  0  0  0  0  0  0  0  0  0  0  # atno 6909 bound_to 6896
  145.2592  140.9263  143.3051 H   0  0  0  0  0  0  0  0  0  0  0  0  # atno 7974 bound_to 7965
  155.0911  140.3220  155.4573 H   0  0  0  0  0  0  0  0  0  0  0  0  # atno 8008 bound_to 7997
  156.2742  140.2077  156.5985 H   0  0  0  0  0  0  0  0  0  0  0  0  # atno 8009 bound_to 7997
  154.6902  140.0517  157.0343 H   0  0  0  0  0  0  0  0  0  0  0  0  # atno 8010 bound_to 7997
  139.4824  144.5215  151.7869 H   0  0  0  0  0  0  0  0  0  0  0  0  # atno 10167 bound_to 10162
  157.6855  131.0043  150.2360 H   0  0  0  0  0  0  0  0  0  0  0  0  # atno 10718 bound_to 10713
  154.5381  135.2804  155.1120 H   0  0  0  0  0  0  0  0  0  0  0  0  # atno 10763 bound_to 10752
  154.2614  135.6321  153.5280 H   0  0  0  0  0  0  0  0  0  0  0  0  # atno 10764 bound_to 10752
  152.9972  135.5606  154.5912 H   0  0  0  0  0  0  0  0  0  0  0  0  # atno 10765 bound_to 10752
  140.6289  133.9593  155.8264 H   0  0  0  0  0  0  0  0  0  0  0  0  # atno 11005 bound_to 11000
  144.9434  139.4163  143.6438 LP  0  0  0  0  0  0  0  0  0  0  0  0  # atno 17320 bound_to 7965
  146.3280  139.8405  142.8891 LP  0  0  0  0  0  0  0  0  0  0  0  0  # atno 17321 bound_to 7965
  140.4729  144.1561  150.5920 LP  0  0  0  0  0  0  0  0  0  0  0  0  # atno 17342 bound_to 10162
  140.4362  143.2546  151.9532 LP  0  0  0  0  0  0  0  0  0  0  0  0  # atno 17343 bound_to 10162
  156.2983  130.3755  149.7774 LP  0  0  0  0  0  0  0  0  0  0  0  0  # atno 17370 bound_to 10713
  156.5412  130.8301  151.3269 LP  0  0  0  0  0  0  0  0  0  0  0  0  # atno 17371 bound_to 10713
  141.0689  134.0235  157.3554 LP  0  0  0  0  0  0  0  0  0  0  0  0  # atno 17394 bound_to 11000
  139.9124  135.0192  156.7744 LP  0  0  0  0  0  0  0  0  0  0  0  0  # atno 17395 bound_to 11000

$$$$
