AV-unprocessed.smi:3241|AV-procd|sdf|12386|dock4
  -GOLD-   2272018253D 1   1.00000     0.00000
 Structure written by MMmdl.
 44 45  0  0  0  0  0  0  0  0  2 V2000
  151.3959  144.9602  159.3612 C   0  0  0  0  0  0  0  0  0  0  0  0
  152.3885  143.8545  159.7521 C   0  0  1  0  0  0  0  0  0  0  0  0
  152.0959  143.3008  161.1608 C   0  0  0  0  0  0  0  0  0  0  0  0
  153.1265  142.2387  161.5737 C   0  0  0  0  0  0  0  0  0  0  0  0
  153.1987  141.1010  160.5443 C   0  0  0  0  0  0  0  0  0  0  0  0
  153.4789  141.6408  159.1313 C   0  0  0  0  0  0  0  0  0  0  0  0
  152.4561  142.7126  158.7097 C   0  0  1  0  0  0  0  0  0  0  0  0
  151.1840  142.0846  158.6033 O   0  0  0  0  0  0  0  0  0  0  0  0
  151.0679  141.1514  157.5403 C   0  0  0  0  0  0  0  0  0  0  0  0
  149.7034  141.3641  156.8789 C   0  0  0  0  0  0  0  0  0  0  0  0
  149.8748  141.9796  155.5494 N   0  3  0  0  0  0  0  0  0  0  0  0
  148.9972  141.4335  154.4963 C   0  0  0  0  0  0  0  0  0  0  0  0
  149.1144  139.9029  154.4113 C   0  0  0  0  0  0  0  0  0  0  0  0
  150.4844  139.4696  154.1968 N   0  0  0  0  0  0  0  0  0  0  0  0
  150.9328  138.3070  153.6063 C   0  0  0  0  0  0  0  0  0  0  0  0
  152.2977  138.3471  153.6159 C   0  0  0  0  0  0  0  0  0  0  0  0
  152.5960  139.5892  154.2424 C   0  0  0  0  0  0  0  0  0  0  0  0
  151.5086  140.2599  154.5876 N   0  0  0  0  0  0  0  0  0  0  0  0
  150.3702  144.5923  159.3494 H   0  0  0  0  0  0  0  0  0  0  0  0
  151.6215  145.3600  158.3723 H   0  0  0  0  0  0  0  0  0  0  0  0
  151.4378  145.7894  160.0680 H   0  0  0  0  0  0  0  0  0  0  0  0
  153.3756  144.3186  159.7845 H   0  0  0  0  0  0  0  0  0  0  0  0
  152.0981  144.1126  161.8891 H   0  0  0  0  0  0  0  0  0  0  0  0
  151.0959  142.8662  161.1878 H   0  0  0  0  0  0  0  0  0  0  0  0
  154.1084  142.7027  161.6744 H   0  0  0  0  0  0  0  0  0  0  0  0
  152.8731  141.8367  162.5551 H   0  0  0  0  0  0  0  0  0  0  0  0
  153.9752  140.3912  160.8306 H   0  0  0  0  0  0  0  0  0  0  0  0
  152.2596  140.5463  160.5465 H   0  0  0  0  0  0  0  0  0  0  0  0
  154.4812  142.0697  159.1039 H   0  0  0  0  0  0  0  0  0  0  0  0
  153.4786  140.8206  158.4129 H   0  0  0  0  0  0  0  0  0  0  0  0
  152.7720  143.1187  157.7465 H   0  0  0  0  0  0  0  0  0  0  0  0
  151.8645  141.2822  156.8063 H   0  0  0  0  0  0  0  0  0  0  0  0
  151.1481  140.1386  157.9371 H   0  0  0  0  0  0  0  0  0  0  0  0
  149.1858  140.4107  156.7658 H   0  0  0  0  0  0  0  0  0  0  0  0
  149.0798  142.0002  157.5083 H   0  0  0  0  0  0  0  0  0  0  0  0
  149.6733  142.9662  155.6365 H   0  0  0  0  0  0  0  0  0  0  0  0
  147.9663  141.7152  154.7132 H   0  0  0  0  0  0  0  0  0  0  0  0
  149.2567  141.8793  153.5350 H   0  0  0  0  0  0  0  0  0  0  0  0
  148.7291  139.4348  155.3187 H   0  0  0  0  0  0  0  0  0  0  0  0
  148.5063  139.5304  153.5862 H   0  0  0  0  0  0  0  0  0  0  0  0
  150.2517  137.5576  153.2302 H   0  0  0  0  0  0  0  0  0  0  0  0
  152.9795  137.6021  153.2334 H   0  0  0  0  0  0  0  0  0  0  0  0
  153.5634  140.0221  154.4516 H   0  0  0  0  0  0  0  0  0  0  0  0
  150.8371  141.8765  155.2608 H   0  0  0  0  0  0  0  0  0  0  0  0
  1  2  1  0  0  0  0
  1 19  1  0  0  0  0
  1 20  1  0  0  0  0
  1 21  1  0  0  0  0
  2  7  1  0  0  0  0
  2  3  1  0  0  0  0
  2 22  1  0  0  0  0
  3  4  1  0  0  0  0
  3 23  1  0  0  0  0
  3 24  1  0  0  0  0
  4  5  1  0  0  0  0
  4 25  1  0  0  0  0
  4 26  1  0  0  0  0
  5  6  1  0  0  0  0
  5 27  1  0  0  0  0
  5 28  1  0  0  0  0
  6  7  1  0  0  0  0
  6 29  1  0  0  0  0
  6 30  1  0  0  0  0
  7  8  1  0  0  0  0
  7 31  1  0  0  0  0
  8  9  1  0  0  0  0
  9 10  1  0  0  0  0
  9 32  1  0  0  0  0
  9 33  1  0  0  0  0
 10 11  1  0  0  0  0
 10 34  1  0  0  0  0
 10 35  1  0  0  0  0
 11 12  1  0  0  0  0
 11 36  1  0  0  0  0
 11 44  1  0  0  0  0
 12 13  1  0  0  0  0
 12 37  1  0  0  0  0
 12 38  1  0  0  0  0
 13 14  1  0  0  0  0
 13 39  1  0  0  0  0
 13 40  1  0  0  0  0
 14 18  1  0  0  0  0
 14 15  1  0  0  0  0
 15 16  2  0  0  0  0
 15 41  1  0  0  0  0
 16 17  1  0  0  0  0
 16 42  1  0  0  0  0
 17 18  2  0  0  0  0
 17 43  1  0  0  0  0
M  CHG  1  11   1
M  END
> <s_m_source_file>
AV-unprocessed.smi

> <i_m_source_file_index>
3241

> <i_lp_mmshare_version>
43012

> <i_f3d_flags>
0

> <s_epik_input>
W0NIM11bQ0BASF0xW0NIMl1bQ0gyXVtDSDJdW0NIMl1bQ0BIXTFPW0NIMl1bQ0gyXVtOSF1bQ0gyXVtDSDJdbjJbY0hdW2NIXVtjSF1uMg==

> <s_epik_cmdline>
J2VwaWtfcHl0aG9uJywgJy1waCcsICc3LjAnLCAnLXRuJywgJzgnLCAnLW1hJywgJzIwMCcsICctbWV0YWxfYmluZGluZycsICctaW1hZScsICc8aW5maWxlLm1hZT4nLCAnLW9tYWUnLCAnPG91dGZpbGUubWFlPic=

> <r_lp_tautomer_probability>
1

> <r_epik_Ionization_Penalty>
0.00924946

> <r_epik_Ionization_Penalty_Charging>
0.00924645

> <r_epik_Ionization_Penalty_Neutral>
3.00629e-06

> <r_epik_State_Penalty>
0.0070118

> <r_epik_Charging_Adjusted_Penalty>
0.0162583

> <i_epik_Tot_Q>
1

> <i_epik_Tot_abs_Q>
1

> <r_epik_Metal_State_Penalty>
0.00702523

> <b_epik_Metal_Only>
0

> <s_lp_Force_Field>
OPLS_2005

> <r_lp_Energy>
14.1188

> <b_lp_Chiralities_Consistent>
1

> <s_lp_Variant>
AV-unprocessed.smi:3241-2

> <Gold.Version>
5.8.1

> <Gold.Id.Protein>
6NUR|6NUR_protein|mol2

> <Gold.PLP.Fitness>
57.8148

> <Gold.PLP.PLP>
-48.3962

> <Gold.PLP.part.hbond>
-2.0000

> <Gold.PLP.part.metal>
0.0000

> <Gold.PLP.part.buried>
-4.1877

> <Gold.PLP.part.nonpolar>
-42.6614

> <Gold.PLP.part.repulsive>
0.2459

> <Gold.PLP.ligand.clash>
0.0000

> <Gold.PLP.ligand.torsion>
1.3367

> <Gold.PLP.Chemscore.Hbond>
2.9500

> <Gold.PLP.Chemscore.CHOScore>
1.0000

> <Gold.PLP.Chemscore.Metal>
0.0000

> <Gold.Chemscore.Hbonds>
donor molecule, donor type, donor heavy atom, donor atom, acceptor molecule, acceptor atom, score
      L1  H    11    36       P1  8028  2.00
      P1  H  7989  7998       L1    18  0.07
      L1  C    15    41       P1  7948  0.81
      L1  C    15    41       P1  7949  0.16

> <Gold.PLP.Chemscore.Internal.Correction>
0.2418

> <Gold.Rescore>
     Score         DG    S(hbond)    S(metal)    S(lipo)     H(rot)  DE(clash)    DE(int)     intcor
     16.61     -18.96       0.99        0.00     128.50       1.89       0.06       2.29       ----

> <Gold.Chemscore.Fitness>
16.6080

> <Gold.Chemscore.DG>
-18.9640

> <Gold.Chemscore.ZeroCoef>
-5.4800

> <Gold.Chemscore.Hbond>
0.9850

> <Gold.Chemscore.Metal>
0.0000

> <Gold.Chemscore.Lipo>
128.4959

> <Gold.Chemscore.Internal_Hbond>
0.0000

> <Gold.Chemscore.DEClash>
0.0626

> <Gold.Chemscore.DEInternal>
2.2934

> <Gold.Chemscore.Rot>
1.8906

> <Gold.Chemscore.Internal.Correction>
   9.000000E+99

> <Gold.Chemscore.Hbonds>
donor molecule, donor type, donor heavy atom, donor atom, acceptor molecule, acceptor atom, score
      L1  H    11    36       P1  8028  1.00

> <Gold.Chemscore.Hbond.Weighted>
-3.2901

> <Gold.Chemscore.Metal.Weighted>
-0.0000

> <Gold.Chemscore.Lipo.Weighted>
-15.0340

> <Gold.Chemscore.Internal_Hbond.Weighted>
0.0000

> <Gold.Chemscore.DEClash.Weighted>
0.0626

> <Gold.Chemscore.DEInternal.Weighted>
2.2934

> <Gold.Chemscore.Rot.Weighted>
4.8400

> <Gold.Chemscore.Internal.Correction.Weighted>
   9.000000E+99

> <Gold.Protein.RotatedTorsions>
[ 6907 6896 6895 6894 ] final    9.64 input  -60.11 | X-H torsion
[ 7974 7965 7964 7962 ] final -153.74 input  175.53 | X-H torsion
[ 8008 7997 7996 7995 ] final  -23.94 input   59.86 | X-H torsion
[ 10167 10162 10161 10158 ] final  -47.04 input  -65.29 | X-H torsion
[ 10718 10713 10712 10709 ] final  144.11 input   66.30 | X-H torsion
[ 10763 10752 10751 10750 ] final -128.61 input  -60.55 | X-H torsion
[ 11005 11000 10999 10996 ] final -128.44 input  -57.11 | X-H torsion

> <Gold.Protein.ActiveResidues>
 VAL166  LYS551  ARG553  GLY616  TRP617  ASP618  TYR619  PRO620  LYS621  CYS622 
 ASP623  PHE694  ASN695  SER759  ASP760  ASP761  ALA762  ILE779  LEU786  VAL792 
 PHE793  MET794  SER795  GLU796  ALA797  LYS798  CYS799  TRP800  GLU811  SER814 

> <Gold.Protein.RotatedAtoms>
  151.7254  135.0886  160.0290 H   0  0  0  0  0  0  0  0  0  0  0  0  # atno 6907 bound_to 6896
  152.3575  133.6251  159.5999 H   0  0  0  0  0  0  0  0  0  0  0  0  # atno 6908 bound_to 6896
  150.7581  133.9392  159.3492 H   0  0  0  0  0  0  0  0  0  0  0  0  # atno 6909 bound_to 6896
  144.7725  140.4484  143.5897 H   0  0  0  0  0  0  0  0  0  0  0  0  # atno 7974 bound_to 7965
  154.4557  140.1967  156.0388 H   0  0  0  0  0  0  0  0  0  0  0  0  # atno 8008 bound_to 7997
  156.0740  140.3280  155.7583 H   0  0  0  0  0  0  0  0  0  0  0  0  # atno 8009 bound_to 7997
  155.5217  140.0570  157.2896 H   0  0  0  0  0  0  0  0  0  0  0  0  # atno 8010 bound_to 7997
  140.6792  143.2802  151.3870 H   0  0  0  0  0  0  0  0  0  0  0  0  # atno 10167 bound_to 10162
  157.3611  131.0965  151.0914 H   0  0  0  0  0  0  0  0  0  0  0  0  # atno 10718 bound_to 10713
  154.8756  135.3922  154.3785 H   0  0  0  0  0  0  0  0  0  0  0  0  # atno 10763 bound_to 10752
  153.4536  135.7028  153.6099 H   0  0  0  0  0  0  0  0  0  0  0  0  # atno 10764 bound_to 10752
  153.4628  135.3808  155.2316 H   0  0  0  0  0  0  0  0  0  0  0  0  # atno 10765 bound_to 10752
  140.9516  134.1058  157.4057 H   0  0  0  0  0  0  0  0  0  0  0  0  # atno 11005 bound_to 11000
  145.6282  139.1533  143.2984 LP  0  0  0  0  0  0  0  0  0  0  0  0  # atno 17320 bound_to 7965
  146.1881  140.6388  142.9158 LP  0  0  0  0  0  0  0  0  0  0  0  0  # atno 17321 bound_to 7965
  139.6103  144.1112  152.2292 LP  0  0  0  0  0  0  0  0  0  0  0  0  # atno 17342 bound_to 10162
  140.0524  144.5922  150.7326 LP  0  0  0  0  0  0  0  0  0  0  0  0  # atno 17343 bound_to 10162
  157.2054  130.6413  149.5754 LP  0  0  0  0  0  0  0  0  0  0  0  0  # atno 17370 bound_to 10713
  155.9737  130.4677  150.6335 LP  0  0  0  0  0  0  0  0  0  0  0  0  # atno 17371 bound_to 10713
  139.8849  135.0067  156.6400 LP  0  0  0  0  0  0  0  0  0  0  0  0  # atno 17394 bound_to 11000
  140.7595  133.8830  155.8407 LP  0  0  0  0  0  0  0  0  0  0  0  0  # atno 17395 bound_to 11000

$$$$
