AV-unprocessed.smi:3161|AV-procd|sdf|12057|dock9
  -GOLD-   2272017483D 1   1.00000     0.00000
 Structure written by MMmdl.
 41 42  0  0  0  0  0  0  0  0  2 V2000
  150.6017  136.3320  154.9964 C   0  0  0  0  0  0  0  0  0  0  0  0
  150.5433  137.8225  154.8230 C   0  0  0  0  0  0  0  0  0  0  0  0
  151.5978  138.7637  154.9953 C   0  0  0  0  0  0  0  0  0  0  0  0
  151.2154  140.0103  154.7721 N   0  0  0  0  0  0  0  0  0  0  0  0
  149.9086  139.9095  154.4472 N   0  0  0  0  0  0  0  0  0  0  0  0
  149.1432  141.1088  154.1522 C   0  0  0  0  0  0  0  0  0  0  0  0
  148.0688  141.3871  155.2210 C   0  0  2  0  0  0  0  0  0  0  0  0
  146.9318  142.2508  154.6526 C   0  0  0  0  0  0  0  0  0  0  0  0
  148.6829  142.0366  156.4008 N   0  3  0  0  0  0  0  0  0  0  0  0
  149.9468  141.4337  156.8697 C   0  0  0  0  0  0  0  0  0  0  0  0
  150.6071  142.3214  157.9334 C   0  0  1  0  0  0  0  0  0  0  0  0
  151.6417  141.5450  158.7706 C   0  0  0  0  0  0  0  0  0  0  0  0
  152.3583  142.4829  159.7490 C   0  0  0  0  0  0  0  0  0  0  0  0
  152.9352  143.6819  158.9887 C   0  0  0  0  0  0  0  0  0  0  0  0
  151.8432  144.3498  158.1387 C   0  0  0  0  0  0  0  0  0  0  0  0
  151.2652  143.3917  157.2575 O   0  0  0  0  0  0  0  0  0  0  0  0
  149.4771  138.6002  154.4688 C   0  0  0  0  0  0  0  0  0  0  0  0
  151.6041  135.9428  154.8169 H   0  0  0  0  0  0  0  0  0  0  0  0
  149.9305  135.8176  154.3083 H   0  0  0  0  0  0  0  0  0  0  0  0
  150.3173  136.0348  156.0058 H   0  0  0  0  0  0  0  0  0  0  0  0
  152.6237  138.5784  155.2779 H   0  0  0  0  0  0  0  0  0  0  0  0
  149.8265  141.9548  154.0587 H   0  0  0  0  0  0  0  0  0  0  0  0
  148.6764  140.9766  153.1751 H   0  0  0  0  0  0  0  0  0  0  0  0
  147.6529  140.4263  155.5292 H   0  0  0  0  0  0  0  0  0  0  0  0
  146.4799  141.7770  153.7808 H   0  0  0  0  0  0  0  0  0  0  0  0
  147.2952  143.2319  154.3449 H   0  0  0  0  0  0  0  0  0  0  0  0
  146.1383  142.4036  155.3841 H   0  0  0  0  0  0  0  0  0  0  0  0
  148.8953  142.9889  156.1360 H   0  0  0  0  0  0  0  0  0  0  0  0
  149.7402  140.4459  157.2820 H   0  0  0  0  0  0  0  0  0  0  0  0
  150.6279  141.2977  156.0286 H   0  0  0  0  0  0  0  0  0  0  0  0
  149.8363  142.7256  158.5926 H   0  0  0  0  0  0  0  0  0  0  0  0
  151.1566  140.7368  159.3189 H   0  0  0  0  0  0  0  0  0  0  0  0
  152.3750  141.0790  158.1109 H   0  0  0  0  0  0  0  0  0  0  0  0
  151.6547  142.8314  160.5060 H   0  0  0  0  0  0  0  0  0  0  0  0
  153.1496  141.9503  160.2773 H   0  0  0  0  0  0  0  0  0  0  0  0
  153.3651  144.4010  159.6867 H   0  0  0  0  0  0  0  0  0  0  0  0
  153.7472  143.3498  158.3407 H   0  0  0  0  0  0  0  0  0  0  0  0
  151.0716  144.7914  158.7712 H   0  0  0  0  0  0  0  0  0  0  0  0
  152.2710  145.1596  157.5474 H   0  0  0  0  0  0  0  0  0  0  0  0
  148.4564  138.3327  154.2379 H   0  0  0  0  0  0  0  0  0  0  0  0
  148.0138  142.0606  157.1571 H   0  0  0  0  0  0  0  0  0  0  0  0
  1  2  1  0  0  0  0
  1 18  1  0  0  0  0
  1 19  1  0  0  0  0
  1 20  1  0  0  0  0
  2 17  2  0  0  0  0
  2  3  1  0  0  0  0
  3  4  2  0  0  0  0
  3 21  1  0  0  0  0
  4  5  1  0  0  0  0
  5  6  1  0  0  0  0
  5 17  1  0  0  0  0
  6  7  1  0  0  0  0
  6 22  1  0  0  0  0
  6 23  1  0  0  0  0
  7  8  1  0  0  0  0
  7  9  1  0  0  0  0
  7 24  1  0  0  0  0
  8 25  1  0  0  0  0
  8 26  1  0  0  0  0
  8 27  1  0  0  0  0
  9 10  1  0  0  0  0
  9 28  1  0  0  0  0
  9 41  1  0  0  0  0
 10 11  1  0  0  0  0
 10 29  1  0  0  0  0
 10 30  1  0  0  0  0
 11 16  1  0  0  0  0
 11 12  1  0  0  0  0
 11 31  1  0  0  0  0
 12 13  1  0  0  0  0
 12 32  1  0  0  0  0
 12 33  1  0  0  0  0
 13 14  1  0  0  0  0
 13 34  1  0  0  0  0
 13 35  1  0  0  0  0
 14 15  1  0  0  0  0
 14 36  1  0  0  0  0
 14 37  1  0  0  0  0
 15 16  1  0  0  0  0
 15 38  1  0  0  0  0
 15 39  1  0  0  0  0
 17 40  1  0  0  0  0
M  CHG  1   9   1
M  END
> <s_m_source_file>
AV-unprocessed.smi

> <i_m_source_file_index>
3161

> <i_lp_mmshare_version>
43012

> <i_f3d_flags>
0

> <s_epik_input>
W0NIM11jMVtjSF1ubihbY0hdMSlbQ0gyXVtDQEhdKFtDSDNdKVtOSF1bQ0gyXVtDQEBIXTJbQ0gyXVtDSDJdW0NIMl1bQ0gyXU8y

> <s_epik_cmdline>
J2VwaWtfcHl0aG9uJywgJy1waCcsICc3LjAnLCAnLXRuJywgJzgnLCAnLW1hJywgJzIwMCcsICctbWV0YWxfYmluZGluZycsICctaW1hZScsICc8aW5maWxlLm1hZT4nLCAnLW9tYWUnLCAnPG91dGZpbGUubWFlPic=

> <r_lp_tautomer_probability>
1

> <r_epik_Ionization_Penalty>
0.00849661

> <r_epik_Ionization_Penalty_Charging>
0.00848754

> <r_epik_Ionization_Penalty_Neutral>
9.06711e-06

> <r_epik_State_Penalty>
0.00639836

> <r_epik_Charging_Adjusted_Penalty>
0.0148859

> <i_epik_Tot_Q>
1

> <i_epik_Tot_abs_Q>
1

> <r_epik_Metal_State_Penalty>
0.00639921

> <b_epik_Metal_Only>
0

> <s_lp_Force_Field>
OPLS_2005

> <r_lp_Energy>
12.1076

> <b_lp_Chiralities_Consistent>
1

> <s_lp_Variant>
AV-unprocessed.smi:3161-3

> <Gold.Version>
5.8.1

> <Gold.Id.Protein>
6NUR|6NUR_protein|mol2

> <Gold.PLP.Fitness>
48.4831

> <Gold.PLP.PLP>
-40.5656

> <Gold.PLP.part.hbond>
-1.9811

> <Gold.PLP.part.metal>
0.0000

> <Gold.PLP.part.buried>
-2.6038

> <Gold.PLP.part.nonpolar>
-35.9976

> <Gold.PLP.part.repulsive>
0.4022

> <Gold.PLP.ligand.clash>
0.0000

> <Gold.PLP.ligand.torsion>
0.5499

> <Gold.PLP.Chemscore.Hbond>
3.0000

> <Gold.PLP.Chemscore.CHOScore>
0.0000

> <Gold.PLP.Chemscore.Metal>
0.0000

> <Gold.Chemscore.Hbonds>
donor molecule, donor type, donor heavy atom, donor atom, acceptor molecule, acceptor atom, score
      L1  H     9    28       P1  8028  2.00
      P1  H  7989  7998       L1     4  0.80

> <Gold.PLP.Chemscore.Internal.Correction>
0.0174

> <Gold.Rescore>
     Score         DG    S(hbond)    S(metal)    S(lipo)     H(rot)  DE(clash)    DE(int)     intcor
     17.39     -19.25       1.95        0.00      96.31       1.57       0.04       1.81       ----

> <Gold.Chemscore.Fitness>
17.3941

> <Gold.Chemscore.DG>
-19.2491

> <Gold.Chemscore.ZeroCoef>
-5.4800

> <Gold.Chemscore.Hbond>
1.9531

> <Gold.Chemscore.Metal>
0.0000

> <Gold.Chemscore.Lipo>
96.3119

> <Gold.Chemscore.Internal_Hbond>
0.0000

> <Gold.Chemscore.DEClash>
0.0402

> <Gold.Chemscore.DEInternal>
1.8149

> <Gold.Chemscore.Rot>
1.5714

> <Gold.Chemscore.Internal.Correction>
   9.000000E+99

> <Gold.Chemscore.Hbonds>
donor molecule, donor type, donor heavy atom, donor atom, acceptor molecule, acceptor atom, score
      L1  H     9    28       P1  8028  1.00
      P1  H  7989  7998       L1     4  0.12

> <Gold.Chemscore.Hbond.Weighted>
-6.5235

> <Gold.Chemscore.Metal.Weighted>
-0.0000

> <Gold.Chemscore.Lipo.Weighted>
-11.2685

> <Gold.Chemscore.Internal_Hbond.Weighted>
0.0000

> <Gold.Chemscore.DEClash.Weighted>
0.0402

> <Gold.Chemscore.DEInternal.Weighted>
1.8149

> <Gold.Chemscore.Rot.Weighted>
4.0228

> <Gold.Chemscore.Internal.Correction.Weighted>
   9.000000E+99

> <Gold.Protein.RotatedTorsions>
[ 6907 6896 6895 6894 ] final  -35.58 input  -60.11 | X-H torsion
[ 7974 7965 7964 7962 ] final -175.19 input  175.53 | X-H torsion
[ 8008 7997 7996 7995 ] final  132.09 input   59.86 | X-H torsion
[ 10167 10162 10161 10158 ] final  -77.11 input  -65.29 | X-H torsion
[ 10718 10713 10712 10709 ] final  -46.38 input   66.30 | X-H torsion
[ 10763 10752 10751 10750 ] final  158.52 input  -60.55 | X-H torsion
[ 11005 11000 10999 10996 ] final -144.88 input  -57.11 | X-H torsion

> <Gold.Protein.ActiveResidues>
 VAL166  LYS551  ARG553  GLY616  TRP617  ASP618  TYR619  PRO620  LYS621  CYS622 
 ASP623  PHE694  ASN695  SER759  ASP760  ASP761  ALA762  ILE779  LEU786  VAL792 
 PHE793  MET794  SER795  GLU796  ALA797  LYS798  CYS799  TRP800  GLU811  SER814 

> <Gold.Protein.RotatedAtoms>
  151.0380  134.9586  159.8146 H   0  0  0  0  0  0  0  0  0  0  0  0  # atno 6907 bound_to 6896
  152.5358  134.2695  159.8976 H   0  0  0  0  0  0  0  0  0  0  0  0  # atno 6908 bound_to 6896
  151.2706  133.4214  159.2655 H   0  0  0  0  0  0  0  0  0  0  0  0  # atno 6909 bound_to 6896
  144.7129  140.1358  143.6395 H   0  0  0  0  0  0  0  0  0  0  0  0  # atno 7974 bound_to 7965
  156.2978  140.2555  156.3033 H   0  0  0  0  0  0  0  0  0  0  0  0  # atno 8008 bound_to 7997
  154.9397  140.0396  157.2109 H   0  0  0  0  0  0  0  0  0  0  0  0  # atno 8009 bound_to 7997
  154.8138  140.2849  155.5838 H   0  0  0  0  0  0  0  0  0  0  0  0  # atno 8010 bound_to 7997
  140.4799  143.2405  151.8074 H   0  0  0  0  0  0  0  0  0  0  0  0  # atno 10167 bound_to 10162
  156.2189  130.4165  149.9018 H   0  0  0  0  0  0  0  0  0  0  0  0  # atno 10718 bound_to 10713
  154.2173  135.2783  155.2937 H   0  0  0  0  0  0  0  0  0  0  0  0  # atno 10763 bound_to 10752
  154.5730  135.5612  153.7116 H   0  0  0  0  0  0  0  0  0  0  0  0  # atno 10764 bound_to 10752
  153.0050  135.6326  154.2313 H   0  0  0  0  0  0  0  0  0  0  0  0  # atno 10765 bound_to 10752
  140.7980  134.2891  157.4989 H   0  0  0  0  0  0  0  0  0  0  0  0  # atno 11005 bound_to 11000
  145.9246  139.2567  143.1361 LP  0  0  0  0  0  0  0  0  0  0  0  0  # atno 17320 bound_to 7965
  145.9585  140.8854  143.0223 LP  0  0  0  0  0  0  0  0  0  0  0  0  # atno 17321 bound_to 7965
  139.4832  144.4786  151.9336 LP  0  0  0  0  0  0  0  0  0  0  0  0  # atno 17342 bound_to 10162
  140.3871  144.2662  150.5903 LP  0  0  0  0  0  0  0  0  0  0  0  0  # atno 17343 bound_to 10162
  156.6671  130.8805  151.3556 LP  0  0  0  0  0  0  0  0  0  0  0  0  # atno 17370 bound_to 10713
  157.7077  130.9404  150.0986 LP  0  0  0  0  0  0  0  0  0  0  0  0  # atno 17371 bound_to 10713
  139.8724  134.9413  156.3793 LP  0  0  0  0  0  0  0  0  0  0  0  0  # atno 17394 bound_to 11000
  140.9323  133.7570  156.0041 LP  0  0  0  0  0  0  0  0  0  0  0  0  # atno 17395 bound_to 11000

$$$$
