AV-unprocessed.smi:24|AV-procd|sdf|177|dock10
  -GOLD-   2262015433D 1   1.00000     0.00000
 Structure written by MMmdl.
 61 65  0  0  0  0  0  0  0  0  1 V2000
  153.2895  129.5989  155.1744 C   0  0  0  0  0  0  0  0  0  0  0  0
  152.8927  130.4546  156.2359 O   0  0  0  0  0  0  0  0  0  0  0  0
  151.7297  131.1792  156.0849 C   0  0  0  0  0  0  0  0  0  0  0  0
  150.7247  130.6160  155.2730 C   0  0  0  0  0  0  0  0  0  0  0  0
  149.5049  131.2866  155.0645 C   0  0  0  0  0  0  0  0  0  0  0  0
  149.2718  132.5442  155.6628 C   0  0  0  0  0  0  0  0  0  0  0  0
  147.9540  133.2914  155.4608 C   0  0  2  0  0  0  0  0  0  0  0  0
  146.9650  132.4899  154.6099 C   0  0  0  0  0  0  0  0  0  0  0  0
  146.7000  133.4341  153.4857 C   0  0  0  0  0  0  0  0  0  0  0  0
  145.7947  133.0812  152.3698 C   0  0  0  0  0  0  0  0  0  0  0  0
  145.4451  131.7274  152.1607 C   0  0  0  0  0  0  0  0  0  0  0  0
  144.5877  131.3901  151.0952 C   0  0  0  0  0  0  0  0  0  0  0  0
  144.0847  132.3955  150.2460 C   0  0  0  0  0  0  0  0  0  0  0  0
  144.4362  133.7434  150.4584 C   0  0  0  0  0  0  0  0  0  0  0  0
  145.2922  134.0934  151.5211 C   0  0  0  0  0  0  0  0  0  0  0  0
  147.3248  134.5483  153.5874 N   0  0  0  0  0  0  0  0  0  0  0  0
  148.0656  134.5576  154.7238 N   0  0  0  0  0  0  0  0  0  0  0  0
  148.7328  135.6479  155.1631 C   0  0  0  0  0  0  0  0  0  0  0  0
  149.2913  135.6709  156.2614 O   0  0  0  0  0  0  0  0  0  0  0  0
  148.7784  136.8917  154.2505 C   0  0  0  0  0  0  0  0  0  0  0  0
  149.6827  137.9535  154.7445 N   0  0  0  0  0  0  0  0  0  0  0  0
  151.0400  137.6260  154.9822 C   0  0  0  0  0  0  0  0  0  0  0  0
  151.4643  136.4840  154.7979 O   0  0  0  0  0  0  0  0  0  0  0  0
  151.8775  138.7233  155.4494 C   0  0  0  0  0  0  0  0  0  0  0  0
  153.1909  138.5200  155.6484 F   0  0  0  0  0  0  0  0  0  0  0  0
  151.3592  139.9489  155.6681 C   0  0  0  0  0  0  0  0  0  0  0  0
  150.0174  140.2441  155.4894 N   0  0  0  0  0  0  0  0  0  0  0  0
  149.4529  141.6456  155.6718 C   0  0  1  0  0  0  0  0  0  0  0  0
  148.2977  141.7363  156.6772 C   0  0  0  0  0  0  0  0  0  0  0  0
  148.9901  142.1580  157.9706 C   0  0  0  0  0  0  0  0  0  0  0  0
  150.4669  142.3154  157.5916 C   0  0  0  0  0  0  0  0  0  0  0  0
  150.4581  142.4644  156.1784 O   0  0  0  0  0  0  0  0  0  0  0  0
  149.1556  139.2457  154.9808 C   0  0  0  0  0  0  0  0  0  0  0  0
  147.9692  139.4942  154.7552 O   0  0  0  0  0  0  0  0  0  0  0  0
  150.2698  133.1095  156.4820 C   0  0  0  0  0  0  0  0  0  0  0  0
  151.4895  132.4372  156.6918 C   0  0  0  0  0  0  0  0  0  0  0  0
  154.2178  129.0963  155.4458 H   0  0  0  0  0  0  0  0  0  0  0  0
  153.4743  130.1607  154.2579 H   0  0  0  0  0  0  0  0  0  0  0  0
  152.5419  128.8285  154.9821 H   0  0  0  0  0  0  0  0  0  0  0  0
  150.8899  129.6567  154.8049 H   0  0  0  0  0  0  0  0  0  0  0  0
  148.7511  130.8268  154.4425 H   0  0  0  0  0  0  0  0  0  0  0  0
  147.5094  133.5004  156.4359 H   0  0  0  0  0  0  0  0  0  0  0  0
  147.3934  131.5563  154.2422 H   0  0  0  0  0  0  0  0  0  0  0  0
  146.0531  132.2636  155.1637 H   0  0  0  0  0  0  0  0  0  0  0  0
  145.8208  130.9422  152.8008 H   0  0  0  0  0  0  0  0  0  0  0  0
  144.3160  130.3581  150.9287 H   0  0  0  0  0  0  0  0  0  0  0  0
  143.4279  132.1326  149.4298 H   0  0  0  0  0  0  0  0  0  0  0  0
  144.0487  134.5102  149.8038 H   0  0  0  0  0  0  0  0  0  0  0  0
  145.5477  135.1331  151.6621 H   0  0  0  0  0  0  0  0  0  0  0  0
  149.0758  136.5840  153.2466 H   0  0  0  0  0  0  0  0  0  0  0  0
  147.7614  137.2660  154.1231 H   0  0  0  0  0  0  0  0  0  0  0  0
  152.0446  140.7182  155.9865 H   0  0  0  0  0  0  0  0  0  0  0  0
  149.1383  141.9635  154.6765 H   0  0  0  0  0  0  0  0  0  0  0  0
  147.6247  142.5290  156.3491 H   0  0  0  0  0  0  0  0  0  0  0  0
  147.7166  140.8165  156.7384 H   0  0  0  0  0  0  0  0  0  0  0  0
  148.5805  143.1055  158.3218 H   0  0  0  0  0  0  0  0  0  0  0  0
  148.8605  141.4247  158.7668 H   0  0  0  0  0  0  0  0  0  0  0  0
  150.9335  143.1725  158.0772 H   0  0  0  0  0  0  0  0  0  0  0  0
  151.0361  141.4257  157.8635 H   0  0  0  0  0  0  0  0  0  0  0  0
  150.1035  134.0667  156.9540 H   0  0  0  0  0  0  0  0  0  0  0  0
  152.2258  132.9089  157.3243 H   0  0  0  0  0  0  0  0  0  0  0  0
  1  2  1  0  0  0  0
  1 37  1  0  0  0  0
  1 38  1  0  0  0  0
  1 39  1  0  0  0  0
  2  3  1  0  0  0  0
  3 36  1  0  0  0  0
  3  4  2  0  0  0  0
  4  5  1  0  0  0  0
  4 40  1  0  0  0  0
  5  6  2  0  0  0  0
  5 41  1  0  0  0  0
  6  7  1  0  0  0  0
  6 35  1  0  0  0  0
  7 17  1  0  0  0  0
  7  8  1  0  0  0  0
  7 42  1  0  0  0  0
  8  9  1  0  0  0  0
  8 43  1  0  0  0  0
  8 44  1  0  0  0  0
  9 10  1  0  0  0  0
  9 16  2  0  0  0  0
 10 15  1  0  0  0  0
 10 11  2  0  0  0  0
 11 12  1  0  0  0  0
 11 45  1  0  0  0  0
 12 13  2  0  0  0  0
 12 46  1  0  0  0  0
 13 14  1  0  0  0  0
 13 47  1  0  0  0  0
 14 15  2  0  0  0  0
 14 48  1  0  0  0  0
 15 49  1  0  0  0  0
 16 17  1  0  0  0  0
 17 18  1  0  0  0  0
 18 19  2  0  0  0  0
 18 20  1  0  0  0  0
 20 21  1  0  0  0  0
 20 50  1  0  0  0  0
 20 51  1  0  0  0  0
 21 33  1  0  0  0  0
 21 22  1  0  0  0  0
 22 23  2  0  0  0  0
 22 24  1  0  0  0  0
 24 25  1  0  0  0  0
 24 26  2  0  0  0  0
 26 27  1  0  0  0  0
 26 52  1  0  0  0  0
 27 28  1  0  0  0  0
 27 33  1  0  0  0  0
 28 32  1  0  0  0  0
 28 29  1  0  0  0  0
 28 53  1  0  0  0  0
 29 30  1  0  0  0  0
 29 54  1  0  0  0  0
 29 55  1  0  0  0  0
 30 31  1  0  0  0  0
 30 56  1  0  0  0  0
 30 57  1  0  0  0  0
 31 32  1  0  0  0  0
 31 58  1  0  0  0  0
 31 59  1  0  0  0  0
 33 34  2  0  0  0  0
 35 36  2  0  0  0  0
 35 60  1  0  0  0  0
 36 61  1  0  0  0  0
M  END
> <s_m_source_file>
AV-unprocessed.smi

> <i_m_source_file_index>
24

> <i_lp_mmshare_version>
43012

> <i_f3d_flags>
0

> <s_epik_input>
W0NIM11PYzFbY0hdW2NIXWMoW2NIXVtjSF0xKVtDQEBIXTJbQ0gyXUMoYzNbY0hdW2NIXVtjSF1bY0hdW2NIXTMpPU5OMkMoPU8pW0NIMl1uNGMoPU8pYyhGKVtjSF1uKGM0PU8pW0NAQEhdNVtDSDJdW0NIMl1bQ0gyXU81

> <s_epik_cmdline>
J2VwaWtfcHl0aG9uJywgJy1waCcsICc3LjAnLCAnLXRuJywgJzgnLCAnLW1hJywgJzIwMCcsICctbWV0YWxfYmluZGluZycsICctaW1hZScsICc8aW5maWxlLm1hZT4nLCAnLW9tYWUnLCAnPG91dGZpbGUubWFlPic=

> <r_lp_tautomer_probability>
1

> <r_epik_Ionization_Penalty>
1.46326e-08

> <r_epik_Ionization_Penalty_Charging>
4.53232e-09

> <r_epik_Ionization_Penalty_Neutral>
1.01002e-08

> <r_epik_State_Penalty>
-0

> <r_epik_Charging_Adjusted_Penalty>
4.53232e-09

> <i_epik_Tot_Q>
0

> <i_epik_Tot_abs_Q>
0

> <r_epik_Metal_State_Penalty>
-0

> <b_epik_Metal_Only>
0

> <s_epik_Chemistry_Notes>
This compound has an imine and may undergo hydrolysis. This compound contains an acetal/aminal-like group ( X-CH(R)-Y where X, Y are N, S, or O) that may be acid/base labile, releasing an aldehyde.

> <s_lp_Force_Field>
OPLS_2005

> <r_lp_Energy>
47.9394

> <b_lp_Chiralities_Consistent>
1

> <s_lp_Variant>
AV-unprocessed.smi:24-3

> <Gold.Version>
5.8.1

> <Gold.Id.Protein>
6NUR|6NUR_protein|mol2

> <Gold.PLP.Fitness>
50.4550

> <Gold.PLP.PLP>
-48.5750

> <Gold.PLP.part.hbond>
-0.9689

> <Gold.PLP.part.metal>
0.0000

> <Gold.PLP.part.buried>
-2.6483

> <Gold.PLP.part.nonpolar>
-48.7374

> <Gold.PLP.part.repulsive>
2.4745

> <Gold.PLP.ligand.clash>
0.0000

> <Gold.PLP.ligand.torsion>
0.6623

> <Gold.PLP.Chemscore.Hbond>
1.0000

> <Gold.PLP.Chemscore.CHOScore>
0.0000

> <Gold.PLP.Chemscore.Metal>
0.0000

> <Gold.Chemscore.Hbonds>
donor molecule, donor type, donor heavy atom, donor atom, acceptor molecule, acceptor atom, score
      P1  H 10752 10764       L1    23  1.00

> <Gold.PLP.Chemscore.Internal.Correction>
0.2045

> <Gold.Rescore>
     Score         DG    S(hbond)    S(metal)    S(lipo)     H(rot)  DE(clash)    DE(int)     intcor
      8.42     -15.79       1.00        0.00     102.86       1.98       0.48       6.88       ----

> <Gold.Chemscore.Fitness>
8.4219

> <Gold.Chemscore.DG>
-15.7878

> <Gold.Chemscore.ZeroCoef>
-5.4800

> <Gold.Chemscore.Hbond>
0.9966

> <Gold.Chemscore.Metal>
0.0000

> <Gold.Chemscore.Lipo>
102.8640

> <Gold.Chemscore.Internal_Hbond>
0.0000

> <Gold.Chemscore.DEClash>
0.4810

> <Gold.Chemscore.DEInternal>
6.8849

> <Gold.Chemscore.Rot>
1.9750

> <Gold.Chemscore.Internal.Correction>
   9.000000E+99

> <Gold.Chemscore.Hbonds>
donor molecule, donor type, donor heavy atom, donor atom, acceptor molecule, acceptor atom, score
      P1  H 10752 10764       L1    23  1.00

> <Gold.Chemscore.Hbond.Weighted>
-3.3287

> <Gold.Chemscore.Metal.Weighted>
-0.0000

> <Gold.Chemscore.Lipo.Weighted>
-12.0351

> <Gold.Chemscore.Internal_Hbond.Weighted>
0.0000

> <Gold.Chemscore.DEClash.Weighted>
0.4810

> <Gold.Chemscore.DEInternal.Weighted>
6.8849

> <Gold.Chemscore.Rot.Weighted>
5.0561

> <Gold.Chemscore.Internal.Correction.Weighted>
   9.000000E+99

> <Gold.Protein.RotatedTorsions>
[ 6907 6896 6895 6894 ] final  -63.81 input  -60.11 | X-H torsion
[ 7974 7965 7964 7962 ] final -176.13 input  175.53 | X-H torsion
[ 8008 7997 7996 7995 ] final -156.26 input   59.86 | X-H torsion
[ 10167 10162 10161 10158 ] final -156.46 input  -65.29 | X-H torsion
[ 10718 10713 10712 10709 ] final  -56.10 input   66.30 | X-H torsion
[ 10763 10752 10751 10750 ] final  -52.52 input  -60.55 | X-H torsion
[ 11005 11000 10999 10996 ] final  -78.65 input  -57.11 | X-H torsion

> <Gold.Protein.ActiveResidues>
 VAL166  LYS551  ARG553  GLY616  TRP617  ASP618  TYR619  PRO620  LYS621  CYS622 
 ASP623  PHE694  ASN695  SER759  ASP760  ASP761  ALA762  ILE779  LEU786  VAL792 
 PHE793  MET794  SER795  GLU796  ALA797  LYS798  CYS799  TRP800  GLU811  SER814 

> <Gold.Protein.RotatedAtoms>
  150.7625  134.6385  159.6223 H   0  0  0  0  0  0  0  0  0  0  0  0  # atno 6907 bound_to 6896
  152.3640  134.6827  160.0207 H   0  0  0  0  0  0  0  0  0  0  0  0  # atno 6908 bound_to 6896
  151.7208  133.3278  159.3351 H   0  0  0  0  0  0  0  0  0  0  0  0  # atno 6909 bound_to 6896
  144.7127  140.1217  143.6405 H   0  0  0  0  0  0  0  0  0  0  0  0  # atno 7974 bound_to 7965
  155.7144  140.0782  157.2357 H   0  0  0  0  0  0  0  0  0  0  0  0  # atno 8008 bound_to 7997
  154.4054  140.1624  156.2386 H   0  0  0  0  0  0  0  0  0  0  0  0  # atno 8009 bound_to 7997
  155.9253  140.3395  155.6208 H   0  0  0  0  0  0  0  0  0  0  0  0  # atno 8010 bound_to 7997
  139.6848  143.9519  152.2355 H   0  0  0  0  0  0  0  0  0  0  0  0  # atno 10167 bound_to 10162
  156.1315  130.4159  150.0260 H   0  0  0  0  0  0  0  0  0  0  0  0  # atno 10718 bound_to 10713
  154.1440  135.6500  153.4948 H   0  0  0  0  0  0  0  0  0  0  0  0  # atno 10763 bound_to 10752
  153.0157  135.5322  154.6876 H   0  0  0  0  0  0  0  0  0  0  0  0  # atno 10764 bound_to 10752
  154.6145  135.2957  155.0366 H   0  0  0  0  0  0  0  0  0  0  0  0  # atno 10765 bound_to 10752
  141.1665  133.7072  156.8004 H   0  0  0  0  0  0  0  0  0  0  0  0  # atno 11005 bound_to 11000
  145.9365  139.2641  143.1294 LP  0  0  0  0  0  0  0  0  0  0  0  0  # atno 17320 bound_to 7965
  145.9468  140.8939  143.0279 LP  0  0  0  0  0  0  0  0  0  0  0  0  # atno 17321 bound_to 7965
  139.9319  144.6736  150.8354 LP  0  0  0  0  0  0  0  0  0  0  0  0  # atno 17342 bound_to 10162
  140.7664  143.3302  151.2426 LP  0  0  0  0  0  0  0  0  0  0  0  0  # atno 17343 bound_to 10162
  156.8171  130.9345  151.3642 LP  0  0  0  0  0  0  0  0  0  0  0  0  # atno 17370 bound_to 10713
  157.6492  130.8870  149.9600 LP  0  0  0  0  0  0  0  0  0  0  0  0  # atno 17371 bound_to 10713
  140.2260  134.8721  157.3427 LP  0  0  0  0  0  0  0  0  0  0  0  0  # atno 17394 bound_to 11000
  140.1939  134.4338  155.7700 LP  0  0  0  0  0  0  0  0  0  0  0  0  # atno 17395 bound_to 11000

$$$$
