AV-unprocessed.smi:1809|AV-procd|sdf|7332|dock1
  -GOLD-   22720 8593D 1   1.00000     0.00000
 Structure written by MMmdl.
 38 40  0  0  0  0  0  0  0  0  2 V2000
  145.6471  133.5962  162.5005 C   0  0  0  0  0  0  0  0  0  0  0  0
  146.4973  134.5076  161.6833 C   0  0  0  0  0  0  0  0  0  0  0  0
  146.6171  134.3889  160.3588 N   0  0  0  0  0  0  0  0  0  0  0  0
  147.4619  135.3500  159.8221 N   0  0  0  0  0  0  0  0  0  0  0  0
  147.9596  136.1864  160.7443 C   0  0  0  0  0  0  0  0  0  0  0  0
  148.8023  137.1849  160.4325 N   0  5  0  0  0  0  0  0  0  0  0  0
  149.7259  137.0115  159.4596 C   0  0  0  0  0  0  0  0  0  0  0  0
  149.8367  136.0283  158.7232 O   0  0  0  0  0  0  0  0  0  0  0  0
  150.5732  138.0404  159.3290 N   0  0  0  0  0  0  0  0  0  0  0  0
  151.6586  138.1151  158.3596 C   0  0  0  0  0  0  0  0  0  0  0  0
  152.3099  139.5048  158.3761 C   0  0  1  0  0  0  0  0  0  0  0  0
  151.2672  140.6301  158.1814 C   0  0  0  0  0  0  0  0  0  0  0  0
  151.9023  141.9255  158.3320 N   0  0  0  0  0  0  0  0  0  0  0  0
  151.0462  143.0864  158.2594 C   0  0  0  0  0  0  0  0  0  0  0  0
  151.8977  144.2226  158.8533 C   0  0  0  0  0  0  0  0  0  0  0  0
  152.9783  143.4988  159.6876 C   0  0  0  0  0  0  0  0  0  0  0  0
  152.5346  142.0366  159.6187 C   0  0  2  0  0  0  0  0  0  0  0  0
  153.6106  140.9552  159.7899 C   0  0  0  0  0  0  0  0  0  0  0  0
  152.9808  139.6819  159.6313 O   0  0  0  0  0  0  0  0  0  0  0  0
  147.4209  135.8257  162.3844 S   0  0  0  0  0  0  0  0  0  0  0  0
  144.5958  133.8548  162.3739 H   0  0  0  0  0  0  0  0  0  0  0  0
  145.9045  133.6831  163.5563 H   0  0  0  0  0  0  0  0  0  0  0  0
  145.7956  132.5617  162.1900 H   0  0  0  0  0  0  0  0  0  0  0  0
  150.4508  138.8311  159.9446 H   0  0  0  0  0  0  0  0  0  0  0  0
  152.4001  137.3533  158.6047 H   0  0  0  0  0  0  0  0  0  0  0  0
  151.2802  137.8887  157.3616 H   0  0  0  0  0  0  0  0  0  0  0  0
  153.0489  139.5632  157.5748 H   0  0  0  0  0  0  0  0  0  0  0  0
  150.8098  140.5530  157.1946 H   0  0  0  0  0  0  0  0  0  0  0  0
  150.4649  140.5217  158.9129 H   0  0  0  0  0  0  0  0  0  0  0  0
  150.7278  143.2893  157.2366 H   0  0  0  0  0  0  0  0  0  0  0  0
  150.1535  142.9343  158.8685 H   0  0  0  0  0  0  0  0  0  0  0  0
  152.3622  144.8156  158.0648 H   0  0  0  0  0  0  0  0  0  0  0  0
  151.2898  144.8924  159.4624 H   0  0  0  0  0  0  0  0  0  0  0  0
  153.9586  143.6273  159.2266 H   0  0  0  0  0  0  0  0  0  0  0  0
  153.0346  143.8640  160.7134 H   0  0  0  0  0  0  0  0  0  0  0  0
  151.7814  141.8841  160.3947 H   0  0  0  0  0  0  0  0  0  0  0  0
  154.4092  141.0707  159.0552 H   0  0  0  0  0  0  0  0  0  0  0  0
  154.0643  141.0137  160.7794 H   0  0  0  0  0  0  0  0  0  0  0  0
  1  2  1  0  0  0  0
  1 21  1  0  0  0  0
  1 22  1  0  0  0  0
  1 23  1  0  0  0  0
  2 20  1  0  0  0  0
  2  3  2  0  0  0  0
  3  4  1  0  0  0  0
  4  5  2  0  0  0  0
  5  6  1  0  0  0  0
  5 20  1  0  0  0  0
  6  7  1  0  0  0  0
  7  8  2  0  0  0  0
  7  9  1  0  0  0  0
  9 10  1  0  0  0  0
  9 24  1  0  0  0  0
 10 11  1  0  0  0  0
 10 25  1  0  0  0  0
 10 26  1  0  0  0  0
 11 19  1  0  0  0  0
 11 12  1  0  0  0  0
 11 27  1  0  0  0  0
 12 13  1  0  0  0  0
 12 28  1  0  0  0  0
 12 29  1  0  0  0  0
 13 17  1  0  0  0  0
 13 14  1  0  0  0  0
 14 15  1  0  0  0  0
 14 30  1  0  0  0  0
 14 31  1  0  0  0  0
 15 16  1  0  0  0  0
 15 32  1  0  0  0  0
 15 33  1  0  0  0  0
 16 17  1  0  0  0  0
 16 34  1  0  0  0  0
 16 35  1  0  0  0  0
 17 18  1  0  0  0  0
 17 36  1  0  0  0  0
 18 19  1  0  0  0  0
 18 37  1  0  0  0  0
 18 38  1  0  0  0  0
M  CHG  1   6  -1
M  END
> <s_m_source_file>
AV-unprocessed.smi

> <i_m_source_file_index>
1809

> <i_lp_mmshare_version>
43012

> <i_f3d_flags>
0

> <s_epik_input>
W0NIM11jMW5uYyhzMSlbTkhdQyg9TylbTkhdW0NIMl1bQ0BIXShbQ0gyXTIpT1tDSDJdW0NAQEhdKE4yMylbQ0gyXVtDSDJdW0NIMl0z

> <s_epik_cmdline>
J2VwaWtfcHl0aG9uJywgJy1waCcsICc3LjAnLCAnLXRuJywgJzgnLCAnLW1hJywgJzIwMCcsICctbWV0YWxfYmluZGluZycsICctaW1hZScsICc8aW5maWxlLm1hZT4nLCAnLW9tYWUnLCAnPG91dGZpbGUubWFlPic=

> <r_lp_tautomer_probability>
1

> <r_epik_Ionization_Penalty>
4.48809

> <r_epik_Ionization_Penalty_Charging>
3.27284

> <r_epik_Ionization_Penalty_Neutral>
1.21525

> <r_epik_State_Penalty>
4.69427

> <r_epik_Charging_Adjusted_Penalty>
7.96711

> <i_epik_Tot_Q>
-1

> <i_epik_Tot_abs_Q>
1

> <r_epik_Metal_State_Penalty>
1.91976

> <b_epik_Metal_Only>
1

> <s_lp_Force_Field>
OPLS_2005

> <r_lp_Energy>
45.7242

> <b_lp_Chiralities_Consistent>
1

> <s_lp_Variant>
AV-unprocessed.smi:1809-24

> <Gold.Version>
5.8.1

> <Gold.Id.Protein>
6NUR|6NUR_protein|mol2

> <Gold.PLP.Fitness>
44.3802

> <Gold.PLP.PLP>
-38.0407

> <Gold.PLP.part.hbond>
-2.6785

> <Gold.PLP.part.metal>
0.0000

> <Gold.PLP.part.buried>
-5.5888

> <Gold.PLP.part.nonpolar>
-31.7604

> <Gold.PLP.part.repulsive>
0.5334

> <Gold.PLP.ligand.clash>
0.0000

> <Gold.PLP.ligand.torsion>
0.3217

> <Gold.PLP.Chemscore.Hbond>
2.3120

> <Gold.PLP.Chemscore.CHOScore>
0.0000

> <Gold.PLP.Chemscore.Metal>
0.0000

> <Gold.Chemscore.Hbonds>
donor molecule, donor type, donor heavy atom, donor atom, acceptor molecule, acceptor atom, score
      P1  H  6896  6909       L1     8  1.00
      P1  H  6931  6943       L1     6  1.31

> <Gold.PLP.Chemscore.Internal.Correction>
0.0469

> <Gold.Rescore>
     Score         DG    S(hbond)    S(metal)    S(lipo)     H(rot)  DE(clash)    DE(int)     intcor
     15.77     -18.02       1.53        0.00      92.17       1.31       0.42       1.84       ----

> <Gold.Chemscore.Fitness>
15.7666

> <Gold.Chemscore.DG>
-18.0237

> <Gold.Chemscore.ZeroCoef>
-5.4800

> <Gold.Chemscore.Hbond>
1.5271

> <Gold.Chemscore.Metal>
0.0000

> <Gold.Chemscore.Lipo>
92.1743

> <Gold.Chemscore.Internal_Hbond>
0.0000

> <Gold.Chemscore.DEClash>
0.4197

> <Gold.Chemscore.DEInternal>
1.8374

> <Gold.Chemscore.Rot>
1.3051

> <Gold.Chemscore.Internal.Correction>
   9.000000E+99

> <Gold.Chemscore.Hbonds>
donor molecule, donor type, donor heavy atom, donor atom, acceptor molecule, acceptor atom, score
      P1  H  6896  6909       L1     8  0.39
      P1  H  6931  6943       L1     6  0.47

> <Gold.Chemscore.Hbond.Weighted>
-5.1005

> <Gold.Chemscore.Metal.Weighted>
-0.0000

> <Gold.Chemscore.Lipo.Weighted>
-10.7844

> <Gold.Chemscore.Internal_Hbond.Weighted>
0.0000

> <Gold.Chemscore.DEClash.Weighted>
0.4197

> <Gold.Chemscore.DEInternal.Weighted>
1.8374

> <Gold.Chemscore.Rot.Weighted>
3.3412

> <Gold.Chemscore.Internal.Correction.Weighted>
   9.000000E+99

> <Gold.Protein.RotatedTorsions>
[ 6907 6896 6895 6894 ] final   74.30 input  -60.11 | X-H torsion
[ 7974 7965 7964 7962 ] final -171.58 input  175.53 | X-H torsion
[ 8008 7997 7996 7995 ] final  -68.98 input   59.86 | X-H torsion
[ 10167 10162 10161 10158 ] final   28.42 input  -65.29 | X-H torsion
[ 10718 10713 10712 10709 ] final  -71.00 input   66.30 | X-H torsion
[ 10763 10752 10751 10750 ] final -106.02 input  -60.55 | X-H torsion
[ 11005 11000 10999 10996 ] final   86.24 input  -57.11 | X-H torsion

> <Gold.Protein.ActiveResidues>
 VAL166  LYS551  ARG553  GLY616  TRP617  ASP618  TYR619  PRO620  LYS621  CYS622 
 ASP623  PHE694  ASN695  SER759  ASP760  ASP761  ALA762  ILE779  LEU786  VAL792 
 PHE793  MET794  SER795  GLU796  ALA797  LYS798  CYS799  TRP800  GLU811  SER814 

> <Gold.Protein.RotatedAtoms>
  152.4969  134.4292  159.9506 H   0  0  0  0  0  0  0  0  0  0  0  0  # atno 6907 bound_to 6896
  151.4269  133.3675  159.2771 H   0  0  0  0  0  0  0  0  0  0  0  0  # atno 6908 bound_to 6896
  150.9182  134.8623  159.7531 H   0  0  0  0  0  0  0  0  0  0  0  0  # atno 6909 bound_to 6896
  144.7155  140.1901  143.6349 H   0  0  0  0  0  0  0  0  0  0  0  0  # atno 7974 bound_to 7965
  154.4906  140.0862  156.7586 H   0  0  0  0  0  0  0  0  0  0  0  0  # atno 8008 bound_to 7997
  155.4240  140.3447  155.4255 H   0  0  0  0  0  0  0  0  0  0  0  0  # atno 8009 bound_to 7997
  156.1324  140.1505  156.9033 H   0  0  0  0  0  0  0  0  0  0  0  0  # atno 8010 bound_to 7997
  140.4854  144.0551  150.6279 H   0  0  0  0  0  0  0  0  0  0  0  0  # atno 10167 bound_to 10162
  156.0382  130.4342  150.2378 H   0  0  0  0  0  0  0  0  0  0  0  0  # atno 10718 bound_to 10713
  154.7985  135.4727  154.0218 H   0  0  0  0  0  0  0  0  0  0  0  0  # atno 10763 bound_to 10752
  153.1742  135.6830  153.8573 H   0  0  0  0  0  0  0  0  0  0  0  0  # atno 10764 bound_to 10752
  153.8145  135.3212  155.3382 H   0  0  0  0  0  0  0  0  0  0  0  0  # atno 10765 bound_to 10752
  139.8950  134.8342  156.2694 H   0  0  0  0  0  0  0  0  0  0  0  0  # atno 11005 bound_to 11000
  145.8776  139.2305  143.1624 LP  0  0  0  0  0  0  0  0  0  0  0  0  # atno 17320 bound_to 7965
  146.0025  140.8507  143.0011 LP  0  0  0  0  0  0  0  0  0  0  0  0  # atno 17321 bound_to 7965
  140.3804  143.2805  152.0176 LP  0  0  0  0  0  0  0  0  0  0  0  0  # atno 17342 bound_to 10162
  139.4841  144.6159  151.7347 LP  0  0  0  0  0  0  0  0  0  0  0  0  # atno 17343 bound_to 10162
  157.0476  131.0053  151.3264 LP  0  0  0  0  0  0  0  0  0  0  0  0  # atno 17370 bound_to 10713
  157.5164  130.7970  149.7761 LP  0  0  0  0  0  0  0  0  0  0  0  0  # atno 17371 bound_to 10713
  141.0111  133.7095  156.1113 LP  0  0  0  0  0  0  0  0  0  0  0  0  # atno 17394 bound_to 11000
  140.7366  134.4196  157.5560 LP  0  0  0  0  0  0  0  0  0  0  0  0  # atno 17395 bound_to 11000

$$$$
