AV-unprocessed.smi:1840|AV-procd|sdf|7489|dock8
  -GOLD-   22720 9193D 1   1.00000     0.00000
 Structure written by MMmdl.
 43 44  0  0  0  0  0  0  0  0  1 V2000
  148.3456  138.0447  156.1514 C   0  0  0  0  0  0  0  0  0  0  0  0
  147.9468  138.4461  154.7238 C   0  0  1  0  0  0  0  0  0  0  0  0
  148.9740  139.4067  154.0943 C   0  0  0  0  0  0  0  0  0  0  0  0
  150.3425  139.0234  154.3943 N   0  0  0  0  0  0  0  0  0  0  0  0
  150.9719  137.8225  154.1417 C   0  0  0  0  0  0  0  0  0  0  0  0
  152.2577  137.9362  154.5866 C   0  0  0  0  0  0  0  0  0  0  0  0
  152.3196  139.2599  155.1052 C   0  0  0  0  0  0  0  0  0  0  0  0
  151.1717  139.9079  154.9890 N   0  0  0  0  0  0  0  0  0  0  0  0
  147.8108  137.2498  153.8952 N   0  0  0  0  0  0  0  0  0  0  0  0
  146.7711  136.4047  153.9133 C   0  0  0  0  0  0  0  0  0  0  0  0
  145.8071  136.5105  154.6715 O   0  0  0  0  0  0  0  0  0  0  0  0
  146.9072  135.4390  152.9932 N   0  0  0  0  0  0  0  0  0  0  0  0
  145.9519  134.3632  152.7318 C   0  0  2  0  0  0  0  0  0  0  0  0
  146.6499  133.0127  152.9873 C   0  0  0  0  0  0  0  0  0  0  0  0
  145.7277  131.8267  152.6713 C   0  0  0  0  0  0  0  0  0  0  0  0
  145.2097  131.9046  151.2294 C   0  0  0  0  0  0  0  0  0  0  0  0
  144.4949  133.2401  150.9744 C   0  0  0  0  0  0  0  0  0  0  0  0
  145.4018  134.4491  151.2837 C   0  0  1  0  0  0  0  0  0  0  0  0
  144.6550  135.7664  151.0054 C   0  0  0  0  0  0  0  0  0  0  0  0
  148.4304  138.9212  156.7942 H   0  0  0  0  0  0  0  0  0  0  0  0
  149.3051  137.5270  156.1657 H   0  0  0  0  0  0  0  0  0  0  0  0
  147.6023  137.3824  156.5965 H   0  0  0  0  0  0  0  0  0  0  0  0
  146.9889  138.9672  154.7774 H   0  0  0  0  0  0  0  0  0  0  0  0
  148.8558  139.4273  153.0097 H   0  0  0  0  0  0  0  0  0  0  0  0
  148.8116  140.4274  154.4439 H   0  0  0  0  0  0  0  0  0  0  0  0
  150.4597  136.9988  153.6670 H   0  0  0  0  0  0  0  0  0  0  0  0
  153.0354  137.1883  154.5465 H   0  0  0  0  0  0  0  0  0  0  0  0
  153.1589  139.7662  155.5590 H   0  0  0  0  0  0  0  0  0  0  0  0
  148.5537  137.0704  153.2356 H   0  0  0  0  0  0  0  0  0  0  0  0
  147.7377  135.4492  152.4195 H   0  0  0  0  0  0  0  0  0  0  0  0
  145.1108  134.4354  153.4239 H   0  0  0  0  0  0  0  0  0  0  0  0
  147.5510  132.9399  152.3761 H   0  0  0  0  0  0  0  0  0  0  0  0
  146.9770  132.9530  154.0260 H   0  0  0  0  0  0  0  0  0  0  0  0
  146.2611  130.8882  152.8256 H   0  0  0  0  0  0  0  0  0  0  0  0
  144.8853  131.8222  153.3642 H   0  0  0  0  0  0  0  0  0  0  0  0
  146.0419  131.7942  150.5330 H   0  0  0  0  0  0  0  0  0  0  0  0
  144.5297  131.0752  151.0334 H   0  0  0  0  0  0  0  0  0  0  0  0
  144.1627  133.2793  149.9364 H   0  0  0  0  0  0  0  0  0  0  0  0
  143.5938  133.2902  151.5872 H   0  0  0  0  0  0  0  0  0  0  0  0
  146.2494  134.4054  150.5979 H   0  0  0  0  0  0  0  0  0  0  0  0
  143.8226  135.9019  151.6966 H   0  0  0  0  0  0  0  0  0  0  0  0
  144.2518  135.7821  149.9926 H   0  0  0  0  0  0  0  0  0  0  0  0
  145.3114  136.6313  151.1020 H   0  0  0  0  0  0  0  0  0  0  0  0
  1  2  1  0  0  0  0
  1 20  1  0  0  0  0
  1 21  1  0  0  0  0
  1 22  1  0  0  0  0
  2  3  1  0  0  0  0
  2  9  1  0  0  0  0
  2 23  1  0  0  0  0
  3  4  1  0  0  0  0
  3 24  1  0  0  0  0
  3 25  1  0  0  0  0
  4  8  1  0  0  0  0
  4  5  1  0  0  0  0
  5  6  2  0  0  0  0
  5 26  1  0  0  0  0
  6  7  1  0  0  0  0
  6 27  1  0  0  0  0
  7  8  2  0  0  0  0
  7 28  1  0  0  0  0
  9 10  1  0  0  0  0
  9 29  1  0  0  0  0
 10 11  2  0  0  0  0
 10 12  1  0  0  0  0
 12 13  1  0  0  0  0
 12 30  1  0  0  0  0
 13 18  1  0  0  0  0
 13 14  1  0  0  0  0
 13 31  1  0  0  0  0
 14 15  1  0  0  0  0
 14 32  1  0  0  0  0
 14 33  1  0  0  0  0
 15 16  1  0  0  0  0
 15 34  1  0  0  0  0
 15 35  1  0  0  0  0
 16 17  1  0  0  0  0
 16 36  1  0  0  0  0
 16 37  1  0  0  0  0
 17 18  1  0  0  0  0
 17 38  1  0  0  0  0
 17 39  1  0  0  0  0
 18 19  1  0  0  0  0
 18 40  1  0  0  0  0
 19 41  1  0  0  0  0
 19 42  1  0  0  0  0
 19 43  1  0  0  0  0
M  END
> <s_m_source_file>
AV-unprocessed.smi

> <i_m_source_file_index>
1840

> <i_lp_mmshare_version>
43012

> <i_f3d_flags>
0

> <s_epik_input>
bjFbY0hdW2NIXVtjSF1uMVtDSDJdW0NAQEhdKFtDSDNdKVtOSF1DKD1PKVtOSF1bQ0BASF0yW0NIMl1bQ0gyXVtDSDJdW0NIMl1bQ0BIXTJbQ0gzXQ==

> <s_epik_cmdline>
J2VwaWtfcHl0aG9uJywgJy1waCcsICc3LjAnLCAnLXRuJywgJzgnLCAnLW1hJywgJzIwMCcsICctbWV0YWxfYmluZGluZycsICctaW1hZScsICc8aW5maWxlLm1hZT4nLCAnLW9tYWUnLCAnPG91dGZpbGUubWFlPic=

> <r_lp_tautomer_probability>
1

> <r_epik_Ionization_Penalty>
7.38659e-05

> <r_epik_Ionization_Penalty_Charging>
0

> <r_epik_Ionization_Penalty_Neutral>
7.38659e-05

> <r_epik_State_Penalty>
-0

> <r_epik_Charging_Adjusted_Penalty>
0

> <i_epik_Tot_Q>
0

> <i_epik_Tot_abs_Q>
0

> <r_epik_Metal_State_Penalty>
-0

> <b_epik_Metal_Only>
0

> <s_lp_Force_Field>
OPLS_2005

> <r_lp_Energy>
8.744

> <b_lp_Chiralities_Consistent>
1

> <s_lp_Variant>
AV-unprocessed.smi:1840-2

> <Gold.Version>
5.8.1

> <Gold.Id.Protein>
6NUR|6NUR_protein|mol2

> <Gold.PLP.Fitness>
40.9416

> <Gold.PLP.PLP>
-31.0700

> <Gold.PLP.part.hbond>
-2.7144

> <Gold.PLP.part.metal>
0.0000

> <Gold.PLP.part.buried>
-0.4857

> <Gold.PLP.part.nonpolar>
-27.4940

> <Gold.PLP.part.repulsive>
0.0847

> <Gold.PLP.ligand.clash>
0.0000

> <Gold.PLP.ligand.torsion>
0.4593

> <Gold.PLP.Chemscore.Hbond>
2.5360

> <Gold.PLP.Chemscore.CHOScore>
1.0549

> <Gold.PLP.Chemscore.Metal>
0.0000

> <Gold.Chemscore.Hbonds>
donor molecule, donor type, donor heavy atom, donor atom, acceptor molecule, acceptor atom, score
      L1  H     9    29       P1  7948  0.90
      L1  H    12    30       P1  7948  0.99
      P1  H  7989  7998       L1     8  0.72
      L1  C     5    26       P1  7948  0.63
      L1  C     5    26       P1  7949  0.40

> <Gold.PLP.Chemscore.Internal.Correction>
0.0174

> <Gold.Rescore>
     Score         DG    S(hbond)    S(metal)    S(lipo)     H(rot)  DE(clash)    DE(int)     intcor
     16.03     -16.58       1.89        0.00      75.04       1.56       0.16       0.40       ----

> <Gold.Chemscore.Fitness>
16.0260

> <Gold.Chemscore.DG>
-16.5804

> <Gold.Chemscore.ZeroCoef>
-5.4800

> <Gold.Chemscore.Hbond>
1.8888

> <Gold.Chemscore.Metal>
0.0000

> <Gold.Chemscore.Lipo>
75.0382

> <Gold.Chemscore.Internal_Hbond>
0.0000

> <Gold.Chemscore.DEClash>
0.1555

> <Gold.Chemscore.DEInternal>
0.3990

> <Gold.Chemscore.Rot>
1.5576

> <Gold.Chemscore.Internal.Correction>
   9.000000E+99

> <Gold.Chemscore.Hbonds>
donor molecule, donor type, donor heavy atom, donor atom, acceptor molecule, acceptor atom, score
      L1  H     9    29       P1  7948  0.88
      L1  H    12    30       P1  7948  0.88
      P1  H  7989  7998       L1     8  0.02

> <Gold.Chemscore.Hbond.Weighted>
-6.3085

> <Gold.Chemscore.Metal.Weighted>
-0.0000

> <Gold.Chemscore.Lipo.Weighted>
-8.7795

> <Gold.Chemscore.Internal_Hbond.Weighted>
0.0000

> <Gold.Chemscore.DEClash.Weighted>
0.1555

> <Gold.Chemscore.DEInternal.Weighted>
0.3990

> <Gold.Chemscore.Rot.Weighted>
3.9875

> <Gold.Chemscore.Internal.Correction.Weighted>
   9.000000E+99

> <Gold.Protein.RotatedTorsions>
[ 6907 6896 6895 6894 ] final -119.80 input  -60.11 | X-H torsion
[ 7974 7965 7964 7962 ] final   16.62 input  175.53 | X-H torsion
[ 8008 7997 7996 7995 ] final  -55.79 input   59.86 | X-H torsion
[ 10167 10162 10161 10158 ] final   67.16 input  -65.29 | X-H torsion
[ 10718 10713 10712 10709 ] final   70.98 input   66.30 | X-H torsion
[ 10763 10752 10751 10750 ] final  143.68 input  -60.55 | X-H torsion
[ 11005 11000 10999 10996 ] final  -93.41 input  -57.11 | X-H torsion

> <Gold.Protein.ActiveResidues>
 VAL166  LYS551  ARG553  GLY616  TRP617  ASP618  TYR619  PRO620  LYS621  CYS622 
 ASP623  PHE694  ASN695  SER759  ASP760  ASP761  ALA762  ILE779  LEU786  VAL792 
 PHE793  MET794  SER795  GLU796  ALA797  LYS798  CYS799  TRP800  GLU811  SER814 

> <Gold.Protein.RotatedAtoms>
  150.8337  133.8049  159.3088 H   0  0  0  0  0  0  0  0  0  0  0  0  # atno 6907 bound_to 6896
  151.5771  135.1058  160.0018 H   0  0  0  0  0  0  0  0  0  0  0  0  # atno 6908 bound_to 6896
  152.4413  133.7411  159.6698 H   0  0  0  0  0  0  0  0  0  0  0  0  # atno 6909 bound_to 6896
  146.2244  139.8721  142.8585 H   0  0  0  0  0  0  0  0  0  0  0  0  # atno 7974 bound_to 7965
  154.4207  140.1144  156.5534 H   0  0  0  0  0  0  0  0  0  0  0  0  # atno 8008 bound_to 7997
  155.6386  140.3496  155.4688 H   0  0  0  0  0  0  0  0  0  0  0  0  # atno 8009 bound_to 7997
  155.9889  140.1175  157.0646 H   0  0  0  0  0  0  0  0  0  0  0  0  # atno 8010 bound_to 7997
  140.0925  144.4975  150.7089 H   0  0  0  0  0  0  0  0  0  0  0  0  # atno 10167 bound_to 10162
  157.6428  130.9505  150.0726 H   0  0  0  0  0  0  0  0  0  0  0  0  # atno 10718 bound_to 10713
  153.9764  135.2945  155.3423 H   0  0  0  0  0  0  0  0  0  0  0  0  # atno 10763 bound_to 10752
  154.7294  135.5074  153.8942 H   0  0  0  0  0  0  0  0  0  0  0  0  # atno 10764 bound_to 10752
  153.0875  135.6698  154.0032 H   0  0  0  0  0  0  0  0  0  0  0  0  # atno 10765 bound_to 10752
  141.1498  133.7886  157.0155 H   0  0  0  0  0  0  0  0  0  0  0  0  # atno 11005 bound_to 11000
  145.2598  141.0073  143.3833 LP  0  0  0  0  0  0  0  0  0  0  0  0  # atno 17320 bound_to 7965
  144.9308  139.4301  143.6496 LP  0  0  0  0  0  0  0  0  0  0  0  0  # atno 17321 bound_to 7965
  140.7021  143.2442  151.4835 LP  0  0  0  0  0  0  0  0  0  0  0  0  # atno 17342 bound_to 10162
  139.5716  144.1914  152.1845 LP  0  0  0  0  0  0  0  0  0  0  0  0  # atno 17343 bound_to 10162
  156.1726  130.3647  149.9145 LP  0  0  0  0  0  0  0  0  0  0  0  0  # atno 17370 bound_to 10713
  156.7117  130.8972  151.3610 LP  0  0  0  0  0  0  0  0  0  0  0  0  # atno 17371 bound_to 10713
  140.0849  134.9626  157.1684 LP  0  0  0  0  0  0  0  0  0  0  0  0  # atno 17394 bound_to 11000
  140.3525  134.2583  155.7197 LP  0  0  0  0  0  0  0  0  0  0  0  0  # atno 17395 bound_to 11000

$$$$
