AV-unprocessed.smi:3053|AV-procd|sdf|11637|dock7
  -GOLD-   2272017 33D 1   1.00000     0.00000
 Structure written by MMmdl.
 31 32  0  0  0  0  0  0  0  0  1 V2000
  154.3356  140.3510  161.8614 C   0  0  0  0  0  0  0  0  0  0  0  0
  153.6172  141.6054  161.5011 C   0  0  0  0  0  0  0  0  0  0  0  0
  153.3929  141.9911  160.2425 N   0  0  0  0  0  0  0  0  0  0  0  0
  152.7232  143.2162  160.1669 C   0  0  0  0  0  0  0  0  0  0  0  0
  152.4363  143.8324  158.8281 C   0  0  0  0  0  0  0  0  0  0  0  0
  151.0651  144.5342  158.7530 C   0  0  0  0  0  0  0  0  0  0  0  0
  150.0750  143.7418  158.0258 N   0  0  0  0  0  0  0  0  0  0  0  0
  149.9422  142.4073  158.0958 C   0  0  0  0  0  0  0  0  0  0  0  0
  150.6217  141.6973  158.8386 O   0  0  0  0  0  0  0  0  0  0  0  0
  148.8780  141.7821  157.1839 C   0  0  2  0  0  0  0  0  0  0  0  0
  148.8973  140.2450  157.1881 C   0  0  0  0  0  0  0  0  0  0  0  0
  149.2694  139.9247  155.8234 N   0  0  0  0  0  0  0  0  0  0  0  0
  149.4010  141.0008  155.0452 C   0  0  0  0  0  0  0  0  0  0  0  0
  149.6922  140.9973  153.8521 O   0  0  0  0  0  0  0  0  0  0  0  0
  149.1608  142.0825  155.7902 N   0  0  0  0  0  0  0  0  0  0  0  0
  152.4191  143.7438  161.3974 C   0  0  0  0  0  0  0  0  0  0  0  0
  152.9925  142.7355  162.6961 S   0  0  0  0  0  0  0  0  0  0  0  0
  154.2695  139.6259  161.0497 H   0  0  0  0  0  0  0  0  0  0  0  0
  153.8981  139.9117  162.7581 H   0  0  0  0  0  0  0  0  0  0  0  0
  155.3864  140.5681  162.0537 H   0  0  0  0  0  0  0  0  0  0  0  0
  153.2176  144.5499  158.5750 H   0  0  0  0  0  0  0  0  0  0  0  0
  152.4827  143.0652  158.0545 H   0  0  0  0  0  0  0  0  0  0  0  0
  150.7089  144.7624  159.7590 H   0  0  0  0  0  0  0  0  0  0  0  0
  151.1735  145.4938  158.2476 H   0  0  0  0  0  0  0  0  0  0  0  0
  149.4667  144.2437  157.3950 H   0  0  0  0  0  0  0  0  0  0  0  0
  147.8852  142.1596  157.4347 H   0  0  0  0  0  0  0  0  0  0  0  0
  149.6198  139.8204  157.8872 H   0  0  0  0  0  0  0  0  0  0  0  0
  147.9140  139.8315  157.4149 H   0  0  0  0  0  0  0  0  0  0  0  0
  149.4027  138.9762  155.5035 H   0  0  0  0  0  0  0  0  0  0  0  0
  149.2120  143.0284  155.4409 H   0  0  0  0  0  0  0  0  0  0  0  0
  151.9121  144.6715  161.6174 H   0  0  0  0  0  0  0  0  0  0  0  0
  1  2  1  0  0  0  0
  1 18  1  0  0  0  0
  1 19  1  0  0  0  0
  1 20  1  0  0  0  0
  2 17  1  0  0  0  0
  2  3  2  0  0  0  0
  3  4  1  0  0  0  0
  4  5  1  0  0  0  0
  4 16  2  0  0  0  0
  5  6  1  0  0  0  0
  5 21  1  0  0  0  0
  5 22  1  0  0  0  0
  6  7  1  0  0  0  0
  6 23  1  0  0  0  0
  6 24  1  0  0  0  0
  7  8  1  0  0  0  0
  7 25  1  0  0  0  0
  8  9  2  0  0  0  0
  8 10  1  0  0  0  0
 10 15  1  0  0  0  0
 10 11  1  0  0  0  0
 10 26  1  0  0  0  0
 11 12  1  0  0  0  0
 11 27  1  0  0  0  0
 11 28  1  0  0  0  0
 12 13  1  0  0  0  0
 12 29  1  0  0  0  0
 13 14  2  0  0  0  0
 13 15  1  0  0  0  0
 15 30  1  0  0  0  0
 16 17  1  0  0  0  0
 16 31  1  0  0  0  0
M  END
> <s_m_source_file>
AV-unprocessed.smi

> <i_m_source_file_index>
3053

> <i_lp_mmshare_version>
43012

> <i_f3d_flags>
0

> <s_epik_input>
W0NIM11jMW5jKFtjSF1zMSlbQ0gyXVtDSDJdW05IXUMoPU8pW0NAQEhdMltDSDJdW05IXUMoPU8pW05IXTI=

> <s_epik_cmdline>
J2VwaWtfcHl0aG9uJywgJy1waCcsICc3LjAnLCAnLXRuJywgJzgnLCAnLW1hJywgJzIwMCcsICctbWV0YWxfYmluZGluZycsICctaW1hZScsICc8aW5maWxlLm1hZT4nLCAnLW9tYWUnLCAnPG91dGZpbGUubWFlPic=

> <r_epik_Ionization_Penalty>
0.00110852

> <r_epik_Ionization_Penalty_Charging>
0

> <r_epik_Ionization_Penalty_Neutral>
0.00110852

> <r_epik_State_Penalty>
0.000695988

> <r_epik_Charging_Adjusted_Penalty>
0.000695988

> <i_epik_Tot_Q>
0

> <i_epik_Tot_abs_Q>
0

> <r_epik_Metal_State_Penalty>
-0

> <b_epik_Metal_Only>
0

> <s_lp_Force_Field>
OPLS_2005

> <r_lp_Energy>
23.9072

> <b_lp_Chiralities_Consistent>
1

> <s_lp_Variant>
AV-unprocessed.smi:3053-1

> <Gold.Version>
5.8.1

> <Gold.Id.Protein>
6NUR|6NUR_protein|mol2

> <Gold.PLP.Fitness>
45.3928

> <Gold.PLP.PLP>
-37.7685

> <Gold.PLP.part.hbond>
-4.5893

> <Gold.PLP.part.metal>
0.0000

> <Gold.PLP.part.buried>
-5.7190

> <Gold.PLP.part.nonpolar>
-28.6550

> <Gold.PLP.part.repulsive>
2.1382

> <Gold.PLP.ligand.clash>
0.0000

> <Gold.PLP.ligand.torsion>
0.8126

> <Gold.PLP.Chemscore.Hbond>
3.0640

> <Gold.PLP.Chemscore.CHOScore>
0.0000

> <Gold.PLP.Chemscore.Metal>
0.0000

> <Gold.Chemscore.Hbonds>
donor molecule, donor type, donor heavy atom, donor atom, acceptor molecule, acceptor atom, score
      L1  H     7    25       P1  8028  0.85
      L1  H    15    30       P1  8028  0.99
      P1  H  7989  7998       L1    14  0.40
      P1  H  8011  8017       L1    14  0.80

> <Gold.PLP.Chemscore.Internal.Correction>
0.0576

> <Gold.Rescore>
     Score         DG    S(hbond)    S(metal)    S(lipo)     H(rot)  DE(clash)    DE(int)     intcor
     14.01     -18.70       2.55        0.00      84.56       2.02       1.40       3.29       ----

> <Gold.Chemscore.Fitness>
14.0140

> <Gold.Chemscore.DG>
-18.7025

> <Gold.Chemscore.ZeroCoef>
-5.4800

> <Gold.Chemscore.Hbond>
2.5487

> <Gold.Chemscore.Metal>
0.0000

> <Gold.Chemscore.Lipo>
84.5628

> <Gold.Chemscore.Internal_Hbond>
0.0000

> <Gold.Chemscore.DEClash>
1.3958

> <Gold.Chemscore.DEInternal>
3.2927

> <Gold.Chemscore.Rot>
2.0250

> <Gold.Chemscore.Internal.Correction>
   9.000000E+99

> <Gold.Chemscore.Hbonds>
donor molecule, donor type, donor heavy atom, donor atom, acceptor molecule, acceptor atom, score
      L1  H     7    25       P1  8028  0.14
      L1  H    15    30       P1  8028  0.94
      P1  H  7989  7998       L1    14  0.36
      P1  H  8011  8017       L1    14  0.77

> <Gold.Chemscore.Hbond.Weighted>
-8.5126

> <Gold.Chemscore.Metal.Weighted>
-0.0000

> <Gold.Chemscore.Lipo.Weighted>
-9.8938

> <Gold.Chemscore.Internal_Hbond.Weighted>
0.0000

> <Gold.Chemscore.DEClash.Weighted>
1.3958

> <Gold.Chemscore.DEInternal.Weighted>
3.2927

> <Gold.Chemscore.Rot.Weighted>
5.1840

> <Gold.Chemscore.Internal.Correction.Weighted>
   9.000000E+99

> <Gold.Protein.RotatedTorsions>
[ 6907 6896 6895 6894 ] final  -40.55 input  -60.11 | X-H torsion
[ 7974 7965 7964 7962 ] final   75.24 input  175.53 | X-H torsion
[ 8008 7997 7996 7995 ] final   -4.53 input   59.86 | X-H torsion
[ 10167 10162 10161 10158 ] final -142.04 input  -65.29 | X-H torsion
[ 10718 10713 10712 10709 ] final  -58.22 input   66.30 | X-H torsion
[ 10763 10752 10751 10750 ] final  145.70 input  -60.55 | X-H torsion
[ 11005 11000 10999 10996 ] final   97.47 input  -57.11 | X-H torsion

> <Gold.Protein.ActiveResidues>
 VAL166  LYS551  ARG553  GLY616  TRP617  ASP618  TYR619  PRO620  LYS621  CYS622 
 ASP623  PHE694  ASN695  SER759  ASP760  ASP761  ALA762  ILE779  LEU786  VAL792 
 PHE793  MET794  SER795  GLU796  ALA797  LYS798  CYS799  TRP800  GLU811  SER814 

> <Gold.Protein.RotatedAtoms>
  150.9772  134.9134  159.7822 H   0  0  0  0  0  0  0  0  0  0  0  0  # atno 6907 bound_to 6896
  152.5210  134.3460  159.9244 H   0  0  0  0  0  0  0  0  0  0  0  0  # atno 6908 bound_to 6896
  151.3468  133.3900  159.2711 H   0  0  0  0  0  0  0  0  0  0  0  0  # atno 6909 bound_to 6896
  145.7181  139.2638  143.1612 H   0  0  0  0  0  0  0  0  0  0  0  0  # atno 7974 bound_to 7965
  154.6134  140.2481  155.7640 H   0  0  0  0  0  0  0  0  0  0  0  0  # atno 8008 bound_to 7997
  156.2384  140.2942  156.0326 H   0  0  0  0  0  0  0  0  0  0  0  0  # atno 8009 bound_to 7997
  155.2015  140.0394  157.2908 H   0  0  0  0  0  0  0  0  0  0  0  0  # atno 8010 bound_to 7997
  139.8127  143.7681  152.2664 H   0  0  0  0  0  0  0  0  0  0  0  0  # atno 10167 bound_to 10162
  156.1151  130.4171  150.0547 H   0  0  0  0  0  0  0  0  0  0  0  0  # atno 10718 bound_to 10713
  154.0097  135.2915  155.3393 H   0  0  0  0  0  0  0  0  0  0  0  0  # atno 10763 bound_to 10752
  154.7110  135.5149  153.8670 H   0  0  0  0  0  0  0  0  0  0  0  0  # atno 10764 bound_to 10752
  153.0728  135.6653  154.0330 H   0  0  0  0  0  0  0  0  0  0  0  0  # atno 10765 bound_to 10752
  139.8776  134.9002  156.4312 H   0  0  0  0  0  0  0  0  0  0  0  0  # atno 11005 bound_to 11000
  146.0651  140.7929  142.9716 LP  0  0  0  0  0  0  0  0  0  0  0  0  # atno 17320 bound_to 7965
  144.6924  140.3256  143.7225 LP  0  0  0  0  0  0  0  0  0  0  0  0  # atno 17321 bound_to 7965
  139.7835  144.7436  151.0055 LP  0  0  0  0  0  0  0  0  0  0  0  0  # atno 17342 bound_to 10162
  140.7817  143.4517  151.0404 LP  0  0  0  0  0  0  0  0  0  0  0  0  # atno 17343 bound_to 10162
  156.8500  130.9455  151.3626 LP  0  0  0  0  0  0  0  0  0  0  0  0  # atno 17370 bound_to 10713
  157.6334  130.8747  149.9315 LP  0  0  0  0  0  0  0  0  0  0  0  0  # atno 17371 bound_to 10713
  140.9065  133.7742  155.9741 LP  0  0  0  0  0  0  0  0  0  0  0  0  # atno 17394 bound_to 11000
  140.8593  134.2860  157.5241 LP  0  0  0  0  0  0  0  0  0  0  0  0  # atno 17395 bound_to 11000

$$$$
