AV-unprocessed.smi:3005|AV-procd|sdf|11443|dock5
  -GOLD-   2272016373D 1   1.00000     0.00000
 Structure written by MMmdl.
 33 34  0  0  0  0  0  0  0  0  1 V2000
  147.0692  142.9707  153.1902 C   0  0  0  0  0  0  0  0  0  0  0  0
  147.6428  141.6779  153.6844 C   0  0  0  0  0  0  0  0  0  0  0  0
  148.2673  141.6346  154.9340 N   0  0  0  0  0  0  0  0  0  0  0  0
  148.7240  140.4182  155.2416 C   0  0  0  0  0  0  0  0  0  0  0  0
  149.5620  139.9714  156.7270 S   0  0  0  0  0  0  0  0  0  0  0  0
  151.0147  141.0555  156.6067 C   0  0  0  0  0  0  0  0  0  0  0  0
  151.9200  140.9350  157.8360 C   0  0  0  0  0  0  0  0  0  0  0  0
  152.5354  139.8899  158.0467 O   0  0  0  0  0  0  0  0  0  0  0  0
  152.0627  142.0537  158.6622 N   0  0  0  0  0  0  0  0  0  0  0  0
  152.2171  143.3934  158.1149 C   0  0  0  0  0  0  0  0  0  0  0  0
  153.0360  143.6967  159.3735 C   0  0  0  0  0  0  0  0  0  0  0  0
  153.2039  142.1850  159.5564 C   0  0  0  0  0  0  0  0  0  0  0  0
  148.4136  139.2281  153.9874 S   0  0  0  0  0  0  0  0  0  0  0  0
  147.6295  140.4644  153.0360 C   0  0  0  0  0  0  0  0  0  0  0  0
  147.0474  140.1416  151.6952 C   0  0  0  0  0  0  0  0  0  0  0  0
  146.5100  138.7092  151.6575 C   0  0  0  0  0  0  0  0  0  0  0  0
  145.2221  138.5331  151.9635 N   0  0  0  0  0  0  0  0  0  0  0  0
  147.2478  137.7718  151.3601 O   0  0  0  0  0  0  0  0  0  0  0  0
  145.9916  142.8911  153.0456 H   0  0  0  0  0  0  0  0  0  0  0  0
  147.5111  143.2569  152.2357 H   0  0  0  0  0  0  0  0  0  0  0  0
  147.2464  143.7866  153.8916 H   0  0  0  0  0  0  0  0  0  0  0  0
  151.5933  140.7824  155.7237 H   0  0  0  0  0  0  0  0  0  0  0  0
  150.6729  142.0796  156.4613 H   0  0  0  0  0  0  0  0  0  0  0  0
  152.8089  143.4238  157.1976 H   0  0  0  0  0  0  0  0  0  0  0  0
  151.2842  143.9528  158.0354 H   0  0  0  0  0  0  0  0  0  0  0  0
  153.9670  144.2316  159.1839 H   0  0  0  0  0  0  0  0  0  0  0  0
  152.4519  144.1663  160.1671 H   0  0  0  0  0  0  0  0  0  0  0  0
  153.0173  141.8251  160.5686 H   0  0  0  0  0  0  0  0  0  0  0  0
  154.1378  141.8038  159.1381 H   0  0  0  0  0  0  0  0  0  0  0  0
  146.2556  140.8512  151.4510 H   0  0  0  0  0  0  0  0  0  0  0  0
  147.8065  140.2491  150.9197 H   0  0  0  0  0  0  0  0  0  0  0  0
  144.8217  137.6064  151.9522 H   0  0  0  0  0  0  0  0  0  0  0  0
  144.6523  139.3309  152.2055 H   0  0  0  0  0  0  0  0  0  0  0  0
  1  2  1  0  0  0  0
  1 19  1  0  0  0  0
  1 20  1  0  0  0  0
  1 21  1  0  0  0  0
  2 14  2  0  0  0  0
  2  3  1  0  0  0  0
  3  4  2  0  0  0  0
  4  5  1  0  0  0  0
  4 13  1  0  0  0  0
  5  6  1  0  0  0  0
  6  7  1  0  0  0  0
  6 22  1  0  0  0  0
  6 23  1  0  0  0  0
  7  8  2  0  0  0  0
  7  9  1  0  0  0  0
  9 12  1  0  0  0  0
  9 10  1  0  0  0  0
 10 11  1  0  0  0  0
 10 24  1  0  0  0  0
 10 25  1  0  0  0  0
 11 12  1  0  0  0  0
 11 26  1  0  0  0  0
 11 27  1  0  0  0  0
 12 28  1  0  0  0  0
 12 29  1  0  0  0  0
 13 14  1  0  0  0  0
 14 15  1  0  0  0  0
 15 16  1  0  0  0  0
 15 30  1  0  0  0  0
 15 31  1  0  0  0  0
 16 17  1  0  0  0  0
 16 18  2  0  0  0  0
 17 32  1  0  0  0  0
 17 33  1  0  0  0  0
M  END
> <s_m_source_file>
AV-unprocessed.smi

> <i_m_source_file_index>
3005

> <i_lp_mmshare_version>
43012

> <i_f3d_flags>
0

> <s_epik_input>
W05IMl1DKD1PKVtDSDJdYzFzYyhuYzFbQ0gzXSlTW0NIMl1DKD1PKU4yW0NIMl1bQ0gyXVtDSDJdMg==

> <s_epik_cmdline>
J2VwaWtfcHl0aG9uJywgJy1waCcsICc3LjAnLCAnLXRuJywgJzgnLCAnLW1hJywgJzIwMCcsICctbWV0YWxfYmluZGluZycsICctaW1hZScsICc8aW5maWxlLm1hZT4nLCAnLW9tYWUnLCAnPG91dGZpbGUubWFlPic=

> <r_lp_tautomer_probability>
1

> <r_epik_Ionization_Penalty>
8.1701e-07

> <r_epik_Ionization_Penalty_Charging>
0

> <r_epik_Ionization_Penalty_Neutral>
8.1701e-07

> <r_epik_State_Penalty>
-0

> <r_epik_Charging_Adjusted_Penalty>
0

> <i_epik_Tot_Q>
0

> <i_epik_Tot_abs_Q>
0

> <r_epik_Metal_State_Penalty>
-0

> <b_epik_Metal_Only>
0

> <s_lp_Force_Field>
OPLS_2005

> <r_lp_Energy>
11.7673

> <b_lp_Chiralities_Consistent>
1

> <s_lp_Variant>
AV-unprocessed.smi:3005-1

> <Gold.Version>
5.8.1

> <Gold.Id.Protein>
6NUR|6NUR_protein|mol2

> <Gold.PLP.Fitness>
41.6424

> <Gold.PLP.PLP>
-34.1933

> <Gold.PLP.part.hbond>
-4.0000

> <Gold.PLP.part.metal>
0.0000

> <Gold.PLP.part.buried>
-1.0135

> <Gold.PLP.part.nonpolar>
-34.4266

> <Gold.PLP.part.repulsive>
5.8165

> <Gold.PLP.ligand.clash>
0.0000

> <Gold.PLP.ligand.torsion>
1.2165

> <Gold.PLP.Chemscore.Hbond>
2.9920

> <Gold.PLP.Chemscore.CHOScore>
0.0000

> <Gold.PLP.Chemscore.Metal>
0.0000

> <Gold.Chemscore.Hbonds>
donor molecule, donor type, donor heavy atom, donor atom, acceptor molecule, acceptor atom, score
      L1  H    17    33       P1 10175  0.94
      P1  H  7954  7966       L1    18  1.00
      P1  H  7997  8009       L1     8  0.39

> <Gold.PLP.Chemscore.Internal.Correction>
0.9060

> <Gold.Rescore>
     Score         DG    S(hbond)    S(metal)    S(lipo)     H(rot)  DE(clash)    DE(int)     intcor
     14.85     -18.85       2.97        0.00      82.20       2.41       2.89       1.11       ----

> <Gold.Chemscore.Fitness>
14.8544

> <Gold.Chemscore.DG>
-18.8474

> <Gold.Chemscore.ZeroCoef>
-5.4800

> <Gold.Chemscore.Hbond>
2.9737

> <Gold.Chemscore.Metal>
0.0000

> <Gold.Chemscore.Lipo>
82.2021

> <Gold.Chemscore.Internal_Hbond>
0.0000

> <Gold.Chemscore.DEClash>
2.8855

> <Gold.Chemscore.DEInternal>
1.1076

> <Gold.Chemscore.Rot>
2.4149

> <Gold.Chemscore.Internal.Correction>
   9.000000E+99

> <Gold.Chemscore.Hbonds>
donor molecule, donor type, donor heavy atom, donor atom, acceptor molecule, acceptor atom, score
      L1  H    17    33       P1 10175  0.90
      P1  H  7954  7966       L1    18  0.97
      P1  H  7997  8009       L1     8  0.22

> <Gold.Chemscore.Hbond.Weighted>
-9.9320

> <Gold.Chemscore.Metal.Weighted>
-0.0000

> <Gold.Chemscore.Lipo.Weighted>
-9.6176

> <Gold.Chemscore.Internal_Hbond.Weighted>
0.0000

> <Gold.Chemscore.DEClash.Weighted>
2.8855

> <Gold.Chemscore.DEInternal.Weighted>
1.1076

> <Gold.Chemscore.Rot.Weighted>
6.1822

> <Gold.Chemscore.Internal.Correction.Weighted>
   9.000000E+99

> <Gold.Protein.RotatedTorsions>
[ 6907 6896 6895 6894 ] final   45.69 input  -60.11 | X-H torsion
[ 7974 7965 7964 7962 ] final  136.97 input  175.53 | X-H torsion
[ 8008 7997 7996 7995 ] final  166.83 input   59.86 | X-H torsion
[ 10167 10162 10161 10158 ] final   99.06 input  -65.29 | X-H torsion
[ 10718 10713 10712 10709 ] final  -70.04 input   66.30 | X-H torsion
[ 10763 10752 10751 10750 ] final  -13.66 input  -60.55 | X-H torsion
[ 11005 11000 10999 10996 ] final -151.62 input  -57.11 | X-H torsion

> <Gold.Protein.ActiveResidues>
 VAL166  LYS551  ARG553  GLY616  TRP617  ASP618  TYR619  PRO620  LYS621  CYS622 
 ASP623  PHE694  ASN695  SER759  ASP760  ASP761  ALA762  ILE779  LEU786  VAL792 
 PHE793  MET794  SER795  GLU796  ALA797  LYS798  CYS799  TRP800  GLU811  SER814 

> <Gold.Protein.RotatedAtoms>
  152.2475  134.8166  160.0450 H   0  0  0  0  0  0  0  0  0  0  0  0  # atno 6907 bound_to 6896
  151.8858  133.3500  159.3790 H   0  0  0  0  0  0  0  0  0  0  0  0  # atno 6908 bound_to 6896
  150.7073  134.4899  159.5555 H   0  0  0  0  0  0  0  0  0  0  0  0  # atno 6909 bound_to 6896
  144.9513  139.4816  143.5524 H   0  0  0  0  0  0  0  0  0  0  0  0  # atno 7974 bound_to 7965
  156.1686  140.1633  156.8488 H   0  0  0  0  0  0  0  0  0  0  0  0  # atno 8008 bound_to 7997
  154.5233  140.0773  156.8246 H   0  0  0  0  0  0  0  0  0  0  0  0  # atno 8009 bound_to 7997
  155.3560  140.3392  155.4242 H   0  0  0  0  0  0  0  0  0  0  0  0  # atno 8010 bound_to 7997
  139.7652  144.6941  151.0235 H   0  0  0  0  0  0  0  0  0  0  0  0  # atno 10167 bound_to 10162
  156.0427  130.4324  150.2236 H   0  0  0  0  0  0  0  0  0  0  0  0  # atno 10718 bound_to 10713
  153.5166  135.7016  153.5753 H   0  0  0  0  0  0  0  0  0  0  0  0  # atno 10763 bound_to 10752
  153.3820  135.3918  155.1863 H   0  0  0  0  0  0  0  0  0  0  0  0  # atno 10764 bound_to 10752
  154.8698  135.3837  154.4651 H   0  0  0  0  0  0  0  0  0  0  0  0  # atno 10765 bound_to 10752
  140.7276  134.3657  157.5172 H   0  0  0  0  0  0  0  0  0  0  0  0  # atno 11005 bound_to 11000
  146.3322  139.8600  142.8858 LP  0  0  0  0  0  0  0  0  0  0  0  0  # atno 17320 bound_to 7965
  145.2840  141.0147  143.3701 LP  0  0  0  0  0  0  0  0  0  0  0  0  # atno 17321 bound_to 7965
  140.7810  143.4651  151.0223 LP  0  0  0  0  0  0  0  0  0  0  0  0  # atno 17342 bound_to 10162
  139.8336  143.7657  152.3180 LP  0  0  0  0  0  0  0  0  0  0  0  0  # atno 17343 bound_to 10162
  157.0329  131.0013  151.3306 LP  0  0  0  0  0  0  0  0  0  0  0  0  # atno 17370 bound_to 10713
  157.5264  130.8030  149.7867 LP  0  0  0  0  0  0  0  0  0  0  0  0  # atno 17371 bound_to 10713
  139.8833  134.8997  156.2772 LP  0  0  0  0  0  0  0  0  0  0  0  0  # atno 17394 bound_to 11000
  140.9949  133.7186  156.0871 LP  0  0  0  0  0  0  0  0  0  0  0  0  # atno 17395 bound_to 11000

$$$$
