AV-unprocessed.smi:229|AV-procd|sdf|1762|dock1
  -GOLD-   2262020293D 1   1.00000     0.00000
 Structure written by MMmdl.
 58 62  0  0  0  0  0  0  0  0  1 V2000
  152.1778  130.9123  156.0563 C   0  0  0  0  0  0  0  0  0  0  0  0
  152.1539  132.1063  157.0187 C   0  0  0  0  0  0  0  0  0  0  0  0
  151.3106  133.2779  156.4942 C   0  0  1  0  0  0  0  0  0  0  0  0
  152.1158  134.5865  156.4408 C   0  0  0  0  0  0  0  0  0  0  0  0
  151.2931  135.6385  155.8623 N   0  0  0  0  0  0  0  0  0  0  0  0
  151.7980  136.8868  155.9481 C   0  0  0  0  0  0  0  0  0  0  0  0
  152.8442  137.1813  155.1380 N   0  0  0  0  0  0  0  0  0  0  0  0
  153.3969  138.3978  155.1752 C   0  0  0  0  0  0  0  0  0  0  0  0
  153.0663  139.4425  155.9379 N   0  0  0  0  0  0  0  0  0  0  0  0
  152.0205  139.1436  156.7608 C   0  0  0  0  0  0  0  0  0  0  0  0
  151.3322  137.9000  156.8336 C   0  0  0  0  0  0  0  0  0  0  0  0
  150.3323  137.9693  157.7969 N   0  0  0  0  0  0  0  0  0  0  0  0
  150.4194  139.1863  158.2610 C   0  0  0  0  0  0  0  0  0  0  0  0
  151.4038  139.9609  157.6903 N   0  0  0  0  0  0  0  0  0  0  0  0
  151.7254  141.3409  158.0098 C   0  0  0  0  0  0  0  0  0  0  0  0
  151.9893  141.5539  159.5163 C   0  0  1  0  0  0  0  0  0  0  0  0
  153.3226  141.1658  159.7873 O   0  0  0  0  0  0  0  0  0  0  0  0
  151.8258  143.0222  159.9580 C   0  0  1  0  0  0  0  0  0  0  0  0
  152.6063  144.0358  159.1190 C   0  0  0  0  0  0  0  0  0  0  0  0
  151.8447  145.3332  159.3301 C   0  0  0  0  0  0  0  0  0  0  0  0
  150.4657  144.8730  159.8085 C   0  0  0  0  0  0  0  0  0  0  0  0
  150.4934  143.4545  159.7234 O   0  0  0  0  0  0  0  0  0  0  0  0
  150.8085  135.3028  154.5319 C   0  0  0  0  0  0  0  0  0  0  0  0
  150.0480  133.9555  154.5519 C   0  0  2  0  0  0  0  0  0  0  0  0
  149.7343  133.4818  153.1357 C   0  0  0  0  0  0  0  0  0  0  0  0
  148.3049  133.9524  152.9152 C   0  0  0  0  0  0  0  0  0  0  0  0
  147.7079  133.6981  154.1727 O   0  0  0  0  0  0  0  0  0  0  0  0
  148.6400  134.0613  155.1843 C   0  0  0  0  0  0  0  0  0  0  0  0
  150.8612  132.9557  155.1754 O   0  0  0  0  0  0  0  0  0  0  0  0
  152.7761  130.0972  156.4640 H   0  0  0  0  0  0  0  0  0  0  0  0
  152.6065  131.1882  155.0925 H   0  0  0  0  0  0  0  0  0  0  0  0
  151.1723  130.5298  155.8782 H   0  0  0  0  0  0  0  0  0  0  0  0
  151.7546  131.7743  157.9776 H   0  0  0  0  0  0  0  0  0  0  0  0
  153.1736  132.4423  157.2108 H   0  0  0  0  0  0  0  0  0  0  0  0
  150.4579  133.4151  157.1596 H   0  0  0  0  0  0  0  0  0  0  0  0
  152.4360  134.8754  157.4428 H   0  0  0  0  0  0  0  0  0  0  0  0
  153.0140  134.4390  155.8407 H   0  0  0  0  0  0  0  0  0  0  0  0
  154.2225  138.5567  154.4974 H   0  0  0  0  0  0  0  0  0  0  0  0
  149.7620  139.5553  159.0350 H   0  0  0  0  0  0  0  0  0  0  0  0
  152.5954  141.6423  157.4246 H   0  0  0  0  0  0  0  0  0  0  0  0
  150.8935  141.9596  157.6729 H   0  0  0  0  0  0  0  0  0  0  0  0
  151.3147  140.9214  160.0950 H   0  0  0  0  0  0  0  0  0  0  0  0
  153.6667  141.7307  160.4622 H   0  0  0  0  0  0  0  0  0  0  0  0
  152.0766  143.1468  161.0135 H   0  0  0  0  0  0  0  0  0  0  0  0
  153.6546  144.1110  159.4095 H   0  0  0  0  0  0  0  0  0  0  0  0
  152.5670  143.7586  158.0645 H   0  0  0  0  0  0  0  0  0  0  0  0
  152.3233  145.9506  160.0909 H   0  0  0  0  0  0  0  0  0  0  0  0
  151.7883  145.9155  158.4098 H   0  0  0  0  0  0  0  0  0  0  0  0
  150.2988  145.1709  160.8446 H   0  0  0  0  0  0  0  0  0  0  0  0
  149.6561  145.2803  159.2021 H   0  0  0  0  0  0  0  0  0  0  0  0
  150.1660  136.0985  154.1512 H   0  0  0  0  0  0  0  0  0  0  0  0
  151.6640  135.2370  153.8580 H   0  0  0  0  0  0  0  0  0  0  0  0
  150.4268  133.8574  152.3818 H   0  0  0  0  0  0  0  0  0  0  0  0
  149.7582  132.3918  153.0901 H   0  0  0  0  0  0  0  0  0  0  0  0
  148.2693  135.0206  152.6961 H   0  0  0  0  0  0  0  0  0  0  0  0
  147.8005  133.4146  152.1122 H   0  0  0  0  0  0  0  0  0  0  0  0
  148.5044  133.4003  156.0398 H   0  0  0  0  0  0  0  0  0  0  0  0
  148.4282  135.0786  155.5159 H   0  0  0  0  0  0  0  0  0  0  0  0
  1  2  1  0  0  0  0
  1 30  1  0  0  0  0
  1 31  1  0  0  0  0
  1 32  1  0  0  0  0
  2  3  1  0  0  0  0
  2 33  1  0  0  0  0
  2 34  1  0  0  0  0
  3 29  1  0  0  0  0
  3  4  1  0  0  0  0
  3 35  1  0  0  0  0
  4  5  1  0  0  0  0
  4 36  1  0  0  0  0
  4 37  1  0  0  0  0
  5  6  1  0  0  0  0
  5 23  1  0  0  0  0
  6 11  1  0  0  0  0
  6  7  2  0  0  0  0
  7  8  1  0  0  0  0
  8  9  2  0  0  0  0
  8 38  1  0  0  0  0
  9 10  1  0  0  0  0
 10 14  1  0  0  0  0
 10 11  2  0  0  0  0
 11 12  1  0  0  0  0
 12 13  2  0  0  0  0
 13 14  1  0  0  0  0
 13 39  1  0  0  0  0
 14 15  1  0  0  0  0
 15 16  1  0  0  0  0
 15 40  1  0  0  0  0
 15 41  1  0  0  0  0
 16 17  1  0  0  0  0
 16 18  1  0  0  0  0
 16 42  1  0  0  0  0
 17 43  1  0  0  0  0
 18 22  1  0  0  0  0
 18 19  1  0  0  0  0
 18 44  1  0  0  0  0
 19 20  1  0  0  0  0
 19 45  1  0  0  0  0
 19 46  1  0  0  0  0
 20 21  1  0  0  0  0
 20 47  1  0  0  0  0
 20 48  1  0  0  0  0
 21 22  1  0  0  0  0
 21 49  1  0  0  0  0
 21 50  1  0  0  0  0
 23 24  1  0  0  0  0
 23 51  1  0  0  0  0
 23 52  1  0  0  0  0
 24 28  1  0  0  0  0
 24 25  1  0  0  0  0
 24 29  1  0  0  0  0
 25 26  1  0  0  0  0
 25 53  1  0  0  0  0
 25 54  1  0  0  0  0
 26 27  1  0  0  0  0
 26 55  1  0  0  0  0
 26 56  1  0  0  0  0
 27 28  1  0  0  0  0
 28 57  1  0  0  0  0
 28 58  1  0  0  0  0
M  END
> <s_m_source_file>
AV-unprocessed.smi

> <i_m_source_file_index>
229

> <i_lp_mmshare_version>
43012

> <i_f3d_flags>
0

> <s_epik_input>
W0NIMl0xT1tDSDJdW0NIMl1bQ0BdMTJbQ0gyXU4oW0NIMl1bQ0BIXShPMilbQ0gyXVtDSDNdKWMobltjSF1uMyljKGMzNCluW2NIXW40W0NIMl1bQ0BIXShbT0hdKVtDQEBIXTVbQ0gyXVtDSDJdW0NIMl1PNQ==

> <s_epik_cmdline>
J2VwaWtfcHl0aG9uJywgJy1waCcsICc3LjAnLCAnLXRuJywgJzgnLCAnLW1hJywgJzIwMCcsICctbWV0YWxfYmluZGluZycsICctaW1hZScsICc8aW5maWxlLm1hZT4nLCAnLW9tYWUnLCAnPG91dGZpbGUubWFlPic=

> <r_lp_tautomer_probability>
1

> <r_epik_Ionization_Penalty>
0.00318402

> <r_epik_Ionization_Penalty_Charging>
0

> <r_epik_Ionization_Penalty_Neutral>
0.00318402

> <r_epik_State_Penalty>
0.00215642

> <r_epik_Charging_Adjusted_Penalty>
0.00215642

> <i_epik_Tot_Q>
0

> <i_epik_Tot_abs_Q>
0

> <r_epik_Metal_State_Penalty>
-0

> <b_epik_Metal_Only>
0

> <s_lp_Force_Field>
OPLS_2005

> <r_lp_Energy>
58.1289

> <b_lp_Chiralities_Consistent>
1

> <s_lp_Variant>
AV-unprocessed.smi:229-16

> <Gold.Version>
5.8.1

> <Gold.Id.Protein>
6NUR|6NUR_protein|mol2

> <Gold.PLP.Fitness>
48.9775

> <Gold.PLP.PLP>
-45.3786

> <Gold.PLP.part.hbond>
-2.6666

> <Gold.PLP.part.metal>
0.0000

> <Gold.PLP.part.buried>
-6.5770

> <Gold.PLP.part.nonpolar>
-37.6129

> <Gold.PLP.part.repulsive>
0.2258

> <Gold.PLP.ligand.clash>
0.0000

> <Gold.PLP.ligand.torsion>
1.1782

> <Gold.PLP.Chemscore.Hbond>
1.8640

> <Gold.PLP.Chemscore.CHOScore>
0.0000

> <Gold.PLP.Chemscore.Metal>
0.0000

> <Gold.Chemscore.Hbonds>
donor molecule, donor type, donor heavy atom, donor atom, acceptor molecule, acceptor atom, score
      P1  H  7997  8008       L1     9  0.98
      P1  H 10752 10763       L1     7  0.26

> <Gold.PLP.Chemscore.Internal.Correction>
0.3633

> <Gold.Rescore>
     Score         DG    S(hbond)    S(metal)    S(lipo)     H(rot)  DE(clash)    DE(int)     intcor
     15.84     -17.19       1.65        0.00     106.76       2.46       0.11       1.24       ----

> <Gold.Chemscore.Fitness>
15.8358

> <Gold.Chemscore.DG>
-17.1906

> <Gold.Chemscore.ZeroCoef>
-5.4800

> <Gold.Chemscore.Hbond>
1.6512

> <Gold.Chemscore.Metal>
0.0000

> <Gold.Chemscore.Lipo>
106.7598

> <Gold.Chemscore.Internal_Hbond>
0.0000

> <Gold.Chemscore.DEClash>
0.1113

> <Gold.Chemscore.DEInternal>
1.2435

> <Gold.Chemscore.Rot>
2.4591

> <Gold.Chemscore.Internal.Correction>
   9.000000E+99

> <Gold.Chemscore.Hbonds>
donor molecule, donor type, donor heavy atom, donor atom, acceptor molecule, acceptor atom, score
      P1  H  7997  8008       L1     9  0.27
      P1  H 10752 10763       L1     7  0.02

> <Gold.Chemscore.Hbond.Weighted>
-5.5150

> <Gold.Chemscore.Metal.Weighted>
-0.0000

> <Gold.Chemscore.Lipo.Weighted>
-12.4909

> <Gold.Chemscore.Internal_Hbond.Weighted>
0.0000

> <Gold.Chemscore.DEClash.Weighted>
0.1113

> <Gold.Chemscore.DEInternal.Weighted>
1.2435

> <Gold.Chemscore.Rot.Weighted>
6.2953

> <Gold.Chemscore.Internal.Correction.Weighted>
   9.000000E+99

> <Gold.Protein.RotatedTorsions>
[ 6907 6896 6895 6894 ] final  -18.83 input  -60.11 | X-H torsion
[ 7974 7965 7964 7962 ] final -171.56 input  175.53 | X-H torsion
[ 8008 7997 7996 7995 ] final  -22.72 input   59.86 | X-H torsion
[ 10167 10162 10161 10158 ] final   16.03 input  -65.29 | X-H torsion
[ 10718 10713 10712 10709 ] final -132.00 input   66.30 | X-H torsion
[ 10763 10752 10751 10750 ] final   63.39 input  -60.55 | X-H torsion
[ 11005 11000 10999 10996 ] final   86.10 input  -57.11 | X-H torsion

> <Gold.Protein.ActiveResidues>
 VAL166  LYS551  ARG553  GLY616  TRP617  ASP618  TYR619  PRO620  LYS621  CYS622 
 ASP623  PHE694  ASN695  SER759  ASP760  ASP761  ALA762  ILE779  LEU786  VAL792 
 PHE793  MET794  SER795  GLU796  ALA797  LYS798  CYS799  TRP800  GLU811  SER814 

> <Gold.Protein.RotatedAtoms>
  151.2723  135.0688  159.9138 H   0  0  0  0  0  0  0  0  0  0  0  0  # atno 6907 bound_to 6896
  152.5348  134.0117  159.7952 H   0  0  0  0  0  0  0  0  0  0  0  0  # atno 6908 bound_to 6896
  151.0358  133.5700  159.2687 H   0  0  0  0  0  0  0  0  0  0  0  0  # atno 6909 bound_to 6896
  144.7155  140.1903  143.6349 H   0  0  0  0  0  0  0  0  0  0  0  0  # atno 7974 bound_to 7965
  154.4627  140.2000  156.0201 H   0  0  0  0  0  0  0  0  0  0  0  0  # atno 8008 bound_to 7997
  156.0870  140.3263  155.7738 H   0  0  0  0  0  0  0  0  0  0  0  0  # atno 8009 bound_to 7997
  155.5019  140.0554  157.2928 H   0  0  0  0  0  0  0  0  0  0  0  0  # atno 8010 bound_to 7997
  140.5826  143.8951  150.6803 H   0  0  0  0  0  0  0  0  0  0  0  0  # atno 10167 bound_to 10162
  156.2301  130.7032  151.0849 H   0  0  0  0  0  0  0  0  0  0  0  0  # atno 10718 bound_to 10713
  153.0016  135.5431  154.6344 H   0  0  0  0  0  0  0  0  0  0  0  0  # atno 10763 bound_to 10752
  154.5614  135.2834  155.0917 H   0  0  0  0  0  0  0  0  0  0  0  0  # atno 10764 bound_to 10752
  154.2119  135.6466  153.5170 H   0  0  0  0  0  0  0  0  0  0  0  0  # atno 10765 bound_to 10752
  139.8953  134.8332  156.2674 H   0  0  0  0  0  0  0  0  0  0  0  0  # atno 11005 bound_to 11000
  145.8774  139.2304  143.1625 LP  0  0  0  0  0  0  0  0  0  0  0  0  # atno 17320 bound_to 7965
  146.0027  140.8506  143.0010 LP  0  0  0  0  0  0  0  0  0  0  0  0  # atno 17321 bound_to 7965
  140.2454  143.3632  152.1451 LP  0  0  0  0  0  0  0  0  0  0  0  0  # atno 17342 bound_to 10162
  139.5179  144.6998  151.5527 LP  0  0  0  0  0  0  0  0  0  0  0  0  # atno 17343 bound_to 10162
  157.7129  131.0725  150.6435 LP  0  0  0  0  0  0  0  0  0  0  0  0  # atno 17370 bound_to 10713
  156.6502  130.4483  149.5722 LP  0  0  0  0  0  0  0  0  0  0  0  0  # atno 17371 bound_to 10713
  141.0123  133.7089  156.1131 LP  0  0  0  0  0  0  0  0  0  0  0  0  # atno 17394 bound_to 11000
  140.7350  134.4212  157.5561 LP  0  0  0  0  0  0  0  0  0  0  0  0  # atno 17395 bound_to 11000

$$$$
