AV-unprocessed.smi:3168|AV-procd|sdf|12100|dock1
  -GOLD-   2272017533D 1   1.00000     0.00000
 Structure written by MMmdl.
 33 34  0  0  0  0  0  0  0  0  1 V2000
  153.4481  141.6713  161.4337 C   0  0  0  0  0  0  0  0  0  0  0  0
  153.5290  142.2169  159.9931 C   0  0  1  0  0  0  0  0  0  0  0  0
  153.1448  141.1643  158.9433 C   0  0  0  0  0  0  0  0  0  0  0  0
  153.7201  140.0759  158.9068 O   0  0  0  0  0  0  0  0  0  0  0  0
  152.1471  141.4984  158.1098 N   0  0  0  0  0  0  0  0  0  0  0  0
  151.5496  140.6220  157.1087 C   0  0  0  0  0  0  0  0  0  0  0  0
  150.5466  141.3853  156.2279 C   0  0  2  0  0  0  0  0  0  0  0  0
  149.1140  141.4252  156.7578 C   0  0  0  0  0  0  0  0  0  0  0  0
  148.2890  141.6695  155.5059 C   0  0  0  0  0  0  0  0  0  0  0  0
  149.2221  141.2669  154.3586 C   0  0  0  0  0  0  0  0  0  0  0  0
  150.3865  140.7353  154.9782 O   0  0  0  0  0  0  0  0  0  0  0  0
  152.7275  143.4210  159.8008 N   0  0  0  0  0  0  0  0  0  0  0  0
  151.9831  144.1010  160.7439 C   0  0  0  0  0  0  0  0  0  0  0  0
  151.4454  145.1970  160.1327 C   0  0  0  0  0  0  0  0  0  0  0  0
  151.9347  145.1140  158.8000 C   0  0  0  0  0  0  0  0  0  0  0  0
  152.7093  144.0595  158.6071 N   0  0  0  0  0  0  0  0  0  0  0  0
  154.0916  140.7998  161.5588 H   0  0  0  0  0  0  0  0  0  0  0  0
  152.4350  141.3729  161.7068 H   0  0  0  0  0  0  0  0  0  0  0  0
  153.7755  142.4236  162.1517 H   0  0  0  0  0  0  0  0  0  0  0  0
  154.5692  142.4959  159.8163 H   0  0  0  0  0  0  0  0  0  0  0  0
  151.7389  142.4165  158.2080 H   0  0  0  0  0  0  0  0  0  0  0  0
  152.3534  140.2287  156.4864 H   0  0  0  0  0  0  0  0  0  0  0  0
  151.0723  139.7571  157.5725 H   0  0  0  0  0  0  0  0  0  0  0  0
  150.9034  142.4012  156.0471 H   0  0  0  0  0  0  0  0  0  0  0  0
  148.8459  140.4600  157.1895 H   0  0  0  0  0  0  0  0  0  0  0  0
  148.9650  142.1886  157.5224 H   0  0  0  0  0  0  0  0  0  0  0  0
  147.3722  141.0792  155.5152 H   0  0  0  0  0  0  0  0  0  0  0  0
  148.0115  142.7206  155.4182 H   0  0  0  0  0  0  0  0  0  0  0  0
  148.7704  140.5313  153.6925 H   0  0  0  0  0  0  0  0  0  0  0  0
  149.4967  142.1394  153.7643 H   0  0  0  0  0  0  0  0  0  0  0  0
  151.9004  143.7522  161.7626 H   0  0  0  0  0  0  0  0  0  0  0  0
  150.8054  145.9475  160.5721 H   0  0  0  0  0  0  0  0  0  0  0  0
  151.7564  145.7869  157.9742 H   0  0  0  0  0  0  0  0  0  0  0  0
  1  2  1  0  0  0  0
  1 17  1  0  0  0  0
  1 18  1  0  0  0  0
  1 19  1  0  0  0  0
  2  3  1  0  0  0  0
  2 12  1  0  0  0  0
  2 20  1  0  0  0  0
  3  4  2  0  0  0  0
  3  5  1  0  0  0  0
  5  6  1  0  0  0  0
  5 21  1  0  0  0  0
  6  7  1  0  0  0  0
  6 22  1  0  0  0  0
  6 23  1  0  0  0  0
  7 11  1  0  0  0  0
  7  8  1  0  0  0  0
  7 24  1  0  0  0  0
  8  9  1  0  0  0  0
  8 25  1  0  0  0  0
  8 26  1  0  0  0  0
  9 10  1  0  0  0  0
  9 27  1  0  0  0  0
  9 28  1  0  0  0  0
 10 11  1  0  0  0  0
 10 29  1  0  0  0  0
 10 30  1  0  0  0  0
 12 16  1  0  0  0  0
 12 13  1  0  0  0  0
 13 14  2  0  0  0  0
 13 31  1  0  0  0  0
 14 15  1  0  0  0  0
 14 32  1  0  0  0  0
 15 16  2  0  0  0  0
 15 33  1  0  0  0  0
M  END
> <s_m_source_file>
AV-unprocessed.smi

> <i_m_source_file_index>
3168

> <i_lp_mmshare_version>
43012

> <i_f3d_flags>
0

> <s_epik_input>
bjFbY0hdW2NIXVtjSF1uMVtDQEhdKFtDSDNdKUMoPU8pW05IXVtDSDJdW0NAQEhdMltDSDJdW0NIMl1bQ0gyXU8y

> <s_epik_cmdline>
J2VwaWtfcHl0aG9uJywgJy1waCcsICc3LjAnLCAnLXRuJywgJzgnLCAnLW1hJywgJzIwMCcsICctbWV0YWxfYmluZGluZycsICctaW1hZScsICc8aW5maWxlLm1hZT4nLCAnLW9tYWUnLCAnPG91dGZpbGUubWFlPic=

> <r_lp_tautomer_probability>
1

> <r_epik_Ionization_Penalty>
4.14877e-05

> <r_epik_Ionization_Penalty_Charging>
0

> <r_epik_Ionization_Penalty_Neutral>
4.14877e-05

> <r_epik_State_Penalty>
-0

> <r_epik_Charging_Adjusted_Penalty>
0

> <i_epik_Tot_Q>
0

> <i_epik_Tot_abs_Q>
0

> <r_epik_Metal_State_Penalty>
-0

> <b_epik_Metal_Only>
0

> <s_lp_Force_Field>
OPLS_2005

> <r_lp_Energy>
21.2446

> <b_lp_Chiralities_Consistent>
1

> <s_lp_Variant>
AV-unprocessed.smi:3168-2

> <Gold.Version>
5.8.1

> <Gold.Id.Protein>
6NUR|6NUR_protein|mol2

> <Gold.PLP.Fitness>
44.7248

> <Gold.PLP.PLP>
-39.7423

> <Gold.PLP.part.hbond>
-2.0000

> <Gold.PLP.part.metal>
0.0000

> <Gold.PLP.part.buried>
-3.7781

> <Gold.PLP.part.nonpolar>
-33.1112

> <Gold.PLP.part.repulsive>
0.1761

> <Gold.PLP.ligand.clash>
0.0000

> <Gold.PLP.ligand.torsion>
0.3918

> <Gold.PLP.Chemscore.Hbond>
1.8800

> <Gold.PLP.Chemscore.CHOScore>
0.0000

> <Gold.PLP.Chemscore.Metal>
0.0000

> <Gold.Chemscore.Hbonds>
donor molecule, donor type, donor heavy atom, donor atom, acceptor molecule, acceptor atom, score
      P1  H  7989  7998       L1    11  0.82
      P1  H  7997  8008       L1     4  1.00

> <Gold.PLP.Chemscore.Internal.Correction>
0.1262

> <Gold.Rescore>
     Score         DG    S(hbond)    S(metal)    S(lipo)     H(rot)  DE(clash)    DE(int)     intcor
     13.86     -16.12       1.29        0.00      89.34       1.61       0.36       1.90       ----

> <Gold.Chemscore.Fitness>
13.8599

> <Gold.Chemscore.DG>
-16.1180

> <Gold.Chemscore.ZeroCoef>
-5.4800

> <Gold.Chemscore.Hbond>
1.2891

> <Gold.Chemscore.Metal>
0.0000

> <Gold.Chemscore.Lipo>
89.3379

> <Gold.Chemscore.Internal_Hbond>
0.0000

> <Gold.Chemscore.DEClash>
0.3581

> <Gold.Chemscore.DEInternal>
1.9000

> <Gold.Chemscore.Rot>
1.6094

> <Gold.Chemscore.Internal.Correction>
   9.000000E+99

> <Gold.Chemscore.Hbonds>
donor molecule, donor type, donor heavy atom, donor atom, acceptor molecule, acceptor atom, score
      P1  H  7989  7998       L1    11  0.18
      P1  H  7997  8008       L1     4  0.49

> <Gold.Chemscore.Hbond.Weighted>
-4.3055

> <Gold.Chemscore.Metal.Weighted>
-0.0000

> <Gold.Chemscore.Lipo.Weighted>
-10.4525

> <Gold.Chemscore.Internal_Hbond.Weighted>
0.0000

> <Gold.Chemscore.DEClash.Weighted>
0.3581

> <Gold.Chemscore.DEInternal.Weighted>
1.9000

> <Gold.Chemscore.Rot.Weighted>
4.1201

> <Gold.Chemscore.Internal.Correction.Weighted>
   9.000000E+99

> <Gold.Protein.RotatedTorsions>
[ 6907 6896 6895 6894 ] final  -95.53 input  -60.11 | X-H torsion
[ 7974 7965 7964 7962 ] final  113.80 input  175.53 | X-H torsion
[ 8008 7997 7996 7995 ] final  -97.29 input   59.86 | X-H torsion
[ 10167 10162 10161 10158 ] final -165.20 input  -65.29 | X-H torsion
[ 10718 10713 10712 10709 ] final   40.86 input   66.30 | X-H torsion
[ 10763 10752 10751 10750 ] final  144.05 input  -60.55 | X-H torsion
[ 11005 11000 10999 10996 ] final  107.14 input  -57.11 | X-H torsion

> <Gold.Protein.ActiveResidues>
 VAL166  LYS551  ARG553  GLY616  TRP617  ASP618  TYR619  PRO620  LYS621  CYS622 
 ASP623  PHE694  ASN695  SER759  ASP760  ASP761  ALA762  ILE779  LEU786  VAL792 
 PHE793  MET794  SER795  GLU796  ALA797  LYS798  CYS799  TRP800  GLU811  SER814 

> <Gold.Protein.RotatedAtoms>
  150.6966  134.1644  159.4188 H   0  0  0  0  0  0  0  0  0  0  0  0  # atno 6907 bound_to 6896
  151.9623  135.0115  160.0557 H   0  0  0  0  0  0  0  0  0  0  0  0  # atno 6908 bound_to 6896
  152.1915  133.4742  159.5047 H   0  0  0  0  0  0  0  0  0  0  0  0  # atno 6909 bound_to 6896
  145.2124  139.2900  143.4261 H   0  0  0  0  0  0  0  0  0  0  0  0  # atno 7974 bound_to 7965
  154.7858  140.0464  157.1162 H   0  0  0  0  0  0  0  0  0  0  0  0  # atno 8008 bound_to 7997
  154.9650  140.3082  155.4994 H   0  0  0  0  0  0  0  0  0  0  0  0  # atno 8009 bound_to 7997
  156.2943  140.2263  156.4739 H   0  0  0  0  0  0  0  0  0  0  0  0  # atno 8010 bound_to 7997
  139.6198  144.0646  152.1922 H   0  0  0  0  0  0  0  0  0  0  0  0  # atno 10167 bound_to 10162
  157.3870  130.7785  149.7238 H   0  0  0  0  0  0  0  0  0  0  0  0  # atno 10718 bound_to 10713
  153.9825  135.2940  155.3419 H   0  0  0  0  0  0  0  0  0  0  0  0  # atno 10763 bound_to 10752
  154.7260  135.5088  153.8891 H   0  0  0  0  0  0  0  0  0  0  0  0  # atno 10764 bound_to 10752
  153.0847  135.6690  154.0087 H   0  0  0  0  0  0  0  0  0  0  0  0  # atno 10765 bound_to 10752
  139.8824  134.9391  156.5774 H   0  0  0  0  0  0  0  0  0  0  0  0  # atno 11005 bound_to 11000
  146.3394  140.2404  142.8595 LP  0  0  0  0  0  0  0  0  0  0  0  0  # atno 17320 bound_to 7965
  144.9843  140.8488  143.5378 LP  0  0  0  0  0  0  0  0  0  0  0  0  # atno 17321 bound_to 7965
  140.0285  144.6099  150.7507 LP  0  0  0  0  0  0  0  0  0  0  0  0  # atno 17342 bound_to 10162
  140.7375  143.2766  151.3724 LP  0  0  0  0  0  0  0  0  0  0  0  0  # atno 17343 bound_to 10162
  155.9789  130.4046  150.3620 LP  0  0  0  0  0  0  0  0  0  0  0  0  # atno 17370 bound_to 10713
  157.1731  131.0374  151.2785 LP  0  0  0  0  0  0  0  0  0  0  0  0  # atno 17371 bound_to 10713
  140.8053  133.8472  155.8762 LP  0  0  0  0  0  0  0  0  0  0  0  0  # atno 17394 bound_to 11000
  140.9556  134.1723  157.4694 LP  0  0  0  0  0  0  0  0  0  0  0  0  # atno 17395 bound_to 11000

$$$$
