AV-unprocessed.smi:158|AV-procd|sdf|1333|dock10
  -GOLD-   2262019 33D 1   1.00000     0.00000
 Structure written by MMmdl.
 31 33  0  0  0  0  0  0  0  0  1 V2000
  147.9467  133.6810  160.1356 N   0  0  0  0  0  0  0  0  0  0  0  0
  147.7182  134.9830  159.9141 C   0  0  0  0  0  0  0  0  0  0  0  0
  146.6340  135.5523  160.4887 N   0  0  0  0  0  0  0  0  0  0  0  0
  146.3697  136.8490  160.2918 C   0  0  0  0  0  0  0  0  0  0  0  0
  144.9637  137.4733  161.0701 Cl  0  0  0  0  0  0  0  0  0  0  0  0
  147.0730  137.7159  159.5568 N   0  0  0  0  0  0  0  0  0  0  0  0
  148.1696  137.1501  158.9730 C   0  0  0  0  0  0  0  0  0  0  0  0
  148.5578  135.7890  159.1068 C   0  0  0  0  0  0  0  0  0  0  0  0
  149.7189  135.5524  158.3857 N   0  0  0  0  0  0  0  0  0  0  0  0
  149.9980  136.7120  157.8553 C   0  0  0  0  0  0  0  0  0  0  0  0
  149.1178  137.7314  158.1480 N   0  0  0  0  0  0  0  0  0  0  0  0
  149.2078  139.1496  157.6585 C   0  0  2  0  0  0  0  0  0  0  0  0
  148.2742  139.3546  156.6359 O   0  0  0  0  0  0  0  0  0  0  0  0
  148.9068  139.4546  155.3527 C   0  0  1  0  0  0  0  0  0  0  0  0
  148.7592  140.9164  154.8800 C   0  0  0  0  0  0  0  0  0  0  0  0
  149.4922  141.1109  153.6895 O   0  0  0  0  0  0  0  0  0  0  0  0
  150.3502  138.9901  155.6159 C   0  0  1  0  0  0  0  0  0  0  0  0
  151.3348  139.4871  154.7305 O   0  0  0  0  0  0  0  0  0  0  0  0
  150.5888  139.4017  157.0549 C   0  0  1  0  0  0  0  0  0  0  0  0
  150.8566  140.7047  157.1630 F   0  0  0  0  0  0  0  0  0  0  0  0
  148.9858  139.7525  158.5396 H   0  0  0  0  0  0  0  0  0  0  0  0
  148.4325  138.7848  154.6339 H   0  0  0  0  0  0  0  0  0  0  0  0
  150.3838  137.9014  155.5573 H   0  0  0  0  0  0  0  0  0  0  0  0
  151.3767  138.8447  157.5635 H   0  0  0  0  0  0  0  0  0  0  0  0
  148.7494  133.2334  159.7170 H   0  0  0  0  0  0  0  0  0  0  0  0
  147.3173  133.1501  160.7199 H   0  0  0  0  0  0  0  0  0  0  0  0
  150.8624  136.8576  157.2236 H   0  0  0  0  0  0  0  0  0  0  0  0
  147.7154  141.1894  154.7244 H   0  0  0  0  0  0  0  0  0  0  0  0
  149.1689  141.6096  155.6141 H   0  0  0  0  0  0  0  0  0  0  0  0
  149.3713  140.3553  153.1352 H   0  0  0  0  0  0  0  0  0  0  0  0
  152.0543  138.8746  154.7084 H   0  0  0  0  0  0  0  0  0  0  0  0
  1  2  1  0  0  0  0
  1 25  1  0  0  0  0
  1 26  1  0  0  0  0
  2  8  1  0  0  0  0
  2  3  2  0  0  0  0
  3  4  1  0  0  0  0
  4  5  1  0  0  0  0
  4  6  2  0  0  0  0
  6  7  1  0  0  0  0
  7 11  1  0  0  0  0
  7  8  2  0  0  0  0
  8  9  1  0  0  0  0
  9 10  2  0  0  0  0
 10 11  1  0  0  0  0
 10 27  1  0  0  0  0
 11 12  1  0  0  0  0
 12 21  1  0  0  0  0
 12 19  1  0  0  0  0
 12 13  1  0  0  0  0
 13 14  1  0  0  0  0
 14 22  1  0  0  0  0
 14 15  1  0  0  0  0
 14 17  1  0  0  0  0
 15 16  1  0  0  0  0
 15 28  1  0  0  0  0
 15 29  1  0  0  0  0
 16 30  1  0  0  0  0
 17 23  1  0  0  0  0
 17 18  1  0  0  0  0
 17 19  1  0  0  0  0
 18 31  1  0  0  0  0
 19 24  1  0  0  0  0
 19 20  1  0  0  0  0
M  END
> <s_m_source_file>
AV-unprocessed.smi

> <i_m_source_file_index>
158

> <i_lp_mmshare_version>
43012

> <i_f3d_flags>
0

> <s_epik_input>
Q2xjKG4xKW5jKFtOSDJdKWMoYzEyKW5bY0hdbjJbQ0BASF0zT1tDQEhdKFtDSDJdW09IXSlbQ0BASF0oW09IXSlbQ0BASF0zRg==

> <s_epik_cmdline>
J2VwaWtfcHl0aG9uJywgJy1waCcsICc3LjAnLCAnLXRuJywgJzgnLCAnLW1hJywgJzIwMCcsICctbWV0YWxfYmluZGluZycsICctaW1hZScsICc8aW5maWxlLm1hZT4nLCAnLW9tYWUnLCAnPG91dGZpbGUubWFlPic=

> <r_lp_tautomer_probability>
1

> <r_epik_Ionization_Penalty>
6.51543e-05

> <r_epik_Ionization_Penalty_Charging>
0

> <r_epik_Ionization_Penalty_Neutral>
6.51543e-05

> <r_epik_State_Penalty>
-0

> <r_epik_Charging_Adjusted_Penalty>
0

> <i_epik_Tot_Q>
0

> <i_epik_Tot_abs_Q>
0

> <r_epik_Metal_State_Penalty>
-0

> <b_epik_Metal_Only>
0

> <s_epik_Chemistry_Notes>
This compound contains an acetal/aminal-like group ( X-CH(R)-Y where X, Y are N, S, or O) that may be acid/base labile, releasing an aldehyde.

> <s_lp_Force_Field>
OPLS_2005

> <r_lp_Energy>
36.1336

> <b_lp_Chiralities_Consistent>
1

> <s_lp_Variant>
AV-unprocessed.smi:158-11

> <Gold.Version>
5.8.1

> <Gold.Id.Protein>
6NUR|6NUR_protein|mol2

> <Gold.PLP.Fitness>
34.3602

> <Gold.PLP.PLP>
-22.4216

> <Gold.PLP.part.hbond>
-6.0000

> <Gold.PLP.part.metal>
0.0000

> <Gold.PLP.part.buried>
-5.4424

> <Gold.PLP.part.nonpolar>
-11.4707

> <Gold.PLP.part.repulsive>
0.0792

> <Gold.PLP.ligand.clash>
0.0000

> <Gold.PLP.ligand.torsion>
0.3801

> <Gold.PLP.Chemscore.Hbond>
4.2280

> <Gold.PLP.Chemscore.CHOScore>
0.0000

> <Gold.PLP.Chemscore.Metal>
0.0000

> <Gold.Chemscore.Hbonds>
donor molecule, donor type, donor heavy atom, donor atom, acceptor molecule, acceptor atom, score
      L1  H    16    30       P1  7957  0.66
      P1  H  6896  6907       L1     9  1.00
      P1  H  6934  6947       L1     6  0.65
      P1  H  7989  7998       L1    18  1.00
      P1  H  8011  8017       L1    16  0.91

> <Gold.PLP.Chemscore.Internal.Correction>
0.0148

> <Gold.Rescore>
     Score         DG    S(hbond)    S(metal)    S(lipo)     H(rot)  DE(clash)    DE(int)     intcor
     11.00     -11.04       3.22        0.00      24.05       3.12       0.00       0.04       ----

> <Gold.Chemscore.Fitness>
11.0013

> <Gold.Chemscore.DG>
-11.0389

> <Gold.Chemscore.ZeroCoef>
-5.4800

> <Gold.Chemscore.Hbond>
3.2154

> <Gold.Chemscore.Metal>
0.0000

> <Gold.Chemscore.Lipo>
24.0544

> <Gold.Chemscore.Internal_Hbond>
0.0000

> <Gold.Chemscore.DEClash>
0.0000

> <Gold.Chemscore.DEInternal>
0.0376

> <Gold.Chemscore.Rot>
3.1230

> <Gold.Chemscore.Internal.Correction>
   9.000000E+99

> <Gold.Chemscore.Hbonds>
donor molecule, donor type, donor heavy atom, donor atom, acceptor molecule, acceptor atom, score
      L1  H    16    30       P1  7957  0.63
      P1  H  6896  6907       L1     9  0.34
      P1  H  6934  6947       L1     6  0.10
      P1  H  7989  7998       L1    18  0.70
      P1  H  8011  8017       L1    16  0.20

> <Gold.Chemscore.Hbond.Weighted>
-10.7395

> <Gold.Chemscore.Metal.Weighted>
-0.0000

> <Gold.Chemscore.Lipo.Weighted>
-2.8144

> <Gold.Chemscore.Internal_Hbond.Weighted>
0.0000

> <Gold.Chemscore.DEClash.Weighted>
0.0000

> <Gold.Chemscore.DEInternal.Weighted>
0.0376

> <Gold.Chemscore.Rot.Weighted>
7.9950

> <Gold.Chemscore.Internal.Correction.Weighted>
   9.000000E+99

> <Gold.Protein.RotatedTorsions>
[ 6907 6896 6895 6894 ] final  -57.75 input  -60.11 | X-H torsion
[ 7974 7965 7964 7962 ] final  -35.12 input  175.53 | X-H torsion
[ 8008 7997 7996 7995 ] final   -2.71 input   59.86 | X-H torsion
[ 10167 10162 10161 10158 ] final   51.06 input  -65.29 | X-H torsion
[ 10718 10713 10712 10709 ] final -134.79 input   66.30 | X-H torsion
[ 10763 10752 10751 10750 ] final  -88.90 input  -60.55 | X-H torsion
[ 11005 11000 10999 10996 ] final  -61.70 input  -57.11 | X-H torsion

> <Gold.Protein.ActiveResidues>
 VAL166  LYS551  ARG553  GLY616  TRP617  ASP618  TYR619  PRO620  LYS621  CYS622 
 ASP623  PHE694  ASN695  SER759  ASP760  ASP761  ALA762  ILE779  LEU786  VAL792 
 PHE793  MET794  SER795  GLU796  ALA797  LYS798  CYS799  TRP800  GLU811  SER814 

> <Gold.Protein.RotatedAtoms>
  150.8061  134.7187  159.6645 H   0  0  0  0  0  0  0  0  0  0  0  0  # atno 6907 bound_to 6896
  152.4181  134.6002  160.0008 H   0  0  0  0  0  0  0  0  0  0  0  0  # atno 6908 bound_to 6896
  151.6225  133.3301  159.3127 H   0  0  0  0  0  0  0  0  0  0  0  0  # atno 6909 bound_to 6896
  146.0772  140.6121  142.8925 H   0  0  0  0  0  0  0  0  0  0  0  0  # atno 7974 bound_to 7965
  154.6328  140.2527  155.7414 H   0  0  0  0  0  0  0  0  0  0  0  0  # atno 8008 bound_to 7997
  156.2488  140.2903  156.0607 H   0  0  0  0  0  0  0  0  0  0  0  0  # atno 8009 bound_to 7997
  155.1719  140.0387  157.2855 H   0  0  0  0  0  0  0  0  0  0  0  0  # atno 8010 bound_to 7997
  140.2659  144.3320  150.6304 H   0  0  0  0  0  0  0  0  0  0  0  0  # atno 10167 bound_to 10162
  156.2592  130.7199  151.1127 H   0  0  0  0  0  0  0  0  0  0  0  0  # atno 10718 bound_to 10713
  154.6495  135.5360  153.7885 H   0  0  0  0  0  0  0  0  0  0  0  0  # atno 10763 bound_to 10752
  153.0378  135.6479  154.1038 H   0  0  0  0  0  0  0  0  0  0  0  0  # atno 10764 bound_to 10752
  154.0956  135.2937  155.3242 H   0  0  0  0  0  0  0  0  0  0  0  0  # atno 10765 bound_to 10752
  141.1334  133.6632  156.5416 H   0  0  0  0  0  0  0  0  0  0  0  0  # atno 11005 bound_to 11000
  144.7269  140.4554  143.6966 LP  0  0  0  0  0  0  0  0  0  0  0  0  # atno 17320 bound_to 7965
  145.6283  139.1533  143.2983 LP  0  0  0  0  0  0  0  0  0  0  0  0  # atno 17321 bound_to 7965
  140.5929  143.2167  151.7219 LP  0  0  0  0  0  0  0  0  0  0  0  0  # atno 17342 bound_to 10162
  139.5003  144.3912  152.0278 LP  0  0  0  0  0  0  0  0  0  0  0  0  # atno 17343 bound_to 10162
  157.7244  131.0660  150.5996 LP  0  0  0  0  0  0  0  0  0  0  0  0  # atno 17370 bound_to 10713
  156.6082  130.4373  149.5869 LP  0  0  0  0  0  0  0  0  0  0  0  0  # atno 17371 bound_to 10713
  140.4135  134.7251  157.4849 LP  0  0  0  0  0  0  0  0  0  0  0  0  # atno 17394 bound_to 11000
  140.0410  134.6267  155.8981 LP  0  0  0  0  0  0  0  0  0  0  0  0  # atno 17395 bound_to 11000

$$$$
