AV-unprocessed.smi:424|AV-procd|sdf|2539|dock9
  -GOLD-   2262022503D 1   1.00000     0.00000
 Structure written by MMmdl.
 34 35  0  0  0  0  0  0  0  0  1 V2000
  145.8877  137.6659  152.3134 C   0  0  0  0  0  0  0  0  0  0  0  0
  146.8021  138.8808  152.0874 C   0  0  0  0  0  0  0  0  0  0  0  0
  147.2609  139.5602  153.3827 C   0  0  0  0  0  0  0  0  0  0  0  0
  146.4354  139.9339  154.2160 O   0  0  0  0  0  0  0  0  0  0  0  0
  148.5920  139.7191  153.5005 N   0  0  0  0  0  0  0  0  0  0  0  0
  149.3348  140.2905  154.5699 C   0  0  0  0  0  0  0  0  0  0  0  0
  150.6107  139.8468  154.9894 C   0  0  0  0  0  0  0  0  0  0  0  0
  151.2503  140.5143  156.0516 C   0  0  0  0  0  0  0  0  0  0  0  0
  150.6073  141.6133  156.6683 C   0  0  0  0  0  0  0  0  0  0  0  0
  151.2333  142.2977  157.7330 N   0  0  0  0  0  0  0  0  0  0  0  0
  151.6907  143.6530  157.4363 C   0  0  0  0  0  0  0  0  0  0  0  0
  152.0576  144.3915  158.7353 C   0  0  0  0  0  0  0  0  0  0  0  0
  153.0103  143.6322  159.4722 O   0  0  0  0  0  0  0  0  0  0  0  0
  152.4954  142.3591  159.8472 C   0  0  0  0  0  0  0  0  0  0  0  0
  152.1543  141.5483  158.5857 C   0  0  0  0  0  0  0  0  0  0  0  0
  149.3921  142.0459  156.2519 N   0  0  0  0  0  0  0  0  0  0  0  0
  148.7819  141.4029  155.2347 C   0  0  0  0  0  0  0  0  0  0  0  0
  145.6080  137.2130  151.3621 H   0  0  0  0  0  0  0  0  0  0  0  0
  144.9670  137.9495  152.8248 H   0  0  0  0  0  0  0  0  0  0  0  0
  146.3832  136.8985  152.9097 H   0  0  0  0  0  0  0  0  0  0  0  0
  147.6838  138.5694  151.5257 H   0  0  0  0  0  0  0  0  0  0  0  0
  146.2832  139.6174  151.4733 H   0  0  0  0  0  0  0  0  0  0  0  0
  149.1394  139.4335  152.7015 H   0  0  0  0  0  0  0  0  0  0  0  0
  151.1214  139.0254  154.5122 H   0  0  0  0  0  0  0  0  0  0  0  0
  152.2313  140.1894  156.3640 H   0  0  0  0  0  0  0  0  0  0  0  0
  152.5619  143.5939  156.7826 H   0  0  0  0  0  0  0  0  0  0  0  0
  150.9344  144.2282  156.9044 H   0  0  0  0  0  0  0  0  0  0  0  0
  152.4848  145.3673  158.5038 H   0  0  0  0  0  0  0  0  0  0  0  0
  151.1698  144.5697  159.3442 H   0  0  0  0  0  0  0  0  0  0  0  0
  153.2433  141.8334  160.4409 H   0  0  0  0  0  0  0  0  0  0  0  0
  151.6152  142.4823  160.4805 H   0  0  0  0  0  0  0  0  0  0  0  0
  151.7099  140.5962  158.8785 H   0  0  0  0  0  0  0  0  0  0  0  0
  153.0647  141.3269  158.0269 H   0  0  0  0  0  0  0  0  0  0  0  0
  147.8169  141.7918  154.9440 H   0  0  0  0  0  0  0  0  0  0  0  0
  1  2  1  0  0  0  0
  1 18  1  0  0  0  0
  1 19  1  0  0  0  0
  1 20  1  0  0  0  0
  2  3  1  0  0  0  0
  2 21  1  0  0  0  0
  2 22  1  0  0  0  0
  3  4  2  0  0  0  0
  3  5  1  0  0  0  0
  5  6  1  0  0  0  0
  5 23  1  0  0  0  0
  6 17  1  0  0  0  0
  6  7  2  0  0  0  0
  7  8  1  0  0  0  0
  7 24  1  0  0  0  0
  8  9  2  0  0  0  0
  8 25  1  0  0  0  0
  9 10  1  0  0  0  0
  9 16  1  0  0  0  0
 10 15  1  0  0  0  0
 10 11  1  0  0  0  0
 11 12  1  0  0  0  0
 11 26  1  0  0  0  0
 11 27  1  0  0  0  0
 12 13  1  0  0  0  0
 12 28  1  0  0  0  0
 12 29  1  0  0  0  0
 13 14  1  0  0  0  0
 14 15  1  0  0  0  0
 14 30  1  0  0  0  0
 14 31  1  0  0  0  0
 15 32  1  0  0  0  0
 15 33  1  0  0  0  0
 16 17  2  0  0  0  0
 17 34  1  0  0  0  0
M  END
> <s_m_source_file>
AV-unprocessed.smi

> <i_m_source_file_index>
424

> <i_lp_mmshare_version>
43012

> <i_f3d_flags>
0

> <s_epik_input>
W0NIM11bQ0gyXUMoPU8pW05IXWMxW2NIXVtjSF1jKG5bY0hdMSlOMltDSDJdW0NIMl1PW0NIMl1bQ0gyXTI=

> <s_epik_cmdline>
J2VwaWtfcHl0aG9uJywgJy1waCcsICc3LjAnLCAnLXRuJywgJzgnLCAnLW1hJywgJzIwMCcsICctbWV0YWxfYmluZGluZycsICctaW1hZScsICc8aW5maWxlLm1hZT4nLCAnLW9tYWUnLCAnPG91dGZpbGUubWFlPic=

> <r_lp_tautomer_probability>
1

> <r_epik_Ionization_Penalty>
0.000622595

> <r_epik_Ionization_Penalty_Charging>
0

> <r_epik_Ionization_Penalty_Neutral>
0.000622595

> <r_epik_State_Penalty>
0.000387388

> <r_epik_Charging_Adjusted_Penalty>
0.000387388

> <i_epik_Tot_Q>
0

> <i_epik_Tot_abs_Q>
0

> <r_epik_Metal_State_Penalty>
-0

> <b_epik_Metal_Only>
0

> <s_lp_Force_Field>
OPLS_2005

> <r_lp_Energy>
21.9993

> <b_lp_Chiralities_Consistent>
1

> <s_lp_Variant>
AV-unprocessed.smi:424-1

> <Gold.Version>
5.8.1

> <Gold.Id.Protein>
6NUR|6NUR_protein|mol2

> <Gold.PLP.Fitness>
37.1030

> <Gold.PLP.PLP>
-35.3362

> <Gold.PLP.part.hbond>
-1.0000

> <Gold.PLP.part.metal>
0.0000

> <Gold.PLP.part.buried>
-3.1907

> <Gold.PLP.part.nonpolar>
-33.8745

> <Gold.PLP.part.repulsive>
2.4525

> <Gold.PLP.ligand.clash>
0.0000

> <Gold.PLP.ligand.torsion>
0.7563

> <Gold.PLP.Chemscore.Hbond>
0.9760

> <Gold.PLP.Chemscore.CHOScore>
0.0000

> <Gold.PLP.Chemscore.Metal>
0.0000

> <Gold.Chemscore.Hbonds>
donor molecule, donor type, donor heavy atom, donor atom, acceptor molecule, acceptor atom, score
      L1  H     5    23       P1  7957  0.80

> <Gold.PLP.Chemscore.Internal.Correction>
0.3514

> <Gold.Rescore>
     Score         DG    S(hbond)    S(metal)    S(lipo)     H(rot)  DE(clash)    DE(int)     intcor
     13.83     -15.81       0.98        0.00      86.19       1.18       0.30       1.67       ----

> <Gold.Chemscore.Fitness>
13.8340

> <Gold.Chemscore.DG>
-15.8065

> <Gold.Chemscore.ZeroCoef>
-5.4800

> <Gold.Chemscore.Hbond>
0.9807

> <Gold.Chemscore.Metal>
0.0000

> <Gold.Chemscore.Lipo>
86.1890

> <Gold.Chemscore.Internal_Hbond>
0.0000

> <Gold.Chemscore.DEClash>
0.3009

> <Gold.Chemscore.DEInternal>
1.6717

> <Gold.Chemscore.Rot>
1.1848

> <Gold.Chemscore.Internal.Correction>
   9.000000E+99

> <Gold.Chemscore.Hbonds>
donor molecule, donor type, donor heavy atom, donor atom, acceptor molecule, acceptor atom, score
      L1  H     5    23       P1  7957  0.80

> <Gold.Chemscore.Hbond.Weighted>
-3.2755

> <Gold.Chemscore.Metal.Weighted>
-0.0000

> <Gold.Chemscore.Lipo.Weighted>
-10.0841

> <Gold.Chemscore.Internal_Hbond.Weighted>
0.0000

> <Gold.Chemscore.DEClash.Weighted>
0.3009

> <Gold.Chemscore.DEInternal.Weighted>
1.6717

> <Gold.Chemscore.Rot.Weighted>
3.0331

> <Gold.Chemscore.Internal.Correction.Weighted>
   9.000000E+99

> <Gold.Protein.RotatedTorsions>
[ 6907 6896 6895 6894 ] final -142.68 input  -60.11 | X-H torsion
[ 7974 7965 7964 7962 ] final   64.66 input  175.53 | X-H torsion
[ 8008 7997 7996 7995 ] final  -38.54 input   59.86 | X-H torsion
[ 10167 10162 10161 10158 ] final   13.02 input  -65.29 | X-H torsion
[ 10718 10713 10712 10709 ] final   48.70 input   66.30 | X-H torsion
[ 10763 10752 10751 10750 ] final   28.17 input  -60.55 | X-H torsion
[ 11005 11000 10999 10996 ] final -115.44 input  -57.11 | X-H torsion

> <Gold.Protein.ActiveResidues>
 VAL166  LYS551  ARG553  GLY616  TRP617  ASP618  TYR619  PRO620  LYS621  CYS622 
 ASP623  PHE694  ASN695  SER759  ASP760  ASP761  ALA762  ILE779  LEU786  VAL792 
 PHE793  MET794  SER795  GLU796  ALA797  LYS798  CYS799  TRP800  GLU811  SER814 

> <Gold.Protein.RotatedAtoms>
  151.0903  133.5321  159.2615 H   0  0  0  0  0  0  0  0  0  0  0  0  # atno 6907 bound_to 6896
  151.2190  135.0510  159.8952 H   0  0  0  0  0  0  0  0  0  0  0  0  # atno 6908 bound_to 6896
  152.5433  134.0708  159.8247 H   0  0  0  0  0  0  0  0  0  0  0  0  # atno 6909 bound_to 6896
  145.8476  139.3234  143.0894 H   0  0  0  0  0  0  0  0  0  0  0  0  # atno 7974 bound_to 7965
  154.4035  140.1575  156.2717 H   0  0  0  0  0  0  0  0  0  0  0  0  # atno 8008 bound_to 7997
  155.8947  140.3436  155.5960 H   0  0  0  0  0  0  0  0  0  0  0  0  # atno 8009 bound_to 7997
  155.7518  140.0806  157.2188 H   0  0  0  0  0  0  0  0  0  0  0  0  # atno 8010 bound_to 7997
  140.6030  143.8566  150.6984 H   0  0  0  0  0  0  0  0  0  0  0  0  # atno 10167 bound_to 10162
  157.4713  130.8257  149.7991 H   0  0  0  0  0  0  0  0  0  0  0  0  # atno 10718 bound_to 10713
  153.0508  135.6519  154.0698 H   0  0  0  0  0  0  0  0  0  0  0  0  # atno 10763 bound_to 10752
  154.0386  135.2905  155.3360 H   0  0  0  0  0  0  0  0  0  0  0  0  # atno 10764 bound_to 10752
  154.6796  135.5325  153.8311 H   0  0  0  0  0  0  0  0  0  0  0  0  # atno 10765 bound_to 10752
  141.0488  133.9721  157.2872 H   0  0  0  0  0  0  0  0  0  0  0  0  # atno 11005 bound_to 11000
  145.9394  140.8991  143.0315 LP  0  0  0  0  0  0  0  0  0  0  0  0  # atno 17320 bound_to 7965
  144.6730  140.1527  143.7428 LP  0  0  0  0  0  0  0  0  0  0  0  0  # atno 17321 bound_to 7965
  140.2116  143.3879  152.1713 LP  0  0  0  0  0  0  0  0  0  0  0  0  # atno 17342 bound_to 10162
  139.5304  144.7153  151.5075 LP  0  0  0  0  0  0  0  0  0  0  0  0  # atno 17343 bound_to 10162
  156.0075  130.3848  150.2380 LP  0  0  0  0  0  0  0  0  0  0  0  0  # atno 17370 bound_to 10713
  157.0562  131.0077  151.3237 LP  0  0  0  0  0  0  0  0  0  0  0  0  # atno 17371 bound_to 10713
  139.9333  135.0198  156.8473 LP  0  0  0  0  0  0  0  0  0  0  0  0  # atno 17394 bound_to 11000
  140.6096  134.0095  155.7571 LP  0  0  0  0  0  0  0  0  0  0  0  0  # atno 17395 bound_to 11000

$$$$
