AV-unprocessed.smi:218|AV-procd|sdf|1675|dock5
  -GOLD-   2262020103D 1   1.00000     0.00000
 Structure written by MMmdl.
 54 57  0  0  0  0  0  0  0  0  1 V2000
  146.5877  127.7834  153.9787 C   0  0  0  0  0  0  0  0  0  0  0  0
  146.6939  129.0107  153.0655 C   0  0  0  0  0  0  0  0  0  0  0  0
  145.8607  128.8248  151.7856 C   0  0  0  0  0  0  0  0  0  0  0  0
  148.0767  129.1682  152.7410 O   0  0  0  0  0  0  0  0  0  0  0  0
  148.9324  129.7886  153.6309 C   0  0  0  0  0  0  0  0  0  0  0  0
  148.8692  131.1919  153.7498 C   0  0  0  0  0  0  0  0  0  0  0  0
  149.7356  131.8412  154.6553 C   0  0  0  0  0  0  0  0  0  0  0  0
  149.7155  133.3488  154.8213 C   0  0  0  0  0  0  0  0  0  0  0  0
  150.7056  133.8501  155.7658 N   0  0  0  0  0  0  0  0  0  0  0  0
  150.5506  135.0684  156.3262 C   0  0  0  0  0  0  0  0  0  0  0  0
  149.9876  135.2062  157.5544 N   0  0  0  0  0  0  0  0  0  0  0  0
  149.8355  136.4229  158.0841 C   0  0  0  0  0  0  0  0  0  0  0  0
  150.1750  137.6051  157.5668 N   0  0  0  0  0  0  0  0  0  0  0  0
  150.7510  137.4762  156.3351 C   0  0  0  0  0  0  0  0  0  0  0  0
  150.9647  136.2458  155.6510 C   0  0  0  0  0  0  0  0  0  0  0  0
  151.5514  136.4870  154.4173 N   0  0  0  0  0  0  0  0  0  0  0  0
  151.6705  137.7859  154.3751 C   0  0  0  0  0  0  0  0  0  0  0  0
  151.2420  138.4639  155.4976 N   0  0  0  0  0  0  0  0  0  0  0  0
  151.2290  139.9551  155.7072 C   0  0  1  0  0  0  0  0  0  0  0  0
  150.4194  140.5491  154.7386 O   0  0  0  0  0  0  0  0  0  0  0  0
  149.1054  140.7042  155.2560 C   0  0  2  0  0  0  0  0  0  0  0  0
  148.2663  141.6420  154.3701 C   0  0  0  0  0  0  0  0  0  0  0  0
  148.8739  142.9137  154.2859 O   0  0  0  0  0  0  0  0  0  0  0  0
  149.3848  141.1568  156.6942 C   0  0  2  0  0  0  0  0  0  0  0  0
  149.6622  142.5471  156.7402 O   0  0  0  0  0  0  0  0  0  0  0  0
  150.5940  140.2988  157.0737 C   0  0  2  0  0  0  0  0  0  0  0  0
  151.4838  140.9584  157.9556 O   0  0  0  0  0  0  0  0  0  0  0  0
  150.6411  131.0572  155.3978 C   0  0  0  0  0  0  0  0  0  0  0  0
  150.6335  129.6620  155.2083 C   0  0  0  0  0  0  0  0  0  0  0  0
  149.8026  129.0357  154.3489 N   0  0  0  0  0  0  0  0  0  0  0  0
  152.2714  140.2557  155.5954 H   0  0  0  0  0  0  0  0  0  0  0  0
  148.6355  139.7185  155.2759 H   0  0  0  0  0  0  0  0  0  0  0  0
  148.5355  140.9608  157.3496 H   0  0  0  0  0  0  0  0  0  0  0  0
  150.2363  139.3886  157.5563 H   0  0  0  0  0  0  0  0  0  0  0  0
  145.5546  127.6042  154.2781 H   0  0  0  0  0  0  0  0  0  0  0  0
  147.1760  127.9211  154.8863 H   0  0  0  0  0  0  0  0  0  0  0  0
  146.9522  126.8855  153.4790 H   0  0  0  0  0  0  0  0  0  0  0  0
  146.3226  129.8663  153.6316 H   0  0  0  0  0  0  0  0  0  0  0  0
  144.8091  128.6656  152.0254 H   0  0  0  0  0  0  0  0  0  0  0  0
  146.2055  127.9629  151.2139 H   0  0  0  0  0  0  0  0  0  0  0  0
  145.9171  129.6967  151.1346 H   0  0  0  0  0  0  0  0  0  0  0  0
  148.1671  131.7542  153.1518 H   0  0  0  0  0  0  0  0  0  0  0  0
  149.8811  133.8154  153.8491 H   0  0  0  0  0  0  0  0  0  0  0  0
  148.7187  133.6417  155.1538 H   0  0  0  0  0  0  0  0  0  0  0  0
  151.4755  133.2311  155.9758 H   0  0  0  0  0  0  0  0  0  0  0  0
  149.3771  136.4547  159.0615 H   0  0  0  0  0  0  0  0  0  0  0  0
  152.0825  138.2903  153.5131 H   0  0  0  0  0  0  0  0  0  0  0  0
  148.1275  141.2347  153.3684 H   0  0  0  0  0  0  0  0  0  0  0  0
  147.2725  141.7646  154.8013 H   0  0  0  0  0  0  0  0  0  0  0  0
  149.2523  143.1196  155.1271 H   0  0  0  0  0  0  0  0  0  0  0  0
  149.1597  142.9726  156.0620 H   0  0  0  0  0  0  0  0  0  0  0  0
  151.5600  141.8612  157.6868 H   0  0  0  0  0  0  0  0  0  0  0  0
  151.3271  131.5111  156.0978 H   0  0  0  0  0  0  0  0  0  0  0  0
  151.3140  129.0319  155.7615 H   0  0  0  0  0  0  0  0  0  0  0  0
  1  2  1  0  0  0  0
  1 35  1  0  0  0  0
  1 36  1  0  0  0  0
  1 37  1  0  0  0  0
  2  3  1  0  0  0  0
  2  4  1  0  0  0  0
  2 38  1  0  0  0  0
  3 39  1  0  0  0  0
  3 40  1  0  0  0  0
  3 41  1  0  0  0  0
  4  5  1  0  0  0  0
  5 30  1  0  0  0  0
  5  6  2  0  0  0  0
  6  7  1  0  0  0  0
  6 42  1  0  0  0  0
  7  8  1  0  0  0  0
  7 28  2  0  0  0  0
  8  9  1  0  0  0  0
  8 43  1  0  0  0  0
  8 44  1  0  0  0  0
  9 10  1  0  0  0  0
  9 45  1  0  0  0  0
 10 15  1  0  0  0  0
 10 11  2  0  0  0  0
 11 12  1  0  0  0  0
 12 13  2  0  0  0  0
 12 46  1  0  0  0  0
 13 14  1  0  0  0  0
 14 18  1  0  0  0  0
 14 15  2  0  0  0  0
 15 16  1  0  0  0  0
 16 17  2  0  0  0  0
 17 18  1  0  0  0  0
 17 47  1  0  0  0  0
 18 19  1  0  0  0  0
 19 31  1  0  0  0  0
 19 26  1  0  0  0  0
 19 20  1  0  0  0  0
 20 21  1  0  0  0  0
 21 32  1  0  0  0  0
 21 22  1  0  0  0  0
 21 24  1  0  0  0  0
 22 23  1  0  0  0  0
 22 48  1  0  0  0  0
 22 49  1  0  0  0  0
 23 50  1  0  0  0  0
 24 33  1  0  0  0  0
 24 25  1  0  0  0  0
 24 26  1  0  0  0  0
 25 51  1  0  0  0  0
 26 34  1  0  0  0  0
 26 27  1  0  0  0  0
 27 52  1  0  0  0  0
 28 29  1  0  0  0  0
 28 53  1  0  0  0  0
 29 30  2  0  0  0  0
 29 54  1  0  0  0  0
M  END
> <s_m_source_file>
AV-unprocessed.smi

> <i_m_source_file_index>
218

> <i_lp_mmshare_version>
43012

> <i_f3d_flags>
0

> <s_epik_input>
W0NIM11bQ0hdKFtDSDNdKU9jMVtjSF1jKFtjSF1bY0hdbjEpW0NIMl1bTkhdYyhuW2NIXW4yKWMoYzIzKW5bY0hdbjNbQ0BASF00T1tDQEhdKFtDSDJdW09IXSlbQ0BASF0oW09IXSlbQ0BIXTRbT0hd

> <s_epik_cmdline>
J2VwaWtfcHl0aG9uJywgJy1waCcsICc3LjAnLCAnLXRuJywgJzgnLCAnLW1hJywgJzIwMCcsICctbWV0YWxfYmluZGluZycsICctaW1hZScsICc8aW5maWxlLm1hZT4nLCAnLW9tYWUnLCAnPG91dGZpbGUubWFlPic=

> <r_lp_tautomer_probability>
1

> <r_epik_Ionization_Penalty>
0.00457014

> <r_epik_Ionization_Penalty_Charging>
0

> <r_epik_Ionization_Penalty_Neutral>
0.00457014

> <r_epik_State_Penalty>
-0

> <r_epik_Charging_Adjusted_Penalty>
0

> <i_epik_Tot_Q>
0

> <i_epik_Tot_abs_Q>
0

> <r_epik_Metal_State_Penalty>
-0

> <b_epik_Metal_Only>
0

> <s_epik_Chemistry_Notes>
This compound contains an acetal/aminal-like group ( X-CH(R)-Y where X, Y are N, S, or O) that may be acid/base labile, releasing an aldehyde.

> <s_lp_Force_Field>
OPLS_2005

> <r_lp_Energy>
43.0364

> <b_lp_Chiralities_Consistent>
1

> <s_lp_Variant>
AV-unprocessed.smi:218-14

> <Gold.Version>
5.8.1

> <Gold.Id.Protein>
6NUR|6NUR_protein|mol2

> <Gold.PLP.Fitness>
55.1503

> <Gold.PLP.PLP>
-44.6869

> <Gold.PLP.part.hbond>
-6.0173

> <Gold.PLP.part.metal>
0.0000

> <Gold.PLP.part.buried>
-7.4910

> <Gold.PLP.part.nonpolar>
-34.7371

> <Gold.PLP.part.repulsive>
1.3624

> <Gold.PLP.ligand.clash>
0.0000

> <Gold.PLP.ligand.torsion>
1.3160

> <Gold.PLP.Chemscore.Hbond>
4.3206

> <Gold.PLP.Chemscore.CHOScore>
0.0000

> <Gold.PLP.Chemscore.Metal>
0.0000

> <Gold.Chemscore.Hbonds>
donor molecule, donor type, donor heavy atom, donor atom, acceptor molecule, acceptor atom, score
      L1  H    23    50       P1  8028  0.24
      L1  H    25    51       P1  8028  0.66
      P1  H  6896  6909       L1    11  0.41
      P1  H  7989  7998       L1    20  0.98
      P1  H  8022  8030       L1    23  0.95
      P1  H 10752 10763       L1    16  1.00

> <Gold.PLP.Chemscore.Internal.Correction>
0.1337

> <Gold.Rescore>
     Score         DG    S(hbond)    S(metal)    S(lipo)     H(rot)  DE(clash)    DE(int)     intcor
     10.65     -13.74       3.75        0.00      70.77       4.90       0.38       2.71       ----

> <Gold.Chemscore.Fitness>
10.6497

> <Gold.Chemscore.DG>
-13.7412

> <Gold.Chemscore.ZeroCoef>
-5.4800

> <Gold.Chemscore.Hbond>
3.7523

> <Gold.Chemscore.Metal>
0.0000

> <Gold.Chemscore.Lipo>
70.7685

> <Gold.Chemscore.Internal_Hbond>
0.0000

> <Gold.Chemscore.DEClash>
0.3800

> <Gold.Chemscore.DEInternal>
2.7115

> <Gold.Chemscore.Rot>
4.9029

> <Gold.Chemscore.Internal.Correction>
   9.000000E+99

> <Gold.Chemscore.Hbonds>
donor molecule, donor type, donor heavy atom, donor atom, acceptor molecule, acceptor atom, score
      L1  H    23    50       P1  8028  0.24
      L1  H    25    51       P1  8028  0.66
      P1  H  6896  6909       L1    11  0.06
      P1  H  7989  7998       L1    20  0.24
      P1  H  8022  8030       L1    23  0.21
      P1  H 10752 10763       L1    16  0.74

> <Gold.Chemscore.Hbond.Weighted>
-12.5328

> <Gold.Chemscore.Metal.Weighted>
-0.0000

> <Gold.Chemscore.Lipo.Weighted>
-8.2799

> <Gold.Chemscore.Internal_Hbond.Weighted>
0.0000

> <Gold.Chemscore.DEClash.Weighted>
0.3800

> <Gold.Chemscore.DEInternal.Weighted>
2.7115

> <Gold.Chemscore.Rot.Weighted>
12.5515

> <Gold.Chemscore.Internal.Correction.Weighted>
   9.000000E+99

> <Gold.Protein.RotatedTorsions>
[ 6907 6896 6895 6894 ] final   28.28 input  -60.11 | X-H torsion
[ 7974 7965 7964 7962 ] final   73.61 input  175.53 | X-H torsion
[ 8008 7997 7996 7995 ] final   93.85 input   59.86 | X-H torsion
[ 10167 10162 10161 10158 ] final -145.19 input  -65.29 | X-H torsion
[ 10718 10713 10712 10709 ] final   92.52 input   66.30 | X-H torsion
[ 10763 10752 10751 10750 ] final   38.59 input  -60.55 | X-H torsion
[ 11005 11000 10999 10996 ] final   61.32 input  -57.11 | X-H torsion

> <Gold.Protein.ActiveResidues>
 VAL166  LYS551  ARG553  GLY616  TRP617  ASP618  TYR619  PRO620  LYS621  CYS622 
 ASP623  PHE694  ASN695  SER759  ASP760  ASP761  ALA762  ILE779  LEU786  VAL792 
 PHE793  MET794  SER795  GLU796  ALA797  LYS798  CYS799  TRP800  GLU811  SER814 

> <Gold.Protein.RotatedAtoms>
  152.0146  134.9857  160.0568 H   0  0  0  0  0  0  0  0  0  0  0  0  # atno 6907 bound_to 6896
  152.1395  133.4451  159.4768 H   0  0  0  0  0  0  0  0  0  0  0  0  # atno 6908 bound_to 6896
  150.6864  134.2240  159.4451 H   0  0  0  0  0  0  0  0  0  0  0  0  # atno 6909 bound_to 6896
  145.7387  139.2712  143.1499 H   0  0  0  0  0  0  0  0  0  0  0  0  # atno 7974 bound_to 7965
  156.0513  140.3307  155.7355 H   0  0  0  0  0  0  0  0  0  0  0  0  # atno 8008 bound_to 7997
  155.5596  140.0618  157.2849 H   0  0  0  0  0  0  0  0  0  0  0  0  # atno 8009 bound_to 7997
  154.4437  140.1880  156.0757 H   0  0  0  0  0  0  0  0  0  0  0  0  # atno 8010 bound_to 7997
  139.7829  143.8076  152.2641 H   0  0  0  0  0  0  0  0  0  0  0  0  # atno 10167 bound_to 10162
  157.6958  131.0446  150.3894 H   0  0  0  0  0  0  0  0  0  0  0  0  # atno 10718 bound_to 10713
  152.9996  135.6245  154.2328 H   0  0  0  0  0  0  0  0  0  0  0  0  # atno 10763 bound_to 10752
  154.2070  135.2801  155.2973 H   0  0  0  0  0  0  0  0  0  0  0  0  # atno 10764 bound_to 10752
  154.5637  135.5697  153.7090 H   0  0  0  0  0  0  0  0  0  0  0  0  # atno 10765 bound_to 10752
  140.0170  134.6210  155.9696 H   0  0  0  0  0  0  0  0  0  0  0  0  # atno 11005 bound_to 11000
  146.0468  140.8109  142.9801 LP  0  0  0  0  0  0  0  0  0  0  0  0  # atno 17320 bound_to 7965
  144.6875  140.2993  143.7266 LP  0  0  0  0  0  0  0  0  0  0  0  0  # atno 17321 bound_to 7965
  139.8144  144.7322  150.9655 LP  0  0  0  0  0  0  0  0  0  0  0  0  # atno 17342 bound_to 10162
  140.7819  143.4219  151.0827 LP  0  0  0  0  0  0  0  0  0  0  0  0  # atno 17343 bound_to 10162
  156.4299  130.3970  149.6767 LP  0  0  0  0  0  0  0  0  0  0  0  0  # atno 17370 bound_to 10713
  156.3988  130.7664  151.2671 LP  0  0  0  0  0  0  0  0  0  0  0  0  # atno 17371 bound_to 10713
  141.1749  133.6539  156.4790 LP  0  0  0  0  0  0  0  0  0  0  0  0  # atno 17394 bound_to 11000
  140.4454  134.6977  157.5013 LP  0  0  0  0  0  0  0  0  0  0  0  0  # atno 17395 bound_to 11000

$$$$
