AV-unprocessed.smi:2026|AV-procd|sdf|8201|dock10
  -GOLD-   2272010463D 1   1.00000     0.00000
 Structure written by MMmdl.
 46 48  0  0  0  0  0  0  0  0  1 V2000
  151.9200  145.8171  159.8700 C   0  0  0  0  0  0  0  0  0  0  0  0
  152.4017  144.3836  160.0053 C   0  0  0  0  0  0  0  0  0  0  0  0
  152.7837  143.9038  161.2791 C   0  0  0  0  0  0  0  0  0  0  0  0
  153.2342  142.5758  161.4476 C   0  0  0  0  0  0  0  0  0  0  0  0
  153.6505  141.9008  162.5832 N   0  0  0  0  0  0  0  0  0  0  0  0
  153.9415  140.6993  162.0905 C   0  0  0  0  0  0  0  0  0  0  0  0
  153.7633  140.5181  160.7681 N   0  0  0  0  0  0  0  0  0  0  0  0
  154.0109  139.3177  159.9937 C   0  0  0  0  0  0  0  0  0  0  0  0
  155.4794  138.8580  160.0984 C   0  0  2  0  0  0  0  0  0  0  0  0
  156.2525  139.5305  159.1252 O   0  0  0  0  0  0  0  0  0  0  0  0
  155.6713  137.3375  159.9192 C   0  0  0  0  0  0  0  0  0  0  0  0
  155.1520  136.5712  161.0592 N   0  0  0  0  0  0  0  0  0  0  0  0
  154.5315  135.3816  160.9604 C   0  0  0  0  0  0  0  0  0  0  0  0
  154.3141  134.7521  159.9263 O   0  0  0  0  0  0  0  0  0  0  0  0
  154.1724  134.9904  162.1902 N   0  0  0  0  0  0  0  0  0  0  0  0
  154.5438  135.9441  163.2177 C   0  0  0  0  0  0  0  0  0  0  0  0
  153.2947  136.5118  163.9161 C   0  0  0  0  0  0  0  0  0  0  0  0
  155.5378  135.3201  164.2133 C   0  0  0  0  0  0  0  0  0  0  0  0
  155.2124  136.9844  162.3328 C   0  0  0  0  0  0  0  0  0  0  0  0
  155.7084  138.0296  162.7538 O   0  0  0  0  0  0  0  0  0  0  0  0
  153.2937  141.7377  160.2970 C   0  0  0  0  0  0  0  0  0  0  0  0
  152.9179  142.2026  159.0251 C   0  0  0  0  0  0  0  0  0  0  0  0
  152.4701  143.5309  158.8739 C   0  0  0  0  0  0  0  0  0  0  0  0
  152.0648  144.0212  157.4949 C   0  0  0  0  0  0  0  0  0  0  0  0
  151.8546  146.3089  160.8408 H   0  0  0  0  0  0  0  0  0  0  0  0
  150.9303  145.8483  159.4139 H   0  0  0  0  0  0  0  0  0  0  0  0
  152.6068  146.3910  159.2474 H   0  0  0  0  0  0  0  0  0  0  0  0
  152.7327  144.5536  162.1405 H   0  0  0  0  0  0  0  0  0  0  0  0
  154.3041  139.9054  162.7269 H   0  0  0  0  0  0  0  0  0  0  0  0
  153.3374  138.5489  160.3716 H   0  0  0  0  0  0  0  0  0  0  0  0
  153.7299  139.4936  158.9544 H   0  0  0  0  0  0  0  0  0  0  0  0
  155.8784  139.1493  161.0704 H   0  0  0  0  0  0  0  0  0  0  0  0
  157.1461  139.2307  159.1905 H   0  0  0  0  0  0  0  0  0  0  0  0
  155.2061  137.0108  158.9875 H   0  0  0  0  0  0  0  0  0  0  0  0
  156.7337  137.1119  159.8101 H   0  0  0  0  0  0  0  0  0  0  0  0
  153.6839  134.1304  162.3933 H   0  0  0  0  0  0  0  0  0  0  0  0
  153.5645  137.2554  164.6668 H   0  0  0  0  0  0  0  0  0  0  0  0
  152.7359  135.7232  164.4210 H   0  0  0  0  0  0  0  0  0  0  0  0
  152.6173  136.9905  163.2076 H   0  0  0  0  0  0  0  0  0  0  0  0
  155.8213  136.0331  164.9885 H   0  0  0  0  0  0  0  0  0  0  0  0
  156.4526  134.9897  163.7192 H   0  0  0  0  0  0  0  0  0  0  0  0
  155.1015  134.4526  164.7095 H   0  0  0  0  0  0  0  0  0  0  0  0
  152.9700  141.5390  158.1748 H   0  0  0  0  0  0  0  0  0  0  0  0
  152.2430  143.2600  156.7343 H   0  0  0  0  0  0  0  0  0  0  0  0
  152.6352  144.9083  157.2190 H   0  0  0  0  0  0  0  0  0  0  0  0
  151.0039  144.2713  157.4771 H   0  0  0  0  0  0  0  0  0  0  0  0
  1  2  1  0  0  0  0
  1 25  1  0  0  0  0
  1 26  1  0  0  0  0
  1 27  1  0  0  0  0
  2 23  1  0  0  0  0
  2  3  2  0  0  0  0
  3  4  1  0  0  0  0
  3 28  1  0  0  0  0
  4 21  2  0  0  0  0
  4  5  1  0  0  0  0
  5  6  2  0  0  0  0
  6  7  1  0  0  0  0
  6 29  1  0  0  0  0
  7  8  1  0  0  0  0
  7 21  1  0  0  0  0
  8  9  1  0  0  0  0
  8 30  1  0  0  0  0
  8 31  1  0  0  0  0
  9 10  1  0  0  0  0
  9 11  1  0  0  0  0
  9 32  1  0  0  0  0
 10 33  1  0  0  0  0
 11 12  1  0  0  0  0
 11 34  1  0  0  0  0
 11 35  1  0  0  0  0
 12 19  1  0  0  0  0
 12 13  1  0  0  0  0
 13 14  2  0  0  0  0
 13 15  1  0  0  0  0
 15 16  1  0  0  0  0
 15 36  1  0  0  0  0
 16 17  1  0  0  0  0
 16 18  1  0  0  0  0
 16 19  1  0  0  0  0
 17 37  1  0  0  0  0
 17 38  1  0  0  0  0
 17 39  1  0  0  0  0
 18 40  1  0  0  0  0
 18 41  1  0  0  0  0
 18 42  1  0  0  0  0
 19 20  2  0  0  0  0
 21 22  1  0  0  0  0
 22 23  2  0  0  0  0
 22 43  1  0  0  0  0
 23 24  1  0  0  0  0
 24 44  1  0  0  0  0
 24 45  1  0  0  0  0
 24 46  1  0  0  0  0
M  END
> <s_m_source_file>
AV-unprocessed.smi

> <i_m_source_file_index>
2026

> <i_lp_mmshare_version>
43012

> <i_f3d_flags>
0

> <s_epik_input>
W0NIM11jKFtjSF0xKWMoW0NIM10pW2NIXWMoYzEyKW4oW2NIXW4yKVtDSDJdW0NASF0oW09IXSlbQ0gyXU4oQzM9TylDKD1PKVtOSF1DMyhbQ0gzXSlbQ0gzXQ==

> <s_epik_cmdline>
J2VwaWtfcHl0aG9uJywgJy1waCcsICc3LjAnLCAnLXRuJywgJzgnLCAnLW1hJywgJzIwMCcsICctbWV0YWxfYmluZGluZycsICctaW1hZScsICc8aW5maWxlLm1hZT4nLCAnLW9tYWUnLCAnPG91dGZpbGUubWFlPic=

> <r_lp_tautomer_probability>
1

> <r_epik_Ionization_Penalty>
0.103994

> <r_epik_Ionization_Penalty_Charging>
0

> <r_epik_Ionization_Penalty_Neutral>
0.103994

> <r_epik_State_Penalty>
0.0938482

> <r_epik_Charging_Adjusted_Penalty>
0.0938482

> <i_epik_Tot_Q>
0

> <i_epik_Tot_abs_Q>
0

> <r_epik_Metal_State_Penalty>
0.106997

> <b_epik_Metal_Only>
0

> <s_lp_Force_Field>
OPLS_2005

> <r_lp_Energy>
21.0149

> <b_lp_Chiralities_Consistent>
1

> <s_lp_Variant>
AV-unprocessed.smi:2026-1

> <Gold.Version>
5.8.1

> <Gold.Id.Protein>
6NUR|6NUR_protein|mol2

> <Gold.PLP.Fitness>
51.1346

> <Gold.PLP.PLP>
-46.5930

> <Gold.PLP.part.hbond>
-2.2507

> <Gold.PLP.part.metal>
0.0000

> <Gold.PLP.part.buried>
-5.6645

> <Gold.PLP.part.nonpolar>
-38.8354

> <Gold.PLP.part.repulsive>
0.0886

> <Gold.PLP.ligand.clash>
0.0000

> <Gold.PLP.ligand.torsion>
0.7217

> <Gold.PLP.Chemscore.Hbond>
1.9913

> <Gold.PLP.Chemscore.CHOScore>
0.0000

> <Gold.PLP.Chemscore.Metal>
0.0000

> <Gold.Chemscore.Hbonds>
donor molecule, donor type, donor heavy atom, donor atom, acceptor molecule, acceptor atom, score
      P1  H  6896  6909       L1    14  1.00
      P1  H  7997  8010       L1    10  1.00

> <Gold.PLP.Chemscore.Internal.Correction>
0.0113

> <Gold.Rescore>
     Score         DG    S(hbond)    S(metal)    S(lipo)     H(rot)  DE(clash)    DE(int)     intcor
     19.03     -21.09       1.93        0.00     131.57       2.44       0.19       1.87       ----

> <Gold.Chemscore.Fitness>
19.0270

> <Gold.Chemscore.DG>
-21.0856

> <Gold.Chemscore.ZeroCoef>
-5.4800

> <Gold.Chemscore.Hbond>
1.9306

> <Gold.Chemscore.Metal>
0.0000

> <Gold.Chemscore.Lipo>
131.5657

> <Gold.Chemscore.Internal_Hbond>
0.0000

> <Gold.Chemscore.DEClash>
0.1909

> <Gold.Chemscore.DEInternal>
1.8677

> <Gold.Chemscore.Rot>
2.4358

> <Gold.Chemscore.Internal.Correction>
   9.000000E+99

> <Gold.Chemscore.Hbonds>
donor molecule, donor type, donor heavy atom, donor atom, acceptor molecule, acceptor atom, score
      P1  H  6896  6909       L1    14  0.40
      P1  H  7997  8010       L1    10  0.71

> <Gold.Chemscore.Hbond.Weighted>
-6.4481

> <Gold.Chemscore.Metal.Weighted>
-0.0000

> <Gold.Chemscore.Lipo.Weighted>
-15.3932

> <Gold.Chemscore.Internal_Hbond.Weighted>
0.0000

> <Gold.Chemscore.DEClash.Weighted>
0.1909

> <Gold.Chemscore.DEInternal.Weighted>
1.8677

> <Gold.Chemscore.Rot.Weighted>
6.2357

> <Gold.Chemscore.Internal.Correction.Weighted>
   9.000000E+99

> <Gold.Protein.RotatedTorsions>
[ 6907 6896 6895 6894 ] final -170.83 input  -60.11 | X-H torsion
[ 7974 7965 7964 7962 ] final   15.23 input  175.53 | X-H torsion
[ 8008 7997 7996 7995 ] final  -44.37 input   59.86 | X-H torsion
[ 10167 10162 10161 10158 ] final  -59.71 input  -65.29 | X-H torsion
[ 10718 10713 10712 10709 ] final  168.32 input   66.30 | X-H torsion
[ 10763 10752 10751 10750 ] final   60.99 input  -60.55 | X-H torsion
[ 11005 11000 10999 10996 ] final  -62.16 input  -57.11 | X-H torsion

> <Gold.Protein.ActiveResidues>
 VAL166  LYS551  ARG553  GLY616  TRP617  ASP618  TYR619  PRO620  LYS621  CYS622 
 ASP623  PHE694  ASN695  SER759  ASP760  ASP761  ALA762  ILE779  LEU786  VAL792 
 PHE793  MET794  SER795  GLU796  ALA797  LYS798  CYS799  TRP800  GLU811  SER814 

> <Gold.Protein.RotatedAtoms>
  151.5140  133.3479  159.2889 H   0  0  0  0  0  0  0  0  0  0  0  0  # atno 6907 bound_to 6896
  150.8694  134.8067  159.7154 H   0  0  0  0  0  0  0  0  0  0  0  0  # atno 6908 bound_to 6896
  152.4687  134.5022  159.9780 H   0  0  0  0  0  0  0  0  0  0  0  0  # atno 6909 bound_to 6896
  146.2284  139.8925  142.8552 H   0  0  0  0  0  0  0  0  0  0  0  0  # atno 7974 bound_to 7965
  154.3997  140.1424  156.3672 H   0  0  0  0  0  0  0  0  0  0  0  0  # atno 8008 bound_to 7997
  155.8126  140.3472  155.5446 H   0  0  0  0  0  0  0  0  0  0  0  0  # atno 8009 bound_to 7997
  155.8371  140.0921  157.1748 H   0  0  0  0  0  0  0  0  0  0  0  0  # atno 8010 bound_to 7997
  140.6118  143.2389  151.5691 H   0  0  0  0  0  0  0  0  0  0  0  0  # atno 10167 bound_to 10162
  157.0388  131.0281  151.2720 H   0  0  0  0  0  0  0  0  0  0  0  0  # atno 10718 bound_to 10713
  152.9937  135.5516  154.5962 H   0  0  0  0  0  0  0  0  0  0  0  0  # atno 10763 bound_to 10752
  154.5313  135.2814  155.1179 H   0  0  0  0  0  0  0  0  0  0  0  0  # atno 10764 bound_to 10752
  154.2493  135.6402  153.5287 H   0  0  0  0  0  0  0  0  0  0  0  0  # atno 10765 bound_to 10752
  141.1350  133.6637  156.5485 H   0  0  0  0  0  0  0  0  0  0  0  0  # atno 11005 bound_to 11000
  145.2403  141.0007  143.3939 LP  0  0  0  0  0  0  0  0  0  0  0  0  # atno 17320 bound_to 7965
  144.9457  139.4139  143.6427 LP  0  0  0  0  0  0  0  0  0  0  0  0  # atno 17321 bound_to 7965
  139.5367  144.2761  152.1266 LP  0  0  0  0  0  0  0  0  0  0  0  0  # atno 17342 bound_to 10162
  140.1962  144.4703  150.6454 LP  0  0  0  0  0  0  0  0  0  0  0  0  # atno 17343 bound_to 10162
  157.5120  130.7944  149.7715 LP  0  0  0  0  0  0  0  0  0  0  0  0  # atno 17370 bound_to 10713
  156.0045  130.3863  150.2483 LP  0  0  0  0  0  0  0  0  0  0  0  0  # atno 17371 bound_to 10713
  140.4083  134.7295  157.4821 LP  0  0  0  0  0  0  0  0  0  0  0  0  # atno 17394 bound_to 11000
  140.0446  134.6218  155.8937 LP  0  0  0  0  0  0  0  0  0  0  0  0  # atno 17395 bound_to 11000

$$$$
