AV-unprocessed.smi:2003|AV-procd|sdf|8118|dock9
  -GOLD-   2272010353D 1   1.00000     0.00000
 Structure written by MMmdl.
 43 44  0  0  0  0  0  0  0  0  1 V2000
  143.6914  132.5214  149.5373 C   0  0  0  0  0  0  0  0  0  0  0  0
  144.7146  133.2482  150.3600 C   0  0  0  0  0  0  0  0  0  0  0  0
  144.8067  134.6485  150.6078 C   0  0  0  0  0  0  0  0  0  0  0  0
  145.9104  134.7412  151.4115 C   0  0  0  0  0  0  0  0  0  0  0  0
  146.4722  135.8501  151.9627 N   0  0  0  0  0  0  0  0  0  0  0  0
  145.8735  136.8599  152.6175 C   0  0  0  0  0  0  0  0  0  0  0  0
  144.6642  136.9592  152.8269 O   0  0  0  0  0  0  0  0  0  0  0  0
  146.7701  137.7668  153.0318 N   0  0  0  0  0  0  0  0  0  0  0  0
  146.4511  138.9691  153.7973 C   0  0  0  0  0  0  0  0  0  0  0  0
  147.5184  140.0933  153.6530 C   0  0  1  0  0  0  0  0  0  0  0  0
  146.8145  141.4678  153.7872 C   0  0  0  0  0  0  0  0  0  0  0  0
  148.6617  139.9418  154.5829 N   0  0  0  0  0  0  0  0  0  0  0  0
  149.3428  141.2154  154.8454 C   0  0  0  0  0  0  0  0  0  0  0  0
  150.5528  141.0667  155.7839 C   0  0  0  0  0  0  0  0  0  0  0  0
  151.4693  140.1288  155.2377 O   0  0  0  0  0  0  0  0  0  0  0  0
  150.8722  138.8547  155.0420 C   0  0  0  0  0  0  0  0  0  0  0  0
  149.6649  138.9865  154.0975 C   0  0  0  0  0  0  0  0  0  0  0  0
  146.4224  133.4768  151.6107 N   0  0  0  0  0  0  0  0  0  0  0  0
  147.5717  133.0430  152.3818 C   0  0  0  0  0  0  0  0  0  0  0  0
  145.6777  132.5577  150.9595 N   0  0  0  0  0  0  0  0  0  0  0  0
  143.0965  133.2174  148.9457 H   0  0  0  0  0  0  0  0  0  0  0  0
  143.0079  131.9573  150.1722 H   0  0  0  0  0  0  0  0  0  0  0  0
  144.1628  131.8207  148.8477 H   0  0  0  0  0  0  0  0  0  0  0  0
  144.1596  135.4339  150.2473 H   0  0  0  0  0  0  0  0  0  0  0  0
  147.4759  135.9110  151.8749 H   0  0  0  0  0  0  0  0  0  0  0  0
  147.7438  137.6106  152.8157 H   0  0  0  0  0  0  0  0  0  0  0  0
  145.4791  139.3353  153.4651 H   0  0  0  0  0  0  0  0  0  0  0  0
  146.3227  138.6533  154.8316 H   0  0  0  0  0  0  0  0  0  0  0  0
  147.9098  140.0365  152.6362 H   0  0  0  0  0  0  0  0  0  0  0  0
  145.9416  141.5543  153.1411 H   0  0  0  0  0  0  0  0  0  0  0  0
  147.4626  142.2935  153.4973 H   0  0  0  0  0  0  0  0  0  0  0  0
  146.4822  141.6419  154.8110 H   0  0  0  0  0  0  0  0  0  0  0  0
  149.6685  141.6615  153.9045 H   0  0  0  0  0  0  0  0  0  0  0  0
  148.6632  141.9249  155.3138 H   0  0  0  0  0  0  0  0  0  0  0  0
  151.0564  142.0257  155.9059 H   0  0  0  0  0  0  0  0  0  0  0  0
  150.2354  140.7428  156.7762 H   0  0  0  0  0  0  0  0  0  0  0  0
  151.6126  138.1766  154.6175 H   0  0  0  0  0  0  0  0  0  0  0  0
  150.5678  138.4354  156.0023 H   0  0  0  0  0  0  0  0  0  0  0  0
  149.2355  137.9918  153.9983 H   0  0  0  0  0  0  0  0  0  0  0  0
  150.0109  139.2841  153.1064 H   0  0  0  0  0  0  0  0  0  0  0  0
  148.1399  133.9000  152.7429 H   0  0  0  0  0  0  0  0  0  0  0  0
  148.2236  132.4292  151.7594 H   0  0  0  0  0  0  0  0  0  0  0  0
  147.2375  132.4551  153.2371 H   0  0  0  0  0  0  0  0  0  0  0  0
  1  2  1  0  0  0  0
  1 21  1  0  0  0  0
  1 22  1  0  0  0  0
  1 23  1  0  0  0  0
  2 20  2  0  0  0  0
  2  3  1  0  0  0  0
  3  4  2  0  0  0  0
  3 24  1  0  0  0  0
  4  5  1  0  0  0  0
  4 18  1  0  0  0  0
  5  6  1  0  0  0  0
  5 25  1  0  0  0  0
  6  7  2  0  0  0  0
  6  8  1  0  0  0  0
  8  9  1  0  0  0  0
  8 26  1  0  0  0  0
  9 10  1  0  0  0  0
  9 27  1  0  0  0  0
  9 28  1  0  0  0  0
 10 11  1  0  0  0  0
 10 12  1  0  0  0  0
 10 29  1  0  0  0  0
 11 30  1  0  0  0  0
 11 31  1  0  0  0  0
 11 32  1  0  0  0  0
 12 17  1  0  0  0  0
 12 13  1  0  0  0  0
 13 14  1  0  0  0  0
 13 33  1  0  0  0  0
 13 34  1  0  0  0  0
 14 15  1  0  0  0  0
 14 35  1  0  0  0  0
 14 36  1  0  0  0  0
 15 16  1  0  0  0  0
 16 17  1  0  0  0  0
 16 37  1  0  0  0  0
 16 38  1  0  0  0  0
 17 39  1  0  0  0  0
 17 40  1  0  0  0  0
 18 19  1  0  0  0  0
 18 20  1  0  0  0  0
 19 41  1  0  0  0  0
 19 42  1  0  0  0  0
 19 43  1  0  0  0  0
M  END
> <s_m_source_file>
AV-unprocessed.smi

> <i_m_source_file_index>
2003

> <i_lp_mmshare_version>
43012

> <i_f3d_flags>
0

> <s_epik_input>
W0NIM11jMVtjSF1jKG4objEpW0NIM10pW05IXUMoPU8pW05IXVtDSDJdW0NASF0oW0NIM10pTjJbQ0gyXVtDSDJdT1tDSDJdW0NIMl0y

> <s_epik_cmdline>
J2VwaWtfcHl0aG9uJywgJy1waCcsICc3LjAnLCAnLXRuJywgJzgnLCAnLW1hJywgJzIwMCcsICctbWV0YWxfYmluZGluZycsICctaW1hZScsICc8aW5maWxlLm1hZT4nLCAnLW9tYWUnLCAnPG91dGZpbGUubWFlPic=

> <r_lp_tautomer_probability>
1

> <r_epik_Ionization_Penalty>
0.233974

> <r_epik_Ionization_Penalty_Charging>
0

> <r_epik_Ionization_Penalty_Neutral>
0.233974

> <r_epik_State_Penalty>
0.224627

> <r_epik_Charging_Adjusted_Penalty>
0.224627

> <i_epik_Tot_Q>
0

> <i_epik_Tot_abs_Q>
0

> <r_epik_Metal_State_Penalty>
0.224624

> <b_epik_Metal_Only>
0

> <s_lp_Force_Field>
OPLS_2005

> <r_lp_Energy>
29.1269

> <b_lp_Chiralities_Consistent>
1

> <s_lp_Variant>
AV-unprocessed.smi:2003-2

> <Gold.Version>
5.8.1

> <Gold.Id.Protein>
6NUR|6NUR_protein|mol2

> <Gold.PLP.Fitness>
42.6728

> <Gold.PLP.PLP>
-37.5418

> <Gold.PLP.part.hbond>
-2.8355

> <Gold.PLP.part.metal>
0.0000

> <Gold.PLP.part.buried>
-4.2202

> <Gold.PLP.part.nonpolar>
-31.8580

> <Gold.PLP.part.repulsive>
0.5153

> <Gold.PLP.ligand.clash>
0.0000

> <Gold.PLP.ligand.torsion>
1.4417

> <Gold.PLP.Chemscore.Hbond>
2.6598

> <Gold.PLP.Chemscore.CHOScore>
0.0000

> <Gold.PLP.Chemscore.Metal>
0.0000

> <Gold.Chemscore.Hbonds>
donor molecule, donor type, donor heavy atom, donor atom, acceptor molecule, acceptor atom, score
      L1  H     5    25       P1  7948  0.88
      L1  H     8    26       P1  7948  0.74
      P1  H  7989  7998       L1    15  0.95

> <Gold.PLP.Chemscore.Internal.Correction>
0.0349

> <Gold.Rescore>
     Score         DG    S(hbond)    S(metal)    S(lipo)     H(rot)  DE(clash)    DE(int)     intcor
     15.81     -17.41       1.94        0.00      79.37       1.49       0.20       1.39       ----

> <Gold.Chemscore.Fitness>
15.8096

> <Gold.Chemscore.DG>
-17.4050

> <Gold.Chemscore.ZeroCoef>
-5.4800

> <Gold.Chemscore.Hbond>
1.9352

> <Gold.Chemscore.Metal>
0.0000

> <Gold.Chemscore.Lipo>
79.3650

> <Gold.Chemscore.Internal_Hbond>
0.0000

> <Gold.Chemscore.DEClash>
0.2015

> <Gold.Chemscore.DEInternal>
1.3939

> <Gold.Chemscore.Rot>
1.4938

> <Gold.Chemscore.Internal.Correction>
   9.000000E+99

> <Gold.Chemscore.Hbonds>
donor molecule, donor type, donor heavy atom, donor atom, acceptor molecule, acceptor atom, score
      L1  H     5    25       P1  7948  0.86
      L1  H     8    26       P1  7948  0.70
      P1  H  7989  7998       L1    15  0.11

> <Gold.Chemscore.Hbond.Weighted>
-6.4635

> <Gold.Chemscore.Metal.Weighted>
-0.0000

> <Gold.Chemscore.Lipo.Weighted>
-9.2857

> <Gold.Chemscore.Internal_Hbond.Weighted>
0.0000

> <Gold.Chemscore.DEClash.Weighted>
0.2015

> <Gold.Chemscore.DEInternal.Weighted>
1.3939

> <Gold.Chemscore.Rot.Weighted>
3.8242

> <Gold.Chemscore.Internal.Correction.Weighted>
   9.000000E+99

> <Gold.Protein.RotatedTorsions>
[ 6907 6896 6895 6894 ] final  -22.76 input  -60.11 | X-H torsion
[ 7974 7965 7964 7962 ] final   43.28 input  175.53 | X-H torsion
[ 8008 7997 7996 7995 ] final   17.49 input   59.86 | X-H torsion
[ 10167 10162 10161 10158 ] final  134.02 input  -65.29 | X-H torsion
[ 10718 10713 10712 10709 ] final   64.05 input   66.30 | X-H torsion
[ 10763 10752 10751 10750 ] final -172.73 input  -60.55 | X-H torsion
[ 11005 11000 10999 10996 ] final   -6.09 input  -57.11 | X-H torsion

> <Gold.Protein.ActiveResidues>
 VAL166  LYS551  ARG553  GLY616  TRP617  ASP618  TYR619  PRO620  LYS621  CYS622 
 ASP623  PHE694  ASN695  SER759  ASP760  ASP761  ALA762  ILE779  LEU786  VAL792 
 PHE793  MET794  SER795  GLU796  ALA797  LYS798  CYS799  TRP800  GLU811  SER814 

> <Gold.Protein.RotatedAtoms>
  151.2138  135.0492  159.8921 H   0  0  0  0  0  0  0  0  0  0  0  0  # atno 6907 bound_to 6896
  152.5422  134.0715  159.8206 H   0  0  0  0  0  0  0  0  0  0  0  0  # atno 6908 bound_to 6896
  151.0872  133.5296  159.2649 H   0  0  0  0  0  0  0  0  0  0  0  0  # atno 6909 bound_to 6896
  146.0669  139.5205  142.9622 H   0  0  0  0  0  0  0  0  0  0  0  0  # atno 7974 bound_to 7965
  154.8921  140.2988  155.5365 H   0  0  0  0  0  0  0  0  0  0  0  0  # atno 8008 bound_to 7997
  156.3020  140.2422  156.3872 H   0  0  0  0  0  0  0  0  0  0  0  0  # atno 8009 bound_to 7997
  154.8608  140.0405  157.1652 H   0  0  0  0  0  0  0  0  0  0  0  0  # atno 8010 bound_to 7997
  139.5273  144.6588  151.5079 H   0  0  0  0  0  0  0  0  0  0  0  0  # atno 10167 bound_to 10162
  157.6013  130.9139  149.9795 H   0  0  0  0  0  0  0  0  0  0  0  0  # atno 10718 bound_to 10713
  154.6159  135.2870  155.0380 H   0  0  0  0  0  0  0  0  0  0  0  0  # atno 10763 bound_to 10752
  154.1593  135.6491  153.4986 H   0  0  0  0  0  0  0  0  0  0  0  0  # atno 10764 bound_to 10752
  153.0215  135.5374  154.6930 H   0  0  0  0  0  0  0  0  0  0  0  0  # atno 10765 bound_to 10752
  140.6982  133.9012  155.8665 H   0  0  0  0  0  0  0  0  0  0  0  0  # atno 11005 bound_to 11000
  145.6461  141.0273  143.1785 LP  0  0  0  0  0  0  0  0  0  0  0  0  # atno 17320 bound_to 7965
  144.7208  139.8038  143.7382 LP  0  0  0  0  0  0  0  0  0  0  0  0  # atno 17321 bound_to 7965
  140.6426  143.8859  150.6706 LP  0  0  0  0  0  0  0  0  0  0  0  0  # atno 17342 bound_to 10162
  140.2198  143.3818  152.1652 LP  0  0  0  0  0  0  0  0  0  0  0  0  # atno 17343 bound_to 10162
  156.1087  130.3651  150.0087 LP  0  0  0  0  0  0  0  0  0  0  0  0  # atno 17370 bound_to 10713
  156.8189  130.9351  151.3642 LP  0  0  0  0  0  0  0  0  0  0  0  0  # atno 17371 bound_to 10713
  141.0185  134.0922  157.4146 LP  0  0  0  0  0  0  0  0  0  0  0  0  # atno 17394 bound_to 11000
  139.8904  135.0112  156.6733 LP  0  0  0  0  0  0  0  0  0  0  0  0  # atno 17395 bound_to 11000

$$$$
