AV-unprocessed.smi:1986|AV-procd|sdf|8051|dock4
  -GOLD-   2272010253D 1   1.00000     0.00000
 Structure written by MMmdl.
 47 48  0  0  0  0  0  0  0  0  1 V2000
  151.1486  138.3958  154.3805 C   0  0  0  0  0  0  0  0  0  0  0  0
  150.5449  138.1887  155.7816 C   0  0  0  0  0  0  0  0  0  0  0  0
  150.0776  139.4866  156.5141 C   0  0  2  0  0  0  0  0  0  0  0  0
  151.2770  140.4723  156.4644 C   0  0  0  0  0  0  0  0  0  0  0  0
  149.7846  139.1250  158.0075 C   0  0  0  0  0  0  0  0  0  0  0  0
  148.9080  137.9655  158.1750 N   0  0  0  0  0  0  0  0  0  0  0  0
  149.2115  136.8444  158.8471 C   0  0  0  0  0  0  0  0  0  0  0  0
  150.2777  136.6831  159.4426 O   0  0  0  0  0  0  0  0  0  0  0  0
  148.1395  135.7453  158.8389 C   0  0  0  0  0  0  0  0  0  0  0  0
  147.8629  135.2070  160.1784 N   0  0  0  0  0  0  0  0  0  0  0  0
  147.9267  133.8234  160.2493 N   0  0  0  0  0  0  0  0  0  0  0  0
  147.7314  133.2250  161.3752 C   0  0  0  0  0  0  0  0  0  0  0  0
  147.8086  131.8540  161.4002 O   0  0  0  0  0  0  0  0  0  0  0  0
  147.4387  133.9721  162.5788 C   0  0  0  0  0  0  0  0  0  0  0  0
  147.3756  135.3193  162.4994 C   0  0  0  0  0  0  0  0  0  0  0  0
  147.5973  136.0304  161.2389 C   0  0  0  0  0  0  0  0  0  0  0  0
  147.5549  137.2566  161.1419 O   0  0  0  0  0  0  0  0  0  0  0  0
  148.8893  140.0836  155.8404 N   0  0  0  0  0  0  0  0  0  0  0  0
  149.1374  140.6263  154.4991 C   0  0  0  0  0  0  0  0  0  0  0  0
  147.8391  141.0883  153.8157 C   0  0  0  0  0  0  0  0  0  0  0  0
  147.1843  142.0522  154.6315 O   0  0  0  0  0  0  0  0  0  0  0  0
  146.8743  141.5477  155.9249 C   0  0  0  0  0  0  0  0  0  0  0  0
  148.1654  141.0910  156.6251 C   0  0  0  0  0  0  0  0  0  0  0  0
  147.6766  131.5775  160.5066 H   0  0  0  0  0  0  0  0  0  0  0  0
  151.4320  137.4384  153.9432 H   0  0  0  0  0  0  0  0  0  0  0  0
  152.0456  139.0138  154.4135 H   0  0  0  0  0  0  0  0  0  0  0  0
  150.4410  138.8670  153.6983 H   0  0  0  0  0  0  0  0  0  0  0  0
  149.7208  137.4794  155.7067 H   0  0  0  0  0  0  0  0  0  0  0  0
  151.2933  137.6709  156.3825 H   0  0  0  0  0  0  0  0  0  0  0  0
  152.2195  139.9869  156.7199 H   0  0  0  0  0  0  0  0  0  0  0  0
  151.1559  141.2969  157.1671 H   0  0  0  0  0  0  0  0  0  0  0  0
  151.4012  140.9072  155.4724 H   0  0  0  0  0  0  0  0  0  0  0  0
  150.7095  138.9656  158.5620 H   0  0  0  0  0  0  0  0  0  0  0  0
  149.2833  139.9535  158.5067 H   0  0  0  0  0  0  0  0  0  0  0  0
  148.0073  138.0123  157.7210 H   0  0  0  0  0  0  0  0  0  0  0  0
  147.2337  136.1431  158.3787 H   0  0  0  0  0  0  0  0  0  0  0  0
  148.4638  134.9341  158.1840 H   0  0  0  0  0  0  0  0  0  0  0  0
  147.2750  133.4573  163.5140 H   0  0  0  0  0  0  0  0  0  0  0  0
  147.1576  135.8901  163.3901 H   0  0  0  0  0  0  0  0  0  0  0  0
  149.8231  141.4716  154.5525 H   0  0  0  0  0  0  0  0  0  0  0  0
  149.6022  139.8815  153.8557 H   0  0  0  0  0  0  0  0  0  0  0  0
  148.0597  141.5331  152.8454 H   0  0  0  0  0  0  0  0  0  0  0  0
  147.1751  140.2415  153.6356 H   0  0  0  0  0  0  0  0  0  0  0  0
  146.3862  142.3308  156.5048 H   0  0  0  0  0  0  0  0  0  0  0  0
  146.1664  140.7214  155.8420 H   0  0  0  0  0  0  0  0  0  0  0  0
  147.8936  140.7034  157.6050 H   0  0  0  0  0  0  0  0  0  0  0  0
  148.7960  141.9638  156.7935 H   0  0  0  0  0  0  0  0  0  0  0  0
  1  2  1  0  0  0  0
  1 25  1  0  0  0  0
  1 26  1  0  0  0  0
  1 27  1  0  0  0  0
  2  3  1  0  0  0  0
  2 28  1  0  0  0  0
  2 29  1  0  0  0  0
  3  4  1  0  0  0  0
  3  5  1  0  0  0  0
  3 18  1  0  0  0  0
  4 30  1  0  0  0  0
  4 31  1  0  0  0  0
  4 32  1  0  0  0  0
  5  6  1  0  0  0  0
  5 33  1  0  0  0  0
  5 34  1  0  0  0  0
  6  7  1  0  0  0  0
  6 35  1  0  0  0  0
  7  8  2  0  0  0  0
  7  9  1  0  0  0  0
  9 36  1  0  0  0  0
  9 37  1  0  0  0  0
  9 10  1  0  0  0  0
 10 11  1  0  0  0  0
 10 16  1  0  0  0  0
 11 12  2  0  0  0  0
 12 13  1  0  0  0  0
 12 14  1  0  0  0  0
 13 24  1  0  0  0  0
 14 38  1  0  0  0  0
 14 15  2  0  0  0  0
 15 39  1  0  0  0  0
 15 16  1  0  0  0  0
 16 17  2  0  0  0  0
 18 23  1  0  0  0  0
 18 19  1  0  0  0  0
 19 20  1  0  0  0  0
 19 40  1  0  0  0  0
 19 41  1  0  0  0  0
 20 21  1  0  0  0  0
 20 42  1  0  0  0  0
 20 43  1  0  0  0  0
 21 22  1  0  0  0  0
 22 23  1  0  0  0  0
 22 44  1  0  0  0  0
 22 45  1  0  0  0  0
 23 46  1  0  0  0  0
 23 47  1  0  0  0  0
M  END
> <s_m_source_file>
AV-unprocessed.smi

> <i_m_source_file_index>
1986

> <i_lp_mmshare_version>
43012

> <i_f3d_flags>
0

> <s_epik_input>
W0NIMl0xW0NIMl1PW0NIMl1bQ0gyXU4xW0NAQF0oW0NIM10pKFtDSDJdW0NIM10pW0NIMl1bTkhdQyg9TylbQ0gyXW4yW25IXWMoPU8pW2NIXVtjSF1jMj1P

> <s_epik_cmdline>
J2VwaWtfcHl0aG9uJywgJy1waCcsICc3LjAnLCAnLXRuJywgJzgnLCAnLW1hJywgJzIwMCcsICctbWV0YWxfYmluZGluZycsICctaW1hZScsICc8aW5maWxlLm1hZT4nLCAnLW9tYWUnLCAnPG91dGZpbGUubWFlPic=

> <r_epik_Ionization_Penalty>
2.44436

> <r_epik_Ionization_Penalty_Charging>
3.63754e-08

> <r_epik_Ionization_Penalty_Neutral>
2.44436

> <r_epik_State_Penalty>
2.04701

> <r_epik_Charging_Adjusted_Penalty>
2.04701

> <i_epik_Tot_Q>
0

> <i_epik_Tot_abs_Q>
0

> <r_epik_Metal_State_Penalty>
2.04701

> <b_epik_Metal_Only>
0

> <s_lp_Force_Field>
OPLS_2005

> <r_lp_Energy>
53.8062

> <b_lp_Chiralities_Consistent>
1

> <s_lp_Variant>
AV-unprocessed.smi:1986-6

> <Gold.Version>
5.8.1

> <Gold.Id.Protein>
6NUR|6NUR_protein|mol2

> <Gold.PLP.Fitness>
44.8888

> <Gold.PLP.PLP>
-37.4373

> <Gold.PLP.part.hbond>
-3.0000

> <Gold.PLP.part.metal>
0.0000

> <Gold.PLP.part.buried>
-6.8757

> <Gold.PLP.part.nonpolar>
-28.8415

> <Gold.PLP.part.repulsive>
0.2958

> <Gold.PLP.ligand.clash>
0.0000

> <Gold.PLP.ligand.torsion>
0.6329

> <Gold.PLP.Chemscore.Hbond>
2.8240

> <Gold.PLP.Chemscore.CHOScore>
0.0000

> <Gold.PLP.Chemscore.Metal>
0.0000

> <Gold.Chemscore.Hbonds>
donor molecule, donor type, donor heavy atom, donor atom, acceptor molecule, acceptor atom, score
      P1  H  6896  6908       L1     8  1.00
      P1  H  6931  6943       L1    17  0.86
      P1  H  6934  6947       L1    17  0.93

> <Gold.PLP.Chemscore.Internal.Correction>
0.2453

> <Gold.Rescore>
     Score         DG    S(hbond)    S(metal)    S(lipo)     H(rot)  DE(clash)    DE(int)     intcor
     12.52     -14.71       2.79        0.00      66.20       3.06       0.01       2.18       ----

> <Gold.Chemscore.Fitness>
12.5217

> <Gold.Chemscore.DG>
-14.7057

> <Gold.Chemscore.ZeroCoef>
-5.4800

> <Gold.Chemscore.Hbond>
2.7901

> <Gold.Chemscore.Metal>
0.0000

> <Gold.Chemscore.Lipo>
66.2012

> <Gold.Chemscore.Internal_Hbond>
0.0000

> <Gold.Chemscore.DEClash>
0.0057

> <Gold.Chemscore.DEInternal>
2.1783

> <Gold.Chemscore.Rot>
3.0620

> <Gold.Chemscore.Internal.Correction>
   9.000000E+99

> <Gold.Chemscore.Hbonds>
donor molecule, donor type, donor heavy atom, donor atom, acceptor molecule, acceptor atom, score
      P1  H  6896  6908       L1     8  0.87
      P1  H  6931  6943       L1    17  0.80
      P1  H  6934  6947       L1    17  0.90

> <Gold.Chemscore.Hbond.Weighted>
-9.3189

> <Gold.Chemscore.Metal.Weighted>
-0.0000

> <Gold.Chemscore.Lipo.Weighted>
-7.7455

> <Gold.Chemscore.Internal_Hbond.Weighted>
0.0000

> <Gold.Chemscore.DEClash.Weighted>
0.0057

> <Gold.Chemscore.DEInternal.Weighted>
2.1783

> <Gold.Chemscore.Rot.Weighted>
7.8387

> <Gold.Chemscore.Internal.Correction.Weighted>
   9.000000E+99

> <Gold.Protein.RotatedTorsions>
[ 6907 6896 6895 6894 ] final -173.38 input  -60.11 | X-H torsion
[ 7974 7965 7964 7962 ] final -165.61 input  175.53 | X-H torsion
[ 8008 7997 7996 7995 ] final -166.22 input   59.86 | X-H torsion
[ 10167 10162 10161 10158 ] final -150.56 input  -65.29 | X-H torsion
[ 10718 10713 10712 10709 ] final  133.12 input   66.30 | X-H torsion
[ 10763 10752 10751 10750 ] final -102.37 input  -60.55 | X-H torsion
[ 11005 11000 10999 10996 ] final   26.37 input  -57.11 | X-H torsion

> <Gold.Protein.ActiveResidues>
 VAL166  LYS551  ARG553  GLY616  TRP617  ASP618  TYR619  PRO620  LYS621  CYS622 
 ASP623  PHE694  ASN695  SER759  ASP760  ASP761  ALA762  ILE779  LEU786  VAL792 
 PHE793  MET794  SER795  GLU796  ALA797  LYS798  CYS799  TRP800  GLU811  SER814 

> <Gold.Protein.RotatedAtoms>
  151.5552  133.3411  159.2960 H   0  0  0  0  0  0  0  0  0  0  0  0  # atno 6907 bound_to 6896
  150.8455  134.7765  159.6978 H   0  0  0  0  0  0  0  0  0  0  0  0  # atno 6908 bound_to 6896
  152.4513  134.5394  159.9886 H   0  0  0  0  0  0  0  0  0  0  0  0  # atno 6909 bound_to 6896
  144.7265  140.2788  143.6239 H   0  0  0  0  0  0  0  0  0  0  0  0  # atno 7974 bound_to 7965
  155.8608  140.0978  157.1614 H   0  0  0  0  0  0  0  0  0  0  0  0  # atno 8008 bound_to 7997
  154.3990  140.1365  156.4021 H   0  0  0  0  0  0  0  0  0  0  0  0  # atno 8009 bound_to 7997
  155.7858  140.3457  155.5325 H   0  0  0  0  0  0  0  0  0  0  0  0  # atno 8010 bound_to 7997
  139.7344  143.8758  152.2544 H   0  0  0  0  0  0  0  0  0  0  0  0  # atno 10167 bound_to 10162
  157.4804  131.1085  150.9689 H   0  0  0  0  0  0  0  0  0  0  0  0  # atno 10718 bound_to 10713
  154.7728  135.4863  153.9684 H   0  0  0  0  0  0  0  0  0  0  0  0  # atno 10763 bound_to 10752
  153.1390  135.6768  153.9065 H   0  0  0  0  0  0  0  0  0  0  0  0  # atno 10764 bound_to 10752
  153.8745  135.3139  155.3421 H   0  0  0  0  0  0  0  0  0  0  0  0  # atno 10765 bound_to 10752
  140.3378  134.2366  155.7694 H   0  0  0  0  0  0  0  0  0  0  0  0  # atno 11005 bound_to 11000
  145.7970  139.1949  143.2070 LP  0  0  0  0  0  0  0  0  0  0  0  0  # atno 17320 bound_to 7965
  146.0708  140.7870  142.9689 LP  0  0  0  0  0  0  0  0  0  0  0  0  # atno 17321 bound_to 7965
  139.8691  144.7078  150.9009 LP  0  0  0  0  0  0  0  0  0  0  0  0  # atno 17342 bound_to 10162
  140.7776  143.3753  151.1574 LP  0  0  0  0  0  0  0  0  0  0  0  0  # atno 17343 bound_to 10162
  157.0424  130.5754  149.5358 LP  0  0  0  0  0  0  0  0  0  0  0  0  # atno 17370 bound_to 10713
  156.0118  130.5210  150.8013 LP  0  0  0  0  0  0  0  0  0  0  0  0  # atno 17371 bound_to 10713
  141.2046  133.7881  157.0275 LP  0  0  0  0  0  0  0  0  0  0  0  0  # atno 17394 bound_to 11000
  140.0806  134.9650  157.1618 LP  0  0  0  0  0  0  0  0  0  0  0  0  # atno 17395 bound_to 11000

$$$$
