AV-unprocessed.smi:1675|AV-procd|sdf|6716|dock3
  -GOLD-   22720 7463D 1   1.00000     0.00000
 Structure written by MMmdl.
 40 42  0  0  0  0  0  0  0  0  1 V2000
  145.0346  138.0940  152.2749 N   0  0  0  0  0  0  0  0  0  0  0  0
  146.3271  138.4168  152.1824 C   0  0  0  0  0  0  0  0  0  0  0  0
  146.8296  138.8093  151.1308 O   0  0  0  0  0  0  0  0  0  0  0  0
  147.1708  138.2719  153.4531 C   0  0  0  0  0  0  0  0  0  0  0  0
  147.4725  139.5604  154.0541 N   0  0  0  0  0  0  0  0  0  0  0  0
  148.7088  140.0770  154.3920 C   0  0  0  0  0  0  0  0  0  0  0  0
  148.4626  141.3131  154.9192 C   0  0  0  0  0  0  0  0  0  0  0  0
  149.3731  142.2722  155.4307 N   0  0  0  0  0  0  0  0  0  0  0  0
  150.5840  142.0471  155.9708 C   0  0  0  0  0  0  0  0  0  0  0  0
  151.0835  140.9316  156.1152 O   0  0  0  0  0  0  0  0  0  0  0  0
  151.3460  143.2882  156.4469 C   0  0  0  0  0  0  0  0  0  0  0  0
  151.9633  143.1267  157.8552 C   0  0  1  0  0  0  0  0  0  0  0  0
  152.7688  144.3553  158.3310 C   0  0  0  0  0  0  0  0  0  0  0  0
  152.2180  144.6041  159.7478 C   0  0  1  0  0  0  0  0  0  0  0  0
  150.8088  145.2142  159.6404 C   0  0  0  0  0  0  0  0  0  0  0  0
  149.9586  144.0178  159.1761 C   0  0  0  0  0  0  0  0  0  0  0  0
  150.9993  142.8865  159.0453 C   0  0  2  0  0  0  0  0  0  0  0  0
  151.9129  143.1900  160.2286 C   0  0  0  0  0  0  0  0  0  0  0  0
  147.0548  141.4828  154.8658 C   0  0  0  0  0  0  0  0  0  0  0  0
  146.4633  140.4217  154.3389 N   0  0  0  0  0  0  0  0  0  0  0  0
  144.4405  138.1720  151.4620 H   0  0  0  0  0  0  0  0  0  0  0  0
  144.6555  137.7718  153.1534 H   0  0  0  0  0  0  0  0  0  0  0  0
  146.6487  137.6628  154.1924 H   0  0  0  0  0  0  0  0  0  0  0  0
  148.1001  137.7552  153.2089 H   0  0  0  0  0  0  0  0  0  0  0  0
  149.6230  139.5250  154.2312 H   0  0  0  0  0  0  0  0  0  0  0  0
  149.0739  143.2351  155.3774 H   0  0  0  0  0  0  0  0  0  0  0  0
  152.1403  143.5172  155.7349 H   0  0  0  0  0  0  0  0  0  0  0  0
  150.6715  144.1435  156.4133 H   0  0  0  0  0  0  0  0  0  0  0  0
  152.6496  142.2786  157.8131 H   0  0  0  0  0  0  0  0  0  0  0  0
  153.8344  144.1246  158.3618 H   0  0  0  0  0  0  0  0  0  0  0  0
  152.6390  145.2262  157.6874 H   0  0  0  0  0  0  0  0  0  0  0  0
  152.8932  145.1741  160.3864 H   0  0  0  0  0  0  0  0  0  0  0  0
  150.4653  145.5752  160.6107 H   0  0  0  0  0  0  0  0  0  0  0  0
  150.7708  146.0491  158.9396 H   0  0  0  0  0  0  0  0  0  0  0  0
  149.2186  143.7649  159.9361 H   0  0  0  0  0  0  0  0  0  0  0  0
  149.4161  144.2170  158.2528 H   0  0  0  0  0  0  0  0  0  0  0  0
  150.5626  141.8876  159.0620 H   0  0  0  0  0  0  0  0  0  0  0  0
  152.7947  142.5484  160.2740 H   0  0  0  0  0  0  0  0  0  0  0  0
  151.4002  143.1614  161.1920 H   0  0  0  0  0  0  0  0  0  0  0  0
  146.4547  142.3224  155.1842 H   0  0  0  0  0  0  0  0  0  0  0  0
  1  2  1  0  0  0  0
  1 21  1  0  0  0  0
  1 22  1  0  0  0  0
  2  3  2  0  0  0  0
  2  4  1  0  0  0  0
  4  5  1  0  0  0  0
  4 23  1  0  0  0  0
  4 24  1  0  0  0  0
  5 20  1  0  0  0  0
  5  6  1  0  0  0  0
  6  7  2  0  0  0  0
  6 25  1  0  0  0  0
  7  8  1  0  0  0  0
  7 19  1  0  0  0  0
  8  9  1  0  0  0  0
  8 26  1  0  0  0  0
  9 10  2  0  0  0  0
  9 11  1  0  0  0  0
 11 12  1  0  0  0  0
 11 27  1  0  0  0  0
 11 28  1  0  0  0  0
 12 17  1  0  0  0  0
 12 13  1  0  0  0  0
 12 29  1  0  0  0  0
 13 14  1  0  0  0  0
 13 30  1  0  0  0  0
 13 31  1  0  0  0  0
 14 18  1  0  0  0  0
 14 15  1  0  0  0  0
 14 32  1  0  0  0  0
 15 16  1  0  0  0  0
 15 33  1  0  0  0  0
 15 34  1  0  0  0  0
 16 17  1  0  0  0  0
 16 35  1  0  0  0  0
 16 36  1  0  0  0  0
 17 18  1  0  0  0  0
 17 37  1  0  0  0  0
 18 38  1  0  0  0  0
 18 39  1  0  0  0  0
 19 20  2  0  0  0  0
 19 40  1  0  0  0  0
M  END
> <s_m_source_file>
AV-unprocessed.smi

> <i_m_source_file_index>
1675

> <i_lp_mmshare_version>
43012

> <i_f3d_flags>
0

> <s_epik_input>
W05IMl1DKD1PKVtDSDJdbjFbY0hdYyhbY0hdbjEpW05IXUMoPU8pW0NIMl1bQ0BIXShbQ0gyXVtDQEBIXTIzKVtDQEBIXShbQ0gyXTMpW0NIMl1bQ0gyXTI=

> <s_epik_cmdline>
J2VwaWtfcHl0aG9uJywgJy1waCcsICc3LjAnLCAnLXRuJywgJzgnLCAnLW1hJywgJzIwMCcsICctbWV0YWxfYmluZGluZycsICctaW1hZScsICc8aW5maWxlLm1hZT4nLCAnLW9tYWUnLCAnPG91dGZpbGUubWFlPic=

> <r_lp_tautomer_probability>
1

> <r_epik_Ionization_Penalty>
2.17494e-05

> <r_epik_Ionization_Penalty_Charging>
0

> <r_epik_Ionization_Penalty_Neutral>
2.17494e-05

> <r_epik_State_Penalty>
-0

> <r_epik_Charging_Adjusted_Penalty>
0

> <i_epik_Tot_Q>
0

> <i_epik_Tot_abs_Q>
0

> <r_epik_Metal_State_Penalty>
-0

> <b_epik_Metal_Only>
0

> <s_lp_Force_Field>
OPLS_2005

> <r_lp_Energy>
53.8381

> <b_lp_Chiralities_Consistent>
1

> <s_lp_Variant>
AV-unprocessed.smi:1675-2

> <Gold.Version>
5.8.1

> <Gold.Id.Protein>
6NUR|6NUR_protein|mol2

> <Gold.PLP.Fitness>
46.3487

> <Gold.PLP.PLP>
-38.4938

> <Gold.PLP.part.hbond>
-3.9209

> <Gold.PLP.part.metal>
0.0000

> <Gold.PLP.part.buried>
-5.8296

> <Gold.PLP.part.nonpolar>
-30.8006

> <Gold.PLP.part.repulsive>
1.5481

> <Gold.PLP.ligand.clash>
0.0000

> <Gold.PLP.ligand.torsion>
0.5474

> <Gold.PLP.Chemscore.Hbond>
2.9673

> <Gold.PLP.Chemscore.CHOScore>
0.0000

> <Gold.PLP.Chemscore.Metal>
0.0000

> <Gold.Chemscore.Hbonds>
donor molecule, donor type, donor heavy atom, donor atom, acceptor molecule, acceptor atom, score
      L1  H     1    21       P1 10171  1.00
      L1  H     8    26       P1  8028  0.96
      P1  H  7954  7966       L1     3  0.90

> <Gold.PLP.Chemscore.Internal.Correction>
0.0480

> <Gold.Rescore>
     Score         DG    S(hbond)    S(metal)    S(lipo)     H(rot)  DE(clash)    DE(int)     intcor
     18.46     -21.88       2.92        0.00     103.84       2.15       2.23       1.19       ----

> <Gold.Chemscore.Fitness>
18.4593

> <Gold.Chemscore.DG>
-21.8789

> <Gold.Chemscore.ZeroCoef>
-5.4800

> <Gold.Chemscore.Hbond>
2.9192

> <Gold.Chemscore.Metal>
0.0000

> <Gold.Chemscore.Lipo>
103.8388

> <Gold.Chemscore.Internal_Hbond>
0.0000

> <Gold.Chemscore.DEClash>
2.2257

> <Gold.Chemscore.DEInternal>
1.1939

> <Gold.Chemscore.Rot>
2.1486

> <Gold.Chemscore.Internal.Correction>
   9.000000E+99

> <Gold.Chemscore.Hbonds>
donor molecule, donor type, donor heavy atom, donor atom, acceptor molecule, acceptor atom, score
      L1  H     1    21       P1 10171  1.00
      L1  H     8    26       P1  8028  0.91
      P1  H  7954  7966       L1     3  0.83

> <Gold.Chemscore.Hbond.Weighted>
-9.7501

> <Gold.Chemscore.Metal.Weighted>
-0.0000

> <Gold.Chemscore.Lipo.Weighted>
-12.1491

> <Gold.Chemscore.Internal_Hbond.Weighted>
0.0000

> <Gold.Chemscore.DEClash.Weighted>
2.2257

> <Gold.Chemscore.DEInternal.Weighted>
1.1939

> <Gold.Chemscore.Rot.Weighted>
5.5004

> <Gold.Chemscore.Internal.Correction.Weighted>
   9.000000E+99

> <Gold.Protein.RotatedTorsions>
[ 6907 6896 6895 6894 ] final   52.92 input  -60.11 | X-H torsion
[ 7974 7965 7964 7962 ] final  -78.93 input  175.53 | X-H torsion
[ 8008 7997 7996 7995 ] final  100.52 input   59.86 | X-H torsion
[ 10167 10162 10161 10158 ] final  171.63 input  -65.29 | X-H torsion
[ 10718 10713 10712 10709 ] final   64.17 input   66.30 | X-H torsion
[ 10763 10752 10751 10750 ] final  165.77 input  -60.55 | X-H torsion
[ 11005 11000 10999 10996 ] final  -47.36 input  -57.11 | X-H torsion

> <Gold.Protein.ActiveResidues>
 VAL166  LYS551  ARG553  GLY616  TRP617  ASP618  TYR619  PRO620  LYS621  CYS622 
 ASP623  PHE694  ASN695  SER759  ASP760  ASP761  ALA762  ILE779  LEU786  VAL792 
 PHE793  MET794  SER795  GLU796  ALA797  LYS798  CYS799  TRP800  GLU811  SER814 

> <Gold.Protein.RotatedAtoms>
  152.3283  134.7292  160.0295 H   0  0  0  0  0  0  0  0  0  0  0  0  # atno 6907 bound_to 6896
  151.7717  133.3336  159.3454 H   0  0  0  0  0  0  0  0  0  0  0  0  # atno 6908 bound_to 6896
  150.7408  134.5944  159.6048 H   0  0  0  0  0  0  0  0  0  0  0  0  # atno 6909 bound_to 6896
  145.5799  140.9450  143.1350 H   0  0  0  0  0  0  0  0  0  0  0  0  # atno 7974 bound_to 7965
  156.1211  140.3212  155.8210 H   0  0  0  0  0  0  0  0  0  0  0  0  # atno 8008 bound_to 7997
  155.4502  140.0532  157.3019 H   0  0  0  0  0  0  0  0  0  0  0  0  # atno 8009 bound_to 7997
  154.4828  140.2060  155.9737 H   0  0  0  0  0  0  0  0  0  0  0  0  # atno 8010 bound_to 7997
  139.5052  144.3464  151.9966 H   0  0  0  0  0  0  0  0  0  0  0  0  # atno 10167 bound_to 10162
  157.6021  130.9145  149.9811 H   0  0  0  0  0  0  0  0  0  0  0  0  # atno 10718 bound_to 10713
  154.3290  135.2755  155.2481 H   0  0  0  0  0  0  0  0  0  0  0  0  # atno 10763 bound_to 10752
  154.4802  135.5860  153.6387 H   0  0  0  0  0  0  0  0  0  0  0  0  # atno 10764 bound_to 10752
  152.9868  135.6109  154.3481 H   0  0  0  0  0  0  0  0  0  0  0  0  # atno 10765 bound_to 10752
  141.0636  133.6701  156.3286 H   0  0  0  0  0  0  0  0  0  0  0  0  # atno 11005 bound_to 11000
  144.7399  139.7479  143.7315 LP  0  0  0  0  0  0  0  0  0  0  0  0  # atno 17320 bound_to 7965
  146.1724  139.4880  142.9919 LP  0  0  0  0  0  0  0  0  0  0  0  0  # atno 17321 bound_to 7965
  140.2902  144.3763  150.6091 LP  0  0  0  0  0  0  0  0  0  0  0  0  # atno 17342 bound_to 10162
  140.5952  143.2167  151.7177 LP  0  0  0  0  0  0  0  0  0  0  0  0  # atno 17343 bound_to 10162
  156.1098  130.3650  150.0070 LP  0  0  0  0  0  0  0  0  0  0  0  0  # atno 17370 bound_to 10713
  156.8170  130.9345  151.3642 LP  0  0  0  0  0  0  0  0  0  0  0  0  # atno 17371 bound_to 10713
  140.5820  134.5737  157.5481 LP  0  0  0  0  0  0  0  0  0  0  0  0  # atno 17394 bound_to 11000
  139.9455  134.7710  156.0573 LP  0  0  0  0  0  0  0  0  0  0  0  0  # atno 17395 bound_to 11000

$$$$
