AV-unprocessed.smi:2532|AV-procd|sdf|9971|dock4
  -GOLD-   2272014 13D 1   1.00000     0.00000
 Structure written by MMmdl.
 37 39  0  0  0  0  0  0  0  0  2 V2000
  153.1767  138.3547  155.8144 O   0  0  0  0  0  0  0  0  0  0  0  0
  152.1709  139.3484  155.8011 C   0  0  1  0  0  0  0  0  0  0  0  0
  150.9250  138.7639  155.1181 C   0  0  0  0  0  0  0  0  0  0  0  0
  150.1771  139.8256  154.5503 O   0  0  0  0  0  0  0  0  0  0  0  0
  148.9418  139.3983  154.0002 C   0  0  0  0  0  0  0  0  0  0  0  0
  147.9924  140.5502  154.0798 C   0  0  0  0  0  0  0  0  0  0  0  0
  148.1751  141.8109  153.5706 C   0  0  0  0  0  0  0  0  0  0  0  0
  147.0668  142.6781  153.8011 C   0  0  0  0  0  0  0  0  0  0  0  0
  146.0444  142.0655  154.4753 C   0  0  0  0  0  0  0  0  0  0  0  0
  146.4254  140.4057  154.8425 S   0  0  0  0  0  0  0  0  0  0  0  0
  151.8800  139.7992  157.2462 C   0  0  0  0  0  0  0  0  0  0  0  0
  151.3604  141.1727  157.3205 N   0  0  0  0  0  0  0  0  0  0  0  0
  150.5931  141.8580  156.4300 C   0  0  0  0  0  0  0  0  0  0  0  0
  150.3717  143.0988  156.9457 N   0  3  0  0  0  0  0  0  0  0  0  0
  151.0076  143.2093  158.1841 C   0  0  0  0  0  0  0  0  0  0  0  0
  151.0707  144.2693  159.0833 C   0  0  0  0  0  0  0  0  0  0  0  0
  151.8115  144.0545  160.2639 C   0  0  0  0  0  0  0  0  0  0  0  0
  152.4542  142.8246  160.5141 C   0  0  0  0  0  0  0  0  0  0  0  0
  152.3830  141.7568  159.5956 C   0  0  0  0  0  0  0  0  0  0  0  0
  151.6468  141.9757  158.4313 C   0  0  0  0  0  0  0  0  0  0  0  0
  153.1591  137.9038  154.9836 H   0  0  0  0  0  0  0  0  0  0  0  0
  152.5313  140.2061  155.2312 H   0  0  0  0  0  0  0  0  0  0  0  0
  151.1976  138.0184  154.3686 H   0  0  0  0  0  0  0  0  0  0  0  0
  150.2981  138.2640  155.8584 H   0  0  0  0  0  0  0  0  0  0  0  0
  149.0760  139.0860  152.9633 H   0  0  0  0  0  0  0  0  0  0  0  0
  148.5452  138.5496  154.5591 H   0  0  0  0  0  0  0  0  0  0  0  0
  149.0606  142.1391  153.0465 H   0  0  0  0  0  0  0  0  0  0  0  0
  147.0574  143.7049  153.4667 H   0  0  0  0  0  0  0  0  0  0  0  0
  145.0946  142.4836  154.7744 H   0  0  0  0  0  0  0  0  0  0  0  0
  151.1243  139.1506  157.6908 H   0  0  0  0  0  0  0  0  0  0  0  0
  152.7650  139.7109  157.8767 H   0  0  0  0  0  0  0  0  0  0  0  0
  150.2268  141.4851  155.4843 H   0  0  0  0  0  0  0  0  0  0  0  0
  150.5805  145.2130  158.8935 H   0  0  0  0  0  0  0  0  0  0  0  0
  151.8895  144.8494  160.9913 H   0  0  0  0  0  0  0  0  0  0  0  0
  153.0145  142.6970  161.4290 H   0  0  0  0  0  0  0  0  0  0  0  0
  152.8849  140.8219  159.7951 H   0  0  0  0  0  0  0  0  0  0  0  0
  149.8278  143.8162  156.4837 H   0  0  0  0  0  0  0  0  0  0  0  0
  1  2  1  0  0  0  0
  1 21  1  0  0  0  0
  2  3  1  0  0  0  0
  2 11  1  0  0  0  0
  2 22  1  0  0  0  0
  3  4  1  0  0  0  0
  3 23  1  0  0  0  0
  3 24  1  0  0  0  0
  4  5  1  0  0  0  0
  5  6  1  0  0  0  0
  5 25  1  0  0  0  0
  5 26  1  0  0  0  0
  6 10  1  0  0  0  0
  6  7  2  0  0  0  0
  7  8  1  0  0  0  0
  7 27  1  0  0  0  0
  8  9  2  0  0  0  0
  8 28  1  0  0  0  0
  9 10  1  0  0  0  0
  9 29  1  0  0  0  0
 11 12  1  0  0  0  0
 11 30  1  0  0  0  0
 11 31  1  0  0  0  0
 12 20  1  0  0  0  0
 12 13  1  0  0  0  0
 13 14  2  0  0  0  0
 13 32  1  0  0  0  0
 14 15  1  0  0  0  0
 14 37  1  0  0  0  0
 15 20  2  0  0  0  0
 15 16  1  0  0  0  0
 16 17  2  0  0  0  0
 16 33  1  0  0  0  0
 17 18  1  0  0  0  0
 17 34  1  0  0  0  0
 18 19  2  0  0  0  0
 18 35  1  0  0  0  0
 19 20  1  0  0  0  0
 19 36  1  0  0  0  0
M  CHG  1  14   1
M  END
> <s_m_source_file>
AV-unprocessed.smi

> <i_m_source_file_index>
2532

> <i_lp_mmshare_version>
43012

> <i_f3d_flags>
0

> <s_epik_input>
W2NIXTFbY0hdW2NIXVtjSF1jKGMxMiluKFtjSF1uMilbQ0gyXVtDQEhdKFtPSF0pW0NIMl1PW0NIMl1jM1tjSF1bY0hdW2NIXXMz

> <s_epik_cmdline>
J2VwaWtfcHl0aG9uJywgJy1waCcsICc3LjAnLCAnLXRuJywgJzgnLCAnLW1hJywgJzIwMCcsICctbWV0YWxfYmluZGluZycsICctaW1hZScsICc8aW5maWxlLm1hZT4nLCAnLW9tYWUnLCAnPG91dGZpbGUubWFlPic=

> <r_epik_Ionization_Penalty>
1.31758

> <r_epik_Ionization_Penalty_Charging>
1.31758

> <r_epik_Ionization_Penalty_Neutral>
1.26231e-06

> <r_epik_State_Penalty>
1.39289

> <r_epik_Charging_Adjusted_Penalty>
2.71047

> <i_epik_Tot_Q>
1

> <i_epik_Tot_abs_Q>
1

> <r_epik_Metal_State_Penalty>
5.42637

> <b_epik_Metal_Only>
0

> <s_lp_Force_Field>
OPLS_2005

> <r_lp_Energy>
15.1458

> <b_lp_Chiralities_Consistent>
1

> <s_lp_Variant>
AV-unprocessed.smi:2532-4

> <Gold.Version>
5.8.1

> <Gold.Id.Protein>
6NUR|6NUR_protein|mol2

> <Gold.PLP.Fitness>
53.1354

> <Gold.PLP.PLP>
-46.4800

> <Gold.PLP.part.hbond>
-3.0000

> <Gold.PLP.part.metal>
0.0000

> <Gold.PLP.part.buried>
-4.0373

> <Gold.PLP.part.nonpolar>
-38.7253

> <Gold.PLP.part.repulsive>
0.1271

> <Gold.PLP.ligand.clash>
0.0000

> <Gold.PLP.ligand.torsion>
1.1835

> <Gold.PLP.Chemscore.Hbond>
2.9716

> <Gold.PLP.Chemscore.CHOScore>
0.0000

> <Gold.PLP.Chemscore.Metal>
0.0000

> <Gold.Chemscore.Hbonds>
donor molecule, donor type, donor heavy atom, donor atom, acceptor molecule, acceptor atom, score
      L1  H    14    37       P1  8028  2.00
      P1  H  7989  7998       L1     4  0.89
      P1  H  7997  8009       L1     1  0.01

> <Gold.PLP.Chemscore.Internal.Correction>
0.1075

> <Gold.Rescore>
     Score         DG    S(hbond)    S(metal)    S(lipo)     H(rot)  DE(clash)    DE(int)     intcor
     14.61     -17.26       1.24        0.00     119.26       2.46       0.09       2.55       ----

> <Gold.Chemscore.Fitness>
14.6121

> <Gold.Chemscore.DG>
-17.2607

> <Gold.Chemscore.ZeroCoef>
-5.4800

> <Gold.Chemscore.Hbond>
1.2355

> <Gold.Chemscore.Metal>
0.0000

> <Gold.Chemscore.Lipo>
119.2649

> <Gold.Chemscore.Internal_Hbond>
0.0000

> <Gold.Chemscore.DEClash>
0.0938

> <Gold.Chemscore.DEInternal>
2.5549

> <Gold.Chemscore.Rot>
2.4608

> <Gold.Chemscore.Internal.Correction>
   9.000000E+99

> <Gold.Chemscore.Hbonds>
donor molecule, donor type, donor heavy atom, donor atom, acceptor molecule, acceptor atom, score
      L1  H    14    37       P1  8028  0.93
      P1  H  7989  7998       L1     4  0.34

> <Gold.Chemscore.Hbond.Weighted>
-4.1264

> <Gold.Chemscore.Metal.Weighted>
-0.0000

> <Gold.Chemscore.Lipo.Weighted>
-13.9540

> <Gold.Chemscore.Internal_Hbond.Weighted>
0.0000

> <Gold.Chemscore.DEClash.Weighted>
0.0938

> <Gold.Chemscore.DEInternal.Weighted>
2.5549

> <Gold.Chemscore.Rot.Weighted>
6.2996

> <Gold.Chemscore.Internal.Correction.Weighted>
   9.000000E+99

> <Gold.Protein.RotatedTorsions>
[ 6907 6896 6895 6894 ] final   71.12 input  -60.11 | X-H torsion
[ 7974 7965 7964 7962 ] final   76.50 input  175.53 | X-H torsion
[ 8008 7997 7996 7995 ] final -117.24 input   59.86 | X-H torsion
[ 10167 10162 10161 10158 ] final -148.54 input  -65.29 | X-H torsion
[ 10718 10713 10712 10709 ] final -179.31 input   66.30 | X-H torsion
[ 10763 10752 10751 10750 ] final   65.63 input  -60.55 | X-H torsion
[ 11005 11000 10999 10996 ] final  168.24 input  -57.11 | X-H torsion

> <Gold.Protein.ActiveResidues>
 VAL166  LYS551  ARG553  GLY616  TRP617  ASP618  TYR619  PRO620  LYS621  CYS622 
 ASP623  PHE694  ASN695  SER759  ASP760  ASP761  ALA762  ILE779  LEU786  VAL792 
 PHE793  MET794  SER795  GLU796  ALA797  LYS798  CYS799  TRP800  GLU811  SER814 

> <Gold.Protein.RotatedAtoms>
  152.4791  134.4767  159.9652 H   0  0  0  0  0  0  0  0  0  0  0  0  # atno 6907 bound_to 6896
  151.4777  133.3548  159.2841 H   0  0  0  0  0  0  0  0  0  0  0  0  # atno 6908 bound_to 6896
  150.8850  134.8273  159.7314 H   0  0  0  0  0  0  0  0  0  0  0  0  # atno 6909 bound_to 6896
  145.7021  139.2586  143.1699 H   0  0  0  0  0  0  0  0  0  0  0  0  # atno 7974 bound_to 7965
  155.0806  140.0394  157.2638 H   0  0  0  0  0  0  0  0  0  0  0  0  # atno 8008 bound_to 7997
  154.6910  140.2653  155.6788 H   0  0  0  0  0  0  0  0  0  0  0  0  # atno 8009 bound_to 7997
  156.2728  140.2759  156.1488 H   0  0  0  0  0  0  0  0  0  0  0  0  # atno 8010 bound_to 7997
  139.7522  143.8501  152.2589 H   0  0  0  0  0  0  0  0  0  0  0  0  # atno 10167 bound_to 10162
  156.8571  130.9739  151.3087 H   0  0  0  0  0  0  0  0  0  0  0  0  # atno 10718 bound_to 10713
  153.0104  135.5350  154.6697 H   0  0  0  0  0  0  0  0  0  0  0  0  # atno 10763 bound_to 10752
  154.5885  135.2856  155.0662 H   0  0  0  0  0  0  0  0  0  0  0  0  # atno 10764 bound_to 10752
  154.1764  135.6523  153.5075 H   0  0  0  0  0  0  0  0  0  0  0  0  # atno 10765 bound_to 10752
  140.2852  134.7718  157.3792 H   0  0  0  0  0  0  0  0  0  0  0  0  # atno 11005 bound_to 11000
  146.0789  140.7786  142.9651 LP  0  0  0  0  0  0  0  0  0  0  0  0  # atno 17320 bound_to 7965
  144.6966  140.3457  143.7191 LP  0  0  0  0  0  0  0  0  0  0  0  0  # atno 17321 bound_to 7965
  139.8483  144.7177  150.9246 LP  0  0  0  0  0  0  0  0  0  0  0  0  # atno 17342 bound_to 10162
  140.7799  143.3922  151.1291 LP  0  0  0  0  0  0  0  0  0  0  0  0  # atno 17343 bound_to 10162
  157.6271  130.8700  149.9208 LP  0  0  0  0  0  0  0  0  0  0  0  0  # atno 17370 bound_to 10713
  156.0796  130.3674  150.0607 LP  0  0  0  0  0  0  0  0  0  0  0  0  # atno 17371 bound_to 10713
  140.1246  134.5174  155.8155 LP  0  0  0  0  0  0  0  0  0  0  0  0  # atno 17394 bound_to 11000
  141.2156  133.6768  156.6929 LP  0  0  0  0  0  0  0  0  0  0  0  0  # atno 17395 bound_to 11000

$$$$
