AV-unprocessed.smi:1444|AV-procd|sdf|5884|dock3
  -GOLD-   22720 5563D 1   1.00000     0.00000
 Structure written by MMmdl.
 44 45  0  0  0  0  0  0  0  0  2 V2000
  146.4010  132.6265  151.7485 C   0  0  0  0  0  0  0  0  0  0  0  0
  147.4452  133.1987  152.5284 O   0  0  0  0  0  0  0  0  0  0  0  0
  148.1734  132.3743  153.3654 C   0  0  0  0  0  0  0  0  0  0  0  0
  147.8799  131.0500  153.3792 N   0  0  0  0  0  0  0  0  0  0  0  0
  148.5883  130.2431  154.1945 C   0  0  0  0  0  0  0  0  0  0  0  0
  149.6168  130.7089  155.0333 C   0  0  0  0  0  0  0  0  0  0  0  0
  149.9238  132.0822  155.0212 C   0  0  0  0  0  0  0  0  0  0  0  0
  149.1896  132.9443  154.1688 C   0  0  0  0  0  0  0  0  0  0  0  0
  149.4002  134.3489  154.0611 N   0  0  0  0  0  0  0  0  0  0  0  0
  149.8602  135.2258  154.9693 C   0  0  0  0  0  0  0  0  0  0  0  0
  150.1782  134.9628  156.1280 O   0  0  0  0  0  0  0  0  0  0  0  0
  149.9208  136.4617  154.4519 N   0  0  0  0  0  0  0  0  0  0  0  0
  150.4102  137.6611  155.1328 C   0  0  1  0  0  0  0  0  0  0  0  0
  151.6380  137.2879  155.9746 C   0  0  0  0  0  0  0  0  0  0  0  0
  150.7443  138.7867  154.1270 C   0  0  0  0  0  0  0  0  0  0  0  0
  149.5766  139.6439  153.8005 N   0  3  0  0  0  0  0  0  0  0  0  0
  148.2849  138.9149  153.8158 C   0  0  0  0  0  0  0  0  0  0  0  0
  147.1403  139.8522  153.3970 C   0  0  0  0  0  0  0  0  0  0  0  0
  147.1068  140.9799  154.2634 O   0  0  0  0  0  0  0  0  0  0  0  0
  148.3108  141.7350  154.2025 C   0  0  0  0  0  0  0  0  0  0  0  0
  149.4948  140.8583  154.6449 C   0  0  0  0  0  0  0  0  0  0  0  0
  145.9311  133.4055  151.1487 H   0  0  0  0  0  0  0  0  0  0  0  0
  145.6283  132.1837  152.3788 H   0  0  0  0  0  0  0  0  0  0  0  0
  146.7836  131.8680  151.0642 H   0  0  0  0  0  0  0  0  0  0  0  0
  148.3272  129.1951  154.1779 H   0  0  0  0  0  0  0  0  0  0  0  0
  150.1590  130.0267  155.6714 H   0  0  0  0  0  0  0  0  0  0  0  0
  150.7129  132.4318  155.6663 H   0  0  0  0  0  0  0  0  0  0  0  0
  149.1814  134.7356  153.1541 H   0  0  0  0  0  0  0  0  0  0  0  0
  149.6343  136.5793  153.4906 H   0  0  0  0  0  0  0  0  0  0  0  0
  149.6477  138.0123  155.8291 H   0  0  0  0  0  0  0  0  0  0  0  0
  152.0107  138.1500  156.5284 H   0  0  0  0  0  0  0  0  0  0  0  0
  152.4522  136.9167  155.3510 H   0  0  0  0  0  0  0  0  0  0  0  0
  151.3955  136.5122  156.7019 H   0  0  0  0  0  0  0  0  0  0  0  0
  151.5593  139.4090  154.4998 H   0  0  0  0  0  0  0  0  0  0  0  0
  151.1139  138.3226  153.2111 H   0  0  0  0  0  0  0  0  0  0  0  0
  148.3200  138.0630  153.1374 H   0  0  0  0  0  0  0  0  0  0  0  0
  148.0967  138.5200  154.8152 H   0  0  0  0  0  0  0  0  0  0  0  0
  147.2604  140.1751  152.3613 H   0  0  0  0  0  0  0  0  0  0  0  0
  146.1852  139.3303  153.4593 H   0  0  0  0  0  0  0  0  0  0  0  0
  148.4644  142.1153  153.1914 H   0  0  0  0  0  0  0  0  0  0  0  0
  148.2185  142.6012  154.8582 H   0  0  0  0  0  0  0  0  0  0  0  0
  149.3805  140.5712  155.6914 H   0  0  0  0  0  0  0  0  0  0  0  0
  150.4209  141.4289  154.5662 H   0  0  0  0  0  0  0  0  0  0  0  0
  149.7183  139.9678  152.8540 H   0  0  0  0  0  0  0  0  0  0  0  0
  1  2  1  0  0  0  0
  1 22  1  0  0  0  0
  1 23  1  0  0  0  0
  1 24  1  0  0  0  0
  2  3  1  0  0  0  0
  3  8  1  0  0  0  0
  3  4  2  0  0  0  0
  4  5  1  0  0  0  0
  5  6  2  0  0  0  0
  5 25  1  0  0  0  0
  6  7  1  0  0  0  0
  6 26  1  0  0  0  0
  7  8  2  0  0  0  0
  7 27  1  0  0  0  0
  8  9  1  0  0  0  0
  9 10  1  0  0  0  0
  9 28  1  0  0  0  0
 10 11  2  0  0  0  0
 10 12  1  0  0  0  0
 12 13  1  0  0  0  0
 12 29  1  0  0  0  0
 13 14  1  0  0  0  0
 13 15  1  0  0  0  0
 13 30  1  0  0  0  0
 14 31  1  0  0  0  0
 14 32  1  0  0  0  0
 14 33  1  0  0  0  0
 15 16  1  0  0  0  0
 15 34  1  0  0  0  0
 15 35  1  0  0  0  0
 16 21  1  0  0  0  0
 16 17  1  0  0  0  0
 16 44  1  0  0  0  0
 17 18  1  0  0  0  0
 17 36  1  0  0  0  0
 17 37  1  0  0  0  0
 18 19  1  0  0  0  0
 18 38  1  0  0  0  0
 18 39  1  0  0  0  0
 19 20  1  0  0  0  0
 20 21  1  0  0  0  0
 20 40  1  0  0  0  0
 20 41  1  0  0  0  0
 21 42  1  0  0  0  0
 21 43  1  0  0  0  0
M  CHG  1  16   1
M  END
> <s_m_source_file>
AV-unprocessed.smi

> <i_m_source_file_index>
1444

> <i_lp_mmshare_version>
43012

> <i_f3d_flags>
0

> <s_epik_input>
W0NIM11PYzFuW2NIXVtjSF1bY0hdYzFbTkhdQyg9TylbTkhdW0NASF0oW0NIM10pW0NIMl1OMltDSDJdW0NIMl1PW0NIMl1bQ0gyXTI=

> <s_epik_cmdline>
J2VwaWtfcHl0aG9uJywgJy1waCcsICc3LjAnLCAnLXRuJywgJzgnLCAnLW1hJywgJzIwMCcsICctbWV0YWxfYmluZGluZycsICctaW1hZScsICc8aW5maWxlLm1hZT4nLCAnLW9tYWUnLCAnPG91dGZpbGUubWFlPic=

> <r_lp_tautomer_probability>
1

> <r_epik_Ionization_Penalty>
0.602604

> <r_epik_Ionization_Penalty_Charging>
0.602531

> <r_epik_Ionization_Penalty_Neutral>
7.37688e-05

> <r_epik_State_Penalty>
0.617039

> <r_epik_Charging_Adjusted_Penalty>
1.21957

> <i_epik_Tot_Q>
1

> <i_epik_Tot_abs_Q>
1

> <r_epik_Metal_State_Penalty>
0.617045

> <b_epik_Metal_Only>
0

> <s_lp_Force_Field>
OPLS_2005

> <r_lp_Energy>
24.8141

> <b_lp_Chiralities_Consistent>
1

> <s_lp_Variant>
AV-unprocessed.smi:1444-4

> <Gold.Version>
5.8.1

> <Gold.Id.Protein>
6NUR|6NUR_protein|mol2

> <Gold.PLP.Fitness>
40.8176

> <Gold.PLP.PLP>
-35.6851

> <Gold.PLP.part.hbond>
-3.3982

> <Gold.PLP.part.metal>
0.0000

> <Gold.PLP.part.buried>
-4.0080

> <Gold.PLP.part.nonpolar>
-29.1892

> <Gold.PLP.part.repulsive>
0.6554

> <Gold.PLP.ligand.clash>
0.0148

> <Gold.PLP.ligand.torsion>
1.1710

> <Gold.PLP.Chemscore.Hbond>
2.4500

> <Gold.PLP.Chemscore.CHOScore>
0.0000

> <Gold.PLP.Chemscore.Metal>
0.0000

> <Gold.Chemscore.Hbonds>
donor molecule, donor type, donor heavy atom, donor atom, acceptor molecule, acceptor atom, score
      L1  H     9    28       P1  7948  0.50
      L1  H    12    29       P1  7948  1.00
      L1  H    16    44       P1  7957  1.00

> <Gold.PLP.Chemscore.Internal.Correction>
0.1392

> <Gold.Rescore>
     Score         DG    S(hbond)    S(metal)    S(lipo)     H(rot)  DE(clash)    DE(int)     intcor
     12.93     -15.92       2.08        0.00      68.90       1.78       0.10       2.90       ----

> <Gold.Chemscore.Fitness>
12.9261

> <Gold.Chemscore.DG>
-15.9205

> <Gold.Chemscore.ZeroCoef>
-5.4800

> <Gold.Chemscore.Hbond>
2.0769

> <Gold.Chemscore.Metal>
0.0000

> <Gold.Chemscore.Lipo>
68.8958

> <Gold.Chemscore.Internal_Hbond>
0.0000

> <Gold.Chemscore.DEClash>
0.0988

> <Gold.Chemscore.DEInternal>
2.8956

> <Gold.Chemscore.Rot>
1.7801

> <Gold.Chemscore.Internal.Correction>
   9.000000E+99

> <Gold.Chemscore.Hbonds>
donor molecule, donor type, donor heavy atom, donor atom, acceptor molecule, acceptor atom, score
      L1  H     9    28       P1  7948  0.02
      L1  H    12    29       P1  7948  0.55
      L1  H    16    44       P1  7957  1.00

> <Gold.Chemscore.Hbond.Weighted>
-6.9367

> <Gold.Chemscore.Metal.Weighted>
-0.0000

> <Gold.Chemscore.Lipo.Weighted>
-8.0608

> <Gold.Chemscore.Internal_Hbond.Weighted>
0.0000

> <Gold.Chemscore.DEClash.Weighted>
0.0988

> <Gold.Chemscore.DEInternal.Weighted>
2.8956

> <Gold.Chemscore.Rot.Weighted>
4.5570

> <Gold.Chemscore.Internal.Correction.Weighted>
   9.000000E+99

> <Gold.Protein.RotatedTorsions>
[ 6907 6896 6895 6894 ] final  -42.73 input  -60.11 | X-H torsion
[ 7974 7965 7964 7962 ] final   56.09 input  175.53 | X-H torsion
[ 8008 7997 7996 7995 ] final  157.37 input   59.86 | X-H torsion
[ 10167 10162 10161 10158 ] final  -44.77 input  -65.29 | X-H torsion
[ 10718 10713 10712 10709 ] final  -49.91 input   66.30 | X-H torsion
[ 10763 10752 10751 10750 ] final  -19.83 input  -60.55 | X-H torsion
[ 11005 11000 10999 10996 ] final   -1.74 input  -57.11 | X-H torsion

> <Gold.Protein.ActiveResidues>
 VAL166  LYS551  ARG553  GLY616  TRP617  ASP618  TYR619  PRO620  LYS621  CYS622 
 ASP623  PHE694  ASN695  SER759  ASP760  ASP761  ALA762  ILE779  LEU786  VAL792 
 PHE793  MET794  SER795  GLU796  ALA797  LYS798  CYS799  TRP800  GLU811  SER814 

> <Gold.Protein.RotatedAtoms>
  150.9519  134.8918  159.7677 H   0  0  0  0  0  0  0  0  0  0  0  0  # atno 6907 bound_to 6896
  152.5123  134.3794  159.9356 H   0  0  0  0  0  0  0  0  0  0  0  0  # atno 6908 bound_to 6896
  151.3810  133.3781  159.2745 H   0  0  0  0  0  0  0  0  0  0  0  0  # atno 6909 bound_to 6896
  145.9435  139.3909  143.0349 H   0  0  0  0  0  0  0  0  0  0  0  0  # atno 7974 bound_to 7965
  156.2367  140.1887  156.7099 H   0  0  0  0  0  0  0  0  0  0  0  0  # atno 8008 bound_to 7997
  154.6120  140.0620  156.9533 H   0  0  0  0  0  0  0  0  0  0  0  0  # atno 8009 bound_to 7997
  155.2000  140.3291  155.4347 H   0  0  0  0  0  0  0  0  0  0  0  0  # atno 8010 bound_to 7997
  140.6884  143.2913  151.3543 H   0  0  0  0  0  0  0  0  0  0  0  0  # atno 10167 bound_to 10162
  156.1849  130.4151  149.9453 H   0  0  0  0  0  0  0  0  0  0  0  0  # atno 10718 bound_to 10713
  153.6109  135.6996  153.5347 H   0  0  0  0  0  0  0  0  0  0  0  0  # atno 10763 bound_to 10752
  153.3018  135.4127  155.1258 H   0  0  0  0  0  0  0  0  0  0  0  0  # atno 10764 bound_to 10752
  154.8563  135.3650  154.5647 H   0  0  0  0  0  0  0  0  0  0  0  0  # atno 10765 bound_to 10752
  140.6506  133.9408  155.8378 H   0  0  0  0  0  0  0  0  0  0  0  0  # atno 11005 bound_to 11000
  145.8268  140.9651  143.0870 LP  0  0  0  0  0  0  0  0  0  0  0  0  # atno 17320 bound_to 7965
  144.6783  140.0111  143.7484 LP  0  0  0  0  0  0  0  0  0  0  0  0  # atno 17321 bound_to 7965
  139.6263  144.0807  152.2437 LP  0  0  0  0  0  0  0  0  0  0  0  0  # atno 17342 bound_to 10162
  140.0268  144.6111  150.7521 LP  0  0  0  0  0  0  0  0  0  0  0  0  # atno 17343 bound_to 10162
  156.7212  130.9007  151.3618 LP  0  0  0  0  0  0  0  0  0  0  0  0  # atno 17370 bound_to 10713
  157.6892  130.9217  150.0469 LP  0  0  0  0  0  0  0  0  0  0  0  0  # atno 17371 bound_to 10713
  141.0539  134.0444  157.3747 LP  0  0  0  0  0  0  0  0  0  0  0  0  # atno 17394 bound_to 11000
  139.9047  135.0176  156.7432 LP  0  0  0  0  0  0  0  0  0  0  0  0  # atno 17395 bound_to 11000

$$$$
