AV-unprocessed.smi:2214|AV-procd|sdf|8958|dock3
  -GOLD-   2272012173D 1   1.00000     0.00000
 Structure written by MMmdl.
 41 42  0  0  0  0  0  0  0  0  1 V2000
  151.7787  145.1665  159.1653 C   0  0  0  0  0  0  0  0  0  0  0  0
  151.9323  143.6780  158.9294 C   0  0  0  0  0  0  0  0  0  0  0  0
  152.7088  142.8955  159.8063 C   0  0  0  0  0  0  0  0  0  0  0  0
  152.8466  141.5142  159.5790 C   0  0  0  0  0  0  0  0  0  0  0  0
  152.2104  140.9110  158.4768 C   0  0  0  0  0  0  0  0  0  0  0  0
  152.3971  139.2129  158.2195 Cl  0  0  0  0  0  0  0  0  0  0  0  0
  151.4293  141.6821  157.5877 C   0  0  0  0  0  0  0  0  0  0  0  0
  150.8372  141.0221  156.5318 O   0  0  0  0  0  0  0  0  0  0  0  0
  149.9632  141.7493  155.6776 C   0  0  0  0  0  0  0  0  0  0  0  0
  149.2310  140.7792  154.7349 C   0  0  2  0  0  0  0  0  0  0  0  0
  149.7876  140.9286  153.4442 O   0  0  0  0  0  0  0  0  0  0  0  0
  147.7040  141.0136  154.6952 C   0  0  0  0  0  0  0  0  0  0  0  0
  146.9654  139.8092  154.2815 N   0  0  0  0  0  0  0  0  0  0  0  0
  147.2423  139.3210  152.9943 C   0  0  0  0  0  0  0  0  0  0  0  0
  146.6532  138.2699  152.5255 N   0  0  0  0  0  0  0  0  0  0  0  0
  145.7127  137.5913  153.3058 C   0  0  0  0  0  0  0  0  0  0  0  0
  145.0777  136.3738  152.6573 C   0  0  0  0  0  0  0  0  0  0  0  0
  145.4019  138.0108  154.5627 C   0  0  0  0  0  0  0  0  0  0  0  0
  144.3853  137.3133  155.4576 C   0  0  0  0  0  0  0  0  0  0  0  0
  146.0715  139.2003  155.1134 C   0  0  0  0  0  0  0  0  0  0  0  0
  145.8513  139.6260  156.2490 O   0  0  0  0  0  0  0  0  0  0  0  0
  151.2971  143.0740  157.8250 C   0  0  0  0  0  0  0  0  0  0  0  0
  152.1394  145.4512  160.1542 H   0  0  0  0  0  0  0  0  0  0  0  0
  150.7305  145.4577  159.0906 H   0  0  0  0  0  0  0  0  0  0  0  0
  152.3445  145.7260  158.4201 H   0  0  0  0  0  0  0  0  0  0  0  0
  153.2007  143.3495  160.6541 H   0  0  0  0  0  0  0  0  0  0  0  0
  153.4425  140.9163  160.2525 H   0  0  0  0  0  0  0  0  0  0  0  0
  149.2465  142.3381  156.2530 H   0  0  0  0  0  0  0  0  0  0  0  0
  150.5528  142.4420  155.0747 H   0  0  0  0  0  0  0  0  0  0  0  0
  149.4518  139.7641  155.0673 H   0  0  0  0  0  0  0  0  0  0  0  0
  149.3847  140.2980  152.8674 H   0  0  0  0  0  0  0  0  0  0  0  0
  147.3588  141.3025  155.6898 H   0  0  0  0  0  0  0  0  0  0  0  0
  147.4662  141.8770  154.0699 H   0  0  0  0  0  0  0  0  0  0  0  0
  147.9853  139.8846  152.4274 H   0  0  0  0  0  0  0  0  0  0  0  0
  143.9996  136.5077  152.5666 H   0  0  0  0  0  0  0  0  0  0  0  0
  145.2703  135.4804  153.2516 H   0  0  0  0  0  0  0  0  0  0  0  0
  145.4784  136.2019  151.6574 H   0  0  0  0  0  0  0  0  0  0  0  0
  144.8696  136.9476  156.3636 H   0  0  0  0  0  0  0  0  0  0  0  0
  143.9012  136.4646  154.9778 H   0  0  0  0  0  0  0  0  0  0  0  0
  143.6015  138.0119  155.7515 H   0  0  0  0  0  0  0  0  0  0  0  0
  150.7108  143.7014  157.1712 H   0  0  0  0  0  0  0  0  0  0  0  0
  1  2  1  0  0  0  0
  1 23  1  0  0  0  0
  1 24  1  0  0  0  0
  1 25  1  0  0  0  0
  2 22  1  0  0  0  0
  2  3  2  0  0  0  0
  3  4  1  0  0  0  0
  3 26  1  0  0  0  0
  4  5  2  0  0  0  0
  4 27  1  0  0  0  0
  5  6  1  0  0  0  0
  5  7  1  0  0  0  0
  7  8  1  0  0  0  0
  7 22  2  0  0  0  0
  8  9  1  0  0  0  0
  9 10  1  0  0  0  0
  9 28  1  0  0  0  0
  9 29  1  0  0  0  0
 10 11  1  0  0  0  0
 10 12  1  0  0  0  0
 10 30  1  0  0  0  0
 11 31  1  0  0  0  0
 12 13  1  0  0  0  0
 12 32  1  0  0  0  0
 12 33  1  0  0  0  0
 13 20  1  0  0  0  0
 13 14  1  0  0  0  0
 14 15  2  0  0  0  0
 14 34  1  0  0  0  0
 15 16  1  0  0  0  0
 16 17  1  0  0  0  0
 16 18  2  0  0  0  0
 17 35  1  0  0  0  0
 17 36  1  0  0  0  0
 17 37  1  0  0  0  0
 18 19  1  0  0  0  0
 18 20  1  0  0  0  0
 19 38  1  0  0  0  0
 19 39  1  0  0  0  0
 19 40  1  0  0  0  0
 20 21  2  0  0  0  0
 22 41  1  0  0  0  0
M  END
> <s_m_source_file>
AV-unprocessed.smi

> <i_m_source_file_index>
2214

> <i_lp_mmshare_version>
43012

> <i_f3d_flags>
0

> <s_epik_input>
W0NIM11jMVtjSF1bY0hdYyhDbCljKFtjSF0xKU9bQ0gyXVtDQEhdKFtPSF0pW0NIMl1uMltjSF1uYyhbQ0gzXSljKFtDSDNdKWMyPU8=

> <s_epik_cmdline>
J2VwaWtfcHl0aG9uJywgJy1waCcsICc3LjAnLCAnLXRuJywgJzgnLCAnLW1hJywgJzIwMCcsICctbWV0YWxfYmluZGluZycsICctaW1hZScsICc8aW5maWxlLm1hZT4nLCAnLW9tYWUnLCAnPG91dGZpbGUubWFlPic=

> <r_lp_tautomer_probability>
1

> <r_epik_Ionization_Penalty>
3.50205e-05

> <r_epik_Ionization_Penalty_Charging>
7.87908e-08

> <r_epik_Ionization_Penalty_Neutral>
3.49418e-05

> <r_epik_State_Penalty>
-0

> <r_epik_Charging_Adjusted_Penalty>
7.87908e-08

> <i_epik_Tot_Q>
0

> <i_epik_Tot_abs_Q>
0

> <r_epik_Metal_State_Penalty>
-0

> <b_epik_Metal_Only>
0

> <s_lp_Force_Field>
OPLS_2005

> <r_lp_Energy>
24.1684

> <b_lp_Chiralities_Consistent>
1

> <s_lp_Variant>
AV-unprocessed.smi:2214-1

> <Gold.Version>
5.8.1

> <Gold.Id.Protein>
6NUR|6NUR_protein|mol2

> <Gold.PLP.Fitness>
46.8272

> <Gold.PLP.PLP>
-40.3644

> <Gold.PLP.part.hbond>
-2.3161

> <Gold.PLP.part.metal>
0.0000

> <Gold.PLP.part.buried>
-3.6904

> <Gold.PLP.part.nonpolar>
-33.7687

> <Gold.PLP.part.repulsive>
0.3615

> <Gold.PLP.ligand.clash>
0.0000

> <Gold.PLP.ligand.torsion>
0.9752

> <Gold.PLP.Chemscore.Hbond>
1.8000

> <Gold.PLP.Chemscore.CHOScore>
1.0000

> <Gold.PLP.Chemscore.Metal>
0.0000

> <Gold.Chemscore.Hbonds>
donor molecule, donor type, donor heavy atom, donor atom, acceptor molecule, acceptor atom, score
      L1  H    11    31       P1  7957  0.59
      P1  H  7989  7998       L1    11  0.27
      P1  H  8011  8017       L1    11  1.00
      L1  C    14    34       P1  7957  1.00

> <Gold.PLP.Chemscore.Internal.Correction>
0.0132

> <Gold.Rescore>
     Score         DG    S(hbond)    S(metal)    S(lipo)     H(rot)  DE(clash)    DE(int)     intcor
     15.51     -16.64       1.40        0.00     106.68       2.35       0.12       1.01       ----

> <Gold.Chemscore.Fitness>
15.5143

> <Gold.Chemscore.DG>
-16.6389

> <Gold.Chemscore.ZeroCoef>
-5.4800

> <Gold.Chemscore.Hbond>
1.4044

> <Gold.Chemscore.Metal>
0.0000

> <Gold.Chemscore.Lipo>
106.6814

> <Gold.Chemscore.Internal_Hbond>
0.0000

> <Gold.Chemscore.DEClash>
0.1168

> <Gold.Chemscore.DEInternal>
1.0078

> <Gold.Chemscore.Rot>
2.3490

> <Gold.Chemscore.Internal.Correction>
   9.000000E+99

> <Gold.Chemscore.Hbonds>
donor molecule, donor type, donor heavy atom, donor atom, acceptor molecule, acceptor atom, score
      L1  H    11    31       P1  7957  0.60
      P1  H  7989  7998       L1    11  0.20
      P1  H  8011  8017       L1    11  0.25

> <Gold.Chemscore.Hbond.Weighted>
-4.6907

> <Gold.Chemscore.Metal.Weighted>
-0.0000

> <Gold.Chemscore.Lipo.Weighted>
-12.4817

> <Gold.Chemscore.Internal_Hbond.Weighted>
0.0000

> <Gold.Chemscore.DEClash.Weighted>
0.1168

> <Gold.Chemscore.DEInternal.Weighted>
1.0078

> <Gold.Chemscore.Rot.Weighted>
6.0136

> <Gold.Chemscore.Internal.Correction.Weighted>
   9.000000E+99

> <Gold.Protein.RotatedTorsions>
[ 6907 6896 6895 6894 ] final  115.34 input  -60.11 | X-H torsion
[ 7974 7965 7964 7962 ] final   22.00 input  175.53 | X-H torsion
[ 8008 7997 7996 7995 ] final -123.04 input   59.86 | X-H torsion
[ 10167 10162 10161 10158 ] final  -78.07 input  -65.29 | X-H torsion
[ 10718 10713 10712 10709 ] final  -78.37 input   66.30 | X-H torsion
[ 10763 10752 10751 10750 ] final -114.63 input  -60.55 | X-H torsion
[ 11005 11000 10999 10996 ] final  131.04 input  -57.11 | X-H torsion

> <Gold.Protein.ActiveResidues>
 VAL166  LYS551  ARG553  GLY616  TRP617  ASP618  TYR619  PRO620  LYS621  CYS622 
 ASP623  PHE694  ASN695  SER759  ASP760  ASP761  ALA762  ILE779  LEU786  VAL792 
 PHE793  MET794  SER795  GLU796  ALA797  LYS798  CYS799  TRP800  GLU811  SER814 

> <Gold.Protein.RotatedAtoms>
  152.4748  133.8112  159.7003 H   0  0  0  0  0  0  0  0  0  0  0  0  # atno 6907 bound_to 6896
  150.8758  133.7432  159.2954 H   0  0  0  0  0  0  0  0  0  0  0  0  # atno 6908 bound_to 6896
  151.4952  135.1063  159.9866 H   0  0  0  0  0  0  0  0  0  0  0  0  # atno 6909 bound_to 6896
  146.2047  139.7947  142.8735 H   0  0  0  0  0  0  0  0  0  0  0  0  # atno 7974 bound_to 7965
  155.1740  140.0409  157.2869 H   0  0  0  0  0  0  0  0  0  0  0  0  # atno 8008 bound_to 7997
  154.6249  140.2510  155.7476 H   0  0  0  0  0  0  0  0  0  0  0  0  # atno 8009 bound_to 7997
  156.2454  140.2887  156.0574 H   0  0  0  0  0  0  0  0  0  0  0  0  # atno 8010 bound_to 7997
  140.4715  143.2425  151.8198 H   0  0  0  0  0  0  0  0  0  0  0  0  # atno 10167 bound_to 10162
  156.0119  130.4516  150.3486 H   0  0  0  0  0  0  0  0  0  0  0  0  # atno 10718 bound_to 10713
  154.8448  135.4411  154.1537 H   0  0  0  0  0  0  0  0  0  0  0  0  # atno 10763 bound_to 10752
  153.2691  135.6943  153.7505 H   0  0  0  0  0  0  0  0  0  0  0  0  # atno 10764 bound_to 10752
  153.6752  135.3412  155.3139 H   0  0  0  0  0  0  0  0  0  0  0  0  # atno 10765 bound_to 10752
  139.9707  134.9578  156.9381 H   0  0  0  0  0  0  0  0  0  0  0  0  # atno 11005 bound_to 11000
  145.3360  141.0277  143.3419 LP  0  0  0  0  0  0  0  0  0  0  0  0  # atno 17320 bound_to 7965
  144.8765  139.4964  143.6743 LP  0  0  0  0  0  0  0  0  0  0  0  0  # atno 17321 bound_to 7965
  139.4819  144.4886  151.9214 LP  0  0  0  0  0  0  0  0  0  0  0  0  # atno 17342 bound_to 10162
  140.3971  144.2541  150.5895 LP  0  0  0  0  0  0  0  0  0  0  0  0  # atno 17343 bound_to 10162
  157.1579  131.0337  151.2855 LP  0  0  0  0  0  0  0  0  0  0  0  0  # atno 17370 bound_to 10713
  157.4337  130.7505  149.7011 LP  0  0  0  0  0  0  0  0  0  0  0  0  # atno 17371 bound_to 10713
  140.5300  134.0823  155.7313 LP  0  0  0  0  0  0  0  0  0  0  0  0  # atno 17394 bound_to 11000
  141.1386  133.9177  157.2376 LP  0  0  0  0  0  0  0  0  0  0  0  0  # atno 17395 bound_to 11000

$$$$
