AV-unprocessed.smi:679|AV-procd|sdf|3322|dock1
  -GOLD-   22720 0293D 1   1.00000     0.00000
 Structure written by MMmdl.
 41 43  0  0  0  0  0  0  0  0  1 V2000
  147.0695  143.9104  159.8192 C   0  0  0  0  0  0  0  0  0  0  0  0
  147.9602  143.2413  158.7702 C   0  0  0  0  0  0  0  0  0  0  0  0
  149.2957  143.6744  158.9634 O   0  0  0  0  0  0  0  0  0  0  0  0
  150.2368  142.6138  158.9077 C   0  0  1  0  0  0  0  0  0  0  0  0
  150.6685  142.2093  157.4947 C   0  0  0  0  0  0  0  0  0  0  0  0
  152.0961  142.0864  158.0407 C   0  0  2  0  0  0  0  0  0  0  0  0
  152.3662  140.7256  158.5074 N   0  0  0  0  0  0  0  0  0  0  0  0
  153.3960  140.3778  159.2923 C   0  0  0  0  0  0  0  0  0  0  0  0
  154.2327  141.1834  159.7023 O   0  0  0  0  0  0  0  0  0  0  0  0
  153.4774  138.8976  159.6783 C   0  0  0  0  0  0  0  0  0  0  0  0
  153.5824  138.0323  158.5165 N   0  0  0  0  0  0  0  0  0  0  0  0
  153.6835  136.7050  158.4162 C   0  0  0  0  0  0  0  0  0  0  0  0
  153.7657  136.3148  157.1535 N   0  0  0  0  0  0  0  0  0  0  0  0
  153.7099  137.5073  156.4516 N   0  0  0  0  0  0  0  0  0  0  0  0
  153.6037  138.5298  157.2550 N   0  0  0  0  0  0  0  0  0  0  0  0
  151.6933  143.0638  159.1775 C   0  0  0  0  0  0  0  0  0  0  0  0
  152.0144  144.5430  158.9485 C   0  0  0  0  0  0  0  0  0  0  0  0
  151.8620  145.2543  160.2971 C   0  0  0  0  0  0  0  0  0  0  0  0
  151.9603  144.1561  161.3605 C   0  0  0  0  0  0  0  0  0  0  0  0
  152.2347  142.8621  160.5917 C   0  0  0  0  0  0  0  0  0  0  0  0
  146.0318  143.5949  159.7088 H   0  0  0  0  0  0  0  0  0  0  0  0
  147.1018  144.9961  159.7246 H   0  0  0  0  0  0  0  0  0  0  0  0
  147.3926  143.6517  160.8278 H   0  0  0  0  0  0  0  0  0  0  0  0
  147.8986  142.1564  158.8680 H   0  0  0  0  0  0  0  0  0  0  0  0
  147.6166  143.5036  157.7687 H   0  0  0  0  0  0  0  0  0  0  0  0
  149.9505  141.7569  159.5215 H   0  0  0  0  0  0  0  0  0  0  0  0
  150.2240  141.2830  157.1284 H   0  0  0  0  0  0  0  0  0  0  0  0
  150.5630  143.0182  156.7699 H   0  0  0  0  0  0  0  0  0  0  0  0
  152.8478  142.4835  157.3563 H   0  0  0  0  0  0  0  0  0  0  0  0
  151.7210  140.0050  158.2175 H   0  0  0  0  0  0  0  0  0  0  0  0
  154.3415  138.7430  160.3263 H   0  0  0  0  0  0  0  0  0  0  0  0
  152.5918  138.6042  160.2437 H   0  0  0  0  0  0  0  0  0  0  0  0
  153.6960  136.0315  159.2604 H   0  0  0  0  0  0  0  0  0  0  0  0
  153.0445  144.6471  158.6046 H   0  0  0  0  0  0  0  0  0  0  0  0
  151.3863  145.0014  158.1838 H   0  0  0  0  0  0  0  0  0  0  0  0
  152.6267  146.0202  160.4295 H   0  0  0  0  0  0  0  0  0  0  0  0
  150.8902  145.7456  160.3601 H   0  0  0  0  0  0  0  0  0  0  0  0
  152.7393  144.3609  162.0955 H   0  0  0  0  0  0  0  0  0  0  0  0
  151.0138  144.0780  161.8968 H   0  0  0  0  0  0  0  0  0  0  0  0
  151.7915  142.0013  161.0933 H   0  0  0  0  0  0  0  0  0  0  0  0
  153.3111  142.6889  160.5571 H   0  0  0  0  0  0  0  0  0  0  0  0
  1  2  1  0  0  0  0
  1 21  1  0  0  0  0
  1 22  1  0  0  0  0
  1 23  1  0  0  0  0
  2  3  1  0  0  0  0
  2 24  1  0  0  0  0
  2 25  1  0  0  0  0
  3  4  1  0  0  0  0
  4 16  1  0  0  0  0
  4  5  1  0  0  0  0
  4 26  1  0  0  0  0
  5  6  1  0  0  0  0
  5 27  1  0  0  0  0
  5 28  1  0  0  0  0
  6  7  1  0  0  0  0
  6 16  1  0  0  0  0
  6 29  1  0  0  0  0
  7  8  1  0  0  0  0
  7 30  1  0  0  0  0
  8  9  2  0  0  0  0
  8 10  1  0  0  0  0
 10 11  1  0  0  0  0
 10 31  1  0  0  0  0
 10 32  1  0  0  0  0
 11 15  1  0  0  0  0
 11 12  1  0  0  0  0
 12 13  2  0  0  0  0
 12 33  1  0  0  0  0
 13 14  1  0  0  0  0
 14 15  2  0  0  0  0
 16 20  1  0  0  0  0
 16 17  1  0  0  0  0
 17 18  1  0  0  0  0
 17 34  1  0  0  0  0
 17 35  1  0  0  0  0
 18 19  1  0  0  0  0
 18 36  1  0  0  0  0
 18 37  1  0  0  0  0
 19 20  1  0  0  0  0
 19 38  1  0  0  0  0
 19 39  1  0  0  0  0
 20 40  1  0  0  0  0
 20 41  1  0  0  0  0
M  END
> <s_m_source_file>
AV-unprocessed.smi

> <i_m_source_file_index>
679

> <i_lp_mmshare_version>
43012

> <i_f3d_flags>
0

> <s_epik_input>
W0NIMl0xW0NIMl1bQ0gyXVtDSDJdQzEyW0NASF0oT1tDSDJdW0NIM10pW0NIMl1bQ0BIXTJbTkhdQyg9TylbQ0gyXW4zW2NIXW5ubjM=

> <s_epik_cmdline>
J2VwaWtfcHl0aG9uJywgJy1waCcsICc3LjAnLCAnLXRuJywgJzgnLCAnLW1hJywgJzIwMCcsICctbWV0YWxfYmluZGluZycsICctaW1hZScsICc8aW5maWxlLm1hZT4nLCAnLW9tYWUnLCAnPG91dGZpbGUubWFlPic=

> <r_lp_tautomer_probability>
1

> <r_epik_Ionization_Penalty>
7.96741e-07

> <r_epik_Ionization_Penalty_Charging>
0

> <r_epik_Ionization_Penalty_Neutral>
7.96741e-07

> <r_epik_State_Penalty>
-0

> <r_epik_Charging_Adjusted_Penalty>
0

> <i_epik_Tot_Q>
0

> <i_epik_Tot_abs_Q>
0

> <r_epik_Metal_State_Penalty>
-0

> <b_epik_Metal_Only>
0

> <s_lp_Force_Field>
OPLS_2005

> <r_lp_Energy>
39.7046

> <b_lp_Chiralities_Consistent>
1

> <s_lp_Variant>
AV-unprocessed.smi:679-4

> <Gold.Version>
5.8.1

> <Gold.Id.Protein>
6NUR|6NUR_protein|mol2

> <Gold.PLP.Fitness>
37.2674

> <Gold.PLP.PLP>
-32.6503

> <Gold.PLP.part.hbond>
-3.0147

> <Gold.PLP.part.metal>
0.0000

> <Gold.PLP.part.buried>
-3.4760

> <Gold.PLP.part.nonpolar>
-25.7694

> <Gold.PLP.part.repulsive>
0.2716

> <Gold.PLP.ligand.clash>
0.0000

> <Gold.PLP.ligand.torsion>
0.5645

> <Gold.PLP.Chemscore.Hbond>
1.7920

> <Gold.PLP.Chemscore.CHOScore>
0.0000

> <Gold.PLP.Chemscore.Metal>
0.0000

> <Gold.Chemscore.Hbonds>
donor molecule, donor type, donor heavy atom, donor atom, acceptor molecule, acceptor atom, score
      P1  H  7997  8009       L1    15  0.98
      P1  H 10752 10764       L1    13  0.40

> <Gold.PLP.Chemscore.Internal.Correction>
0.3703

> <Gold.Rescore>
     Score         DG    S(hbond)    S(metal)    S(lipo)     H(rot)  DE(clash)    DE(int)     intcor
     11.71     -15.11       1.60        0.00      89.49       2.41       0.22       3.18       ----

> <Gold.Chemscore.Fitness>
11.7100

> <Gold.Chemscore.DG>
-15.1132

> <Gold.Chemscore.ZeroCoef>
-5.4800

> <Gold.Chemscore.Hbond>
1.5955

> <Gold.Chemscore.Metal>
0.0000

> <Gold.Chemscore.Lipo>
89.4950

> <Gold.Chemscore.Internal_Hbond>
0.0000

> <Gold.Chemscore.DEClash>
0.2188

> <Gold.Chemscore.DEInternal>
3.1844

> <Gold.Chemscore.Rot>
2.4089

> <Gold.Chemscore.Internal.Correction>
   9.000000E+99

> <Gold.Chemscore.Hbonds>
donor molecule, donor type, donor heavy atom, donor atom, acceptor molecule, acceptor atom, score
      P1  H  7997  8009       L1    15  0.88
      P1  H 10752 10764       L1    13  0.01

> <Gold.Chemscore.Hbond.Weighted>
-5.3291

> <Gold.Chemscore.Metal.Weighted>
-0.0000

> <Gold.Chemscore.Lipo.Weighted>
-10.4709

> <Gold.Chemscore.Internal_Hbond.Weighted>
0.0000

> <Gold.Chemscore.DEClash.Weighted>
0.2188

> <Gold.Chemscore.DEInternal.Weighted>
3.1844

> <Gold.Chemscore.Rot.Weighted>
6.1668

> <Gold.Chemscore.Internal.Correction.Weighted>
   9.000000E+99

> <Gold.Protein.RotatedTorsions>
[ 6907 6896 6895 6894 ] final   99.25 input  -60.11 | X-H torsion
[ 7974 7965 7964 7962 ] final   32.99 input  175.53 | X-H torsion
[ 8008 7997 7996 7995 ] final  169.87 input   59.86 | X-H torsion
[ 10167 10162 10161 10158 ] final   13.91 input  -65.29 | X-H torsion
[ 10718 10713 10712 10709 ] final   46.97 input   66.30 | X-H torsion
[ 10763 10752 10751 10750 ] final    9.97 input  -60.55 | X-H torsion
[ 11005 11000 10999 10996 ] final -167.31 input  -57.11 | X-H torsion

> <Gold.Protein.ActiveResidues>
 VAL166  LYS551  ARG553  GLY616  TRP617  ASP618  TYR619  PRO620  LYS621  CYS622 
 ASP623  PHE694  ASN695  SER759  ASP760  ASP761  ALA762  ILE779  LEU786  VAL792 
 PHE793  MET794  SER795  GLU796  ALA797  LYS798  CYS799  TRP800  GLU811  SER814 

> <Gold.Protein.RotatedAtoms>
  152.5395  134.0457  159.8087 H   0  0  0  0  0  0  0  0  0  0  0  0  # atno 6907 bound_to 6896
  151.0606  133.5539  159.2642 H   0  0  0  0  0  0  0  0  0  0  0  0  # atno 6908 bound_to 6896
  151.2439  135.0606  159.9090 H   0  0  0  0  0  0  0  0  0  0  0  0  # atno 6909 bound_to 6896
  146.1450  139.6454  142.9137 H   0  0  0  0  0  0  0  0  0  0  0  0  # atno 7974 bound_to 7965
  156.1418  140.1553  156.8908 H   0  0  0  0  0  0  0  0  0  0  0  0  # atno 8008 bound_to 7997
  154.4994  140.0829  156.7804 H   0  0  0  0  0  0  0  0  0  0  0  0  # atno 8009 bound_to 7997
  155.4064  140.3417  155.4262 H   0  0  0  0  0  0  0  0  0  0  0  0  # atno 8010 bound_to 7997
  140.5971  143.8679  150.6929 H   0  0  0  0  0  0  0  0  0  0  0  0  # atno 10167 bound_to 10162
  157.4537  130.8154  149.7814 H   0  0  0  0  0  0  0  0  0  0  0  0  # atno 10718 bound_to 10713
  153.2083  135.6865  153.8145 H   0  0  0  0  0  0  0  0  0  0  0  0  # atno 10763 bound_to 10752
  153.7387  135.3241  155.3301 H   0  0  0  0  0  0  0  0  0  0  0  0  # atno 10764 bound_to 10752
  154.8208  135.4653  154.0879 H   0  0  0  0  0  0  0  0  0  0  0  0  # atno 10765 bound_to 10752
  140.5546  134.5394  157.5130 H   0  0  0  0  0  0  0  0  0  0  0  0  # atno 11005 bound_to 11000
  145.4959  141.0438  143.2567 LP  0  0  0  0  0  0  0  0  0  0  0  0  # atno 17320 bound_to 7965
  144.7836  139.6474  143.7144 LP  0  0  0  0  0  0  0  0  0  0  0  0  # atno 17321 bound_to 7965
  140.2216  143.3804  152.1638 LP  0  0  0  0  0  0  0  0  0  0  0  0  # atno 17342 bound_to 10162
  139.5266  144.7109  151.5209 LP  0  0  0  0  0  0  0  0  0  0  0  0  # atno 17343 bound_to 10162
  155.9998  130.3887  150.2651 LP  0  0  0  0  0  0  0  0  0  0  0  0  # atno 17370 bound_to 10713
  157.0825  131.0147  151.3151 LP  0  0  0  0  0  0  0  0  0  0  0  0  # atno 17371 bound_to 10713
  139.9438  134.7739  156.0613 LP  0  0  0  0  0  0  0  0  0  0  0  0  # atno 17394 bound_to 11000
  141.1151  133.6630  156.3074 LP  0  0  0  0  0  0  0  0  0  0  0  0  # atno 17395 bound_to 11000

$$$$
