AV-unprocessed.smi:91|AV-procd|sdf|836|dock10
  -GOLD-   2262017263D 1   1.00000     0.00000
 Structure written by MMmdl.
 60 63  0  0  0  0  0  0  0  0  1 V2000
  149.4528  141.3886  154.7382 C   0  0  0  0  0  0  0  0  0  0  0  0
  150.2805  141.6049  155.8675 O   0  0  0  0  0  0  0  0  0  0  0  0
  149.5358  141.8765  157.0436 C   0  0  0  0  0  0  0  0  0  0  0  0
  150.4783  142.4081  158.1311 C   0  0  1  0  0  0  0  0  0  0  0  0
  151.5937  141.4049  158.4720 C   0  0  0  0  0  0  0  0  0  0  0  0
  152.5504  142.0077  159.3945 N   0  0  0  0  0  0  0  0  0  0  0  0
  153.3537  141.1453  160.0708 C   0  0  0  0  0  0  0  0  0  0  0  0
  153.8102  141.5484  161.2859 N   0  0  0  0  0  0  0  0  0  0  0  0
  154.6068  140.7593  162.0112 C   0  0  0  0  0  0  0  0  0  0  0  0
  155.0635  139.5415  161.7186 N   0  0  0  0  0  0  0  0  0  0  0  0
  154.6112  139.1253  160.5020 C   0  0  0  0  0  0  0  0  0  0  0  0
  153.7642  139.8540  159.6166 C   0  0  0  0  0  0  0  0  0  0  0  0
  153.5203  139.0893  158.4794 N   0  0  0  0  0  0  0  0  0  0  0  0
  154.1844  137.9844  158.6780 C   0  0  0  0  0  0  0  0  0  0  0  0
  154.8606  137.9189  159.8734 N   0  0  0  0  0  0  0  0  0  0  0  0
  155.6631  136.8111  160.3606 C   0  0  0  0  0  0  0  0  0  0  0  0
  154.8190  135.5747  160.7593 C   0  0  1  0  0  0  0  0  0  0  0  0
  155.4683  134.2387  160.3226 C   0  0  0  0  0  0  0  0  0  0  0  0
  154.5060  133.3400  159.8095 O   0  0  0  0  0  0  0  0  0  0  0  0
  154.4641  135.5940  162.2674 C   0  0  2  0  0  0  0  0  0  0  0  0
  153.8148  136.8761  162.7585 C   0  0  0  0  0  0  0  0  0  0  0  0
  154.0236  136.7857  164.2659 C   0  0  0  0  0  0  0  0  0  0  0  0
  155.2536  136.0918  164.4428 O   0  0  0  0  0  0  0  0  0  0  0  0
  155.6719  135.5195  163.2075 C   0  0  0  0  0  0  0  0  0  0  0  0
  153.1000  143.2710  158.9173 C   0  0  0  0  0  0  0  0  0  0  0  0
  151.9782  144.2646  158.5429 C   0  0  0  0  0  0  0  0  0  0  0  0
  151.2583  144.8181  159.7910 C   0  0  0  0  0  0  0  0  0  0  0  0
  152.5699  145.4353  157.7427 C   0  0  0  0  0  0  0  0  0  0  0  0
  151.0559  143.6240  157.6544 O   0  0  0  0  0  0  0  0  0  0  0  0
  150.0714  141.1811  153.8652 H   0  0  0  0  0  0  0  0  0  0  0  0
  148.8466  142.2687  154.5197 H   0  0  0  0  0  0  0  0  0  0  0  0
  148.7902  140.5359  154.8917 H   0  0  0  0  0  0  0  0  0  0  0  0
  148.7408  142.5964  156.8416 H   0  0  0  0  0  0  0  0  0  0  0  0
  149.0622  140.9557  157.3879 H   0  0  0  0  0  0  0  0  0  0  0  0
  149.8824  142.6157  159.0198 H   0  0  0  0  0  0  0  0  0  0  0  0
  151.1484  140.5002  158.8866 H   0  0  0  0  0  0  0  0  0  0  0  0
  152.1240  141.1093  157.5659 H   0  0  0  0  0  0  0  0  0  0  0  0
  154.9216  141.1610  162.9629 H   0  0  0  0  0  0  0  0  0  0  0  0
  154.1894  137.1774  157.9597 H   0  0  0  0  0  0  0  0  0  0  0  0
  156.3842  136.5420  159.5877 H   0  0  0  0  0  0  0  0  0  0  0  0
  156.2432  137.1716  161.2104 H   0  0  0  0  0  0  0  0  0  0  0  0
  153.8787  135.6462  160.2103 H   0  0  0  0  0  0  0  0  0  0  0  0
  156.2304  134.4071  159.5621 H   0  0  0  0  0  0  0  0  0  0  0  0
  155.9833  133.7622  161.1568 H   0  0  0  0  0  0  0  0  0  0  0  0
  154.5136  132.5575  160.3393 H   0  0  0  0  0  0  0  0  0  0  0  0
  153.7976  134.7608  162.4969 H   0  0  0  0  0  0  0  0  0  0  0  0
  154.3380  137.7465  162.3594 H   0  0  0  0  0  0  0  0  0  0  0  0
  152.7613  136.9568  162.4899 H   0  0  0  0  0  0  0  0  0  0  0  0
  154.0439  137.7651  164.7442 H   0  0  0  0  0  0  0  0  0  0  0  0
  153.2264  136.2002  164.7254 H   0  0  0  0  0  0  0  0  0  0  0  0
  156.0271  134.4988  163.3510 H   0  0  0  0  0  0  0  0  0  0  0  0
  156.5013  136.1131  162.8204 H   0  0  0  0  0  0  0  0  0  0  0  0
  153.7429  143.7168  159.6773 H   0  0  0  0  0  0  0  0  0  0  0  0
  153.7204  143.0680  158.0433 H   0  0  0  0  0  0  0  0  0  0  0  0
  151.9383  145.4152  160.3996 H   0  0  0  0  0  0  0  0  0  0  0  0
  150.8719  144.0285  160.4347 H   0  0  0  0  0  0  0  0  0  0  0  0
  150.4203  145.4568  159.5106 H   0  0  0  0  0  0  0  0  0  0  0  0
  153.3064  145.9853  158.3294 H   0  0  0  0  0  0  0  0  0  0  0  0
  151.7936  146.1388  157.4402 H   0  0  0  0  0  0  0  0  0  0  0  0
  153.0647  145.0843  156.8364 H   0  0  0  0  0  0  0  0  0  0  0  0
  1  2  1  0  0  0  0
  1 30  1  0  0  0  0
  1 31  1  0  0  0  0
  1 32  1  0  0  0  0
  2  3  1  0  0  0  0
  3  4  1  0  0  0  0
  3 33  1  0  0  0  0
  3 34  1  0  0  0  0
  4 29  1  0  0  0  0
  4  5  1  0  0  0  0
  4 35  1  0  0  0  0
  5  6  1  0  0  0  0
  5 36  1  0  0  0  0
  5 37  1  0  0  0  0
  6  7  1  0  0  0  0
  6 25  1  0  0  0  0
  7 12  1  0  0  0  0
  7  8  2  0  0  0  0
  8  9  1  0  0  0  0
  9 10  2  0  0  0  0
  9 38  1  0  0  0  0
 10 11  1  0  0  0  0
 11 15  1  0  0  0  0
 11 12  2  0  0  0  0
 12 13  1  0  0  0  0
 13 14  2  0  0  0  0
 14 15  1  0  0  0  0
 14 39  1  0  0  0  0
 15 16  1  0  0  0  0
 16 17  1  0  0  0  0
 16 40  1  0  0  0  0
 16 41  1  0  0  0  0
 17 18  1  0  0  0  0
 17 20  1  0  0  0  0
 17 42  1  0  0  0  0
 18 19  1  0  0  0  0
 18 43  1  0  0  0  0
 18 44  1  0  0  0  0
 19 45  1  0  0  0  0
 20 24  1  0  0  0  0
 20 21  1  0  0  0  0
 20 46  1  0  0  0  0
 21 22  1  0  0  0  0
 21 47  1  0  0  0  0
 21 48  1  0  0  0  0
 22 23  1  0  0  0  0
 22 49  1  0  0  0  0
 22 50  1  0  0  0  0
 23 24  1  0  0  0  0
 24 51  1  0  0  0  0
 24 52  1  0  0  0  0
 25 26  1  0  0  0  0
 25 53  1  0  0  0  0
 25 54  1  0  0  0  0
 26 27  1  0  0  0  0
 26 28  1  0  0  0  0
 26 29  1  0  0  0  0
 27 55  1  0  0  0  0
 27 56  1  0  0  0  0
 27 57  1  0  0  0  0
 28 58  1  0  0  0  0
 28 59  1  0  0  0  0
 28 60  1  0  0  0  0
M  END
> <s_m_source_file>
AV-unprocessed.smi

> <i_m_source_file_index>
91

> <i_lp_mmshare_version>
43012

> <i_f3d_flags>
0

> <s_epik_input>
W0NIM11PW0NIMl1bQ0BASF0oTzEpW0NIMl1OKFtDSDJdQzEoW0NIM10pW0NIM10pYyhuW2NIXW4yKWMoYzIzKW5bY0hdbjNbQ0gyXVtDQEhdKFtDSDJdW09IXSlbQ0BASF00W0NIMl1bQ0gyXU9bQ0gyXTQ=

> <s_epik_cmdline>
J2VwaWtfcHl0aG9uJywgJy1waCcsICc3LjAnLCAnLXRuJywgJzgnLCAnLW1hJywgJzIwMCcsICctbWV0YWxfYmluZGluZycsICctaW1hZScsICc8aW5maWxlLm1hZT4nLCAnLW9tYWUnLCAnPG91dGZpbGUubWFlPic=

> <r_lp_tautomer_probability>
1

> <r_epik_Ionization_Penalty>
8.63591e-05

> <r_epik_Ionization_Penalty_Charging>
0

> <r_epik_Ionization_Penalty_Neutral>
8.63591e-05

> <r_epik_State_Penalty>
-0

> <r_epik_Charging_Adjusted_Penalty>
0

> <i_epik_Tot_Q>
0

> <i_epik_Tot_abs_Q>
0

> <r_epik_Metal_State_Penalty>
-0

> <b_epik_Metal_Only>
0

> <s_lp_Force_Field>
OPLS_2005

> <r_lp_Energy>
46.7978

> <b_lp_Chiralities_Consistent>
1

> <s_lp_Variant>
AV-unprocessed.smi:91-4

> <Gold.Version>
5.8.1

> <Gold.Id.Protein>
6NUR|6NUR_protein|mol2

> <Gold.PLP.Fitness>
50.2278

> <Gold.PLP.PLP>
-47.0273

> <Gold.PLP.part.hbond>
-1.9530

> <Gold.PLP.part.metal>
0.0000

> <Gold.PLP.part.buried>
-7.0502

> <Gold.PLP.part.nonpolar>
-37.8230

> <Gold.PLP.part.repulsive>
0.4230

> <Gold.PLP.ligand.clash>
0.0000

> <Gold.PLP.ligand.torsion>
1.6098

> <Gold.PLP.Chemscore.Hbond>
1.9500

> <Gold.PLP.Chemscore.CHOScore>
0.0000

> <Gold.PLP.Chemscore.Metal>
0.0000

> <Gold.Chemscore.Hbonds>
donor molecule, donor type, donor heavy atom, donor atom, acceptor molecule, acceptor atom, score
      P1  H  6896  6909       L1    19  0.94
      P1  H  7997  8009       L1    13  1.00

> <Gold.PLP.Chemscore.Internal.Correction>
0.5700

> <Gold.Rescore>
     Score         DG    S(hbond)    S(metal)    S(lipo)     H(rot)  DE(clash)    DE(int)     intcor
     11.80     -16.48       0.98        0.00     132.24       3.03       2.30       2.38       ----

> <Gold.Chemscore.Fitness>
11.8011

> <Gold.Chemscore.DG>
-16.4846

> <Gold.Chemscore.ZeroCoef>
-5.4800

> <Gold.Chemscore.Hbond>
0.9838

> <Gold.Chemscore.Metal>
0.0000

> <Gold.Chemscore.Lipo>
132.2362

> <Gold.Chemscore.Internal_Hbond>
0.0000

> <Gold.Chemscore.DEClash>
2.3012

> <Gold.Chemscore.DEInternal>
2.3824

> <Gold.Chemscore.Rot>
3.0284

> <Gold.Chemscore.Internal.Correction>
   9.000000E+99

> <Gold.Chemscore.Hbonds>
donor molecule, donor type, donor heavy atom, donor atom, acceptor molecule, acceptor atom, score
      P1  H  6896  6909       L1    19  0.47
      P1  H  7997  8009       L1    13  0.11

> <Gold.Chemscore.Hbond.Weighted>
-3.2857

> <Gold.Chemscore.Metal.Weighted>
-0.0000

> <Gold.Chemscore.Lipo.Weighted>
-15.4716

> <Gold.Chemscore.Internal_Hbond.Weighted>
0.0000

> <Gold.Chemscore.DEClash.Weighted>
2.3012

> <Gold.Chemscore.DEInternal.Weighted>
2.3824

> <Gold.Chemscore.Rot.Weighted>
7.7528

> <Gold.Chemscore.Internal.Correction.Weighted>
   9.000000E+99

> <Gold.Protein.RotatedTorsions>
[ 6907 6896 6895 6894 ] final -148.54 input  -60.11 | X-H torsion
[ 7974 7965 7964 7962 ] final  -30.81 input  175.53 | X-H torsion
[ 8008 7997 7996 7995 ] final  149.64 input   59.86 | X-H torsion
[ 10167 10162 10161 10158 ] final  175.41 input  -65.29 | X-H torsion
[ 10718 10713 10712 10709 ] final -148.09 input   66.30 | X-H torsion
[ 10763 10752 10751 10750 ] final  -79.72 input  -60.55 | X-H torsion
[ 11005 11000 10999 10996 ] final  -85.22 input  -57.11 | X-H torsion

> <Gold.Protein.ActiveResidues>
 VAL166  LYS551  ARG553  GLY616  TRP617  ASP618  TYR619  PRO620  LYS621  CYS622 
 ASP623  PHE694  ASN695  SER759  ASP760  ASP761  ALA762  ILE779  LEU786  VAL792 
 PHE793  MET794  SER795  GLU796  ALA797  LYS798  CYS799  TRP800  GLU811  SER814 

> <Gold.Protein.RotatedAtoms>
  151.1713  133.4782  159.2593 H   0  0  0  0  0  0  0  0  0  0  0  0  # atno 6907 bound_to 6896
  151.1353  135.0151  159.8611 H   0  0  0  0  0  0  0  0  0  0  0  0  # atno 6908 bound_to 6896
  152.5461  134.1612  159.8611 H   0  0  0  0  0  0  0  0  0  0  0  0  # atno 6909 bound_to 6896
  146.1115  140.5588  142.8776 H   0  0  0  0  0  0  0  0  0  0  0  0  # atno 7974 bound_to 7965
  156.2747  140.2096  156.5891 H   0  0  0  0  0  0  0  0  0  0  0  0  # atno 8008 bound_to 7997
  154.6997  140.0522  157.0469 H   0  0  0  0  0  0  0  0  0  0  0  0  # atno 8009 bound_to 7997
  155.0752  140.3181  155.4621 H   0  0  0  0  0  0  0  0  0  0  0  0  # atno 8010 bound_to 7997
  139.5176  144.3034  152.0358 H   0  0  0  0  0  0  0  0  0  0  0  0  # atno 10167 bound_to 10162
  156.4158  130.8004  151.2224 H   0  0  0  0  0  0  0  0  0  0  0  0  # atno 10718 bound_to 10713
  154.5422  135.5686  153.6849 H   0  0  0  0  0  0  0  0  0  0  0  0  # atno 10763 bound_to 10752
  152.9966  135.6230  154.2486 H   0  0  0  0  0  0  0  0  0  0  0  0  # atno 10764 bound_to 10752
  154.2418  135.2862  155.2830 H   0  0  0  0  0  0  0  0  0  0  0  0  # atno 10765 bound_to 10752
  141.1643  133.7388  156.8983 H   0  0  0  0  0  0  0  0  0  0  0  0  # atno 11005 bound_to 11000
  144.7515  140.5203  143.6798 LP  0  0  0  0  0  0  0  0  0  0  0  0  # atno 17320 bound_to 7965
  145.5654  139.1481  143.3318 LP  0  0  0  0  0  0  0  0  0  0  0  0  # atno 17321 bound_to 7965
  140.2481  144.4198  150.6233 LP  0  0  0  0  0  0  0  0  0  0  0  0  # atno 17342 bound_to 10162
  140.6244  143.2179  151.6628 LP  0  0  0  0  0  0  0  0  0  0  0  0  # atno 17343 bound_to 10162
  157.7508  131.0243  150.3873 LP  0  0  0  0  0  0  0  0  0  0  0  0  # atno 17370 bound_to 10713
  156.4180  130.3947  149.6845 LP  0  0  0  0  0  0  0  0  0  0  0  0  # atno 17371 bound_to 10713
  140.1600  134.9172  157.2703 LP  0  0  0  0  0  0  0  0  0  0  0  0  # atno 17394 bound_to 11000
  140.2622  134.3558  155.7402 LP  0  0  0  0  0  0  0  0  0  0  0  0  # atno 17395 bound_to 11000

$$$$
