AV-unprocessed.smi:1831|AV-procd|sdf|7463|dock7
  -GOLD-   22720 9153D 1   1.00000     0.00000
 Structure written by MMmdl.
 40 41  0  0  0  0  0  0  0  0  3 V2000
  153.6995  137.4952  161.7273 C   0  0  0  0  0  0  0  0  0  0  0  0
  153.3601  137.6361  160.2831 C   0  0  0  0  0  0  0  0  0  0  0  0
  152.3642  136.9606  159.7046 N   0  0  0  0  0  0  0  0  0  0  0  0
  152.2430  137.2612  158.3557 N   0  0  0  0  0  0  0  0  0  0  0  0
  153.1386  138.1656  157.9362 C   0  0  0  0  0  0  0  0  0  0  0  0
  153.1885  138.5936  156.6639 N   0  5  0  0  0  0  0  0  0  0  0  0
  152.0760  139.0855  156.0757 C   0  0  0  0  0  0  0  0  0  0  0  0
  151.4186  140.0580  156.4560 O   0  0  0  0  0  0  0  0  0  0  0  0
  151.7147  138.4274  154.9635 N   0  0  0  0  0  0  0  0  0  0  0  0
  150.5727  138.7515  154.1128 C   0  0  0  0  0  0  0  0  0  0  0  0
  149.2896  139.0611  154.9201 C   0  0  1  0  0  0  0  0  0  0  0  0
  148.4489  140.1375  154.2308 C   0  0  0  0  0  0  0  0  0  0  0  0
  147.4865  139.3631  153.3153 C   0  0  0  0  0  0  0  0  0  0  0  0
  147.5790  137.9328  153.7012 N   0  3  2  0  0  0  0  0  0  0  0  0
  146.3037  137.1662  153.6422 C   0  0  0  0  0  0  0  0  0  0  0  0
  146.5152  135.6844  154.0074 C   0  0  0  0  0  0  0  0  0  0  0  0
  145.6643  137.2647  152.2447 C   0  0  0  0  0  0  0  0  0  0  0  0
  148.2878  137.9039  154.9963 C   0  0  0  0  0  0  0  0  0  0  0  0
  154.2353  138.7104  159.2055 S   0  0  0  0  0  0  0  0  0  0  0  0
  153.1229  138.2089  162.3154 H   0  0  0  0  0  0  0  0  0  0  0  0
  154.7610  137.6861  161.8855 H   0  0  0  0  0  0  0  0  0  0  0  0
  153.4721  136.4871  162.0752 H   0  0  0  0  0  0  0  0  0  0  0  0
  152.2811  137.6379  154.6884 H   0  0  0  0  0  0  0  0  0  0  0  0
  150.8437  139.6253  153.5197 H   0  0  0  0  0  0  0  0  0  0  0  0
  150.3926  137.9523  153.3920 H   0  0  0  0  0  0  0  0  0  0  0  0
  149.5774  139.3773  155.9237 H   0  0  0  0  0  0  0  0  0  0  0  0
  147.8745  140.6838  154.9802 H   0  0  0  0  0  0  0  0  0  0  0  0
  149.0497  140.8679  153.6873 H   0  0  0  0  0  0  0  0  0  0  0  0
  146.4732  139.7497  153.4333 H   0  0  0  0  0  0  0  0  0  0  0  0
  147.7651  139.4682  152.2663 H   0  0  0  0  0  0  0  0  0  0  0  0
  145.6123  137.5984  154.3671 H   0  0  0  0  0  0  0  0  0  0  0  0
  145.5902  135.1181  153.8965 H   0  0  0  0  0  0  0  0  0  0  0  0
  146.8361  135.5603  155.0417 H   0  0  0  0  0  0  0  0  0  0  0  0
  147.2655  135.2207  153.3655 H   0  0  0  0  0  0  0  0  0  0  0  0
  144.7415  136.6860  152.1956 H   0  0  0  0  0  0  0  0  0  0  0  0
  146.3356  136.8803  151.4759 H   0  0  0  0  0  0  0  0  0  0  0  0
  145.4090  138.2907  151.9809 H   0  0  0  0  0  0  0  0  0  0  0  0
  148.7460  136.9388  155.2045 H   0  0  0  0  0  0  0  0  0  0  0  0
  147.5735  138.0973  155.7985 H   0  0  0  0  0  0  0  0  0  0  0  0
  148.2123  137.5037  153.0409 H   0  0  0  0  0  0  0  0  0  0  0  0
  1  2  1  0  0  0  0
  1 20  1  0  0  0  0
  1 21  1  0  0  0  0
  1 22  1  0  0  0  0
  2 19  1  0  0  0  0
  2  3  2  0  0  0  0
  3  4  1  0  0  0  0
  4  5  2  0  0  0  0
  5  6  1  0  0  0  0
  5 19  1  0  0  0  0
  6  7  1  0  0  0  0
  7  8  2  0  0  0  0
  7  9  1  0  0  0  0
  9 10  1  0  0  0  0
  9 23  1  0  0  0  0
 10 11  1  0  0  0  0
 10 24  1  0  0  0  0
 10 25  1  0  0  0  0
 11 18  1  0  0  0  0
 11 12  1  0  0  0  0
 11 26  1  0  0  0  0
 12 13  1  0  0  0  0
 12 27  1  0  0  0  0
 12 28  1  0  0  0  0
 13 14  1  0  0  0  0
 13 29  1  0  0  0  0
 13 30  1  0  0  0  0
 14 15  1  0  0  0  0
 14 18  1  0  0  0  0
 14 40  1  0  0  0  0
 15 16  1  0  0  0  0
 15 17  1  0  0  0  0
 15 31  1  0  0  0  0
 16 32  1  0  0  0  0
 16 33  1  0  0  0  0
 16 34  1  0  0  0  0
 17 35  1  0  0  0  0
 17 36  1  0  0  0  0
 17 37  1  0  0  0  0
 18 38  1  0  0  0  0
 18 39  1  0  0  0  0
M  CHG  1   6  -1
M  CHG  1  14   1
M  END
> <s_m_source_file>
AV-unprocessed.smi

> <i_m_source_file_index>
1831

> <i_lp_mmshare_version>
43012

> <i_f3d_flags>
0

> <s_epik_input>
W0NIM11jMW5uYyhzMSlbTkhdQyg9TylbTkhdW0NIMl1bQ0BASF0yW0NIMl1bQ0gyXU4oW0NIMl0yKVtDSF0oW0NIM10pW0NIM10=

> <s_epik_cmdline>
J2VwaWtfcHl0aG9uJywgJy1waCcsICc3LjAnLCAnLXRuJywgJzgnLCAnLW1hJywgJzIwMCcsICctbWV0YWxfYmluZGluZycsICctaW1hZScsICc8aW5maWxlLm1hZT4nLCAnLW9tYWUnLCAnPG91dGZpbGUubWFlPic=

> <r_lp_tautomer_probability>
1

> <r_epik_Ionization_Penalty>
4.24531

> <r_epik_Ionization_Penalty_Charging>
4.11954

> <r_epik_Ionization_Penalty_Neutral>
0.125766

> <r_epik_State_Penalty>
4.11879

> <r_epik_Charging_Adjusted_Penalty>
8.23833

> <i_epik_Tot_Q>
0

> <i_epik_Tot_abs_Q>
2

> <r_epik_Metal_State_Penalty>
0.659341

> <b_epik_Metal_Only>
1

> <s_lp_Force_Field>
OPLS_2005

> <r_lp_Energy>
23.48

> <b_lp_Chiralities_Consistent>
1

> <s_lp_Variant>
AV-unprocessed.smi:1831-8

> <Gold.Version>
5.8.1

> <Gold.Id.Protein>
6NUR|6NUR_protein|mol2

> <Gold.PLP.Fitness>
35.5792

> <Gold.PLP.PLP>
-23.7921

> <Gold.PLP.part.hbond>
-3.0000

> <Gold.PLP.part.metal>
0.0000

> <Gold.PLP.part.buried>
-3.7933

> <Gold.PLP.part.nonpolar>
-17.8889

> <Gold.PLP.part.repulsive>
0.1623

> <Gold.PLP.ligand.clash>
0.0000

> <Gold.PLP.ligand.torsion>
1.6559

> <Gold.PLP.Chemscore.Hbond>
5.0000

> <Gold.PLP.Chemscore.CHOScore>
0.0000

> <Gold.PLP.Chemscore.Metal>
0.0000

> <Gold.Chemscore.Hbonds>
donor molecule, donor type, donor heavy atom, donor atom, acceptor molecule, acceptor atom, score
      L1  H    14    40       P1  7948  2.00
      P1  H  6896  6908       L1     3  1.00
      P1  H  7997  8009       L1     6  2.00

> <Gold.PLP.Chemscore.Internal.Correction>
0.0990

> <Gold.Rescore>
     Score         DG    S(hbond)    S(metal)    S(lipo)     H(rot)  DE(clash)    DE(int)     intcor
     12.55     -15.76       2.29        0.00      55.74       1.51       0.01       3.19       ----

> <Gold.Chemscore.Fitness>
12.5538

> <Gold.Chemscore.DG>
-15.7619

> <Gold.Chemscore.ZeroCoef>
-5.4800

> <Gold.Chemscore.Hbond>
2.2854

> <Gold.Chemscore.Metal>
0.0000

> <Gold.Chemscore.Lipo>
55.7444

> <Gold.Chemscore.Internal_Hbond>
0.0000

> <Gold.Chemscore.DEClash>
0.0149

> <Gold.Chemscore.DEInternal>
3.1932

> <Gold.Chemscore.Rot>
1.5131

> <Gold.Chemscore.Internal.Correction>
   9.000000E+99

> <Gold.Chemscore.Hbonds>
donor molecule, donor type, donor heavy atom, donor atom, acceptor molecule, acceptor atom, score
      L1  H    14    40       P1  7948  1.00
      P1  H  6896  6908       L1     3  0.70
      P1  H  7997  8009       L1     6  0.24

> <Gold.Chemscore.Hbond.Weighted>
-7.6333

> <Gold.Chemscore.Metal.Weighted>
-0.0000

> <Gold.Chemscore.Lipo.Weighted>
-6.5221

> <Gold.Chemscore.Internal_Hbond.Weighted>
0.0000

> <Gold.Chemscore.DEClash.Weighted>
0.0149

> <Gold.Chemscore.DEInternal.Weighted>
3.1932

> <Gold.Chemscore.Rot.Weighted>
3.8735

> <Gold.Chemscore.Internal.Correction.Weighted>
   9.000000E+99

> <Gold.Protein.RotatedTorsions>
[ 6907 6896 6895 6894 ] final  -86.38 input  -60.11 | X-H torsion
[ 7974 7965 7964 7962 ] final -151.52 input  175.53 | X-H torsion
[ 8008 7997 7996 7995 ] final -176.33 input   59.86 | X-H torsion
[ 10167 10162 10161 10158 ] final -155.53 input  -65.29 | X-H torsion
[ 10718 10713 10712 10709 ] final  -81.53 input   66.30 | X-H torsion
[ 10763 10752 10751 10750 ] final -153.75 input  -60.55 | X-H torsion
[ 11005 11000 10999 10996 ] final  -41.91 input  -57.11 | X-H torsion

> <Gold.Protein.ActiveResidues>
 VAL166  LYS551  ARG553  GLY616  TRP617  ASP618  TYR619  PRO620  LYS621  CYS622 
 ASP623  PHE694  ASN695  SER759  ASP760  ASP761  ALA762  ILE779  LEU786  VAL792 
 PHE793  MET794  SER795  GLU796  ALA797  LYS798  CYS799  TRP800  GLU811  SER814 

> <Gold.Protein.RotatedAtoms>
  150.6867  134.3059  159.4725 H   0  0  0  0  0  0  0  0  0  0  0  0  # atno 6907 bound_to 6896
  152.0950  134.9378  160.0580 H   0  0  0  0  0  0  0  0  0  0  0  0  # atno 6908 bound_to 6896
  152.0680  133.4058  159.4483 H   0  0  0  0  0  0  0  0  0  0  0  0  # atno 6909 bound_to 6896
  144.7845  140.4786  143.5816 H   0  0  0  0  0  0  0  0  0  0  0  0  # atno 7974 bound_to 7965
  155.9936  140.1206  157.0615 H   0  0  0  0  0  0  0  0  0  0  0  0  # atno 8008 bound_to 7997
  154.4219  140.1121  156.5667 H   0  0  0  0  0  0  0  0  0  0  0  0  # atno 8009 bound_to 7997
  155.6309  140.3473  155.4685 H   0  0  0  0  0  0  0  0  0  0  0  0  # atno 8010 bound_to 7997
  139.6923  143.9399  152.2391 H   0  0  0  0  0  0  0  0  0  0  0  0  # atno 10167 bound_to 10162
  156.0049  130.4606  150.3966 H   0  0  0  0  0  0  0  0  0  0  0  0  # atno 10718 bound_to 10713
  154.7906  135.3205  154.7785 H   0  0  0  0  0  0  0  0  0  0  0  0  # atno 10763 bound_to 10752
  153.8475  135.6865  153.4800 H   0  0  0  0  0  0  0  0  0  0  0  0  # atno 10764 bound_to 10752
  153.1575  135.4674  154.9665 H   0  0  0  0  0  0  0  0  0  0  0  0  # atno 10765 bound_to 10752
  141.0279  133.6833  156.2522 H   0  0  0  0  0  0  0  0  0  0  0  0  # atno 11005 bound_to 11000
  145.5959  139.1499  143.3156 LP  0  0  0  0  0  0  0  0  0  0  0  0  # atno 17320 bound_to 7965
  146.2070  140.6082  142.9076 LP  0  0  0  0  0  0  0  0  0  0  0  0  # atno 17321 bound_to 7965
  139.9219  144.6794  150.8453 LP  0  0  0  0  0  0  0  0  0  0  0  0  # atno 17342 bound_to 10162
  140.7686  143.3369  151.2290 LP  0  0  0  0  0  0  0  0  0  0  0  0  # atno 17343 bound_to 10162
  157.2037  131.0444  151.2636 LP  0  0  0  0  0  0  0  0  0  0  0  0  # atno 17370 bound_to 10713
  157.3952  130.7303  149.6726 LP  0  0  0  0  0  0  0  0  0  0  0  0  # atno 17371 bound_to 10713
  140.6459  134.5117  157.5573 LP  0  0  0  0  0  0  0  0  0  0  0  0  # atno 17394 bound_to 11000
  139.9188  134.8191  156.1278 LP  0  0  0  0  0  0  0  0  0  0  0  0  # atno 17395 bound_to 11000

$$$$
