AV-unprocessed.smi:3348|AV-procd|sdf|12924|dock1
  -GOLD-   2272019343D 1   1.00000     0.00000
 Structure written by MMmdl.
 46 47  0  0  0  0  0  0  0  0  1 V2000
  143.2774  136.3336  152.4506 C   0  0  0  0  0  0  0  0  0  0  0  0
  144.8038  136.4898  152.3389 C   0  0  1  0  0  0  0  0  0  0  0  0
  145.4021  135.6337  151.1948 C   0  0  0  0  0  0  0  0  0  0  0  0
  145.1307  134.2141  151.3358 N   0  0  0  0  0  0  0  0  0  0  0  0
  143.9128  133.5673  151.3143 C   0  0  0  0  0  0  0  0  0  0  0  0
  144.1582  132.2334  151.4708 C   0  0  0  0  0  0  0  0  0  0  0  0
  145.5752  132.1608  151.5764 C   0  0  0  0  0  0  0  0  0  0  0  0
  146.1549  133.3472  151.4907 N   0  0  0  0  0  0  0  0  0  0  0  0
  145.1260  137.9115  152.1795 N   0  0  0  0  0  0  0  0  0  0  0  0
  146.5512  138.2374  152.1488 C   0  0  0  0  0  0  0  0  0  0  0  0
  147.0570  138.6300  153.5468 C   0  0  0  0  0  0  0  0  0  0  0  0
  148.4676  138.8136  153.5777 O   0  0  0  0  0  0  0  0  0  0  0  0
  148.9858  139.3685  154.7821 C   0  0  2  0  0  0  0  0  0  0  0  0
  148.6106  140.8622  154.8004 C   0  0  0  0  0  0  0  0  0  0  0  0
  149.2243  141.5807  156.0104 C   0  0  0  0  0  0  0  0  0  0  0  0
  150.7490  141.4015  156.0382 C   0  0  0  0  0  0  0  0  0  0  0  0
  151.1330  139.9136  156.0180 C   0  0  0  0  0  0  0  0  0  0  0  0
  150.5194  139.1772  154.8095 C   0  0  1  0  0  0  0  0  0  0  0  0
  150.9120  137.6913  154.8256 C   0  0  0  0  0  0  0  0  0  0  0  0
  142.9927  135.3083  152.6878 H   0  0  0  0  0  0  0  0  0  0  0  0
  142.7808  136.6115  151.5204 H   0  0  0  0  0  0  0  0  0  0  0  0
  142.8772  136.9663  153.2435 H   0  0  0  0  0  0  0  0  0  0  0  0
  145.2321  136.1417  153.2798 H   0  0  0  0  0  0  0  0  0  0  0  0
  145.0027  135.9621  150.2340 H   0  0  0  0  0  0  0  0  0  0  0  0
  146.4844  135.7538  151.1405 H   0  0  0  0  0  0  0  0  0  0  0  0
  142.9835  134.1040  151.1920 H   0  0  0  0  0  0  0  0  0  0  0  0
  143.4358  131.4314  151.5035 H   0  0  0  0  0  0  0  0  0  0  0  0
  146.1956  131.2868  151.7094 H   0  0  0  0  0  0  0  0  0  0  0  0
  144.6753  138.2765  151.3465 H   0  0  0  0  0  0  0  0  0  0  0  0
  147.1267  137.4056  151.7429 H   0  0  0  0  0  0  0  0  0  0  0  0
  146.7234  139.0839  151.4854 H   0  0  0  0  0  0  0  0  0  0  0  0
  146.5621  139.5404  153.8879 H   0  0  0  0  0  0  0  0  0  0  0  0
  146.7940  137.8542  154.2667 H   0  0  0  0  0  0  0  0  0  0  0  0
  148.5585  138.8874  155.6643 H   0  0  0  0  0  0  0  0  0  0  0  0
  148.9583  141.3380  153.8824 H   0  0  0  0  0  0  0  0  0  0  0  0
  147.5264  140.9769  154.8138 H   0  0  0  0  0  0  0  0  0  0  0  0
  148.9747  142.6417  155.9793 H   0  0  0  0  0  0  0  0  0  0  0  0
  148.7906  141.1862  156.9300 H   0  0  0  0  0  0  0  0  0  0  0  0
  151.1928  141.9053  155.1787 H   0  0  0  0  0  0  0  0  0  0  0  0
  151.1633  141.8807  156.9256 H   0  0  0  0  0  0  0  0  0  0  0  0
  152.2193  139.8196  155.9997 H   0  0  0  0  0  0  0  0  0  0  0  0
  150.7997  139.4423  156.9438 H   0  0  0  0  0  0  0  0  0  0  0  0
  150.9332  139.6200  153.9022 H   0  0  0  0  0  0  0  0  0  0  0  0
  150.5081  137.1843  155.7026 H   0  0  0  0  0  0  0  0  0  0  0  0
  151.9956  137.5721  154.8413 H   0  0  0  0  0  0  0  0  0  0  0  0
  150.5409  137.1730  153.9413 H   0  0  0  0  0  0  0  0  0  0  0  0
  1  2  1  0  0  0  0
  1 20  1  0  0  0  0
  1 21  1  0  0  0  0
  1 22  1  0  0  0  0
  2  3  1  0  0  0  0
  2  9  1  0  0  0  0
  2 23  1  0  0  0  0
  3  4  1  0  0  0  0
  3 24  1  0  0  0  0
  3 25  1  0  0  0  0
  4  8  1  0  0  0  0
  4  5  1  0  0  0  0
  5  6  2  0  0  0  0
  5 26  1  0  0  0  0
  6  7  1  0  0  0  0
  6 27  1  0  0  0  0
  7  8  2  0  0  0  0
  7 28  1  0  0  0  0
  9 10  1  0  0  0  0
  9 29  1  0  0  0  0
 10 11  1  0  0  0  0
 10 30  1  0  0  0  0
 10 31  1  0  0  0  0
 11 12  1  0  0  0  0
 11 32  1  0  0  0  0
 11 33  1  0  0  0  0
 12 13  1  0  0  0  0
 13 18  1  0  0  0  0
 13 14  1  0  0  0  0
 13 34  1  0  0  0  0
 14 15  1  0  0  0  0
 14 35  1  0  0  0  0
 14 36  1  0  0  0  0
 15 16  1  0  0  0  0
 15 37  1  0  0  0  0
 15 38  1  0  0  0  0
 16 17  1  0  0  0  0
 16 39  1  0  0  0  0
 16 40  1  0  0  0  0
 17 18  1  0  0  0  0
 17 41  1  0  0  0  0
 17 42  1  0  0  0  0
 18 19  1  0  0  0  0
 18 43  1  0  0  0  0
 19 44  1  0  0  0  0
 19 45  1  0  0  0  0
 19 46  1  0  0  0  0
M  END
> <s_m_source_file>
AV-unprocessed.smi

> <i_m_source_file_index>
3348

> <i_lp_mmshare_version>
43012

> <i_f3d_flags>
0

> <s_epik_input>
bjFbY0hdW2NIXVtjSF1uMVtDSDJdW0NAQEhdKFtDSDNdKVtOSF1bQ0gyXVtDSDJdT1tDQEBIXTJbQ0gyXVtDSDJdW0NIMl1bQ0gyXVtDQEhdMltDSDNd

> <s_epik_cmdline>
J2VwaWtfcHl0aG9uJywgJy1waCcsICc3LjAnLCAnLXRuJywgJzgnLCAnLW1hJywgJzIwMCcsICctbWV0YWxfYmluZGluZycsICctaW1hZScsICc8aW5maWxlLm1hZT4nLCAnLW9tYWUnLCAnPG91dGZpbGUubWFlPic=

> <r_lp_tautomer_probability>
1

> <r_epik_Ionization_Penalty>
2.46945

> <r_epik_Ionization_Penalty_Charging>
0

> <r_epik_Ionization_Penalty_Neutral>
2.46945

> <r_epik_State_Penalty>
2.6322

> <r_epik_Charging_Adjusted_Penalty>
2.6322

> <i_epik_Tot_Q>
0

> <i_epik_Tot_abs_Q>
0

> <r_epik_Metal_State_Penalty>
2.63217

> <b_epik_Metal_Only>
0

> <s_lp_Force_Field>
OPLS_2005

> <r_lp_Energy>
18.9542

> <b_lp_Chiralities_Consistent>
1

> <s_lp_Variant>
AV-unprocessed.smi:3348-10

> <Gold.Version>
5.8.1

> <Gold.Id.Protein>
6NUR|6NUR_protein|mol2

> <Gold.PLP.Fitness>
48.6914

> <Gold.PLP.PLP>
-40.3630

> <Gold.PLP.part.hbond>
-2.0000

> <Gold.PLP.part.metal>
0.0000

> <Gold.PLP.part.buried>
-5.1687

> <Gold.PLP.part.nonpolar>
-36.8230

> <Gold.PLP.part.repulsive>
3.4881

> <Gold.PLP.ligand.clash>
0.0000

> <Gold.PLP.ligand.torsion>
0.3711

> <Gold.PLP.Chemscore.Hbond>
1.0000

> <Gold.PLP.Chemscore.CHOScore>
2.0000

> <Gold.PLP.Chemscore.Metal>
0.0000

> <Gold.Chemscore.Hbonds>
donor molecule, donor type, donor heavy atom, donor atom, acceptor molecule, acceptor atom, score
      L1  H     9    29       P1 10171  1.00
      L1  C     5    26       P1 10186  0.88

> <Gold.PLP.Chemscore.Internal.Correction>
0.0708

> <Gold.Rescore>
     Score         DG    S(hbond)    S(metal)    S(lipo)     H(rot)  DE(clash)    DE(int)     intcor
     14.81     -15.38       1.00        0.00      93.88       1.72       0.30       0.27       ----

> <Gold.Chemscore.Fitness>
14.8120

> <Gold.Chemscore.DG>
-15.3757

> <Gold.Chemscore.ZeroCoef>
-5.4800

> <Gold.Chemscore.Hbond>
0.9954

> <Gold.Chemscore.Metal>
0.0000

> <Gold.Chemscore.Lipo>
93.8764

> <Gold.Chemscore.Internal_Hbond>
0.0000

> <Gold.Chemscore.DEClash>
0.2986

> <Gold.Chemscore.DEInternal>
0.2651

> <Gold.Chemscore.Rot>
1.7237

> <Gold.Chemscore.Internal.Correction>
   9.000000E+99

> <Gold.Chemscore.Hbonds>
donor molecule, donor type, donor heavy atom, donor atom, acceptor molecule, acceptor atom, score
      L1  H     9    29       P1 10171  1.00

> <Gold.Chemscore.Hbond.Weighted>
-3.3247

> <Gold.Chemscore.Metal.Weighted>
-0.0000

> <Gold.Chemscore.Lipo.Weighted>
-10.9835

> <Gold.Chemscore.Internal_Hbond.Weighted>
0.0000

> <Gold.Chemscore.DEClash.Weighted>
0.2986

> <Gold.Chemscore.DEInternal.Weighted>
0.2651

> <Gold.Chemscore.Rot.Weighted>
4.4126

> <Gold.Chemscore.Internal.Correction.Weighted>
   9.000000E+99

> <Gold.Protein.RotatedTorsions>
[ 6907 6896 6895 6894 ] final   -1.85 input  -60.11 | X-H torsion
[ 7974 7965 7964 7962 ] final  107.59 input  175.53 | X-H torsion
[ 8008 7997 7996 7995 ] final  130.16 input   59.86 | X-H torsion
[ 10167 10162 10161 10158 ] final   47.10 input  -65.29 | X-H torsion
[ 10718 10713 10712 10709 ] final   34.53 input   66.30 | X-H torsion
[ 10763 10752 10751 10750 ] final   87.01 input  -60.55 | X-H torsion
[ 11005 11000 10999 10996 ] final  -28.26 input  -57.11 | X-H torsion

> <Gold.Protein.ActiveResidues>
 VAL166  LYS551  ARG553  GLY616  TRP617  ASP618  TYR619  PRO620  LYS621  CYS622 
 ASP623  PHE694  ASN695  SER759  ASP760  ASP761  ALA762  ILE779  LEU786  VAL792 
 PHE793  MET794  SER795  GLU796  ALA797  LYS798  CYS799  TRP800  GLU811  SER814 

> <Gold.Protein.RotatedAtoms>
  151.5394  135.1068  159.9922 H   0  0  0  0  0  0  0  0  0  0  0  0  # atno 6907 bound_to 6896
  152.4542  133.7686  159.6797 H   0  0  0  0  0  0  0  0  0  0  0  0  # atno 6908 bound_to 6896
  150.8480  133.7765  159.3060 H   0  0  0  0  0  0  0  0  0  0  0  0  # atno 6909 bound_to 6896
  145.2917  139.2598  143.3861 H   0  0  0  0  0  0  0  0  0  0  0  0  # atno 7974 bound_to 7965
  156.2949  140.2603  156.2716 H   0  0  0  0  0  0  0  0  0  0  0  0  # atno 8008 bound_to 7997
  154.9690  140.0391  157.2244 H   0  0  0  0  0  0  0  0  0  0  0  0  # atno 8009 bound_to 7997
  154.7877  140.2806  155.6020 H   0  0  0  0  0  0  0  0  0  0  0  0  # atno 8010 bound_to 7997
  140.3071  144.2865  150.6207 H   0  0  0  0  0  0  0  0  0  0  0  0  # atno 10167 bound_to 10162
  157.3115  130.7401  149.6728 H   0  0  0  0  0  0  0  0  0  0  0  0  # atno 10718 bound_to 10713
  153.1626  135.4559  154.9794 H   0  0  0  0  0  0  0  0  0  0  0  0  # atno 10763 bound_to 10752
  154.7909  135.3220  154.7782 H   0  0  0  0  0  0  0  0  0  0  0  0  # atno 10764 bound_to 10752
  153.8269  135.6942  153.4874 H   0  0  0  0  0  0  0  0  0  0  0  0  # atno 10765 bound_to 10752
  140.9192  133.7410  156.0778 H   0  0  0  0  0  0  0  0  0  0  0  0  # atno 11005 bound_to 11000
  146.3183  140.3409  142.8648 LP  0  0  0  0  0  0  0  0  0  0  0  0  # atno 17320 bound_to 7965
  144.9167  140.7821  143.5773 LP  0  0  0  0  0  0  0  0  0  0  0  0  # atno 17321 bound_to 7965
  140.5601  143.2193  151.7780 LP  0  0  0  0  0  0  0  0  0  0  0  0  # atno 17342 bound_to 10162
  139.4902  144.4361  151.9818 LP  0  0  0  0  0  0  0  0  0  0  0  0  # atno 17343 bound_to 10162
  155.9678  130.4250  150.4634 LP  0  0  0  0  0  0  0  0  0  0  0  0  # atno 17370 bound_to 10713
  157.2633  131.0571  151.2306 LP  0  0  0  0  0  0  0  0  0  0  0  0  # atno 17371 bound_to 10713
  140.8010  134.3509  157.5439 LP  0  0  0  0  0  0  0  0  0  0  0  0  # atno 17394 bound_to 11000
  139.8772  134.9197  156.3234 LP  0  0  0  0  0  0  0  0  0  0  0  0  # atno 17395 bound_to 11000

$$$$
