AV-unprocessed.smi:113|AV-procd|sdf|1102|dock7
  -GOLD-   2262018213D 1   1.00000     0.00000
 Structure written by MMmdl.
 53 56  0  0  0  0  0  0  0  0  2 V2000
  153.1131  139.3075  160.1090 C   0  0  0  0  0  0  0  0  0  0  0  0
  152.4796  140.5937  159.6228 C   0  0  0  0  0  0  0  0  0  0  0  0
  151.8619  140.6967  158.3612 C   0  0  0  0  0  0  0  0  0  0  0  0
  151.2809  141.9243  157.9562 C   0  0  0  0  0  0  0  0  0  0  0  0
  150.5998  142.0665  156.5906 C   0  0  0  0  0  0  0  0  0  0  0  0
  150.1860  140.8373  155.9291 N   0  0  0  0  0  0  0  0  0  0  0  0
  151.1958  140.0023  155.3907 C   0  0  0  0  0  0  0  0  0  0  0  0
  152.3896  140.2972  155.4785 O   0  0  0  0  0  0  0  0  0  0  0  0
  150.7116  138.7975  154.7115 C   0  0  0  0  0  0  0  0  0  0  0  0
  151.7384  137.8544  154.1048 C   0  0  0  0  0  0  0  0  0  0  0  0
  149.3804  138.5591  154.6335 C   0  0  0  0  0  0  0  0  0  0  0  0
  148.4163  139.3949  155.1704 N   0  0  0  0  0  0  0  0  0  0  0  0
  146.9494  139.0722  155.0273 C   0  0  1  0  0  0  0  0  0  0  0  0
  146.5679  138.9108  153.5619 C   0  0  0  0  0  0  0  0  0  0  0  0
  145.3854  137.9678  153.6635 C   0  0  2  0  0  0  0  0  0  0  0  0
  144.1829  138.6997  153.8040 O   0  0  0  0  0  0  0  0  0  0  0  0
  145.6668  137.1536  154.9420 C   0  0  1  0  0  0  0  0  0  0  0  0
  146.1891  135.7354  154.6617 C   0  0  0  0  0  0  0  0  0  0  0  0
  147.4061  135.7913  153.9485 O   0  0  0  0  0  0  0  0  0  0  0  0
  146.6922  137.8531  155.6474 O   0  0  0  0  0  0  0  0  0  0  0  0
  148.8003  140.5834  155.8220 C   0  0  0  0  0  0  0  0  0  0  0  0
  147.9584  141.3734  156.2557 O   0  0  0  0  0  0  0  0  0  0  0  0
  151.3440  143.0276  158.8515 C   0  0  0  0  0  0  0  0  0  0  0  0
  150.7941  144.2919  158.5306 C   0  0  0  0  0  0  0  0  0  0  0  0
  150.8771  145.3611  159.4440 C   0  0  0  0  0  0  0  0  0  0  0  0
  151.5084  145.1836  160.6893 C   0  0  0  0  0  0  0  0  0  0  0  0
  152.0599  143.9333  161.0249 C   0  0  0  0  0  0  0  0  0  0  0  0
  151.9789  142.8628  160.1121 C   0  0  0  0  0  0  0  0  0  0  0  0
  152.5118  141.6666  160.4392 N   0  3  0  0  0  0  0  0  0  0  0  0
  153.3019  138.6269  159.2782 H   0  0  0  0  0  0  0  0  0  0  0  0
  152.4540  138.8073  160.8188 H   0  0  0  0  0  0  0  0  0  0  0  0
  154.0639  139.5090  160.6036 H   0  0  0  0  0  0  0  0  0  0  0  0
  151.8417  139.8292  157.7186 H   0  0  0  0  0  0  0  0  0  0  0  0
  149.7180  142.7037  156.6743 H   0  0  0  0  0  0  0  0  0  0  0  0
  151.2527  142.6014  155.8989 H   0  0  0  0  0  0  0  0  0  0  0  0
  151.2678  136.9900  153.6353 H   0  0  0  0  0  0  0  0  0  0  0  0
  152.4190  137.4857  154.8732 H   0  0  0  0  0  0  0  0  0  0  0  0
  152.3265  138.3686  153.3437 H   0  0  0  0  0  0  0  0  0  0  0  0
  149.0539  137.6697  154.1134 H   0  0  0  0  0  0  0  0  0  0  0  0
  146.3783  139.8449  155.5439 H   0  0  0  0  0  0  0  0  0  0  0  0
  146.3513  139.8717  153.0935 H   0  0  0  0  0  0  0  0  0  0  0  0
  147.3854  138.4280  153.0245 H   0  0  0  0  0  0  0  0  0  0  0  0
  145.2980  137.3411  152.7752 H   0  0  0  0  0  0  0  0  0  0  0  0
  144.0909  139.2769  153.0614 H   0  0  0  0  0  0  0  0  0  0  0  0
  144.7830  137.0975  155.5802 H   0  0  0  0  0  0  0  0  0  0  0  0
  146.3298  135.1794  155.5890 H   0  0  0  0  0  0  0  0  0  0  0  0
  145.4678  135.1825  154.0598 H   0  0  0  0  0  0  0  0  0  0  0  0
  148.0724  136.1472  154.5163 H   0  0  0  0  0  0  0  0  0  0  0  0
  150.3026  144.4663  157.5854 H   0  0  0  0  0  0  0  0  0  0  0  0
  150.4543  146.3217  159.1877 H   0  0  0  0  0  0  0  0  0  0  0  0
  151.5690  146.0068  161.3863 H   0  0  0  0  0  0  0  0  0  0  0  0
  152.5434  143.8029  161.9824 H   0  0  0  0  0  0  0  0  0  0  0  0
  152.9620  141.5694  161.3491 H   0  0  0  0  0  0  0  0  0  0  0  0
  1  2  1  0  0  0  0
  1 30  1  0  0  0  0
  1 31  1  0  0  0  0
  1 32  1  0  0  0  0
  2 29  1  0  0  0  0
  2  3  2  0  0  0  0
  3  4  1  0  0  0  0
  3 33  1  0  0  0  0
  4  5  1  0  0  0  0
  4 23  2  0  0  0  0
  5  6  1  0  0  0  0
  5 34  1  0  0  0  0
  5 35  1  0  0  0  0
  6 21  1  0  0  0  0
  6  7  1  0  0  0  0
  7  8  2  0  0  0  0
  7  9  1  0  0  0  0
  9 10  1  0  0  0  0
  9 11  2  0  0  0  0
 10 36  1  0  0  0  0
 10 37  1  0  0  0  0
 10 38  1  0  0  0  0
 11 12  1  0  0  0  0
 11 39  1  0  0  0  0
 12 13  1  0  0  0  0
 12 21  1  0  0  0  0
 13 20  1  0  0  0  0
 13 14  1  0  0  0  0
 13 40  1  0  0  0  0
 14 15  1  0  0  0  0
 14 41  1  0  0  0  0
 14 42  1  0  0  0  0
 15 16  1  0  0  0  0
 15 17  1  0  0  0  0
 15 43  1  0  0  0  0
 16 44  1  0  0  0  0
 17 18  1  0  0  0  0
 17 20  1  0  0  0  0
 17 45  1  0  0  0  0
 18 19  1  0  0  0  0
 18 46  1  0  0  0  0
 18 47  1  0  0  0  0
 19 48  1  0  0  0  0
 21 22  2  0  0  0  0
 23 28  1  0  0  0  0
 23 24  1  0  0  0  0
 24 25  2  0  0  0  0
 24 49  1  0  0  0  0
 25 26  1  0  0  0  0
 25 50  1  0  0  0  0
 26 27  2  0  0  0  0
 26 51  1  0  0  0  0
 27 28  1  0  0  0  0
 27 52  1  0  0  0  0
 28 29  2  0  0  0  0
 29 53  1  0  0  0  0
M  CHG  1  29   1
M  END
> <s_m_source_file>
AV-unprocessed.smi

> <i_m_source_file_index>
113

> <i_lp_mmshare_version>
43012

> <i_f3d_flags>
0

> <s_epik_input>
W2NIXTFbY0hdW2NIXVtjSF1jKGMxMiluYyhbQ0gzXSlbY0hdYzJbQ0gyXW4zYyg9TyljKFtDSDNdKVtjSF1uKGMzPU8pW0NAQEhdNFtDSDJdW0NAQEhdKFtPSF0pW0NASF0oTzQpW0NIMl1bT0hd

> <s_epik_cmdline>
J2VwaWtfcHl0aG9uJywgJy1waCcsICc3LjAnLCAnLXRuJywgJzgnLCAnLW1hJywgJzIwMCcsICctbWV0YWxfYmluZGluZycsICctaW1hZScsICc8aW5maWxlLm1hZT4nLCAnLW9tYWUnLCAnPG91dGZpbGUubWFlPic=

> <r_lp_tautomer_probability>
1

> <r_epik_Ionization_Penalty>
0.705471

> <r_epik_Ionization_Penalty_Charging>
0.70547

> <r_epik_Ionization_Penalty_Neutral>
1.19947e-07

> <r_epik_State_Penalty>
0.728574

> <r_epik_Charging_Adjusted_Penalty>
1.43404

> <i_epik_Tot_Q>
1

> <i_epik_Tot_abs_Q>
1

> <r_epik_Metal_State_Penalty>
4.61665

> <b_epik_Metal_Only>
0

> <s_epik_Chemistry_Notes>
This compound contains an acetal/aminal-like group ( X-CH(R)-Y where X, Y are N, S, or O) that may be acid/base labile, releasing an aldehyde.

> <s_lp_Force_Field>
OPLS_2005

> <r_lp_Energy>
43.7755

> <b_lp_Chiralities_Consistent>
1

> <s_lp_Variant>
AV-unprocessed.smi:113-12

> <Gold.Version>
5.8.1

> <Gold.Id.Protein>
6NUR|6NUR_protein|mol2

> <Gold.PLP.Fitness>
56.9377

> <Gold.PLP.PLP>
-49.0111

> <Gold.PLP.part.hbond>
-3.4776

> <Gold.PLP.part.metal>
0.0000

> <Gold.PLP.part.buried>
-2.5869

> <Gold.PLP.part.nonpolar>
-42.7767

> <Gold.PLP.part.repulsive>
0.2128

> <Gold.PLP.ligand.clash>
0.0000

> <Gold.PLP.ligand.torsion>
0.3935

> <Gold.PLP.Chemscore.Hbond>
1.8960

> <Gold.PLP.Chemscore.CHOScore>
1.0000

> <Gold.PLP.Chemscore.Metal>
0.0000

> <Gold.Chemscore.Hbonds>
donor molecule, donor type, donor heavy atom, donor atom, acceptor molecule, acceptor atom, score
      L1  H    16    44       P1 10175  0.62
      P1  H  7997  8009       L1     8  0.83
      L1  C    11    39       P1  7948  0.69

> <Gold.PLP.Chemscore.Internal.Correction>
0.0255

> <Gold.Rescore>
     Score         DG    S(hbond)    S(metal)    S(lipo)     H(rot)  DE(clash)    DE(int)     intcor
     18.89     -20.11       1.98        0.00     134.42       3.01       0.61       0.61       ----

> <Gold.Chemscore.Fitness>
18.8908

> <Gold.Chemscore.DG>
-20.1064

> <Gold.Chemscore.ZeroCoef>
-5.4800

> <Gold.Chemscore.Hbond>
1.9792

> <Gold.Chemscore.Metal>
0.0000

> <Gold.Chemscore.Lipo>
134.4169

> <Gold.Chemscore.Internal_Hbond>
0.0000

> <Gold.Chemscore.DEClash>
0.6084

> <Gold.Chemscore.DEInternal>
0.6072

> <Gold.Chemscore.Rot>
3.0120

> <Gold.Chemscore.Internal.Correction>
   9.000000E+99

> <Gold.Chemscore.Hbonds>
donor molecule, donor type, donor heavy atom, donor atom, acceptor molecule, acceptor atom, score
      L1  H    16    44       P1 10175  0.60
      P1  H  7997  8009       L1     8  0.79

> <Gold.Chemscore.Hbond.Weighted>
-6.6104

> <Gold.Chemscore.Metal.Weighted>
-0.0000

> <Gold.Chemscore.Lipo.Weighted>
-15.7268

> <Gold.Chemscore.Internal_Hbond.Weighted>
0.0000

> <Gold.Chemscore.DEClash.Weighted>
0.6084

> <Gold.Chemscore.DEInternal.Weighted>
0.6072

> <Gold.Chemscore.Rot.Weighted>
7.7108

> <Gold.Chemscore.Internal.Correction.Weighted>
   9.000000E+99

> <Gold.Protein.RotatedTorsions>
[ 6907 6896 6895 6894 ] final   15.38 input  -60.11 | X-H torsion
[ 7974 7965 7964 7962 ] final  108.87 input  175.53 | X-H torsion
[ 8008 7997 7996 7995 ] final -158.17 input   59.86 | X-H torsion
[ 10167 10162 10161 10158 ] final  164.32 input  -65.29 | X-H torsion
[ 10718 10713 10712 10709 ] final  -82.62 input   66.30 | X-H torsion
[ 10763 10752 10751 10750 ] final   58.52 input  -60.55 | X-H torsion
[ 11005 11000 10999 10996 ] final  -14.77 input  -57.11 | X-H torsion

> <Gold.Protein.ActiveResidues>
 VAL166  LYS551  ARG553  GLY616  TRP617  ASP618  TYR619  PRO620  LYS621  CYS622 
 ASP623  PHE694  ASN695  SER759  ASP760  ASP761  ALA762  ILE779  LEU786  VAL792 
 PHE793  MET794  SER795  GLU796  ALA797  LYS798  CYS799  TRP800  GLU811  SER814 

> <Gold.Protein.RotatedAtoms>
  151.8171  135.0663  160.0420 H   0  0  0  0  0  0  0  0  0  0  0  0  # atno 6907 bound_to 6896
  152.2978  133.5620  159.5607 H   0  0  0  0  0  0  0  0  0  0  0  0  # atno 6908 bound_to 6896
  150.7259  134.0251  159.3756 H   0  0  0  0  0  0  0  0  0  0  0  0  # atno 6909 bound_to 6896
  145.2751  139.2652  143.3945 H   0  0  0  0  0  0  0  0  0  0  0  0  # atno 7974 bound_to 7965
  155.7435  140.0817  157.2235 H   0  0  0  0  0  0  0  0  0  0  0  0  # atno 8008 bound_to 7997
  154.4019  140.1573  156.2698 H   0  0  0  0  0  0  0  0  0  0  0  0  # atno 8009 bound_to 7997
  155.8998  140.3410  155.6021 H   0  0  0  0  0  0  0  0  0  0  0  0  # atno 8010 bound_to 7997
  139.4887  144.4247  151.9144 H   0  0  0  0  0  0  0  0  0  0  0  0  # atno 10167 bound_to 10162
  156.0030  130.4640  150.4133 H   0  0  0  0  0  0  0  0  0  0  0  0  # atno 10718 bound_to 10713
  152.9873  135.5604  154.5566 H   0  0  0  0  0  0  0  0  0  0  0  0  # atno 10763 bound_to 10752
  154.4993  135.2796  155.1436 H   0  0  0  0  0  0  0  0  0  0  0  0  # atno 10764 bound_to 10752
  154.2873  135.6333  153.5424 H   0  0  0  0  0  0  0  0  0  0  0  0  # atno 10765 bound_to 10752
  140.7898  133.8297  155.9369 H   0  0  0  0  0  0  0  0  0  0  0  0  # atno 11005 bound_to 11000
  146.3234  140.3204  142.8633 LP  0  0  0  0  0  0  0  0  0  0  0  0  # atno 17320 bound_to 7965
  144.9301  140.7966  143.5694 LP  0  0  0  0  0  0  0  0  0  0  0  0  # atno 17321 bound_to 7965
  140.3692  144.2876  150.5922 LP  0  0  0  0  0  0  0  0  0  0  0  0  # atno 17342 bound_to 10162
  140.5334  143.2238  151.8202 LP  0  0  0  0  0  0  0  0  0  0  0  0  # atno 17343 bound_to 10162
  157.2194  131.0479  151.2555 LP  0  0  0  0  0  0  0  0  0  0  0  0  # atno 17370 bound_to 10713
  157.3814  130.7233  149.6633 LP  0  0  0  0  0  0  0  0  0  0  0  0  # atno 17371 bound_to 10713
  140.9400  134.1912  157.4804 LP  0  0  0  0  0  0  0  0  0  0  0  0  # atno 17394 bound_to 11000
  139.8732  134.9868  156.5340 LP  0  0  0  0  0  0  0  0  0  0  0  0  # atno 17395 bound_to 11000

$$$$
