AV-unprocessed.smi:1612|AV-procd|sdf|6477|dock2
  -GOLD-   22720 7133D 1   1.00000     0.00000
 Structure written by MMmdl.
 37 38  0  0  0  0  0  0  0  0  1 V2000
  149.3224  135.2553  156.8303 C   0  0  0  0  0  0  0  0  0  0  0  0
  150.1096  135.3341  155.5035 C   0  0  1  0  0  0  0  0  0  0  0  0
  149.2766  135.0181  154.3378 N   0  0  0  0  0  0  0  0  0  0  0  0
  148.6022  133.8830  154.0872 C   0  0  0  0  0  0  0  0  0  0  0  0
  148.5410  132.9339  154.8685 O   0  0  0  0  0  0  0  0  0  0  0  0
  148.0038  133.9347  152.8839 N   0  0  0  0  0  0  0  0  0  0  0  0
  147.2006  132.9436  152.2585 C   0  0  0  0  0  0  0  0  0  0  0  0
  146.7186  133.2868  150.9749 C   0  0  0  0  0  0  0  0  0  0  0  0
  145.9123  132.3720  150.2702 C   0  0  0  0  0  0  0  0  0  0  0  0
  145.6076  131.1362  150.8680 C   0  0  0  0  0  0  0  0  0  0  0  0
  146.1272  130.8734  152.1487 C   0  0  0  0  0  0  0  0  0  0  0  0
  146.9005  131.7484  152.8256 N   0  0  0  0  0  0  0  0  0  0  0  0
  150.8959  136.6475  155.3096 C   0  0  0  0  0  0  0  0  0  0  0  0
  152.1257  136.6222  155.3732 O   0  0  0  0  0  0  0  0  0  0  0  0
  150.2204  137.7969  155.0882 N   0  0  0  0  0  0  0  0  0  0  0  0
  148.7676  137.9473  154.9951 C   0  0  0  0  0  0  0  0  0  0  0  0
  148.5059  139.4534  154.9683 C   0  0  0  0  0  0  0  0  0  0  0  0
  149.7920  140.0452  154.4104 C   0  0  0  0  0  0  0  0  0  0  0  0
  150.8812  139.0864  154.8911 C   0  0  0  0  0  0  0  0  0  0  0  0
  149.9930  135.3576  157.6840 H   0  0  0  0  0  0  0  0  0  0  0  0
  148.8167  134.2943  156.9289 H   0  0  0  0  0  0  0  0  0  0  0  0
  148.5685  136.0375  156.9196 H   0  0  0  0  0  0  0  0  0  0  0  0
  150.8429  134.5297  155.5600 H   0  0  0  0  0  0  0  0  0  0  0  0
  149.2374  135.7346  153.6277 H   0  0  0  0  0  0  0  0  0  0  0  0
  148.1410  134.7804  152.3507 H   0  0  0  0  0  0  0  0  0  0  0  0
  146.9627  134.2407  150.5302 H   0  0  0  0  0  0  0  0  0  0  0  0
  145.5348  132.6153  149.2881 H   0  0  0  0  0  0  0  0  0  0  0  0
  144.9921  130.4089  150.3592 H   0  0  0  0  0  0  0  0  0  0  0  0
  145.9171  129.9363  152.6427 H   0  0  0  0  0  0  0  0  0  0  0  0
  148.4206  137.4868  154.0692 H   0  0  0  0  0  0  0  0  0  0  0  0
  148.2435  137.4785  155.8281 H   0  0  0  0  0  0  0  0  0  0  0  0
  147.6272  139.7198  154.3804 H   0  0  0  0  0  0  0  0  0  0  0  0
  148.3500  139.8153  155.9855 H   0  0  0  0  0  0  0  0  0  0  0  0
  149.7532  140.0387  153.3203 H   0  0  0  0  0  0  0  0  0  0  0  0
  149.9611  141.0730  154.7325 H   0  0  0  0  0  0  0  0  0  0  0  0
  151.2936  139.4215  155.8440 H   0  0  0  0  0  0  0  0  0  0  0  0
  151.6988  139.0248  154.1710 H   0  0  0  0  0  0  0  0  0  0  0  0
  1  2  1  0  0  0  0
  1 20  1  0  0  0  0
  1 21  1  0  0  0  0
  1 22  1  0  0  0  0
  2  3  1  0  0  0  0
  2 13  1  0  0  0  0
  2 23  1  0  0  0  0
  3  4  1  0  0  0  0
  3 24  1  0  0  0  0
  4  5  2  0  0  0  0
  4  6  1  0  0  0  0
  6  7  1  0  0  0  0
  6 25  1  0  0  0  0
  7 12  1  0  0  0  0
  7  8  2  0  0  0  0
  8  9  1  0  0  0  0
  8 26  1  0  0  0  0
  9 10  2  0  0  0  0
  9 27  1  0  0  0  0
 10 11  1  0  0  0  0
 10 28  1  0  0  0  0
 11 12  2  0  0  0  0
 11 29  1  0  0  0  0
 13 14  2  0  0  0  0
 13 15  1  0  0  0  0
 15 19  1  0  0  0  0
 15 16  1  0  0  0  0
 16 17  1  0  0  0  0
 16 30  1  0  0  0  0
 16 31  1  0  0  0  0
 17 18  1  0  0  0  0
 17 32  1  0  0  0  0
 17 33  1  0  0  0  0
 18 19  1  0  0  0  0
 18 34  1  0  0  0  0
 18 35  1  0  0  0  0
 19 36  1  0  0  0  0
 19 37  1  0  0  0  0
M  END
> <s_m_source_file>
AV-unprocessed.smi

> <i_m_source_file_index>
1612

> <i_lp_mmshare_version>
43012

> <i_f3d_flags>
0

> <s_epik_input>
W0NIMl0xW0NIMl1bQ0gyXVtDSDJdTjFDKD1PKVtDQEhdKFtDSDNdKVtOSF1DKD1PKVtOSF1jMltjSF1bY0hdW2NIXVtjSF1uMg==

> <s_epik_cmdline>
J2VwaWtfcHl0aG9uJywgJy1waCcsICc3LjAnLCAnLXRuJywgJzgnLCAnLW1hJywgJzIwMCcsICctbWV0YWxfYmluZGluZycsICctaW1hZScsICc8aW5maWxlLm1hZT4nLCAnLW9tYWUnLCAnPG91dGZpbGUubWFlPic=

> <r_lp_tautomer_probability>
1

> <r_epik_Ionization_Penalty>
3.95281e-05

> <r_epik_Ionization_Penalty_Charging>
0

> <r_epik_Ionization_Penalty_Neutral>
3.95281e-05

> <r_epik_State_Penalty>
-0

> <r_epik_Charging_Adjusted_Penalty>
0

> <i_epik_Tot_Q>
0

> <i_epik_Tot_abs_Q>
0

> <r_epik_Metal_State_Penalty>
-0

> <b_epik_Metal_Only>
0

> <s_lp_Force_Field>
OPLS_2005

> <r_lp_Energy>
35.1648

> <b_lp_Chiralities_Consistent>
1

> <s_lp_Variant>
AV-unprocessed.smi:1612-2

> <Gold.Version>
5.8.1

> <Gold.Id.Protein>
6NUR|6NUR_protein|mol2

> <Gold.PLP.Fitness>
39.0390

> <Gold.PLP.PLP>
-30.2045

> <Gold.PLP.part.hbond>
-2.7799

> <Gold.PLP.part.metal>
0.0000

> <Gold.PLP.part.buried>
-2.5456

> <Gold.PLP.part.nonpolar>
-24.0999

> <Gold.PLP.part.repulsive>
0.2243

> <Gold.PLP.ligand.clash>
0.0000

> <Gold.PLP.ligand.torsion>
0.1442

> <Gold.PLP.Chemscore.Hbond>
2.9920

> <Gold.PLP.Chemscore.CHOScore>
0.0000

> <Gold.PLP.Chemscore.Metal>
0.0000

> <Gold.Chemscore.Hbonds>
donor molecule, donor type, donor heavy atom, donor atom, acceptor molecule, acceptor atom, score
      L1  H     3    24       P1  7948  0.99
      L1  H     6    25       P1  7948  1.00
      P1  H 10752 10763       L1    14  0.94

> <Gold.PLP.Chemscore.Internal.Correction>
0.1468

> <Gold.Rescore>
     Score         DG    S(hbond)    S(metal)    S(lipo)     H(rot)  DE(clash)    DE(int)     intcor
     16.72     -18.12       2.66        0.00      60.53       1.30       0.00       1.40       ----

> <Gold.Chemscore.Fitness>
16.7200

> <Gold.Chemscore.DG>
-18.1214

> <Gold.Chemscore.ZeroCoef>
-5.4800

> <Gold.Chemscore.Hbond>
2.6621

> <Gold.Chemscore.Metal>
0.0000

> <Gold.Chemscore.Lipo>
60.5312

> <Gold.Chemscore.Internal_Hbond>
0.0000

> <Gold.Chemscore.DEClash>
0.0000

> <Gold.Chemscore.DEInternal>
1.4013

> <Gold.Chemscore.Rot>
1.3016

> <Gold.Chemscore.Internal.Correction>
   9.000000E+99

> <Gold.Chemscore.Hbonds>
donor molecule, donor type, donor heavy atom, donor atom, acceptor molecule, acceptor atom, score
      L1  H     3    24       P1  7948  0.61
      L1  H     6    25       P1  7948  0.44
      P1  H 10752 10763       L1    14  0.85

> <Gold.Chemscore.Hbond.Weighted>
-8.8914

> <Gold.Chemscore.Metal.Weighted>
-0.0000

> <Gold.Chemscore.Lipo.Weighted>
-7.0821

> <Gold.Chemscore.Internal_Hbond.Weighted>
0.0000

> <Gold.Chemscore.DEClash.Weighted>
0.0000

> <Gold.Chemscore.DEInternal.Weighted>
1.4013

> <Gold.Chemscore.Rot.Weighted>
3.3322

> <Gold.Chemscore.Internal.Correction.Weighted>
   9.000000E+99

> <Gold.Protein.RotatedTorsions>
[ 6907 6896 6895 6894 ] final  -35.77 input  -60.11 | X-H torsion
[ 7974 7965 7964 7962 ] final   55.61 input  175.53 | X-H torsion
[ 8008 7997 7996 7995 ] final  144.32 input   59.86 | X-H torsion
[ 10167 10162 10161 10158 ] final -160.76 input  -65.29 | X-H torsion
[ 10718 10713 10712 10709 ] final   42.70 input   66.30 | X-H torsion
[ 10763 10752 10751 10750 ] final   61.54 input  -60.55 | X-H torsion
[ 11005 11000 10999 10996 ] final  101.76 input  -57.11 | X-H torsion

> <Gold.Protein.ActiveResidues>
 VAL166  LYS551  ARG553  GLY616  TRP617  ASP618  TYR619  PRO620  LYS621  CYS622 
 ASP623  PHE694  ASN695  SER759  ASP760  ASP761  ALA762  ILE779  LEU786  VAL792 
 PHE793  MET794  SER795  GLU796  ALA797  LYS798  CYS799  TRP800  GLU811  SER814 

> <Gold.Protein.RotatedAtoms>
  151.0355  134.9570  159.8133 H   0  0  0  0  0  0  0  0  0  0  0  0  # atno 6907 bound_to 6896
  152.5354  134.2725  159.8987 H   0  0  0  0  0  0  0  0  0  0  0  0  # atno 6908 bound_to 6896
  151.2735  133.4201  159.2656 H   0  0  0  0  0  0  0  0  0  0  0  0  # atno 6909 bound_to 6896
  145.9485  139.3951  143.0320 H   0  0  0  0  0  0  0  0  0  0  0  0  # atno 7974 bound_to 7965
  156.2911  140.2239  156.5034 H   0  0  0  0  0  0  0  0  0  0  0  0  # atno 8008 bound_to 7997
  154.7670  140.0469  157.1042 H   0  0  0  0  0  0  0  0  0  0  0  0  # atno 8009 bound_to 7997
  154.9921  140.3091  155.4905 H   0  0  0  0  0  0  0  0  0  0  0  0  # atno 8010 bound_to 7997
  139.6515  144.0075  152.2165 H   0  0  0  0  0  0  0  0  0  0  0  0  # atno 10167 bound_to 10162
  157.4078  130.7896  149.7404 H   0  0  0  0  0  0  0  0  0  0  0  0  # atno 10718 bound_to 10713
  152.9954  135.5497  154.6050 H   0  0  0  0  0  0  0  0  0  0  0  0  # atno 10763 bound_to 10752
  154.5383  135.2818  155.1120 H   0  0  0  0  0  0  0  0  0  0  0  0  # atno 10764 bound_to 10752
  154.2408  135.6416  153.5259 H   0  0  0  0  0  0  0  0  0  0  0  0  # atno 10765 bound_to 10752
  139.8774  134.9196  156.4955 H   0  0  0  0  0  0  0  0  0  0  0  0  # atno 11005 bound_to 11000
  145.8203  140.9682  143.0902 LP  0  0  0  0  0  0  0  0  0  0  0  0  # atno 17320 bound_to 7965
  144.6791  140.0033  143.7484 LP  0  0  0  0  0  0  0  0  0  0  0  0  # atno 17321 bound_to 7965
  139.9790  144.6441  150.7918 LP  0  0  0  0  0  0  0  0  0  0  0  0  # atno 17342 bound_to 10162
  140.7540  143.3019  151.3060 LP  0  0  0  0  0  0  0  0  0  0  0  0  # atno 17343 bound_to 10162
  155.9841  130.3994  150.3327 LP  0  0  0  0  0  0  0  0  0  0  0  0  # atno 17370 bound_to 10713
  157.1461  131.0309  151.2906 LP  0  0  0  0  0  0  0  0  0  0  0  0  # atno 17371 bound_to 10713
  140.8627  133.8047  155.9282 LP  0  0  0  0  0  0  0  0  0  0  0  0  # atno 17394 bound_to 11000
  140.9033  134.2351  157.5029 LP  0  0  0  0  0  0  0  0  0  0  0  0  # atno 17395 bound_to 11000

$$$$
