AV-unprocessed.smi:3|AV-procd|sdf|27|dock4
  -GOLD-   2262015143D 1   1.00000     0.00000
 Structure written by MMmdl.
 33 35  0  0  0  0  0  0  0  0  1 V2000
  150.7379  142.2864  156.8018 C   0  0  0  0  0  0  0  0  0  0  0  0
  151.4499  141.0872  157.2194 N   0  0  0  0  0  0  0  0  0  0  0  0
  151.7259  140.9213  158.6484 C   0  0  0  0  0  0  0  0  0  0  0  0
  152.2923  142.1912  159.2830 C   0  0  1  0  0  0  0  0  0  0  0  0
  151.3728  143.3859  159.5787 C   0  0  0  0  0  0  0  0  0  0  0  0
  152.1949  143.6600  160.8418 C   0  0  1  0  0  0  0  0  0  0  0  0
  151.4925  144.0751  161.9919 O   0  0  0  0  0  0  0  0  0  0  0  0
  152.6316  142.1924  160.7801 C   0  0  0  0  0  0  0  0  0  0  0  0
  151.5942  140.0020  156.3190 C   0  0  0  0  0  0  0  0  0  0  0  0
  152.7399  139.2743  156.3906 N   0  0  0  0  0  0  0  0  0  0  0  0
  152.9402  138.2375  155.5748 C   0  0  0  0  0  0  0  0  0  0  0  0
  152.1389  137.7625  154.6217 N   0  0  0  0  0  0  0  0  0  0  0  0
  150.9909  138.4896  154.5351 C   0  0  0  0  0  0  0  0  0  0  0  0
  149.9503  138.2764  153.6562 N   0  0  0  0  0  0  0  0  0  0  0  0
  148.9547  139.2130  153.8559 C   0  0  0  0  0  0  0  0  0  0  0  0
  149.3316  140.0537  154.8712 C   0  0  0  0  0  0  0  0  0  0  0  0
  150.6304  139.6183  155.3322 C   0  0  0  0  0  0  0  0  0  0  0  0
  153.1704  142.5451  158.7385 H   0  0  0  0  0  0  0  0  0  0  0  0
  153.0272  144.3386  160.6468 H   0  0  0  0  0  0  0  0  0  0  0  0
  149.8999  137.5496  152.9570 H   0  0  0  0  0  0  0  0  0  0  0  0
  151.3079  142.8237  156.0441 H   0  0  0  0  0  0  0  0  0  0  0  0
  150.5898  142.9655  157.6418 H   0  0  0  0  0  0  0  0  0  0  0  0
  149.7538  142.0355  156.4060 H   0  0  0  0  0  0  0  0  0  0  0  0
  150.8451  140.5752  159.1892 H   0  0  0  0  0  0  0  0  0  0  0  0
  152.4485  140.1114  158.7527 H   0  0  0  0  0  0  0  0  0  0  0  0
  151.4083  144.1760  158.8280 H   0  0  0  0  0  0  0  0  0  0  0  0
  150.3455  143.0921  159.8009 H   0  0  0  0  0  0  0  0  0  0  0  0
  150.6115  143.7426  161.9127 H   0  0  0  0  0  0  0  0  0  0  0  0
  151.9877  141.5319  161.3639 H   0  0  0  0  0  0  0  0  0  0  0  0
  153.6852  142.0211  161.0032 H   0  0  0  0  0  0  0  0  0  0  0  0
  153.8762  137.7145  155.7044 H   0  0  0  0  0  0  0  0  0  0  0  0
  148.0556  139.2062  153.2570 H   0  0  0  0  0  0  0  0  0  0  0  0
  148.7541  140.8838  155.2467 H   0  0  0  0  0  0  0  0  0  0  0  0
  1  2  1  0  0  0  0
  1 21  1  0  0  0  0
  1 22  1  0  0  0  0
  1 23  1  0  0  0  0
  2  3  1  0  0  0  0
  2  9  1  0  0  0  0
  3  4  1  0  0  0  0
  3 24  1  0  0  0  0
  3 25  1  0  0  0  0
  4 18  1  0  0  0  0
  4  8  1  0  0  0  0
  4  5  1  0  0  0  0
  5  6  1  0  0  0  0
  5 26  1  0  0  0  0
  5 27  1  0  0  0  0
  6 19  1  0  0  0  0
  6  7  1  0  0  0  0
  6  8  1  0  0  0  0
  7 28  1  0  0  0  0
  8 29  1  0  0  0  0
  8 30  1  0  0  0  0
  9 17  1  0  0  0  0
  9 10  2  0  0  0  0
 10 11  1  0  0  0  0
 11 12  2  0  0  0  0
 11 31  1  0  0  0  0
 12 13  1  0  0  0  0
 13 17  2  0  0  0  0
 13 14  1  0  0  0  0
 14 20  1  0  0  0  0
 14 15  1  0  0  0  0
 15 16  2  0  0  0  0
 15 32  1  0  0  0  0
 16 17  1  0  0  0  0
 16 33  1  0  0  0  0
M  END
> <s_m_source_file>
AV-unprocessed.smi

> <i_m_source_file_index>
3

> <i_lp_mmshare_version>
43012

> <i_f3d_flags>
0

> <s_epik_input>
W25IXTFbY0hdW2NIXWMoYzEyKWMobltjSF1uMilOKFtDSDNdKVtDSDJdW0NASF0zW0NIMl1bQ0BASF0oW09IXSlbQ0gyXTM=

> <s_epik_cmdline>
J2VwaWtfcHl0aG9uJywgJy1waCcsICc3LjAnLCAnLXRuJywgJzgnLCAnLW1hJywgJzIwMCcsICctbWV0YWxfYmluZGluZycsICctaW1hZScsICc8aW5maWxlLm1hZT4nLCAnLW9tYWUnLCAnPG91dGZpbGUubWFlPic=

> <r_lp_tautomer_probability>
0.999998

> <r_epik_Ionization_Penalty>
0.0134605

> <r_epik_Ionization_Penalty_Charging>
0

> <r_epik_Ionization_Penalty_Neutral>
0.0134605

> <r_epik_State_Penalty>
0.00982199

> <r_epik_Charging_Adjusted_Penalty>
0.00982199

> <i_epik_Tot_Q>
0

> <i_epik_Tot_abs_Q>
0

> <r_epik_Metal_State_Penalty>
0.00963912

> <b_epik_Metal_Only>
0

> <s_lp_Force_Field>
OPLS_2005

> <r_lp_Energy>
10.8509

> <b_lp_Chiralities_Consistent>
1

> <s_lp_Variant>
AV-unprocessed.smi:3-1

> <Gold.Version>
5.8.1

> <Gold.Id.Protein>
6NUR|6NUR_protein|mol2

> <Gold.PLP.Fitness>
46.7636

> <Gold.PLP.PLP>
-40.7700

> <Gold.PLP.part.hbond>
-5.8111

> <Gold.PLP.part.metal>
0.0000

> <Gold.PLP.part.buried>
-3.3107

> <Gold.PLP.part.nonpolar>
-32.6720

> <Gold.PLP.part.repulsive>
0.1848

> <Gold.PLP.ligand.clash>
0.0000

> <Gold.PLP.ligand.torsion>
0.9578

> <Gold.PLP.Chemscore.Hbond>
2.3744

> <Gold.PLP.Chemscore.CHOScore>
0.1947

> <Gold.PLP.Chemscore.Metal>
0.0000

> <Gold.Chemscore.Hbonds>
donor molecule, donor type, donor heavy atom, donor atom, acceptor molecule, acceptor atom, score
      L1  H    14    20       P1  7948  1.00
      P1  H  7997  8009       L1    10  0.95
      P1  H 10752 10763       L1    12  0.30
      L1  C    15    32       P1  7957  0.08

> <Gold.PLP.Chemscore.Internal.Correction>
0.2019

> <Gold.Rescore>
     Score         DG    S(hbond)    S(metal)    S(lipo)     H(rot)  DE(clash)    DE(int)     intcor
     15.07     -16.29       1.89        0.00      78.58       1.84       0.09       1.13       ----

> <Gold.Chemscore.Fitness>
15.0748

> <Gold.Chemscore.DG>
-16.2902

> <Gold.Chemscore.ZeroCoef>
-5.4800

> <Gold.Chemscore.Hbond>
1.8941

> <Gold.Chemscore.Metal>
0.0000

> <Gold.Chemscore.Lipo>
78.5769

> <Gold.Chemscore.Internal_Hbond>
0.0000

> <Gold.Chemscore.DEClash>
0.0891

> <Gold.Chemscore.DEInternal>
1.1263

> <Gold.Chemscore.Rot>
1.8396

> <Gold.Chemscore.Internal.Correction>
   9.000000E+99

> <Gold.Chemscore.Hbonds>
donor molecule, donor type, donor heavy atom, donor atom, acceptor molecule, acceptor atom, score
      L1  H    14    20       P1  7948  0.29
      P1  H  7997  8009       L1    10  0.20
      P1  H 10752 10763       L1    12  0.12

> <Gold.Chemscore.Hbond.Weighted>
-6.3262

> <Gold.Chemscore.Metal.Weighted>
-0.0000

> <Gold.Chemscore.Lipo.Weighted>
-9.1935

> <Gold.Chemscore.Internal_Hbond.Weighted>
0.0000

> <Gold.Chemscore.DEClash.Weighted>
0.0891

> <Gold.Chemscore.DEInternal.Weighted>
1.1263

> <Gold.Chemscore.Rot.Weighted>
4.7095

> <Gold.Chemscore.Internal.Correction.Weighted>
   9.000000E+99

> <Gold.Protein.RotatedTorsions>
[ 6907 6896 6895 6894 ] final   88.14 input  -60.11 | X-H torsion
[ 7974 7965 7964 7962 ] final  115.13 input  175.53 | X-H torsion
[ 8008 7997 7996 7995 ] final -149.07 input   59.86 | X-H torsion
[ 10167 10162 10161 10158 ] final -139.82 input  -65.29 | X-H torsion
[ 10718 10713 10712 10709 ] final -162.62 input   66.30 | X-H torsion
[ 10763 10752 10751 10750 ] final   39.61 input  -60.55 | X-H torsion
[ 11005 11000 10999 10996 ] final  147.73 input  -57.11 | X-H torsion

> <Gold.Protein.ActiveResidues>
 VAL166  LYS551  ARG553  GLY616  TRP617  ASP618  TYR619  PRO620  LYS621  CYS622 
 ASP623  PHE694  ASN695  SER759  ASP760  ASP761  ALA762  ILE779  LEU786  VAL792 
 PHE793  MET794  SER795  GLU796  ALA797  LYS798  CYS799  TRP800  GLU811  SER814 

> <Gold.Protein.RotatedAtoms>
  152.5421  134.2167  159.8771 H   0  0  0  0  0  0  0  0  0  0  0  0  # atno 6907 bound_to 6896
  151.2146  133.4529  159.2606 H   0  0  0  0  0  0  0  0  0  0  0  0  # atno 6908 bound_to 6896
  151.0863  134.9902  159.8437 H   0  0  0  0  0  0  0  0  0  0  0  0  # atno 6909 bound_to 6896
  145.1958  139.2977  143.4344 H   0  0  0  0  0  0  0  0  0  0  0  0  # atno 7974 bound_to 7965
  155.6018  140.0663  157.2731 H   0  0  0  0  0  0  0  0  0  0  0  0  # atno 8008 bound_to 7997
  154.4277  140.1817  156.1228 H   0  0  0  0  0  0  0  0  0  0  0  0  # atno 8009 bound_to 7997
  156.0153  140.3322  155.6986 H   0  0  0  0  0  0  0  0  0  0  0  0  # atno 8010 bound_to 7997
  139.8342  143.7406  152.2665 H   0  0  0  0  0  0  0  0  0  0  0  0  # atno 10167 bound_to 10162
  156.6130  130.8858  151.2941 H   0  0  0  0  0  0  0  0  0  0  0  0  # atno 10718 bound_to 10713
  152.9962  135.6215  154.2493 H   0  0  0  0  0  0  0  0  0  0  0  0  # atno 10763 bound_to 10752
  154.2231  135.2795  155.2919 H   0  0  0  0  0  0  0  0  0  0  0  0  # atno 10764 bound_to 10752
  154.5512  135.5733  153.6982 H   0  0  0  0  0  0  0  0  0  0  0  0  # atno 10765 bound_to 10752
  140.0900  134.9046  157.1636 H   0  0  0  0  0  0  0  0  0  0  0  0  # atno 11005 bound_to 11000
  146.3427  140.2186  142.8591 LP  0  0  0  0  0  0  0  0  0  0  0  0  # atno 17320 bound_to 7965
  144.9996  140.8620  143.5290 LP  0  0  0  0  0  0  0  0  0  0  0  0  # atno 17321 bound_to 7965
  139.7623  144.7502  151.0345 LP  0  0  0  0  0  0  0  0  0  0  0  0  # atno 17342 bound_to 10162
  140.7804  143.4737  151.0112 LP  0  0  0  0  0  0  0  0  0  0  0  0  # atno 17343 bound_to 10162
  157.7249  130.9608  150.1592 LP  0  0  0  0  0  0  0  0  0  0  0  0  # atno 17370 bound_to 10713
  156.2374  130.3687  149.8376 LP  0  0  0  0  0  0  0  0  0  0  0  0  # atno 17371 bound_to 10713
  140.3365  134.2751  155.7219 LP  0  0  0  0  0  0  0  0  0  0  0  0  # atno 17394 bound_to 11000
  141.2075  133.7804  157.0116 LP  0  0  0  0  0  0  0  0  0  0  0  0  # atno 17395 bound_to 11000

$$$$
