AV-unprocessed.smi:2124|AV-procd|sdf|8652|dock4
  -GOLD-   2272011403D 1   1.00000     0.00000
 Structure written by MMmdl.
 47 49  0  0  0  0  0  0  0  0  1 V2000
  146.0185  142.1887  155.2403 C   0  0  0  0  0  0  0  0  0  0  0  0
  147.2651  141.3338  155.1574 C   0  0  0  0  0  0  0  0  0  0  0  0
  147.2566  140.0424  155.2037 N   0  0  0  0  0  0  0  0  0  0  0  0
  148.4764  139.3570  155.1181 C   0  0  0  0  0  0  0  0  0  0  0  0
  148.3829  137.8423  155.1757 C   0  0  0  0  0  0  0  0  0  0  0  0
  149.6629  140.0206  154.9922 C   0  0  0  0  0  0  0  0  0  0  0  0
  151.0098  139.3047  154.8965 C   0  0  0  0  0  0  0  0  0  0  0  0
  152.0263  139.6208  155.9968 C   0  0  0  0  0  0  0  0  0  0  0  0
  153.1606  139.1436  155.9591 O   0  0  0  0  0  0  0  0  0  0  0  0
  151.5979  140.4412  156.9688 N   0  0  0  0  0  0  0  0  0  0  0  0
  152.3848  140.9070  158.1099 C   0  0  2  0  0  0  0  0  0  0  0  0
  152.7648  139.6868  158.9647 C   0  0  0  0  0  0  0  0  0  0  0  0
  151.5892  141.9655  158.9146 C   0  0  1  0  0  0  0  0  0  0  0  0
  152.3993  142.5953  160.0749 C   0  0  0  0  0  0  0  0  0  0  0  0
  152.2855  144.1067  159.8096 C   0  0  2  0  0  0  0  0  0  0  0  0
  150.8418  144.5699  160.0754 C   0  0  0  0  0  0  0  0  0  0  0  0
  150.0731  143.9763  158.8806 C   0  0  0  0  0  0  0  0  0  0  0  0
  151.1732  143.2236  158.1076 C   0  0  1  0  0  0  0  0  0  0  0  0
  152.3643  144.1578  158.2898 C   0  0  0  0  0  0  0  0  0  0  0  0
  149.6606  141.4951  154.9345 C   0  0  0  0  0  0  0  0  0  0  0  0
  150.6682  142.1892  154.8085 O   0  0  0  0  0  0  0  0  0  0  0  0
  148.4408  142.0712  155.0252 N   0  0  0  0  0  0  0  0  0  0  0  0
  148.3862  143.0786  154.9905 H   0  0  0  0  0  0  0  0  0  0  0  0
  145.3433  141.9476  154.4191 H   0  0  0  0  0  0  0  0  0  0  0  0
  146.2542  143.2525  155.1880 H   0  0  0  0  0  0  0  0  0  0  0  0
  145.4973  142.0005  156.1791 H   0  0  0  0  0  0  0  0  0  0  0  0
  148.8609  137.4647  156.0799 H   0  0  0  0  0  0  0  0  0  0  0  0
  148.8696  137.3924  154.3104 H   0  0  0  0  0  0  0  0  0  0  0  0
  147.3440  137.5103  155.1823 H   0  0  0  0  0  0  0  0  0  0  0  0
  150.8578  138.2248  154.8654 H   0  0  0  0  0  0  0  0  0  0  0  0
  151.4696  139.5478  153.9386 H   0  0  0  0  0  0  0  0  0  0  0  0
  150.6490  140.7810  156.9089 H   0  0  0  0  0  0  0  0  0  0  0  0
  153.3126  141.3625  157.7603 H   0  0  0  0  0  0  0  0  0  0  0  0
  153.4034  139.9654  159.8027 H   0  0  0  0  0  0  0  0  0  0  0  0
  153.3110  138.9504  158.3738 H   0  0  0  0  0  0  0  0  0  0  0  0
  151.8802  139.1955  159.3715 H   0  0  0  0  0  0  0  0  0  0  0  0
  150.6943  141.4825  159.3111 H   0  0  0  0  0  0  0  0  0  0  0  0
  152.0089  142.3144  161.0538 H   0  0  0  0  0  0  0  0  0  0  0  0
  153.4476  142.2963  160.0411 H   0  0  0  0  0  0  0  0  0  0  0  0
  153.0383  144.6993  160.3302 H   0  0  0  0  0  0  0  0  0  0  0  0
  150.4637  144.2126  161.0340 H   0  0  0  0  0  0  0  0  0  0  0  0
  150.7742  145.6587  160.0718 H   0  0  0  0  0  0  0  0  0  0  0  0
  149.2567  143.3229  159.1904 H   0  0  0  0  0  0  0  0  0  0  0  0
  149.6471  144.7723  158.2685 H   0  0  0  0  0  0  0  0  0  0  0  0
  150.8991  143.0339  157.0700 H   0  0  0  0  0  0  0  0  0  0  0  0
  152.1980  145.1560  157.8808 H   0  0  0  0  0  0  0  0  0  0  0  0
  153.2972  143.7588  157.8885 H   0  0  0  0  0  0  0  0  0  0  0  0
  1  2  1  0  0  0  0
  1 24  1  0  0  0  0
  1 25  1  0  0  0  0
  1 26  1  0  0  0  0
  2 22  1  0  0  0  0
  2  3  2  0  0  0  0
  3  4  1  0  0  0  0
  4  5  1  0  0  0  0
  4  6  2  0  0  0  0
  5 27  1  0  0  0  0
  5 28  1  0  0  0  0
  5 29  1  0  0  0  0
  6  7  1  0  0  0  0
  6 20  1  0  0  0  0
  7  8  1  0  0  0  0
  7 30  1  0  0  0  0
  7 31  1  0  0  0  0
  8  9  2  0  0  0  0
  8 10  1  0  0  0  0
 10 11  1  0  0  0  0
 10 32  1  0  0  0  0
 11 12  1  0  0  0  0
 11 13  1  0  0  0  0
 11 33  1  0  0  0  0
 12 34  1  0  0  0  0
 12 35  1  0  0  0  0
 12 36  1  0  0  0  0
 13 18  1  0  0  0  0
 13 14  1  0  0  0  0
 13 37  1  0  0  0  0
 14 15  1  0  0  0  0
 14 38  1  0  0  0  0
 14 39  1  0  0  0  0
 15 19  1  0  0  0  0
 15 16  1  0  0  0  0
 15 40  1  0  0  0  0
 16 17  1  0  0  0  0
 16 41  1  0  0  0  0
 16 42  1  0  0  0  0
 17 18  1  0  0  0  0
 17 43  1  0  0  0  0
 17 44  1  0  0  0  0
 18 19  1  0  0  0  0
 18 45  1  0  0  0  0
 19 46  1  0  0  0  0
 19 47  1  0  0  0  0
 20 21  2  0  0  0  0
 20 22  1  0  0  0  0
 22 23  1  0  0  0  0
M  END
> <s_m_source_file>
AV-unprocessed.smi

> <i_m_source_file_index>
2124

> <i_lp_mmshare_version>
43012

> <i_f3d_flags>
0

> <s_epik_input>
W0NIM11jMW5jKFtDSDNdKWMoYyg9TylbbkhdMSlbQ0gyXUMoPU8pW05IXVtDQEhdKFtDSDNdKVtDQEhdKFtDSDJdW0NASF0yMylbQ0BIXShbQ0gyXTMpW0NIMl1bQ0gyXTI=

> <s_epik_cmdline>
J2VwaWtfcHl0aG9uJywgJy1waCcsICc3LjAnLCAnLXRuJywgJzgnLCAnLW1hJywgJzIwMCcsICctbWV0YWxfYmluZGluZycsICctaW1hZScsICc8aW5maWxlLm1hZT4nLCAnLW9tYWUnLCAnPG91dGZpbGUubWFlPic=

> <r_lp_tautomer_probability>
0.839158

> <r_epik_Ionization_Penalty>
0.000383628

> <r_epik_Ionization_Penalty_Charging>
0.00035045

> <r_epik_Ionization_Penalty_Neutral>
3.31781e-05

> <r_epik_State_Penalty>
0.09125

> <r_epik_Charging_Adjusted_Penalty>
0.0916005

> <i_epik_Tot_Q>
0

> <i_epik_Tot_abs_Q>
0

> <r_epik_Metal_State_Penalty>
0.255229

> <b_epik_Metal_Only>
0

> <s_lp_Force_Field>
OPLS_2005

> <r_lp_Energy>
52.5512

> <b_lp_Chiralities_Consistent>
1

> <s_lp_Variant>
AV-unprocessed.smi:2124-3

> <Gold.Version>
5.8.1

> <Gold.Id.Protein>
6NUR|6NUR_protein|mol2

> <Gold.PLP.Fitness>
43.3429

> <Gold.PLP.PLP>
-37.1116

> <Gold.PLP.part.hbond>
-3.9394

> <Gold.PLP.part.metal>
0.0000

> <Gold.PLP.part.buried>
-0.4820

> <Gold.PLP.part.nonpolar>
-34.3404

> <Gold.PLP.part.repulsive>
0.4530

> <Gold.PLP.ligand.clash>
0.0000

> <Gold.PLP.ligand.torsion>
0.0499

> <Gold.PLP.Chemscore.Hbond>
2.0983

> <Gold.PLP.Chemscore.CHOScore>
0.0000

> <Gold.PLP.Chemscore.Metal>
0.0000

> <Gold.Chemscore.Hbonds>
donor molecule, donor type, donor heavy atom, donor atom, acceptor molecule, acceptor atom, score
      L1  H    22    23       P1  8028  1.00
      P1  H  7989  7998       L1    21  0.02
      P1  H  7997  8009       L1     9  0.99

> <Gold.PLP.Chemscore.Internal.Correction>
0.0364

> <Gold.Rescore>
     Score         DG    S(hbond)    S(metal)    S(lipo)     H(rot)  DE(clash)    DE(int)     intcor
     16.33     -20.66       1.96        0.00     110.00       1.65       1.83       2.50       ----

> <Gold.Chemscore.Fitness>
16.3274

> <Gold.Chemscore.DG>
-20.6609

> <Gold.Chemscore.ZeroCoef>
-5.4800

> <Gold.Chemscore.Hbond>
1.9591

> <Gold.Chemscore.Metal>
0.0000

> <Gold.Chemscore.Lipo>
110.0016

> <Gold.Chemscore.Internal_Hbond>
0.0000

> <Gold.Chemscore.DEClash>
1.8323

> <Gold.Chemscore.DEInternal>
2.5012

> <Gold.Chemscore.Rot>
1.6534

> <Gold.Chemscore.Internal.Correction>
   9.000000E+99

> <Gold.Chemscore.Hbonds>
donor molecule, donor type, donor heavy atom, donor atom, acceptor molecule, acceptor atom, score
      L1  H    22    23       P1  8028  0.95
      P1  H  7989  7998       L1    21  0.01
      P1  H  7997  8009       L1     9  0.88

> <Gold.Chemscore.Hbond.Weighted>
-6.5434

> <Gold.Chemscore.Metal.Weighted>
-0.0000

> <Gold.Chemscore.Lipo.Weighted>
-12.8702

> <Gold.Chemscore.Internal_Hbond.Weighted>
0.0000

> <Gold.Chemscore.DEClash.Weighted>
1.8323

> <Gold.Chemscore.DEInternal.Weighted>
2.5012

> <Gold.Chemscore.Rot.Weighted>
4.2326

> <Gold.Chemscore.Internal.Correction.Weighted>
   9.000000E+99

> <Gold.Protein.RotatedTorsions>
[ 6907 6896 6895 6894 ] final  -42.15 input  -60.11 | X-H torsion
[ 7974 7965 7964 7962 ] final  146.71 input  175.53 | X-H torsion
[ 8008 7997 7996 7995 ] final -174.76 input   59.86 | X-H torsion
[ 10167 10162 10161 10158 ] final -142.43 input  -65.29 | X-H torsion
[ 10718 10713 10712 10709 ] final -148.77 input   66.30 | X-H torsion
[ 10763 10752 10751 10750 ] final  164.42 input  -60.55 | X-H torsion
[ 11005 11000 10999 10996 ] final   73.60 input  -57.11 | X-H torsion

> <Gold.Protein.ActiveResidues>
 VAL166  LYS551  ARG553  GLY616  TRP617  ASP618  TYR619  PRO620  LYS621  CYS622 
 ASP623  PHE694  ASN695  SER759  ASP760  ASP761  ALA762  ILE779  LEU786  VAL792 
 PHE793  MET794  SER795  GLU796  ALA797  LYS798  CYS799  TRP800  GLU811  SER814 

> <Gold.Protein.RotatedAtoms>
  150.9585  134.8976  159.7715 H   0  0  0  0  0  0  0  0  0  0  0  0  # atno 6907 bound_to 6896
  152.5147  134.3706  159.9327 H   0  0  0  0  0  0  0  0  0  0  0  0  # atno 6908 bound_to 6896
  151.3719  133.3811  159.2735 H   0  0  0  0  0  0  0  0  0  0  0  0  # atno 6909 bound_to 6896
  144.8649  139.5939  143.5913 H   0  0  0  0  0  0  0  0  0  0  0  0  # atno 7974 bound_to 7965
  155.9742  140.1169  157.0785 H   0  0  0  0  0  0  0  0  0  0  0  0  # atno 8008 bound_to 7997
  154.4164  140.1157  156.5415 H   0  0  0  0  0  0  0  0  0  0  0  0  # atno 8009 bound_to 7997
  155.6557  140.3473  155.4766 H   0  0  0  0  0  0  0  0  0  0  0  0  # atno 8010 bound_to 7997
  139.8090  143.7729  152.2662 H   0  0  0  0  0  0  0  0  0  0  0  0  # atno 10167 bound_to 10162
  156.4245  130.8045  151.2270 H   0  0  0  0  0  0  0  0  0  0  0  0  # atno 10718 bound_to 10713
  154.3087  135.2757  155.2576 H   0  0  0  0  0  0  0  0  0  0  0  0  # atno 10763 bound_to 10752
  154.4981  135.5815  153.6513 H   0  0  0  0  0  0  0  0  0  0  0  0  # atno 10764 bound_to 10752
  152.9891  135.6151  154.3263 H   0  0  0  0  0  0  0  0  0  0  0  0  # atno 10765 bound_to 10752
  139.9432  134.7360  156.1045 H   0  0  0  0  0  0  0  0  0  0  0  0  # atno 11005 bound_to 11000
  146.2888  139.7081  142.9176 LP  0  0  0  0  0  0  0  0  0  0  0  0  # atno 17320 bound_to 7965
  145.4240  141.0409  143.2948 LP  0  0  0  0  0  0  0  0  0  0  0  0  # atno 17321 bound_to 7965
  139.7872  144.7423  151.0005 LP  0  0  0  0  0  0  0  0  0  0  0  0  # atno 17342 bound_to 10162
  140.7818  143.4480  151.0455 LP  0  0  0  0  0  0  0  0  0  0  0  0  # atno 17343 bound_to 10162
  157.7508  131.0217  150.3763 LP  0  0  0  0  0  0  0  0  0  0  0  0  # atno 17370 bound_to 10713
  156.4087  130.3930  149.6907 LP  0  0  0  0  0  0  0  0  0  0  0  0  # atno 17371 bound_to 10713
  141.1074  133.6655  156.2896 LP  0  0  0  0  0  0  0  0  0  0  0  0  # atno 17394 bound_to 11000
  140.5899  134.5661  157.5497 LP  0  0  0  0  0  0  0  0  0  0  0  0  # atno 17395 bound_to 11000

$$$$
