AV-unprocessed.smi:1438|AV-procd|sdf|5868|dock6
  -GOLD-   22720 5543D 1   1.00000     0.00000
 Structure written by MMmdl.
 43 44  0  0  0  0  0  0  0  0  1 V2000
  149.9388  138.2093  154.0896 C   0  0  0  0  0  0  0  0  0  0  0  0
  150.8596  139.3054  154.6495 C   0  0  1  0  0  0  0  0  0  0  0  0
  150.1325  140.1949  155.6659 C   0  0  0  0  0  0  0  0  0  0  0  0
  149.1190  139.7913  156.2367 O   0  0  0  0  0  0  0  0  0  0  0  0
  150.6716  141.4026  155.8945 N   0  0  0  0  0  0  0  0  0  0  0  0
  150.2007  142.3483  156.8980 C   0  0  0  0  0  0  0  0  0  0  0  0
  151.3024  142.7411  157.8643 C   0  0  0  0  0  0  0  0  0  0  0  0
  151.6074  144.0958  158.0965 C   0  0  0  0  0  0  0  0  0  0  0  0
  152.6164  144.4015  159.0277 C   0  0  0  0  0  0  0  0  0  0  0  0
  153.3080  143.4608  159.7043 N   0  0  0  0  0  0  0  0  0  0  0  0
  153.0270  142.1520  159.4843 C   0  0  0  0  0  0  0  0  0  0  0  0
  153.7659  141.1794  160.1931 N   0  0  0  0  0  0  0  0  0  0  0  0
  153.7411  141.3098  161.6484 C   0  0  0  0  0  0  0  0  0  0  0  0
  154.7968  140.3923  162.2894 C   0  0  0  0  0  0  0  0  0  0  0  0
  154.6024  139.0519  161.8512 O   0  0  0  0  0  0  0  0  0  0  0  0
  154.7461  138.9310  160.4401 C   0  0  0  0  0  0  0  0  0  0  0  0
  153.6841  139.7928  159.7365 C   0  0  0  0  0  0  0  0  0  0  0  0
  152.0186  141.7548  158.5733 C   0  0  0  0  0  0  0  0  0  0  0  0
  152.3507  138.5365  155.4408 S   0  0  0  0  0  0  0  0  0  0  0  0
  152.2056  139.0554  157.2037 C   0  0  0  0  0  0  0  0  0  0  0  0
  152.2212  137.0721  155.3852 O   0  0  0  0  0  0  0  0  0  0  0  0
  153.5468  139.1753  154.8708 O   0  0  0  0  0  0  0  0  0  0  0  0
  149.0447  138.6368  153.6343 H   0  0  0  0  0  0  0  0  0  0  0  0
  149.6200  137.5158  154.8688 H   0  0  0  0  0  0  0  0  0  0  0  0
  150.4508  137.6280  153.3226 H   0  0  0  0  0  0  0  0  0  0  0  0
  151.2166  139.9184  153.8212 H   0  0  0  0  0  0  0  0  0  0  0  0
  151.4986  141.6628  155.3772 H   0  0  0  0  0  0  0  0  0  0  0  0
  149.8396  143.2414  156.3877 H   0  0  0  0  0  0  0  0  0  0  0  0
  149.3474  141.9422  157.4440 H   0  0  0  0  0  0  0  0  0  0  0  0
  151.0748  144.8835  157.5838 H   0  0  0  0  0  0  0  0  0  0  0  0
  152.8745  145.4292  159.2361 H   0  0  0  0  0  0  0  0  0  0  0  0
  153.9261  142.3349  161.9656 H   0  0  0  0  0  0  0  0  0  0  0  0
  152.7469  141.0412  162.0084 H   0  0  0  0  0  0  0  0  0  0  0  0
  155.8050  140.7264  162.0393 H   0  0  0  0  0  0  0  0  0  0  0  0
  154.7116  140.4257  163.3757 H   0  0  0  0  0  0  0  0  0  0  0  0
  155.7516  139.2288  160.1386 H   0  0  0  0  0  0  0  0  0  0  0  0
  154.6262  137.8845  160.1594 H   0  0  0  0  0  0  0  0  0  0  0  0
  152.6876  139.4012  159.9471 H   0  0  0  0  0  0  0  0  0  0  0  0
  153.8346  139.7411  158.6572 H   0  0  0  0  0  0  0  0  0  0  0  0
  151.7805  140.7122  158.4233 H   0  0  0  0  0  0  0  0  0  0  0  0
  153.0944  138.7346  157.7463 H   0  0  0  0  0  0  0  0  0  0  0  0
  151.3293  138.5930  157.6575 H   0  0  0  0  0  0  0  0  0  0  0  0
  152.1196  140.1401  157.2621 H   0  0  0  0  0  0  0  0  0  0  0  0
  1  2  1  0  0  0  0
  1 23  1  0  0  0  0
  1 24  1  0  0  0  0
  1 25  1  0  0  0  0
  2  3  1  0  0  0  0
  2 19  1  0  0  0  0
  2 26  1  0  0  0  0
  3  4  2  0  0  0  0
  3  5  1  0  0  0  0
  5  6  1  0  0  0  0
  5 27  1  0  0  0  0
  6  7  1  0  0  0  0
  6 28  1  0  0  0  0
  6 29  1  0  0  0  0
  7 18  1  0  0  0  0
  7  8  2  0  0  0  0
  8  9  1  0  0  0  0
  8 30  1  0  0  0  0
  9 10  2  0  0  0  0
  9 31  1  0  0  0  0
 10 11  1  0  0  0  0
 11 12  1  0  0  0  0
 11 18  2  0  0  0  0
 12 17  1  0  0  0  0
 12 13  1  0  0  0  0
 13 14  1  0  0  0  0
 13 32  1  0  0  0  0
 13 33  1  0  0  0  0
 14 15  1  0  0  0  0
 14 34  1  0  0  0  0
 14 35  1  0  0  0  0
 15 16  1  0  0  0  0
 16 17  1  0  0  0  0
 16 36  1  0  0  0  0
 16 37  1  0  0  0  0
 17 38  1  0  0  0  0
 17 39  1  0  0  0  0
 18 40  1  0  0  0  0
 19 20  1  0  0  0  0
 19 21  2  0  0  0  0
 19 22  2  0  0  0  0
 20 41  1  0  0  0  0
 20 42  1  0  0  0  0
 20 43  1  0  0  0  0
M  END
> <s_m_source_file>
AV-unprocessed.smi

> <i_m_source_file_index>
1438

> <i_lp_mmshare_version>
43012

> <i_f3d_flags>
0

> <s_epik_input>
W0NIM11TKD1PKSg9TylbQ0BIXShbQ0gzXSlDKD1PKVtOSF1bQ0gyXWMxW2NIXVtjSF1uYyhbY0hdMSlOMltDSDJdW0NIMl1PW0NIMl1bQ0gyXTI=

> <s_epik_cmdline>
J2VwaWtfcHl0aG9uJywgJy1waCcsICc3LjAnLCAnLXRuJywgJzgnLCAnLW1hJywgJzIwMCcsICctbWV0YWxfYmluZGluZycsICctaW1hZScsICc8aW5maWxlLm1hZT4nLCAnLW9tYWUnLCAnPG91dGZpbGUubWFlPic=

> <r_lp_tautomer_probability>
1

> <r_epik_Ionization_Penalty>
0.00387635

> <r_epik_Ionization_Penalty_Charging>
0

> <r_epik_Ionization_Penalty_Neutral>
0.00387635

> <r_epik_State_Penalty>
0.0027681

> <r_epik_Charging_Adjusted_Penalty>
0.0027681

> <i_epik_Tot_Q>
0

> <i_epik_Tot_abs_Q>
0

> <r_epik_Metal_State_Penalty>
-0

> <b_epik_Metal_Only>
0

> <s_lp_Force_Field>
OPLS_2005

> <r_lp_Energy>
13.2689

> <b_lp_Chiralities_Consistent>
1

> <s_lp_Variant>
AV-unprocessed.smi:1438-2

> <Gold.Version>
5.8.1

> <Gold.Id.Protein>
6NUR|6NUR_protein|mol2

> <Gold.PLP.Fitness>
44.3579

> <Gold.PLP.PLP>
-40.2200

> <Gold.PLP.part.hbond>
-2.0000

> <Gold.PLP.part.metal>
0.0000

> <Gold.PLP.part.buried>
-2.2237

> <Gold.PLP.part.nonpolar>
-36.1917

> <Gold.PLP.part.repulsive>
0.1840

> <Gold.PLP.ligand.clash>
0.0000

> <Gold.PLP.ligand.torsion>
0.8923

> <Gold.PLP.Chemscore.Hbond>
1.8160

> <Gold.PLP.Chemscore.CHOScore>
0.0000

> <Gold.PLP.Chemscore.Metal>
0.0000

> <Gold.Chemscore.Hbonds>
donor molecule, donor type, donor heavy atom, donor atom, acceptor molecule, acceptor atom, score
      P1  H  7997  8009       L1    22  1.00
      P1  H 10752 10764       L1    21  0.86

> <Gold.PLP.Chemscore.Internal.Correction>
0.4746

> <Gold.Rescore>
     Score         DG    S(hbond)    S(metal)    S(lipo)     H(rot)  DE(clash)    DE(int)     intcor
     16.80     -18.39       1.93        0.00     100.57       2.08       0.40       1.19       ----

> <Gold.Chemscore.Fitness>
16.7970

> <Gold.Chemscore.DG>
-18.3865

> <Gold.Chemscore.ZeroCoef>
-5.4800

> <Gold.Chemscore.Hbond>
1.9326

> <Gold.Chemscore.Metal>
0.0000

> <Gold.Chemscore.Lipo>
100.5732

> <Gold.Chemscore.Internal_Hbond>
0.0000

> <Gold.Chemscore.DEClash>
0.4016

> <Gold.Chemscore.DEInternal>
1.1880

> <Gold.Chemscore.Rot>
2.0764

> <Gold.Chemscore.Internal.Correction>
   9.000000E+99

> <Gold.Chemscore.Hbonds>
donor molecule, donor type, donor heavy atom, donor atom, acceptor molecule, acceptor atom, score
      P1  H  7997  8009       L1    22  0.84
      P1  H 10752 10764       L1    21  0.85

> <Gold.Chemscore.Hbond.Weighted>
-6.4549

> <Gold.Chemscore.Metal.Weighted>
-0.0000

> <Gold.Chemscore.Lipo.Weighted>
-11.7671

> <Gold.Chemscore.Internal_Hbond.Weighted>
0.0000

> <Gold.Chemscore.DEClash.Weighted>
0.4016

> <Gold.Chemscore.DEInternal.Weighted>
1.1880

> <Gold.Chemscore.Rot.Weighted>
5.3155

> <Gold.Chemscore.Internal.Correction.Weighted>
   9.000000E+99

> <Gold.Protein.RotatedTorsions>
[ 6907 6896 6895 6894 ] final  117.82 input  -60.11 | X-H torsion
[ 7974 7965 7964 7962 ] final  -76.04 input  175.53 | X-H torsion
[ 8008 7997 7996 7995 ] final -142.74 input   59.86 | X-H torsion
[ 10167 10162 10161 10158 ] final  103.18 input  -65.29 | X-H torsion
[ 10718 10713 10712 10709 ] final   39.76 input   66.30 | X-H torsion
[ 10763 10752 10751 10750 ] final  -48.59 input  -60.55 | X-H torsion
[ 11005 11000 10999 10996 ] final -165.63 input  -57.11 | X-H torsion

> <Gold.Protein.ActiveResidues>
 VAL166  LYS551  ARG553  GLY616  TRP617  ASP618  TYR619  PRO620  LYS621  CYS622 
 ASP623  PHE694  ASN695  SER759  ASP760  ASP761  ALA762  ILE779  LEU786  VAL792 
 PHE793  MET794  SER795  GLU796  ALA797  LYS798  CYS799  TRP800  GLU811  SER814 

> <Gold.Protein.RotatedAtoms>
  152.4586  133.7774  159.6831 H   0  0  0  0  0  0  0  0  0  0  0  0  # atno 6907 bound_to 6896
  150.8521  133.7761  159.3028 H   0  0  0  0  0  0  0  0  0  0  0  0  # atno 6908 bound_to 6896
  151.5353  135.1071  159.9965 H   0  0  0  0  0  0  0  0  0  0  0  0  # atno 6909 bound_to 6896
  145.6181  140.9370  143.1153 H   0  0  0  0  0  0  0  0  0  0  0  0  # atno 7974 bound_to 7965
  155.4992  140.0574  157.2941 H   0  0  0  0  0  0  0  0  0  0  0  0  # atno 8008 bound_to 7997
  154.4593  140.1988  156.0239 H   0  0  0  0  0  0  0  0  0  0  0  0  # atno 8009 bound_to 7997
  156.0860  140.3240  155.7758 H   0  0  0  0  0  0  0  0  0  0  0  0  # atno 8010 bound_to 7997
  139.7285  144.7041  151.0759 H   0  0  0  0  0  0  0  0  0  0  0  0  # atno 10167 bound_to 10162
  157.3743  130.7718  149.7143 H   0  0  0  0  0  0  0  0  0  0  0  0  # atno 10718 bound_to 10713
  154.0802  135.6592  153.4837 H   0  0  0  0  0  0  0  0  0  0  0  0  # atno 10763 bound_to 10752
  153.0358  135.5178  154.7481 H   0  0  0  0  0  0  0  0  0  0  0  0  # atno 10764 bound_to 10752
  154.6574  135.3010  154.9878 H   0  0  0  0  0  0  0  0  0  0  0  0  # atno 10765 bound_to 10752
  140.5735  134.5213  157.5166 H   0  0  0  0  0  0  0  0  0  0  0  0  # atno 11005 bound_to 11000
  144.7242  139.7930  143.7371 LP  0  0  0  0  0  0  0  0  0  0  0  0  # atno 17320 bound_to 7965
  146.1452  139.4519  143.0083 LP  0  0  0  0  0  0  0  0  0  0  0  0  # atno 17321 bound_to 7965
  140.7767  143.5074  150.9695 LP  0  0  0  0  0  0  0  0  0  0  0  0  # atno 17342 bound_to 10162
  139.8761  143.7130  152.3162 LP  0  0  0  0  0  0  0  0  0  0  0  0  # atno 17343 bound_to 10162
  155.9762  130.4079  150.3796 LP  0  0  0  0  0  0  0  0  0  0  0  0  # atno 17370 bound_to 10713
  157.1891  131.0411  151.2709 LP  0  0  0  0  0  0  0  0  0  0  0  0  # atno 17371 bound_to 10713
  139.9350  134.7892  156.0826 LP  0  0  0  0  0  0  0  0  0  0  0  0  # atno 17394 bound_to 11000
  141.1041  133.6666  156.2823 LP  0  0  0  0  0  0  0  0  0  0  0  0  # atno 17395 bound_to 11000

$$$$
