AV-unprocessed.smi:109|AV-procd|sdf|1048|dock3
  -GOLD-   2262018 93D 1   1.00000     0.00000
 Structure written by MMmdl.
 58 61  0  0  0  0  0  0  0  0  1 V2000
  142.5586  145.1292  161.5634 O   0  0  0  0  0  0  0  0  0  0  0  0
  142.7456  145.5214  160.2207 C   0  0  0  0  0  0  0  0  0  0  0  0
  144.0718  144.9522  159.6866 C   0  0  0  0  0  0  0  0  0  0  0  0
  144.4872  145.5059  158.3011 C   0  0  1  0  0  0  0  0  0  0  0  0
  143.6604  144.8874  157.2619 N   0  0  0  0  0  0  0  0  0  0  0  0
  144.1532  144.5796  156.0413 C   0  0  0  0  0  0  0  0  0  0  0  0
  143.7854  145.2712  154.9313 N   0  0  0  0  0  0  0  0  0  0  0  0
  144.2964  144.9475  153.7396 C   0  0  0  0  0  0  0  0  0  0  0  0
  145.1745  143.9872  153.4410 N   0  0  0  0  0  0  0  0  0  0  0  0
  145.5452  143.2899  154.5538 C   0  0  0  0  0  0  0  0  0  0  0  0
  145.0833  143.5212  155.8785 C   0  0  0  0  0  0  0  0  0  0  0  0
  145.6855  142.6231  156.7497 N   0  0  0  0  0  0  0  0  0  0  0  0
  146.4640  141.9105  155.9798 C   0  0  0  0  0  0  0  0  0  0  0  0
  146.4412  142.2472  154.6428 N   0  0  0  0  0  0  0  0  0  0  0  0
  147.2101  141.6537  153.5006 C   0  0  2  0  0  0  0  0  0  0  0  0
  146.8406  140.3110  153.4038 O   0  0  0  0  0  0  0  0  0  0  0  0
  147.9481  139.4567  153.6784 C   0  0  2  0  0  0  0  0  0  0  0  0
  147.4752  138.2337  154.4814 C   0  0  0  0  0  0  0  0  0  0  0  0
  148.4910  137.2560  154.5444 O   0  0  0  0  0  0  0  0  0  0  0  0
  148.9789  140.3404  154.3909 C   0  0  1  0  0  0  0  0  0  0  0  0
  150.2948  139.9054  154.1127 O   0  0  0  0  0  0  0  0  0  0  0  0
  148.7287  141.6986  153.7576 C   0  0  2  0  0  0  0  0  0  0  0  0
  149.1458  142.7421  154.6206 O   0  0  0  0  0  0  0  0  0  0  0  0
  144.3849  147.0541  158.1888 C   0  0  0  0  0  0  0  0  0  0  0  0
  144.7872  147.5331  156.7703 C   0  0  0  0  0  0  0  0  0  0  0  0
  144.7042  149.0599  156.6170 C   0  0  0  0  0  0  0  0  0  0  0  0
  145.5693  149.7689  157.6655 C   0  0  0  0  0  0  0  0  0  0  0  0
  145.1683  149.3309  159.0789 C   0  0  0  0  0  0  0  0  0  0  0  0
  145.2451  147.8034  159.2375 C   0  0  0  0  0  0  0  0  0  0  0  0
  146.8914  142.2198  152.6246 H   0  0  0  0  0  0  0  0  0  0  0  0
  148.3340  139.1418  152.7066 H   0  0  0  0  0  0  0  0  0  0  0  0
  148.7929  140.3663  155.4659 H   0  0  0  0  0  0  0  0  0  0  0  0
  149.2289  141.7792  152.7911 H   0  0  0  0  0  0  0  0  0  0  0  0
  142.5844  144.1856  161.6083 H   0  0  0  0  0  0  0  0  0  0  0  0
  141.9057  145.1603  159.6268 H   0  0  0  0  0  0  0  0  0  0  0  0
  142.7347  146.6104  160.1753 H   0  0  0  0  0  0  0  0  0  0  0  0
  144.8686  145.1326  160.4098 H   0  0  0  0  0  0  0  0  0  0  0  0
  143.9475  143.8721  159.6281 H   0  0  0  0  0  0  0  0  0  0  0  0
  145.5382  145.2572  158.1572 H   0  0  0  0  0  0  0  0  0  0  0  0
  142.7472  144.5816  157.5660 H   0  0  0  0  0  0  0  0  0  0  0  0
  143.9537  145.5448  152.9073 H   0  0  0  0  0  0  0  0  0  0  0  0
  147.0816  141.1185  156.3745 H   0  0  0  0  0  0  0  0  0  0  0  0
  147.1743  138.5125  155.4910 H   0  0  0  0  0  0  0  0  0  0  0  0
  146.6065  137.7849  153.9993 H   0  0  0  0  0  0  0  0  0  0  0  0
  148.6331  136.9131  153.6752 H   0  0  0  0  0  0  0  0  0  0  0  0
  150.4454  139.0970  154.5784 H   0  0  0  0  0  0  0  0  0  0  0  0
  148.5189  143.4471  154.5624 H   0  0  0  0  0  0  0  0  0  0  0  0
  143.3439  147.3361  158.3564 H   0  0  0  0  0  0  0  0  0  0  0  0
  145.8031  147.2031  156.5483 H   0  0  0  0  0  0  0  0  0  0  0  0
  144.1485  147.0778  156.0132 H   0  0  0  0  0  0  0  0  0  0  0  0
  145.0236  149.3497  155.6156 H   0  0  0  0  0  0  0  0  0  0  0  0
  143.6669  149.3821  156.7169 H   0  0  0  0  0  0  0  0  0  0  0  0
  146.6213  149.5377  157.4930 H   0  0  0  0  0  0  0  0  0  0  0  0
  145.4679  150.8500  157.5659 H   0  0  0  0  0  0  0  0  0  0  0  0
  145.8147  149.8126  159.8133 H   0  0  0  0  0  0  0  0  0  0  0  0
  144.1537  149.6695  159.2924 H   0  0  0  0  0  0  0  0  0  0  0  0
  144.9181  147.5652  160.2483 H   0  0  0  0  0  0  0  0  0  0  0  0
  146.2841  147.4803  159.1607 H   0  0  0  0  0  0  0  0  0  0  0  0
  1  2  1  0  0  0  0
  1 34  1  0  0  0  0
  2  3  1  0  0  0  0
  2 35  1  0  0  0  0
  2 36  1  0  0  0  0
  3  4  1  0  0  0  0
  3 37  1  0  0  0  0
  3 38  1  0  0  0  0
  4  5  1  0  0  0  0
  4 24  1  0  0  0  0
  4 39  1  0  0  0  0
  5  6  1  0  0  0  0
  5 40  1  0  0  0  0
  6 11  1  0  0  0  0
  6  7  2  0  0  0  0
  7  8  1  0  0  0  0
  8  9  2  0  0  0  0
  8 41  1  0  0  0  0
  9 10  1  0  0  0  0
 10 14  1  0  0  0  0
 10 11  2  0  0  0  0
 11 12  1  0  0  0  0
 12 13  2  0  0  0  0
 13 14  1  0  0  0  0
 13 42  1  0  0  0  0
 14 15  1  0  0  0  0
 15 30  1  0  0  0  0
 15 22  1  0  0  0  0
 15 16  1  0  0  0  0
 16 17  1  0  0  0  0
 17 31  1  0  0  0  0
 17 18  1  0  0  0  0
 17 20  1  0  0  0  0
 18 19  1  0  0  0  0
 18 43  1  0  0  0  0
 18 44  1  0  0  0  0
 19 45  1  0  0  0  0
 20 32  1  0  0  0  0
 20 21  1  0  0  0  0
 20 22  1  0  0  0  0
 21 46  1  0  0  0  0
 22 33  1  0  0  0  0
 22 23  1  0  0  0  0
 23 47  1  0  0  0  0
 24 29  1  0  0  0  0
 24 25  1  0  0  0  0
 24 48  1  0  0  0  0
 25 26  1  0  0  0  0
 25 49  1  0  0  0  0
 25 50  1  0  0  0  0
 26 27  1  0  0  0  0
 26 51  1  0  0  0  0
 26 52  1  0  0  0  0
 27 28  1  0  0  0  0
 27 53  1  0  0  0  0
 27 54  1  0  0  0  0
 28 29  1  0  0  0  0
 28 55  1  0  0  0  0
 28 56  1  0  0  0  0
 29 57  1  0  0  0  0
 29 58  1  0  0  0  0
M  END
> <s_m_source_file>
AV-unprocessed.smi

> <i_m_source_file_index>
109

> <i_lp_mmshare_version>
43012

> <i_f3d_flags>
0

> <s_epik_input>
W0NIMl0xW0NIMl1bQ0gyXVtDSDJdW0NIMl1bQ0hdMVtDQEhdKFtDSDJdW0NIMl1bT0hdKVtOSF1jKG5bY0hdbjIpYyhjMjMpbltjSF1uM1tDQEBIXTRPW0NASF0oW0NIMl1bT0hdKVtDQEBIXShbT0hdKVtDQEhdNFtPSF0=

> <s_epik_cmdline>
J2VwaWtfcHl0aG9uJywgJy1waCcsICc3LjAnLCAnLXRuJywgJzgnLCAnLW1hJywgJzIwMCcsICctbWV0YWxfYmluZGluZycsICctaW1hZScsICc8aW5maWxlLm1hZT4nLCAnLW9tYWUnLCAnPG91dGZpbGUubWFlPic=

> <r_lp_tautomer_probability>
1

> <r_epik_Ionization_Penalty>
0.000793976

> <r_epik_Ionization_Penalty_Charging>
0

> <r_epik_Ionization_Penalty_Neutral>
0.000793976

> <r_epik_State_Penalty>
-0

> <r_epik_Charging_Adjusted_Penalty>
0

> <i_epik_Tot_Q>
0

> <i_epik_Tot_abs_Q>
0

> <r_epik_Metal_State_Penalty>
-0

> <b_epik_Metal_Only>
0

> <s_epik_Chemistry_Notes>
This compound contains an acetal/aminal-like group ( X-CH(R)-Y where X, Y are N, S, or O) that may be acid/base labile, releasing an aldehyde.

> <s_lp_Force_Field>
OPLS_2005

> <r_lp_Energy>
53.2153

> <b_lp_Chiralities_Consistent>
1

> <s_lp_Variant>
AV-unprocessed.smi:109-18

> <Gold.Version>
5.8.1

> <Gold.Id.Protein>
6NUR|6NUR_protein|mol2

> <Gold.PLP.Fitness>
52.9447

> <Gold.PLP.PLP>
-47.9940

> <Gold.PLP.part.hbond>
-5.2979

> <Gold.PLP.part.metal>
0.0000

> <Gold.PLP.part.buried>
-4.4666

> <Gold.PLP.part.nonpolar>
-37.2827

> <Gold.PLP.part.repulsive>
0.5556

> <Gold.PLP.ligand.clash>
0.0000

> <Gold.PLP.ligand.torsion>
1.2318

> <Gold.PLP.Chemscore.Hbond>
2.4160

> <Gold.PLP.Chemscore.CHOScore>
0.0000

> <Gold.PLP.Chemscore.Metal>
0.0000

> <Gold.Chemscore.Hbonds>
donor molecule, donor type, donor heavy atom, donor atom, acceptor molecule, acceptor atom, score
      L1  H    19    45       P1  7948  1.00
      L1  H    23    47       P1  8028  0.27
      P1  H  7989  7998       L1    21  1.00

> <Gold.PLP.Chemscore.Internal.Correction>
0.1663

> <Gold.Rescore>
     Score         DG    S(hbond)    S(metal)    S(lipo)     H(rot)  DE(clash)    DE(int)     intcor
      7.00      -9.34       2.35        0.00      85.46       5.47       1.14       1.19       ----

> <Gold.Chemscore.Fitness>
7.0036

> <Gold.Chemscore.DG>
-9.3356

> <Gold.Chemscore.ZeroCoef>
-5.4800

> <Gold.Chemscore.Hbond>
2.3504

> <Gold.Chemscore.Metal>
0.0000

> <Gold.Chemscore.Lipo>
85.4591

> <Gold.Chemscore.Internal_Hbond>
0.0000

> <Gold.Chemscore.DEClash>
1.1373

> <Gold.Chemscore.DEInternal>
1.1947

> <Gold.Chemscore.Rot>
5.4662

> <Gold.Chemscore.Internal.Correction>
   9.000000E+99

> <Gold.Chemscore.Hbonds>
donor molecule, donor type, donor heavy atom, donor atom, acceptor molecule, acceptor atom, score
      L1  H    19    45       P1  7948  0.99
      L1  H    23    47       P1  8028  0.28
      P1  H  7989  7998       L1    21  0.96

> <Gold.Chemscore.Hbond.Weighted>
-7.8504

> <Gold.Chemscore.Metal.Weighted>
-0.0000

> <Gold.Chemscore.Lipo.Weighted>
-9.9987

> <Gold.Chemscore.Internal_Hbond.Weighted>
0.0000

> <Gold.Chemscore.DEClash.Weighted>
1.1373

> <Gold.Chemscore.DEInternal.Weighted>
1.1947

> <Gold.Chemscore.Rot.Weighted>
13.9935

> <Gold.Chemscore.Internal.Correction.Weighted>
   9.000000E+99

> <Gold.Protein.RotatedTorsions>
[ 6907 6896 6895 6894 ] final  165.49 input  -60.11 | X-H torsion
[ 7974 7965 7964 7962 ] final   23.54 input  175.53 | X-H torsion
[ 8008 7997 7996 7995 ] final -132.94 input   59.86 | X-H torsion
[ 10167 10162 10161 10158 ] final    4.39 input  -65.29 | X-H torsion
[ 10718 10713 10712 10709 ] final  101.42 input   66.30 | X-H torsion
[ 10763 10752 10751 10750 ] final   57.42 input  -60.55 | X-H torsion
[ 11005 11000 10999 10996 ] final  -26.06 input  -57.11 | X-H torsion

> <Gold.Protein.ActiveResidues>
 VAL166  LYS551  ARG553  GLY616  TRP617  ASP618  TYR619  PRO620  LYS621  CYS622 
 ASP623  PHE694  ASN695  SER759  ASP760  ASP761  ALA762  ILE779  LEU786  VAL792 
 PHE793  MET794  SER795  GLU796  ALA797  LYS798  CYS799  TRP800  GLU811  SER814 

> <Gold.Protein.RotatedAtoms>
  151.8937  133.3522  159.3806 H   0  0  0  0  0  0  0  0  0  0  0  0  # atno 6907 bound_to 6896
  150.7097  134.4898  159.5520 H   0  0  0  0  0  0  0  0  0  0  0  0  # atno 6908 bound_to 6896
  152.2473  134.8168  160.0502 H   0  0  0  0  0  0  0  0  0  0  0  0  # atno 6909 bound_to 6896
  146.1980  139.7731  142.8783 H   0  0  0  0  0  0  0  0  0  0  0  0  # atno 7974 bound_to 7965
  155.3372  140.0470  157.3044 H   0  0  0  0  0  0  0  0  0  0  0  0  # atno 8008 bound_to 7997
  154.5296  140.2252  155.8793 H   0  0  0  0  0  0  0  0  0  0  0  0  # atno 8009 bound_to 7997
  156.1775  140.3081  155.9093 H   0  0  0  0  0  0  0  0  0  0  0  0  # atno 8010 bound_to 7997
  140.6537  143.7481  150.7617 H   0  0  0  0  0  0  0  0  0  0  0  0  # atno 10167 bound_to 10162
  157.6830  131.0725  150.5249 H   0  0  0  0  0  0  0  0  0  0  0  0  # atno 10718 bound_to 10713
  152.9850  135.5642  154.5388 H   0  0  0  0  0  0  0  0  0  0  0  0  # atno 10763 bound_to 10752
  154.4846  135.2790  155.1546 H   0  0  0  0  0  0  0  0  0  0  0  0  # atno 10764 bound_to 10752
  154.3040  135.6301  153.5490 H   0  0  0  0  0  0  0  0  0  0  0  0  # atno 10765 bound_to 10752
  140.8995  133.7534  156.0525 H   0  0  0  0  0  0  0  0  0  0  0  0  # atno 11005 bound_to 11000
  145.3581  141.0320  143.3300 LP  0  0  0  0  0  0  0  0  0  0  0  0  # atno 17320 bound_to 7965
  144.8620  139.5163  143.6807 LP  0  0  0  0  0  0  0  0  0  0  0  0  # atno 17321 bound_to 7965
  140.1137  143.4676  152.2355 LP  0  0  0  0  0  0  0  0  0  0  0  0  # atno 17342 bound_to 10162
  139.5756  144.7485  151.3774 LP  0  0  0  0  0  0  0  0  0  0  0  0  # atno 17343 bound_to 10162
  156.5561  130.4244  149.6085 LP  0  0  0  0  0  0  0  0  0  0  0  0  # atno 17370 bound_to 10713
  156.2861  130.7098  151.1935 LP  0  0  0  0  0  0  0  0  0  0  0  0  # atno 17371 bound_to 10713
  140.8248  134.3247  157.5369 LP  0  0  0  0  0  0  0  0  0  0  0  0  # atno 17394 bound_to 11000
  139.8740  134.9330  156.3568 LP  0  0  0  0  0  0  0  0  0  0  0  0  # atno 17395 bound_to 11000

$$$$
