AV-unprocessed.smi:1490|AV-procd|sdf|6030|dock2
  -GOLD-   22720 6133D 1   1.00000     0.00000
 Structure written by MMmdl.
 38 39  0  0  0  0  0  0  0  0  2 V2000
  150.8891  137.2650  154.7076 C   0  0  0  0  0  0  0  0  0  0  0  0
  152.2402  137.6421  154.9032 O   0  0  0  0  0  0  0  0  0  0  0  0
  152.3880  139.0283  155.1643 C   0  0  0  0  0  0  0  0  0  0  0  0
  151.8024  139.3546  156.5454 C   0  0  0  0  0  0  0  0  0  0  0  0
  151.2299  140.7073  156.6005 N   0  0  0  0  0  0  0  0  0  0  0  0
  150.3012  141.3069  155.8042 C   0  0  0  0  0  0  0  0  0  0  0  0
  149.4940  140.5786  154.4146 S   0  0  0  0  0  0  0  0  0  0  0  0
  148.1438  141.7096  153.9767 C   0  0  0  0  0  0  0  0  0  0  0  0
  146.9611  141.6256  154.9394 C   0  0  0  0  0  0  0  0  0  0  0  0
  146.0510  140.8254  154.7278 O   0  0  0  0  0  0  0  0  0  0  0  0
  146.9856  142.4433  156.0019 N   0  0  0  0  0  0  0  0  0  0  0  0
  145.9544  142.4866  157.0284 C   0  0  0  0  0  0  0  0  0  0  0  0
  146.5140  142.4675  158.3892 C   0  0  0  0  0  0  0  0  0  0  0  0
  146.9530  142.4519  159.4595 N   0  0  0  0  0  0  0  0  0  0  0  0
  150.1019  142.5674  156.2798 N   0  3  0  0  0  0  0  0  0  0  0  0
  150.9093  142.7759  157.3998 C   0  0  0  0  0  0  0  0  0  0  0  0
  151.0559  143.8878  158.2233 C   0  0  0  0  0  0  0  0  0  0  0  0
  151.9671  143.7692  159.2938 C   0  0  0  0  0  0  0  0  0  0  0  0
  152.2006  145.1077  160.3568 Cl  0  0  0  0  0  0  0  0  0  0  0  0
  152.6889  142.5772  159.5120 C   0  0  0  0  0  0  0  0  0  0  0  0
  152.5333  141.4557  158.6707 C   0  0  0  0  0  0  0  0  0  0  0  0
  151.6331  141.5837  157.6136 C   0  0  0  0  0  0  0  0  0  0  0  0
  150.8335  136.1956  154.5042 H   0  0  0  0  0  0  0  0  0  0  0  0
  150.4507  137.7922  153.8594 H   0  0  0  0  0  0  0  0  0  0  0  0
  150.2904  137.4700  155.5961 H   0  0  0  0  0  0  0  0  0  0  0  0
  153.4436  139.3024  155.1300 H   0  0  0  0  0  0  0  0  0  0  0  0
  151.8743  139.6121  154.3989 H   0  0  0  0  0  0  0  0  0  0  0  0
  151.0382  138.6309  156.8295 H   0  0  0  0  0  0  0  0  0  0  0  0
  152.5819  139.2923  157.3050 H   0  0  0  0  0  0  0  0  0  0  0  0
  148.5296  142.7297  153.9678 H   0  0  0  0  0  0  0  0  0  0  0  0
  147.8011  141.4862  152.9659 H   0  0  0  0  0  0  0  0  0  0  0  0
  147.7683  143.0724  156.1073 H   0  0  0  0  0  0  0  0  0  0  0  0
  145.3746  143.4024  156.9133 H   0  0  0  0  0  0  0  0  0  0  0  0
  145.2643  141.6485  156.9205 H   0  0  0  0  0  0  0  0  0  0  0  0
  150.5018  144.8002  158.0583 H   0  0  0  0  0  0  0  0  0  0  0  0
  153.3773  142.5202  160.3428 H   0  0  0  0  0  0  0  0  0  0  0  0
  153.0903  140.5479  158.8496 H   0  0  0  0  0  0  0  0  0  0  0  0
  149.4572  143.2315  155.8707 H   0  0  0  0  0  0  0  0  0  0  0  0
  1  2  1  0  0  0  0
  1 23  1  0  0  0  0
  1 24  1  0  0  0  0
  1 25  1  0  0  0  0
  2  3  1  0  0  0  0
  3  4  1  0  0  0  0
  3 26  1  0  0  0  0
  3 27  1  0  0  0  0
  4  5  1  0  0  0  0
  4 28  1  0  0  0  0
  4 29  1  0  0  0  0
  5 22  1  0  0  0  0
  5  6  1  0  0  0  0
  6  7  1  0  0  0  0
  6 15  2  0  0  0  0
  7  8  1  0  0  0  0
  8  9  1  0  0  0  0
  8 30  1  0  0  0  0
  8 31  1  0  0  0  0
  9 10  2  0  0  0  0
  9 11  1  0  0  0  0
 11 12  1  0  0  0  0
 11 32  1  0  0  0  0
 12 13  1  0  0  0  0
 12 33  1  0  0  0  0
 12 34  1  0  0  0  0
 13 14  3  0  0  0  0
 15 16  1  0  0  0  0
 15 38  1  0  0  0  0
 16 22  2  0  0  0  0
 16 17  1  0  0  0  0
 17 18  2  0  0  0  0
 17 35  1  0  0  0  0
 18 19  1  0  0  0  0
 18 20  1  0  0  0  0
 20 21  2  0  0  0  0
 20 36  1  0  0  0  0
 21 22  1  0  0  0  0
 21 37  1  0  0  0  0
M  CHG  1  15   1
M  END
> <s_m_source_file>
AV-unprocessed.smi

> <i_m_source_file_index>
1490

> <i_lp_mmshare_version>
43012

> <i_f3d_flags>
0

> <s_epik_input>
W2NIXTFjKENsKVtjSF1bY0hdYyhjMTIpbihbQ0gyXVtDSDJdT1tDSDNdKWMobjIpU1tDSDJdQyg9TylbTkhdW0NIMl1DI04=

> <s_epik_cmdline>
J2VwaWtfcHl0aG9uJywgJy1waCcsICc3LjAnLCAnLXRuJywgJzgnLCAnLW1hJywgJzIwMCcsICctbWV0YWxfYmluZGluZycsICctaW1hZScsICc8aW5maWxlLm1hZT4nLCAnLW9tYWUnLCAnPG91dGZpbGUubWFlPic=

> <r_epik_Ionization_Penalty>
2.45232

> <r_epik_Ionization_Penalty_Charging>
2.45231

> <r_epik_Ionization_Penalty_Neutral>
6.97855e-06

> <r_epik_State_Penalty>
2.61389

> <r_epik_Charging_Adjusted_Penalty>
5.0662

> <i_epik_Tot_Q>
1

> <i_epik_Tot_abs_Q>
1

> <r_epik_Metal_State_Penalty>
2.62983

> <b_epik_Metal_Only>
0

> <s_lp_Force_Field>
OPLS_2005

> <r_lp_Energy>
5.53111

> <b_lp_Chiralities_Consistent>
1

> <s_lp_Variant>
AV-unprocessed.smi:1490-2

> <Gold.Version>
5.8.1

> <Gold.Id.Protein>
6NUR|6NUR_protein|mol2

> <Gold.PLP.Fitness>
57.6835

> <Gold.PLP.PLP>
-46.9239

> <Gold.PLP.part.hbond>
-4.3253

> <Gold.PLP.part.metal>
0.0000

> <Gold.PLP.part.buried>
-4.8934

> <Gold.PLP.part.nonpolar>
-38.3136

> <Gold.PLP.part.repulsive>
0.3556

> <Gold.PLP.ligand.clash>
0.0000

> <Gold.PLP.ligand.torsion>
0.8909

> <Gold.PLP.Chemscore.Hbond>
4.1603

> <Gold.PLP.Chemscore.CHOScore>
0.0000

> <Gold.PLP.Chemscore.Metal>
0.0000

> <Gold.Chemscore.Hbonds>
donor molecule, donor type, donor heavy atom, donor atom, acceptor molecule, acceptor atom, score
      L1  H    11    32       P1  8028  1.00
      L1  H    15    38       P1  8028  2.00
      P1  H  6934  6946       L1    14  0.85
      P1  H 10752 10765       L1     2  0.31

> <Gold.PLP.Chemscore.Internal.Correction>
0.0604

> <Gold.Rescore>
     Score         DG    S(hbond)    S(metal)    S(lipo)     H(rot)  DE(clash)    DE(int)     intcor
     16.27     -17.36       2.01        0.00     106.34       2.84       0.08       1.01       ----

> <Gold.Chemscore.Fitness>
16.2657

> <Gold.Chemscore.DG>
-17.3556

> <Gold.Chemscore.ZeroCoef>
-5.4800

> <Gold.Chemscore.Hbond>
2.0057

> <Gold.Chemscore.Metal>
0.0000

> <Gold.Chemscore.Lipo>
106.3371

> <Gold.Chemscore.Internal_Hbond>
0.0000

> <Gold.Chemscore.DEClash>
0.0835

> <Gold.Chemscore.DEInternal>
1.0064

> <Gold.Chemscore.Rot>
2.8378

> <Gold.Chemscore.Internal.Correction>
   9.000000E+99

> <Gold.Chemscore.Hbonds>
donor molecule, donor type, donor heavy atom, donor atom, acceptor molecule, acceptor atom, score
      L1  H    11    32       P1  8028  0.24
      L1  H    15    38       P1  8028  0.96
      P1  H  6933  6944       L1    14  0.01
      P1  H  6934  6946       L1    14  0.80
      P1  H 10752 10765       L1     2  0.03

> <Gold.Chemscore.Hbond.Weighted>
-6.6990

> <Gold.Chemscore.Metal.Weighted>
-0.0000

> <Gold.Chemscore.Lipo.Weighted>
-12.4414

> <Gold.Chemscore.Internal_Hbond.Weighted>
0.0000

> <Gold.Chemscore.DEClash.Weighted>
0.0835

> <Gold.Chemscore.DEInternal.Weighted>
1.0064

> <Gold.Chemscore.Rot.Weighted>
7.2649

> <Gold.Chemscore.Internal.Correction.Weighted>
   9.000000E+99

> <Gold.Protein.RotatedTorsions>
[ 6907 6896 6895 6894 ] final -179.28 input  -60.11 | X-H torsion
[ 7974 7965 7964 7962 ] final   32.27 input  175.53 | X-H torsion
[ 8008 7997 7996 7995 ] final   45.77 input   59.86 | X-H torsion
[ 10167 10162 10161 10158 ] final  119.14 input  -65.29 | X-H torsion
[ 10718 10713 10712 10709 ] final -141.55 input   66.30 | X-H torsion
[ 10763 10752 10751 10750 ] final  171.16 input  -60.55 | X-H torsion
[ 11005 11000 10999 10996 ] final  -39.01 input  -57.11 | X-H torsion

> <Gold.Protein.ActiveResidues>
 VAL166  LYS551  ARG553  GLY616  TRP617  ASP618  TYR619  PRO620  LYS621  CYS622 
 ASP623  PHE694  ASN695  SER759  ASP760  ASP761  ALA762  ILE779  LEU786  VAL792 
 PHE793  MET794  SER795  GLU796  ALA797  LYS798  CYS799  TRP800  GLU811  SER814 

> <Gold.Protein.RotatedAtoms>
  151.6509  133.3321  159.3151 H   0  0  0  0  0  0  0  0  0  0  0  0  # atno 6907 bound_to 6896
  150.7961  134.7025  159.6567 H   0  0  0  0  0  0  0  0  0  0  0  0  # atno 6908 bound_to 6896
  152.4048  134.6230  160.0107 H   0  0  0  0  0  0  0  0  0  0  0  0  # atno 6909 bound_to 6896
  146.1497  139.6548  142.9107 H   0  0  0  0  0  0  0  0  0  0  0  0  # atno 7974 bound_to 7965
  155.3414  140.3408  155.4239 H   0  0  0  0  0  0  0  0  0  0  0  0  # atno 8008 bound_to 7997
  156.1811  140.1664  156.8308 H   0  0  0  0  0  0  0  0  0  0  0  0  # atno 8009 bound_to 7997
  154.5335  140.0740  156.8369 H   0  0  0  0  0  0  0  0  0  0  0  0  # atno 8010 bound_to 7997
  139.6066  144.7071  151.2940 H   0  0  0  0  0  0  0  0  0  0  0  0  # atno 10167 bound_to 10162
  156.3353  130.7608  151.1734 H   0  0  0  0  0  0  0  0  0  0  0  0  # atno 10718 bound_to 10713
  154.4079  135.2756  155.2055 H   0  0  0  0  0  0  0  0  0  0  0  0  # atno 10763 bound_to 10752
  154.4054  135.6035  153.5925 H   0  0  0  0  0  0  0  0  0  0  0  0  # atno 10764 bound_to 10752
  152.9831  135.5936  154.4356 H   0  0  0  0  0  0  0  0  0  0  0  0  # atno 10765 bound_to 10752
  141.0070  133.6926  156.2130 H   0  0  0  0  0  0  0  0  0  0  0  0  # atno 11005 bound_to 11000
  145.4852  141.0438  143.2623 LP  0  0  0  0  0  0  0  0  0  0  0  0  # atno 17320 bound_to 7965
  144.7889  139.6369  143.7122 LP  0  0  0  0  0  0  0  0  0  0  0  0  # atno 17321 bound_to 7965
  140.7289  143.6923  150.7912 LP  0  0  0  0  0  0  0  0  0  0  0  0  # atno 17342 bound_to 10162
  140.0510  143.5250  152.2674 LP  0  0  0  0  0  0  0  0  0  0  0  0  # atno 17343 bound_to 10162
  157.7437  131.0470  150.4920 LP  0  0  0  0  0  0  0  0  0  0  0  0  # atno 17370 bound_to 10713
  156.5092  130.4135  149.6310 LP  0  0  0  0  0  0  0  0  0  0  0  0  # atno 17371 bound_to 10713
  140.6796  134.4781  157.5589 LP  0  0  0  0  0  0  0  0  0  0  0  0  # atno 17394 bound_to 11000
  139.9069  134.8430  156.1673 LP  0  0  0  0  0  0  0  0  0  0  0  0  # atno 17395 bound_to 11000

$$$$
