AV-unprocessed.smi:1576|AV-procd|sdf|6345|dock5
  -GOLD-   22720 6563D 1   1.00000     0.00000
 Structure written by MMmdl.
 46 48  0  0  0  0  0  0  0  0  2 V2000
  150.4847  135.2899  156.0897 O   0  0  0  0  0  0  0  0  0  0  0  0
  149.9758  135.6424  155.0260 C   0  0  0  0  0  0  0  0  0  0  0  0
  149.8617  136.9132  154.6029 N   0  0  0  0  0  0  0  0  0  0  0  0
  150.2505  138.1059  155.2708 C   0  0  0  0  0  0  0  0  0  0  0  0
  149.9527  139.4100  154.8060 C   0  0  0  0  0  0  0  0  0  0  0  0
  150.4004  140.5295  155.5374 C   0  0  0  0  0  0  0  0  0  0  0  0
  151.1498  140.3472  156.7273 C   0  0  0  0  0  0  0  0  0  0  0  0
  151.6432  141.4085  157.5202 N   0  0  0  0  0  0  0  0  0  0  0  0
  152.0341  141.0667  158.8921 C   0  0  0  0  0  0  0  0  0  0  0  0
  152.9269  142.1545  159.5126 C   0  0  0  0  0  0  0  0  0  0  0  0
  152.2681  143.5365  159.4095 C   0  0  0  0  0  0  0  0  0  0  0  0
  151.9245  143.8396  157.9452 C   0  0  0  0  0  0  0  0  0  0  0  0
  151.0448  142.7330  157.3384 C   0  0  0  0  0  0  0  0  0  0  0  0
  151.4196  139.0778  157.1185 N   0  3  0  0  0  0  0  0  0  0  0  0
  151.0122  137.9784  156.4493 C   0  0  0  0  0  0  0  0  0  0  0  0
  149.4755  134.7836  154.1266 N   0  0  0  0  0  0  0  0  0  0  0  0
  149.4552  133.3315  154.2769 C   0  0  2  0  0  0  0  0  0  0  0  0
  148.5075  132.6800  153.2529 C   0  0  0  0  0  0  0  0  0  0  0  0
  148.2504  131.2288  153.6765 C   0  0  0  0  0  0  0  0  0  0  0  0
  148.3324  131.2127  155.5075 S   0  0  0  0  0  0  0  0  0  0  0  0
  146.9706  131.1720  156.0611 O   0  0  0  0  0  0  0  0  0  0  0  0
  149.3517  130.2410  155.9309 O   0  0  0  0  0  0  0  0  0  0  0  0
  148.9962  132.9117  155.6827 C   0  0  0  0  0  0  0  0  0  0  0  0
  149.4976  137.0384  153.6696 H   0  0  0  0  0  0  0  0  0  0  0  0
  149.3994  139.5785  153.8953 H   0  0  0  0  0  0  0  0  0  0  0  0
  150.1506  141.5124  155.1680 H   0  0  0  0  0  0  0  0  0  0  0  0
  151.1296  140.9436  159.4892 H   0  0  0  0  0  0  0  0  0  0  0  0
  152.5699  140.1189  158.9355 H   0  0  0  0  0  0  0  0  0  0  0  0
  153.1332  141.9157  160.5562 H   0  0  0  0  0  0  0  0  0  0  0  0
  153.8911  142.1706  159.0025 H   0  0  0  0  0  0  0  0  0  0  0  0
  151.3620  143.5620  160.0160 H   0  0  0  0  0  0  0  0  0  0  0  0
  152.9343  144.3028  159.8069 H   0  0  0  0  0  0  0  0  0  0  0  0
  151.4168  144.8016  157.8708 H   0  0  0  0  0  0  0  0  0  0  0  0
  152.8453  143.9311  157.3674 H   0  0  0  0  0  0  0  0  0  0  0  0
  150.9134  142.9467  156.2774 H   0  0  0  0  0  0  0  0  0  0  0  0
  150.0563  142.7443  157.7992 H   0  0  0  0  0  0  0  0  0  0  0  0
  151.3047  137.0323  156.8821 H   0  0  0  0  0  0  0  0  0  0  0  0
  149.0814  135.1579  153.2757 H   0  0  0  0  0  0  0  0  0  0  0  0
  150.4562  132.9314  154.1033 H   0  0  0  0  0  0  0  0  0  0  0  0
  147.5566  133.2148  153.2519 H   0  0  0  0  0  0  0  0  0  0  0  0
  148.9049  132.7356  152.2389 H   0  0  0  0  0  0  0  0  0  0  0  0
  147.2863  130.8494  153.3378 H   0  0  0  0  0  0  0  0  0  0  0  0
  149.0349  130.5720  153.2999 H   0  0  0  0  0  0  0  0  0  0  0  0
  149.8026  132.9255  156.4163 H   0  0  0  0  0  0  0  0  0  0  0  0
  148.1871  133.5479  156.0429 H   0  0  0  0  0  0  0  0  0  0  0  0
  151.9669  138.9444  157.9691 H   0  0  0  0  0  0  0  0  0  0  0  0
  1  2  2  0  0  0  0
  2  3  1  0  0  0  0
  2 16  1  0  0  0  0
  3  4  1  0  0  0  0
  3 24  1  0  0  0  0
  4 15  1  0  0  0  0
  4  5  2  0  0  0  0
  5  6  1  0  0  0  0
  5 25  1  0  0  0  0
  6  7  2  0  0  0  0
  6 26  1  0  0  0  0
  7  8  1  0  0  0  0
  7 14  1  0  0  0  0
  8 13  1  0  0  0  0
  8  9  1  0  0  0  0
  9 10  1  0  0  0  0
  9 27  1  0  0  0  0
  9 28  1  0  0  0  0
 10 11  1  0  0  0  0
 10 29  1  0  0  0  0
 10 30  1  0  0  0  0
 11 12  1  0  0  0  0
 11 31  1  0  0  0  0
 11 32  1  0  0  0  0
 12 13  1  0  0  0  0
 12 33  1  0  0  0  0
 12 34  1  0  0  0  0
 13 35  1  0  0  0  0
 13 36  1  0  0  0  0
 14 15  2  0  0  0  0
 14 46  1  0  0  0  0
 15 37  1  0  0  0  0
 16 17  1  0  0  0  0
 16 38  1  0  0  0  0
 17 23  1  0  0  0  0
 17 18  1  0  0  0  0
 17 39  1  0  0  0  0
 18 19  1  0  0  0  0
 18 40  1  0  0  0  0
 18 41  1  0  0  0  0
 19 20  1  0  0  0  0
 19 42  1  0  0  0  0
 19 43  1  0  0  0  0
 20 21  2  0  0  0  0
 20 22  2  0  0  0  0
 20 23  1  0  0  0  0
 23 44  1  0  0  0  0
 23 45  1  0  0  0  0
M  CHG  1  14   1
M  END
> <s_m_source_file>
AV-unprocessed.smi

> <i_m_source_file_index>
1576

> <i_lp_mmshare_version>
43012

> <i_f3d_flags>
0

> <s_epik_input>
Tz1TMSg9TylbQ0gyXVtDSDJdW0NASF0oW0NIMl0xKVtOSF1DKD1PKVtOSF1jMltjSF1bY0hdYyhuW2NIXTIpTjNbQ0gyXVtDSDJdW0NIMl1bQ0gyXVtDSDJdMw==

> <s_epik_cmdline>
J2VwaWtfcHl0aG9uJywgJy1waCcsICc3LjAnLCAnLXRuJywgJzgnLCAnLW1hJywgJzIwMCcsICctbWV0YWxfYmluZGluZycsICctaW1hZScsICc8aW5maWxlLm1hZT4nLCAnLW9tYWUnLCAnPG91dGZpbGUubWFlPic=

> <r_lp_tautomer_probability>
0.999994

> <r_epik_Ionization_Penalty>
1.19724

> <r_epik_Ionization_Penalty_Charging>
1.19722

> <r_epik_Ionization_Penalty_Neutral>
2.11505e-05

> <r_epik_State_Penalty>
1.26251

> <r_epik_Charging_Adjusted_Penalty>
2.45973

> <i_epik_Tot_Q>
1

> <i_epik_Tot_abs_Q>
1

> <r_epik_Metal_State_Penalty>
1.33857

> <b_epik_Metal_Only>
0

> <s_lp_Force_Field>
OPLS_2005

> <r_lp_Energy>
26.9885

> <b_lp_Chiralities_Consistent>
1

> <s_lp_Variant>
AV-unprocessed.smi:1576-3

> <Gold.Version>
5.8.1

> <Gold.Id.Protein>
6NUR|6NUR_protein|mol2

> <Gold.PLP.Fitness>
41.7094

> <Gold.PLP.PLP>
-37.3429

> <Gold.PLP.part.hbond>
-2.1940

> <Gold.PLP.part.metal>
0.0000

> <Gold.PLP.part.buried>
-4.0982

> <Gold.PLP.part.nonpolar>
-33.0486

> <Gold.PLP.part.repulsive>
0.2138

> <Gold.PLP.ligand.clash>
0.5543

> <Gold.PLP.ligand.torsion>
0.6901

> <Gold.PLP.Chemscore.Hbond>
1.9260

> <Gold.PLP.Chemscore.CHOScore>
0.0000

> <Gold.PLP.Chemscore.Metal>
0.0000

> <Gold.Chemscore.Hbonds>
donor molecule, donor type, donor heavy atom, donor atom, acceptor molecule, acceptor atom, score
      L1  H     3    24       P1  7948  0.98
      L1  H    16    38       P1  7948  1.00

> <Gold.PLP.Chemscore.Internal.Correction>
0.5229

> <Gold.Rescore>
     Score         DG    S(hbond)    S(metal)    S(lipo)     H(rot)  DE(clash)    DE(int)     intcor
     15.61     -18.86       1.65        0.00      94.51       1.25       0.03       3.22       ----

> <Gold.Chemscore.Fitness>
15.6077

> <Gold.Chemscore.DG>
-18.8585

> <Gold.Chemscore.ZeroCoef>
-5.4800

> <Gold.Chemscore.Hbond>
1.6509

> <Gold.Chemscore.Metal>
0.0000

> <Gold.Chemscore.Lipo>
94.5104

> <Gold.Chemscore.Internal_Hbond>
0.0000

> <Gold.Chemscore.DEClash>
0.0314

> <Gold.Chemscore.DEInternal>
3.2194

> <Gold.Chemscore.Rot>
1.2473

> <Gold.Chemscore.Internal.Correction>
   9.000000E+99

> <Gold.Chemscore.Hbonds>
donor molecule, donor type, donor heavy atom, donor atom, acceptor molecule, acceptor atom, score
      L1  H     3    24       P1  7948  0.79
      L1  H    16    38       P1  7948  0.25

> <Gold.Chemscore.Hbond.Weighted>
-5.5139

> <Gold.Chemscore.Metal.Weighted>
-0.0000

> <Gold.Chemscore.Lipo.Weighted>
-11.0577

> <Gold.Chemscore.Internal_Hbond.Weighted>
0.0000

> <Gold.Chemscore.DEClash.Weighted>
0.0314

> <Gold.Chemscore.DEInternal.Weighted>
3.2194

> <Gold.Chemscore.Rot.Weighted>
3.1931

> <Gold.Chemscore.Internal.Correction.Weighted>
   9.000000E+99

> <Gold.Protein.RotatedTorsions>
[ 6907 6896 6895 6894 ] final    0.04 input  -60.11 | X-H torsion
[ 7974 7965 7964 7962 ] final -155.95 input  175.53 | X-H torsion
[ 8008 7997 7996 7995 ] final  114.17 input   59.86 | X-H torsion
[ 10167 10162 10161 10158 ] final   41.48 input  -65.29 | X-H torsion
[ 10718 10713 10712 10709 ] final  163.31 input   66.30 | X-H torsion
[ 10763 10752 10751 10750 ] final   65.25 input  -60.55 | X-H torsion
[ 11005 11000 10999 10996 ] final  104.50 input  -57.11 | X-H torsion

> <Gold.Protein.ActiveResidues>
 VAL166  LYS551  ARG553  GLY616  TRP617  ASP618  TYR619  PRO620  LYS621  CYS622 
 ASP623  PHE694  ASN695  SER759  ASP760  ASP761  ALA762  ILE779  LEU786  VAL792 
 PHE793  MET794  SER795  GLU796  ALA797  LYS798  CYS799  TRP800  GLU811  SER814 

> <Gold.Protein.RotatedAtoms>
  151.5699  135.1063  159.9992 H   0  0  0  0  0  0  0  0  0  0  0  0  # atno 6907 bound_to 6896
  152.4406  133.7436  159.6665 H   0  0  0  0  0  0  0  0  0  0  0  0  # atno 6908 bound_to 6896
  150.8310  133.8021  159.3122 H   0  0  0  0  0  0  0  0  0  0  0  0  # atno 6909 bound_to 6896
  144.7616  140.4178  143.5972 H   0  0  0  0  0  0  0  0  0  0  0  0  # atno 7974 bound_to 7965
  156.2304  140.2964  156.0175 H   0  0  0  0  0  0  0  0  0  0  0  0  # atno 8008 bound_to 7997
  155.2239  140.0416  157.2969 H   0  0  0  0  0  0  0  0  0  0  0  0  # atno 8009 bound_to 7997
  154.5987  140.2421  155.7830 H   0  0  0  0  0  0  0  0  0  0  0  0  # atno 8010 bound_to 7997
  140.3639  144.2192  150.6136 H   0  0  0  0  0  0  0  0  0  0  0  0  # atno 10167 bound_to 10162
  157.1103  131.0466  151.2460 H   0  0  0  0  0  0  0  0  0  0  0  0  # atno 10718 bound_to 10713
  153.0089  135.5363  154.6638 H   0  0  0  0  0  0  0  0  0  0  0  0  # atno 10763 bound_to 10752
  154.5840  135.2852  155.0706 H   0  0  0  0  0  0  0  0  0  0  0  0  # atno 10764 bound_to 10752
  154.1824  135.6514  153.5090 H   0  0  0  0  0  0  0  0  0  0  0  0  # atno 10765 bound_to 10752
  139.8792  134.9302  156.5371 H   0  0  0  0  0  0  0  0  0  0  0  0  # atno 11005 bound_to 11000
  145.6602  139.1580  143.2812 LP  0  0  0  0  0  0  0  0  0  0  0  0  # atno 17320 bound_to 7965
  146.1684  140.6683  142.9245 LP  0  0  0  0  0  0  0  0  0  0  0  0  # atno 17321 bound_to 7965
  140.5100  143.2293  151.8550 LP  0  0  0  0  0  0  0  0  0  0  0  0  # atno 17342 bound_to 10162
  139.4811  144.4961  151.9122 LP  0  0  0  0  0  0  0  0  0  0  0  0  # atno 17343 bound_to 10162
  157.4565  130.7628  149.7198 LP  0  0  0  0  0  0  0  0  0  0  0  0  # atno 17370 bound_to 10713
  155.9852  130.3985  150.3273 LP  0  0  0  0  0  0  0  0  0  0  0  0  # atno 17371 bound_to 10713
  140.8338  133.8258  155.9009 LP  0  0  0  0  0  0  0  0  0  0  0  0  # atno 17394 bound_to 11000
  140.9303  134.2030  157.4868 LP  0  0  0  0  0  0  0  0  0  0  0  0  # atno 17395 bound_to 11000

$$$$
