AV-unprocessed.smi:3032|AV-procd|sdf|11562|dock2
  -GOLD-   2272016523D 1   1.00000     0.00000
 Structure written by MMmdl.
 37 38  0  0  0  0  0  0  0  0  1 V2000
  153.3682  141.5841  160.7073 C   0  0  0  0  0  0  0  0  0  0  0  0
  152.3716  142.3774  159.8504 C   0  0  1  0  0  0  0  0  0  0  0  0
  152.9042  143.7858  159.5249 C   0  0  0  0  0  0  0  0  0  0  0  0
  151.9118  144.5773  158.6587 C   0  0  0  0  0  0  0  0  0  0  0  0
  151.5675  143.8153  157.3695 C   0  0  0  0  0  0  0  0  0  0  0  0
  151.0187  142.4078  157.6824 C   0  0  1  0  0  0  0  0  0  0  0  0
  150.7065  141.6357  156.3942 C   0  0  0  0  0  0  0  0  0  0  0  0
  151.3049  140.5901  156.1388 O   0  0  0  0  0  0  0  0  0  0  0  0
  149.7470  142.1477  155.6065 N   0  0  0  0  0  0  0  0  0  0  0  0
  149.2179  141.5188  154.3979 C   0  0  0  0  0  0  0  0  0  0  0  0
  147.8643  140.8222  154.6433 C   0  0  0  0  0  0  0  0  0  0  0  0
  147.4820  139.8479  153.5739 C   0  0  0  0  0  0  0  0  0  0  0  0
  147.7157  138.5423  153.7162 N   0  0  0  0  0  0  0  0  0  0  0  0
  147.1679  138.0329  152.5919 N   0  0  0  0  0  0  0  0  0  0  0  0
  146.6560  139.0308  151.8736 C   0  0  0  0  0  0  0  0  0  0  0  0
  146.8174  140.2207  152.4362 N   0  0  0  0  0  0  0  0  0  0  0  0
  152.0217  141.6217  158.5540 C   0  0  0  0  0  0  0  0  0  0  0  0
  154.3093  141.4280  160.1787 H   0  0  0  0  0  0  0  0  0  0  0  0
  152.9676  140.6042  160.9687 H   0  0  0  0  0  0  0  0  0  0  0  0
  153.5913  142.1078  161.6371 H   0  0  0  0  0  0  0  0  0  0  0  0
  151.4553  142.4902  160.4319 H   0  0  0  0  0  0  0  0  0  0  0  0
  153.1018  144.3334  160.4471 H   0  0  0  0  0  0  0  0  0  0  0  0
  153.8585  143.7075  159.0022 H   0  0  0  0  0  0  0  0  0  0  0  0
  151.0004  144.7673  159.2268 H   0  0  0  0  0  0  0  0  0  0  0  0
  152.3312  145.5531  158.4122 H   0  0  0  0  0  0  0  0  0  0  0  0
  150.8361  144.3847  156.7944 H   0  0  0  0  0  0  0  0  0  0  0  0
  152.4610  143.7430  156.7470 H   0  0  0  0  0  0  0  0  0  0  0  0
  150.0925  142.5221  158.2487 H   0  0  0  0  0  0  0  0  0  0  0  0
  149.3116  143.0114  155.8962 H   0  0  0  0  0  0  0  0  0  0  0  0
  149.0988  142.2892  153.6360 H   0  0  0  0  0  0  0  0  0  0  0  0
  149.9327  140.8019  153.9910 H   0  0  0  0  0  0  0  0  0  0  0  0
  147.8948  140.2957  155.5982 H   0  0  0  0  0  0  0  0  0  0  0  0
  147.0783  141.5724  154.7380 H   0  0  0  0  0  0  0  0  0  0  0  0
  146.1546  138.8852  150.9281 H   0  0  0  0  0  0  0  0  0  0  0  0
  152.9363  141.4290  157.9904 H   0  0  0  0  0  0  0  0  0  0  0  0
  151.6053  140.6446  158.8035 H   0  0  0  0  0  0  0  0  0  0  0  0
  147.1644  137.0468  152.3735 H   0  0  0  0  0  0  0  0  0  0  0  0
  1  2  1  0  0  0  0
  1 18  1  0  0  0  0
  1 19  1  0  0  0  0
  1 20  1  0  0  0  0
  2 17  1  0  0  0  0
  2  3  1  0  0  0  0
  2 21  1  0  0  0  0
  3  4  1  0  0  0  0
  3 22  1  0  0  0  0
  3 23  1  0  0  0  0
  4  5  1  0  0  0  0
  4 24  1  0  0  0  0
  4 25  1  0  0  0  0
  5  6  1  0  0  0  0
  5 26  1  0  0  0  0
  5 27  1  0  0  0  0
  6  7  1  0  0  0  0
  6 17  1  0  0  0  0
  6 28  1  0  0  0  0
  7  8  2  0  0  0  0
  7  9  1  0  0  0  0
  9 10  1  0  0  0  0
  9 29  1  0  0  0  0
 10 11  1  0  0  0  0
 10 30  1  0  0  0  0
 10 31  1  0  0  0  0
 11 32  1  0  0  0  0
 11 33  1  0  0  0  0
 11 12  1  0  0  0  0
 12 16  1  0  0  0  0
 12 13  2  0  0  0  0
 13 14  1  0  0  0  0
 14 15  1  0  0  0  0
 14 37  1  0  0  0  0
 15 16  2  0  0  0  0
 15 34  1  0  0  0  0
 17 35  1  0  0  0  0
 17 36  1  0  0  0  0
M  END
> <s_m_source_file>
AV-unprocessed.smi

> <i_m_source_file_index>
3032

> <i_lp_mmshare_version>
43012

> <i_f3d_flags>
0

> <s_epik_input>
W0NIM11bQ0BASF0xW0NIMl1bQ0gyXVtDSDJdW0NASF0oW0NIMl0xKUMoPU8pW05IXVtDSDJdW0NIMl1jMm5uW2NIXVtuSF0y

> <s_epik_cmdline>
J2VwaWtfcHl0aG9uJywgJy1waCcsICc3LjAnLCAnLXRuJywgJzgnLCAnLW1hJywgJzIwMCcsICctbWV0YWxfYmluZGluZycsICctaW1hZScsICc8aW5maWxlLm1hZT4nLCAnLW9tYWUnLCAnPG91dGZpbGUubWFlPic=

> <r_epik_Ionization_Penalty>
0.000752022

> <r_epik_Ionization_Penalty_Charging>
0

> <r_epik_Ionization_Penalty_Neutral>
0.000752022

> <r_epik_State_Penalty>
0.639926

> <r_epik_Charging_Adjusted_Penalty>
0.639926

> <i_epik_Tot_Q>
0

> <i_epik_Tot_abs_Q>
0

> <r_epik_Metal_State_Penalty>
0.76532

> <b_epik_Metal_Only>
0

> <s_lp_Force_Field>
OPLS_2005

> <r_lp_Energy>
8.74502

> <b_lp_Chiralities_Consistent>
1

> <s_lp_Variant>
AV-unprocessed.smi:3032-6

> <Gold.Version>
5.8.1

> <Gold.Id.Protein>
6NUR|6NUR_protein|mol2

> <Gold.PLP.Fitness>
45.3452

> <Gold.PLP.PLP>
-39.4883

> <Gold.PLP.part.hbond>
-2.0000

> <Gold.PLP.part.metal>
0.0000

> <Gold.PLP.part.buried>
-3.2737

> <Gold.PLP.part.nonpolar>
-35.7413

> <Gold.PLP.part.repulsive>
1.1467

> <Gold.PLP.ligand.clash>
0.0000

> <Gold.PLP.ligand.torsion>
0.5850

> <Gold.PLP.Chemscore.Hbond>
1.3360

> <Gold.PLP.Chemscore.CHOScore>
0.9991

> <Gold.PLP.Chemscore.Metal>
0.0000

> <Gold.Chemscore.Hbonds>
donor molecule, donor type, donor heavy atom, donor atom, acceptor molecule, acceptor atom, score
      L1  H     9    29       P1  8028  1.00
      L1  H    14    37       P1  7948  0.32
      L1  C    15    34       P1 10171  0.98

> <Gold.PLP.Chemscore.Internal.Correction>
0.0215

> <Gold.Rescore>
     Score         DG    S(hbond)    S(metal)    S(lipo)     H(rot)  DE(clash)    DE(int)     intcor
     14.77     -15.46       1.46        0.00      92.75       2.25       0.06       0.63       ----

> <Gold.Chemscore.Fitness>
14.7704

> <Gold.Chemscore.DG>
-15.4609

> <Gold.Chemscore.ZeroCoef>
-5.4800

> <Gold.Chemscore.Hbond>
1.4639

> <Gold.Chemscore.Metal>
0.0000

> <Gold.Chemscore.Lipo>
92.7512

> <Gold.Chemscore.Internal_Hbond>
0.0000

> <Gold.Chemscore.DEClash>
0.0592

> <Gold.Chemscore.DEInternal>
0.6312

> <Gold.Chemscore.Rot>
2.2501

> <Gold.Chemscore.Internal.Correction>
   9.000000E+99

> <Gold.Chemscore.Hbonds>
donor molecule, donor type, donor heavy atom, donor atom, acceptor molecule, acceptor atom, score
      L1  H     9    29       P1  8028  0.96
      L1  H    14    37       P1  7948  0.30

> <Gold.Chemscore.Hbond.Weighted>
-4.8893

> <Gold.Chemscore.Metal.Weighted>
-0.0000

> <Gold.Chemscore.Lipo.Weighted>
-10.8519

> <Gold.Chemscore.Internal_Hbond.Weighted>
0.0000

> <Gold.Chemscore.DEClash.Weighted>
0.0592

> <Gold.Chemscore.DEInternal.Weighted>
0.6312

> <Gold.Chemscore.Rot.Weighted>
5.7603

> <Gold.Chemscore.Internal.Correction.Weighted>
   9.000000E+99

> <Gold.Protein.RotatedTorsions>
[ 6907 6896 6895 6894 ] final  156.52 input  -60.11 | X-H torsion
[ 7974 7965 7964 7962 ] final   56.48 input  175.53 | X-H torsion
[ 8008 7997 7996 7995 ] final   67.41 input   59.86 | X-H torsion
[ 10167 10162 10161 10158 ] final  129.19 input  -65.29 | X-H torsion
[ 10718 10713 10712 10709 ] final -139.16 input   66.30 | X-H torsion
[ 10763 10752 10751 10750 ] final -103.05 input  -60.55 | X-H torsion
[ 11005 11000 10999 10996 ] final -160.68 input  -57.11 | X-H torsion

> <Gold.Protein.ActiveResidues>
 VAL166  LYS551  ARG553  GLY616  TRP617  ASP618  TYR619  PRO620  LYS621  CYS622 
 ASP623  PHE694  ASN695  SER759  ASP760  ASP761  ALA762  ILE779  LEU786  VAL792 
 PHE793  MET794  SER795  GLU796  ALA797  LYS798  CYS799  TRP800  GLU811  SER814 

> <Gold.Protein.RotatedAtoms>
  152.0285  133.3927  159.4287 H   0  0  0  0  0  0  0  0  0  0  0  0  # atno 6907 bound_to 6896
  150.6884  134.3547  159.4934 H   0  0  0  0  0  0  0  0  0  0  0  0  # atno 6908 bound_to 6896
  152.1331  134.9120  160.0608 H   0  0  0  0  0  0  0  0  0  0  0  0  # atno 6909 bound_to 6896
  145.9393  139.3875  143.0373 H   0  0  0  0  0  0  0  0  0  0  0  0  # atno 7974 bound_to 7965
  155.6924  140.3496  155.4899 H   0  0  0  0  0  0  0  0  0  0  0  0  # atno 8008 bound_to 7997
  155.9512  140.1119  157.0997 H   0  0  0  0  0  0  0  0  0  0  0  0  # atno 8009 bound_to 7997
  154.4122  140.1194  156.5041 H   0  0  0  0  0  0  0  0  0  0  0  0  # atno 8010 bound_to 7997
  139.5490  144.6797  151.4383 H   0  0  0  0  0  0  0  0  0  0  0  0  # atno 10167 bound_to 10162
  156.3076  130.7464  151.1531 H   0  0  0  0  0  0  0  0  0  0  0  0  # atno 10718 bound_to 10713
  154.7779  135.4838  153.9782 H   0  0  0  0  0  0  0  0  0  0  0  0  # atno 10763 bound_to 10752
  153.1453  135.6780  153.8971 H   0  0  0  0  0  0  0  0  0  0  0  0  # atno 10764 bound_to 10752
  153.8633  135.3152  155.3417 H   0  0  0  0  0  0  0  0  0  0  0  0  # atno 10765 bound_to 10752
  140.6288  134.4673  157.5228 H   0  0  0  0  0  0  0  0  0  0  0  0  # atno 11005 bound_to 11000
  145.8321  140.9625  143.0843 LP  0  0  0  0  0  0  0  0  0  0  0  0  # atno 17320 bound_to 7965
  144.6776  140.0176  143.7484 LP  0  0  0  0  0  0  0  0  0  0  0  0  # atno 17321 bound_to 7965
  140.6747  143.8217  150.7043 LP  0  0  0  0  0  0  0  0  0  0  0  0  # atno 17342 bound_to 10162
  140.1651  143.4242  152.2040 LP  0  0  0  0  0  0  0  0  0  0  0  0  # atno 17343 bound_to 10162
  157.7383  131.0542  150.5301 LP  0  0  0  0  0  0  0  0  0  0  0  0  # atno 17370 bound_to 10713
  156.5437  130.4214  149.6141 LP  0  0  0  0  0  0  0  0  0  0  0  0  # atno 17371 bound_to 10713
  139.9124  134.8317  156.1482 LP  0  0  0  0  0  0  0  0  0  0  0  0  # atno 17394 bound_to 11000
  141.0690  133.6806  156.2102 LP  0  0  0  0  0  0  0  0  0  0  0  0  # atno 17395 bound_to 11000

$$$$
