AV-unprocessed.smi:828|AV-procd|sdf|3862|dock3
  -GOLD-   22720 1313D 1   1.00000     0.00000
 Structure written by MMmdl.
 34 35  0  0  0  0  0  0  0  0  3 V2000
  148.4064  141.8278  154.4455 C   0  0  0  0  0  0  0  0  0  0  0  0
  149.6562  141.1584  154.9046 C   0  0  0  0  0  0  0  0  0  0  0  0
  150.5160  140.5820  154.0615 N   0  0  0  0  0  0  0  0  0  0  0  0
  151.6025  140.0266  154.7214 N   0  0  0  0  0  0  0  0  0  0  0  0
  151.5539  140.1970  156.0501 C   0  0  0  0  0  0  0  0  0  0  0  0
  152.5095  139.7291  156.8702 N   0  5  0  0  0  0  0  0  0  0  0  0
  152.4119  139.9282  158.2034 C   0  0  0  0  0  0  0  0  0  0  0  0
  152.3546  139.0540  159.0709 O   0  0  0  0  0  0  0  0  0  0  0  0
  152.3883  141.2224  158.5521 N   0  0  0  0  0  0  0  0  0  0  0  0
  152.3101  141.7495  159.9108 C   0  0  0  0  0  0  0  0  0  0  0  0
  152.2594  143.2898  159.9252 C   0  0  2  0  0  0  0  0  0  0  0  0
  151.8697  143.9002  161.2761 C   0  0  0  0  0  0  0  0  0  0  0  0
  151.3442  145.2746  160.8897 C   0  0  0  0  0  0  0  0  0  0  0  0
  150.6356  145.0214  159.5573 C   0  0  0  0  0  0  0  0  0  0  0  0
  151.2570  143.8119  158.9658 N   0  3  1  0  0  0  0  0  0  0  0  0
  151.7754  144.0157  157.5952 C   0  0  0  0  0  0  0  0  0  0  0  0
  150.1182  141.0640  156.5957 S   0  0  0  0  0  0  0  0  0  0  0  0
  148.6510  142.7361  153.8946 H   0  0  0  0  0  0  0  0  0  0  0  0
  147.7821  142.0929  155.2989 H   0  0  0  0  0  0  0  0  0  0  0  0
  147.8413  141.1616  153.7934 H   0  0  0  0  0  0  0  0  0  0  0  0
  152.4310  141.8985  157.8032 H   0  0  0  0  0  0  0  0  0  0  0  0
  151.4041  141.3455  160.3622 H   0  0  0  0  0  0  0  0  0  0  0  0
  153.1385  141.3863  160.5214 H   0  0  0  0  0  0  0  0  0  0  0  0
  153.2391  143.6869  159.6517 H   0  0  0  0  0  0  0  0  0  0  0  0
  151.0696  143.3215  161.7402 H   0  0  0  0  0  0  0  0  0  0  0  0
  152.7029  143.9473  161.9782 H   0  0  0  0  0  0  0  0  0  0  0  0
  150.6871  145.7071  161.6451 H   0  0  0  0  0  0  0  0  0  0  0  0
  152.1812  145.9581  160.7407 H   0  0  0  0  0  0  0  0  0  0  0  0
  149.5794  144.8094  159.7262 H   0  0  0  0  0  0  0  0  0  0  0  0
  150.6944  145.8929  158.9034 H   0  0  0  0  0  0  0  0  0  0  0  0
  152.5646  144.7684  157.5812 H   0  0  0  0  0  0  0  0  0  0  0  0
  150.9754  144.3460  156.9319 H   0  0  0  0  0  0  0  0  0  0  0  0
  152.1802  143.0867  157.1932 H   0  0  0  0  0  0  0  0  0  0  0  0
  150.5241  143.1188  158.9116 H   0  0  0  0  0  0  0  0  0  0  0  0
  1  2  1  0  0  0  0
  1 18  1  0  0  0  0
  1 19  1  0  0  0  0
  1 20  1  0  0  0  0
  2 17  1  0  0  0  0
  2  3  2  0  0  0  0
  3  4  1  0  0  0  0
  4  5  2  0  0  0  0
  5  6  1  0  0  0  0
  5 17  1  0  0  0  0
  6  7  1  0  0  0  0
  7  8  2  0  0  0  0
  7  9  1  0  0  0  0
  9 10  1  0  0  0  0
  9 21  1  0  0  0  0
 10 11  1  0  0  0  0
 10 22  1  0  0  0  0
 10 23  1  0  0  0  0
 11 15  1  0  0  0  0
 11 12  1  0  0  0  0
 11 24  1  0  0  0  0
 12 13  1  0  0  0  0
 12 25  1  0  0  0  0
 12 26  1  0  0  0  0
 13 14  1  0  0  0  0
 13 27  1  0  0  0  0
 13 28  1  0  0  0  0
 14 15  1  0  0  0  0
 14 29  1  0  0  0  0
 14 30  1  0  0  0  0
 15 16  1  0  0  0  0
 15 34  1  0  0  0  0
 16 31  1  0  0  0  0
 16 32  1  0  0  0  0
 16 33  1  0  0  0  0
M  CHG  1   6  -1
M  CHG  1  15   1
M  END
> <s_m_source_file>
AV-unprocessed.smi

> <i_m_source_file_index>
828

> <i_lp_mmshare_version>
43012

> <i_f3d_flags>
0

> <s_epik_input>
W0NIM11jMW5uYyhzMSlbTkhdQyg9TylbTkhdW0NIMl1bQ0BASF0yW0NIMl1bQ0gyXVtDSDJdTjJbQ0gzXQ==

> <s_epik_cmdline>
J2VwaWtfcHl0aG9uJywgJy1waCcsICc3LjAnLCAnLXRuJywgJzgnLCAnLW1hJywgJzIwMCcsICctbWV0YWxfYmluZGluZycsICctaW1hZScsICc8aW5maWxlLm1hZT4nLCAnLW9tYWUnLCAnPG91dGZpbGUubWFlPic=

> <r_lp_tautomer_probability>
1

> <r_epik_Ionization_Penalty>
3.94379

> <r_epik_Ionization_Penalty_Charging>
3.83377

> <r_epik_Ionization_Penalty_Neutral>
0.110023

> <r_epik_State_Penalty>
3.83036

> <r_epik_Charging_Adjusted_Penalty>
7.66413

> <i_epik_Tot_Q>
0

> <i_epik_Tot_abs_Q>
2

> <r_epik_Metal_State_Penalty>
0.575095

> <b_epik_Metal_Only>
1

> <s_lp_Force_Field>
OPLS_2005

> <r_lp_Energy>
18.3526

> <b_lp_Chiralities_Consistent>
1

> <s_lp_Variant>
AV-unprocessed.smi:828-5

> <Gold.Version>
5.8.1

> <Gold.Id.Protein>
6NUR|6NUR_protein|mol2

> <Gold.PLP.Fitness>
43.1142

> <Gold.PLP.PLP>
-38.3810

> <Gold.PLP.part.hbond>
-2.5312

> <Gold.PLP.part.metal>
0.0000

> <Gold.PLP.part.buried>
-4.0690

> <Gold.PLP.part.nonpolar>
-30.6735

> <Gold.PLP.part.repulsive>
0.8588

> <Gold.PLP.ligand.clash>
0.0000

> <Gold.PLP.ligand.torsion>
0.6446

> <Gold.PLP.Chemscore.Hbond>
2.0000

> <Gold.PLP.Chemscore.CHOScore>
0.0000

> <Gold.PLP.Chemscore.Metal>
0.0000

> <Gold.Chemscore.Hbonds>
donor molecule, donor type, donor heavy atom, donor atom, acceptor molecule, acceptor atom, score
      P1  H  7997  8009       L1     6  2.00

> <Gold.PLP.Chemscore.Internal.Correction>
0.0224

> <Gold.Rescore>
     Score         DG    S(hbond)    S(metal)    S(lipo)     H(rot)  DE(clash)    DE(int)     intcor
     13.09     -14.73       0.61        0.00      90.37       1.31       0.09       1.54       ----

> <Gold.Chemscore.Fitness>
13.0938

> <Gold.Chemscore.DG>
-14.7260

> <Gold.Chemscore.ZeroCoef>
-5.4800

> <Gold.Chemscore.Hbond>
0.6103

> <Gold.Chemscore.Metal>
0.0000

> <Gold.Chemscore.Lipo>
90.3746

> <Gold.Chemscore.Internal_Hbond>
0.0000

> <Gold.Chemscore.DEClash>
0.0895

> <Gold.Chemscore.DEInternal>
1.5427

> <Gold.Chemscore.Rot>
1.3149

> <Gold.Chemscore.Internal.Correction>
   9.000000E+99

> <Gold.Chemscore.Hbonds>
donor molecule, donor type, donor heavy atom, donor atom, acceptor molecule, acceptor atom, score
      P1  H  7997  8009       L1     6  0.59

> <Gold.Chemscore.Hbond.Weighted>
-2.0384

> <Gold.Chemscore.Metal.Weighted>
-0.0000

> <Gold.Chemscore.Lipo.Weighted>
-10.5738

> <Gold.Chemscore.Internal_Hbond.Weighted>
0.0000

> <Gold.Chemscore.DEClash.Weighted>
0.0895

> <Gold.Chemscore.DEInternal.Weighted>
1.5427

> <Gold.Chemscore.Rot.Weighted>
3.3662

> <Gold.Chemscore.Internal.Correction.Weighted>
   9.000000E+99

> <Gold.Protein.RotatedTorsions>
[ 6907 6896 6895 6894 ] final  -52.05 input  -60.11 | X-H torsion
[ 7974 7965 7964 7962 ] final  -33.42 input  175.53 | X-H torsion
[ 8008 7997 7996 7995 ] final -157.99 input   59.86 | X-H torsion
[ 10167 10162 10161 10158 ] final   20.82 input  -65.29 | X-H torsion
[ 10718 10713 10712 10709 ] final -124.66 input   66.30 | X-H torsion
[ 10763 10752 10751 10750 ] final  -78.66 input  -60.55 | X-H torsion
[ 11005 11000 10999 10996 ] final -151.82 input  -57.11 | X-H torsion

> <Gold.Protein.ActiveResidues>
 VAL166  LYS551  ARG553  GLY616  TRP617  ASP618  TYR619  PRO620  LYS621  CYS622 
 ASP623  PHE694  ASN695  SER759  ASP760  ASP761  ALA762  ILE779  LEU786  VAL792 
 PHE793  MET794  SER795  GLU796  ALA797  LYS798  CYS799  TRP800  GLU811  SER814 

> <Gold.Protein.RotatedAtoms>
  150.8554  134.7891  159.7040 H   0  0  0  0  0  0  0  0  0  0  0  0  # atno 6907 bound_to 6896
  152.4607  134.5188  159.9786 H   0  0  0  0  0  0  0  0  0  0  0  0  # atno 6908 bound_to 6896
  151.5301  133.3412  159.2952 H   0  0  0  0  0  0  0  0  0  0  0  0  # atno 6909 bound_to 6896
  146.0911  140.5915  142.8864 H   0  0  0  0  0  0  0  0  0  0  0  0  # atno 7974 bound_to 7965
  155.7407  140.0814  157.2247 H   0  0  0  0  0  0  0  0  0  0  0  0  # atno 8008 bound_to 7997
  154.4022  140.1578  156.2668 H   0  0  0  0  0  0  0  0  0  0  0  0  # atno 8009 bound_to 7997
  155.9023  140.3409  155.6038 H   0  0  0  0  0  0  0  0  0  0  0  0  # atno 8010 bound_to 7997
  140.5474  143.9570  150.6556 H   0  0  0  0  0  0  0  0  0  0  0  0  # atno 10167 bound_to 10162
  156.1607  130.6600  151.0046 H   0  0  0  0  0  0  0  0  0  0  0  0  # atno 10718 bound_to 10713
  154.5288  135.5722  153.6741 H   0  0  0  0  0  0  0  0  0  0  0  0  # atno 10763 bound_to 10752
  152.9934  135.6199  154.2657 H   0  0  0  0  0  0  0  0  0  0  0  0  # atno 10764 bound_to 10752
  154.2582  135.2857  155.2768 H   0  0  0  0  0  0  0  0  0  0  0  0  # atno 10765 bound_to 10752
  140.7254  134.3680  157.5176 H   0  0  0  0  0  0  0  0  0  0  0  0  # atno 11005 bound_to 11000
  144.7361  140.4812  143.6902 LP  0  0  0  0  0  0  0  0  0  0  0  0  # atno 17320 bound_to 7965
  145.6036  139.1506  143.3115 LP  0  0  0  0  0  0  0  0  0  0  0  0  # atno 17321 bound_to 7965
  140.2987  143.3275  152.0993 LP  0  0  0  0  0  0  0  0  0  0  0  0  # atno 17342 bound_to 10162
  139.5013  144.6710  151.6242 LP  0  0  0  0  0  0  0  0  0  0  0  0  # atno 17343 bound_to 10162
  157.6730  131.0857  150.7564 LP  0  0  0  0  0  0  0  0  0  0  0  0  # atno 17370 bound_to 10713
  156.7627  130.4804  149.5434 LP  0  0  0  0  0  0  0  0  0  0  0  0  # atno 17371 bound_to 10713
  139.8838  134.8983  156.2742 LP  0  0  0  0  0  0  0  0  0  0  0  0  # atno 17394 bound_to 11000
  140.9967  133.7176  156.0897 LP  0  0  0  0  0  0  0  0  0  0  0  0  # atno 17395 bound_to 11000

$$$$
