AV-unprocessed.smi:713|AV-procd|sdf|3476|dock5
  -GOLD-   22720 0463D 1   1.00000     0.00000
 Structure written by MMmdl.
 41 42  0  0  0  0  0  0  0  0  1 V2000
  143.5045  137.1520  152.5105 C   0  0  0  0  0  0  0  0  0  0  0  0
  144.9180  136.5447  152.6202 C   0  0  2  0  0  0  0  0  0  0  0  0
  146.0300  137.5738  152.3645 C   0  0  0  0  0  0  0  0  0  0  0  0
  146.4709  137.7570  151.2291 O   0  0  0  0  0  0  0  0  0  0  0  0
  146.4830  138.2346  153.4419 N   0  0  0  0  0  0  0  0  0  0  0  0
  147.5634  139.2150  153.4379 C   0  0  1  0  0  0  0  0  0  0  0  0
  147.0297  140.5718  153.9308 C   0  0  0  0  0  0  0  0  0  0  0  0
  148.1512  141.6186  154.0063 C   0  0  0  0  0  0  0  0  0  0  0  0
  149.3071  141.1313  154.8928 C   0  0  0  0  0  0  0  0  0  0  0  0
  149.8574  139.7791  154.4046 C   0  0  1  0  0  0  0  0  0  0  0  0
  151.2177  139.2170  155.5263 S   0  0  0  0  0  0  0  0  0  0  0  0
  151.5707  137.5156  154.9190 C   0  0  0  0  0  0  0  0  0  0  0  0
  152.3996  140.0548  155.2722 O   0  0  0  0  0  0  0  0  0  0  0  0
  150.6861  139.1089  156.8934 O   0  0  0  0  0  0  0  0  0  0  0  0
  148.7316  138.7293  154.3205 C   0  0  0  0  0  0  0  0  0  0  0  0
  145.0935  135.3889  151.7479 N   0  0  0  0  0  0  0  0  0  0  0  0
  144.1706  134.8287  150.8879 C   0  0  0  0  0  0  0  0  0  0  0  0
  144.7553  133.7386  150.3101 C   0  0  0  0  0  0  0  0  0  0  0  0
  146.0513  133.7009  150.8949 C   0  0  0  0  0  0  0  0  0  0  0  0
  146.2480  134.6821  151.7596 N   0  0  0  0  0  0  0  0  0  0  0  0
  143.3771  137.9783  153.2106 H   0  0  0  0  0  0  0  0  0  0  0  0
  142.7436  136.4070  152.7447 H   0  0  0  0  0  0  0  0  0  0  0  0
  143.2963  137.5329  151.5098 H   0  0  0  0  0  0  0  0  0  0  0  0
  145.0343  136.1910  153.6460 H   0  0  0  0  0  0  0  0  0  0  0  0
  146.0647  138.0237  154.3362 H   0  0  0  0  0  0  0  0  0  0  0  0
  147.9231  139.3445  152.4152 H   0  0  0  0  0  0  0  0  0  0  0  0
  146.2404  140.9273  153.2671 H   0  0  0  0  0  0  0  0  0  0  0  0
  146.5774  140.4566  154.9172 H   0  0  0  0  0  0  0  0  0  0  0  0
  148.5237  141.8298  153.0030 H   0  0  0  0  0  0  0  0  0  0  0  0
  147.7569  142.5584  154.3937 H   0  0  0  0  0  0  0  0  0  0  0  0
  150.1012  141.8782  154.9016 H   0  0  0  0  0  0  0  0  0  0  0  0
  148.9611  141.0373  155.9231 H   0  0  0  0  0  0  0  0  0  0  0  0
  150.2973  139.9138  153.4158 H   0  0  0  0  0  0  0  0  0  0  0  0
  152.4375  137.1192  155.4468 H   0  0  0  0  0  0  0  0  0  0  0  0
  151.7821  137.5444  153.8503 H   0  0  0  0  0  0  0  0  0  0  0  0
  150.7161  136.8670  155.1069 H   0  0  0  0  0  0  0  0  0  0  0  0
  148.3625  138.5057  155.3226 H   0  0  0  0  0  0  0  0  0  0  0  0
  149.1228  137.7942  153.9208 H   0  0  0  0  0  0  0  0  0  0  0  0
  143.1833  135.2479  150.7609 H   0  0  0  0  0  0  0  0  0  0  0  0
  144.3218  133.0667  149.5845 H   0  0  0  0  0  0  0  0  0  0  0  0
  146.8477  132.9921  150.7216 H   0  0  0  0  0  0  0  0  0  0  0  0
  1  2  1  0  0  0  0
  1 21  1  0  0  0  0
  1 22  1  0  0  0  0
  1 23  1  0  0  0  0
  2  3  1  0  0  0  0
  2 16  1  0  0  0  0
  2 24  1  0  0  0  0
  3  4  2  0  0  0  0
  3  5  1  0  0  0  0
  5  6  1  0  0  0  0
  5 25  1  0  0  0  0
  6 15  1  0  0  0  0
  6  7  1  0  0  0  0
  6 26  1  0  0  0  0
  7  8  1  0  0  0  0
  7 27  1  0  0  0  0
  7 28  1  0  0  0  0
  8  9  1  0  0  0  0
  8 29  1  0  0  0  0
  8 30  1  0  0  0  0
  9 10  1  0  0  0  0
  9 31  1  0  0  0  0
  9 32  1  0  0  0  0
 10 11  1  0  0  0  0
 10 15  1  0  0  0  0
 10 33  1  0  0  0  0
 11 12  1  0  0  0  0
 11 13  2  0  0  0  0
 11 14  2  0  0  0  0
 12 34  1  0  0  0  0
 12 35  1  0  0  0  0
 12 36  1  0  0  0  0
 15 37  1  0  0  0  0
 15 38  1  0  0  0  0
 16 20  1  0  0  0  0
 16 17  1  0  0  0  0
 17 18  2  0  0  0  0
 17 39  1  0  0  0  0
 18 19  1  0  0  0  0
 18 40  1  0  0  0  0
 19 20  2  0  0  0  0
 19 41  1  0  0  0  0
M  END
> <s_m_source_file>
AV-unprocessed.smi

> <i_m_source_file_index>
713

> <i_lp_mmshare_version>
43012

> <i_f3d_flags>
0

> <s_epik_input>
bjFbY0hdW2NIXVtjSF1uMVtDQEhdKFtDSDNdKUMoPU8pW05IXVtDQEBIXTJbQ0gyXVtDSDJdW0NIMl1bQ0BIXShbQ0gyXTIpUyg9TykoPU8pW0NIM10=

> <s_epik_cmdline>
J2VwaWtfcHl0aG9uJywgJy1waCcsICc3LjAnLCAnLXRuJywgJzgnLCAnLW1hJywgJzIwMCcsICctbWV0YWxfYmluZGluZycsICctaW1hZScsICc8aW5maWxlLm1hZT4nLCAnLW9tYWUnLCAnPG91dGZpbGUubWFlPic=

> <r_lp_tautomer_probability>
1

> <r_epik_Ionization_Penalty>
4.07816e-05

> <r_epik_Ionization_Penalty_Charging>
0

> <r_epik_Ionization_Penalty_Neutral>
4.07816e-05

> <r_epik_State_Penalty>
-0

> <r_epik_Charging_Adjusted_Penalty>
0

> <i_epik_Tot_Q>
0

> <i_epik_Tot_abs_Q>
0

> <r_epik_Metal_State_Penalty>
-0

> <b_epik_Metal_Only>
0

> <s_lp_Force_Field>
OPLS_2005

> <r_lp_Energy>
6.63175

> <b_lp_Chiralities_Consistent>
1

> <s_lp_Variant>
AV-unprocessed.smi:713-3

> <Gold.Version>
5.8.1

> <Gold.Id.Protein>
6NUR|6NUR_protein|mol2

> <Gold.PLP.Fitness>
38.5834

> <Gold.PLP.PLP>
-33.4655

> <Gold.PLP.part.hbond>
-2.2392

> <Gold.PLP.part.metal>
0.0000

> <Gold.PLP.part.buried>
-0.2619

> <Gold.PLP.part.nonpolar>
-32.4365

> <Gold.PLP.part.repulsive>
2.2445

> <Gold.PLP.ligand.clash>
0.0000

> <Gold.PLP.ligand.torsion>
1.0072

> <Gold.PLP.Chemscore.Hbond>
1.8480

> <Gold.PLP.Chemscore.CHOScore>
0.4457

> <Gold.PLP.Chemscore.Metal>
0.0000

> <Gold.Chemscore.Hbonds>
donor molecule, donor type, donor heavy atom, donor atom, acceptor molecule, acceptor atom, score
      P1  H  7954  7966       L1     4  0.68
      P1  H  7989  7998       L1    13  0.45
      P1  H  7997  8008       L1    13  0.73
      L1  C    17    39       P1 10186  0.47

> <Gold.PLP.Chemscore.Internal.Correction>
0.2512

> <Gold.Rescore>
     Score         DG    S(hbond)    S(metal)    S(lipo)     H(rot)  DE(clash)    DE(int)     intcor
     13.02     -15.59       1.70        0.00      75.53       1.72       1.74       0.83       ----

> <Gold.Chemscore.Fitness>
13.0171

> <Gold.Chemscore.DG>
-15.5950

> <Gold.Chemscore.ZeroCoef>
-5.4800

> <Gold.Chemscore.Hbond>
1.7046

> <Gold.Chemscore.Metal>
0.0000

> <Gold.Chemscore.Lipo>
75.5317

> <Gold.Chemscore.Internal_Hbond>
0.0000

> <Gold.Chemscore.DEClash>
1.7443

> <Gold.Chemscore.DEInternal>
0.8336

> <Gold.Chemscore.Rot>
1.7249

> <Gold.Chemscore.Internal.Correction>
   9.000000E+99

> <Gold.Chemscore.Hbonds>
donor molecule, donor type, donor heavy atom, donor atom, acceptor molecule, acceptor atom, score
      P1  H  7954  7966       L1     4  0.69
      P1  H  7989  7998       L1    13  0.06
      P1  H  7997  8008       L1    13  0.73

> <Gold.Chemscore.Hbond.Weighted>
-5.6935

> <Gold.Chemscore.Metal.Weighted>
-0.0000

> <Gold.Chemscore.Lipo.Weighted>
-8.8372

> <Gold.Chemscore.Internal_Hbond.Weighted>
0.0000

> <Gold.Chemscore.DEClash.Weighted>
1.7443

> <Gold.Chemscore.DEInternal.Weighted>
0.8336

> <Gold.Chemscore.Rot.Weighted>
4.4157

> <Gold.Chemscore.Internal.Correction.Weighted>
   9.000000E+99

> <Gold.Protein.RotatedTorsions>
[ 6907 6896 6895 6894 ] final  159.38 input  -60.11 | X-H torsion
[ 7974 7965 7964 7962 ] final  -61.13 input  175.53 | X-H torsion
[ 8008 7997 7996 7995 ] final  -17.82 input   59.86 | X-H torsion
[ 10167 10162 10161 10158 ] final -112.15 input  -65.29 | X-H torsion
[ 10718 10713 10712 10709 ] final -106.09 input   66.30 | X-H torsion
[ 10763 10752 10751 10750 ] final  -15.05 input  -60.55 | X-H torsion
[ 11005 11000 10999 10996 ] final -174.74 input  -57.11 | X-H torsion

> <Gold.Protein.ActiveResidues>
 VAL166  LYS551  ARG553  GLY616  TRP617  ASP618  TYR619  PRO620  LYS621  CYS622 
 ASP623  PHE694  ASN695  SER759  ASP760  ASP761  ALA762  ILE779  LEU786  VAL792 
 PHE793  MET794  SER795  GLU796  ALA797  LYS798  CYS799  TRP800  GLU811  SER814 

> <Gold.Protein.RotatedAtoms>
  151.9864  133.3775  159.4127 H   0  0  0  0  0  0  0  0  0  0  0  0  # atno 6907 bound_to 6896
  150.6927  134.3983  159.5117 H   0  0  0  0  0  0  0  0  0  0  0  0  # atno 6908 bound_to 6896
  152.1710  134.8834  160.0585 H   0  0  0  0  0  0  0  0  0  0  0  0  # atno 6909 bound_to 6896
  145.8071  140.8621  143.0201 H   0  0  0  0  0  0  0  0  0  0  0  0  # atno 7974 bound_to 7965
  154.4950  140.2132  155.9466 H   0  0  0  0  0  0  0  0  0  0  0  0  # atno 8008 bound_to 7997
  156.1358  140.3189  155.8387 H   0  0  0  0  0  0  0  0  0  0  0  0  # atno 8009 bound_to 7997
  155.4212  140.0497  157.3016 H   0  0  0  0  0  0  0  0  0  0  0  0  # atno 8010 bound_to 7997
  140.1259  143.4403  152.1660 H   0  0  0  0  0  0  0  0  0  0  0  0  # atno 10167 bound_to 10162
  156.0374  130.5595  150.7631 H   0  0  0  0  0  0  0  0  0  0  0  0  # atno 10718 bound_to 10713
  153.5375  135.7014  153.5653 H   0  0  0  0  0  0  0  0  0  0  0  0  # atno 10763 bound_to 10752
  153.3633  135.3964  155.1735 H   0  0  0  0  0  0  0  0  0  0  0  0  # atno 10764 bound_to 10752
  154.8677  135.3794  154.4876 H   0  0  0  0  0  0  0  0  0  0  0  0  # atno 10765 bound_to 10752
  140.4711  134.6164  157.4882 H   0  0  0  0  0  0  0  0  0  0  0  0  # atno 11005 bound_to 11000
  144.6761  140.0342  143.7482 LP  0  0  0  0  0  0  0  0  0  0  0  0  # atno 17320 bound_to 7965
  145.9816  139.2946  143.1038 LP  0  0  0  0  0  0  0  0  0  0  0  0  # atno 17321 bound_to 7965
  139.5545  144.7362  151.4337 LP  0  0  0  0  0  0  0  0  0  0  0  0  # atno 17342 bound_to 10162
  140.6845  143.8005  150.7167 LP  0  0  0  0  0  0  0  0  0  0  0  0  # atno 17343 bound_to 10162
  157.5145  131.0927  151.0157 LP  0  0  0  0  0  0  0  0  0  0  0  0  # atno 17370 bound_to 10713
  157.0503  130.5784  149.5369 LP  0  0  0  0  0  0  0  0  0  0  0  0  # atno 17371 bound_to 10713
  139.9884  134.7024  155.9732 LP  0  0  0  0  0  0  0  0  0  0  0  0  # atno 17394 bound_to 11000
  141.1576  133.6541  156.4213 LP  0  0  0  0  0  0  0  0  0  0  0  0  # atno 17395 bound_to 11000

$$$$
