AV-unprocessed.smi:2880|AV-procd|sdf|11051|dock4
  -GOLD-   2272015523D 1   1.00000     0.00000
 Structure written by MMmdl.
 47 48  0  0  0  0  0  0  0  0  1 V2000
  146.7270  142.2468  156.2283 C   0  0  0  0  0  0  0  0  0  0  0  0
  147.1263  141.6331  154.8709 C   0  0  0  0  0  0  0  0  0  0  0  0
  146.4245  142.4433  153.7549 C   0  0  0  0  0  0  0  0  0  0  0  0
  148.6511  141.7374  154.6833 C   0  0  0  0  0  0  0  0  0  0  0  0
  146.7443  140.2148  154.8396 N   0  0  0  0  0  0  0  0  0  0  0  0
  146.0608  139.4903  155.8031 C   0  0  0  0  0  0  0  0  0  0  0  0
  145.9853  138.1922  155.3853 C   0  0  0  0  0  0  0  0  0  0  0  0
  146.6790  138.2100  154.1462 C   0  0  0  0  0  0  0  0  0  0  0  0
  146.8310  137.0256  153.3809 N   0  0  0  0  0  0  0  0  0  0  0  0
  145.9993  135.9709  153.3303 C   0  0  0  0  0  0  0  0  0  0  0  0
  144.9520  135.8628  153.9689 O   0  0  0  0  0  0  0  0  0  0  0  0
  146.4588  135.0319  152.4901 N   0  0  0  0  0  0  0  0  0  0  0  0
  145.8198  133.7461  152.2118 C   0  0  2  0  0  0  0  0  0  0  0  0
  146.7870  132.6156  152.6186 C   0  0  0  0  0  0  0  0  0  0  0  0
  146.2175  131.2293  152.2898 C   0  0  0  0  0  0  0  0  0  0  0  0
  145.8546  131.1286  150.8032 C   0  0  0  0  0  0  0  0  0  0  0  0
  144.8699  132.2368  150.4023 C   0  0  0  0  0  0  0  0  0  0  0  0
  145.4188  133.6478  150.7165 C   0  0  1  0  0  0  0  0  0  0  0  0
  144.4025  134.7409  150.3158 C   0  0  0  0  0  0  0  0  0  0  0  0
  144.0124  134.5974  148.9660 O   0  0  0  0  0  0  0  0  0  0  0  0
  147.1489  139.4068  153.8300 N   0  0  0  0  0  0  0  0  0  0  0  0
  146.9611  143.3114  156.2643 H   0  0  0  0  0  0  0  0  0  0  0  0
  147.2514  141.7774  157.0607 H   0  0  0  0  0  0  0  0  0  0  0  0
  145.6566  142.1408  156.4095 H   0  0  0  0  0  0  0  0  0  0  0  0
  145.3390  142.3696  153.8311 H   0  0  0  0  0  0  0  0  0  0  0  0
  146.7131  142.1012  152.7601 H   0  0  0  0  0  0  0  0  0  0  0  0
  146.6830  143.5011  153.8134 H   0  0  0  0  0  0  0  0  0  0  0  0
  148.9838  142.7757  154.7044 H   0  0  0  0  0  0  0  0  0  0  0  0
  148.9621  141.3112  153.7287 H   0  0  0  0  0  0  0  0  0  0  0  0
  149.1882  141.2061  155.4698 H   0  0  0  0  0  0  0  0  0  0  0  0
  145.6871  139.9518  156.7050 H   0  0  0  0  0  0  0  0  0  0  0  0
  145.5142  137.3628  155.8917 H   0  0  0  0  0  0  0  0  0  0  0  0
  147.6669  136.9718  152.8182 H   0  0  0  0  0  0  0  0  0  0  0  0
  147.3290  135.2130  152.0116 H   0  0  0  0  0  0  0  0  0  0  0  0
  144.9098  133.6449  152.8062 H   0  0  0  0  0  0  0  0  0  0  0  0
  147.7401  132.7426  152.1030 H   0  0  0  0  0  0  0  0  0  0  0  0
  147.0040  132.6766  153.6857 H   0  0  0  0  0  0  0  0  0  0  0  0
  146.9428  130.4578  152.5494 H   0  0  0  0  0  0  0  0  0  0  0  0
  145.3322  131.0413  152.8987 H   0  0  0  0  0  0  0  0  0  0  0  0
  146.7586  131.2035  150.1975 H   0  0  0  0  0  0  0  0  0  0  0  0
  145.4209  130.1509  150.5920 H   0  0  0  0  0  0  0  0  0  0  0  0
  144.6478  132.1454  149.3387 H   0  0  0  0  0  0  0  0  0  0  0  0
  143.9247  132.0859  150.9255 H   0  0  0  0  0  0  0  0  0  0  0  0
  146.3217  133.7955  150.1209 H   0  0  0  0  0  0  0  0  0  0  0  0
  143.5189  134.7005  150.9535 H   0  0  0  0  0  0  0  0  0  0  0  0
  144.8289  135.7378  150.4265 H   0  0  0  0  0  0  0  0  0  0  0  0
  144.7256  134.8835  148.4160 H   0  0  0  0  0  0  0  0  0  0  0  0
  1  2  1  0  0  0  0
  1 22  1  0  0  0  0
  1 23  1  0  0  0  0
  1 24  1  0  0  0  0
  2  3  1  0  0  0  0
  2  4  1  0  0  0  0
  2  5  1  0  0  0  0
  3 25  1  0  0  0  0
  3 26  1  0  0  0  0
  3 27  1  0  0  0  0
  4 28  1  0  0  0  0
  4 29  1  0  0  0  0
  4 30  1  0  0  0  0
  5 21  1  0  0  0  0
  5  6  1  0  0  0  0
  6  7  2  0  0  0  0
  6 31  1  0  0  0  0
  7  8  1  0  0  0  0
  7 32  1  0  0  0  0
  8  9  1  0  0  0  0
  8 21  2  0  0  0  0
  9 10  1  0  0  0  0
  9 33  1  0  0  0  0
 10 11  2  0  0  0  0
 10 12  1  0  0  0  0
 12 13  1  0  0  0  0
 12 34  1  0  0  0  0
 13 18  1  0  0  0  0
 13 14  1  0  0  0  0
 13 35  1  0  0  0  0
 14 15  1  0  0  0  0
 14 36  1  0  0  0  0
 14 37  1  0  0  0  0
 15 16  1  0  0  0  0
 15 38  1  0  0  0  0
 15 39  1  0  0  0  0
 16 17  1  0  0  0  0
 16 40  1  0  0  0  0
 16 41  1  0  0  0  0
 17 18  1  0  0  0  0
 17 42  1  0  0  0  0
 17 43  1  0  0  0  0
 18 19  1  0  0  0  0
 18 44  1  0  0  0  0
 19 20  1  0  0  0  0
 19 45  1  0  0  0  0
 19 46  1  0  0  0  0
 20 47  1  0  0  0  0
M  END
> <s_m_source_file>
AV-unprocessed.smi

> <i_m_source_file_index>
2880

> <i_lp_mmshare_version>
43012

> <i_f3d_flags>
0

> <s_epik_input>
W0NIM11DKFtDSDNdKShbQ0gzXSluMVtjSF1bY0hdYyhuMSlbTkhdQyg9TylbTkhdW0NAQEhdMltDSDJdW0NIMl1bQ0gyXVtDSDJdW0NASF0yW0NIMl1bT0hd

> <s_epik_cmdline>
J2VwaWtfcHl0aG9uJywgJy1waCcsICc3LjAnLCAnLXRuJywgJzgnLCAnLW1hJywgJzIwMCcsICctbWV0YWxfYmluZGluZycsICctaW1hZScsICc8aW5maWxlLm1hZT4nLCAnLW9tYWUnLCAnPG91dGZpbGUubWFlPic=

> <r_lp_tautomer_probability>
1

> <r_epik_Ionization_Penalty>
3.89283e-05

> <r_epik_Ionization_Penalty_Charging>
0

> <r_epik_Ionization_Penalty_Neutral>
3.89283e-05

> <r_epik_State_Penalty>
-0

> <r_epik_Charging_Adjusted_Penalty>
0

> <i_epik_Tot_Q>
0

> <i_epik_Tot_abs_Q>
0

> <r_epik_Metal_State_Penalty>
-0

> <b_epik_Metal_Only>
0

> <s_lp_Force_Field>
OPLS_2005

> <r_lp_Energy>
21.5121

> <b_lp_Chiralities_Consistent>
1

> <s_lp_Variant>
AV-unprocessed.smi:2880-1

> <Gold.Version>
5.8.1

> <Gold.Id.Protein>
6NUR|6NUR_protein|mol2

> <Gold.PLP.Fitness>
39.8159

> <Gold.PLP.PLP>
-31.4185

> <Gold.PLP.part.hbond>
-4.0000

> <Gold.PLP.part.metal>
0.0000

> <Gold.PLP.part.buried>
-4.0604

> <Gold.PLP.part.nonpolar>
-23.0947

> <Gold.PLP.part.repulsive>
0.2120

> <Gold.PLP.ligand.clash>
0.0000

> <Gold.PLP.ligand.torsion>
0.3328

> <Gold.PLP.Chemscore.Hbond>
3.0000

> <Gold.PLP.Chemscore.CHOScore>
0.0000

> <Gold.PLP.Chemscore.Metal>
0.0000

> <Gold.Chemscore.Hbonds>
donor molecule, donor type, donor heavy atom, donor atom, acceptor molecule, acceptor atom, score
      L1  H     9    33       P1  7948  1.00
      L1  H    12    34       P1  7948  1.00
      L1  H    20    47       P1  7921  1.00

> <Gold.PLP.Chemscore.Internal.Correction>
0.0629

> <Gold.Rescore>
     Score         DG    S(hbond)    S(metal)    S(lipo)     H(rot)  DE(clash)    DE(int)     intcor
     17.30     -18.79       2.91        0.00      73.65       1.97       0.02       1.48       ----

> <Gold.Chemscore.Fitness>
17.2972

> <Gold.Chemscore.DG>
-18.7931

> <Gold.Chemscore.ZeroCoef>
-5.4800

> <Gold.Chemscore.Hbond>
2.9140

> <Gold.Chemscore.Metal>
0.0000

> <Gold.Chemscore.Lipo>
73.6456

> <Gold.Chemscore.Internal_Hbond>
0.0000

> <Gold.Chemscore.DEClash>
0.0173

> <Gold.Chemscore.DEInternal>
1.4786

> <Gold.Chemscore.Rot>
1.9672

> <Gold.Chemscore.Internal.Correction>
   9.000000E+99

> <Gold.Chemscore.Hbonds>
donor molecule, donor type, donor heavy atom, donor atom, acceptor molecule, acceptor atom, score
      L1  H     9    33       P1  7948  0.99
      L1  H    12    34       P1  7948  0.94
      L1  H    20    47       P1  7921  0.98

> <Gold.Chemscore.Hbond.Weighted>
-9.7326

> <Gold.Chemscore.Metal.Weighted>
-0.0000

> <Gold.Chemscore.Lipo.Weighted>
-8.6165

> <Gold.Chemscore.Internal_Hbond.Weighted>
0.0000

> <Gold.Chemscore.DEClash.Weighted>
0.0173

> <Gold.Chemscore.DEInternal.Weighted>
1.4786

> <Gold.Chemscore.Rot.Weighted>
5.0360

> <Gold.Chemscore.Internal.Correction.Weighted>
   9.000000E+99

> <Gold.Protein.RotatedTorsions>
[ 6907 6896 6895 6894 ] final   63.88 input  -60.11 | X-H torsion
[ 7974 7965 7964 7962 ] final   43.11 input  175.53 | X-H torsion
[ 8008 7997 7996 7995 ] final    1.80 input   59.86 | X-H torsion
[ 10167 10162 10161 10158 ] final -120.57 input  -65.29 | X-H torsion
[ 10718 10713 10712 10709 ] final -143.59 input   66.30 | X-H torsion
[ 10763 10752 10751 10750 ] final -165.93 input  -60.55 | X-H torsion
[ 11005 11000 10999 10996 ] final  -91.97 input  -57.11 | X-H torsion

> <Gold.Protein.ActiveResidues>
 VAL166  LYS551  ARG553  GLY616  TRP617  ASP618  TYR619  PRO620  LYS621  CYS622 
 ASP623  PHE694  ASN695  SER759  ASP760  ASP761  ALA762  ILE779  LEU786  VAL792 
 PHE793  MET794  SER795  GLU796  ALA797  LYS798  CYS799  TRP800  GLU811  SER814 

> <Gold.Protein.RotatedAtoms>
  152.4288  134.5817  159.9949 H   0  0  0  0  0  0  0  0  0  0  0  0  # atno 6907 bound_to 6896
  151.5947  133.3357  159.3043 H   0  0  0  0  0  0  0  0  0  0  0  0  # atno 6908 bound_to 6896
  150.8179  134.7407  159.6811 H   0  0  0  0  0  0  0  0  0  0  0  0  # atno 6909 bound_to 6896
  146.0683  139.5223  142.9614 H   0  0  0  0  0  0  0  0  0  0  0  0  # atno 7974 bound_to 7965
  154.6840  140.2639  155.6879 H   0  0  0  0  0  0  0  0  0  0  0  0  # atno 8008 bound_to 7997
  156.2707  140.2804  156.1317 H   0  0  0  0  0  0  0  0  0  0  0  0  # atno 8009 bound_to 7997
  155.0991  140.0374  157.2681 H   0  0  0  0  0  0  0  0  0  0  0  0  # atno 8010 bound_to 7997
  140.0345  143.5215  152.2160 H   0  0  0  0  0  0  0  0  0  0  0  0  # atno 10167 bound_to 10162
  156.3598  130.7732  151.1898 H   0  0  0  0  0  0  0  0  0  0  0  0  # atno 10718 bound_to 10713
  154.6884  135.2966  154.9515 H   0  0  0  0  0  0  0  0  0  0  0  0  # atno 10763 bound_to 10752
  154.0487  135.6647  153.4802 H   0  0  0  0  0  0  0  0  0  0  0  0  # atno 10764 bound_to 10752
  153.0594  135.5124  154.7963 H   0  0  0  0  0  0  0  0  0  0  0  0  # atno 10765 bound_to 10752
  141.1533  133.7790  156.9954 H   0  0  0  0  0  0  0  0  0  0  0  0  # atno 11005 bound_to 11000
  145.6437  141.0278  143.1797 LP  0  0  0  0  0  0  0  0  0  0  0  0  # atno 17320 bound_to 7965
  144.7216  139.8012  143.7380 LP  0  0  0  0  0  0  0  0  0  0  0  0  # atno 17321 bound_to 7965
  139.6054  144.7595  151.3073 LP  0  0  0  0  0  0  0  0  0  0  0  0  # atno 17342 bound_to 10162
  140.7288  143.6926  150.7909 LP  0  0  0  0  0  0  0  0  0  0  0  0  # atno 17343 bound_to 10162
  157.7472  131.0403  150.4592 LP  0  0  0  0  0  0  0  0  0  0  0  0  # atno 17370 bound_to 10713
  156.4801  130.4072  149.6466 LP  0  0  0  0  0  0  0  0  0  0  0  0  # atno 17371 bound_to 10713
  140.0975  134.9555  157.1872 LP  0  0  0  0  0  0  0  0  0  0  0  0  # atno 17394 bound_to 11000
  140.3363  134.2754  155.7219 LP  0  0  0  0  0  0  0  0  0  0  0  0  # atno 17395 bound_to 11000

$$$$
