AV-unprocessed.smi:101|AV-procd|sdf|932|dock9
  -GOLD-   2262017443D 1   1.00000     0.00000
 Structure written by MMmdl.
 43 45  0  0  0  0  0  0  0  0  2 V2000
  144.2941  141.0764  157.9952 C   0  0  0  0  0  0  0  0  0  0  0  0
  144.6835  141.8104  156.7240 C   0  0  0  0  0  0  0  0  0  0  0  0
  145.8055  141.5100  156.0325 C   0  0  0  0  0  0  0  0  0  0  0  0
  146.1553  142.1823  154.8734 N   0  0  0  0  0  0  0  0  0  0  0  0
  147.4173  141.8386  154.1032 C   0  0  1  0  0  0  0  0  0  0  0  0
  148.4805  141.6672  154.9977 O   0  0  0  0  0  0  0  0  0  0  0  0
  148.8518  140.2947  155.0563 C   0  0  2  0  0  0  0  0  0  0  0  0
  150.3097  140.1845  155.5192 C   0  0  0  0  0  0  0  0  0  0  0  0
  150.5107  140.9999  156.6620 O   0  0  0  0  0  0  0  0  0  0  0  0
  151.6876  140.9676  157.3156 C   0  0  0  0  0  0  0  0  0  0  0  0
  152.5656  140.1300  157.0984 O   0  0  0  0  0  0  0  0  0  0  0  0
  151.8174  142.0530  158.3305 C   0  0  0  0  0  0  0  0  0  0  0  0
  152.8358  141.9690  159.3088 C   0  0  0  0  0  0  0  0  0  0  0  0
  152.9812  142.9771  160.2815 C   0  0  0  0  0  0  0  0  0  0  0  0
  152.1090  144.0810  160.2892 C   0  0  0  0  0  0  0  0  0  0  0  0
  151.0912  144.1759  159.3221 C   0  0  0  0  0  0  0  0  0  0  0  0
  150.9450  143.1693  158.3475 C   0  0  0  0  0  0  0  0  0  0  0  0
  148.5986  139.8261  153.6245 C   0  0  1  0  0  0  0  0  0  0  0  0
  148.5222  138.4187  153.4943 O   0  0  0  0  0  0  0  0  0  0  0  0
  147.2919  140.5328  153.2798 C   0  0  1  0  0  0  0  0  0  0  0  0
  146.1601  139.7484  153.6290 O   0  0  0  0  0  0  0  0  0  0  0  0
  145.3152  143.2150  154.3820 C   0  0  0  0  0  0  0  0  0  0  0  0
  145.6459  143.7780  153.3380 O   0  0  0  0  0  0  0  0  0  0  0  0
  144.1832  143.5273  155.0743 N   0  5  0  0  0  0  0  0  0  0  0  0
  143.8179  142.8832  156.2198 C   0  0  0  0  0  0  0  0  0  0  0  0
  142.7921  143.1741  156.8344 O   0  0  0  0  0  0  0  0  0  0  0  0
  145.0313  140.3167  158.2567 H   0  0  0  0  0  0  0  0  0  0  0  0
  143.3302  140.5824  157.8694 H   0  0  0  0  0  0  0  0  0  0  0  0
  144.2173  141.7742  158.8297 H   0  0  0  0  0  0  0  0  0  0  0  0
  146.4384  140.7195  156.4046 H   0  0  0  0  0  0  0  0  0  0  0  0
  147.6401  142.7161  153.4940 H   0  0  0  0  0  0  0  0  0  0  0  0
  148.1868  139.7809  155.7528 H   0  0  0  0  0  0  0  0  0  0  0  0
  150.5597  139.1463  155.7424 H   0  0  0  0  0  0  0  0  0  0  0  0
  150.9760  140.5179  154.7224 H   0  0  0  0  0  0  0  0  0  0  0  0
  153.5172  141.1304  159.3233 H   0  0  0  0  0  0  0  0  0  0  0  0
  153.7632  142.9026  161.0229 H   0  0  0  0  0  0  0  0  0  0  0  0
  152.2201  144.8535  161.0359 H   0  0  0  0  0  0  0  0  0  0  0  0
  150.4200  145.0220  159.3277 H   0  0  0  0  0  0  0  0  0  0  0  0
  150.1517  143.2720  157.6213 H   0  0  0  0  0  0  0  0  0  0  0  0
  149.3923  140.1993  152.9756 H   0  0  0  0  0  0  0  0  0  0  0  0
  148.8825  138.1826  152.6528 H   0  0  0  0  0  0  0  0  0  0  0  0
  147.2322  140.7734  152.2178 H   0  0  0  0  0  0  0  0  0  0  0  0
  145.4319  140.0268  153.0937 H   0  0  0  0  0  0  0  0  0  0  0  0
  1  2  1  0  0  0  0
  1 27  1  0  0  0  0
  1 28  1  0  0  0  0
  1 29  1  0  0  0  0
  2 25  1  0  0  0  0
  2  3  2  0  0  0  0
  3  4  1  0  0  0  0
  3 30  1  0  0  0  0
  4  5  1  0  0  0  0
  4 22  1  0  0  0  0
  5 20  1  0  0  0  0
  5  6  1  0  0  0  0
  5 31  1  0  0  0  0
  6  7  1  0  0  0  0
  7  8  1  0  0  0  0
  7 18  1  0  0  0  0
  7 32  1  0  0  0  0
  8  9  1  0  0  0  0
  8 33  1  0  0  0  0
  8 34  1  0  0  0  0
  9 10  1  0  0  0  0
 10 11  2  0  0  0  0
 10 12  1  0  0  0  0
 12 17  1  0  0  0  0
 12 13  2  0  0  0  0
 13 14  1  0  0  0  0
 13 35  1  0  0  0  0
 14 15  2  0  0  0  0
 14 36  1  0  0  0  0
 15 16  1  0  0  0  0
 15 37  1  0  0  0  0
 16 17  2  0  0  0  0
 16 38  1  0  0  0  0
 17 39  1  0  0  0  0
 18 19  1  0  0  0  0
 18 20  1  0  0  0  0
 18 40  1  0  0  0  0
 19 41  1  0  0  0  0
 20 21  1  0  0  0  0
 20 42  1  0  0  0  0
 21 43  1  0  0  0  0
 22 23  2  0  0  0  0
 22 24  1  0  0  0  0
 24 25  1  0  0  0  0
 25 26  2  0  0  0  0
M  CHG  1  24  -1
M  END
> <s_m_source_file>
AV-unprocessed.smi

> <i_m_source_file_index>
101

> <i_lp_mmshare_version>
43012

> <i_f3d_flags>
0

> <s_epik_input>
Tz1jMVtuSF1jKD1PKW4oW2NIXWMxW0NIM10pW0NAQEhdMk9bQ0BIXShbQ0BASF0oW09IXSlbQ0BIXTJbT0hdKVtDSDJdT0MoPU8pYzNbY0hdW2NIXVtjSF1bY0hdW2NIXTM=

> <s_epik_cmdline>
J2VwaWtfcHl0aG9uJywgJy1waCcsICc3LjAnLCAnLXRuJywgJzgnLCAnLW1hJywgJzIwMCcsICctbWV0YWxfYmluZGluZycsICctaW1hZScsICc8aW5maWxlLm1hZT4nLCAnLW9tYWUnLCAnPG91dGZpbGUubWFlPic=

> <r_lp_tautomer_probability>
0.999537

> <r_epik_Ionization_Penalty>
3.21006

> <r_epik_Ionization_Penalty_Charging>
5.75142e-08

> <r_epik_Ionization_Penalty_Neutral>
3.21006

> <r_epik_State_Penalty>
3.20925

> <r_epik_Charging_Adjusted_Penalty>
3.20925

> <i_epik_Tot_Q>
-1

> <i_epik_Tot_abs_Q>
1

> <r_epik_Metal_State_Penalty>
0.119957

> <b_epik_Metal_Only>
1

> <s_epik_Chemistry_Notes>
This compound has an ester and may undergo hydrolysis at high or low pH. This compound contains an acetal/aminal-like group ( X-CH(R)-Y where X, Y are N, S, or O) that may be acid/base labile, releasing an aldehyde.

> <s_lp_Force_Field>
OPLS_2005

> <r_lp_Energy>
48.7646

> <b_lp_Chiralities_Consistent>
1

> <s_lp_Variant>
AV-unprocessed.smi:101-20

> <Gold.Version>
5.8.1

> <Gold.Id.Protein>
6NUR|6NUR_protein|mol2

> <Gold.PLP.Fitness>
50.4077

> <Gold.PLP.PLP>
-43.4296

> <Gold.PLP.part.hbond>
-4.2687

> <Gold.PLP.part.metal>
0.0000

> <Gold.PLP.part.buried>
-3.0486

> <Gold.PLP.part.nonpolar>
-37.9930

> <Gold.PLP.part.repulsive>
0.7672

> <Gold.PLP.ligand.clash>
0.0000

> <Gold.PLP.ligand.torsion>
0.7456

> <Gold.PLP.Chemscore.Hbond>
2.7956

> <Gold.PLP.Chemscore.CHOScore>
0.0000

> <Gold.PLP.Chemscore.Metal>
0.0000

> <Gold.Chemscore.Hbonds>
donor molecule, donor type, donor heavy atom, donor atom, acceptor molecule, acceptor atom, score
      L1  H    19    41       P1  7948  0.49
      L1  H    21    43       P1 10175  1.00
      P1  H  7997  8010       L1    11  1.00

> <Gold.PLP.Chemscore.Internal.Correction>
0.0825

> <Gold.Rescore>
     Score         DG    S(hbond)    S(metal)    S(lipo)     H(rot)  DE(clash)    DE(int)     intcor
     15.76     -17.44       2.89        0.00      91.13       3.27       0.05       1.63       ----

> <Gold.Chemscore.Fitness>
15.7597

> <Gold.Chemscore.DG>
-17.4436

> <Gold.Chemscore.ZeroCoef>
-5.4800

> <Gold.Chemscore.Hbond>
2.8926

> <Gold.Chemscore.Metal>
0.0000

> <Gold.Chemscore.Lipo>
91.1293

> <Gold.Chemscore.Internal_Hbond>
0.0000

> <Gold.Chemscore.DEClash>
0.0500

> <Gold.Chemscore.DEInternal>
1.6339

> <Gold.Chemscore.Rot>
3.2656

> <Gold.Chemscore.Internal.Correction>
   9.000000E+99

> <Gold.Chemscore.Hbonds>
donor molecule, donor type, donor heavy atom, donor atom, acceptor molecule, acceptor atom, score
      L1  H    19    41       P1  7948  0.47
      L1  H    21    43       P1 10175  1.00
      P1  H  7997  8010       L1    11  0.98

> <Gold.Chemscore.Hbond.Weighted>
-9.6613

> <Gold.Chemscore.Metal.Weighted>
-0.0000

> <Gold.Chemscore.Lipo.Weighted>
-10.6621

> <Gold.Chemscore.Internal_Hbond.Weighted>
0.0000

> <Gold.Chemscore.DEClash.Weighted>
0.0500

> <Gold.Chemscore.DEInternal.Weighted>
1.6339

> <Gold.Chemscore.Rot.Weighted>
8.3598

> <Gold.Chemscore.Internal.Correction.Weighted>
   9.000000E+99

> <Gold.Protein.RotatedTorsions>
[ 6907 6896 6895 6894 ] final  116.54 input  -60.11 | X-H torsion
[ 7974 7965 7964 7962 ] final   12.36 input  175.53 | X-H torsion
[ 8008 7997 7996 7995 ] final   60.38 input   59.86 | X-H torsion
[ 10167 10162 10161 10158 ] final   86.72 input  -65.29 | X-H torsion
[ 10718 10713 10712 10709 ] final   12.79 input   66.30 | X-H torsion
[ 10763 10752 10751 10750 ] final  -66.11 input  -60.55 | X-H torsion
[ 11005 11000 10999 10996 ] final  -44.10 input  -57.11 | X-H torsion

> <Gold.Protein.ActiveResidues>
 VAL166  LYS551  ARG553  GLY616  TRP617  ASP618  TYR619  PRO620  LYS621  CYS622 
 ASP623  PHE694  ASN695  SER759  ASP760  ASP761  ALA762  ILE779  LEU786  VAL792 
 PHE793  MET794  SER795  GLU796  ALA797  LYS798  CYS799  TRP800  GLU811  SER814 

> <Gold.Protein.RotatedAtoms>
  152.4671  133.7948  159.6920 H   0  0  0  0  0  0  0  0  0  0  0  0  # atno 6907 bound_to 6896
  150.8642  133.7590  159.2989 H   0  0  0  0  0  0  0  0  0  0  0  0  # atno 6908 bound_to 6896
  151.5146  135.1069  159.9914 H   0  0  0  0  0  0  0  0  0  0  0  0  # atno 6909 bound_to 6896
  146.2353  139.9348  142.8491 H   0  0  0  0  0  0  0  0  0  0  0  0  # atno 7974 bound_to 7965
  155.5813  140.3491  155.4541 H   0  0  0  0  0  0  0  0  0  0  0  0  # atno 8008 bound_to 7997
  156.0371  140.1287  157.0221 H   0  0  0  0  0  0  0  0  0  0  0  0  # atno 8009 bound_to 7997
  154.4376  140.1031  156.6168 H   0  0  0  0  0  0  0  0  0  0  0  0  # atno 8010 bound_to 7997
  139.8847  144.6420  150.8804 H   0  0  0  0  0  0  0  0  0  0  0  0  # atno 10167 bound_to 10162
  157.0153  130.6133  149.5713 H   0  0  0  0  0  0  0  0  0  0  0  0  # atno 10718 bound_to 10713
  154.3549  135.6128  153.5661 H   0  0  0  0  0  0  0  0  0  0  0  0  # atno 10763 bound_to 10752
  152.9796  135.5801  154.4700 H   0  0  0  0  0  0  0  0  0  0  0  0  # atno 10764 bound_to 10752
  154.4427  135.2850  155.1813 H   0  0  0  0  0  0  0  0  0  0  0  0  # atno 10765 bound_to 10752
  141.0428  133.6773  156.2825 H   0  0  0  0  0  0  0  0  0  0  0  0  # atno 11005 bound_to 11000
  145.2010  140.9854  143.4156 LP  0  0  0  0  0  0  0  0  0  0  0  0  # atno 17320 bound_to 7965
  144.9774  139.3818  143.6279 LP  0  0  0  0  0  0  0  0  0  0  0  0  # atno 17321 bound_to 7965
  140.7738  143.3558  151.1925 LP  0  0  0  0  0  0  0  0  0  0  0  0  # atno 17342 bound_to 10162
  139.7164  143.9294  152.2968 LP  0  0  0  0  0  0  0  0  0  0  0  0  # atno 17343 bound_to 10162
  156.0121  130.5214  150.8022 LP  0  0  0  0  0  0  0  0  0  0  0  0  # atno 17370 bound_to 10713
  157.5290  131.0935  150.9979 LP  0  0  0  0  0  0  0  0  0  0  0  0  # atno 17371 bound_to 10713
  140.6203  134.5369  157.5546 LP  0  0  0  0  0  0  0  0  0  0  0  0  # atno 17394 bound_to 11000
  139.9289  134.8003  156.0989 LP  0  0  0  0  0  0  0  0  0  0  0  0  # atno 17395 bound_to 11000

$$$$
