AV-unprocessed.smi:1816|AV-procd|sdf|7364|dock7
  -GOLD-   22720 9 23D 1   1.00000     0.00000
 Structure written by MMmdl.
 36 37  0  0  0  0  0  0  0  0  2 V2000
  146.7631  139.4934  151.4300 C   0  0  0  0  0  0  0  0  0  0  0  0
  146.8144  139.4212  152.9729 C   0  0  2  0  0  0  0  0  0  0  0  0
  146.1133  138.1366  153.4870 C   0  0  0  0  0  0  0  0  0  0  0  0
  146.4956  136.9408  152.7420 N   0  0  0  0  0  0  0  0  0  0  0  0
  145.6341  136.0688  152.1998 C   0  0  0  0  0  0  0  0  0  0  0  0
  144.4116  136.1906  152.2774 O   0  0  0  0  0  0  0  0  0  0  0  0
  146.2793  135.0682  151.5795 N   0  0  0  0  0  0  0  0  0  0  0  0
  145.7144  133.9573  150.9056 C   0  0  0  0  0  0  0  0  0  0  0  0
  146.5257  133.0069  150.4387 N   0  0  0  0  0  0  0  0  0  0  0  0
  145.8207  131.9812  149.8020 C   0  0  0  0  0  0  0  0  0  0  0  0
  144.4607  132.1684  149.7948 C   0  0  0  0  0  0  0  0  0  0  0  0
  144.0044  133.6506  150.5910 S   0  0  0  0  0  0  0  0  0  0  0  0
  146.2075  140.6326  153.5964 N   0  3  0  0  0  0  0  0  0  0  0  0
  146.1709  140.6264  155.0816 C   0  0  0  0  0  0  0  0  0  0  0  0
  146.4619  142.0583  155.5518 C   0  0  0  0  0  0  0  0  0  0  0  0
  146.3824  142.9068  154.2885 C   0  0  0  0  0  0  0  0  0  0  0  0
  146.7961  141.9293  153.1950 C   0  0  0  0  0  0  0  0  0  0  0  0
  147.1986  138.6058  150.9711 H   0  0  0  0  0  0  0  0  0  0  0  0
  147.3263  140.3414  151.0410 H   0  0  0  0  0  0  0  0  0  0  0  0
  145.7370  139.5797  151.0716 H   0  0  0  0  0  0  0  0  0  0  0  0
  147.8641  139.3943  153.2696 H   0  0  0  0  0  0  0  0  0  0  0  0
  146.3214  137.9616  154.5433 H   0  0  0  0  0  0  0  0  0  0  0  0
  145.0317  138.2487  153.4061 H   0  0  0  0  0  0  0  0  0  0  0  0
  147.4842  136.7680  152.6299 H   0  0  0  0  0  0  0  0  0  0  0  0
  147.2881  135.1003  151.5924 H   0  0  0  0  0  0  0  0  0  0  0  0
  146.3689  131.1518  149.3800 H   0  0  0  0  0  0  0  0  0  0  0  0
  143.7030  131.5266  149.3706 H   0  0  0  0  0  0  0  0  0  0  0  0
  145.1875  140.2921  155.4137 H   0  0  0  0  0  0  0  0  0  0  0  0
  146.9125  139.9449  155.5016 H   0  0  0  0  0  0  0  0  0  0  0  0
  145.7703  142.3958  156.3242 H   0  0  0  0  0  0  0  0  0  0  0  0
  147.4703  142.1104  155.9651 H   0  0  0  0  0  0  0  0  0  0  0  0
  145.3548  143.2345  154.1246 H   0  0  0  0  0  0  0  0  0  0  0  0
  147.0171  143.7924  154.3294 H   0  0  0  0  0  0  0  0  0  0  0  0
  147.8842  141.8488  153.1668 H   0  0  0  0  0  0  0  0  0  0  0  0
  146.4498  142.2485  152.2115 H   0  0  0  0  0  0  0  0  0  0  0  0
  145.2438  140.6675  153.2961 H   0  0  0  0  0  0  0  0  0  0  0  0
  1  2  1  0  0  0  0
  1 18  1  0  0  0  0
  1 19  1  0  0  0  0
  1 20  1  0  0  0  0
  2  3  1  0  0  0  0
  2 13  1  0  0  0  0
  2 21  1  0  0  0  0
  3  4  1  0  0  0  0
  3 22  1  0  0  0  0
  3 23  1  0  0  0  0
  4  5  1  0  0  0  0
  4 24  1  0  0  0  0
  5  6  2  0  0  0  0
  5  7  1  0  0  0  0
  7  8  1  0  0  0  0
  7 25  1  0  0  0  0
  8 12  1  0  0  0  0
  8  9  2  0  0  0  0
  9 10  1  0  0  0  0
 10 11  2  0  0  0  0
 10 26  1  0  0  0  0
 11 12  1  0  0  0  0
 11 27  1  0  0  0  0
 13 17  1  0  0  0  0
 13 14  1  0  0  0  0
 13 36  1  0  0  0  0
 14 15  1  0  0  0  0
 14 28  1  0  0  0  0
 14 29  1  0  0  0  0
 15 16  1  0  0  0  0
 15 30  1  0  0  0  0
 15 31  1  0  0  0  0
 16 17  1  0  0  0  0
 16 32  1  0  0  0  0
 16 33  1  0  0  0  0
 17 34  1  0  0  0  0
 17 35  1  0  0  0  0
M  CHG  1  13   1
M  END
> <s_m_source_file>
AV-unprocessed.smi

> <i_m_source_file_index>
1816

> <i_lp_mmshare_version>
43012

> <i_f3d_flags>
0

> <s_epik_input>
W0NIMl0xW0NIMl1bQ0gyXVtDSDJdTjFbQ0BIXShbQ0gzXSlbQ0gyXVtOSF1DKD1PKVtOSF1jMm5bY0hdW2NIXXMy

> <s_epik_cmdline>
J2VwaWtfcHl0aG9uJywgJy1waCcsICc3LjAnLCAnLXRuJywgJzgnLCAnLW1hJywgJzIwMCcsICctbWV0YWxfYmluZGluZycsICctaW1hZScsICc8aW5maWxlLm1hZT4nLCAnLW9tYWUnLCAnPG91dGZpbGUubWFlPic=

> <r_lp_tautomer_probability>
0.999

> <r_epik_Ionization_Penalty>
0.000988651

> <r_epik_Ionization_Penalty_Charging>
0.000848324

> <r_epik_Ionization_Penalty_Neutral>
0.000140327

> <r_epik_State_Penalty>
0.000546901

> <r_epik_Charging_Adjusted_Penalty>
0.00139523

> <i_epik_Tot_Q>
1

> <i_epik_Tot_abs_Q>
1

> <r_epik_Metal_State_Penalty>
0.0571994

> <b_epik_Metal_Only>
0

> <s_lp_Force_Field>
OPLS_2005

> <r_lp_Energy>
26.1685

> <b_lp_Chiralities_Consistent>
1

> <s_lp_Variant>
AV-unprocessed.smi:1816-1

> <Gold.Version>
5.8.1

> <Gold.Id.Protein>
6NUR|6NUR_protein|mol2

> <Gold.PLP.Fitness>
43.8957

> <Gold.PLP.PLP>
-30.1547

> <Gold.PLP.part.hbond>
-3.0000

> <Gold.PLP.part.metal>
0.0000

> <Gold.PLP.part.buried>
-3.5199

> <Gold.PLP.part.nonpolar>
-24.5515

> <Gold.PLP.part.repulsive>
0.4550

> <Gold.PLP.ligand.clash>
0.0000

> <Gold.PLP.ligand.torsion>
0.1320

> <Gold.PLP.Chemscore.Hbond>
3.9600

> <Gold.PLP.Chemscore.CHOScore>
0.6979

> <Gold.PLP.Chemscore.Metal>
0.0000

> <Gold.Chemscore.Hbonds>
donor molecule, donor type, donor heavy atom, donor atom, acceptor molecule, acceptor atom, score
      L1  H     4    24       P1  7948  1.00
      L1  H     7    25       P1  7948  0.96
      L1  H    13    36       P1 10175  2.00
      L1  C    10    26       P1 10747  0.34

> <Gold.PLP.Chemscore.Internal.Correction>
0.0312

> <Gold.Rescore>
     Score         DG    S(hbond)    S(metal)    S(lipo)     H(rot)  DE(clash)    DE(int)     intcor
     17.84     -19.08       2.79        0.00      71.54       1.60       0.50       0.74       ----

> <Gold.Chemscore.Fitness>
17.8364

> <Gold.Chemscore.DG>
-19.0753

> <Gold.Chemscore.ZeroCoef>
-5.4800

> <Gold.Chemscore.Hbond>
2.7930

> <Gold.Chemscore.Metal>
0.0000

> <Gold.Chemscore.Lipo>
71.5408

> <Gold.Chemscore.Internal_Hbond>
0.0000

> <Gold.Chemscore.DEClash>
0.5018

> <Gold.Chemscore.DEInternal>
0.7371

> <Gold.Chemscore.Rot>
1.6029

> <Gold.Chemscore.Internal.Correction>
   9.000000E+99

> <Gold.Chemscore.Hbonds>
donor molecule, donor type, donor heavy atom, donor atom, acceptor molecule, acceptor atom, score
      L1  H     4    24       P1  7948  0.99
      L1  H     7    25       P1  7948  0.77
      L1  H    13    36       P1 10175  0.88

> <Gold.Chemscore.Hbond.Weighted>
-9.3286

> <Gold.Chemscore.Metal.Weighted>
-0.0000

> <Gold.Chemscore.Lipo.Weighted>
-8.3703

> <Gold.Chemscore.Internal_Hbond.Weighted>
0.0000

> <Gold.Chemscore.DEClash.Weighted>
0.5018

> <Gold.Chemscore.DEInternal.Weighted>
0.7371

> <Gold.Chemscore.Rot.Weighted>
4.1035

> <Gold.Chemscore.Internal.Correction.Weighted>
   9.000000E+99

> <Gold.Protein.RotatedTorsions>
[ 6907 6896 6895 6894 ] final  101.48 input  -60.11 | X-H torsion
[ 7974 7965 7964 7962 ] final  151.86 input  175.53 | X-H torsion
[ 8008 7997 7996 7995 ] final -113.00 input   59.86 | X-H torsion
[ 10167 10162 10161 10158 ] final   40.26 input  -65.29 | X-H torsion
[ 10718 10713 10712 10709 ] final -155.85 input   66.30 | X-H torsion
[ 10763 10752 10751 10750 ] final -136.60 input  -60.55 | X-H torsion
[ 11005 11000 10999 10996 ] final    7.17 input  -57.11 | X-H torsion

> <Gold.Protein.ActiveResidues>
 VAL166  LYS551  ARG553  GLY616  TRP617  ASP618  TYR619  PRO620  LYS621  CYS622 
 ASP623  PHE694  ASN695  SER759  ASP760  ASP761  ALA762  ILE779  LEU786  VAL792 
 PHE793  MET794  SER795  GLU796  ALA797  LYS798  CYS799  TRP800  GLU811  SER814 

> <Gold.Protein.RotatedAtoms>
  152.5348  134.0119  159.7941 H   0  0  0  0  0  0  0  0  0  0  0  0  # atno 6907 bound_to 6896
  151.0320  133.5774  159.2667 H   0  0  0  0  0  0  0  0  0  0  0  0  # atno 6908 bound_to 6896
  151.2775  135.0711  159.9211 H   0  0  0  0  0  0  0  0  0  0  0  0  # atno 6909 bound_to 6896
  144.8262  139.6593  143.6079 H   0  0  0  0  0  0  0  0  0  0  0  0  # atno 7974 bound_to 7965
  155.0139  140.0393  157.2410 H   0  0  0  0  0  0  0  0  0  0  0  0  # atno 8008 bound_to 7997
  154.7436  140.2753  155.6328 H   0  0  0  0  0  0  0  0  0  0  0  0  # atno 8009 bound_to 7997
  156.2870  140.2660  156.2171 H   0  0  0  0  0  0  0  0  0  0  0  0  # atno 8010 bound_to 7997
  140.3759  144.2043  150.6131 H   0  0  0  0  0  0  0  0  0  0  0  0  # atno 10167 bound_to 10162
  156.5185  130.8467  151.2673 H   0  0  0  0  0  0  0  0  0  0  0  0  # atno 10718 bound_to 10713
  154.8680  135.3667  154.5088 H   0  0  0  0  0  0  0  0  0  0  0  0  # atno 10763 bound_to 10752
  153.5724  135.7020  153.5504 H   0  0  0  0  0  0  0  0  0  0  0  0  # atno 10764 bound_to 10752
  153.3530  135.4067  155.1623 H   0  0  0  0  0  0  0  0  0  0  0  0  # atno 10765 bound_to 10752
  140.5513  134.0281  155.7938 H   0  0  0  0  0  0  0  0  0  0  0  0  # atno 11005 bound_to 11000
  146.2567  139.6319  142.9390 LP  0  0  0  0  0  0  0  0  0  0  0  0  # atno 17320 bound_to 7965
  145.4994  141.0438  143.2549 LP  0  0  0  0  0  0  0  0  0  0  0  0  # atno 17321 bound_to 7965
  140.4986  143.2325  151.8712 LP  0  0  0  0  0  0  0  0  0  0  0  0  # atno 17342 bound_to 10162
  139.4799  144.5085  151.8965 LP  0  0  0  0  0  0  0  0  0  0  0  0  # atno 17343 bound_to 10162
  157.7440  130.9925  150.2640 LP  0  0  0  0  0  0  0  0  0  0  0  0  # atno 17370 bound_to 10713
  156.3172  130.3780  149.7608 LP  0  0  0  0  0  0  0  0  0  0  0  0  # atno 17371 bound_to 10713
  141.1170  133.9524  157.2803 LP  0  0  0  0  0  0  0  0  0  0  0  0  # atno 17394 bound_to 11000
  139.9454  135.0185  156.8835 LP  0  0  0  0  0  0  0  0  0  0  0  0  # atno 17395 bound_to 11000

$$$$
