AV-unprocessed.smi:2448|AV-procd|sdf|9658|dock10
  -GOLD-   2272013293D 1   1.00000     0.00000
 Structure written by MMmdl.
 38 39  0  0  0  0  0  0  0  0  2 V2000
  150.2016  142.2468  159.3812 O   0  0  0  0  0  0  0  0  0  0  0  0
  151.3348  142.8302  158.7608 C   0  0  2  0  0  0  0  0  0  0  0  0
  151.3196  142.4368  157.2710 C   0  0  0  0  0  0  0  0  0  0  0  0
  149.9420  142.2293  156.7706 N   0  3  0  0  0  0  0  0  0  0  0  0
  149.7563  141.0355  155.9122 C   0  0  1  0  0  0  0  0  0  0  0  0
  150.1088  139.7424  156.6815 C   0  0  0  0  0  0  0  0  0  0  0  0
  150.6381  138.6329  155.7909 C   0  0  0  0  0  0  0  0  0  0  0  0
  150.8247  137.3304  156.2976 C   0  0  0  0  0  0  0  0  0  0  0  0
  151.2940  136.3301  155.4223 C   0  0  0  0  0  0  0  0  0  0  0  0
  151.5720  136.5560  154.1203 N   0  0  0  0  0  0  0  0  0  0  0  0
  151.3974  137.8071  153.6433 C   0  0  0  0  0  0  0  0  0  0  0  0
  150.9326  138.8773  154.4333 C   0  0  0  0  0  0  0  0  0  0  0  0
  148.3128  141.0019  155.3742 C   0  0  0  0  0  0  0  0  0  0  0  0
  148.1016  139.8532  154.7313 F   0  0  0  0  0  0  0  0  0  0  0  0
  147.4434  141.0853  156.3808 F   0  0  0  0  0  0  0  0  0  0  0  0
  148.1010  142.0123  154.5304 F   0  0  0  0  0  0  0  0  0  0  0  0
  152.5878  142.3088  159.4838 C   0  0  0  0  0  0  0  0  0  0  0  0
  152.6695  143.0087  160.8442 C   0  0  0  0  0  0  0  0  0  0  0  0
  152.0162  144.6839  160.6356 S   0  0  0  0  0  0  0  0  0  0  0  0
  151.3261  144.3519  158.9927 C   0  0  0  0  0  0  0  0  0  0  0  0
  149.4209  142.6044  158.9857 H   0  0  0  0  0  0  0  0  0  0  0  0
  151.7913  143.2164  156.6710 H   0  0  0  0  0  0  0  0  0  0  0  0
  151.9101  141.5321  157.1261 H   0  0  0  0  0  0  0  0  0  0  0  0
  149.3133  142.1608  157.5583 H   0  0  0  0  0  0  0  0  0  0  0  0
  150.4180  141.1176  155.0478 H   0  0  0  0  0  0  0  0  0  0  0  0
  150.8420  139.9564  157.4602 H   0  0  0  0  0  0  0  0  0  0  0  0
  149.2251  139.3647  157.1972 H   0  0  0  0  0  0  0  0  0  0  0  0
  150.6105  137.0975  157.3305 H   0  0  0  0  0  0  0  0  0  0  0  0
  151.4449  135.3212  155.7762 H   0  0  0  0  0  0  0  0  0  0  0  0
  151.6289  137.9591  152.5996 H   0  0  0  0  0  0  0  0  0  0  0  0
  150.8032  139.8589  154.0008 H   0  0  0  0  0  0  0  0  0  0  0  0
  152.5884  141.2230  159.5877 H   0  0  0  0  0  0  0  0  0  0  0  0
  153.4745  142.5701  158.9045 H   0  0  0  0  0  0  0  0  0  0  0  0
  152.0456  142.4893  161.5722 H   0  0  0  0  0  0  0  0  0  0  0  0
  153.6868  143.0307  161.2354 H   0  0  0  0  0  0  0  0  0  0  0  0
  151.9735  144.8441  158.2662 H   0  0  0  0  0  0  0  0  0  0  0  0
  150.3321  144.7893  158.8910 H   0  0  0  0  0  0  0  0  0  0  0  0
  149.6881  143.0453  156.2319 H   0  0  0  0  0  0  0  0  0  0  0  0
  1  2  1  0  0  0  0
  1 21  1  0  0  0  0
  2 20  1  0  0  0  0
  2  3  1  0  0  0  0
  2 17  1  0  0  0  0
  3  4  1  0  0  0  0
  3 22  1  0  0  0  0
  3 23  1  0  0  0  0
  4  5  1  0  0  0  0
  4 24  1  0  0  0  0
  4 38  1  0  0  0  0
  5  6  1  0  0  0  0
  5 13  1  0  0  0  0
  5 25  1  0  0  0  0
  6  7  1  0  0  0  0
  6 26  1  0  0  0  0
  6 27  1  0  0  0  0
  7 12  1  0  0  0  0
  7  8  2  0  0  0  0
  8  9  1  0  0  0  0
  8 28  1  0  0  0  0
  9 10  2  0  0  0  0
  9 29  1  0  0  0  0
 10 11  1  0  0  0  0
 11 12  2  0  0  0  0
 11 30  1  0  0  0  0
 12 31  1  0  0  0  0
 13 14  1  0  0  0  0
 13 15  1  0  0  0  0
 13 16  1  0  0  0  0
 17 18  1  0  0  0  0
 17 32  1  0  0  0  0
 17 33  1  0  0  0  0
 18 19  1  0  0  0  0
 18 34  1  0  0  0  0
 18 35  1  0  0  0  0
 19 20  1  0  0  0  0
 20 36  1  0  0  0  0
 20 37  1  0  0  0  0
M  CHG  1   4   1
M  END
> <s_m_source_file>
AV-unprocessed.smi

> <i_m_source_file_index>
2448

> <i_lp_mmshare_version>
43012

> <i_f3d_flags>
0

> <s_epik_input>
W0NIMl0xU1tDSDJdW0NIMl1bQ0BAXTEoW09IXSlbQ0gyXVtOSF1bQ0BASF0oQyhGKShGKUYpW0NIMl1jMltjSF1bY0hdbltjSF1bY0hdMg==

> <s_epik_cmdline>
J2VwaWtfcHl0aG9uJywgJy1waCcsICc3LjAnLCAnLXRuJywgJzgnLCAnLW1hJywgJzIwMCcsICctbWV0YWxfYmluZGluZycsICctaW1hZScsICc8aW5maWxlLm1hZT4nLCAnLW9tYWUnLCAnPG91dGZpbGUubWFlPic=

> <r_epik_Ionization_Penalty>
1.19945

> <r_epik_Ionization_Penalty_Charging>
1.19892

> <r_epik_Ionization_Penalty_Neutral>
0.000532129

> <r_epik_State_Penalty>
0.752927

> <r_epik_Charging_Adjusted_Penalty>
1.95185

> <i_epik_Tot_Q>
1

> <i_epik_Tot_abs_Q>
1

> <r_epik_Metal_State_Penalty>
0.804507

> <b_epik_Metal_Only>
0

> <s_lp_Force_Field>
OPLS_2005

> <r_lp_Energy>
23.5245

> <b_lp_Chiralities_Consistent>
1

> <s_lp_Variant>
AV-unprocessed.smi:2448-8

> <Gold.Version>
5.8.1

> <Gold.Id.Protein>
6NUR|6NUR_protein|mol2

> <Gold.PLP.Fitness>
48.6360

> <Gold.PLP.PLP>
-39.3038

> <Gold.PLP.part.hbond>
-2.8277

> <Gold.PLP.part.metal>
0.0000

> <Gold.PLP.part.buried>
-4.5551

> <Gold.PLP.part.nonpolar>
-32.1605

> <Gold.PLP.part.repulsive>
0.2016

> <Gold.PLP.ligand.clash>
0.0000

> <Gold.PLP.ligand.torsion>
1.4571

> <Gold.PLP.Chemscore.Hbond>
2.9840

> <Gold.PLP.Chemscore.CHOScore>
0.9061

> <Gold.PLP.Chemscore.Metal>
0.0000

> <Gold.Chemscore.Hbonds>
donor molecule, donor type, donor heavy atom, donor atom, acceptor molecule, acceptor atom, score
      L1  H     4    38       P1  8028  2.00
      P1  H 10752 10763       L1    10  0.25
      L1  C    11    30       P1  7949  0.57

> <Gold.PLP.Chemscore.Internal.Correction>
0.5761

> <Gold.Rescore>
     Score         DG    S(hbond)    S(metal)    S(lipo)     H(rot)  DE(clash)    DE(int)     intcor
     16.00     -18.00       1.88        0.00     105.57       2.39       0.11       1.88       ----

> <Gold.Chemscore.Fitness>
16.0023

> <Gold.Chemscore.DG>
-17.9953

> <Gold.Chemscore.ZeroCoef>
-5.4800

> <Gold.Chemscore.Hbond>
1.8782

> <Gold.Chemscore.Metal>
0.0000

> <Gold.Chemscore.Lipo>
105.5702

> <Gold.Chemscore.Internal_Hbond>
0.0000

> <Gold.Chemscore.DEClash>
0.1147

> <Gold.Chemscore.DEInternal>
1.8784

> <Gold.Chemscore.Rot>
2.3866

> <Gold.Chemscore.Internal.Correction>
   9.000000E+99

> <Gold.Chemscore.Hbonds>
donor molecule, donor type, donor heavy atom, donor atom, acceptor molecule, acceptor atom, score
      L1  H     4    38       P1  8028  0.99

> <Gold.Chemscore.Hbond.Weighted>
-6.2733

> <Gold.Chemscore.Metal.Weighted>
-0.0000

> <Gold.Chemscore.Lipo.Weighted>
-12.3517

> <Gold.Chemscore.Internal_Hbond.Weighted>
0.0000

> <Gold.Chemscore.DEClash.Weighted>
0.1147

> <Gold.Chemscore.DEInternal.Weighted>
1.8784

> <Gold.Chemscore.Rot.Weighted>
6.1096

> <Gold.Chemscore.Internal.Correction.Weighted>
   9.000000E+99

> <Gold.Protein.RotatedTorsions>
[ 6907 6896 6895 6894 ] final  164.88 input  -60.11 | X-H torsion
[ 7974 7965 7964 7962 ] final  -96.63 input  175.53 | X-H torsion
[ 8008 7997 7996 7995 ] final  156.32 input   59.86 | X-H torsion
[ 10167 10162 10161 10158 ] final -136.20 input  -65.29 | X-H torsion
[ 10718 10713 10712 10709 ] final  101.81 input   66.30 | X-H torsion
[ 10763 10752 10751 10750 ] final   49.08 input  -60.55 | X-H torsion
[ 11005 11000 10999 10996 ] final   12.02 input  -57.11 | X-H torsion

> <Gold.Protein.ActiveResidues>
 VAL166  LYS551  ARG553  GLY616  TRP617  ASP618  TYR619  PRO620  LYS621  CYS622 
 ASP623  PHE694  ASN695  SER759  ASP760  ASP761  ALA762  ILE779  LEU786  VAL792 
 PHE793  MET794  SER795  GLU796  ALA797  LYS798  CYS799  TRP800  GLU811  SER814 

> <Gold.Protein.RotatedAtoms>
  151.9031  133.3542  159.3837 H   0  0  0  0  0  0  0  0  0  0  0  0  # atno 6907 bound_to 6896
  150.7075  134.4808  159.5479 H   0  0  0  0  0  0  0  0  0  0  0  0  # atno 6908 bound_to 6896
  152.2400  134.8238  160.0512 H   0  0  0  0  0  0  0  0  0  0  0  0  # atno 6909 bound_to 6896
  145.3444  140.9465  143.2590 H   0  0  0  0  0  0  0  0  0  0  0  0  # atno 7974 bound_to 7965
  156.2429  140.1915  156.6937 H   0  0  0  0  0  0  0  0  0  0  0  0  # atno 8008 bound_to 7997
  154.6232  140.0605  156.9668 H   0  0  0  0  0  0  0  0  0  0  0  0  # atno 8009 bound_to 7997
  155.1828  140.3278  155.4375 H   0  0  0  0  0  0  0  0  0  0  0  0  # atno 8010 bound_to 7997
  139.8702  143.6967  152.2640 H   0  0  0  0  0  0  0  0  0  0  0  0  # atno 10167 bound_to 10162
  157.6819  131.0736  150.5308 H   0  0  0  0  0  0  0  0  0  0  0  0  # atno 10718 bound_to 10713
  152.9788  135.5923  154.4031 H   0  0  0  0  0  0  0  0  0  0  0  0  # atno 10763 bound_to 10752
  154.3674  135.2767  155.2287 H   0  0  0  0  0  0  0  0  0  0  0  0  # atno 10764 bound_to 10752
  154.4258  135.6048  153.6092 H   0  0  0  0  0  0  0  0  0  0  0  0  # atno 10765 bound_to 10752
  140.4967  134.0787  155.7784 H   0  0  0  0  0  0  0  0  0  0  0  0  # atno 11005 bound_to 11000
  144.8765  139.4963  143.6743 LP  0  0  0  0  0  0  0  0  0  0  0  0  # atno 17320 bound_to 7965
  146.2994  139.7379  142.9102 LP  0  0  0  0  0  0  0  0  0  0  0  0  # atno 17321 bound_to 7965
  139.7291  144.7586  151.0831 LP  0  0  0  0  0  0  0  0  0  0  0  0  # atno 17342 bound_to 10162
  140.7762  143.5111  150.9652 LP  0  0  0  0  0  0  0  0  0  0  0  0  # atno 17343 bound_to 10162
  156.5618  130.4257  149.6059 LP  0  0  0  0  0  0  0  0  0  0  0  0  # atno 17370 bound_to 10713
  156.2814  130.7073  151.1898 LP  0  0  0  0  0  0  0  0  0  0  0  0  # atno 17371 bound_to 10713
  141.1457  133.9060  157.2222 LP  0  0  0  0  0  0  0  0  0  0  0  0  # atno 17394 bound_to 11000
  139.9737  135.0120  156.9578 LP  0  0  0  0  0  0  0  0  0  0  0  0  # atno 17395 bound_to 11000

$$$$
