AV-unprocessed.smi:928|AV-procd|sdf|4193|dock6
  -GOLD-   22720 2103D 1   1.00000     0.00000
 Structure written by MMmdl.
 43 44  0  0  0  0  0  0  0  0  1 V2000
  151.0396  141.7536  157.0955 C   0  0  0  0  0  0  0  0  0  0  0  0
  151.1904  140.9633  155.7911 C   0  0  0  0  0  0  0  0  0  0  0  0
  149.9153  140.8507  155.0226 C   0  0  0  0  0  0  0  0  0  0  0  0
  149.0852  141.8690  154.6236 C   0  0  0  0  0  0  0  0  0  0  0  0
  147.9679  141.4384  153.9048 N   0  0  0  0  0  0  0  0  0  0  0  0
  147.9306  140.1113  153.7675 C   0  0  0  0  0  0  0  0  0  0  0  0
  146.8673  139.3915  153.0088 C   0  0  0  0  0  0  0  0  0  0  0  0
  146.3990  138.1181  153.7308 C   0  0  0  0  0  0  0  0  0  0  0  0
  146.6624  136.9216  152.9405 N   0  0  0  0  0  0  0  0  0  0  0  0
  145.7881  135.9262  152.7407 C   0  0  0  0  0  0  0  0  0  0  0  0
  144.6501  135.9021  153.2101 O   0  0  0  0  0  0  0  0  0  0  0  0
  146.3050  134.9599  151.9696 N   0  0  0  0  0  0  0  0  0  0  0  0
  145.6113  133.7380  151.5669 C   0  0  2  0  0  0  0  0  0  0  0  0
  146.3123  133.0507  150.3763 C   0  0  0  0  0  0  0  0  0  0  0  0
  145.5722  131.7674  149.9657 C   0  0  0  0  0  0  0  0  0  0  0  0
  144.0934  132.0466  149.6516 C   0  0  0  0  0  0  0  0  0  0  0  0
  143.3883  132.7466  150.8282 C   0  0  0  0  0  0  0  0  0  0  0  0
  144.1232  134.0286  151.2660 C   0  0  2  0  0  0  0  0  0  0  0  0
  143.9907  135.0036  150.2475 O   0  0  0  0  0  0  0  0  0  0  0  0
  149.3070  139.2995  154.5036 S   0  0  0  0  0  0  0  0  0  0  0  0
  151.9887  141.8076  157.6291 H   0  0  0  0  0  0  0  0  0  0  0  0
  150.3117  141.2833  157.7574 H   0  0  0  0  0  0  0  0  0  0  0  0
  150.7075  142.7742  156.9031 H   0  0  0  0  0  0  0  0  0  0  0  0
  151.9470  141.4390  155.1662 H   0  0  0  0  0  0  0  0  0  0  0  0
  151.5692  139.9660  156.0161 H   0  0  0  0  0  0  0  0  0  0  0  0
  149.2157  142.9262  154.8021 H   0  0  0  0  0  0  0  0  0  0  0  0
  146.0275  140.0711  152.8594 H   0  0  0  0  0  0  0  0  0  0  0  0
  147.2516  139.1476  152.0174 H   0  0  0  0  0  0  0  0  0  0  0  0
  146.8781  138.0345  154.7079 H   0  0  0  0  0  0  0  0  0  0  0  0
  145.3256  138.1699  153.9151 H   0  0  0  0  0  0  0  0  0  0  0  0
  147.5740  136.8492  152.5130 H   0  0  0  0  0  0  0  0  0  0  0  0
  147.2505  135.0749  151.6366 H   0  0  0  0  0  0  0  0  0  0  0  0
  145.6356  133.0468  152.4121 H   0  0  0  0  0  0  0  0  0  0  0  0
  146.3640  133.7324  149.5264 H   0  0  0  0  0  0  0  0  0  0  0  0
  147.3427  132.8052  150.6364 H   0  0  0  0  0  0  0  0  0  0  0  0
  146.0582  131.3203  149.0980 H   0  0  0  0  0  0  0  0  0  0  0  0
  145.6410  131.0345  150.7703 H   0  0  0  0  0  0  0  0  0  0  0  0
  144.0214  132.6668  148.7573 H   0  0  0  0  0  0  0  0  0  0  0  0
  143.5821  131.1127  149.4175 H   0  0  0  0  0  0  0  0  0  0  0  0
  142.3547  132.9737  150.5639 H   0  0  0  0  0  0  0  0  0  0  0  0
  143.3406  132.0578  151.6726 H   0  0  0  0  0  0  0  0  0  0  0  0
  143.6426  134.4254  152.1611 H   0  0  0  0  0  0  0  0  0  0  0  0
  143.1134  134.9583  149.9006 H   0  0  0  0  0  0  0  0  0  0  0  0
  1  2  1  0  0  0  0
  1 21  1  0  0  0  0
  1 22  1  0  0  0  0
  1 23  1  0  0  0  0
  2  3  1  0  0  0  0
  2 24  1  0  0  0  0
  2 25  1  0  0  0  0
  3 20  1  0  0  0  0
  3  4  2  0  0  0  0
  4  5  1  0  0  0  0
  4 26  1  0  0  0  0
  5  6  2  0  0  0  0
  6  7  1  0  0  0  0
  6 20  1  0  0  0  0
  7  8  1  0  0  0  0
  7 27  1  0  0  0  0
  7 28  1  0  0  0  0
  8  9  1  0  0  0  0
  8 29  1  0  0  0  0
  8 30  1  0  0  0  0
  9 10  1  0  0  0  0
  9 31  1  0  0  0  0
 10 11  2  0  0  0  0
 10 12  1  0  0  0  0
 12 13  1  0  0  0  0
 12 32  1  0  0  0  0
 13 18  1  0  0  0  0
 13 14  1  0  0  0  0
 13 33  1  0  0  0  0
 14 15  1  0  0  0  0
 14 34  1  0  0  0  0
 14 35  1  0  0  0  0
 15 16  1  0  0  0  0
 15 36  1  0  0  0  0
 15 37  1  0  0  0  0
 16 17  1  0  0  0  0
 16 38  1  0  0  0  0
 16 39  1  0  0  0  0
 17 18  1  0  0  0  0
 17 40  1  0  0  0  0
 17 41  1  0  0  0  0
 18 19  1  0  0  0  0
 18 42  1  0  0  0  0
 19 43  1  0  0  0  0
M  END
> <s_m_source_file>
AV-unprocessed.smi

> <i_m_source_file_index>
928

> <i_lp_mmshare_version>
43012

> <i_f3d_flags>
0

> <s_epik_input>
W0NIM11bQ0gyXWMxW2NIXW5jKHMxKVtDSDJdW0NIMl1bTkhdQyg9TylbTkhdW0NAQEhdMltDSDJdW0NIMl1bQ0gyXVtDSDJdW0NASF0yW09IXQ==

> <s_epik_cmdline>
J2VwaWtfcHl0aG9uJywgJy1waCcsICc3LjAnLCAnLXRuJywgJzgnLCAnLW1hJywgJzIwMCcsICctbWV0YWxfYmluZGluZycsICctaW1hZScsICc8aW5maWxlLm1hZT4nLCAnLW9tYWUnLCAnPG91dGZpbGUubWFlPic=

> <r_epik_Ionization_Penalty>
0.000957396

> <r_epik_Ionization_Penalty_Charging>
0

> <r_epik_Ionization_Penalty_Neutral>
0.000957396

> <r_epik_State_Penalty>
0.000586538

> <r_epik_Charging_Adjusted_Penalty>
0.000586538

> <i_epik_Tot_Q>
0

> <i_epik_Tot_abs_Q>
0

> <r_epik_Metal_State_Penalty>
-0

> <b_epik_Metal_Only>
0

> <s_lp_Force_Field>
OPLS_2005

> <r_lp_Energy>
-0.721606

> <b_lp_Chiralities_Consistent>
1

> <s_lp_Variant>
AV-unprocessed.smi:928-3

> <Gold.Version>
5.8.1

> <Gold.Id.Protein>
6NUR|6NUR_protein|mol2

> <Gold.PLP.Fitness>
45.6635

> <Gold.PLP.PLP>
-37.2655

> <Gold.PLP.part.hbond>
-2.6908

> <Gold.PLP.part.metal>
0.0000

> <Gold.PLP.part.buried>
-0.3357

> <Gold.PLP.part.nonpolar>
-33.6984

> <Gold.PLP.part.repulsive>
0.2671

> <Gold.PLP.ligand.clash>
0.0000

> <Gold.PLP.ligand.torsion>
0.9870

> <Gold.PLP.Chemscore.Hbond>
2.4488

> <Gold.PLP.Chemscore.CHOScore>
1.0000

> <Gold.PLP.Chemscore.Metal>
0.0000

> <Gold.Chemscore.Hbonds>
donor molecule, donor type, donor heavy atom, donor atom, acceptor molecule, acceptor atom, score
      L1  H     9    31       P1  7948  1.00
      L1  H    12    32       P1  7948  0.90
      L1  H    19    43       P1 10186  0.62
      L1  C     4    26       P1  8028  0.92

> <Gold.PLP.Chemscore.Internal.Correction>
0.0258

> <Gold.Rescore>
     Score         DG    S(hbond)    S(metal)    S(lipo)     H(rot)  DE(clash)    DE(int)     intcor
     16.14     -19.40       2.16        0.00     105.59       2.21       0.66       2.59       ----

> <Gold.Chemscore.Fitness>
16.1447

> <Gold.Chemscore.DG>
-19.4003

> <Gold.Chemscore.ZeroCoef>
-5.4800

> <Gold.Chemscore.Hbond>
2.1618

> <Gold.Chemscore.Metal>
0.0000

> <Gold.Chemscore.Lipo>
105.5864

> <Gold.Chemscore.Internal_Hbond>
0.0000

> <Gold.Chemscore.DEClash>
0.6617

> <Gold.Chemscore.DEInternal>
2.5939

> <Gold.Chemscore.Rot>
2.2084

> <Gold.Chemscore.Internal.Correction>
   9.000000E+99

> <Gold.Chemscore.Hbonds>
donor molecule, donor type, donor heavy atom, donor atom, acceptor molecule, acceptor atom, score
      L1  H     9    31       P1  7948  0.99
      L1  H    12    32       P1  7948  0.73
      L1  H    19    43       P1 10186  0.33

> <Gold.Chemscore.Hbond.Weighted>
-7.2203

> <Gold.Chemscore.Metal.Weighted>
-0.0000

> <Gold.Chemscore.Lipo.Weighted>
-12.3536

> <Gold.Chemscore.Internal_Hbond.Weighted>
0.0000

> <Gold.Chemscore.DEClash.Weighted>
0.6617

> <Gold.Chemscore.DEInternal.Weighted>
2.5939

> <Gold.Chemscore.Rot.Weighted>
5.6535

> <Gold.Chemscore.Internal.Correction.Weighted>
   9.000000E+99

> <Gold.Protein.RotatedTorsions>
[ 6907 6896 6895 6894 ] final  162.73 input  -60.11 | X-H torsion
[ 7974 7965 7964 7962 ] final -106.26 input  175.53 | X-H torsion
[ 8008 7997 7996 7995 ] final  115.35 input   59.86 | X-H torsion
[ 10167 10162 10161 10158 ] final  135.72 input  -65.29 | X-H torsion
[ 10718 10713 10712 10709 ] final    6.96 input   66.30 | X-H torsion
[ 10763 10752 10751 10750 ] final  167.80 input  -60.55 | X-H torsion
[ 11005 11000 10999 10996 ] final  -82.32 input  -57.11 | X-H torsion

> <Gold.Protein.ActiveResidues>
 VAL166  LYS551  ARG553  GLY616  TRP617  ASP618  TYR619  PRO620  LYS621  CYS622 
 ASP623  PHE694  ASN695  SER759  ASP760  ASP761  ALA762  ILE779  LEU786  VAL792 
 PHE793  MET794  SER795  GLU796  ALA797  LYS798  CYS799  TRP800  GLU811  SER814 

> <Gold.Protein.RotatedAtoms>
  151.9360  133.3624  159.3947 H   0  0  0  0  0  0  0  0  0  0  0  0  # atno 6907 bound_to 6896
  150.7007  134.4488  159.5336 H   0  0  0  0  0  0  0  0  0  0  0  0  # atno 6908 bound_to 6896
  152.2137  134.8478  160.0545 H   0  0  0  0  0  0  0  0  0  0  0  0  # atno 6909 bound_to 6896
  145.2201  140.9131  143.3264 H   0  0  0  0  0  0  0  0  0  0  0  0  # atno 7974 bound_to 7965
  156.2376  140.2940  156.0356 H   0  0  0  0  0  0  0  0  0  0  0  0  # atno 8008 bound_to 7997
  155.2045  140.0410  157.2940 H   0  0  0  0  0  0  0  0  0  0  0  0  # atno 8009 bound_to 7997
  154.6108  140.2451  155.7679 H   0  0  0  0  0  0  0  0  0  0  0  0  # atno 8010 bound_to 7997
  139.5207  144.6502  151.5323 H   0  0  0  0  0  0  0  0  0  0  0  0  # atno 10167 bound_to 10162
  156.9299  130.5822  149.5649 H   0  0  0  0  0  0  0  0  0  0  0  0  # atno 10718 bound_to 10713
  154.3591  135.2753  155.2330 H   0  0  0  0  0  0  0  0  0  0  0  0  # atno 10763 bound_to 10752
  154.4526  135.5927  153.6205 H   0  0  0  0  0  0  0  0  0  0  0  0  # atno 10764 bound_to 10752
  152.9844  135.6045  154.3810 H   0  0  0  0  0  0  0  0  0  0  0  0  # atno 10765 bound_to 10752
  141.1663  133.7239  156.8555 H   0  0  0  0  0  0  0  0  0  0  0  0  # atno 11005 bound_to 11000
  144.9773  139.3818  143.6279 LP  0  0  0  0  0  0  0  0  0  0  0  0  # atno 17320 bound_to 7965
  146.3378  139.8899  142.8811 LP  0  0  0  0  0  0  0  0  0  0  0  0  # atno 17321 bound_to 7965
  140.6304  143.9087  150.6601 LP  0  0  0  0  0  0  0  0  0  0  0  0  # atno 17342 bound_to 10162
  140.2389  143.3679  152.1503 LP  0  0  0  0  0  0  0  0  0  0  0  0  # atno 17343 bound_to 10162
  156.0452  130.5529  150.8864 LP  0  0  0  0  0  0  0  0  0  0  0  0  # atno 17370 bound_to 10713
  157.5854  131.0945  150.9205 LP  0  0  0  0  0  0  0  0  0  0  0  0  # atno 17371 bound_to 10713
  140.1886  134.8982  157.3033 LP  0  0  0  0  0  0  0  0  0  0  0  0  # atno 17394 bound_to 11000
  140.2316  134.3903  155.7519 LP  0  0  0  0  0  0  0  0  0  0  0  0  # atno 17395 bound_to 11000

$$$$
