AV-unprocessed.smi:2100|AV-procd|sdf|8577|dock4
  -GOLD-   2272011303D 1   1.00000     0.00000
 Structure written by MMmdl.
 40 41  0  0  0  0  0  0  0  0  2 V2000
  146.2480  142.8765  154.3669 C   0  0  0  0  0  0  0  0  0  0  0  0
  147.3390  141.8858  153.9460 C   0  0  1  0  0  0  0  0  0  0  0  0
  148.2281  141.4677  155.1313 C   0  0  0  0  0  0  0  0  0  0  0  0
  149.1742  140.4103  154.7369 N   0  0  0  0  0  0  0  0  0  0  0  0
  150.5052  140.0610  155.7959 S   0  0  0  0  0  0  0  0  0  0  0  0
  150.0041  139.0934  156.7858 O   0  0  0  0  0  0  0  0  0  0  0  0
  151.6221  139.6447  154.9319 O   0  0  0  0  0  0  0  0  0  0  0  0
  150.6790  141.5580  156.3933 N   0  5  0  0  0  0  0  0  0  0  0  0
  150.7460  141.7402  157.8326 C   0  0  0  0  0  0  0  0  0  0  0  0
  151.5430  143.0217  158.1590 C   0  0  0  0  0  0  0  0  0  0  0  0
  151.8750  143.1951  159.6378 C   0  0  0  0  0  0  0  0  0  0  0  0
  152.7323  142.2819  160.2933 C   0  0  0  0  0  0  0  0  0  0  0  0
  153.0005  142.4709  161.6626 C   0  0  0  0  0  0  0  0  0  0  0  0
  152.4021  143.5578  162.3277 C   0  0  0  0  0  0  0  0  0  0  0  0
  151.5574  144.4109  161.5903 C   0  0  0  0  0  0  0  0  0  0  0  0
  151.2928  144.2391  160.2777 N   0  0  0  0  0  0  0  0  0  0  0  0
  148.5496  139.2931  154.0085 C   0  0  0  0  0  0  0  0  0  0  0  0
  147.6478  139.8094  152.8725 C   0  0  1  0  0  0  0  0  0  0  0  0
  146.8734  138.6755  152.1915 C   0  0  0  0  0  0  0  0  0  0  0  0
  146.7073  140.7385  153.3938 O   0  0  0  0  0  0  0  0  0  0  0  0
  146.6830  143.7834  154.7875 H   0  0  0  0  0  0  0  0  0  0  0  0
  145.5885  142.4416  155.1184 H   0  0  0  0  0  0  0  0  0  0  0  0
  145.6350  143.1668  153.5134 H   0  0  0  0  0  0  0  0  0  0  0  0
  147.9547  142.3590  153.1788 H   0  0  0  0  0  0  0  0  0  0  0  0
  148.7761  142.3324  155.5055 H   0  0  0  0  0  0  0  0  0  0  0  0
  147.6131  141.0993  155.9533 H   0  0  0  0  0  0  0  0  0  0  0  0
  149.7502  141.8215  158.2696 H   0  0  0  0  0  0  0  0  0  0  0  0
  151.2201  140.8890  158.3220 H   0  0  0  0  0  0  0  0  0  0  0  0
  152.4749  143.0304  157.5914 H   0  0  0  0  0  0  0  0  0  0  0  0
  150.9822  143.8971  157.8281 H   0  0  0  0  0  0  0  0  0  0  0  0
  153.1772  141.4570  159.7562 H   0  0  0  0  0  0  0  0  0  0  0  0
  153.6530  141.7936  162.1933 H   0  0  0  0  0  0  0  0  0  0  0  0
  152.5848  143.7329  163.3775 H   0  0  0  0  0  0  0  0  0  0  0  0
  151.0798  145.2531  162.0688 H   0  0  0  0  0  0  0  0  0  0  0  0
  149.3217  138.6415  153.6000 H   0  0  0  0  0  0  0  0  0  0  0  0
  147.9675  138.6970  154.7124 H   0  0  0  0  0  0  0  0  0  0  0  0
  148.2613  140.3063  152.1185 H   0  0  0  0  0  0  0  0  0  0  0  0
  147.5531  137.9391  151.7623 H   0  0  0  0  0  0  0  0  0  0  0  0
  146.2481  139.0601  151.3855 H   0  0  0  0  0  0  0  0  0  0  0  0
  146.2244  138.1598  152.8998 H   0  0  0  0  0  0  0  0  0  0  0  0
  1  2  1  0  0  0  0
  1 21  1  0  0  0  0
  1 22  1  0  0  0  0
  1 23  1  0  0  0  0
  2 20  1  0  0  0  0
  2  3  1  0  0  0  0
  2 24  1  0  0  0  0
  3  4  1  0  0  0  0
  3 25  1  0  0  0  0
  3 26  1  0  0  0  0
  4  5  1  0  0  0  0
  4 17  1  0  0  0  0
  5  6  2  0  0  0  0
  5  7  2  0  0  0  0
  5  8  1  0  0  0  0
  8  9  1  0  0  0  0
  9 10  1  0  0  0  0
  9 27  1  0  0  0  0
  9 28  1  0  0  0  0
 10 11  1  0  0  0  0
 10 29  1  0  0  0  0
 10 30  1  0  0  0  0
 11 16  1  0  0  0  0
 11 12  2  0  0  0  0
 12 13  1  0  0  0  0
 12 31  1  0  0  0  0
 13 14  2  0  0  0  0
 13 32  1  0  0  0  0
 14 15  1  0  0  0  0
 14 33  1  0  0  0  0
 15 16  2  0  0  0  0
 15 34  1  0  0  0  0
 17 18  1  0  0  0  0
 17 35  1  0  0  0  0
 17 36  1  0  0  0  0
 18 19  1  0  0  0  0
 18 20  1  0  0  0  0
 18 37  1  0  0  0  0
 19 38  1  0  0  0  0
 19 39  1  0  0  0  0
 19 40  1  0  0  0  0
M  CHG  1   8  -1
M  END
> <s_m_source_file>
AV-unprocessed.smi

> <i_m_source_file_index>
2100

> <i_lp_mmshare_version>
43012

> <i_f3d_flags>
0

> <s_epik_input>
W0NIM11bQ0BASF0xW0NIMl1OKFtDSDJdW0NASF0oTzEpW0NIM10pUyg9TykoPU8pW05IXVtDSDJdW0NIMl1jMltjSF1bY0hdW2NIXVtjSF1uMg==

> <s_epik_cmdline>
J2VwaWtfcHl0aG9uJywgJy1waCcsICc3LjAnLCAnLXRuJywgJzgnLCAnLW1hJywgJzIwMCcsICctbWV0YWxfYmluZGluZycsICctaW1hZScsICc8aW5maWxlLm1hZT4nLCAnLW9tYWUnLCAnPG91dGZpbGUubWFlPic=

> <r_epik_Ionization_Penalty>
1.27779

> <r_epik_Ionization_Penalty_Charging>
1.20871

> <r_epik_Ionization_Penalty_Neutral>
0.0690773

> <r_epik_State_Penalty>
1.64557

> <r_epik_Charging_Adjusted_Penalty>
2.85428

> <i_epik_Tot_Q>
-1

> <i_epik_Tot_abs_Q>
1

> <r_epik_Metal_State_Penalty>
0.643506

> <b_epik_Metal_Only>
0

> <s_lp_Force_Field>
OPLS_2005

> <r_lp_Energy>
4.91885

> <b_lp_Chiralities_Consistent>
1

> <s_lp_Variant>
AV-unprocessed.smi:2100-5

> <Gold.Version>
5.8.1

> <Gold.Id.Protein>
6NUR|6NUR_protein|mol2

> <Gold.PLP.Fitness>
47.5325

> <Gold.PLP.PLP>
-45.3450

> <Gold.PLP.part.hbond>
-1.0000

> <Gold.PLP.part.metal>
0.0000

> <Gold.PLP.part.buried>
-1.0379

> <Gold.PLP.part.nonpolar>
-42.3665

> <Gold.PLP.part.repulsive>
0.3645

> <Gold.PLP.ligand.clash>
0.0000

> <Gold.PLP.ligand.torsion>
1.9550

> <Gold.PLP.Chemscore.Hbond>
1.0000

> <Gold.PLP.Chemscore.CHOScore>
0.0000

> <Gold.PLP.Chemscore.Metal>
0.0000

> <Gold.Chemscore.Hbonds>
donor molecule, donor type, donor heavy atom, donor atom, acceptor molecule, acceptor atom, score
      P1  H  7989  7998       L1     7  1.00

> <Gold.PLP.Chemscore.Internal.Correction>
3.0975

> <Gold.Rescore>
     Score         DG    S(hbond)    S(metal)    S(lipo)     H(rot)  DE(clash)    DE(int)     intcor
     15.66     -17.43       0.85        0.00     106.43       1.30       0.02       1.75       ----

> <Gold.Chemscore.Fitness>
15.6596

> <Gold.Chemscore.DG>
-17.4313

> <Gold.Chemscore.ZeroCoef>
-5.4800

> <Gold.Chemscore.Hbond>
0.8493

> <Gold.Chemscore.Metal>
0.0000

> <Gold.Chemscore.Lipo>
106.4312

> <Gold.Chemscore.Internal_Hbond>
0.0000

> <Gold.Chemscore.DEClash>
0.0210

> <Gold.Chemscore.DEInternal>
1.7508

> <Gold.Chemscore.Rot>
1.3039

> <Gold.Chemscore.Internal.Correction>
   9.000000E+99

> <Gold.Chemscore.Hbonds>
donor molecule, donor type, donor heavy atom, donor atom, acceptor molecule, acceptor atom, score
      P1  H  7989  7998       L1     7  0.54

> <Gold.Chemscore.Hbond.Weighted>
-2.8368

> <Gold.Chemscore.Metal.Weighted>
-0.0000

> <Gold.Chemscore.Lipo.Weighted>
-12.4524

> <Gold.Chemscore.Internal_Hbond.Weighted>
0.0000

> <Gold.Chemscore.DEClash.Weighted>
0.0210

> <Gold.Chemscore.DEInternal.Weighted>
1.7508

> <Gold.Chemscore.Rot.Weighted>
3.3379

> <Gold.Chemscore.Internal.Correction.Weighted>
   9.000000E+99

> <Gold.Protein.RotatedTorsions>
[ 6907 6896 6895 6894 ] final   12.86 input  -60.11 | X-H torsion
[ 7974 7965 7964 7962 ] final  -64.45 input  175.53 | X-H torsion
[ 8008 7997 7996 7995 ] final  -10.44 input   59.86 | X-H torsion
[ 10167 10162 10161 10158 ] final  -63.11 input  -65.29 | X-H torsion
[ 10718 10713 10712 10709 ] final    3.38 input   66.30 | X-H torsion
[ 10763 10752 10751 10750 ] final -106.56 input  -60.55 | X-H torsion
[ 11005 11000 10999 10996 ] final  179.40 input  -57.11 | X-H torsion

> <Gold.Protein.ActiveResidues>
 VAL166  LYS551  ARG553  GLY616  TRP617  ASP618  TYR619  PRO620  LYS621  CYS622 
 ASP623  PHE694  ASN695  SER759  ASP760  ASP761  ALA762  ILE779  LEU786  VAL792 
 PHE793  MET794  SER795  GLU796  ALA797  LYS798  CYS799  TRP800  GLU811  SER814 

> <Gold.Protein.RotatedAtoms>
  151.7771  135.0771  160.0368 H   0  0  0  0  0  0  0  0  0  0  0  0  # atno 6907 bound_to 6896
  152.3249  133.5889  159.5778 H   0  0  0  0  0  0  0  0  0  0  0  0  # atno 6908 bound_to 6896
  150.7390  133.9872  159.3637 H   0  0  0  0  0  0  0  0  0  0  0  0  # atno 6909 bound_to 6896
  145.7665  140.8835  143.0402 H   0  0  0  0  0  0  0  0  0  0  0  0  # atno 7974 bound_to 7965
  154.5554  140.2329  155.8418 H   0  0  0  0  0  0  0  0  0  0  0  0  # atno 8008 bound_to 7997
  156.1984  140.3059  155.9435 H   0  0  0  0  0  0  0  0  0  0  0  0  # atno 8009 bound_to 7997
  155.2990  140.0430  157.3019 H   0  0  0  0  0  0  0  0  0  0  0  0  # atno 8010 bound_to 7997
  140.5893  143.2339  151.6173 H   0  0  0  0  0  0  0  0  0  0  0  0  # atno 10167 bound_to 10162
  156.8769  130.5640  149.5654 H   0  0  0  0  0  0  0  0  0  0  0  0  # atno 10718 bound_to 10713
  154.8020  135.4707  154.0299 H   0  0  0  0  0  0  0  0  0  0  0  0  # atno 10763 bound_to 10752
  153.1797  135.6838  153.8502 H   0  0  0  0  0  0  0  0  0  0  0  0  # atno 10764 bound_to 10752
  153.8056  135.3224  155.3372 H   0  0  0  0  0  0  0  0  0  0  0  0  # atno 10765 bound_to 10752
  140.4058  134.6737  157.4587 H   0  0  0  0  0  0  0  0  0  0  0  0  # atno 11005 bound_to 11000
  144.6820  139.9796  143.7483 LP  0  0  0  0  0  0  0  0  0  0  0  0  # atno 17320 bound_to 7965
  146.0212  139.3253  143.0812 LP  0  0  0  0  0  0  0  0  0  0  0  0  # atno 17321 bound_to 7965
  139.5217  144.3183  152.0932 LP  0  0  0  0  0  0  0  0  0  0  0  0  # atno 17342 bound_to 10162
  140.2345  144.4333  150.6286 LP  0  0  0  0  0  0  0  0  0  0  0  0  # atno 17343 bound_to 10162
  156.0697  130.5732  150.9359 LP  0  0  0  0  0  0  0  0  0  0  0  0  # atno 17370 bound_to 10713
  157.6163  131.0933  150.8705 LP  0  0  0  0  0  0  0  0  0  0  0  0  # atno 17371 bound_to 10713
  140.0303  134.6416  155.9115 LP  0  0  0  0  0  0  0  0  0  0  0  0  # atno 17394 bound_to 11000
  141.1840  133.6552  156.5138 LP  0  0  0  0  0  0  0  0  0  0  0  0  # atno 17395 bound_to 11000

$$$$
