AV-unprocessed.smi:2094|AV-procd|sdf|8553|dock4
  -GOLD-   2272011273D 1   1.00000     0.00000
 Structure written by MMmdl.
 35 36  0  0  0  0  0  0  0  0  3 V2000
  144.2493  136.0680  151.8487 O   0  0  0  0  0  0  0  0  0  0  0  0
  145.4600  135.8378  151.8029 C   0  0  0  0  0  0  0  0  0  0  0  0
  146.3305  136.7702  152.2112 N   0  0  0  0  0  0  0  0  0  0  0  0
  145.9677  138.0853  152.7199 C   0  0  0  0  0  0  0  0  0  0  0  0
  146.7494  139.1810  151.9790 C   0  0  0  0  0  0  0  0  0  0  0  0
  147.7722  139.8230  152.8423 N   0  3  0  0  0  0  0  0  0  0  0  0
  148.4129  138.8549  153.7707 C   0  0  0  0  0  0  0  0  0  0  0  0
  149.5642  139.5103  154.5527 C   0  0  0  0  0  0  0  0  0  0  0  0
  149.0775  140.7516  155.3119 C   0  0  0  0  0  0  0  0  0  0  0  0
  148.3897  141.7210  154.3422 C   0  0  0  0  0  0  0  0  0  0  0  0
  147.2623  141.0186  153.5664 C   0  0  0  0  0  0  0  0  0  0  0  0
  146.0466  134.7001  151.3685 N   0  5  0  0  0  0  0  0  0  0  0  0
  145.2990  133.6119  151.1219 C   0  0  0  0  0  0  0  0  0  0  0  0
  144.0438  133.6781  150.6635 N   0  0  0  0  0  0  0  0  0  0  0  0
  143.4551  132.4264  150.4742 C   0  0  0  0  0  0  0  0  0  0  0  0
  144.2847  131.3826  150.7874 C   0  0  0  0  0  0  0  0  0  0  0  0
  145.8393  131.9440  151.3330 S   0  0  0  0  0  0  0  0  0  0  0  0
  147.3133  136.5458  152.1585 H   0  0  0  0  0  0  0  0  0  0  0  0
  144.8950  138.2390  152.5911 H   0  0  0  0  0  0  0  0  0  0  0  0
  146.1729  138.1101  153.7900 H   0  0  0  0  0  0  0  0  0  0  0  0
  147.2197  138.7832  151.0782 H   0  0  0  0  0  0  0  0  0  0  0  0
  146.0347  139.9355  151.6460 H   0  0  0  0  0  0  0  0  0  0  0  0
  147.6647  138.4603  154.4600 H   0  0  0  0  0  0  0  0  0  0  0  0
  148.8044  138.0068  153.2075 H   0  0  0  0  0  0  0  0  0  0  0  0
  149.9972  138.7931  155.2508 H   0  0  0  0  0  0  0  0  0  0  0  0
  150.3616  139.7915  153.8634 H   0  0  0  0  0  0  0  0  0  0  0  0
  148.3789  140.4555  156.0956 H   0  0  0  0  0  0  0  0  0  0  0  0
  149.9147  141.2436  155.8081 H   0  0  0  0  0  0  0  0  0  0  0  0
  147.9896  142.5745  154.8904 H   0  0  0  0  0  0  0  0  0  0  0  0
  149.1229  142.1208  153.6405 H   0  0  0  0  0  0  0  0  0  0  0  0
  146.8233  141.7290  152.8671 H   0  0  0  0  0  0  0  0  0  0  0  0
  146.4672  140.7186  154.2512 H   0  0  0  0  0  0  0  0  0  0  0  0
  142.4395  132.3721  150.1118 H   0  0  0  0  0  0  0  0  0  0  0  0
  144.0787  130.3247  150.7309 H   0  0  0  0  0  0  0  0  0  0  0  0
  148.5030  140.1430  152.2229 H   0  0  0  0  0  0  0  0  0  0  0  0
  1  2  2  0  0  0  0
  2  3  1  0  0  0  0
  2 12  1  0  0  0  0
  3  4  1  0  0  0  0
  3 18  1  0  0  0  0
  4  5  1  0  0  0  0
  4 19  1  0  0  0  0
  4 20  1  0  0  0  0
  5  6  1  0  0  0  0
  5 21  1  0  0  0  0
  5 22  1  0  0  0  0
  6 11  1  0  0  0  0
  6  7  1  0  0  0  0
  6 35  1  0  0  0  0
  7  8  1  0  0  0  0
  7 23  1  0  0  0  0
  7 24  1  0  0  0  0
  8  9  1  0  0  0  0
  8 25  1  0  0  0  0
  8 26  1  0  0  0  0
  9 10  1  0  0  0  0
  9 27  1  0  0  0  0
  9 28  1  0  0  0  0
 10 11  1  0  0  0  0
 10 29  1  0  0  0  0
 10 30  1  0  0  0  0
 11 31  1  0  0  0  0
 11 32  1  0  0  0  0
 12 13  1  0  0  0  0
 13 17  1  0  0  0  0
 13 14  2  0  0  0  0
 14 15  1  0  0  0  0
 15 16  2  0  0  0  0
 15 33  1  0  0  0  0
 16 17  1  0  0  0  0
 16 34  1  0  0  0  0
M  CHG  1   6   1
M  CHG  1  12  -1
M  END
> <s_m_source_file>
AV-unprocessed.smi

> <i_m_source_file_index>
2094

> <i_lp_mmshare_version>
43012

> <i_f3d_flags>
0

> <s_epik_input>
czFbY0hdW2NIXW5jMVtOSF1DKD1PKVtOSF1bQ0gyXVtDSDJdTjJbQ0gyXVtDSDJdW0NIMl1bQ0gyXVtDSDJdMg==

> <s_epik_cmdline>
J2VwaWtfcHl0aG9uJywgJy1waCcsICc3LjAnLCAnLXRuJywgJzgnLCAnLW1hJywgJzIwMCcsICctbWV0YWxfYmluZGluZycsICctaW1hZScsICc8aW5maWxlLm1hZT4nLCAnLW9tYWUnLCAnPG91dGZpbGUubWFlPic=

> <r_lp_tautomer_probability>
0.999

> <r_epik_Ionization_Penalty>
6.21931

> <r_epik_Ionization_Penalty_Charging>
5.38824

> <r_epik_Ionization_Penalty_Neutral>
0.831074

> <r_epik_State_Penalty>
5.38819

> <r_epik_Charging_Adjusted_Penalty>
10.7764

> <i_epik_Tot_Q>
0

> <i_epik_Tot_abs_Q>
2

> <r_epik_Metal_State_Penalty>
1.41404

> <b_epik_Metal_Only>
1

> <s_lp_Force_Field>
OPLS_2005

> <r_lp_Energy>
7.37815

> <b_lp_Chiralities_Consistent>
1

> <s_lp_Variant>
AV-unprocessed.smi:2094-2

> <Gold.Version>
5.8.1

> <Gold.Id.Protein>
6NUR|6NUR_protein|mol2

> <Gold.PLP.Fitness>
40.7170

> <Gold.PLP.PLP>
-32.2703

> <Gold.PLP.part.hbond>
-1.8770

> <Gold.PLP.part.metal>
0.0000

> <Gold.PLP.part.buried>
-3.8077

> <Gold.PLP.part.nonpolar>
-28.6562

> <Gold.PLP.part.repulsive>
0.6516

> <Gold.PLP.ligand.clash>
0.0000

> <Gold.PLP.ligand.torsion>
0.9436

> <Gold.PLP.Chemscore.Hbond>
2.0000

> <Gold.PLP.Chemscore.CHOScore>
1.4272

> <Gold.PLP.Chemscore.Metal>
0.0000

> <Gold.Chemscore.Hbonds>
donor molecule, donor type, donor heavy atom, donor atom, acceptor molecule, acceptor atom, score
      L1  H     3    18       P1  7948  1.00
      L1  H     6    35       P1  7957  0.99
      L1  C    15    33       P1 10186  0.84
      L1  C    15    33       P1 10952  0.73

> <Gold.PLP.Chemscore.Internal.Correction>
0.0521

> <Gold.Rescore>
     Score         DG    S(hbond)    S(metal)    S(lipo)     H(rot)  DE(clash)    DE(int)     intcor
     14.73     -17.26       1.95        0.00      79.48       1.58       0.08       2.45       ----

> <Gold.Chemscore.Fitness>
14.7322

> <Gold.Chemscore.DG>
-17.2588

> <Gold.Chemscore.ZeroCoef>
-5.4800

> <Gold.Chemscore.Hbond>
1.9544

> <Gold.Chemscore.Metal>
0.0000

> <Gold.Chemscore.Lipo>
79.4764

> <Gold.Chemscore.Internal_Hbond>
0.0000

> <Gold.Chemscore.DEClash>
0.0766

> <Gold.Chemscore.DEInternal>
2.4499

> <Gold.Chemscore.Rot>
1.5812

> <Gold.Chemscore.Internal.Correction>
   9.000000E+99

> <Gold.Chemscore.Hbonds>
donor molecule, donor type, donor heavy atom, donor atom, acceptor molecule, acceptor atom, score
      L1  H     3    18       P1  7948  1.00
      L1  H     6    35       P1  7957  0.91

> <Gold.Chemscore.Hbond.Weighted>
-6.5278

> <Gold.Chemscore.Metal.Weighted>
-0.0000

> <Gold.Chemscore.Lipo.Weighted>
-9.2987

> <Gold.Chemscore.Internal_Hbond.Weighted>
0.0000

> <Gold.Chemscore.DEClash.Weighted>
0.0766

> <Gold.Chemscore.DEInternal.Weighted>
2.4499

> <Gold.Chemscore.Rot.Weighted>
4.0478

> <Gold.Chemscore.Internal.Correction.Weighted>
   9.000000E+99

> <Gold.Protein.RotatedTorsions>
[ 6907 6896 6895 6894 ] final -120.62 input  -60.11 | X-H torsion
[ 7974 7965 7964 7962 ] final  -90.98 input  175.53 | X-H torsion
[ 8008 7997 7996 7995 ] final -163.66 input   59.86 | X-H torsion
[ 10167 10162 10161 10158 ] final -141.36 input  -65.29 | X-H torsion
[ 10718 10713 10712 10709 ] final  -65.83 input   66.30 | X-H torsion
[ 10763 10752 10751 10750 ] final   12.67 input  -60.55 | X-H torsion
[ 11005 11000 10999 10996 ] final  -68.96 input  -57.11 | X-H torsion

> <Gold.Protein.ActiveResidues>
 VAL166  LYS551  ARG553  GLY616  TRP617  ASP618  TYR619  PRO620  LYS621  CYS622 
 ASP623  PHE694  ASN695  SER759  ASP760  ASP761  ALA762  ILE779  LEU786  VAL792 
 PHE793  MET794  SER795  GLU796  ALA797  LYS798  CYS799  TRP800  GLU811  SER814 

> <Gold.Protein.RotatedAtoms>
  150.8410  133.7936  159.3060 H   0  0  0  0  0  0  0  0  0  0  0  0  # atno 6907 bound_to 6896
  151.5638  135.1063  159.9988 H   0  0  0  0  0  0  0  0  0  0  0  0  # atno 6908 bound_to 6896
  152.4473  133.7519  159.6755 H   0  0  0  0  0  0  0  0  0  0  0  0  # atno 6909 bound_to 6896
  145.4192  140.9550  143.2190 H   0  0  0  0  0  0  0  0  0  0  0  0  # atno 7974 bound_to 7965
  155.8245  140.0924  157.1829 H   0  0  0  0  0  0  0  0  0  0  0  0  # atno 8008 bound_to 7997
  154.3979  140.1430  156.3600 H   0  0  0  0  0  0  0  0  0  0  0  0  # atno 8009 bound_to 7997
  155.8231  140.3445  155.5529 H   0  0  0  0  0  0  0  0  0  0  0  0  # atno 8010 bound_to 7997
  139.8192  143.7597  152.2665 H   0  0  0  0  0  0  0  0  0  0  0  0  # atno 10167 bound_to 10162
  156.0647  130.4253  150.1621 H   0  0  0  0  0  0  0  0  0  0  0  0  # atno 10718 bound_to 10713
  153.1799  135.6826  153.8492 H   0  0  0  0  0  0  0  0  0  0  0  0  # atno 10763 bound_to 10752
  153.7827  135.3180  155.3369 H   0  0  0  0  0  0  0  0  0  0  0  0  # atno 10764 bound_to 10752
  154.8053  135.4752  154.0471 H   0  0  0  0  0  0  0  0  0  0  0  0  # atno 10765 bound_to 10752
  141.1544  133.6753  156.6527 H   0  0  0  0  0  0  0  0  0  0  0  0  # atno 11005 bound_to 11000
  144.8256  139.5715  143.6967 LP  0  0  0  0  0  0  0  0  0  0  0  0  # atno 17320 bound_to 7965
  146.2665  139.6532  142.9326 LP  0  0  0  0  0  0  0  0  0  0  0  0  # atno 17321 bound_to 7965
  139.7770  144.7457  151.0143 LP  0  0  0  0  0  0  0  0  0  0  0  0  # atno 17342 bound_to 10162
  140.7814  143.4583  151.0314 LP  0  0  0  0  0  0  0  0  0  0  0  0  # atno 17343 bound_to 10162
  156.9683  130.9827  151.3464 LP  0  0  0  0  0  0  0  0  0  0  0  0  # atno 17370 bound_to 10713
  157.5680  130.8291  149.8353 LP  0  0  0  0  0  0  0  0  0  0  0  0  # atno 17371 bound_to 10713
  140.3308  134.7930  157.4325 LP  0  0  0  0  0  0  0  0  0  0  0  0  # atno 17394 bound_to 11000
  140.1018  134.5462  155.8346 LP  0  0  0  0  0  0  0  0  0  0  0  0  # atno 17395 bound_to 11000

$$$$
