AV-unprocessed.smi:2140|AV-procd|sdf|8716|dock4
  -GOLD-   2272011483D 1   1.00000     0.00000
 Structure written by MMmdl.
 40 41  0  0  0  0  0  0  0  0  2 V2000
  148.0643  139.5100  155.6608 C   0  0  0  0  0  0  0  0  0  0  0  0
  148.1154  138.5659  154.4346 C   0  0  2  0  0  0  0  0  0  0  0  0
  146.8363  137.6868  154.3871 C   0  0  0  0  0  0  0  0  0  0  0  0
  146.8713  136.6819  153.3281 N   0  0  0  0  0  0  0  0  0  0  0  0
  145.8821  135.8169  153.0624 C   0  0  0  0  0  0  0  0  0  0  0  0
  144.8255  135.7878  153.6926 O   0  0  0  0  0  0  0  0  0  0  0  0
  146.2129  134.9968  152.0502 N   0  0  0  0  0  0  0  0  0  0  0  0
  145.4624  133.9309  151.4828 C   0  0  0  0  0  0  0  0  0  0  0  0
  145.9558  133.0286  150.5086 C   0  0  0  0  0  0  0  0  0  0  0  0
  145.1093  132.0062  150.0382 C   0  0  0  0  0  0  0  0  0  0  0  0
  143.8052  131.9169  150.5625 C   0  0  0  0  0  0  0  0  0  0  0  0
  143.3256  132.7618  151.4990 N   0  0  0  0  0  0  0  0  0  0  0  0
  144.1426  133.7396  151.9449 C   0  0  0  0  0  0  0  0  0  0  0  0
  149.3443  137.7068  154.3944 N   0  3  0  0  0  0  0  0  0  0  0  0
  150.5998  138.5036  154.4733 C   0  0  0  0  0  0  0  0  0  0  0  0
  151.8378  137.6024  154.3411 C   0  0  0  0  0  0  0  0  0  0  0  0
  151.8173  136.6198  155.3655 O   0  0  0  0  0  0  0  0  0  0  0  0
  150.6792  135.7782  155.2560 C   0  0  0  0  0  0  0  0  0  0  0  0
  149.3929  136.6101  155.4011 C   0  0  0  0  0  0  0  0  0  0  0  0
  147.1460  140.0962  155.6821 H   0  0  0  0  0  0  0  0  0  0  0  0
  148.8751  140.2385  155.6506 H   0  0  0  0  0  0  0  0  0  0  0  0
  148.1160  138.9521  156.5963 H   0  0  0  0  0  0  0  0  0  0  0  0
  148.1390  139.2041  153.5499 H   0  0  0  0  0  0  0  0  0  0  0  0
  146.6562  137.1700  155.3286 H   0  0  0  0  0  0  0  0  0  0  0  0
  145.9632  138.3180  154.2195 H   0  0  0  0  0  0  0  0  0  0  0  0
  147.7084  136.6387  152.7649 H   0  0  0  0  0  0  0  0  0  0  0  0
  147.1430  135.1117  151.6749 H   0  0  0  0  0  0  0  0  0  0  0  0
  146.9608  133.0877  150.1219 H   0  0  0  0  0  0  0  0  0  0  0  0
  145.4540  131.3028  149.2948 H   0  0  0  0  0  0  0  0  0  0  0  0
  143.1318  131.1436  150.2242 H   0  0  0  0  0  0  0  0  0  0  0  0
  143.7254  134.3949  152.6957 H   0  0  0  0  0  0  0  0  0  0  0  0
  150.6407  139.2590  153.6915 H   0  0  0  0  0  0  0  0  0  0  0  0
  150.6342  139.0358  155.4255 H   0  0  0  0  0  0  0  0  0  0  0  0
  151.8745  137.1281  153.3589 H   0  0  0  0  0  0  0  0  0  0  0  0
  152.7465  138.1963  154.4419 H   0  0  0  0  0  0  0  0  0  0  0  0
  150.6943  135.2478  154.3025 H   0  0  0  0  0  0  0  0  0  0  0  0
  150.7261  135.0218  156.0395 H   0  0  0  0  0  0  0  0  0  0  0  0
  149.3308  137.0319  156.4056 H   0  0  0  0  0  0  0  0  0  0  0  0
  148.5508  135.9297  155.2777 H   0  0  0  0  0  0  0  0  0  0  0  0
  149.3412  137.2510  153.4931 H   0  0  0  0  0  0  0  0  0  0  0  0
  1  2  1  0  0  0  0
  1 20  1  0  0  0  0
  1 21  1  0  0  0  0
  1 22  1  0  0  0  0
  2  3  1  0  0  0  0
  2 14  1  0  0  0  0
  2 23  1  0  0  0  0
  3  4  1  0  0  0  0
  3 24  1  0  0  0  0
  3 25  1  0  0  0  0
  4  5  1  0  0  0  0
  4 26  1  0  0  0  0
  5  6  2  0  0  0  0
  5  7  1  0  0  0  0
  7  8  1  0  0  0  0
  7 27  1  0  0  0  0
  8 13  1  0  0  0  0
  8  9  2  0  0  0  0
  9 10  1  0  0  0  0
  9 28  1  0  0  0  0
 10 11  2  0  0  0  0
 10 29  1  0  0  0  0
 11 12  1  0  0  0  0
 11 30  1  0  0  0  0
 12 13  2  0  0  0  0
 13 31  1  0  0  0  0
 14 19  1  0  0  0  0
 14 15  1  0  0  0  0
 14 40  1  0  0  0  0
 15 16  1  0  0  0  0
 15 32  1  0  0  0  0
 15 33  1  0  0  0  0
 16 17  1  0  0  0  0
 16 34  1  0  0  0  0
 16 35  1  0  0  0  0
 17 18  1  0  0  0  0
 18 19  1  0  0  0  0
 18 36  1  0  0  0  0
 18 37  1  0  0  0  0
 19 38  1  0  0  0  0
 19 39  1  0  0  0  0
M  CHG  1  14   1
M  END
> <s_m_source_file>
AV-unprocessed.smi

> <i_m_source_file_index>
2140

> <i_lp_mmshare_version>
43012

> <i_f3d_flags>
0

> <s_epik_input>
W0NIMl0xW0NIMl1PW0NIMl1bQ0gyXU4xW0NASF0oW0NIM10pW0NIMl1bTkhdQyg9TylbTkhdYzJbY0hdW2NIXVtjSF1uW2NIXTI=

> <s_epik_cmdline>
J2VwaWtfcHl0aG9uJywgJy1waCcsICc3LjAnLCAnLXRuJywgJzgnLCAnLW1hJywgJzIwMCcsICctbWV0YWxfYmluZGluZycsICctaW1hZScsICc8aW5maWxlLm1hZT4nLCAnLW9tYWUnLCAnPG91dGZpbGUubWFlPic=

> <r_epik_Ionization_Penalty>
0.60672

> <r_epik_Ionization_Penalty_Charging>
0.602531

> <r_epik_Ionization_Penalty_Neutral>
0.00418997

> <r_epik_State_Penalty>
0.607459

> <r_epik_Charging_Adjusted_Penalty>
1.20999

> <i_epik_Tot_Q>
1

> <i_epik_Tot_abs_Q>
1

> <r_epik_Metal_State_Penalty>
0.604586

> <b_epik_Metal_Only>
0

> <s_lp_Force_Field>
OPLS_2005

> <r_lp_Energy>
23.5262

> <b_lp_Chiralities_Consistent>
1

> <s_lp_Variant>
AV-unprocessed.smi:2140-3

> <Gold.Version>
5.8.1

> <Gold.Id.Protein>
6NUR|6NUR_protein|mol2

> <Gold.PLP.Fitness>
47.2678

> <Gold.PLP.PLP>
-29.7845

> <Gold.PLP.part.hbond>
-4.0000

> <Gold.PLP.part.metal>
0.0000

> <Gold.PLP.part.buried>
-6.6275

> <Gold.PLP.part.nonpolar>
-20.9729

> <Gold.PLP.part.repulsive>
0.4718

> <Gold.PLP.ligand.clash>
0.0000

> <Gold.PLP.ligand.torsion>
0.1093

> <Gold.PLP.Chemscore.Hbond>
4.8882

> <Gold.PLP.Chemscore.CHOScore>
0.9952

> <Gold.PLP.Chemscore.Metal>
0.0000

> <Gold.Chemscore.Hbonds>
donor molecule, donor type, donor heavy atom, donor atom, acceptor molecule, acceptor atom, score
      L1  H     4    26       P1  7948  1.00
      L1  H     7    27       P1  7948  0.77
      L1  H    14    40       P1  7948  2.00
      P1  H 10752 10764       L1    17  1.00
      L1  C    11    30       P1 10952  1.00

> <Gold.PLP.Chemscore.Internal.Correction>
0.0520

> <Gold.Rescore>
     Score         DG    S(hbond)    S(metal)    S(lipo)     H(rot)  DE(clash)    DE(int)     intcor
     18.96     -20.53       3.12        0.00      72.89       1.52       0.06       1.52       ----

> <Gold.Chemscore.Fitness>
18.9616

> <Gold.Chemscore.DG>
-20.5348

> <Gold.Chemscore.ZeroCoef>
-5.4800

> <Gold.Chemscore.Hbond>
3.1174

> <Gold.Chemscore.Metal>
0.0000

> <Gold.Chemscore.Lipo>
72.8950

> <Gold.Chemscore.Internal_Hbond>
0.0000

> <Gold.Chemscore.DEClash>
0.0580

> <Gold.Chemscore.DEInternal>
1.5152

> <Gold.Chemscore.Rot>
1.5179

> <Gold.Chemscore.Internal.Correction>
   9.000000E+99

> <Gold.Chemscore.Hbonds>
donor molecule, donor type, donor heavy atom, donor atom, acceptor molecule, acceptor atom, score
      L1  H     4    26       P1  7948  0.98
      L1  H     7    27       P1  7948  0.68
      L1  H    14    40       P1  7948  0.96
      P1  H 10752 10764       L1    17  0.15

> <Gold.Chemscore.Hbond.Weighted>
-10.4120

> <Gold.Chemscore.Metal.Weighted>
-0.0000

> <Gold.Chemscore.Lipo.Weighted>
-8.5287

> <Gold.Chemscore.Internal_Hbond.Weighted>
0.0000

> <Gold.Chemscore.DEClash.Weighted>
0.0580

> <Gold.Chemscore.DEInternal.Weighted>
1.5152

> <Gold.Chemscore.Rot.Weighted>
3.8859

> <Gold.Chemscore.Internal.Correction.Weighted>
   9.000000E+99

> <Gold.Protein.RotatedTorsions>
[ 6907 6896 6895 6894 ] final   72.53 input  -60.11 | X-H torsion
[ 7974 7965 7964 7962 ] final  -95.37 input  175.53 | X-H torsion
[ 8008 7997 7996 7995 ] final  -27.96 input   59.86 | X-H torsion
[ 10167 10162 10161 10158 ] final  -38.55 input  -65.29 | X-H torsion
[ 10718 10713 10712 10709 ] final   -2.46 input   66.30 | X-H torsion
[ 10763 10752 10751 10750 ] final  -37.09 input  -60.55 | X-H torsion
[ 11005 11000 10999 10996 ] final  169.67 input  -57.11 | X-H torsion

> <Gold.Protein.ActiveResidues>
 VAL166  LYS551  ARG553  GLY616  TRP617  ASP618  TYR619  PRO620  LYS621  CYS622 
 ASP623  PHE694  ASN695  SER759  ASP760  ASP761  ALA762  ILE779  LEU786  VAL792 
 PHE793  MET794  SER795  GLU796  ALA797  LYS798  CYS799  TRP800  GLU811  SER814 

> <Gold.Protein.RotatedAtoms>
  152.4873  134.4558  159.9588 H   0  0  0  0  0  0  0  0  0  0  0  0  # atno 6907 bound_to 6896
  151.4552  133.3601  159.2809 H   0  0  0  0  0  0  0  0  0  0  0  0  # atno 6908 bound_to 6896
  150.8994  134.8430  159.7410 H   0  0  0  0  0  0  0  0  0  0  0  0  # atno 6909 bound_to 6896
  145.3610  140.9491  143.2501 H   0  0  0  0  0  0  0  0  0  0  0  0  # atno 7974 bound_to 7965
  154.4353  140.1858  156.1014 H   0  0  0  0  0  0  0  0  0  0  0  0  # atno 8008 bound_to 7997
  156.0289  140.3332  155.7092 H   0  0  0  0  0  0  0  0  0  0  0  0  # atno 8009 bound_to 7997
  155.5868  140.0627  157.2760 H   0  0  0  0  0  0  0  0  0  0  0  0  # atno 8010 bound_to 7997
  140.7089  143.3270  151.2657 H   0  0  0  0  0  0  0  0  0  0  0  0  # atno 10167 bound_to 10162
  156.7904  130.5360  149.5736 H   0  0  0  0  0  0  0  0  0  0  0  0  # atno 10718 bound_to 10713
  153.8906  135.6812  153.4761 H   0  0  0  0  0  0  0  0  0  0  0  0  # atno 10763 bound_to 10752
  153.1183  135.4751  154.9151 H   0  0  0  0  0  0  0  0  0  0  0  0  # atno 10764 bound_to 10752
  154.7624  135.3214  154.8305 H   0  0  0  0  0  0  0  0  0  0  0  0  # atno 10765 bound_to 10752
  140.3002  134.7601  157.3910 H   0  0  0  0  0  0  0  0  0  0  0  0  # atno 11005 bound_to 11000
  144.8647  139.5126  143.6796 LP  0  0  0  0  0  0  0  0  0  0  0  0  # atno 17320 bound_to 7965
  146.2927  139.7187  142.9149 LP  0  0  0  0  0  0  0  0  0  0  0  0  # atno 17321 bound_to 7965
  139.6741  143.9968  152.2770 LP  0  0  0  0  0  0  0  0  0  0  0  0  # atno 17342 bound_to 10162
  139.9577  144.6579  150.8110 LP  0  0  0  0  0  0  0  0  0  0  0  0  # atno 17343 bound_to 10162
  156.1162  130.6077  151.0124 LP  0  0  0  0  0  0  0  0  0  0  0  0  # atno 17370 bound_to 10713
  157.6603  131.0882  150.7853 LP  0  0  0  0  0  0  0  0  0  0  0  0  # atno 17371 bound_to 10713
  140.1116  134.5338  155.8261 LP  0  0  0  0  0  0  0  0  0  0  0  0  # atno 17394 bound_to 11000
  141.2129  133.6726  156.6699 LP  0  0  0  0  0  0  0  0  0  0  0  0  # atno 17395 bound_to 11000

$$$$
