AV-unprocessed.smi:1325|AV-procd|sdf|5472|dock8
  -GOLD-   22720 5 43D 1   1.00000     0.00000
 Structure written by MMmdl.
 35 36  0  0  0  0  0  0  0  0  1 V2000
  147.6357  141.7018  154.1300 C   0  0  0  0  0  0  0  0  0  0  0  0
  148.9040  141.0722  154.6397 C   0  0  0  0  0  0  0  0  0  0  0  0
  149.6455  141.8003  155.4081 N   0  0  0  0  0  0  0  0  0  0  0  0
  150.8325  141.3212  155.9281 N   0  0  0  0  0  0  0  0  0  0  0  0
  151.5529  142.2911  156.7627 C   0  0  0  0  0  0  0  0  0  0  0  0
  150.8551  142.5188  158.1218 C   0  0  2  0  0  0  0  0  0  0  0  0
  150.4168  143.8610  158.1972 O   0  0  0  0  0  0  0  0  0  0  0  0
  151.7871  142.1819  159.2760 C   0  0  0  0  0  0  0  0  0  0  0  0
  151.9134  143.0729  160.3634 C   0  0  0  0  0  0  0  0  0  0  0  0
  152.7690  142.7643  161.4392 C   0  0  0  0  0  0  0  0  0  0  0  0
  153.5015  141.5619  161.4349 C   0  0  0  0  0  0  0  0  0  0  0  0
  153.3771  140.6671  160.3548 C   0  0  0  0  0  0  0  0  0  0  0  0
  152.5220  140.9754  159.2790 C   0  0  0  0  0  0  0  0  0  0  0  0
  151.3330  140.0739  155.6982 C   0  0  0  0  0  0  0  0  0  0  0  0
  152.3978  139.6851  156.1803 O   0  0  0  0  0  0  0  0  0  0  0  0
  150.4873  139.2537  154.8279 C   0  0  0  0  0  0  0  0  0  0  0  0
  150.9755  137.9396  154.5597 C   0  0  0  0  0  0  0  0  0  0  0  0
  151.3831  136.8816  154.3258 N   0  0  0  0  0  0  0  0  0  0  0  0
  149.3201  139.7128  154.3108 C   0  0  0  0  0  0  0  0  0  0  0  0
  148.4069  138.9019  153.4017 C   0  0  0  0  0  0  0  0  0  0  0  0
  146.7636  141.1320  154.4516 H   0  0  0  0  0  0  0  0  0  0  0  0
  147.6336  141.7398  153.0405 H   0  0  0  0  0  0  0  0  0  0  0  0
  147.5141  142.7233  154.4937 H   0  0  0  0  0  0  0  0  0  0  0  0
  152.5494  141.8827  156.9427 H   0  0  0  0  0  0  0  0  0  0  0  0
  151.7308  143.2371  156.2477 H   0  0  0  0  0  0  0  0  0  0  0  0
  149.9741  141.8799  158.1962 H   0  0  0  0  0  0  0  0  0  0  0  0
  150.0726  144.1115  157.3535 H   0  0  0  0  0  0  0  0  0  0  0  0
  151.3537  143.9967  160.3782 H   0  0  0  0  0  0  0  0  0  0  0  0
  152.8626  143.4503  162.2681 H   0  0  0  0  0  0  0  0  0  0  0  0
  154.1570  141.3253  162.2599 H   0  0  0  0  0  0  0  0  0  0  0  0
  153.9370  139.7435  160.3517 H   0  0  0  0  0  0  0  0  0  0  0  0
  152.4303  140.2814  158.4562 H   0  0  0  0  0  0  0  0  0  0  0  0
  148.7937  137.9008  153.2142 H   0  0  0  0  0  0  0  0  0  0  0  0
  148.2930  139.3950  152.4357 H   0  0  0  0  0  0  0  0  0  0  0  0
  147.4191  138.7918  153.8504 H   0  0  0  0  0  0  0  0  0  0  0  0
  1  2  1  0  0  0  0
  1 21  1  0  0  0  0
  1 22  1  0  0  0  0
  1 23  1  0  0  0  0
  2 19  1  0  0  0  0
  2  3  2  0  0  0  0
  3  4  1  0  0  0  0
  4  5  1  0  0  0  0
  4 14  1  0  0  0  0
  5  6  1  0  0  0  0
  5 24  1  0  0  0  0
  5 25  1  0  0  0  0
  6  7  1  0  0  0  0
  6  8  1  0  0  0  0
  6 26  1  0  0  0  0
  7 27  1  0  0  0  0
  8 13  1  0  0  0  0
  8  9  2  0  0  0  0
  9 10  1  0  0  0  0
  9 28  1  0  0  0  0
 10 11  2  0  0  0  0
 10 29  1  0  0  0  0
 11 12  1  0  0  0  0
 11 30  1  0  0  0  0
 12 13  2  0  0  0  0
 12 31  1  0  0  0  0
 13 32  1  0  0  0  0
 14 15  2  0  0  0  0
 14 16  1  0  0  0  0
 16 17  1  0  0  0  0
 16 19  2  0  0  0  0
 17 18  3  0  0  0  0
 19 20  1  0  0  0  0
 20 33  1  0  0  0  0
 20 34  1  0  0  0  0
 20 35  1  0  0  0  0
M  END
> <s_m_source_file>
AV-unprocessed.smi

> <i_m_source_file_index>
1325

> <i_lp_mmshare_version>
43012

> <i_f3d_flags>
0

> <s_epik_input>
TiNDYyhjMVtDSDNdKWMoPU8pbihuYzFbQ0gzXSlbQ0gyXVtDQEhdKFtPSF0pYzJbY0hdW2NIXVtjSF1bY0hdW2NIXTI=

> <s_epik_cmdline>
J2VwaWtfcHl0aG9uJywgJy1waCcsICc3LjAnLCAnLXRuJywgJzgnLCAnLW1hJywgJzIwMCcsICctbWV0YWxfYmluZGluZycsICctaW1hZScsICc8aW5maWxlLm1hZT4nLCAnLW9tYWUnLCAnPG91dGZpbGUubWFlPic=

> <r_lp_tautomer_probability>
1

> <r_epik_Ionization_Penalty>
7.1854e-08

> <r_epik_Ionization_Penalty_Charging>
1.40848e-10

> <r_epik_Ionization_Penalty_Neutral>
7.17131e-08

> <r_epik_State_Penalty>
-0

> <r_epik_Charging_Adjusted_Penalty>
1.40848e-10

> <i_epik_Tot_Q>
0

> <i_epik_Tot_abs_Q>
0

> <r_epik_Metal_State_Penalty>
-0

> <b_epik_Metal_Only>
0

> <s_lp_Force_Field>
OPLS_2005

> <r_lp_Energy>
27.9871

> <b_lp_Chiralities_Consistent>
1

> <s_lp_Variant>
AV-unprocessed.smi:1325-1

> <Gold.Version>
5.8.1

> <Gold.Id.Protein>
6NUR|6NUR_protein|mol2

> <Gold.PLP.Fitness>
50.8658

> <Gold.PLP.PLP>
-44.1623

> <Gold.PLP.part.hbond>
-3.5606

> <Gold.PLP.part.metal>
0.0000

> <Gold.PLP.part.buried>
-3.0988

> <Gold.PLP.part.nonpolar>
-38.1375

> <Gold.PLP.part.repulsive>
1.5696

> <Gold.PLP.ligand.clash>
0.0586

> <Gold.PLP.ligand.torsion>
1.1219

> <Gold.PLP.Chemscore.Hbond>
3.0000

> <Gold.PLP.Chemscore.CHOScore>
0.0000

> <Gold.PLP.Chemscore.Metal>
0.0000

> <Gold.Chemscore.Hbonds>
donor molecule, donor type, donor heavy atom, donor atom, acceptor molecule, acceptor atom, score
      L1  H     7    27       P1  8028  0.75
      P1  H  7997  8010       L1    15  1.00
      P1  H 10752 10763       L1    18  1.00

> <Gold.PLP.Chemscore.Internal.Correction>
0.0060

> <Gold.Rescore>
     Score         DG    S(hbond)    S(metal)    S(lipo)     H(rot)  DE(clash)    DE(int)     intcor
     20.40     -23.03       2.82        0.00     111.15       1.90       1.55       1.08       ----

> <Gold.Chemscore.Fitness>
20.4000

> <Gold.Chemscore.DG>
-23.0282

> <Gold.Chemscore.ZeroCoef>
-5.4800

> <Gold.Chemscore.Hbond>
2.8201

> <Gold.Chemscore.Metal>
0.0000

> <Gold.Chemscore.Lipo>
111.1543

> <Gold.Chemscore.Internal_Hbond>
0.0000

> <Gold.Chemscore.DEClash>
1.5454

> <Gold.Chemscore.DEInternal>
1.0828

> <Gold.Chemscore.Rot>
1.9047

> <Gold.Chemscore.Internal.Correction>
   9.000000E+99

> <Gold.Chemscore.Hbonds>
donor molecule, donor type, donor heavy atom, donor atom, acceptor molecule, acceptor atom, score
      L1  H     7    27       P1  8028  0.52
      P1  H  7997  8010       L1    15  0.97
      P1  H 10752 10763       L1    18  0.98

> <Gold.Chemscore.Hbond.Weighted>
-9.4191

> <Gold.Chemscore.Metal.Weighted>
-0.0000

> <Gold.Chemscore.Lipo.Weighted>
-13.0051

> <Gold.Chemscore.Internal_Hbond.Weighted>
0.0000

> <Gold.Chemscore.DEClash.Weighted>
1.5454

> <Gold.Chemscore.DEInternal.Weighted>
1.0828

> <Gold.Chemscore.Rot.Weighted>
4.8760

> <Gold.Chemscore.Internal.Correction.Weighted>
   9.000000E+99

> <Gold.Protein.RotatedTorsions>
[ 6907 6896 6895 6894 ] final   -5.47 input  -60.11 | X-H torsion
[ 7974 7965 7964 7962 ] final  169.35 input  175.53 | X-H torsion
[ 8008 7997 7996 7995 ] final   74.83 input   59.86 | X-H torsion
[ 10167 10162 10161 10158 ] final   71.70 input  -65.29 | X-H torsion
[ 10718 10713 10712 10709 ] final  -98.34 input   66.30 | X-H torsion
[ 10763 10752 10751 10750 ] final   40.82 input  -60.55 | X-H torsion
[ 11005 11000 10999 10996 ] final  109.09 input  -57.11 | X-H torsion

> <Gold.Protein.ActiveResidues>
 VAL166  LYS551  ARG553  GLY616  TRP617  ASP618  TYR619  PRO620  LYS621  CYS622 
 ASP623  PHE694  ASN695  SER759  ASP760  ASP761  ALA762  ILE779  LEU786  VAL792 
 PHE793  MET794  SER795  GLU796  ALA797  LYS798  CYS799  TRP800  GLU811  SER814 

> <Gold.Protein.RotatedAtoms>
  151.4811  135.1052  159.9777 H   0  0  0  0  0  0  0  0  0  0  0  0  # atno 6907 bound_to 6896
  152.4779  133.8178  159.7048 H   0  0  0  0  0  0  0  0  0  0  0  0  # atno 6908 bound_to 6896
  150.8829  133.7285  159.2953 H   0  0  0  0  0  0  0  0  0  0  0  0  # atno 6909 bound_to 6896
  144.7358  139.9041  143.6411 H   0  0  0  0  0  0  0  0  0  0  0  0  # atno 7974 bound_to 7965
  155.8041  140.3475  155.5419 H   0  0  0  0  0  0  0  0  0  0  0  0  # atno 8008 bound_to 7997
  155.8508  140.0956  157.1696 H   0  0  0  0  0  0  0  0  0  0  0  0  # atno 8009 bound_to 7997
  154.4008  140.1377  156.3829 H   0  0  0  0  0  0  0  0  0  0  0  0  # atno 8010 bound_to 7997
  140.0433  144.5371  150.7418 H   0  0  0  0  0  0  0  0  0  0  0  0  # atno 10167 bound_to 10162
  156.0105  130.5234  150.6509 H   0  0  0  0  0  0  0  0  0  0  0  0  # atno 10718 bound_to 10713
  152.9925  135.6180  154.2688 H   0  0  0  0  0  0  0  0  0  0  0  0  # atno 10763 bound_to 10752
  154.2421  135.2788  155.2851 H   0  0  0  0  0  0  0  0  0  0  0  0  # atno 10764 bound_to 10752
  154.5360  135.5774  153.6856 H   0  0  0  0  0  0  0  0  0  0  0  0  # atno 10765 bound_to 10752
  139.8856  134.9449  156.6073 H   0  0  0  0  0  0  0  0  0  0  0  0  # atno 11005 bound_to 11000
  146.1050  139.4048  143.0323 LP  0  0  0  0  0  0  0  0  0  0  0  0  # atno 17320 bound_to 7965
  145.7525  140.9967  143.1243 LP  0  0  0  0  0  0  0  0  0  0  0  0  # atno 17321 bound_to 7965
  140.7250  143.2627  151.4150 LP  0  0  0  0  0  0  0  0  0  0  0  0  # atno 17342 bound_to 10162
  139.6000  144.1316  152.2187 LP  0  0  0  0  0  0  0  0  0  0  0  0  # atno 17343 bound_to 10162
  157.4270  131.0844  151.1075 LP  0  0  0  0  0  0  0  0  0  0  0  0  # atno 17370 bound_to 10713
  157.1660  130.6246  149.5625 LP  0  0  0  0  0  0  0  0  0  0  0  0  # atno 17371 bound_to 10713
  140.7838  133.8638  155.8589 LP  0  0  0  0  0  0  0  0  0  0  0  0  # atno 17394 bound_to 11000
  140.9737  134.1497  157.4554 LP  0  0  0  0  0  0  0  0  0  0  0  0  # atno 17395 bound_to 11000

$$$$
