AV-unprocessed.smi:1871|AV-procd|sdf|7600|dock1
  -GOLD-   22720 9313D 1   1.00000     0.00000
 Structure written by MMmdl.
 40 42  0  0  0  0  0  0  0  0  1 V2000
  147.1910  138.5134  151.1757 O   0  0  0  0  0  0  0  0  0  0  0  0
  146.2124  138.0576  152.0883 C   0  0  0  0  0  0  0  0  0  0  0  0
  145.8460  136.6094  151.9147 C   0  0  0  0  0  0  0  0  0  0  0  0
  145.4348  136.1121  150.7455 N   0  0  0  0  0  0  0  0  0  0  0  0
  145.2363  134.7769  151.0293 C   0  0  0  0  0  0  0  0  0  0  0  0
  144.8043  133.7171  150.2001 C   0  0  0  0  0  0  0  0  0  0  0  0
  144.6765  132.4118  150.7178 C   0  0  0  0  0  0  0  0  0  0  0  0
  144.9823  132.1478  152.0683 C   0  0  0  0  0  0  0  0  0  0  0  0
  145.4174  133.1893  152.9098 C   0  0  0  0  0  0  0  0  0  0  0  0
  145.5358  134.4934  152.3909 C   0  0  0  0  0  0  0  0  0  0  0  0
  145.9101  135.7186  152.9397 N   0  0  0  0  0  0  0  0  0  0  0  0
  146.3009  135.9483  154.3292 C   0  0  0  0  0  0  0  0  0  0  0  0
  147.5152  135.1105  154.7949 C   0  0  1  0  0  0  0  0  0  0  0  0
  148.7244  135.7319  154.4083 O   0  0  0  0  0  0  0  0  0  0  0  0
  147.4688  134.7770  156.2812 C   0  0  0  0  0  0  0  0  0  0  0  0
  146.4008  134.0347  156.8318 C   0  0  0  0  0  0  0  0  0  0  0  0
  146.3917  133.7120  158.2020 C   0  0  0  0  0  0  0  0  0  0  0  0
  147.4398  134.1300  159.0458 C   0  0  0  0  0  0  0  0  0  0  0  0
  147.3799  133.7638  160.3718 O   0  0  0  0  0  0  0  0  0  0  0  0
  146.9756  134.6714  161.2999 C   0  0  0  0  0  0  0  0  0  0  0  0
  147.0555  134.1266  162.5378 F   0  0  0  0  0  0  0  0  0  0  0  0
  147.7828  135.7603  161.2804 F   0  0  0  0  0  0  0  0  0  0  0  0
  148.5131  134.8683  158.4914 C   0  0  0  0  0  0  0  0  0  0  0  0
  148.5231  135.1913  157.1210 C   0  0  0  0  0  0  0  0  0  0  0  0
  147.7806  139.0930  151.6326 H   0  0  0  0  0  0  0  0  0  0  0  0
  146.5969  138.2246  153.0937 H   0  0  0  0  0  0  0  0  0  0  0  0
  145.3211  138.6711  151.9662 H   0  0  0  0  0  0  0  0  0  0  0  0
  144.5710  133.9095  149.1634 H   0  0  0  0  0  0  0  0  0  0  0  0
  144.3439  131.6096  150.0753 H   0  0  0  0  0  0  0  0  0  0  0  0
  144.8820  131.1455  152.4585 H   0  0  0  0  0  0  0  0  0  0  0  0
  145.6493  132.9880  153.9446 H   0  0  0  0  0  0  0  0  0  0  0  0
  146.5216  137.0094  154.4486 H   0  0  0  0  0  0  0  0  0  0  0  0
  145.4468  135.7583  154.9779 H   0  0  0  0  0  0  0  0  0  0  0  0
  147.4883  134.1635  154.2547 H   0  0  0  0  0  0  0  0  0  0  0  0
  148.8100  135.6617  153.4696 H   0  0  0  0  0  0  0  0  0  0  0  0
  145.5916  133.6918  156.2041 H   0  0  0  0  0  0  0  0  0  0  0  0
  145.5738  133.1347  158.6080 H   0  0  0  0  0  0  0  0  0  0  0  0
  145.9426  134.9805  161.1390 H   0  0  0  0  0  0  0  0  0  0  0  0
  149.3435  135.1860  159.1038 H   0  0  0  0  0  0  0  0  0  0  0  0
  149.3528  135.7491  156.7125 H   0  0  0  0  0  0  0  0  0  0  0  0
  1  2  1  0  0  0  0
  1 25  1  0  0  0  0
  2  3  1  0  0  0  0
  2 26  1  0  0  0  0
  2 27  1  0  0  0  0
  3 11  1  0  0  0  0
  3  4  2  0  0  0  0
  4  5  1  0  0  0  0
  5 10  2  0  0  0  0
  5  6  1  0  0  0  0
  6  7  2  0  0  0  0
  6 28  1  0  0  0  0
  7  8  1  0  0  0  0
  7 29  1  0  0  0  0
  8  9  2  0  0  0  0
  8 30  1  0  0  0  0
  9 10  1  0  0  0  0
  9 31  1  0  0  0  0
 10 11  1  0  0  0  0
 11 12  1  0  0  0  0
 12 13  1  0  0  0  0
 12 32  1  0  0  0  0
 12 33  1  0  0  0  0
 13 14  1  0  0  0  0
 13 15  1  0  0  0  0
 13 34  1  0  0  0  0
 14 35  1  0  0  0  0
 15 24  1  0  0  0  0
 15 16  2  0  0  0  0
 16 17  1  0  0  0  0
 16 36  1  0  0  0  0
 17 18  2  0  0  0  0
 17 37  1  0  0  0  0
 18 19  1  0  0  0  0
 18 23  1  0  0  0  0
 19 20  1  0  0  0  0
 20 21  1  0  0  0  0
 20 22  1  0  0  0  0
 20 38  1  0  0  0  0
 23 24  2  0  0  0  0
 23 39  1  0  0  0  0
 24 40  1  0  0  0  0
M  END
> <s_m_source_file>
AV-unprocessed.smi

> <i_m_source_file_index>
1871

> <i_lp_mmshare_version>
43012

> <i_f3d_flags>
0

> <s_epik_input>
W2NIXTFbY0hdW2NIXVtjSF1jKGMxMiluKGMobjIpW0NIMl1bT0hdKVtDSDJdW0NASF0oW09IXSljM1tjSF1bY0hdYyhPW0NIXShGKUYpW2NIXVtjSF0z

> <s_epik_cmdline>
J2VwaWtfcHl0aG9uJywgJy1waCcsICc3LjAnLCAnLXRuJywgJzgnLCAnLW1hJywgJzIwMCcsICctbWV0YWxfYmluZGluZycsICctaW1hZScsICc8aW5maWxlLm1hZT4nLCAnLW9tYWUnLCAnPG91dGZpbGUubWFlPic=

> <r_lp_tautomer_probability>
1

> <r_epik_Ionization_Penalty>
0.0634717

> <r_epik_Ionization_Penalty_Charging>
0

> <r_epik_Ionization_Penalty_Neutral>
0.0634717

> <r_epik_State_Penalty>
0.0551572

> <r_epik_Charging_Adjusted_Penalty>
0.0551572

> <i_epik_Tot_Q>
0

> <i_epik_Tot_abs_Q>
0

> <r_epik_Metal_State_Penalty>
5.78034e-05

> <b_epik_Metal_Only>
0

> <s_lp_Force_Field>
OPLS_2005

> <r_lp_Energy>
11.9527

> <b_lp_Chiralities_Consistent>
1

> <s_lp_Variant>
AV-unprocessed.smi:1871-2

> <Gold.Version>
5.8.1

> <Gold.Id.Protein>
6NUR|6NUR_protein|mol2

> <Gold.PLP.Fitness>
40.2486

> <Gold.PLP.PLP>
-33.1821

> <Gold.PLP.part.hbond>
-3.8853

> <Gold.PLP.part.metal>
0.0000

> <Gold.PLP.part.buried>
-1.8419

> <Gold.PLP.part.nonpolar>
-26.7453

> <Gold.PLP.part.repulsive>
0.6521

> <Gold.PLP.ligand.clash>
0.0000

> <Gold.PLP.ligand.torsion>
0.6421

> <Gold.PLP.Chemscore.Hbond>
2.7114

> <Gold.PLP.Chemscore.CHOScore>
0.0000

> <Gold.PLP.Chemscore.Metal>
0.0000

> <Gold.Chemscore.Hbonds>
donor molecule, donor type, donor heavy atom, donor atom, acceptor molecule, acceptor atom, score
      L1  H     1    25       P1  7957  0.60
      L1  H    14    35       P1  7948  1.00
      P1  H  7954  7966       L1     1  1.00

> <Gold.PLP.Chemscore.Internal.Correction>
0.2165

> <Gold.Rescore>
     Score         DG    S(hbond)    S(metal)    S(lipo)     H(rot)  DE(clash)    DE(int)     intcor
     10.42     -11.27       2.15        0.00      59.91       3.29       0.08       0.76       ----

> <Gold.Chemscore.Fitness>
10.4235

> <Gold.Chemscore.DG>
-11.2675

> <Gold.Chemscore.ZeroCoef>
-5.4800

> <Gold.Chemscore.Hbond>
2.1535

> <Gold.Chemscore.Metal>
0.0000

> <Gold.Chemscore.Lipo>
59.9073

> <Gold.Chemscore.Internal_Hbond>
0.0000

> <Gold.Chemscore.DEClash>
0.0790

> <Gold.Chemscore.DEInternal>
0.7650

> <Gold.Chemscore.Rot>
3.2868

> <Gold.Chemscore.Internal.Correction>
   9.000000E+99

> <Gold.Chemscore.Hbonds>
donor molecule, donor type, donor heavy atom, donor atom, acceptor molecule, acceptor atom, score
      L1  H     1    25       P1  7957  0.54
      L1  H    14    35       P1  7948  0.93
      P1  H  7954  7966       L1     1  0.39

> <Gold.Chemscore.Hbond.Weighted>
-7.1926

> <Gold.Chemscore.Metal.Weighted>
-0.0000

> <Gold.Chemscore.Lipo.Weighted>
-7.0092

> <Gold.Chemscore.Internal_Hbond.Weighted>
0.0000

> <Gold.Chemscore.DEClash.Weighted>
0.0790

> <Gold.Chemscore.DEInternal.Weighted>
0.7650

> <Gold.Chemscore.Rot.Weighted>
8.4143

> <Gold.Chemscore.Internal.Correction.Weighted>
   9.000000E+99

> <Gold.Protein.RotatedTorsions>
[ 6907 6896 6895 6894 ] final -108.36 input  -60.11 | X-H torsion
[ 7974 7965 7964 7962 ] final   35.88 input  175.53 | X-H torsion
[ 8008 7997 7996 7995 ] final  165.45 input   59.86 | X-H torsion
[ 10167 10162 10161 10158 ] final -101.58 input  -65.29 | X-H torsion
[ 10718 10713 10712 10709 ] final -139.90 input   66.30 | X-H torsion
[ 10763 10752 10751 10750 ] final   65.96 input  -60.55 | X-H torsion
[ 11005 11000 10999 10996 ] final  167.29 input  -57.11 | X-H torsion

> <Gold.Protein.ActiveResidues>
 VAL166  LYS551  ARG553  GLY616  TRP617  ASP618  TYR619  PRO620  LYS621  CYS622 
 ASP623  PHE694  ASN695  SER759  ASP760  ASP761  ALA762  ILE779  LEU786  VAL792 
 PHE793  MET794  SER795  GLU796  ALA797  LYS798  CYS799  TRP800  GLU811  SER814 

> <Gold.Protein.RotatedAtoms>
  150.7497  133.9688  159.3538 H   0  0  0  0  0  0  0  0  0  0  0  0  # atno 6907 bound_to 6896
  151.7620  135.0805  160.0356 H   0  0  0  0  0  0  0  0  0  0  0  0  # atno 6908 bound_to 6896
  152.3396  133.6015  159.5903 H   0  0  0  0  0  0  0  0  0  0  0  0  # atno 6909 bound_to 6896
  146.1251  139.6087  142.9264 H   0  0  0  0  0  0  0  0  0  0  0  0  # atno 7974 bound_to 7965
  156.1799  140.1669  156.8293 H   0  0  0  0  0  0  0  0  0  0  0  0  # atno 8008 bound_to 7997
  154.5348  140.0749  156.8442 H   0  0  0  0  0  0  0  0  0  0  0  0  # atno 8009 bound_to 7997
  155.3333  140.3380  155.4241 H   0  0  0  0  0  0  0  0  0  0  0  0  # atno 8010 bound_to 7997
  140.2397  143.3547  152.0812 H   0  0  0  0  0  0  0  0  0  0  0  0  # atno 10167 bound_to 10162
  156.3160  130.7508  151.1595 H   0  0  0  0  0  0  0  0  0  0  0  0  # atno 10718 bound_to 10713
  153.0119  135.5338  154.6749 H   0  0  0  0  0  0  0  0  0  0  0  0  # atno 10763 bound_to 10752
  154.5924  135.2860  155.0623 H   0  0  0  0  0  0  0  0  0  0  0  0  # atno 10764 bound_to 10752
  154.1711  135.6532  153.5062 H   0  0  0  0  0  0  0  0  0  0  0  0  # atno 10765 bound_to 10752
  140.2752  134.7794  157.3710 H   0  0  0  0  0  0  0  0  0  0  0  0  # atno 11005 bound_to 11000
  145.5382  141.0422  143.2345 LP  0  0  0  0  0  0  0  0  0  0  0  0  # atno 17320 bound_to 7965
  144.7635  139.6901  143.7224 LP  0  0  0  0  0  0  0  0  0  0  0  0  # atno 17321 bound_to 7965
  139.5081  144.6844  151.5925 LP  0  0  0  0  0  0  0  0  0  0  0  0  # atno 17342 bound_to 10162
  140.6123  143.9414  150.6462 LP  0  0  0  0  0  0  0  0  0  0  0  0  # atno 17343 bound_to 10162
  157.7402  131.0520  150.5184 LP  0  0  0  0  0  0  0  0  0  0  0  0  # atno 17370 bound_to 10713
  156.5330  130.4189  149.6192 LP  0  0  0  0  0  0  0  0  0  0  0  0  # atno 17371 bound_to 10713
  140.1335  134.5064  155.8087 LP  0  0  0  0  0  0  0  0  0  0  0  0  # atno 17394 bound_to 11000
  141.2171  133.6798  156.7082 LP  0  0  0  0  0  0  0  0  0  0  0  0  # atno 17395 bound_to 11000

$$$$
