AV-unprocessed.smi:173|AV-procd|sdf|1424|dock10
  -GOLD-   2262019193D 1   1.00000     0.00000
 Structure written by MMmdl.
 60 64  0  0  0  0  0  0  0  0  1 V2000
  147.3642  133.6148  152.1137 O   0  0  0  0  0  0  0  0  0  0  0  0
  146.1374  132.9569  152.3749 C   0  0  0  0  0  0  0  0  0  0  0  0
  146.2998  132.3320  153.7841 C   0  0  0  0  0  0  0  0  0  0  0  0
  146.3423  133.2990  154.8697 N   0  0  0  0  0  0  0  0  0  0  0  0
  145.2819  133.7192  155.6405 C   0  0  0  0  0  0  0  0  0  0  0  0
  145.5754  134.5968  156.5601 N   0  0  0  0  0  0  0  0  0  0  0  0
  146.9403  134.8086  156.4045 C   0  0  0  0  0  0  0  0  0  0  0  0
  147.9055  135.6194  157.0669 C   0  0  0  0  0  0  0  0  0  0  0  0
  147.6385  136.4440  158.1071 N   0  0  0  0  0  0  0  0  0  0  0  0
  148.2385  136.0134  159.3708 C   0  0  0  0  0  0  0  0  0  0  0  0
  147.2276  135.9473  160.5272 C   0  0  1  0  0  0  0  0  0  0  0  0
  147.5315  134.8392  161.5306 C   0  0  0  0  0  0  0  0  0  0  0  0
  146.7658  135.2905  162.7590 C   0  0  0  0  0  0  0  0  0  0  0  0
  146.7280  136.8144  162.6157 C   0  0  0  0  0  0  0  0  0  0  0  0
  147.3085  137.1037  161.3482 O   0  0  0  0  0  0  0  0  0  0  0  0
  147.5553  137.8849  157.8228 C   0  0  0  0  0  0  0  0  0  0  0  0
  146.8121  138.2979  156.5449 C   0  0  0  0  0  0  0  0  0  0  0  0
  147.1777  139.7753  156.3797 C   0  0  0  0  0  0  0  0  0  0  0  0
  148.5649  139.9439  157.0232 C   0  0  0  0  0  0  0  0  0  0  0  0
  148.9030  138.6027  157.6882 C   0  0  0  0  0  0  0  0  0  0  0  0
  149.1842  135.5796  156.6150 N   0  0  0  0  0  0  0  0  0  0  0  0
  149.5083  134.7852  155.5907 C   0  0  0  0  0  0  0  0  0  0  0  0
  148.7225  133.9672  154.8873 N   0  0  0  0  0  0  0  0  0  0  0  0
  147.4346  134.0104  155.3350 C   0  0  0  0  0  0  0  0  0  0  0  0
  145.0028  134.0026  152.3079 C   0  0  0  0  0  0  0  0  0  0  0  0
  144.7991  134.5383  150.8790 C   0  0  0  0  0  0  0  0  0  0  0  0
  144.5562  133.4592  149.9841 O   0  0  0  0  0  0  0  0  0  0  0  0
  145.6532  132.5570  149.8987 C   0  0  0  0  0  0  0  0  0  0  0  0
  145.9046  131.9040  151.2696 C   0  0  0  0  0  0  0  0  0  0  0  0
  147.1872  134.5306  151.9611 H   0  0  0  0  0  0  0  0  0  0  0  0
  145.4832  131.6363  153.9844 H   0  0  0  0  0  0  0  0  0  0  0  0
  147.2165  131.7415  153.8276 H   0  0  0  0  0  0  0  0  0  0  0  0
  144.2779  133.3441  155.5039 H   0  0  0  0  0  0  0  0  0  0  0  0
  148.6592  135.0158  159.2320 H   0  0  0  0  0  0  0  0  0  0  0  0
  149.0718  136.6645  159.6364 H   0  0  0  0  0  0  0  0  0  0  0  0
  146.2095  135.8311  160.1501 H   0  0  0  0  0  0  0  0  0  0  0  0
  147.2309  133.8517  161.1799 H   0  0  0  0  0  0  0  0  0  0  0  0
  148.5999  134.8117  161.7505 H   0  0  0  0  0  0  0  0  0  0  0  0
  145.7519  134.8890  162.7398 H   0  0  0  0  0  0  0  0  0  0  0  0
  147.2397  134.9654  163.6855 H   0  0  0  0  0  0  0  0  0  0  0  0
  145.7020  137.1823  162.6489 H   0  0  0  0  0  0  0  0  0  0  0  0
  147.2940  137.3131  163.4027 H   0  0  0  0  0  0  0  0  0  0  0  0
  147.0139  138.3440  158.6497 H   0  0  0  0  0  0  0  0  0  0  0  0
  147.1823  137.7558  155.6740 H   0  0  0  0  0  0  0  0  0  0  0  0
  145.7360  138.1356  156.6107 H   0  0  0  0  0  0  0  0  0  0  0  0
  147.1671  140.0817  155.3333 H   0  0  0  0  0  0  0  0  0  0  0  0
  146.4520  140.3947  156.9084 H   0  0  0  0  0  0  0  0  0  0  0  0
  149.3209  140.2119  156.2843 H   0  0  0  0  0  0  0  0  0  0  0  0
  148.5370  140.7436  157.7645 H   0  0  0  0  0  0  0  0  0  0  0  0
  149.4082  138.7293  158.6462 H   0  0  0  0  0  0  0  0  0  0  0  0
  149.5701  138.0437  157.0328 H   0  0  0  0  0  0  0  0  0  0  0  0
  150.5464  134.8070  155.2935 H   0  0  0  0  0  0  0  0  0  0  0  0
  144.0637  133.5527  152.6290 H   0  0  0  0  0  0  0  0  0  0  0  0
  145.1995  134.8273  152.9941 H   0  0  0  0  0  0  0  0  0  0  0  0
  143.9426  135.2123  150.8538 H   0  0  0  0  0  0  0  0  0  0  0  0
  145.6629  135.1151  150.5454 H   0  0  0  0  0  0  0  0  0  0  0  0
  145.4187  131.7908  149.1596 H   0  0  0  0  0  0  0  0  0  0  0  0
  146.5418  133.0786  149.5401 H   0  0  0  0  0  0  0  0  0  0  0  0
  146.7484  131.2157  151.2101 H   0  0  0  0  0  0  0  0  0  0  0  0
  145.0309  131.2992  151.5117 H   0  0  0  0  0  0  0  0  0  0  0  0
  1  2  1  0  0  0  0
  1 30  1  0  0  0  0
  2 29  1  0  0  0  0
  2  3  1  0  0  0  0
  2 25  1  0  0  0  0
  3  4  1  0  0  0  0
  3 31  1  0  0  0  0
  3 32  1  0  0  0  0
  4 24  1  0  0  0  0
  4  5  1  0  0  0  0
  5  6  2  0  0  0  0
  5 33  1  0  0  0  0
  6  7  1  0  0  0  0
  7 24  2  0  0  0  0
  7  8  1  0  0  0  0
  8  9  1  0  0  0  0
  8 21  2  0  0  0  0
  9 10  1  0  0  0  0
  9 16  1  0  0  0  0
 10 11  1  0  0  0  0
 10 34  1  0  0  0  0
 10 35  1  0  0  0  0
 11 15  1  0  0  0  0
 11 12  1  0  0  0  0
 11 36  1  0  0  0  0
 12 13  1  0  0  0  0
 12 37  1  0  0  0  0
 12 38  1  0  0  0  0
 13 14  1  0  0  0  0
 13 39  1  0  0  0  0
 13 40  1  0  0  0  0
 14 15  1  0  0  0  0
 14 41  1  0  0  0  0
 14 42  1  0  0  0  0
 16 20  1  0  0  0  0
 16 17  1  0  0  0  0
 16 43  1  0  0  0  0
 17 18  1  0  0  0  0
 17 44  1  0  0  0  0
 17 45  1  0  0  0  0
 18 19  1  0  0  0  0
 18 46  1  0  0  0  0
 18 47  1  0  0  0  0
 19 20  1  0  0  0  0
 19 48  1  0  0  0  0
 19 49  1  0  0  0  0
 20 50  1  0  0  0  0
 20 51  1  0  0  0  0
 21 22  1  0  0  0  0
 22 23  2  0  0  0  0
 22 52  1  0  0  0  0
 23 24  1  0  0  0  0
 25 26  1  0  0  0  0
 25 53  1  0  0  0  0
 25 54  1  0  0  0  0
 26 27  1  0  0  0  0
 26 55  1  0  0  0  0
 26 56  1  0  0  0  0
 27 28  1  0  0  0  0
 28 29  1  0  0  0  0
 28 57  1  0  0  0  0
 28 58  1  0  0  0  0
 29 59  1  0  0  0  0
 29 60  1  0  0  0  0
M  END
> <s_m_source_file>
AV-unprocessed.smi

> <i_m_source_file_index>
173

> <i_lp_mmshare_version>
43012

> <i_f3d_flags>
0

> <s_epik_input>
W0NIMl0xW0NIMl1PW0NIMl1bQ0gyXUMxKFtPSF0pW0NIMl1uKFtjSF1uMiljKGMyMyluW2NIXW5jM04oW0NIMl1bQ0BASF00W0NIMl1bQ0gyXVtDSDJdTzQpW0NIXTVbQ0gyXVtDSDJdW0NIMl1bQ0gyXTU=

> <s_epik_cmdline>
J2VwaWtfcHl0aG9uJywgJy1waCcsICc3LjAnLCAnLXRuJywgJzgnLCAnLW1hJywgJzIwMCcsICctbWV0YWxfYmluZGluZycsICctaW1hZScsICc8aW5maWxlLm1hZT4nLCAnLW9tYWUnLCAnPG91dGZpbGUubWFlPic=

> <r_lp_tautomer_probability>
1

> <r_epik_Ionization_Penalty>
0.0053129

> <r_epik_Ionization_Penalty_Charging>
0

> <r_epik_Ionization_Penalty_Neutral>
0.0053129

> <r_epik_State_Penalty>
0.00367355

> <r_epik_Charging_Adjusted_Penalty>
0.00367355

> <i_epik_Tot_Q>
0

> <i_epik_Tot_abs_Q>
0

> <r_epik_Metal_State_Penalty>
-0

> <b_epik_Metal_Only>
0

> <s_lp_Force_Field>
OPLS_2005

> <r_lp_Energy>
59.0129

> <b_lp_Chiralities_Consistent>
1

> <s_lp_Variant>
AV-unprocessed.smi:173-2

> <Gold.Version>
5.8.1

> <Gold.Id.Protein>
6NUR|6NUR_protein|mol2

> <Gold.PLP.Fitness>
40.5229

> <Gold.PLP.PLP>
-34.0571

> <Gold.PLP.part.hbond>
-3.0000

> <Gold.PLP.part.metal>
0.0000

> <Gold.PLP.part.buried>
-6.4283

> <Gold.PLP.part.nonpolar>
-25.4215

> <Gold.PLP.part.repulsive>
1.1487

> <Gold.PLP.ligand.clash>
0.0000

> <Gold.PLP.ligand.torsion>
1.8874

> <Gold.PLP.Chemscore.Hbond>
2.1276

> <Gold.PLP.Chemscore.CHOScore>
0.9044

> <Gold.PLP.Chemscore.Metal>
0.0000

> <Gold.Chemscore.Hbonds>
donor molecule, donor type, donor heavy atom, donor atom, acceptor molecule, acceptor atom, score
      L1  H     1    30       P1  7948  0.03
      P1  H  6931  6943       L1    15  0.65
      P1  H  6934  6947       L1    15  1.00
      L1  C     5    33       P1 10957  1.00

> <Gold.PLP.Chemscore.Internal.Correction>
1.1443

> <Gold.Rescore>
     Score         DG    S(hbond)    S(metal)    S(lipo)     H(rot)  DE(clash)    DE(int)     intcor
     12.44     -14.60       1.97        0.00      78.50       2.59       0.18       1.98       ----

> <Gold.Chemscore.Fitness>
12.4440

> <Gold.Chemscore.DG>
-14.6026

> <Gold.Chemscore.ZeroCoef>
-5.4800

> <Gold.Chemscore.Hbond>
1.9680

> <Gold.Chemscore.Metal>
0.0000

> <Gold.Chemscore.Lipo>
78.4969

> <Gold.Chemscore.Internal_Hbond>
0.0000

> <Gold.Chemscore.DEClash>
0.1798

> <Gold.Chemscore.DEInternal>
1.9788

> <Gold.Chemscore.Rot>
2.5916

> <Gold.Chemscore.Internal.Correction>
   9.000000E+99

> <Gold.Chemscore.Hbonds>
donor molecule, donor type, donor heavy atom, donor atom, acceptor molecule, acceptor atom, score
      L1  H     1    30       P1  7948  0.03
      P1  H  6931  6943       L1    15  0.23
      P1  H  6934  6947       L1    15  0.73

> <Gold.Chemscore.Hbond.Weighted>
-6.5730

> <Gold.Chemscore.Metal.Weighted>
-0.0000

> <Gold.Chemscore.Lipo.Weighted>
-9.1841

> <Gold.Chemscore.Internal_Hbond.Weighted>
0.0000

> <Gold.Chemscore.DEClash.Weighted>
0.1798

> <Gold.Chemscore.DEInternal.Weighted>
1.9788

> <Gold.Chemscore.Rot.Weighted>
6.6346

> <Gold.Chemscore.Internal.Correction.Weighted>
   9.000000E+99

> <Gold.Protein.RotatedTorsions>
[ 6907 6896 6895 6894 ] final   69.61 input  -60.11 | X-H torsion
[ 7974 7965 7964 7962 ] final   29.05 input  175.53 | X-H torsion
[ 8008 7997 7996 7995 ] final  114.69 input   59.86 | X-H torsion
[ 10167 10162 10161 10158 ] final   32.05 input  -65.29 | X-H torsion
[ 10718 10713 10712 10709 ] final    6.56 input   66.30 | X-H torsion
[ 10763 10752 10751 10750 ] final  -81.24 input  -60.55 | X-H torsion
[ 11005 11000 10999 10996 ] final  -84.89 input  -57.11 | X-H torsion

> <Gold.Protein.ActiveResidues>
 VAL166  LYS551  ARG553  GLY616  TRP617  ASP618  TYR619  PRO620  LYS621  CYS622 
 ASP623  PHE694  ASN695  SER759  ASP760  ASP761  ALA762  ILE779  LEU786  VAL792 
 PHE793  MET794  SER795  GLU796  ALA797  LYS798  CYS799  TRP800  GLU811  SER814 

> <Gold.Protein.RotatedAtoms>
  152.4697  134.4990  159.9718 H   0  0  0  0  0  0  0  0  0  0  0  0  # atno 6907 bound_to 6896
  151.5019  133.3496  159.2878 H   0  0  0  0  0  0  0  0  0  0  0  0  # atno 6908 bound_to 6896
  150.8700  134.8100  159.7210 H   0  0  0  0  0  0  0  0  0  0  0  0  # atno 6909 bound_to 6896
  146.1694  139.6974  142.8978 H   0  0  0  0  0  0  0  0  0  0  0  0  # atno 7974 bound_to 7965
  156.2336  140.2954  156.0253 H   0  0  0  0  0  0  0  0  0  0  0  0  # atno 8008 bound_to 7997
  155.2155  140.0414  157.2957 H   0  0  0  0  0  0  0  0  0  0  0  0  # atno 8009 bound_to 7997
  154.6039  140.2434  155.7764 H   0  0  0  0  0  0  0  0  0  0  0  0  # atno 8010 bound_to 7997
  140.4533  144.1015  150.6196 H   0  0  0  0  0  0  0  0  0  0  0  0  # atno 10167 bound_to 10162
  156.9240  130.5801  149.5648 H   0  0  0  0  0  0  0  0  0  0  0  0  # atno 10718 bound_to 10713
  154.5611  135.5633  153.7008 H   0  0  0  0  0  0  0  0  0  0  0  0  # atno 10763 bound_to 10752
  153.0018  135.6274  154.2243 H   0  0  0  0  0  0  0  0  0  0  0  0  # atno 10764 bound_to 10752
  154.2181  135.2871  155.2914 H   0  0  0  0  0  0  0  0  0  0  0  0  # atno 10765 bound_to 10752
  141.1646  133.7370  156.8935 H   0  0  0  0  0  0  0  0  0  0  0  0  # atno 11005 bound_to 11000
  145.4381  141.0420  143.2873 LP  0  0  0  0  0  0  0  0  0  0  0  0  # atno 17320 bound_to 7965
  144.8140  139.5910  143.7016 LP  0  0  0  0  0  0  0  0  0  0  0  0  # atno 17321 bound_to 7965
  140.4181  143.2624  151.9750 LP  0  0  0  0  0  0  0  0  0  0  0  0  # atno 17342 bound_to 10162
  139.4798  144.5856  151.7860 LP  0  0  0  0  0  0  0  0  0  0  0  0  # atno 17343 bound_to 10162
  156.0478  130.5552  150.8920 LP  0  0  0  0  0  0  0  0  0  0  0  0  # atno 17370 bound_to 10713
  157.5889  131.0945  150.9150 LP  0  0  0  0  0  0  0  0  0  0  0  0  # atno 17371 bound_to 10713
  140.1632  134.9151  157.2741 LP  0  0  0  0  0  0  0  0  0  0  0  0  # atno 17394 bound_to 11000
  140.2587  134.3597  155.7415 LP  0  0  0  0  0  0  0  0  0  0  0  0  # atno 17395 bound_to 11000

$$$$
