AV-unprocessed.smi:72|AV-procd|sdf|724|dock2
  -GOLD-   2262017 53D 1   1.00000     0.00000
 Structure written by MMmdl.
 28 29  0  0  0  0  0  0  0  0  2 V2000
  151.4750  142.7483  160.0553 N   0  0  0  0  0  0  0  0  0  0  0  0
  151.3162  142.1732  158.9450 C   0  0  0  0  0  0  0  0  0  0  0  0
  150.2410  142.5751  158.0654 N   0  0  0  0  0  0  0  0  0  0  0  0
  150.1404  141.9750  156.9194 C   0  0  0  0  0  0  0  0  0  0  0  0
  151.0816  140.9396  156.5045 N   0  0  0  0  0  0  0  0  0  0  0  0
  150.9801  140.2261  155.1636 C   0  0  1  0  0  0  0  0  0  0  0  0
  151.2287  138.8587  155.3280 O   0  0  0  0  0  0  0  0  0  0  0  0
  149.9958  138.1493  155.4103 C   0  0  2  0  0  0  0  0  0  0  0  0
  150.2015  136.6450  155.1622 C   0  0  0  0  0  0  0  0  0  0  0  0
  151.2649  136.4492  154.2548 O   0  0  0  0  0  0  0  0  0  0  0  0
  149.1389  138.8853  154.3763 C   0  0  2  0  0  0  0  0  0  0  0  0
  149.4272  138.4181  153.0682 O   0  0  0  0  0  0  0  0  0  0  0  0
  149.5518  140.3423  154.5857 C   0  0  2  0  0  0  0  0  0  0  0  0
  149.4874  141.1002  153.3919 O   0  0  0  0  0  0  0  0  0  0  0  0
  152.0966  140.5337  157.4130 C   0  0  0  0  0  0  0  0  0  0  0  0
  152.8500  139.6215  157.0716 O   0  0  0  0  0  0  0  0  0  0  0  0
  152.1940  141.1650  158.6160 N   0  5  0  0  0  0  0  0  0  0  0  0
  151.7616  140.6672  154.5423 H   0  0  0  0  0  0  0  0  0  0  0  0
  149.5485  138.3068  156.3936 H   0  0  0  0  0  0  0  0  0  0  0  0
  148.0733  138.7422  154.5590 H   0  0  0  0  0  0  0  0  0  0  0  0
  148.8957  140.7947  155.3313 H   0  0  0  0  0  0  0  0  0  0  0  0
  152.2575  142.3737  160.5715 H   0  0  0  0  0  0  0  0  0  0  0  0
  149.3489  142.2122  156.2088 H   0  0  0  0  0  0  0  0  0  0  0  0
  150.4690  136.1437  156.0928 H   0  0  0  0  0  0  0  0  0  0  0  0
  149.2933  136.1734  154.7859 H   0  0  0  0  0  0  0  0  0  0  0  0
  150.9143  136.4706  153.3773 H   0  0  0  0  0  0  0  0  0  0  0  0
  149.1828  139.0944  152.4544 H   0  0  0  0  0  0  0  0  0  0  0  0
  149.3683  140.5014  152.6695 H   0  0  0  0  0  0  0  0  0  0  0  0
  1  2  2  0  0  0  0
  1 22  1  0  0  0  0
  2 17  1  0  0  0  0
  2  3  1  0  0  0  0
  3  4  2  0  0  0  0
  4  5  1  0  0  0  0
  4 23  1  0  0  0  0
  5  6  1  0  0  0  0
  5 15  1  0  0  0  0
  6 18  1  0  0  0  0
  6 13  1  0  0  0  0
  6  7  1  0  0  0  0
  7  8  1  0  0  0  0
  8 19  1  0  0  0  0
  8  9  1  0  0  0  0
  8 11  1  0  0  0  0
  9 10  1  0  0  0  0
  9 24  1  0  0  0  0
  9 25  1  0  0  0  0
 10 26  1  0  0  0  0
 11 20  1  0  0  0  0
 11 12  1  0  0  0  0
 11 13  1  0  0  0  0
 12 27  1  0  0  0  0
 13 21  1  0  0  0  0
 13 14  1  0  0  0  0
 14 28  1  0  0  0  0
 15 16  2  0  0  0  0
 15 17  1  0  0  0  0
M  CHG  1  17  -1
M  END
> <s_m_source_file>
AV-unprocessed.smi

> <i_m_source_file_index>
72

> <i_lp_mmshare_version>
43012

> <i_f3d_flags>
0

> <s_epik_input>
W05IMl1jMW5bY0hdbihjKD1PKW4xKVtDQEBIXTJPW0NASF0oW0NIMl1bT0hdKVtDQEBIXShbT0hdKVtDQEhdMltPSF0=

> <s_epik_cmdline>
J2VwaWtfcHl0aG9uJywgJy1waCcsICc3LjAnLCAnLXRuJywgJzgnLCAnLW1hJywgJzIwMCcsICctbWV0YWxfYmluZGluZycsICctaW1hZScsICc8aW5maWxlLm1hZT4nLCAnLW9tYWUnLCAnPG91dGZpbGUubWFlPic=

> <r_lp_tautomer_probability>
7.17554e-07

> <r_epik_Ionization_Penalty>
12.8705

> <r_epik_Ionization_Penalty_Charging>
5.64144

> <r_epik_Ionization_Penalty_Neutral>
7.22905

> <r_epik_State_Penalty>
3.30104

> <r_epik_Charging_Adjusted_Penalty>
8.94249

> <i_epik_Tot_Q>
-1

> <i_epik_Tot_abs_Q>
1

> <r_epik_Metal_State_Penalty>
0.529074

> <b_epik_Metal_Only>
1

> <s_epik_Chemistry_Notes>
This compound contains an acetal/aminal-like group ( X-CH(R)-Y where X, Y are N, S, or O) that may be acid/base labile, releasing an aldehyde.

> <s_lp_Force_Field>
OPLS_2005

> <r_lp_Energy>
35.695

> <b_lp_Chiralities_Consistent>
1

> <s_lp_Variant>
AV-unprocessed.smi:72-62

> <Gold.Version>
5.8.1

> <Gold.Id.Protein>
6NUR|6NUR_protein|mol2

> <Gold.PLP.Fitness>
44.2717

> <Gold.PLP.PLP>
-27.3154

> <Gold.PLP.part.hbond>
-8.4362

> <Gold.PLP.part.metal>
0.0000

> <Gold.PLP.part.buried>
-1.2152

> <Gold.PLP.part.nonpolar>
-16.3214

> <Gold.PLP.part.repulsive>
0.1471

> <Gold.PLP.ligand.clash>
0.0000

> <Gold.PLP.ligand.torsion>
0.8821

> <Gold.PLP.Chemscore.Hbond>
5.6103

> <Gold.PLP.Chemscore.CHOScore>
0.6226

> <Gold.PLP.Chemscore.Metal>
0.0000

> <Gold.Chemscore.Hbonds>
donor molecule, donor type, donor heavy atom, donor atom, acceptor molecule, acceptor atom, score
      L1  H    10    26       P1  7949  0.80
      L1  H    12    27       P1  7957  0.94
      L1  H    14    28       P1  7957  1.00
      P1  H  7989  7998       L1    14  0.02
      P1  H  7997  8009       L1    16  1.00
      P1  H  8011  8017       L1    14  0.60
      P1  H 10752 10764       L1    10  1.00
      L1  C     4    23       P1  8028  0.62

> <Gold.PLP.Chemscore.Internal.Correction>
0.0219

> <Gold.Rescore>
     Score         DG    S(hbond)    S(metal)    S(lipo)     H(rot)  DE(clash)    DE(int)     intcor
      7.67     -11.57       4.14        0.00      22.34       4.04       1.27       2.63       ----

> <Gold.Chemscore.Fitness>
7.6681

> <Gold.Chemscore.DG>
-11.5679

> <Gold.Chemscore.ZeroCoef>
-5.4800

> <Gold.Chemscore.Hbond>
4.1370

> <Gold.Chemscore.Metal>
0.0000

> <Gold.Chemscore.Lipo>
22.3364

> <Gold.Chemscore.Internal_Hbond>
0.0000

> <Gold.Chemscore.DEClash>
1.2671

> <Gold.Chemscore.DEInternal>
2.6328

> <Gold.Chemscore.Rot>
4.0403

> <Gold.Chemscore.Internal.Correction>
   9.000000E+99

> <Gold.Chemscore.Hbonds>
donor molecule, donor type, donor heavy atom, donor atom, acceptor molecule, acceptor atom, score
      L1  H    10    26       P1  7949  0.13
      L1  H    12    27       P1  7957  0.91
      L1  H    14    28       P1  7957  0.95
      P1  H  7997  8009       L1    16  0.90
      P1  H  8011  8017       L1    14  0.04
      P1  H 10752 10764       L1    10  0.88

> <Gold.Chemscore.Hbond.Weighted>
-13.8176

> <Gold.Chemscore.Metal.Weighted>
-0.0000

> <Gold.Chemscore.Lipo.Weighted>
-2.6134

> <Gold.Chemscore.Internal_Hbond.Weighted>
0.0000

> <Gold.Chemscore.DEClash.Weighted>
1.2671

> <Gold.Chemscore.DEInternal.Weighted>
2.6328

> <Gold.Chemscore.Rot.Weighted>
10.3431

> <Gold.Chemscore.Internal.Correction.Weighted>
   9.000000E+99

> <Gold.Protein.RotatedTorsions>
[ 6907 6896 6895 6894 ] final  -34.30 input  -60.11 | X-H torsion
[ 7974 7965 7964 7962 ] final  -47.61 input  175.53 | X-H torsion
[ 8008 7997 7996 7995 ] final  172.13 input   59.86 | X-H torsion
[ 10167 10162 10161 10158 ] final   67.26 input  -65.29 | X-H torsion
[ 10718 10713 10712 10709 ] final  -33.20 input   66.30 | X-H torsion
[ 10763 10752 10751 10750 ] final  -71.29 input  -60.55 | X-H torsion
[ 11005 11000 10999 10996 ] final  -89.39 input  -57.11 | X-H torsion

> <Gold.Protein.ActiveResidues>
 VAL166  LYS551  ARG553  GLY616  TRP617  ASP618  TYR619  PRO620  LYS621  CYS622 
 ASP623  PHE694  ASN695  SER759  ASP760  ASP761  ALA762  ILE779  LEU786  VAL792 
 PHE793  MET794  SER795  GLU796  ALA797  LYS798  CYS799  TRP800  GLU811  SER814 

> <Gold.Protein.RotatedAtoms>
  151.0544  134.9694  159.8227 H   0  0  0  0  0  0  0  0  0  0  0  0  # atno 6907 bound_to 6896
  152.5386  134.2497  159.8904 H   0  0  0  0  0  0  0  0  0  0  0  0  # atno 6908 bound_to 6896
  151.2514  133.4305  159.2645 H   0  0  0  0  0  0  0  0  0  0  0  0  # atno 6909 bound_to 6896
  145.9598  140.7490  142.9463 H   0  0  0  0  0  0  0  0  0  0  0  0  # atno 7974 bound_to 7965
  156.1204  140.1494  156.9213 H   0  0  0  0  0  0  0  0  0  0  0  0  # atno 8008 bound_to 7997
  154.4831  140.0873  156.7466 H   0  0  0  0  0  0  0  0  0  0  0  0  # atno 8009 bound_to 7997
  155.4439  140.3432  155.4295 H   0  0  0  0  0  0  0  0  0  0  0  0  # atno 8010 bound_to 7997
  140.0915  144.4984  150.7095 H   0  0  0  0  0  0  0  0  0  0  0  0  # atno 10167 bound_to 10162
  156.3655  130.4331  149.7588 H   0  0  0  0  0  0  0  0  0  0  0  0  # atno 10718 bound_to 10713
  154.4297  135.5967  153.6061 H   0  0  0  0  0  0  0  0  0  0  0  0  # atno 10763 bound_to 10752
  152.9798  135.5972  154.3855 H   0  0  0  0  0  0  0  0  0  0  0  0  # atno 10764 bound_to 10752
  154.3691  135.2841  155.2255 H   0  0  0  0  0  0  0  0  0  0  0  0  # atno 10765 bound_to 10752
  141.1585  133.7627  156.9588 H   0  0  0  0  0  0  0  0  0  0  0  0  # atno 11005 bound_to 11000
  144.6812  140.2572  143.7324 LP  0  0  0  0  0  0  0  0  0  0  0  0  # atno 17320 bound_to 7965
  145.8055  139.1982  143.2023 LP  0  0  0  0  0  0  0  0  0  0  0  0  # atno 17321 bound_to 7965
  140.7026  143.2445  151.4820 LP  0  0  0  0  0  0  0  0  0  0  0  0  # atno 17342 bound_to 10162
  139.5722  144.1902  152.1852 LP  0  0  0  0  0  0  0  0  0  0  0  0  # atno 17343 bound_to 10162
  156.4735  130.8008  151.3025 LP  0  0  0  0  0  0  0  0  0  0  0  0  # atno 17370 bound_to 10713
  157.7478  131.0028  150.3015 LP  0  0  0  0  0  0  0  0  0  0  0  0  # atno 17371 bound_to 10713
  140.1207  134.9419  157.2199 LP  0  0  0  0  0  0  0  0  0  0  0  0  # atno 17394 bound_to 11000
  140.3076  134.3060  155.7274 LP  0  0  0  0  0  0  0  0  0  0  0  0  # atno 17395 bound_to 11000

$$$$
