AV-unprocessed.smi:221|AV-procd|sdf|1701|dock10
  -GOLD-   2262020153D 1   1.00000     0.00000
 Structure written by MMmdl.
 50 53  0  0  0  0  0  0  0  0  1 V2000
  147.9293  131.5058  153.0588 N   0  0  0  0  0  0  0  0  0  0  0  0
  147.0086  132.4494  153.2850 C   0  0  0  0  0  0  0  0  0  0  0  0
  146.4763  132.5721  154.3860 O   0  0  0  0  0  0  0  0  0  0  0  0
  146.6015  133.3862  152.1298 C   0  0  1  0  0  0  0  0  0  0  0  0
  146.0587  132.6138  150.9111 C   0  0  0  0  0  0  0  0  0  0  0  0
  144.5454  132.6799  151.0810 C   0  0  2  0  0  0  0  0  0  0  0  0
  143.8917  132.4952  149.9343 F   0  0  0  0  0  0  0  0  0  0  0  0
  144.3483  134.0788  151.6528 C   0  0  0  0  0  0  0  0  0  0  0  0
  145.5127  134.3012  152.5007 N   0  0  0  0  0  0  0  0  0  0  0  0
  145.8297  135.5958  152.7196 C   0  0  0  0  0  0  0  0  0  0  0  0
  145.7388  136.5011  151.7106 N   0  0  0  0  0  0  0  0  0  0  0  0
  146.0476  137.7819  151.9366 C   0  0  0  0  0  0  0  0  0  0  0  0
  146.4579  138.3550  153.0710 N   0  0  0  0  0  0  0  0  0  0  0  0
  146.5448  137.4444  154.0835 C   0  0  0  0  0  0  0  0  0  0  0  0
  146.2500  136.0560  153.9936 C   0  0  0  0  0  0  0  0  0  0  0  0
  146.4543  135.4412  155.2220 N   0  0  0  0  0  0  0  0  0  0  0  0
  146.8529  136.4134  155.9970 C   0  0  0  0  0  0  0  0  0  0  0  0
  146.9408  137.6482  155.3937 N   0  0  0  0  0  0  0  0  0  0  0  0
  147.3557  138.8905  156.0227 C   0  0  0  0  0  0  0  0  0  0  0  0
  148.6208  139.5126  155.3786 C   0  0  1  0  0  0  0  0  0  0  0  0
  148.5150  141.0590  155.3279 C   0  0  0  0  0  0  0  0  0  0  0  0
  148.3356  141.6201  156.6107 O   0  0  0  0  0  0  0  0  0  0  0  0
  149.8999  139.0347  156.1220 C   0  0  1  0  0  0  0  0  0  0  0  0
  150.7670  138.0581  155.3434 C   0  0  0  0  0  0  0  0  0  0  0  0
  152.0997  138.1356  156.0799 C   0  0  0  0  0  0  0  0  0  0  0  0
  152.1855  139.4626  156.5840 O   0  0  0  0  0  0  0  0  0  0  0  0
  150.9356  140.1246  156.4232 C   0  0  0  0  0  0  0  0  0  0  0  0
  147.5031  133.9260  151.8359 H   0  0  0  0  0  0  0  0  0  0  0  0
  144.2061  131.9213  151.7879 H   0  0  0  0  0  0  0  0  0  0  0  0
  148.2024  130.8824  153.8045 H   0  0  0  0  0  0  0  0  0  0  0  0
  148.3445  131.4174  152.1422 H   0  0  0  0  0  0  0  0  0  0  0  0
  146.3490  133.1332  149.9967 H   0  0  0  0  0  0  0  0  0  0  0  0
  146.4242  131.5890  150.8312 H   0  0  0  0  0  0  0  0  0  0  0  0
  144.3084  134.8164  150.8487 H   0  0  0  0  0  0  0  0  0  0  0  0
  143.4229  134.1533  152.2251 H   0  0  0  0  0  0  0  0  0  0  0  0
  145.9527  138.4419  151.0870 H   0  0  0  0  0  0  0  0  0  0  0  0
  147.0998  136.2561  157.0370 H   0  0  0  0  0  0  0  0  0  0  0  0
  146.5272  139.5986  155.9847 H   0  0  0  0  0  0  0  0  0  0  0  0
  147.5242  138.6697  157.0764 H   0  0  0  0  0  0  0  0  0  0  0  0
  148.6680  139.1467  154.3514 H   0  0  0  0  0  0  0  0  0  0  0  0
  149.4225  141.5106  154.9301 H   0  0  0  0  0  0  0  0  0  0  0  0
  147.6994  141.3696  154.6741 H   0  0  0  0  0  0  0  0  0  0  0  0
  148.5441  142.5410  156.5677 H   0  0  0  0  0  0  0  0  0  0  0  0
  149.6135  138.5613  157.0625 H   0  0  0  0  0  0  0  0  0  0  0  0
  150.3686  137.0433  155.3255 H   0  0  0  0  0  0  0  0  0  0  0  0
  150.8899  138.3961  154.3133 H   0  0  0  0  0  0  0  0  0  0  0  0
  152.1110  137.4432  156.9225 H   0  0  0  0  0  0  0  0  0  0  0  0
  152.9460  137.8984  155.4347 H   0  0  0  0  0  0  0  0  0  0  0  0
  151.0234  140.8165  155.5846 H   0  0  0  0  0  0  0  0  0  0  0  0
  150.6898  140.7015  157.3150 H   0  0  0  0  0  0  0  0  0  0  0  0
  1  2  1  0  0  0  0
  1 30  1  0  0  0  0
  1 31  1  0  0  0  0
  2  3  2  0  0  0  0
  2  4  1  0  0  0  0
  4 28  1  0  0  0  0
  4  9  1  0  0  0  0
  4  5  1  0  0  0  0
  5  6  1  0  0  0  0
  5 32  1  0  0  0  0
  5 33  1  0  0  0  0
  6 29  1  0  0  0  0
  6  7  1  0  0  0  0
  6  8  1  0  0  0  0
  8  9  1  0  0  0  0
  8 34  1  0  0  0  0
  8 35  1  0  0  0  0
  9 10  1  0  0  0  0
 10 15  1  0  0  0  0
 10 11  2  0  0  0  0
 11 12  1  0  0  0  0
 12 13  2  0  0  0  0
 12 36  1  0  0  0  0
 13 14  1  0  0  0  0
 14 18  1  0  0  0  0
 14 15  2  0  0  0  0
 15 16  1  0  0  0  0
 16 17  2  0  0  0  0
 17 18  1  0  0  0  0
 17 37  1  0  0  0  0
 18 19  1  0  0  0  0
 19 20  1  0  0  0  0
 19 38  1  0  0  0  0
 19 39  1  0  0  0  0
 20 21  1  0  0  0  0
 20 23  1  0  0  0  0
 20 40  1  0  0  0  0
 21 22  1  0  0  0  0
 21 41  1  0  0  0  0
 21 42  1  0  0  0  0
 22 43  1  0  0  0  0
 23 27  1  0  0  0  0
 23 24  1  0  0  0  0
 23 44  1  0  0  0  0
 24 25  1  0  0  0  0
 24 45  1  0  0  0  0
 24 46  1  0  0  0  0
 25 26  1  0  0  0  0
 25 47  1  0  0  0  0
 25 48  1  0  0  0  0
 26 27  1  0  0  0  0
 27 49  1  0  0  0  0
 27 50  1  0  0  0  0
M  END
> <s_m_source_file>
AV-unprocessed.smi

> <i_m_source_file_index>
221

> <i_lp_mmshare_version>
43012

> <i_f3d_flags>
0

> <s_epik_input>
W05IMl1DKD1PKVtDQEBIXTFbQ0gyXVtDQEBIXShGKVtDSDJdTjFjKG5bY0hdbjIpYyhjMjMpbltjSF1uM1tDSDJdW0NASF0oW0NIMl1bT0hdKVtDQEBIXTRbQ0gyXVtDSDJdT1tDSDJdNA==

> <s_epik_cmdline>
J2VwaWtfcHl0aG9uJywgJy1waCcsICc3LjAnLCAnLXRuJywgJzgnLCAnLW1hJywgJzIwMCcsICctbWV0YWxfYmluZGluZycsICctaW1hZScsICc8aW5maWxlLm1hZT4nLCAnLW9tYWUnLCAnPG91dGZpbGUubWFlPic=

> <r_lp_tautomer_probability>
1

> <r_epik_Ionization_Penalty>
0.000818822

> <r_epik_Ionization_Penalty_Charging>
0

> <r_epik_Ionization_Penalty_Neutral>
0.000818822

> <r_epik_State_Penalty>
0.000440551

> <r_epik_Charging_Adjusted_Penalty>
0.000440551

> <i_epik_Tot_Q>
0

> <i_epik_Tot_abs_Q>
0

> <r_epik_Metal_State_Penalty>
-0

> <b_epik_Metal_Only>
0

> <s_lp_Force_Field>
OPLS_2005

> <r_lp_Energy>
50.9528

> <b_lp_Chiralities_Consistent>
1

> <s_lp_Variant>
AV-unprocessed.smi:221-16

> <Gold.Version>
5.8.1

> <Gold.Id.Protein>
6NUR|6NUR_protein|mol2

> <Gold.PLP.Fitness>
44.4329

> <Gold.PLP.PLP>
-37.1596

> <Gold.PLP.part.hbond>
-4.0000

> <Gold.PLP.part.metal>
0.0000

> <Gold.PLP.part.buried>
0.0453

> <Gold.PLP.part.nonpolar>
-34.4465

> <Gold.PLP.part.repulsive>
0.7624

> <Gold.PLP.ligand.clash>
0.0000

> <Gold.PLP.ligand.torsion>
2.5149

> <Gold.PLP.Chemscore.Hbond>
2.9913

> <Gold.PLP.Chemscore.CHOScore>
1.0000

> <Gold.PLP.Chemscore.Metal>
0.0000

> <Gold.Chemscore.Hbonds>
donor molecule, donor type, donor heavy atom, donor atom, acceptor molecule, acceptor atom, score
      L1  H     1    31       P1 10747  0.99
      L1  H    22    43       P1  8028  0.13
      P1  H  7997  8008       L1    26  0.06
      L1  C    12    36       P1 10171  0.85

> <Gold.PLP.Chemscore.Internal.Correction>
0.3293

> <Gold.Rescore>
     Score         DG    S(hbond)    S(metal)    S(lipo)     H(rot)  DE(clash)    DE(int)     intcor
      9.83     -12.57       2.95        0.00      57.80       3.72       0.04       2.70       ----

> <Gold.Chemscore.Fitness>
9.8261

> <Gold.Chemscore.DG>
-12.5660

> <Gold.Chemscore.ZeroCoef>
-5.4800

> <Gold.Chemscore.Hbond>
2.9482

> <Gold.Chemscore.Metal>
0.0000

> <Gold.Chemscore.Lipo>
57.8004

> <Gold.Chemscore.Internal_Hbond>
0.0000

> <Gold.Chemscore.DEClash>
0.0383

> <Gold.Chemscore.DEInternal>
2.7017

> <Gold.Chemscore.Rot>
3.7202

> <Gold.Chemscore.Internal.Correction>
   9.000000E+99

> <Gold.Chemscore.Hbonds>
donor molecule, donor type, donor heavy atom, donor atom, acceptor molecule, acceptor atom, score
      L1  H     1    31       P1 10747  0.92
      L1  H    22    43       P1  8028  0.15
      P1  H  7997  8008       L1    26  0.05

> <Gold.Chemscore.Hbond.Weighted>
-9.8471

> <Gold.Chemscore.Metal.Weighted>
-0.0000

> <Gold.Chemscore.Lipo.Weighted>
-6.7627

> <Gold.Chemscore.Internal_Hbond.Weighted>
0.0000

> <Gold.Chemscore.DEClash.Weighted>
0.0383

> <Gold.Chemscore.DEInternal.Weighted>
2.7017

> <Gold.Chemscore.Rot.Weighted>
9.5237

> <Gold.Chemscore.Internal.Correction.Weighted>
   9.000000E+99

> <Gold.Protein.RotatedTorsions>
[ 6907 6896 6895 6894 ] final  -47.60 input  -60.11 | X-H torsion
[ 7974 7965 7964 7962 ] final -128.07 input  175.53 | X-H torsion
[ 8008 7997 7996 7995 ] final  -21.52 input   59.86 | X-H torsion
[ 10167 10162 10161 10158 ] final   85.07 input  -65.29 | X-H torsion
[ 10718 10713 10712 10709 ] final  -70.05 input   66.30 | X-H torsion
[ 10763 10752 10751 10750 ] final  125.38 input  -60.55 | X-H torsion
[ 11005 11000 10999 10996 ] final -105.58 input  -57.11 | X-H torsion

> <Gold.Protein.ActiveResidues>
 VAL166  LYS551  ARG553  GLY616  TRP617  ASP618  TYR619  PRO620  LYS621  CYS622 
 ASP623  PHE694  ASN695  SER759  ASP760  ASP761  ALA762  ILE779  LEU786  VAL792 
 PHE793  MET794  SER795  GLU796  ALA797  LYS798  CYS799  TRP800  GLU811  SER814 

> <Gold.Protein.RotatedAtoms>
  150.8991  134.8401  159.7346 H   0  0  0  0  0  0  0  0  0  0  0  0  # atno 6907 bound_to 6896
  152.4882  134.4531  159.9590 H   0  0  0  0  0  0  0  0  0  0  0  0  # atno 6908 bound_to 6896
  151.4584  133.3560  159.2841 H   0  0  0  0  0  0  0  0  0  0  0  0  # atno 6909 bound_to 6896
  144.9707  140.7542  143.4672 H   0  0  0  0  0  0  0  0  0  0  0  0  # atno 7974 bound_to 7965
  154.4701  140.2032  156.0018 H   0  0  0  0  0  0  0  0  0  0  0  0  # atno 8008 bound_to 7997
  156.0995  140.3246  155.7893 H   0  0  0  0  0  0  0  0  0  0  0  0  # atno 8009 bound_to 7997
  155.4821  140.0539  157.2956 H   0  0  0  0  0  0  0  0  0  0  0  0  # atno 8010 bound_to 7997
  139.9015  144.6326  150.8632 H   0  0  0  0  0  0  0  0  0  0  0  0  # atno 10167 bound_to 10162
  156.0426  130.4324  150.2238 H   0  0  0  0  0  0  0  0  0  0  0  0  # atno 10718 bound_to 10713
  153.6763  135.3322  155.3166 H   0  0  0  0  0  0  0  0  0  0  0  0  # atno 10763 bound_to 10752
  154.8477  135.4398  154.1652 H   0  0  0  0  0  0  0  0  0  0  0  0  # atno 10764 bound_to 10752
  153.2657  135.6995  153.7609 H   0  0  0  0  0  0  0  0  0  0  0  0  # atno 10765 bound_to 10752
  141.1046  133.8820  157.1752 H   0  0  0  0  0  0  0  0  0  0  0  0  # atno 11005 bound_to 11000
  145.2563  139.2010  143.4915 LP  0  0  0  0  0  0  0  0  0  0  0  0  # atno 17320 bound_to 7965
  146.3381  140.2485  142.8598 LP  0  0  0  0  0  0  0  0  0  0  0  0  # atno 17321 bound_to 7965
  140.7705  143.3433  151.2163 LP  0  0  0  0  0  0  0  0  0  0  0  0  # atno 17342 bound_to 10162
  139.7021  143.9516  152.2910 LP  0  0  0  0  0  0  0  0  0  0  0  0  # atno 17343 bound_to 10162
  157.0331  131.0013  151.3306 LP  0  0  0  0  0  0  0  0  0  0  0  0  # atno 17370 bound_to 10713
  157.5263  130.8030  149.7866 LP  0  0  0  0  0  0  0  0  0  0  0  0  # atno 17371 bound_to 10713
  139.9911  135.0064  156.9977 LP  0  0  0  0  0  0  0  0  0  0  0  0  # atno 17394 bound_to 11000
  140.4934  134.1170  155.7237 LP  0  0  0  0  0  0  0  0  0  0  0  0  # atno 17395 bound_to 11000

$$$$
