AV-unprocessed.smi:1220|AV-procd|sdf|5117|dock5
  -GOLD-   22720 4173D 1   1.00000     0.00000
 Structure written by MMmdl.
 35 36  0  0  0  0  0  0  0  0  1 V2000
  153.8382  140.2115  160.7524 C   0  0  0  0  0  0  0  0  0  0  0  0
  152.7844  141.2525  160.3512 C   0  0  1  0  0  0  0  0  0  0  0  0
  153.4441  142.5595  159.8603 C   0  0  0  0  0  0  0  0  0  0  0  0
  152.4754  143.5948  159.5445 N   0  0  0  0  0  0  0  0  0  0  0  0
  151.9013  144.5189  160.3924 C   0  0  0  0  0  0  0  0  0  0  0  0
  151.0694  145.2978  159.6408 C   0  0  0  0  0  0  0  0  0  0  0  0
  151.1995  144.7625  158.3289 C   0  0  0  0  0  0  0  0  0  0  0  0
  152.0386  143.7407  158.2751 N   0  0  0  0  0  0  0  0  0  0  0  0
  151.9261  140.6836  159.3123 N   0  0  0  0  0  0  0  0  0  0  0  0
  152.3397  139.9377  158.2751 C   0  0  0  0  0  0  0  0  0  0  0  0
  153.5228  139.6757  158.0573 O   0  0  0  0  0  0  0  0  0  0  0  0
  151.2445  139.3841  157.3565 C   0  0  1  0  0  0  0  0  0  0  0  0
  151.3956  139.8736  155.8998 C   0  0  0  0  0  0  0  0  0  0  0  0
  150.4834  139.0264  155.0072 C   0  0  0  0  0  0  0  0  0  0  0  0
  150.4866  137.3512  155.7468 S   0  0  0  0  0  0  0  0  0  0  0  0
  149.0975  136.9248  155.9733 O   0  0  0  0  0  0  0  0  0  0  0  0
  151.4319  136.4945  155.0152 O   0  0  0  0  0  0  0  0  0  0  0  0
  151.2444  137.8446  157.3407 C   0  0  0  0  0  0  0  0  0  0  0  0
  154.4787  140.5899  161.5495 H   0  0  0  0  0  0  0  0  0  0  0  0
  154.4776  139.9465  159.9095 H   0  0  0  0  0  0  0  0  0  0  0  0
  153.3686  139.2968  161.1160 H   0  0  0  0  0  0  0  0  0  0  0  0
  152.1938  141.4707  161.2429 H   0  0  0  0  0  0  0  0  0  0  0  0
  154.1178  142.9505  160.6243 H   0  0  0  0  0  0  0  0  0  0  0  0
  154.0546  142.3714  158.9761 H   0  0  0  0  0  0  0  0  0  0  0  0
  152.1369  144.5498  161.4460 H   0  0  0  0  0  0  0  0  0  0  0  0
  150.4619  146.1250  159.9761 H   0  0  0  0  0  0  0  0  0  0  0  0
  150.7126  145.0839  157.4201 H   0  0  0  0  0  0  0  0  0  0  0  0
  150.9341  140.8468  159.4070 H   0  0  0  0  0  0  0  0  0  0  0  0
  150.2691  139.7163  157.7165 H   0  0  0  0  0  0  0  0  0  0  0  0
  151.1618  140.9345  155.8052 H   0  0  0  0  0  0  0  0  0  0  0  0
  152.4264  139.7447  155.5659 H   0  0  0  0  0  0  0  0  0  0  0  0
  149.4606  139.4029  155.0305 H   0  0  0  0  0  0  0  0  0  0  0  0
  150.8173  138.9836  153.9703 H   0  0  0  0  0  0  0  0  0  0  0  0
  152.2538  137.4317  157.3735 H   0  0  0  0  0  0  0  0  0  0  0  0
  150.6723  137.4183  158.1649 H   0  0  0  0  0  0  0  0  0  0  0  0
  1  2  1  0  0  0  0
  1 19  1  0  0  0  0
  1 20  1  0  0  0  0
  1 21  1  0  0  0  0
  2  3  1  0  0  0  0
  2  9  1  0  0  0  0
  2 22  1  0  0  0  0
  3  4  1  0  0  0  0
  3 23  1  0  0  0  0
  3 24  1  0  0  0  0
  4  8  1  0  0  0  0
  4  5  1  0  0  0  0
  5  6  2  0  0  0  0
  5 25  1  0  0  0  0
  6  7  1  0  0  0  0
  6 26  1  0  0  0  0
  7  8  2  0  0  0  0
  7 27  1  0  0  0  0
  9 10  1  0  0  0  0
  9 28  1  0  0  0  0
 10 11  2  0  0  0  0
 10 12  1  0  0  0  0
 12 18  1  0  0  0  0
 12 13  1  0  0  0  0
 12 29  1  0  0  0  0
 13 14  1  0  0  0  0
 13 30  1  0  0  0  0
 13 31  1  0  0  0  0
 14 15  1  0  0  0  0
 14 32  1  0  0  0  0
 14 33  1  0  0  0  0
 15 16  2  0  0  0  0
 15 17  2  0  0  0  0
 15 18  1  0  0  0  0
 18 34  1  0  0  0  0
 18 35  1  0  0  0  0
M  END
> <s_m_source_file>
AV-unprocessed.smi

> <i_m_source_file_index>
1220

> <i_lp_mmshare_version>
43012

> <i_f3d_flags>
0

> <s_epik_input>
bjFbY0hdW2NIXVtjSF1uMVtDSDJdW0NAQEhdKFtDSDNdKVtOSF1DKD1PKVtDQEBIXShbQ0gyXTIpW0NIMl1bQ0gyXVMyKD1PKT1P

> <s_epik_cmdline>
J2VwaWtfcHl0aG9uJywgJy1waCcsICc3LjAnLCAnLXRuJywgJzgnLCAnLW1hJywgJzIwMCcsICctbWV0YWxfYmluZGluZycsICctaW1hZScsICc8aW5maWxlLm1hZT4nLCAnLW9tYWUnLCAnPG91dGZpbGUubWFlPic=

> <r_lp_tautomer_probability>
1

> <r_epik_Ionization_Penalty>
0.000293905

> <r_epik_Ionization_Penalty_Charging>
0

> <r_epik_Ionization_Penalty_Neutral>
0.000293905

> <r_epik_State_Penalty>
-0

> <r_epik_Charging_Adjusted_Penalty>
0

> <i_epik_Tot_Q>
0

> <i_epik_Tot_abs_Q>
0

> <r_epik_Metal_State_Penalty>
-0

> <b_epik_Metal_Only>
0

> <s_lp_Force_Field>
OPLS_2005

> <r_lp_Energy>
3.0384

> <b_lp_Chiralities_Consistent>
1

> <s_lp_Variant>
AV-unprocessed.smi:1220-4

> <Gold.Version>
5.8.1

> <Gold.Id.Protein>
6NUR|6NUR_protein|mol2

> <Gold.PLP.Fitness>
44.0958

> <Gold.PLP.PLP>
-36.3617

> <Gold.PLP.part.hbond>
-1.7799

> <Gold.PLP.part.metal>
0.0000

> <Gold.PLP.part.buried>
-5.2451

> <Gold.PLP.part.nonpolar>
-30.8896

> <Gold.PLP.part.repulsive>
0.4073

> <Gold.PLP.ligand.clash>
0.0000

> <Gold.PLP.ligand.torsion>
0.6434

> <Gold.PLP.Chemscore.Hbond>
2.0000

> <Gold.PLP.Chemscore.CHOScore>
1.0000

> <Gold.PLP.Chemscore.Metal>
0.0000

> <Gold.Chemscore.Hbonds>
donor molecule, donor type, donor heavy atom, donor atom, acceptor molecule, acceptor atom, score
      P1  H  7997  8009       L1    11  1.00
      P1  H 10752 10765       L1    17  1.00
      L1  C     7    27       P1  8028  0.98

> <Gold.PLP.Chemscore.Internal.Correction>
0.0209

> <Gold.Rescore>
     Score         DG    S(hbond)    S(metal)    S(lipo)     H(rot)  DE(clash)    DE(int)     intcor
     16.05     -18.14       1.99        0.00      89.71       1.75       0.06       2.03       ----

> <Gold.Chemscore.Fitness>
16.0504

> <Gold.Chemscore.DG>
-18.1403

> <Gold.Chemscore.ZeroCoef>
-5.4800

> <Gold.Chemscore.Hbond>
1.9862

> <Gold.Chemscore.Metal>
0.0000

> <Gold.Chemscore.Lipo>
89.7116

> <Gold.Chemscore.Internal_Hbond>
0.0000

> <Gold.Chemscore.DEClash>
0.0572

> <Gold.Chemscore.DEInternal>
2.0327

> <Gold.Chemscore.Rot>
1.7460

> <Gold.Chemscore.Internal.Correction>
   9.000000E+99

> <Gold.Chemscore.Hbonds>
donor molecule, donor type, donor heavy atom, donor atom, acceptor molecule, acceptor atom, score
      P1  H  7997  8009       L1    11  0.94
      P1  H 10752 10765       L1    17  1.00

> <Gold.Chemscore.Hbond.Weighted>
-6.6338

> <Gold.Chemscore.Metal.Weighted>
-0.0000

> <Gold.Chemscore.Lipo.Weighted>
-10.4963

> <Gold.Chemscore.Internal_Hbond.Weighted>
0.0000

> <Gold.Chemscore.DEClash.Weighted>
0.0572

> <Gold.Chemscore.DEInternal.Weighted>
2.0327

> <Gold.Chemscore.Rot.Weighted>
4.4697

> <Gold.Chemscore.Internal.Correction.Weighted>
   9.000000E+99

> <Gold.Protein.RotatedTorsions>
[ 6907 6896 6895 6894 ] final -130.48 input  -60.11 | X-H torsion
[ 7974 7965 7964 7962 ] final -162.80 input  175.53 | X-H torsion
[ 8008 7997 7996 7995 ] final  137.09 input   59.86 | X-H torsion
[ 10167 10162 10161 10158 ] final   49.87 input  -65.29 | X-H torsion
[ 10718 10713 10712 10709 ] final -161.64 input   66.30 | X-H torsion
[ 10763 10752 10751 10750 ] final  179.18 input  -60.55 | X-H torsion
[ 11005 11000 10999 10996 ] final   10.03 input  -57.11 | X-H torsion

> <Gold.Protein.ActiveResidues>
 VAL166  LYS551  ARG553  GLY616  TRP617  ASP618  TYR619  PRO620  LYS621  CYS622 
 ASP623  PHE694  ASN695  SER759  ASP760  ASP761  ALA762  ILE779  LEU786  VAL792 
 PHE793  MET794  SER795  GLU796  ALA797  LYS798  CYS799  TRP800  GLU811  SER814 

> <Gold.Protein.RotatedAtoms>
  150.9402  133.6665  159.2792 H   0  0  0  0  0  0  0  0  0  0  0  0  # atno 6907 bound_to 6896
  151.4057  135.0976  159.9579 H   0  0  0  0  0  0  0  0  0  0  0  0  # atno 6908 bound_to 6896
  152.5066  133.8886  159.7437 H   0  0  0  0  0  0  0  0  0  0  0  0  # atno 6909 bound_to 6896
  144.7346  140.3199  143.6172 H   0  0  0  0  0  0  0  0  0  0  0  0  # atno 7974 bound_to 7965
  156.3003  140.2428  156.3853 H   0  0  0  0  0  0  0  0  0  0  0  0  # atno 8008 bound_to 7997
  154.8663  140.0418  157.1717 H   0  0  0  0  0  0  0  0  0  0  0  0  # atno 8009 bound_to 7997
  154.8842  140.2954  155.5411 H   0  0  0  0  0  0  0  0  0  0  0  0  # atno 8010 bound_to 7997
  140.2783  144.3186  150.6271 H   0  0  0  0  0  0  0  0  0  0  0  0  # atno 10167 bound_to 10162
  156.5991  130.8803  151.2909 H   0  0  0  0  0  0  0  0  0  0  0  0  # atno 10718 bound_to 10713
  154.5173  135.2792  155.1292 H   0  0  0  0  0  0  0  0  0  0  0  0  # atno 10763 bound_to 10752
  154.2863  135.6275  153.5371 H   0  0  0  0  0  0  0  0  0  0  0  0  # atno 10764 bound_to 10752
  152.9930  135.5663  154.5654 H   0  0  0  0  0  0  0  0  0  0  0  0  # atno 10765 bound_to 10752
  140.5190  134.0577  155.7839 H   0  0  0  0  0  0  0  0  0  0  0  0  # atno 11005 bound_to 11000
  145.7579  139.1815  143.2284 LP  0  0  0  0  0  0  0  0  0  0  0  0  # atno 17320 bound_to 7965
  146.1009  140.7544  142.9549 LP  0  0  0  0  0  0  0  0  0  0  0  0  # atno 17321 bound_to 7965
  140.5833  143.2171  151.7389 LP  0  0  0  0  0  0  0  0  0  0  0  0  # atno 17342 bound_to 10162
  139.4969  144.4049  152.0143 LP  0  0  0  0  0  0  0  0  0  0  0  0  # atno 17343 bound_to 10162
  157.7284  130.9656  150.1742 LP  0  0  0  0  0  0  0  0  0  0  0  0  # atno 17370 bound_to 10713
  156.2485  130.3698  149.8259 LP  0  0  0  0  0  0  0  0  0  0  0  0  # atno 17371 bound_to 10713
  141.1344  133.9246  157.2465 LP  0  0  0  0  0  0  0  0  0  0  0  0  # atno 17394 bound_to 11000
  139.9616  135.0152  156.9276 LP  0  0  0  0  0  0  0  0  0  0  0  0  # atno 17395 bound_to 11000

$$$$
