AV-unprocessed.smi:798|AV-procd|sdf|3773|dock9
  -GOLD-   22720 1203D 1   1.00000     0.00000
 Structure written by MMmdl.
 34 36  0  0  0  0  0  0  0  0  1 V2000
  145.9289  138.6467  153.9831 O   0  0  0  0  0  0  0  0  0  0  0  0
  146.8024  137.9018  153.5382 C   0  0  0  0  0  0  0  0  0  0  0  0
  148.1242  138.1460  153.5701 N   0  0  0  0  0  0  0  0  0  0  0  0
  148.7976  139.2795  154.0978 C   0  0  0  0  0  0  0  0  0  0  0  0
  150.0658  139.2550  154.5366 N   0  0  0  0  0  0  0  0  0  0  0  0
  150.4786  140.4966  155.0025 N   0  0  0  0  0  0  0  0  0  0  0  0
  149.5068  141.4074  154.8971 C   0  0  0  0  0  0  0  0  0  0  0  0
  147.9919  140.8372  154.2183 S   0  0  0  0  0  0  0  0  0  0  0  0
  146.5417  136.7289  152.9433 N   0  0  0  0  0  0  0  0  0  0  0  0
  145.2085  136.1561  152.7467 C   0  0  2  0  0  0  0  0  0  0  0  0
  145.0846  134.7330  153.3460 C   0  0  2  0  0  0  0  0  0  0  0  0
  146.2343  133.8186  152.8708 C   0  0  0  0  0  0  0  0  0  0  0  0
  145.8990  133.6033  151.3843 C   0  0  0  0  0  0  0  0  0  0  0  0
  144.5858  134.3944  151.2083 C   0  0  1  0  0  0  0  0  0  0  0  0
  143.9142  134.1570  152.5555 C   0  0  0  0  0  0  0  0  0  0  0  0
  144.8167  135.9250  151.2577 C   0  0  2  0  0  0  0  0  0  0  0  0
  145.7550  136.5022  150.1732 C   0  0  0  0  0  0  0  0  0  0  0  0
  146.1806  137.7997  150.5311 O   0  0  0  0  0  0  0  0  0  0  0  0
  148.7198  137.4392  153.1649 H   0  0  0  0  0  0  0  0  0  0  0  0
  149.6832  142.4222  155.2216 H   0  0  0  0  0  0  0  0  0  0  0  0
  147.3207  136.1840  152.6038 H   0  0  0  0  0  0  0  0  0  0  0  0
  144.4612  136.7970  153.2189 H   0  0  0  0  0  0  0  0  0  0  0  0
  144.9483  134.7290  154.4278 H   0  0  0  0  0  0  0  0  0  0  0  0
  147.2269  134.2426  153.0214 H   0  0  0  0  0  0  0  0  0  0  0  0
  146.2072  132.8674  153.4039 H   0  0  0  0  0  0  0  0  0  0  0  0
  146.6958  133.9349  150.7201 H   0  0  0  0  0  0  0  0  0  0  0  0
  145.7347  132.5434  151.1856 H   0  0  0  0  0  0  0  0  0  0  0  0
  143.9970  134.0721  150.3488 H   0  0  0  0  0  0  0  0  0  0  0  0
  143.7237  133.1030  152.7663 H   0  0  0  0  0  0  0  0  0  0  0  0
  142.9865  134.7175  152.6846 H   0  0  0  0  0  0  0  0  0  0  0  0
  143.8458  136.4012  151.1079 H   0  0  0  0  0  0  0  0  0  0  0  0
  146.6415  135.8752  150.0746 H   0  0  0  0  0  0  0  0  0  0  0  0
  145.2821  136.5362  149.1924 H   0  0  0  0  0  0  0  0  0  0  0  0
  145.4458  138.3890  150.4529 H   0  0  0  0  0  0  0  0  0  0  0  0
  1  2  2  0  0  0  0
  2  3  1  0  0  0  0
  2  9  1  0  0  0  0
  3  4  1  0  0  0  0
  3 19  1  0  0  0  0
  4  8  1  0  0  0  0
  4  5  2  0  0  0  0
  5  6  1  0  0  0  0
  6  7  2  0  0  0  0
  7  8  1  0  0  0  0
  7 20  1  0  0  0  0
  9 10  1  0  0  0  0
  9 21  1  0  0  0  0
 10 16  1  0  0  0  0
 10 11  1  0  0  0  0
 10 22  1  0  0  0  0
 11 15  1  0  0  0  0
 11 12  1  0  0  0  0
 11 23  1  0  0  0  0
 12 13  1  0  0  0  0
 12 24  1  0  0  0  0
 12 25  1  0  0  0  0
 13 14  1  0  0  0  0
 13 26  1  0  0  0  0
 13 27  1  0  0  0  0
 14 15  1  0  0  0  0
 14 16  1  0  0  0  0
 14 28  1  0  0  0  0
 15 29  1  0  0  0  0
 15 30  1  0  0  0  0
 16 17  1  0  0  0  0
 16 31  1  0  0  0  0
 17 18  1  0  0  0  0
 17 32  1  0  0  0  0
 17 33  1  0  0  0  0
 18 34  1  0  0  0  0
M  END
> <s_m_source_file>
AV-unprocessed.smi

> <i_m_source_file_index>
798

> <i_lp_mmshare_version>
43012

> <i_f3d_flags>
0

> <s_epik_input>
W0NIMl0xW0NIMl1bQ0BASF0oW0NIMl0yKVtDQEBIXShbQ0gyXVtPSF0pW0NAQEhdKFtDQEhdMTIpW05IXUMoPU8pW05IXWMzbm5bY0hdczM=

> <s_epik_cmdline>
J2VwaWtfcHl0aG9uJywgJy1waCcsICc3LjAnLCAnLXRuJywgJzgnLCAnLW1hJywgJzIwMCcsICctbWV0YWxfYmluZGluZycsICctaW1hZScsICc8aW5maWxlLm1hZT4nLCAnLW9tYWUnLCAnPG91dGZpbGUubWFlPic=

> <r_lp_tautomer_probability>
1

> <r_epik_Ionization_Penalty>
0.000329046

> <r_epik_Ionization_Penalty_Charging>
0

> <r_epik_Ionization_Penalty_Neutral>
0.000329046

> <r_epik_State_Penalty>
-0

> <r_epik_Charging_Adjusted_Penalty>
0

> <i_epik_Tot_Q>
0

> <i_epik_Tot_abs_Q>
0

> <r_epik_Metal_State_Penalty>
0.173433

> <b_epik_Metal_Only>
0

> <s_lp_Force_Field>
OPLS_2005

> <r_lp_Energy>
50.5105

> <b_lp_Chiralities_Consistent>
1

> <s_lp_Variant>
AV-unprocessed.smi:798-5

> <Gold.Version>
5.8.1

> <Gold.Id.Protein>
6NUR|6NUR_protein|mol2

> <Gold.PLP.Fitness>
41.1904

> <Gold.PLP.PLP>
-25.2900

> <Gold.PLP.part.hbond>
-5.0000

> <Gold.PLP.part.metal>
0.0000

> <Gold.PLP.part.buried>
-0.1722

> <Gold.PLP.part.nonpolar>
-20.0127

> <Gold.PLP.part.repulsive>
0.4047

> <Gold.PLP.ligand.clash>
0.0000

> <Gold.PLP.ligand.torsion>
0.2885

> <Gold.PLP.Chemscore.Hbond>
4.4896

> <Gold.PLP.Chemscore.CHOScore>
1.0000

> <Gold.PLP.Chemscore.Metal>
0.0000

> <Gold.Chemscore.Hbonds>
donor molecule, donor type, donor heavy atom, donor atom, acceptor molecule, acceptor atom, score
      L1  H     3    19       P1  7948  0.96
      L1  H     9    21       P1  7948  0.93
      L1  H    18    34       P1 10171  0.91
      P1  H  7954  7966       L1    18  0.79
      P1  H  7989  7998       L1     6  0.80
      L1  C     7    20       P1  8028  1.00

> <Gold.PLP.Chemscore.Internal.Correction>
0.0087

> <Gold.Rescore>
     Score         DG    S(hbond)    S(metal)    S(lipo)     H(rot)  DE(clash)    DE(int)     intcor
     12.86     -17.08       3.02        0.00      55.55       1.94       1.44       2.77       ----

> <Gold.Chemscore.Fitness>
12.8636

> <Gold.Chemscore.DG>
-17.0778

> <Gold.Chemscore.ZeroCoef>
-5.4800

> <Gold.Chemscore.Hbond>
3.0167

> <Gold.Chemscore.Metal>
0.0000

> <Gold.Chemscore.Lipo>
55.5475

> <Gold.Chemscore.Internal_Hbond>
0.0000

> <Gold.Chemscore.DEClash>
1.4396

> <Gold.Chemscore.DEInternal>
2.7746

> <Gold.Chemscore.Rot>
1.9442

> <Gold.Chemscore.Internal.Correction>
   9.000000E+99

> <Gold.Chemscore.Hbonds>
donor molecule, donor type, donor heavy atom, donor atom, acceptor molecule, acceptor atom, score
      L1  H     3    19       P1  7948  0.92
      L1  H     9    21       P1  7948  0.90
      L1  H    18    34       P1 10171  0.88
      P1  H  7954  7966       L1    18  0.30
      P1  H  7989  7998       L1     6  0.04

> <Gold.Chemscore.Hbond.Weighted>
-10.0758

> <Gold.Chemscore.Metal.Weighted>
-0.0000

> <Gold.Chemscore.Lipo.Weighted>
-6.4991

> <Gold.Chemscore.Internal_Hbond.Weighted>
0.0000

> <Gold.Chemscore.DEClash.Weighted>
1.4396

> <Gold.Chemscore.DEInternal.Weighted>
2.7746

> <Gold.Chemscore.Rot.Weighted>
4.9771

> <Gold.Chemscore.Internal.Correction.Weighted>
   9.000000E+99

> <Gold.Protein.RotatedTorsions>
[ 6907 6896 6895 6894 ] final -126.81 input  -60.11 | X-H torsion
[ 7974 7965 7964 7962 ] final   23.37 input  175.53 | X-H torsion
[ 8008 7997 7996 7995 ] final   20.60 input   59.86 | X-H torsion
[ 10167 10162 10161 10158 ] final  -71.48 input  -65.29 | X-H torsion
[ 10718 10713 10712 10709 ] final -173.46 input   66.30 | X-H torsion
[ 10763 10752 10751 10750 ] final   98.47 input  -60.55 | X-H torsion
[ 11005 11000 10999 10996 ] final -150.90 input  -57.11 | X-H torsion

> <Gold.Protein.ActiveResidues>
 VAL166  LYS551  ARG553  GLY616  TRP617  ASP618  TYR619  PRO620  LYS621  CYS622 
 ASP623  PHE694  ASN695  SER759  ASP760  ASP761  ALA762  ILE779  LEU786  VAL792 
 PHE793  MET794  SER795  GLU796  ALA797  LYS798  CYS799  TRP800  GLU811  SER814 

> <Gold.Protein.RotatedAtoms>
  150.9008  133.7121  159.2879 H   0  0  0  0  0  0  0  0  0  0  0  0  # atno 6907 bound_to 6896
  151.4640  135.1039  159.9742 H   0  0  0  0  0  0  0  0  0  0  0  0  # atno 6908 bound_to 6896
  152.4875  133.8364  159.7185 H   0  0  0  0  0  0  0  0  0  0  0  0  # atno 6909 bound_to 6896
  146.1987  139.7754  142.8778 H   0  0  0  0  0  0  0  0  0  0  0  0  # atno 7974 bound_to 7965
  154.9380  140.3049  155.5135 H   0  0  0  0  0  0  0  0  0  0  0  0  # atno 8008 bound_to 7997
  156.2998  140.2341  156.4383 H   0  0  0  0  0  0  0  0  0  0  0  0  # atno 8009 bound_to 7997
  154.8173  140.0425  157.1374 H   0  0  0  0  0  0  0  0  0  0  0  0  # atno 8010 bound_to 7997
  140.5269  143.2325  151.7331 H   0  0  0  0  0  0  0  0  0  0  0  0  # atno 10167 bound_to 10162
  156.7706  130.9447  151.3120 H   0  0  0  0  0  0  0  0  0  0  0  0  # atno 10718 bound_to 10713
  153.2894  135.4147  155.1153 H   0  0  0  0  0  0  0  0  0  0  0  0  # atno 10763 bound_to 10752
  154.8515  135.3514  154.6002 H   0  0  0  0  0  0  0  0  0  0  0  0  # atno 10764 bound_to 10752
  153.6424  135.7056  153.5295 H   0  0  0  0  0  0  0  0  0  0  0  0  # atno 10765 bound_to 10752
  140.7353  134.3575  157.5158 H   0  0  0  0  0  0  0  0  0  0  0  0  # atno 11005 bound_to 11000
  145.3557  141.0316  143.3313 LP  0  0  0  0  0  0  0  0  0  0  0  0  # atno 17320 bound_to 7965
  144.8636  139.5141  143.6801 LP  0  0  0  0  0  0  0  0  0  0  0  0  # atno 17321 bound_to 7965
  139.4941  144.4172  152.0017 LP  0  0  0  0  0  0  0  0  0  0  0  0  # atno 17342 bound_to 10162
  140.3272  144.3359  150.5995 LP  0  0  0  0  0  0  0  0  0  0  0  0  # atno 17343 bound_to 10162
  157.6693  130.9036  150.0003 LP  0  0  0  0  0  0  0  0  0  0  0  0  # atno 17370 bound_to 10713
  156.1280  130.3644  149.9777 LP  0  0  0  0  0  0  0  0  0  0  0  0  # atno 17371 bound_to 10713
  139.8817  134.9045  156.2879 LP  0  0  0  0  0  0  0  0  0  0  0  0  # atno 17394 bound_to 11000
  140.9885  133.7223  156.0778 LP  0  0  0  0  0  0  0  0  0  0  0  0  # atno 17395 bound_to 11000

$$$$
