AV-unprocessed.smi:853|AV-procd|sdf|3953|dock4
  -GOLD-   22720 1423D 1   1.00000     0.00000
 Structure written by MMmdl.
 49 51  0  0  0  0  0  0  0  0  1 V2000
  144.8141  132.2120  150.1829 C   0  0  0  0  0  0  0  0  0  0  0  0
  144.4285  133.6501  149.8289 C   0  0  0  0  0  0  0  0  0  0  0  0
  144.3035  133.9387  148.6385 O   0  0  0  0  0  0  0  0  0  0  0  0
  144.2365  134.5489  150.8243 N   0  0  0  0  0  0  0  0  0  0  0  0
  144.4492  134.2234  152.2394 C   0  0  0  0  0  0  0  0  0  0  0  0
  145.7086  134.9570  152.7342 C   0  0  0  0  0  0  0  0  0  0  0  0
  145.6032  136.4790  152.4978 C   0  0  0  0  0  0  0  0  0  0  0  0
  146.8821  137.1113  152.8070 N   0  0  0  0  0  0  0  0  0  0  0  0
  147.0979  137.9730  153.8109 C   0  0  0  0  0  0  0  0  0  0  0  0
  146.2188  138.3413  154.5896 O   0  0  0  0  0  0  0  0  0  0  0  0
  148.3786  138.3807  153.8297 N   0  0  0  0  0  0  0  0  0  0  0  0
  149.0238  139.2556  154.7454 C   0  0  0  0  0  0  0  0  0  0  0  0
  148.4642  139.6948  155.9681 C   0  0  0  0  0  0  0  0  0  0  0  0
  149.2196  140.5451  156.7980 C   0  0  0  0  0  0  0  0  0  0  0  0
  150.5205  140.9283  156.3940 C   0  0  0  0  0  0  0  0  0  0  0  0
  151.3087  141.7766  157.1971 N   0  0  0  0  0  0  0  0  0  0  0  0
  151.1560  141.8177  158.6434 C   0  0  0  0  0  0  0  0  0  0  0  0
  152.0637  142.9602  159.0957 C   0  0  0  0  0  0  0  0  0  0  0  0
  151.9925  143.9411  157.9258 C   0  0  0  0  0  0  0  0  0  0  0  0
  151.8226  143.0440  156.6943 C   0  0  0  0  0  0  0  0  0  0  0  0
  151.0547  140.5052  155.2238 N   0  0  0  0  0  0  0  0  0  0  0  0
  150.3269  139.6906  154.4318 C   0  0  0  0  0  0  0  0  0  0  0  0
  145.1745  136.7963  151.0464 C   0  0  0  0  0  0  0  0  0  0  0  0
  143.9395  135.9745  150.6368 C   0  0  0  0  0  0  0  0  0  0  0  0
  144.0557  131.7523  150.8174 H   0  0  0  0  0  0  0  0  0  0  0  0
  145.7738  132.1860  150.6997 H   0  0  0  0  0  0  0  0  0  0  0  0
  144.9049  131.6054  149.2813 H   0  0  0  0  0  0  0  0  0  0  0  0
  143.5793  134.5381  152.8181 H   0  0  0  0  0  0  0  0  0  0  0  0
  144.5506  133.1519  152.4164 H   0  0  0  0  0  0  0  0  0  0  0  0
  145.8652  134.7526  153.7940 H   0  0  0  0  0  0  0  0  0  0  0  0
  146.5797  134.5596  152.2106 H   0  0  0  0  0  0  0  0  0  0  0  0
  144.8390  136.8657  153.1749 H   0  0  0  0  0  0  0  0  0  0  0  0
  147.6619  136.8708  152.2126 H   0  0  0  0  0  0  0  0  0  0  0  0
  148.9587  138.0473  153.0738 H   0  0  0  0  0  0  0  0  0  0  0  0
  147.4822  139.3918  156.2954 H   0  0  0  0  0  0  0  0  0  0  0  0
  148.7914  140.8899  157.7273 H   0  0  0  0  0  0  0  0  0  0  0  0
  150.1158  142.0309  158.8942 H   0  0  0  0  0  0  0  0  0  0  0  0
  151.4371  140.8713  159.1066 H   0  0  0  0  0  0  0  0  0  0  0  0
  151.7522  143.4009  160.0430 H   0  0  0  0  0  0  0  0  0  0  0  0
  153.0859  142.5970  159.2105 H   0  0  0  0  0  0  0  0  0  0  0  0
  151.1127  144.5762  158.0384 H   0  0  0  0  0  0  0  0  0  0  0  0
  152.8668  144.5894  157.8594 H   0  0  0  0  0  0  0  0  0  0  0  0
  152.7831  142.8662  156.2098 H   0  0  0  0  0  0  0  0  0  0  0  0
  151.1513  143.5045  155.9687 H   0  0  0  0  0  0  0  0  0  0  0  0
  150.8039  139.3772  153.5146 H   0  0  0  0  0  0  0  0  0  0  0  0
  144.9618  137.8608  150.9407 H   0  0  0  0  0  0  0  0  0  0  0  0
  145.9941  136.5753  150.3608 H   0  0  0  0  0  0  0  0  0  0  0  0
  143.6453  136.2302  149.6201 H   0  0  0  0  0  0  0  0  0  0  0  0
  143.0881  136.2475  151.2620 H   0  0  0  0  0  0  0  0  0  0  0  0
  1  2  1  0  0  0  0
  1 25  1  0  0  0  0
  1 26  1  0  0  0  0
  1 27  1  0  0  0  0
  2  3  2  0  0  0  0
  2  4  1  0  0  0  0
  4 24  1  0  0  0  0
  4  5  1  0  0  0  0
  5  6  1  0  0  0  0
  5 28  1  0  0  0  0
  5 29  1  0  0  0  0
  6  7  1  0  0  0  0
  6 30  1  0  0  0  0
  6 31  1  0  0  0  0
  7  8  1  0  0  0  0
  7 23  1  0  0  0  0
  7 32  1  0  0  0  0
  8  9  1  0  0  0  0
  8 33  1  0  0  0  0
  9 10  2  0  0  0  0
  9 11  1  0  0  0  0
 11 12  1  0  0  0  0
 11 34  1  0  0  0  0
 12 22  1  0  0  0  0
 12 13  2  0  0  0  0
 13 14  1  0  0  0  0
 13 35  1  0  0  0  0
 14 15  2  0  0  0  0
 14 36  1  0  0  0  0
 15 16  1  0  0  0  0
 15 21  1  0  0  0  0
 16 20  1  0  0  0  0
 16 17  1  0  0  0  0
 17 18  1  0  0  0  0
 17 37  1  0  0  0  0
 17 38  1  0  0  0  0
 18 19  1  0  0  0  0
 18 39  1  0  0  0  0
 18 40  1  0  0  0  0
 19 20  1  0  0  0  0
 19 41  1  0  0  0  0
 19 42  1  0  0  0  0
 20 43  1  0  0  0  0
 20 44  1  0  0  0  0
 21 22  2  0  0  0  0
 22 45  1  0  0  0  0
 23 24  1  0  0  0  0
 23 46  1  0  0  0  0
 23 47  1  0  0  0  0
 24 48  1  0  0  0  0
 24 49  1  0  0  0  0
M  END
> <s_m_source_file>
AV-unprocessed.smi

> <i_m_source_file_index>
853

> <i_lp_mmshare_version>
43012

> <i_f3d_flags>
0

> <s_epik_input>
W0NIM11DKD1PKU4xW0NIMl1bQ0gyXVtDSF0oW0NIMl1bQ0gyXTEpW05IXUMoPU8pW05IXWMyW2NIXVtjSF1jKG5bY0hdMilOM1tDSDJdW0NIMl1bQ0gyXVtDSDJdMw==

> <s_epik_cmdline>
J2VwaWtfcHl0aG9uJywgJy1waCcsICc3LjAnLCAnLXRuJywgJzgnLCAnLW1hJywgJzIwMCcsICctbWV0YWxfYmluZGluZycsICctaW1hZScsICc8aW5maWxlLm1hZT4nLCAnLW9tYWUnLCAnPG91dGZpbGUubWFlPic=

> <r_lp_tautomer_probability>
1

> <r_epik_Ionization_Penalty>
0.102256

> <r_epik_Ionization_Penalty_Charging>
0

> <r_epik_Ionization_Penalty_Neutral>
0.102256

> <r_epik_State_Penalty>
0.0916633

> <r_epik_Charging_Adjusted_Penalty>
0.0916633

> <i_epik_Tot_Q>
0

> <i_epik_Tot_abs_Q>
0

> <r_epik_Metal_State_Penalty>
0.078099

> <b_epik_Metal_Only>
0

> <s_lp_Force_Field>
OPLS_2005

> <r_lp_Energy>
47.0227

> <b_lp_Chiralities_Consistent>
1

> <s_lp_Variant>
AV-unprocessed.smi:853-1

> <Gold.Version>
5.8.1

> <Gold.Id.Protein>
6NUR|6NUR_protein|mol2

> <Gold.PLP.Fitness>
43.4608

> <Gold.PLP.PLP>
-35.7648

> <Gold.PLP.part.hbond>
-2.7541

> <Gold.PLP.part.metal>
0.0000

> <Gold.PLP.part.buried>
-5.3183

> <Gold.PLP.part.nonpolar>
-28.8412

> <Gold.PLP.part.repulsive>
1.1890

> <Gold.PLP.ligand.clash>
0.0000

> <Gold.PLP.ligand.torsion>
0.7514

> <Gold.PLP.Chemscore.Hbond>
1.9953

> <Gold.PLP.Chemscore.CHOScore>
1.0000

> <Gold.PLP.Chemscore.Metal>
0.0000

> <Gold.Chemscore.Hbonds>
donor molecule, donor type, donor heavy atom, donor atom, acceptor molecule, acceptor atom, score
      L1  H     8    33       P1  7948  0.84
      L1  H    11    34       P1  7948  0.48
      L1  C    22    45       P1  7957  0.44

> <Gold.PLP.Chemscore.Internal.Correction>
0.2131

> <Gold.Rescore>
     Score         DG    S(hbond)    S(metal)    S(lipo)     H(rot)  DE(clash)    DE(int)     intcor
     16.58     -18.90       1.87        0.00      83.25       1.00       0.50       1.82       ----

> <Gold.Chemscore.Fitness>
16.5818

> <Gold.Chemscore.DG>
-18.9006

> <Gold.Chemscore.ZeroCoef>
-5.4800

> <Gold.Chemscore.Hbond>
1.8684

> <Gold.Chemscore.Metal>
0.0000

> <Gold.Chemscore.Lipo>
83.2490

> <Gold.Chemscore.Internal_Hbond>
0.0000

> <Gold.Chemscore.DEClash>
0.5037

> <Gold.Chemscore.DEInternal>
1.8150

> <Gold.Chemscore.Rot>
1.0000

> <Gold.Chemscore.Internal.Correction>
   9.000000E+99

> <Gold.Chemscore.Hbonds>
donor molecule, donor type, donor heavy atom, donor atom, acceptor molecule, acceptor atom, score
      L1  H     8    33       P1  7948  0.83
      L1  H    11    34       P1  7948  0.48

> <Gold.Chemscore.Hbond.Weighted>
-6.2404

> <Gold.Chemscore.Metal.Weighted>
-0.0000

> <Gold.Chemscore.Lipo.Weighted>
-9.7401

> <Gold.Chemscore.Internal_Hbond.Weighted>
0.0000

> <Gold.Chemscore.DEClash.Weighted>
0.5037

> <Gold.Chemscore.DEInternal.Weighted>
1.8150

> <Gold.Chemscore.Rot.Weighted>
2.5600

> <Gold.Chemscore.Internal.Correction.Weighted>
   9.000000E+99

> <Gold.Protein.RotatedTorsions>
[ 6907 6896 6895 6894 ] final  -97.57 input  -60.11 | X-H torsion
[ 7974 7965 7964 7962 ] final  115.41 input  175.53 | X-H torsion
[ 8008 7997 7996 7995 ] final  -11.11 input   59.86 | X-H torsion
[ 10167 10162 10161 10158 ] final -161.52 input  -65.29 | X-H torsion
[ 10718 10713 10712 10709 ] final   90.25 input   66.30 | X-H torsion
[ 10763 10752 10751 10750 ] final  149.10 input  -60.55 | X-H torsion
[ 11005 11000 10999 10996 ] final    3.74 input  -57.11 | X-H torsion

> <Gold.Protein.ActiveResidues>
 VAL166  LYS551  ARG553  GLY616  TRP617  ASP618  TYR619  PRO620  LYS621  CYS622 
 ASP623  PHE694  ASN695  SER759  ASP760  ASP761  ALA762  ILE779  LEU786  VAL792 
 PHE793  MET794  SER795  GLU796  ALA797  LYS798  CYS799  TRP800  GLU811  SER814 

> <Gold.Protein.RotatedAtoms>
  150.7020  134.1328  159.4075 H   0  0  0  0  0  0  0  0  0  0  0  0  # atno 6907 bound_to 6896
  151.9314  135.0252  160.0538 H   0  0  0  0  0  0  0  0  0  0  0  0  # atno 6908 bound_to 6896
  152.2172  133.4921  159.5179 H   0  0  0  0  0  0  0  0  0  0  0  0  # atno 6909 bound_to 6896
  145.1923  139.2994  143.4362 H   0  0  0  0  0  0  0  0  0  0  0  0  # atno 7974 bound_to 7965
  154.5494  140.2311  155.8509 H   0  0  0  0  0  0  0  0  0  0  0  0  # atno 8008 bound_to 7997
  156.1933  140.3071  155.9337 H   0  0  0  0  0  0  0  0  0  0  0  0  # atno 8009 bound_to 7997
  155.3100  140.0435  157.3025 H   0  0  0  0  0  0  0  0  0  0  0  0  # atno 8010 bound_to 7997
  139.6459  144.0173  152.2126 H   0  0  0  0  0  0  0  0  0  0  0  0  # atno 10167 bound_to 10162
  157.6958  131.0363  150.3548 H   0  0  0  0  0  0  0  0  0  0  0  0  # atno 10718 bound_to 10713
  154.0656  135.2870  155.3317 H   0  0  0  0  0  0  0  0  0  0  0  0  # atno 10763 bound_to 10752
  154.6780  135.5274  153.8228 H   0  0  0  0  0  0  0  0  0  0  0  0  # atno 10764 bound_to 10752
  153.0505  135.6574  154.0842 H   0  0  0  0  0  0  0  0  0  0  0  0  # atno 10765 bound_to 10752
  140.5898  133.9935  155.8083 H   0  0  0  0  0  0  0  0  0  0  0  0  # atno 11005 bound_to 11000
  146.3434  140.2140  142.8590 LP  0  0  0  0  0  0  0  0  0  0  0  0  # atno 17320 bound_to 7965
  145.0029  140.8647  143.5271 LP  0  0  0  0  0  0  0  0  0  0  0  0  # atno 17321 bound_to 7965
  139.9875  144.6385  150.7845 LP  0  0  0  0  0  0  0  0  0  0  0  0  # atno 17342 bound_to 10162
  140.7514  143.2972  151.3173 LP  0  0  0  0  0  0  0  0  0  0  0  0  # atno 17343 bound_to 10162
  156.3992  130.3912  149.6972 LP  0  0  0  0  0  0  0  0  0  0  0  0  # atno 17370 bound_to 10713
  156.4295  130.7808  151.2827 LP  0  0  0  0  0  0  0  0  0  0  0  0  # atno 17371 bound_to 10713
  141.0943  133.9869  157.3187 LP  0  0  0  0  0  0  0  0  0  0  0  0  # atno 17394 bound_to 11000
  139.9279  135.0201  156.8300 LP  0  0  0  0  0  0  0  0  0  0  0  0  # atno 17395 bound_to 11000

$$$$
