AV-unprocessed.smi:72|AV-procd|sdf|701|dock9
  -GOLD-   2262017 23D 1   1.00000     0.00000
 Structure written by MMmdl.
 30 31  0  0  0  0  0  0  0  0  2 V2000
  147.5348  135.4487  159.8075 N   0  0  0  0  0  0  0  0  0  0  0  0
  148.4326  135.9412  158.8836 C   0  0  0  0  0  0  0  0  0  0  0  0
  148.4908  137.3120  158.7117 N   0  3  0  0  0  0  0  0  0  0  0  0
  149.2926  137.9480  157.8472 C   0  0  0  0  0  0  0  0  0  0  0  0
  150.0811  137.2384  157.0619 N   0  0  0  0  0  0  0  0  0  0  0  0
  151.0157  137.8893  156.0667 C   0  0  2  0  0  0  0  0  0  0  0  0
  150.7834  139.2614  156.0709 O   0  0  0  0  0  0  0  0  0  0  0  0
  149.7805  139.5639  155.1102 C   0  0  1  0  0  0  0  0  0  0  0  0
  149.8055  141.0633  154.7806 C   0  0  0  0  0  0  0  0  0  0  0  0
  149.2944  141.2738  153.4817 O   0  0  0  0  0  0  0  0  0  0  0  0
  150.1849  138.6646  153.9399 C   0  0  2  0  0  0  0  0  0  0  0  0
  149.0519  138.3479  153.1568 O   0  0  0  0  0  0  0  0  0  0  0  0
  150.7308  137.4116  154.6244 C   0  0  1  0  0  0  0  0  0  0  0  0
  151.9097  136.9723  153.9818 O   0  0  0  0  0  0  0  0  0  0  0  0
  150.1373  135.8281  157.2141 C   0  0  0  0  0  0  0  0  0  0  0  0
  150.9277  135.1619  156.5464 O   0  0  0  0  0  0  0  0  0  0  0  0
  149.2581  135.2543  158.1435 N   0  0  0  0  0  0  0  0  0  0  0  0
  152.0182  137.6663  156.4366 H   0  0  0  0  0  0  0  0  0  0  0  0
  148.7999  139.2620  155.4845 H   0  0  0  0  0  0  0  0  0  0  0  0
  150.9500  139.1513  153.3322 H   0  0  0  0  0  0  0  0  0  0  0  0
  149.9955  136.6055  154.6257 H   0  0  0  0  0  0  0  0  0  0  0  0
  147.4293  134.4636  160.0051 H   0  0  0  0  0  0  0  0  0  0  0  0
  146.9157  136.0270  160.3576 H   0  0  0  0  0  0  0  0  0  0  0  0
  149.2783  139.0297  157.8278 H   0  0  0  0  0  0  0  0  0  0  0  0
  149.2410  141.6423  155.5122 H   0  0  0  0  0  0  0  0  0  0  0  0
  150.8311  141.4336  154.7942 H   0  0  0  0  0  0  0  0  0  0  0  0
  149.5027  140.5194  152.9515 H   0  0  0  0  0  0  0  0  0  0  0  0
  149.0052  138.9600  152.4376 H   0  0  0  0  0  0  0  0  0  0  0  0
  151.7852  137.0357  153.0464 H   0  0  0  0  0  0  0  0  0  0  0  0
  147.8824  137.8759  159.2884 H   0  0  0  0  0  0  0  0  0  0  0  0
  1  2  1  0  0  0  0
  1 22  1  0  0  0  0
  1 23  1  0  0  0  0
  2 17  2  0  0  0  0
  2  3  1  0  0  0  0
  3  4  2  0  0  0  0
  3 30  1  0  0  0  0
  4  5  1  0  0  0  0
  4 24  1  0  0  0  0
  5  6  1  0  0  0  0
  5 15  1  0  0  0  0
  6 18  1  0  0  0  0
  6 13  1  0  0  0  0
  6  7  1  0  0  0  0
  7  8  1  0  0  0  0
  8 19  1  0  0  0  0
  8  9  1  0  0  0  0
  8 11  1  0  0  0  0
  9 10  1  0  0  0  0
  9 25  1  0  0  0  0
  9 26  1  0  0  0  0
 10 27  1  0  0  0  0
 11 20  1  0  0  0  0
 11 12  1  0  0  0  0
 11 13  1  0  0  0  0
 12 28  1  0  0  0  0
 13 21  1  0  0  0  0
 13 14  1  0  0  0  0
 14 29  1  0  0  0  0
 15 16  2  0  0  0  0
 15 17  1  0  0  0  0
M  CHG  1   3   1
M  END
> <s_m_source_file>
AV-unprocessed.smi

> <i_m_source_file_index>
72

> <i_lp_mmshare_version>
43012

> <i_f3d_flags>
0

> <s_epik_input>
W05IMl1jMW5bY0hdbihjKD1PKW4xKVtDQEBIXTJPW0NASF0oW0NIMl1bT0hdKVtDQEBIXShbT0hdKVtDQEhdMltPSF0=

> <s_epik_cmdline>
J2VwaWtfcHl0aG9uJywgJy1waCcsICc3LjAnLCAnLXRuJywgJzgnLCAnLW1hJywgJzIwMCcsICctbWV0YWxfYmluZGluZycsICctaW1hZScsICc8aW5maWxlLm1hZT4nLCAnLW9tYWUnLCAnPG91dGZpbGUubWFlPic=

> <r_lp_tautomer_probability>
4.77166e-05

> <r_epik_Ionization_Penalty>
0.104979

> <r_epik_Ionization_Penalty_Charging>
0.0999619

> <r_epik_Ionization_Penalty_Neutral>
0.00501745

> <r_epik_State_Penalty>
2.51541

> <r_epik_Charging_Adjusted_Penalty>
2.61537

> <i_epik_Tot_Q>
1

> <i_epik_Tot_abs_Q>
1

> <r_epik_Metal_State_Penalty>
3.53763

> <b_epik_Metal_Only>
0

> <s_epik_Chemistry_Notes>
This compound contains an acetal/aminal-like group ( X-CH(R)-Y where X, Y are N, S, or O) that may be acid/base labile, releasing an aldehyde.

> <s_lp_Force_Field>
OPLS_2005

> <r_lp_Energy>
25.3585

> <b_lp_Chiralities_Consistent>
1

> <s_lp_Variant>
AV-unprocessed.smi:72-39

> <Gold.Version>
5.8.1

> <Gold.Id.Protein>
6NUR|6NUR_protein|mol2

> <Gold.PLP.Fitness>
39.0799

> <Gold.PLP.PLP>
-22.6467

> <Gold.PLP.part.hbond>
-7.9978

> <Gold.PLP.part.metal>
0.0000

> <Gold.PLP.part.buried>
-3.1914

> <Gold.PLP.part.nonpolar>
-11.9062

> <Gold.PLP.part.repulsive>
0.3394

> <Gold.PLP.ligand.clash>
0.0000

> <Gold.PLP.ligand.torsion>
0.2639

> <Gold.PLP.Chemscore.Hbond>
5.6384

> <Gold.PLP.Chemscore.CHOScore>
0.0000

> <Gold.PLP.Chemscore.Metal>
0.0000

> <Gold.Chemscore.Hbonds>
donor molecule, donor type, donor heavy atom, donor atom, acceptor molecule, acceptor atom, score
      L1  H    10    27       P1  7957  0.78
      L1  H    12    28       P1  7957  1.00
      L1  H    14    29       P1  7949  0.85
      P1  H  6896  6908       L1    17  0.80
      P1  H  8011  8017       L1    10  0.73
      P1  H 10752 10763       L1    14  0.95

> <Gold.PLP.Chemscore.Internal.Correction>
0.0458

> <Gold.Rescore>
     Score         DG    S(hbond)    S(metal)    S(lipo)     H(rot)  DE(clash)    DE(int)     intcor
      8.16     -11.38       3.83        0.00      30.27       4.08       1.48       1.74       ----

> <Gold.Chemscore.Fitness>
8.1583

> <Gold.Chemscore.DG>
-11.3792

> <Gold.Chemscore.ZeroCoef>
-5.4800

> <Gold.Chemscore.Hbond>
3.8319

> <Gold.Chemscore.Metal>
0.0000

> <Gold.Chemscore.Lipo>
30.2652

> <Gold.Chemscore.Internal_Hbond>
0.0000

> <Gold.Chemscore.DEClash>
1.4826

> <Gold.Chemscore.DEInternal>
1.7383

> <Gold.Chemscore.Rot>
4.0783

> <Gold.Chemscore.Internal.Correction>
   9.000000E+99

> <Gold.Chemscore.Hbonds>
donor molecule, donor type, donor heavy atom, donor atom, acceptor molecule, acceptor atom, score
      L1  H    10    27       P1  7957  0.78
      L1  H    12    28       P1  7957  0.97
      L1  H    14    29       P1  7949  0.81
      P1  H  6896  6908       L1    17  0.09
      P1  H  8011  8017       L1    10  0.09
      P1  H 10752 10763       L1    14  0.21

> <Gold.Chemscore.Hbond.Weighted>
-12.7986

> <Gold.Chemscore.Metal.Weighted>
-0.0000

> <Gold.Chemscore.Lipo.Weighted>
-3.5410

> <Gold.Chemscore.Internal_Hbond.Weighted>
0.0000

> <Gold.Chemscore.DEClash.Weighted>
1.4826

> <Gold.Chemscore.DEInternal.Weighted>
1.7383

> <Gold.Chemscore.Rot.Weighted>
10.4404

> <Gold.Chemscore.Internal.Correction.Weighted>
   9.000000E+99

> <Gold.Protein.RotatedTorsions>
[ 6907 6896 6895 6894 ] final  162.12 input  -60.11 | X-H torsion
[ 7974 7965 7964 7962 ] final -144.04 input  175.53 | X-H torsion
[ 8008 7997 7996 7995 ] final -176.56 input   59.86 | X-H torsion
[ 10167 10162 10161 10158 ] final  -40.10 input  -65.29 | X-H torsion
[ 10718 10713 10712 10709 ] final  139.47 input   66.30 | X-H torsion
[ 10763 10752 10751 10750 ] final   23.77 input  -60.55 | X-H torsion
[ 11005 11000 10999 10996 ] final -137.00 input  -57.11 | X-H torsion

> <Gold.Protein.ActiveResidues>
 VAL166  LYS551  ARG553  GLY616  TRP617  ASP618  TYR619  PRO620  LYS621  CYS622 
 ASP623  PHE694  ASN695  SER759  ASP760  ASP761  ALA762  ILE779  LEU786  VAL792 
 PHE793  MET794  SER795  GLU796  ALA797  LYS798  CYS799  TRP800  GLU811  SER814 

> <Gold.Protein.RotatedAtoms>
  151.9453  133.3650  159.3979 H   0  0  0  0  0  0  0  0  0  0  0  0  # atno 6907 bound_to 6896
  150.6990  134.4397  159.5295 H   0  0  0  0  0  0  0  0  0  0  0  0  # atno 6908 bound_to 6896
  152.2061  134.8544  160.0553 H   0  0  0  0  0  0  0  0  0  0  0  0  # atno 6909 bound_to 6896
  144.8326  140.5760  143.5505 H   0  0  0  0  0  0  0  0  0  0  0  0  # atno 7974 bound_to 7965
  155.9963  140.1211  157.0590 H   0  0  0  0  0  0  0  0  0  0  0  0  # atno 8008 bound_to 7997
  154.4227  140.1115  156.5703 H   0  0  0  0  0  0  0  0  0  0  0  0  # atno 8009 bound_to 7997
  155.6274  140.3472  155.4674 H   0  0  0  0  0  0  0  0  0  0  0  0  # atno 8010 bound_to 7997
  140.7044  143.3173  151.2877 H   0  0  0  0  0  0  0  0  0  0  0  0  # atno 10167 bound_to 10162
  157.4140  131.1031  151.0424 H   0  0  0  0  0  0  0  0  0  0  0  0  # atno 10718 bound_to 10713
  153.0813  135.6620  154.0039 H   0  0  0  0  0  0  0  0  0  0  0  0  # atno 10763 bound_to 10752
  153.9660  135.2969  155.3432 H   0  0  0  0  0  0  0  0  0  0  0  0  # atno 10764 bound_to 10752
  154.7213  135.5163  153.8888 H   0  0  0  0  0  0  0  0  0  0  0  0  # atno 10765 bound_to 10752
  140.8752  134.2000  157.4626 H   0  0  0  0  0  0  0  0  0  0  0  0  # atno 11005 bound_to 11000
  145.4863  139.1492  143.3734 LP  0  0  0  0  0  0  0  0  0  0  0  0  # atno 17320 bound_to 7965
  146.2628  140.5000  142.8846 LP  0  0  0  0  0  0  0  0  0  0  0  0  # atno 17321 bound_to 7965
  139.6616  144.0179  152.2696 LP  0  0  0  0  0  0  0  0  0  0  0  0  # atno 17342 bound_to 10162
  139.9748  144.6469  150.7955 LP  0  0  0  0  0  0  0  0  0  0  0  0  # atno 17343 bound_to 10162
  157.1378  130.6130  149.5547 LP  0  0  0  0  0  0  0  0  0  0  0  0  # atno 17370 bound_to 10713
  155.9859  130.4892  150.7056 LP  0  0  0  0  0  0  0  0  0  0  0  0  # atno 17371 bound_to 10713
  139.8715  134.9792  156.5029 LP  0  0  0  0  0  0  0  0  0  0  0  0  # atno 17394 bound_to 11000
  140.8526  133.8120  155.9184 LP  0  0  0  0  0  0  0  0  0  0  0  0  # atno 17395 bound_to 11000

$$$$
