AV-unprocessed.smi:2433|AV-procd|sdf|9589|dock1
  -GOLD-   2272013223D 1   1.00000     0.00000
 Structure written by MMmdl.
 38 40  0  0  0  0  0  0  0  0  1 V2000
  156.5000  139.2925  163.4868 O   0  0  0  0  0  0  0  0  0  0  0  0
  155.7954  138.4568  162.9197 C   0  0  0  0  0  0  0  0  0  0  0  0
  155.9677  137.0174  163.1146 C   0  0  0  0  0  0  0  0  0  0  0  0
  155.1648  136.1276  162.4847 C   0  0  0  0  0  0  0  0  0  0  0  0
  155.3615  134.6266  162.6918 C   0  0  0  0  0  0  0  0  0  0  0  0
  154.4597  133.9234  163.7268 C   0  0  0  0  0  0  0  0  0  0  0  0
  155.5719  134.1127  164.7634 C   0  0  0  0  0  0  0  0  0  0  0  0
  156.5546  134.2849  163.5998 C   0  0  0  0  0  0  0  0  0  0  0  0
  154.1561  136.5731  161.6207 N   0  0  0  0  0  0  0  0  0  0  0  0
  153.9824  137.8419  161.4292 C   0  0  0  0  0  0  0  0  0  0  0  0
  154.7914  138.8037  162.0630 N   0  0  0  0  0  0  0  0  0  0  0  0
  154.4951  140.2128  161.7570 C   0  0  0  0  0  0  0  0  0  0  0  0
  153.8490  140.3894  160.3652 C   0  0  2  0  0  0  0  0  0  0  0  0
  154.8348  140.1692  159.3755 O   0  0  0  0  0  0  0  0  0  0  0  0
  153.2251  141.7702  160.2295 C   0  0  0  0  0  0  0  0  0  0  0  0
  152.7409  142.2019  158.9760 C   0  0  0  0  0  0  0  0  0  0  0  0
  152.1486  143.4728  158.8429 C   0  0  0  0  0  0  0  0  0  0  0  0
  152.0335  144.3180  159.9631 C   0  0  0  0  0  0  0  0  0  0  0  0
  151.4617  145.5387  159.8351 F   0  0  0  0  0  0  0  0  0  0  0  0
  152.5117  143.8918  161.2170 C   0  0  0  0  0  0  0  0  0  0  0  0
  153.1048  142.6213  161.3508 C   0  0  0  0  0  0  0  0  0  0  0  0
  156.7468  136.6641  163.7746 H   0  0  0  0  0  0  0  0  0  0  0  0
  155.3921  134.1005  161.7369 H   0  0  0  0  0  0  0  0  0  0  0  0
  153.5152  134.4083  163.9724 H   0  0  0  0  0  0  0  0  0  0  0  0
  154.3005  132.8714  163.4852 H   0  0  0  0  0  0  0  0  0  0  0  0
  155.4505  135.0243  165.3506 H   0  0  0  0  0  0  0  0  0  0  0  0
  155.7595  133.2449  165.3962 H   0  0  0  0  0  0  0  0  0  0  0  0
  157.0392  133.3483  163.3197 H   0  0  0  0  0  0  0  0  0  0  0  0
  157.2832  135.0849  163.7383 H   0  0  0  0  0  0  0  0  0  0  0  0
  153.2054  138.2396  160.7741 H   0  0  0  0  0  0  0  0  0  0  0  0
  153.8057  140.5807  162.5200 H   0  0  0  0  0  0  0  0  0  0  0  0
  155.3735  140.8543  161.8562 H   0  0  0  0  0  0  0  0  0  0  0  0
  153.0640  139.6468  160.2156 H   0  0  0  0  0  0  0  0  0  0  0  0
  155.4832  139.5777  159.7264 H   0  0  0  0  0  0  0  0  0  0  0  0
  152.8192  141.5584  158.1116 H   0  0  0  0  0  0  0  0  0  0  0  0
  151.7800  143.7980  157.8811 H   0  0  0  0  0  0  0  0  0  0  0  0
  152.4210  144.5382  162.0776 H   0  0  0  0  0  0  0  0  0  0  0  0
  153.4633  142.3010  162.3180 H   0  0  0  0  0  0  0  0  0  0  0  0
  1  2  2  0  0  0  0
  2 11  1  0  0  0  0
  2  3  1  0  0  0  0
  3  4  2  0  0  0  0
  3 22  1  0  0  0  0
  4  5  1  0  0  0  0
  4  9  1  0  0  0  0
  5  8  1  0  0  0  0
  5  6  1  0  0  0  0
  5 23  1  0  0  0  0
  6  7  1  0  0  0  0
  6 24  1  0  0  0  0
  6 25  1  0  0  0  0
  7  8  1  0  0  0  0
  7 26  1  0  0  0  0
  7 27  1  0  0  0  0
  8 28  1  0  0  0  0
  8 29  1  0  0  0  0
  9 10  2  0  0  0  0
 10 11  1  0  0  0  0
 10 30  1  0  0  0  0
 11 12  1  0  0  0  0
 12 13  1  0  0  0  0
 12 31  1  0  0  0  0
 12 32  1  0  0  0  0
 13 14  1  0  0  0  0
 13 15  1  0  0  0  0
 13 33  1  0  0  0  0
 14 34  1  0  0  0  0
 15 21  1  0  0  0  0
 15 16  2  0  0  0  0
 16 17  1  0  0  0  0
 16 35  1  0  0  0  0
 17 18  2  0  0  0  0
 17 36  1  0  0  0  0
 18 19  1  0  0  0  0
 18 20  1  0  0  0  0
 20 21  2  0  0  0  0
 20 37  1  0  0  0  0
 21 38  1  0  0  0  0
M  END
> <s_m_source_file>
AV-unprocessed.smi

> <i_m_source_file_index>
2433

> <i_lp_mmshare_version>
43012

> <i_f3d_flags>
0

> <s_epik_input>
W0NIMl0xW0NIMl1bQ0gyXVtDSF0xYyhbY0hdYzI9TyluW2NIXW4yW0NIMl1bQ0BIXShbT0hdKWMzW2NIXVtjSF1jKEYpW2NIXVtjSF0z

> <s_epik_cmdline>
J2VwaWtfcHl0aG9uJywgJy1waCcsICc3LjAnLCAnLXRuJywgJzgnLCAnLW1hJywgJzIwMCcsICctbWV0YWxfYmluZGluZycsICctaW1hZScsICc8aW5maWxlLm1hZT4nLCAnLW9tYWUnLCAnPG91dGZpbGUubWFlPic=

> <r_lp_tautomer_probability>
1

> <r_epik_Ionization_Penalty>
2.57762e-05

> <r_epik_Ionization_Penalty_Charging>
5.39435e-08

> <r_epik_Ionization_Penalty_Neutral>
2.57223e-05

> <r_epik_State_Penalty>
-0

> <r_epik_Charging_Adjusted_Penalty>
5.39435e-08

> <i_epik_Tot_Q>
0

> <i_epik_Tot_abs_Q>
0

> <r_epik_Metal_State_Penalty>
-0

> <b_epik_Metal_Only>
0

> <s_lp_Force_Field>
OPLS_2005

> <r_lp_Energy>
28.7145

> <b_lp_Chiralities_Consistent>
1

> <s_lp_Variant>
AV-unprocessed.smi:2433-1

> <Gold.Version>
5.8.1

> <Gold.Id.Protein>
6NUR|6NUR_protein|mol2

> <Gold.PLP.Fitness>
45.5048

> <Gold.PLP.PLP>
-44.5138

> <Gold.PLP.part.hbond>
-1.0000

> <Gold.PLP.part.metal>
0.0000

> <Gold.PLP.part.buried>
-4.5454

> <Gold.PLP.part.nonpolar>
-37.5950

> <Gold.PLP.part.repulsive>
0.0000

> <Gold.PLP.ligand.clash>
0.0000

> <Gold.PLP.ligand.torsion>
0.9722

> <Gold.PLP.Chemscore.Hbond>
0.8424

> <Gold.PLP.Chemscore.CHOScore>
0.0000

> <Gold.PLP.Chemscore.Metal>
0.0000

> <Gold.Chemscore.Hbonds>
donor molecule, donor type, donor heavy atom, donor atom, acceptor molecule, acceptor atom, score
      P1  H  7997  8008       L1    14  0.90

> <Gold.PLP.Chemscore.Internal.Correction>
0.4082

> <Gold.Rescore>
     Score         DG    S(hbond)    S(metal)    S(lipo)     H(rot)  DE(clash)    DE(int)     intcor
     15.80     -16.54       0.81        0.00     118.22       2.14       0.01       0.74       ----

> <Gold.Chemscore.Fitness>
15.7958

> <Gold.Chemscore.DG>
-16.5368

> <Gold.Chemscore.ZeroCoef>
-5.4800

> <Gold.Chemscore.Hbond>
0.8073

> <Gold.Chemscore.Metal>
0.0000

> <Gold.Chemscore.Lipo>
118.2153

> <Gold.Chemscore.Internal_Hbond>
0.0000

> <Gold.Chemscore.DEClash>
0.0060

> <Gold.Chemscore.DEInternal>
0.7351

> <Gold.Chemscore.Rot>
2.1370

> <Gold.Chemscore.Internal.Correction>
   9.000000E+99

> <Gold.Chemscore.Hbonds>
donor molecule, donor type, donor heavy atom, donor atom, acceptor molecule, acceptor atom, score
      P1  H  7997  8008       L1    14  0.25

> <Gold.Chemscore.Hbond.Weighted>
-2.6964

> <Gold.Chemscore.Metal.Weighted>
-0.0000

> <Gold.Chemscore.Lipo.Weighted>
-13.8312

> <Gold.Chemscore.Internal_Hbond.Weighted>
0.0000

> <Gold.Chemscore.DEClash.Weighted>
0.0060

> <Gold.Chemscore.DEInternal.Weighted>
0.7351

> <Gold.Chemscore.Rot.Weighted>
5.4707

> <Gold.Chemscore.Internal.Correction.Weighted>
   9.000000E+99

> <Gold.Protein.RotatedTorsions>
[ 6907 6896 6895 6894 ] final -142.57 input  -60.11 | X-H torsion
[ 7974 7965 7964 7962 ] final -144.93 input  175.53 | X-H torsion
[ 8008 7997 7996 7995 ] final -126.69 input   59.86 | X-H torsion
[ 10167 10162 10161 10158 ] final    0.41 input  -65.29 | X-H torsion
[ 10718 10713 10712 10709 ] final  -32.31 input   66.30 | X-H torsion
[ 10763 10752 10751 10750 ] final -138.55 input  -60.55 | X-H torsion
[ 11005 11000 10999 10996 ] final  167.66 input  -57.11 | X-H torsion

> <Gold.Protein.ActiveResidues>
 VAL166  LYS551  ARG553  GLY616  TRP617  ASP618  TYR619  PRO620  LYS621  CYS622 
 ASP623  PHE694  ASN695  SER759  ASP760  ASP761  ALA762  ILE779  LEU786  VAL792 
 PHE793  MET794  SER795  GLU796  ALA797  LYS798  CYS799  TRP800  GLU811  SER814 

> <Gold.Protein.RotatedAtoms>
  151.0888  133.5332  159.2615 H   0  0  0  0  0  0  0  0  0  0  0  0  # atno 6907 bound_to 6896
  151.2207  135.0517  159.8958 H   0  0  0  0  0  0  0  0  0  0  0  0  # atno 6908 bound_to 6896
  152.5432  134.0690  159.8239 H   0  0  0  0  0  0  0  0  0  0  0  0  # atno 6909 bound_to 6896
  144.8263  140.5648  143.5545 H   0  0  0  0  0  0  0  0  0  0  0  0  # atno 7974 bound_to 7965
  155.2339  140.0426  157.2966 H   0  0  0  0  0  0  0  0  0  0  0  0  # atno 8008 bound_to 7997
  154.5871  140.2416  155.7942 H   0  0  0  0  0  0  0  0  0  0  0  0  # atno 8009 bound_to 7997
  156.2234  140.2962  156.0015 H   0  0  0  0  0  0  0  0  0  0  0  0  # atno 8010 bound_to 7997
  140.6730  143.6996  150.7962 H   0  0  0  0  0  0  0  0  0  0  0  0  # atno 10167 bound_to 10162
  156.3765  130.4348  149.7503 H   0  0  0  0  0  0  0  0  0  0  0  0  # atno 10718 bound_to 10713
  154.8634  135.3609  154.5402 H   0  0  0  0  0  0  0  0  0  0  0  0  # atno 10763 bound_to 10752
  153.6024  135.7012  153.5384 H   0  0  0  0  0  0  0  0  0  0  0  0  # atno 10764 bound_to 10752
  153.3279  135.4132  155.1432 H   0  0  0  0  0  0  0  0  0  0  0  0  # atno 10765 bound_to 10752
  140.2792  134.7764  157.3743 H   0  0  0  0  0  0  0  0  0  0  0  0  # atno 11005 bound_to 11000
  145.4994  139.1484  143.3666 LP  0  0  0  0  0  0  0  0  0  0  0  0  # atno 17320 bound_to 7965
  146.2568  140.5133  142.8870 LP  0  0  0  0  0  0  0  0  0  0  0  0  # atno 17321 bound_to 7965
  140.0685  143.5085  152.2592 LP  0  0  0  0  0  0  0  0  0  0  0  0  # atno 17342 bound_to 10162
  139.6007  144.7581  151.3179 LP  0  0  0  0  0  0  0  0  0  0  0  0  # atno 17343 bound_to 10162
  156.4610  130.7952  151.2972 LP  0  0  0  0  0  0  0  0  0  0  0  0  # atno 17370 bound_to 10713
  157.7488  131.0065  150.3156 LP  0  0  0  0  0  0  0  0  0  0  0  0  # atno 17371 bound_to 10713
  140.1300  134.5108  155.8113 LP  0  0  0  0  0  0  0  0  0  0  0  0  # atno 17394 bound_to 11000
  141.2165  133.6786  156.7021 LP  0  0  0  0  0  0  0  0  0  0  0  0  # atno 17395 bound_to 11000

$$$$
