AV-unprocessed.smi:1278|AV-procd|sdf|5349|dock5
  -GOLD-   22720 4483D 1   1.00000     0.00000
 Structure written by MMmdl.
 39 40  0  0  0  0  0  0  0  0  2 V2000
  148.2824  133.3762  153.2311 C   0  0  0  0  0  0  0  0  0  0  0  0
  146.7523  133.2313  153.1528 C   0  0  2  0  0  0  0  0  0  0  0  0
  146.2722  132.6855  151.7952 C   0  0  0  0  0  0  0  0  0  0  0  0
  146.3726  133.7547  150.6984 C   0  0  0  0  0  0  0  0  0  0  0  0
  145.6477  135.0440  151.1163 C   0  0  0  0  0  0  0  0  0  0  0  0
  146.1679  135.5571  152.4101 N   0  3  1  0  0  0  0  0  0  0  0  0
  145.5948  136.8810  152.7606 C   0  0  0  0  0  0  0  0  0  0  0  0
  146.2561  138.0325  151.9787 C   0  0  0  0  0  0  0  0  0  0  0  0
  147.5978  138.3162  152.4753 N   0  0  0  0  0  0  0  0  0  0  0  0
  147.8767  139.1173  153.5140 C   0  0  0  0  0  0  0  0  0  0  0  0
  147.0112  139.6962  154.1714 O   0  0  0  0  0  0  0  0  0  0  0  0
  149.2014  139.1923  153.7319 N   0  0  0  0  0  0  0  0  0  0  0  0
  149.8858  139.9332  154.7311 C   0  0  0  0  0  0  0  0  0  0  0  0
  151.2042  139.8658  154.9505 N   0  0  0  0  0  0  0  0  0  0  0  0
  151.6048  140.7011  155.9967 C   0  0  0  0  0  0  0  0  0  0  0  0
  150.5715  141.4036  156.5648 C   0  0  0  0  0  0  0  0  0  0  0  0
  149.0445  141.0412  155.8053 S   0  0  0  0  0  0  0  0  0  0  0  0
  146.0247  134.5483  153.4950 C   0  0  0  0  0  0  0  0  0  0  0  0
  148.6601  134.1108  152.5198 H   0  0  0  0  0  0  0  0  0  0  0  0
  148.7770  132.4275  153.0215 H   0  0  0  0  0  0  0  0  0  0  0  0
  148.5934  133.6931  154.2268 H   0  0  0  0  0  0  0  0  0  0  0  0
  146.4753  132.4985  153.9120 H   0  0  0  0  0  0  0  0  0  0  0  0
  146.8414  131.7986  151.5140 H   0  0  0  0  0  0  0  0  0  0  0  0
  145.2331  132.3650  151.8847 H   0  0  0  0  0  0  0  0  0  0  0  0
  147.4193  133.9733  150.4841 H   0  0  0  0  0  0  0  0  0  0  0  0
  145.9455  133.3737  149.7704 H   0  0  0  0  0  0  0  0  0  0  0  0
  145.7842  135.7950  150.3373 H   0  0  0  0  0  0  0  0  0  0  0  0
  144.5747  134.8643  151.2000 H   0  0  0  0  0  0  0  0  0  0  0  0
  144.5291  136.8773  152.5273 H   0  0  0  0  0  0  0  0  0  0  0  0
  145.6725  137.0461  153.8363 H   0  0  0  0  0  0  0  0  0  0  0  0
  146.3502  137.7830  150.9225 H   0  0  0  0  0  0  0  0  0  0  0  0
  145.6416  138.9332  152.0314 H   0  0  0  0  0  0  0  0  0  0  0  0
  148.3677  137.8804  151.9889 H   0  0  0  0  0  0  0  0  0  0  0  0
  149.7913  138.6592  153.1101 H   0  0  0  0  0  0  0  0  0  0  0  0
  152.6487  140.7340  156.2721 H   0  0  0  0  0  0  0  0  0  0  0  0
  150.6159  142.1092  157.3810 H   0  0  0  0  0  0  0  0  0  0  0  0
  144.9638  134.3507  153.6578 H   0  0  0  0  0  0  0  0  0  0  0  0
  146.4128  134.9366  154.4359 H   0  0  0  0  0  0  0  0  0  0  0  0
  147.1579  135.7045  152.2732 H   0  0  0  0  0  0  0  0  0  0  0  0
  1  2  1  0  0  0  0
  1 19  1  0  0  0  0
  1 20  1  0  0  0  0
  1 21  1  0  0  0  0
  2 18  1  0  0  0  0
  2  3  1  0  0  0  0
  2 22  1  0  0  0  0
  3  4  1  0  0  0  0
  3 23  1  0  0  0  0
  3 24  1  0  0  0  0
  4  5  1  0  0  0  0
  4 25  1  0  0  0  0
  4 26  1  0  0  0  0
  5  6  1  0  0  0  0
  5 27  1  0  0  0  0
  5 28  1  0  0  0  0
  6  7  1  0  0  0  0
  6 18  1  0  0  0  0
  6 39  1  0  0  0  0
  7  8  1  0  0  0  0
  7 29  1  0  0  0  0
  7 30  1  0  0  0  0
  8  9  1  0  0  0  0
  8 31  1  0  0  0  0
  8 32  1  0  0  0  0
  9 10  1  0  0  0  0
  9 33  1  0  0  0  0
 10 11  2  0  0  0  0
 10 12  1  0  0  0  0
 12 13  1  0  0  0  0
 12 34  1  0  0  0  0
 13 17  1  0  0  0  0
 13 14  2  0  0  0  0
 14 15  1  0  0  0  0
 15 16  2  0  0  0  0
 15 35  1  0  0  0  0
 16 17  1  0  0  0  0
 16 36  1  0  0  0  0
 18 37  1  0  0  0  0
 18 38  1  0  0  0  0
M  CHG  1   6   1
M  END
> <s_m_source_file>
AV-unprocessed.smi

> <i_m_source_file_index>
1278

> <i_lp_mmshare_version>
43012

> <i_f3d_flags>
0

> <s_epik_input>
W0NIM11bQ0BASF0xW0NIMl1bQ0gyXVtDSDJdTihbQ0gyXTEpW0NIMl1bQ0gyXVtOSF1DKD1PKVtOSF1jMm5bY0hdW2NIXXMy

> <s_epik_cmdline>
J2VwaWtfcHl0aG9uJywgJy1waCcsICc3LjAnLCAnLXRuJywgJzgnLCAnLW1hJywgJzIwMCcsICctbWV0YWxfYmluZGluZycsICctaW1hZScsICc8aW5maWxlLm1hZT4nLCAnLW9tYWUnLCAnPG91dGZpbGUubWFlPic=

> <r_lp_tautomer_probability>
0.999

> <r_epik_Ionization_Penalty>
0.00222194

> <r_epik_Ionization_Penalty_Charging>
0.00208169

> <r_epik_Ionization_Penalty_Neutral>
0.000140251

> <r_epik_State_Penalty>
0.00142585

> <r_epik_Charging_Adjusted_Penalty>
0.00350754

> <i_epik_Tot_Q>
1

> <i_epik_Tot_abs_Q>
1

> <r_epik_Metal_State_Penalty>
0.0570424

> <b_epik_Metal_Only>
0

> <s_lp_Force_Field>
OPLS_2005

> <r_lp_Energy>
16.5942

> <b_lp_Chiralities_Consistent>
1

> <s_lp_Variant>
AV-unprocessed.smi:1278-3

> <Gold.Version>
5.8.1

> <Gold.Id.Protein>
6NUR|6NUR_protein|mol2

> <Gold.PLP.Fitness>
42.4425

> <Gold.PLP.PLP>
-32.0832

> <Gold.PLP.part.hbond>
-5.0000

> <Gold.PLP.part.metal>
0.0000

> <Gold.PLP.part.buried>
-2.9804

> <Gold.PLP.part.nonpolar>
-23.8962

> <Gold.PLP.part.repulsive>
0.3688

> <Gold.PLP.ligand.clash>
0.0000

> <Gold.PLP.ligand.torsion>
0.4487

> <Gold.PLP.Chemscore.Hbond>
3.7454

> <Gold.PLP.Chemscore.CHOScore>
0.0000

> <Gold.PLP.Chemscore.Metal>
0.0000

> <Gold.Chemscore.Hbonds>
donor molecule, donor type, donor heavy atom, donor atom, acceptor molecule, acceptor atom, score
      L1  H     6    39       P1  7948  2.00
      L1  H     9    33       P1  7948  0.72
      P1  H  7989  7998       L1    14  0.75

> <Gold.PLP.Chemscore.Internal.Correction>
0.0207

> <Gold.Rescore>
     Score         DG    S(hbond)    S(metal)    S(lipo)     H(rot)  DE(clash)    DE(int)     intcor
     15.11     -17.12       2.53        0.00      62.18       1.60       0.40       1.60       ----

> <Gold.Chemscore.Fitness>
15.1126

> <Gold.Chemscore.DG>
-17.1164

> <Gold.Chemscore.ZeroCoef>
-5.4800

> <Gold.Chemscore.Hbond>
2.5321

> <Gold.Chemscore.Metal>
0.0000

> <Gold.Chemscore.Lipo>
62.1832

> <Gold.Chemscore.Internal_Hbond>
0.0000

> <Gold.Chemscore.DEClash>
0.4000

> <Gold.Chemscore.DEInternal>
1.6038

> <Gold.Chemscore.Rot>
1.6001

> <Gold.Chemscore.Internal.Correction>
   9.000000E+99

> <Gold.Chemscore.Hbonds>
donor molecule, donor type, donor heavy atom, donor atom, acceptor molecule, acceptor atom, score
      L1  H     6    39       P1  7948  1.00
      L1  H     9    33       P1  7948  0.72
      L1  H    12    34       P1  7957  0.01
      P1  H  7989  7998       L1    14  0.03

> <Gold.Chemscore.Hbond.Weighted>
-8.4572

> <Gold.Chemscore.Metal.Weighted>
-0.0000

> <Gold.Chemscore.Lipo.Weighted>
-7.2754

> <Gold.Chemscore.Internal_Hbond.Weighted>
0.0000

> <Gold.Chemscore.DEClash.Weighted>
0.4000

> <Gold.Chemscore.DEInternal.Weighted>
1.6038

> <Gold.Chemscore.Rot.Weighted>
4.0963

> <Gold.Chemscore.Internal.Correction.Weighted>
   9.000000E+99

> <Gold.Protein.RotatedTorsions>
[ 6907 6896 6895 6894 ] final    8.68 input  -60.11 | X-H torsion
[ 7974 7965 7964 7962 ] final  -77.60 input  175.53 | X-H torsion
[ 8008 7997 7996 7995 ] final   59.46 input   59.86 | X-H torsion
[ 10167 10162 10161 10158 ] final  113.66 input  -65.29 | X-H torsion
[ 10718 10713 10712 10709 ] final   51.82 input   66.30 | X-H torsion
[ 10763 10752 10751 10750 ] final  -56.44 input  -60.55 | X-H torsion
[ 11005 11000 10999 10996 ] final -115.12 input  -57.11 | X-H torsion

> <Gold.Protein.ActiveResidues>
 VAL166  LYS551  ARG553  GLY616  TRP617  ASP618  TYR619  PRO620  LYS621  CYS622 
 ASP623  PHE694  ASN695  SER759  ASP760  ASP761  ALA762  ILE779  LEU786  VAL792 
 PHE793  MET794  SER795  GLU796  ALA797  LYS798  CYS799  TRP800  GLU811  SER814 

> <Gold.Protein.RotatedAtoms>
  151.7099  135.0914  160.0265 H   0  0  0  0  0  0  0  0  0  0  0  0  # atno 6907 bound_to 6896
  152.3668  133.6363  159.6065 H   0  0  0  0  0  0  0  0  0  0  0  0  # atno 6908 bound_to 6896
  150.7644  133.9251  159.3451 H   0  0  0  0  0  0  0  0  0  0  0  0  # atno 6909 bound_to 6896
  145.5975  140.9416  143.1259 H   0  0  0  0  0  0  0  0  0  0  0  0  # atno 7974 bound_to 7965
  155.5665  140.3489  155.4504 H   0  0  0  0  0  0  0  0  0  0  0  0  # atno 8008 bound_to 7997
  156.0476  140.1310  157.0112 H   0  0  0  0  0  0  0  0  0  0  0  0  # atno 8009 bound_to 7997
  154.4419  140.1011  156.6313 H   0  0  0  0  0  0  0  0  0  0  0  0  # atno 8010 bound_to 7997
  139.6445  144.7126  151.2171 H   0  0  0  0  0  0  0  0  0  0  0  0  # atno 10167 bound_to 10162
  157.5017  130.8442  149.8325 H   0  0  0  0  0  0  0  0  0  0  0  0  # atno 10718 bound_to 10713
  154.2066  135.6402  153.5103 H   0  0  0  0  0  0  0  0  0  0  0  0  # atno 10763 bound_to 10752
  152.9999  135.5464  154.6259 H   0  0  0  0  0  0  0  0  0  0  0  0  # atno 10764 bound_to 10752
  154.5685  135.2915  155.0823 H   0  0  0  0  0  0  0  0  0  0  0  0  # atno 10765 bound_to 10752
  141.0508  133.9690  157.2839 H   0  0  0  0  0  0  0  0  0  0  0  0  # atno 11005 bound_to 11000
  144.7324  139.7685  143.7342 LP  0  0  0  0  0  0  0  0  0  0  0  0  # atno 17320 bound_to 7965
  146.1601  139.4712  142.9994 LP  0  0  0  0  0  0  0  0  0  0  0  0  # atno 17321 bound_to 7965
  140.7507  143.6255  150.8472 LP  0  0  0  0  0  0  0  0  0  0  0  0  # atno 17342 bound_to 10162
  139.9896  143.5861  152.2915 LP  0  0  0  0  0  0  0  0  0  0  0  0  # atno 17343 bound_to 10162
  156.0233  130.3788  150.1896 LP  0  0  0  0  0  0  0  0  0  0  0  0  # atno 17370 bound_to 10713
  157.0086  130.9944  151.3372 LP  0  0  0  0  0  0  0  0  0  0  0  0  # atno 17371 bound_to 10713
  139.9349  135.0197  156.8522 LP  0  0  0  0  0  0  0  0  0  0  0  0  # atno 17394 bound_to 11000
  140.6059  134.0128  155.7556 LP  0  0  0  0  0  0  0  0  0  0  0  0  # atno 17395 bound_to 11000

$$$$
