AV-unprocessed.smi:1976|AV-procd|sdf|7983|dock8
  -GOLD-   2272010163D 1   1.00000     0.00000
 Structure written by MMmdl.
 45 47  0  0  0  0  0  0  0  0  2 V2000
  150.5168  140.2116  154.7367 O   0  0  0  0  0  0  0  0  0  0  0  0
  149.8192  141.2043  154.9494 C   0  0  0  0  0  0  0  0  0  0  0  0
  148.5956  141.5148  154.0750 C   0  0  0  0  0  0  0  0  0  0  0  0
  147.3132  141.3486  154.7795 N   0  0  0  0  0  0  0  0  0  0  0  0
  146.4998  142.4916  154.9082 C   0  0  0  0  0  0  0  0  0  0  0  0
  145.2994  142.4723  155.5186 C   0  0  0  0  0  0  0  0  0  0  0  0
  144.4724  143.7364  155.6958 C   0  0  0  0  0  0  0  0  0  0  0  0
  144.3320  144.3842  154.5389 F   0  0  0  0  0  0  0  0  0  0  0  0
  143.2575  143.4552  156.1688 F   0  0  0  0  0  0  0  0  0  0  0  0
  145.0739  144.5540  156.5589 F   0  0  0  0  0  0  0  0  0  0  0  0
  144.8816  141.2025  156.0799 C   0  0  0  0  0  0  0  0  0  0  0  0
  145.6539  140.1029  155.9780 C   0  0  0  0  0  0  0  0  0  0  0  0
  146.9493  140.1363  155.2952 C   0  0  0  0  0  0  0  0  0  0  0  0
  147.6640  139.1387  155.1940 O   0  0  0  0  0  0  0  0  0  0  0  0
  150.0584  142.0638  155.9506 N   0  0  0  0  0  0  0  0  0  0  0  0
  151.1679  141.9526  156.8911 C   0  0  2  0  0  0  0  0  0  0  0  0
  151.1734  140.6435  157.7048 C   0  0  0  0  0  0  0  0  0  0  0  0
  151.6435  141.0430  159.1176 C   0  0  0  0  0  0  0  0  0  0  0  0
  151.9719  142.4787  159.0277 N   0  3  2  0  0  0  0  0  0  0  0  0
  151.9233  143.2621  160.2815 C   0  0  0  0  0  0  0  0  0  0  0  0
  152.3678  144.7107  159.9949 C   0  0  0  0  0  0  0  0  0  0  0  0
  151.5614  145.3406  158.8402 C   0  0  0  0  0  0  0  0  0  0  0  0
  151.5763  144.4359  157.5925 C   0  0  0  0  0  0  0  0  0  0  0  0
  151.1004  143.0254  157.9769 C   0  0  1  0  0  0  0  0  0  0  0  0
  148.6954  142.5341  153.6998 H   0  0  0  0  0  0  0  0  0  0  0  0
  148.6189  140.8816  153.1859 H   0  0  0  0  0  0  0  0  0  0  0  0
  146.9206  143.3925  154.4858 H   0  0  0  0  0  0  0  0  0  0  0  0
  143.9316  141.1302  156.5883 H   0  0  0  0  0  0  0  0  0  0  0  0
  145.3102  139.1734  156.4078 H   0  0  0  0  0  0  0  0  0  0  0  0
  149.4355  142.8510  156.0619 H   0  0  0  0  0  0  0  0  0  0  0  0
  152.1152  142.0472  156.3557 H   0  0  0  0  0  0  0  0  0  0  0  0
  150.1758  140.2049  157.7592 H   0  0  0  0  0  0  0  0  0  0  0  0
  151.8326  139.9026  157.2509 H   0  0  0  0  0  0  0  0  0  0  0  0
  150.8382  140.8867  159.8373 H   0  0  0  0  0  0  0  0  0  0  0  0
  152.5088  140.4675  159.4469 H   0  0  0  0  0  0  0  0  0  0  0  0
  150.9123  143.2460  160.6914 H   0  0  0  0  0  0  0  0  0  0  0  0
  152.5804  142.8066  161.0233 H   0  0  0  0  0  0  0  0  0  0  0  0
  152.2677  145.3173  160.8956 H   0  0  0  0  0  0  0  0  0  0  0  0
  153.4277  144.7174  159.7369 H   0  0  0  0  0  0  0  0  0  0  0  0
  150.5310  145.4965  159.1620 H   0  0  0  0  0  0  0  0  0  0  0  0
  151.9609  146.3256  158.5962 H   0  0  0  0  0  0  0  0  0  0  0  0
  150.9338  144.8549  156.8173 H   0  0  0  0  0  0  0  0  0  0  0  0
  152.5842  144.3940  157.1770 H   0  0  0  0  0  0  0  0  0  0  0  0
  150.0805  143.0792  158.3656 H   0  0  0  0  0  0  0  0  0  0  0  0
  152.9160  142.5359  158.6732 H   0  0  0  0  0  0  0  0  0  0  0  0
  1  2  2  0  0  0  0
  2  3  1  0  0  0  0
  2 15  1  0  0  0  0
  3  4  1  0  0  0  0
  3 25  1  0  0  0  0
  3 26  1  0  0  0  0
  4 13  1  0  0  0  0
  4  5  1  0  0  0  0
  5  6  2  0  0  0  0
  5 27  1  0  0  0  0
  6  7  1  0  0  0  0
  6 11  1  0  0  0  0
  7  8  1  0  0  0  0
  7  9  1  0  0  0  0
  7 10  1  0  0  0  0
 11 12  2  0  0  0  0
 11 28  1  0  0  0  0
 12 13  1  0  0  0  0
 12 29  1  0  0  0  0
 13 14  2  0  0  0  0
 15 16  1  0  0  0  0
 15 30  1  0  0  0  0
 16 24  1  0  0  0  0
 16 17  1  0  0  0  0
 16 31  1  0  0  0  0
 17 18  1  0  0  0  0
 17 32  1  0  0  0  0
 17 33  1  0  0  0  0
 18 19  1  0  0  0  0
 18 34  1  0  0  0  0
 18 35  1  0  0  0  0
 19 24  1  0  0  0  0
 19 20  1  0  0  0  0
 19 45  1  0  0  0  0
 20 21  1  0  0  0  0
 20 36  1  0  0  0  0
 20 37  1  0  0  0  0
 21 22  1  0  0  0  0
 21 38  1  0  0  0  0
 21 39  1  0  0  0  0
 22 23  1  0  0  0  0
 22 40  1  0  0  0  0
 22 41  1  0  0  0  0
 23 24  1  0  0  0  0
 23 42  1  0  0  0  0
 23 43  1  0  0  0  0
 24 44  1  0  0  0  0
M  CHG  1  19   1
M  END
> <s_m_source_file>
AV-unprocessed.smi

> <i_m_source_file_index>
1976

> <i_lp_mmshare_version>
43012

> <i_f3d_flags>
0

> <s_epik_input>
W0NIMl0xW0NIMl1bQ0gyXVtDSDJdW0NASF0oTjEyKVtDQEBIXShbQ0gyXVtDSDJdMilbTkhdQyg9TylbQ0gyXW4zW2NIXWMoQyhGKShGKUYpW2NIXVtjSF1jMz1P

> <s_epik_cmdline>
J2VwaWtfcHl0aG9uJywgJy1waCcsICc3LjAnLCAnLXRuJywgJzgnLCAnLW1hJywgJzIwMCcsICctbWV0YWxfYmluZGluZycsICctaW1hZScsICc8aW5maWxlLm1hZT4nLCAnLW9tYWUnLCAnPG91dGZpbGUubWFlPic=

> <r_lp_tautomer_probability>
1

> <r_epik_Ionization_Penalty>
0.00171506

> <r_epik_Ionization_Penalty_Charging>
0.00171498

> <r_epik_Ionization_Penalty_Neutral>
7.81737e-08

> <r_epik_State_Penalty>
0.00115937

> <r_epik_Charging_Adjusted_Penalty>
0.00287436

> <i_epik_Tot_Q>
1

> <i_epik_Tot_abs_Q>
1

> <r_epik_Metal_State_Penalty>
-0

> <b_epik_Metal_Only>
0

> <s_lp_Force_Field>
OPLS_2005

> <r_lp_Energy>
45.9566

> <b_lp_Chiralities_Consistent>
1

> <s_lp_Variant>
AV-unprocessed.smi:1976-1

> <Gold.Version>
5.8.1

> <Gold.Id.Protein>
6NUR|6NUR_protein|mol2

> <Gold.PLP.Fitness>
49.9859

> <Gold.PLP.PLP>
-43.6950

> <Gold.PLP.part.hbond>
-2.0000

> <Gold.PLP.part.metal>
0.0000

> <Gold.PLP.part.buried>
-5.2340

> <Gold.PLP.part.nonpolar>
-35.2121

> <Gold.PLP.part.repulsive>
0.3041

> <Gold.PLP.ligand.clash>
0.0000

> <Gold.PLP.ligand.torsion>
0.4023

> <Gold.PLP.Chemscore.Hbond>
1.9760

> <Gold.PLP.Chemscore.CHOScore>
0.3731

> <Gold.PLP.Chemscore.Metal>
0.0000

> <Gold.Chemscore.Hbonds>
donor molecule, donor type, donor heavy atom, donor atom, acceptor molecule, acceptor atom, score
      L1  H    15    30       P1  8028  1.00
      P1  H  7989  7998       L1     1  1.00
      L1  C     5    27       P1  8028  0.44

> <Gold.PLP.Chemscore.Internal.Correction>
0.0482

> <Gold.Rescore>
     Score         DG    S(hbond)    S(metal)    S(lipo)     H(rot)  DE(clash)    DE(int)     intcor
     17.15     -17.67       1.46        0.00      97.14       1.58       0.37       0.15       ----

> <Gold.Chemscore.Fitness>
17.1518

> <Gold.Chemscore.DG>
-17.6651

> <Gold.Chemscore.ZeroCoef>
-5.4800

> <Gold.Chemscore.Hbond>
1.4586

> <Gold.Chemscore.Metal>
0.0000

> <Gold.Chemscore.Lipo>
97.1439

> <Gold.Chemscore.Internal_Hbond>
0.0000

> <Gold.Chemscore.DEClash>
0.3673

> <Gold.Chemscore.DEInternal>
0.1459

> <Gold.Chemscore.Rot>
1.5830

> <Gold.Chemscore.Internal.Correction>
   9.000000E+99

> <Gold.Chemscore.Hbonds>
donor molecule, donor type, donor heavy atom, donor atom, acceptor molecule, acceptor atom, score
      L1  H    15    30       P1  8028  0.93
      P1  H  7989  7998       L1     1  0.25

> <Gold.Chemscore.Hbond.Weighted>
-4.8716

> <Gold.Chemscore.Metal.Weighted>
-0.0000

> <Gold.Chemscore.Lipo.Weighted>
-11.3658

> <Gold.Chemscore.Internal_Hbond.Weighted>
0.0000

> <Gold.Chemscore.DEClash.Weighted>
0.3673

> <Gold.Chemscore.DEInternal.Weighted>
0.1459

> <Gold.Chemscore.Rot.Weighted>
4.0524

> <Gold.Chemscore.Internal.Correction.Weighted>
   9.000000E+99

> <Gold.Protein.RotatedTorsions>
[ 6907 6896 6895 6894 ] final -177.44 input  -60.11 | X-H torsion
[ 7974 7965 7964 7962 ] final   53.30 input  175.53 | X-H torsion
[ 8008 7997 7996 7995 ] final  -83.57 input   59.86 | X-H torsion
[ 10167 10162 10161 10158 ] final  173.95 input  -65.29 | X-H torsion
[ 10718 10713 10712 10709 ] final   84.31 input   66.30 | X-H torsion
[ 10763 10752 10751 10750 ] final  -69.68 input  -60.55 | X-H torsion
[ 11005 11000 10999 10996 ] final   18.27 input  -57.11 | X-H torsion

> <Gold.Protein.ActiveResidues>
 VAL166  LYS551  ARG553  GLY616  TRP617  ASP618  TYR619  PRO620  LYS621  CYS622 
 ASP623  PHE694  ASN695  SER759  ASP760  ASP761  ALA762  ILE779  LEU786  VAL792 
 PHE793  MET794  SER795  GLU796  ALA797  LYS798  CYS799  TRP800  GLU811  SER814 

> <Gold.Protein.RotatedAtoms>
  151.6210  133.3339  159.3087 H   0  0  0  0  0  0  0  0  0  0  0  0  # atno 6907 bound_to 6896
  150.8106  134.7262  159.6696 H   0  0  0  0  0  0  0  0  0  0  0  0  # atno 6908 bound_to 6896
  152.4202  134.5973  160.0042 H   0  0  0  0  0  0  0  0  0  0  0  0  # atno 6909 bound_to 6896
  145.9726  139.4163  143.0181 H   0  0  0  0  0  0  0  0  0  0  0  0  # atno 7974 bound_to 7965
  154.6204  140.0617  156.9608 H   0  0  0  0  0  0  0  0  0  0  0  0  # atno 8008 bound_to 7997
  155.1826  140.3300  155.4354 H   0  0  0  0  0  0  0  0  0  0  0  0  # atno 8009 bound_to 7997
  156.2428  140.1895  156.6921 H   0  0  0  0  0  0  0  0  0  0  0  0  # atno 8010 bound_to 7997
  139.5125  144.3202  152.0210 H   0  0  0  0  0  0  0  0  0  0  0  0  # atno 10167 bound_to 10162
  157.6896  131.0128  150.2654 H   0  0  0  0  0  0  0  0  0  0  0  0  # atno 10718 bound_to 10713
  154.4068  135.6018  153.5929 H   0  0  0  0  0  0  0  0  0  0  0  0  # atno 10763 bound_to 10752
  152.9789  135.5920  154.4118 H   0  0  0  0  0  0  0  0  0  0  0  0  # atno 10764 bound_to 10752
  154.3924  135.2842  155.2125 H   0  0  0  0  0  0  0  0  0  0  0  0  # atno 10765 bound_to 10752
  140.4267  134.1463  155.7677 H   0  0  0  0  0  0  0  0  0  0  0  0  # atno 11005 bound_to 11000
  145.7884  140.9825  143.1062 LP  0  0  0  0  0  0  0  0  0  0  0  0  # atno 17320 bound_to 7965
  144.6840  139.9652  143.7481 LP  0  0  0  0  0  0  0  0  0  0  0  0  # atno 17321 bound_to 7965
  140.2644  144.4032  150.6174 LP  0  0  0  0  0  0  0  0  0  0  0  0  # atno 17342 bound_to 10162
  140.6134  143.2171  151.6841 LP  0  0  0  0  0  0  0  0  0  0  0  0  # atno 17343 bound_to 10162
  156.3226  130.3788  149.7561 LP  0  0  0  0  0  0  0  0  0  0  0  0  # atno 17370 bound_to 10713
  156.5127  130.8179  151.3175 LP  0  0  0  0  0  0  0  0  0  0  0  0  # atno 17371 bound_to 10713
  141.1762  133.8508  157.1412 LP  0  0  0  0  0  0  0  0  0  0  0  0  # atno 17394 bound_to 11000
  140.0163  134.9966  157.0499 LP  0  0  0  0  0  0  0  0  0  0  0  0  # atno 17395 bound_to 11000

$$$$
