AV-unprocessed.smi:1978|AV-procd|sdf|7994|dock6
  -GOLD-   2272010173D 1   1.00000     0.00000
 Structure written by MMmdl.
 45 46  0  0  0  0  0  0  0  0  2 V2000
  152.2686  139.7584  155.5230 C   0  0  0  0  0  0  0  0  0  0  0  0
  151.8135  138.3668  155.2462 C   0  0  0  0  0  0  0  0  0  0  0  0
  150.7738  137.8552  154.5218 C   0  0  0  0  0  0  0  0  0  0  0  0
  150.9291  136.4534  154.6866 C   0  0  0  0  0  0  0  0  0  0  0  0
  150.0278  135.5447  154.0757 N   0  0  0  0  0  0  0  0  0  0  0  0
  149.8633  134.2418  154.3597 C   0  0  0  0  0  0  0  0  0  0  0  0
  150.4815  133.6188  155.2234 O   0  0  0  0  0  0  0  0  0  0  0  0
  148.9277  133.6842  153.5776 N   0  0  0  0  0  0  0  0  0  0  0  0
  148.5114  132.2874  153.6490 C   0  0  0  0  0  0  0  0  0  0  0  0
  147.0251  132.1306  154.0622 C   0  0  2  0  0  0  0  0  0  0  0  0
  146.7821  130.8809  154.9335 C   0  0  0  0  0  0  0  0  0  0  0  0
  146.0848  132.1821  152.8963 N   0  3  2  0  0  0  0  0  0  0  0  0
  146.0878  130.9440  152.0630 C   0  0  0  0  0  0  0  0  0  0  0  0
  144.9217  130.9377  151.0643 C   0  0  0  0  0  0  0  0  0  0  0  0
  144.9783  132.1726  150.1628 C   0  0  0  0  0  0  0  0  0  0  0  0
  145.0070  133.4383  151.0256 C   0  0  0  0  0  0  0  0  0  0  0  0
  146.1684  133.4150  152.0432 C   0  0  1  0  0  0  0  0  0  0  0  0
  146.1578  134.7300  152.8488 C   0  0  0  0  0  0  0  0  0  0  0  0
  151.9706  136.1372  155.4406 N   0  0  0  0  0  0  0  0  0  0  0  0
  152.5431  137.3621  155.8031 O   0  0  0  0  0  0  0  0  0  0  0  0
  151.6395  140.4835  155.0065 H   0  0  0  0  0  0  0  0  0  0  0  0
  153.2957  139.9033  155.1882 H   0  0  0  0  0  0  0  0  0  0  0  0
  152.2264  139.9736  156.5908 H   0  0  0  0  0  0  0  0  0  0  0  0
  150.0234  138.3993  153.9676 H   0  0  0  0  0  0  0  0  0  0  0  0
  149.4439  135.9300  153.3483 H   0  0  0  0  0  0  0  0  0  0  0  0
  148.4661  134.2659  152.8931 H   0  0  0  0  0  0  0  0  0  0  0  0
  148.7053  131.8148  152.6855 H   0  0  0  0  0  0  0  0  0  0  0  0
  149.1631  131.7941  154.3699 H   0  0  0  0  0  0  0  0  0  0  0  0
  146.7665  132.9561  154.7219 H   0  0  0  0  0  0  0  0  0  0  0  0
  147.2822  130.9734  155.8980 H   0  0  0  0  0  0  0  0  0  0  0  0
  147.1587  129.9703  154.4686 H   0  0  0  0  0  0  0  0  0  0  0  0
  145.7198  130.7429  155.1369 H   0  0  0  0  0  0  0  0  0  0  0  0
  147.0313  130.8623  151.5222 H   0  0  0  0  0  0  0  0  0  0  0  0
  146.0018  130.0532  152.6823 H   0  0  0  0  0  0  0  0  0  0  0  0
  144.9550  130.0324  150.4574 H   0  0  0  0  0  0  0  0  0  0  0  0
  143.9736  130.9156  151.6034 H   0  0  0  0  0  0  0  0  0  0  0  0
  145.8676  132.1323  149.5323 H   0  0  0  0  0  0  0  0  0  0  0  0
  144.1188  132.1911  149.4922 H   0  0  0  0  0  0  0  0  0  0  0  0
  145.0924  134.3114  150.3774 H   0  0  0  0  0  0  0  0  0  0  0  0
  144.0572  133.5393  151.5529 H   0  0  0  0  0  0  0  0  0  0  0  0
  147.1014  133.3786  151.4793 H   0  0  0  0  0  0  0  0  0  0  0  0
  146.0770  135.5919  152.1859 H   0  0  0  0  0  0  0  0  0  0  0  0
  147.0769  134.8713  153.4170 H   0  0  0  0  0  0  0  0  0  0  0  0
  145.3158  134.7683  153.5408 H   0  0  0  0  0  0  0  0  0  0  0  0
  145.1669  132.2211  153.3158 H   0  0  0  0  0  0  0  0  0  0  0  0
  1  2  1  0  0  0  0
  1 21  1  0  0  0  0
  1 22  1  0  0  0  0
  1 23  1  0  0  0  0
  2 20  1  0  0  0  0
  2  3  2  0  0  0  0
  3  4  1  0  0  0  0
  3 24  1  0  0  0  0
  4  5  1  0  0  0  0
  4 19  2  0  0  0  0
  5  6  1  0  0  0  0
  5 25  1  0  0  0  0
  6  7  2  0  0  0  0
  6  8  1  0  0  0  0
  8  9  1  0  0  0  0
  8 26  1  0  0  0  0
  9 10  1  0  0  0  0
  9 27  1  0  0  0  0
  9 28  1  0  0  0  0
 10 11  1  0  0  0  0
 10 12  1  0  0  0  0
 10 29  1  0  0  0  0
 11 30  1  0  0  0  0
 11 31  1  0  0  0  0
 11 32  1  0  0  0  0
 12 17  1  0  0  0  0
 12 13  1  0  0  0  0
 12 45  1  0  0  0  0
 13 14  1  0  0  0  0
 13 33  1  0  0  0  0
 13 34  1  0  0  0  0
 14 15  1  0  0  0  0
 14 35  1  0  0  0  0
 14 36  1  0  0  0  0
 15 16  1  0  0  0  0
 15 37  1  0  0  0  0
 15 38  1  0  0  0  0
 16 17  1  0  0  0  0
 16 39  1  0  0  0  0
 16 40  1  0  0  0  0
 17 18  1  0  0  0  0
 17 41  1  0  0  0  0
 18 42  1  0  0  0  0
 18 43  1  0  0  0  0
 18 44  1  0  0  0  0
 19 20  1  0  0  0  0
M  CHG  1  12   1
M  END
> <s_m_source_file>
AV-unprocessed.smi

> <i_m_source_file_index>
1978

> <i_lp_mmshare_version>
43012

> <i_f3d_flags>
0

> <s_epik_input>
W0NIM11jMVtjSF1jKG5vMSlbTkhdQyg9TylbTkhdW0NIMl1bQ0BIXShbQ0gzXSlOMltDSDJdW0NIMl1bQ0gyXVtDSDJdW0NASF0yW0NIM10=

> <s_epik_cmdline>
J2VwaWtfcHl0aG9uJywgJy1waCcsICc3LjAnLCAnLXRuJywgJzgnLCAnLW1hJywgJzIwMCcsICctbWV0YWxfYmluZGluZycsICctaW1hZScsICc8aW5maWxlLm1hZT4nLCAnLW9tYWUnLCAnPG91dGZpbGUubWFlPic=

> <r_epik_Ionization_Penalty>
0.00265971

> <r_epik_Ionization_Penalty_Charging>
0.00262393

> <r_epik_Ionization_Penalty_Neutral>
3.57846e-05

> <r_epik_State_Penalty>
0.00182566

> <r_epik_Charging_Adjusted_Penalty>
0.00444959

> <i_epik_Tot_Q>
1

> <i_epik_Tot_abs_Q>
1

> <r_epik_Metal_State_Penalty>
0.0216344

> <b_epik_Metal_Only>
0

> <s_lp_Force_Field>
OPLS_2005

> <r_lp_Energy>
19.2971

> <b_lp_Chiralities_Consistent>
1

> <s_lp_Variant>
AV-unprocessed.smi:1978-3

> <Gold.Version>
5.8.1

> <Gold.Id.Protein>
6NUR|6NUR_protein|mol2

> <Gold.PLP.Fitness>
38.9546

> <Gold.PLP.PLP>
-32.7756

> <Gold.PLP.part.hbond>
-4.6880

> <Gold.PLP.part.metal>
0.0000

> <Gold.PLP.part.buried>
-2.3285

> <Gold.PLP.part.nonpolar>
-25.7235

> <Gold.PLP.part.repulsive>
0.1795

> <Gold.PLP.ligand.clash>
0.0000

> <Gold.PLP.ligand.torsion>
0.5250

> <Gold.PLP.Chemscore.Hbond>
2.3717

> <Gold.PLP.Chemscore.CHOScore>
0.0000

> <Gold.PLP.Chemscore.Metal>
0.0000

> <Gold.Chemscore.Hbonds>
donor molecule, donor type, donor heavy atom, donor atom, acceptor molecule, acceptor atom, score
      L1  H     5    25       P1  7948  1.00
      L1  H     8    26       P1  7948  0.30
      P1  H 10752 10765       L1    19  0.59

> <Gold.PLP.Chemscore.Internal.Correction>
0.1138

> <Gold.Rescore>
     Score         DG    S(hbond)    S(metal)    S(lipo)     H(rot)  DE(clash)    DE(int)     intcor
     12.01     -13.86       1.11        0.00      73.88       1.55       0.07       1.78       ----

> <Gold.Chemscore.Fitness>
12.0070

> <Gold.Chemscore.DG>
-13.8589

> <Gold.Chemscore.ZeroCoef>
-5.4800

> <Gold.Chemscore.Hbond>
1.1067

> <Gold.Chemscore.Metal>
0.0000

> <Gold.Chemscore.Lipo>
73.8782

> <Gold.Chemscore.Internal_Hbond>
0.0000

> <Gold.Chemscore.DEClash>
0.0707

> <Gold.Chemscore.DEInternal>
1.7811

> <Gold.Chemscore.Rot>
1.5474

> <Gold.Chemscore.Internal.Correction>
   9.000000E+99

> <Gold.Chemscore.Hbonds>
donor molecule, donor type, donor heavy atom, donor atom, acceptor molecule, acceptor atom, score
      L1  H     5    25       P1  7948  0.33
      L1  H     8    26       P1  7948  0.05
      P1  H 10752 10765       L1    19  0.13

> <Gold.Chemscore.Hbond.Weighted>
-3.6964

> <Gold.Chemscore.Metal.Weighted>
-0.0000

> <Gold.Chemscore.Lipo.Weighted>
-8.6438

> <Gold.Chemscore.Internal_Hbond.Weighted>
0.0000

> <Gold.Chemscore.DEClash.Weighted>
0.0707

> <Gold.Chemscore.DEInternal.Weighted>
1.7811

> <Gold.Chemscore.Rot.Weighted>
3.9612

> <Gold.Chemscore.Internal.Correction.Weighted>
   9.000000E+99

> <Gold.Protein.RotatedTorsions>
[ 6907 6896 6895 6894 ] final  166.77 input  -60.11 | X-H torsion
[ 7974 7965 7964 7962 ] final  106.87 input  175.53 | X-H torsion
[ 8008 7997 7996 7995 ] final -153.35 input   59.86 | X-H torsion
[ 10167 10162 10161 10158 ] final -114.81 input  -65.29 | X-H torsion
[ 10718 10713 10712 10709 ] final -133.51 input   66.30 | X-H torsion
[ 10763 10752 10751 10750 ] final -153.28 input  -60.55 | X-H torsion
[ 11005 11000 10999 10996 ] final  116.65 input  -57.11 | X-H torsion

> <Gold.Protein.ActiveResidues>
 VAL166  LYS551  ARG553  GLY616  TRP617  ASP618  TYR619  PRO620  LYS621  CYS622 
 ASP623  PHE694  ASN695  SER759  ASP760  ASP761  ALA762  ILE779  LEU786  VAL792 
 PHE793  MET794  SER795  GLU796  ALA797  LYS798  CYS799  TRP800  GLU811  SER814 

> <Gold.Protein.RotatedAtoms>
  151.8737  133.3481  159.3743 H   0  0  0  0  0  0  0  0  0  0  0  0  # atno 6907 bound_to 6896
  150.7146  134.5087  159.5606 H   0  0  0  0  0  0  0  0  0  0  0  0  # atno 6908 bound_to 6896
  152.2625  134.8019  160.0479 H   0  0  0  0  0  0  0  0  0  0  0  0  # atno 6909 bound_to 6896
  145.3010  139.2569  143.3814 H   0  0  0  0  0  0  0  0  0  0  0  0  # atno 7974 bound_to 7965
  155.6695  140.0731  157.2525 H   0  0  0  0  0  0  0  0  0  0  0  0  # atno 8008 bound_to 7997
  154.4126  140.1701  156.1914 H   0  0  0  0  0  0  0  0  0  0  0  0  # atno 8009 bound_to 7997
  155.9629  140.3368  155.6510 H   0  0  0  0  0  0  0  0  0  0  0  0  # atno 8010 bound_to 7997
  140.0969  143.4648  152.1836 H   0  0  0  0  0  0  0  0  0  0  0  0  # atno 10167 bound_to 10162
  156.2457  130.7122  151.1001 H   0  0  0  0  0  0  0  0  0  0  0  0  # atno 10718 bound_to 10713
  154.7938  135.3216  154.7715 H   0  0  0  0  0  0  0  0  0  0  0  0  # atno 10763 bound_to 10752
  153.8398  135.6872  153.4808 H   0  0  0  0  0  0  0  0  0  0  0  0  # atno 10764 bound_to 10752
  153.1620  135.4657  154.9726 H   0  0  0  0  0  0  0  0  0  0  0  0  # atno 10765 bound_to 10752
  139.9048  134.9600  156.7231 H   0  0  0  0  0  0  0  0  0  0  0  0  # atno 11005 bound_to 11000
  146.3152  140.3524  142.8657 LP  0  0  0  0  0  0  0  0  0  0  0  0  # atno 17320 bound_to 7965
  144.9093  140.7738  143.5817 LP  0  0  0  0  0  0  0  0  0  0  0  0  # atno 17321 bound_to 7965
  139.5693  144.7453  151.3936 LP  0  0  0  0  0  0  0  0  0  0  0  0  # atno 17342 bound_to 10162
  140.6998  143.7659  150.7385 LP  0  0  0  0  0  0  0  0  0  0  0  0  # atno 17343 bound_to 10162
  157.7194  131.0691  150.6198 LP  0  0  0  0  0  0  0  0  0  0  0  0  # atno 17370 bound_to 10713
  156.6275  130.4422  149.5799 LP  0  0  0  0  0  0  0  0  0  0  0  0  # atno 17371 bound_to 10713
  140.6985  133.9327  155.8009 LP  0  0  0  0  0  0  0  0  0  0  0  0  # atno 17394 bound_to 11000
  141.0389  134.0649  157.3926 LP  0  0  0  0  0  0  0  0  0  0  0  0  # atno 17395 bound_to 11000

$$$$
