AV-unprocessed.smi:2033|AV-procd|sdf|8261|dock2
  -GOLD-   2272010533D 1   1.00000     0.00000
 Structure written by MMmdl.
 32 33  0  0  0  0  0  0  0  0  2 V2000
  153.4000  142.8112  162.8655 C   0  0  0  0  0  0  0  0  0  0  0  0
  153.4456  141.9164  161.6747 C   0  0  0  0  0  0  0  0  0  0  0  0
  154.0991  140.7519  161.6707 N   0  0  0  0  0  0  0  0  0  0  0  0
  153.9953  140.0988  160.4509 N   0  0  0  0  0  0  0  0  0  0  0  0
  153.2579  140.7709  159.5555 C   0  0  0  0  0  0  0  0  0  0  0  0
  153.0364  140.3116  158.3128 N   0  5  0  0  0  0  0  0  0  0  0  0
  151.9467  140.7234  157.6254 C   0  0  0  0  0  0  0  0  0  0  0  0
  151.6293  141.8922  157.3916 O   0  0  0  0  0  0  0  0  0  0  0  0
  151.1770  139.7186  157.1796 N   0  0  0  0  0  0  0  0  0  0  0  0
  149.9463  139.8507  156.3964 C   0  0  2  0  0  0  0  0  0  0  0  0
  149.0271  138.6514  156.7387 C   0  0  0  0  0  0  0  0  0  0  0  0
  147.8608  138.3795  155.7618 C   0  0  0  0  0  0  0  0  0  0  0  0
  147.0842  139.6309  155.3031 C   0  0  0  0  0  0  0  0  0  0  0  0
  147.8895  140.7062  154.5279 C   0  0  0  0  0  0  0  0  0  0  0  0
  149.2137  140.2780  154.0764 N   0  0  0  0  0  0  0  0  0  0  0  0
  150.2203  139.8857  154.8759 C   0  0  0  0  0  0  0  0  0  0  0  0
  151.3065  139.5383  154.4134 O   0  0  0  0  0  0  0  0  0  0  0  0
  152.6416  142.3070  160.1640 S   0  0  0  0  0  0  0  0  0  0  0  0
  152.6777  142.4321  163.5883 H   0  0  0  0  0  0  0  0  0  0  0  0
  153.1054  143.8185  162.5708 H   0  0  0  0  0  0  0  0  0  0  0  0
  154.3806  142.8603  163.3395 H   0  0  0  0  0  0  0  0  0  0  0  0
  151.4804  138.7794  157.3903 H   0  0  0  0  0  0  0  0  0  0  0  0
  149.4545  140.7769  156.6970 H   0  0  0  0  0  0  0  0  0  0  0  0
  149.6205  137.7384  156.8120 H   0  0  0  0  0  0  0  0  0  0  0  0
  148.6171  138.8144  157.7362 H   0  0  0  0  0  0  0  0  0  0  0  0
  148.2343  137.8484  154.8851 H   0  0  0  0  0  0  0  0  0  0  0  0
  147.1665  137.6850  156.2356 H   0  0  0  0  0  0  0  0  0  0  0  0
  146.2647  139.2957  154.6662 H   0  0  0  0  0  0  0  0  0  0  0  0
  146.6067  140.0969  156.1657 H   0  0  0  0  0  0  0  0  0  0  0  0
  147.3213  141.0254  153.6539 H   0  0  0  0  0  0  0  0  0  0  0  0
  148.0025  141.6015  155.1407 H   0  0  0  0  0  0  0  0  0  0  0  0
  149.3839  140.2915  153.0813 H   0  0  0  0  0  0  0  0  0  0  0  0
  1  2  1  0  0  0  0
  1 19  1  0  0  0  0
  1 20  1  0  0  0  0
  1 21  1  0  0  0  0
  2 18  1  0  0  0  0
  2  3  2  0  0  0  0
  3  4  1  0  0  0  0
  4  5  2  0  0  0  0
  5  6  1  0  0  0  0
  5 18  1  0  0  0  0
  6  7  1  0  0  0  0
  7  8  2  0  0  0  0
  7  9  1  0  0  0  0
  9 10  1  0  0  0  0
  9 22  1  0  0  0  0
 10 16  1  0  0  0  0
 10 11  1  0  0  0  0
 10 23  1  0  0  0  0
 11 12  1  0  0  0  0
 11 24  1  0  0  0  0
 11 25  1  0  0  0  0
 12 13  1  0  0  0  0
 12 26  1  0  0  0  0
 12 27  1  0  0  0  0
 13 14  1  0  0  0  0
 13 28  1  0  0  0  0
 13 29  1  0  0  0  0
 14 15  1  0  0  0  0
 14 30  1  0  0  0  0
 14 31  1  0  0  0  0
 15 16  1  0  0  0  0
 15 32  1  0  0  0  0
 16 17  2  0  0  0  0
M  CHG  1   6  -1
M  END
> <s_m_source_file>
AV-unprocessed.smi

> <i_m_source_file_index>
2033

> <i_lp_mmshare_version>
43012

> <i_f3d_flags>
0

> <s_epik_input>
W0NIM11jMW5uYyhzMSlbTkhdQyg9TylbTkhdW0NAQEhdMltDSDJdW0NIMl1bQ0gyXVtDSDJdW05IXUMyPU8=

> <s_epik_cmdline>
J2VwaWtfcHl0aG9uJywgJy1waCcsICc3LjAnLCAnLXRuJywgJzgnLCAnLW1hJywgJzIwMCcsICctbWV0YWxfYmluZGluZycsICctaW1hZScsICc8aW5maWxlLm1hZT4nLCAnLW9tYWUnLCAnPG91dGZpbGUubWFlPic=

> <r_lp_tautomer_probability>
1

> <r_epik_Ionization_Penalty>
4.07233

> <r_epik_Ionization_Penalty_Charging>
3.9374

> <r_epik_Ionization_Penalty_Neutral>
0.134927

> <r_epik_State_Penalty>
3.93663

> <r_epik_Charging_Adjusted_Penalty>
7.87404

> <i_epik_Tot_Q>
-1

> <i_epik_Tot_abs_Q>
1

> <r_epik_Metal_State_Penalty>
0.602812

> <b_epik_Metal_Only>
1

> <s_lp_Force_Field>
OPLS_2005

> <r_lp_Energy>
13.5644

> <b_lp_Chiralities_Consistent>
1

> <s_lp_Variant>
AV-unprocessed.smi:2033-3

> <Gold.Version>
5.8.1

> <Gold.Id.Protein>
6NUR|6NUR_protein|mol2

> <Gold.PLP.Fitness>
35.3451

> <Gold.PLP.PLP>
-25.8641

> <Gold.PLP.part.hbond>
-3.0000

> <Gold.PLP.part.metal>
0.0000

> <Gold.PLP.part.buried>
-2.1257

> <Gold.PLP.part.nonpolar>
-18.8082

> <Gold.PLP.part.repulsive>
0.3571

> <Gold.PLP.ligand.clash>
0.0000

> <Gold.PLP.ligand.torsion>
1.0053

> <Gold.PLP.Chemscore.Hbond>
3.8240

> <Gold.PLP.Chemscore.CHOScore>
0.0000

> <Gold.PLP.Chemscore.Metal>
0.0000

> <Gold.Chemscore.Hbonds>
donor molecule, donor type, donor heavy atom, donor atom, acceptor molecule, acceptor atom, score
      L1  H    15    32       P1  7957  1.00
      P1  H  7989  7998       L1    17  1.00
      P1  H  7997  8009       L1     6  1.82

> <Gold.PLP.Chemscore.Internal.Correction>
0.0197

> <Gold.Rescore>
     Score         DG    S(hbond)    S(metal)    S(lipo)     H(rot)  DE(clash)    DE(int)     intcor
     14.30     -16.40       2.53        0.00      42.99       1.00       0.08       2.02       ----

> <Gold.Chemscore.Fitness>
14.2990

> <Gold.Chemscore.DG>
-16.3987

> <Gold.Chemscore.ZeroCoef>
-5.4800

> <Gold.Chemscore.Hbond>
2.5296

> <Gold.Chemscore.Metal>
0.0000

> <Gold.Chemscore.Lipo>
42.9909

> <Gold.Chemscore.Internal_Hbond>
0.0000

> <Gold.Chemscore.DEClash>
0.0799

> <Gold.Chemscore.DEInternal>
2.0198

> <Gold.Chemscore.Rot>
1.0000

> <Gold.Chemscore.Internal.Correction>
   9.000000E+99

> <Gold.Chemscore.Hbonds>
donor molecule, donor type, donor heavy atom, donor atom, acceptor molecule, acceptor atom, score
      L1  H    15    32       P1  7957  0.99
      P1  H  7989  7998       L1    17  0.25
      P1  H  7997  8009       L1     6  0.59

> <Gold.Chemscore.Hbond.Weighted>
-8.4488

> <Gold.Chemscore.Metal.Weighted>
-0.0000

> <Gold.Chemscore.Lipo.Weighted>
-5.0299

> <Gold.Chemscore.Internal_Hbond.Weighted>
0.0000

> <Gold.Chemscore.DEClash.Weighted>
0.0799

> <Gold.Chemscore.DEInternal.Weighted>
2.0198

> <Gold.Chemscore.Rot.Weighted>
2.5600

> <Gold.Chemscore.Internal.Correction.Weighted>
   9.000000E+99

> <Gold.Protein.RotatedTorsions>
[ 6907 6896 6895 6894 ] final  -52.16 input  -60.11 | X-H torsion
[ 7974 7965 7964 7962 ] final -105.27 input  175.53 | X-H torsion
[ 8008 7997 7996 7995 ] final  152.91 input   59.86 | X-H torsion
[ 10167 10162 10161 10158 ] final   62.96 input  -65.29 | X-H torsion
[ 10718 10713 10712 10709 ] final   78.81 input   66.30 | X-H torsion
[ 10763 10752 10751 10750 ] final  168.05 input  -60.55 | X-H torsion
[ 11005 11000 10999 10996 ] final  -13.69 input  -57.11 | X-H torsion

> <Gold.Protein.ActiveResidues>
 VAL166  LYS551  ARG553  GLY616  TRP617  ASP618  TYR619  PRO620  LYS621  CYS622 
 ASP623  PHE694  ASN695  SER759  ASP760  ASP761  ALA762  ILE779  LEU786  VAL792 
 PHE793  MET794  SER795  GLU796  ALA797  LYS798  CYS799  TRP800  GLU811  SER814 

> <Gold.Protein.RotatedAtoms>
  150.8544  134.7878  159.7033 H   0  0  0  0  0  0  0  0  0  0  0  0  # atno 6907 bound_to 6896
  152.4600  134.5203  159.9790 H   0  0  0  0  0  0  0  0  0  0  0  0  # atno 6908 bound_to 6896
  151.5318  133.3409  159.2955 H   0  0  0  0  0  0  0  0  0  0  0  0  # atno 6909 bound_to 6896
  145.2326  140.9176  143.3196 H   0  0  0  0  0  0  0  0  0  0  0  0  # atno 7974 bound_to 7965
  156.2607  140.2008  156.6407 H   0  0  0  0  0  0  0  0  0  0  0  0  # atno 8008 bound_to 7997
  154.6611  140.0560  157.0088 H   0  0  0  0  0  0  0  0  0  0  0  0  # atno 8009 bound_to 7997
  155.1274  140.3230  155.4485 H   0  0  0  0  0  0  0  0  0  0  0  0  # atno 8010 bound_to 7997
  140.1382  144.4579  150.6826 H   0  0  0  0  0  0  0  0  0  0  0  0  # atno 10167 bound_to 10162
  157.6757  130.9885  150.1841 H   0  0  0  0  0  0  0  0  0  0  0  0  # atno 10718 bound_to 10713
  154.3629  135.2753  155.2310 H   0  0  0  0  0  0  0  0  0  0  0  0  # atno 10763 bound_to 10752
  154.4490  135.5935  153.6182 H   0  0  0  0  0  0  0  0  0  0  0  0  # atno 10764 bound_to 10752
  152.9842  135.6037  154.3852 H   0  0  0  0  0  0  0  0  0  0  0  0  # atno 10765 bound_to 10752
  140.7787  133.8380  155.9272 H   0  0  0  0  0  0  0  0  0  0  0  0  # atno 11005 bound_to 11000
  144.9662  139.3928  143.6331 LP  0  0  0  0  0  0  0  0  0  0  0  0  # atno 17320 bound_to 7965
  146.3349  139.8738  142.8835 LP  0  0  0  0  0  0  0  0  0  0  0  0  # atno 17321 bound_to 7965
  140.6776  143.2312  151.5466 LP  0  0  0  0  0  0  0  0  0  0  0  0  # atno 17342 bound_to 10162
  139.5485  144.2457  152.1487 LP  0  0  0  0  0  0  0  0  0  0  0  0  # atno 17343 bound_to 10162
  156.2567  130.3706  149.8174 LP  0  0  0  0  0  0  0  0  0  0  0  0  # atno 17370 bound_to 10713
  156.5931  130.8515  151.3413 LP  0  0  0  0  0  0  0  0  0  0  0  0  # atno 17371 bound_to 10713
  140.9504  134.1786  157.4732 LP  0  0  0  0  0  0  0  0  0  0  0  0  # atno 17394 bound_to 11000
  139.8745  134.9907  156.5514 LP  0  0  0  0  0  0  0  0  0  0  0  0  # atno 17395 bound_to 11000

$$$$
