AV-unprocessed.smi:3173|AV-procd|sdf|12117|dock10
  -GOLD-   2272017553D 1   1.00000     0.00000
 Structure written by MMmdl.
 35 36  0  0  0  0  0  0  0  0  1 V2000
  153.2985  140.6623  159.4372 O   0  0  0  0  0  0  0  0  0  0  0  0
  153.6303  141.3687  160.3896 C   0  0  0  0  0  0  0  0  0  0  0  0
  152.7112  142.4945  160.8762 C   0  0  0  0  0  0  0  0  0  0  0  0
  152.7042  143.7211  159.9399 C   0  0  2  0  0  0  0  0  0  0  0  0
  151.7328  144.7814  160.3905 C   0  0  0  0  0  0  0  0  0  0  0  0
  150.9217  145.1848  159.4150 C   0  0  0  0  0  0  0  0  0  0  0  0
  151.1859  144.4740  158.1168 C   0  0  0  0  0  0  0  0  0  0  0  0
  152.2512  143.4183  158.4861 C   0  0  0  0  0  0  0  0  0  0  0  0
  154.7830  141.2089  161.0572 N   0  0  0  0  0  0  0  0  0  0  0  0
  155.7726  140.1740  160.7815 C   0  0  0  0  0  0  0  0  0  0  0  0
  155.1381  138.7732  160.7986 C   0  0  0  0  0  0  0  0  0  0  0  0
  155.0035  138.2186  162.2040 C   0  0  0  0  0  0  0  0  0  0  0  0
  154.2225  137.0698  162.4525 C   0  0  0  0  0  0  0  0  0  0  0  0
  154.1315  136.5932  163.7745 C   0  0  0  0  0  0  0  0  0  0  0  0
  154.8224  137.2793  164.7917 C   0  0  0  0  0  0  0  0  0  0  0  0
  155.5782  138.4154  164.4396 C   0  0  0  0  0  0  0  0  0  0  0  0
  155.6726  138.8806  163.1751 N   0  0  0  0  0  0  0  0  0  0  0  0
  151.6946  142.1147  160.9924 H   0  0  0  0  0  0  0  0  0  0  0  0
  153.0439  142.7923  161.8712 H   0  0  0  0  0  0  0  0  0  0  0  0
  153.6919  144.1842  159.9285 H   0  0  0  0  0  0  0  0  0  0  0  0
  151.7298  145.1680  161.3991 H   0  0  0  0  0  0  0  0  0  0  0  0
  150.1619  145.9463  159.5112 H   0  0  0  0  0  0  0  0  0  0  0  0
  150.2745  144.0154  157.7322 H   0  0  0  0  0  0  0  0  0  0  0  0
  151.5601  145.1832  157.3779 H   0  0  0  0  0  0  0  0  0  0  0  0
  153.0931  143.4360  157.7932 H   0  0  0  0  0  0  0  0  0  0  0  0
  151.8058  142.4247  158.4202 H   0  0  0  0  0  0  0  0  0  0  0  0
  154.9793  141.8354  161.8243 H   0  0  0  0  0  0  0  0  0  0  0  0
  156.2569  140.3624  159.8219 H   0  0  0  0  0  0  0  0  0  0  0  0
  156.5519  140.2404  161.5410 H   0  0  0  0  0  0  0  0  0  0  0  0
  154.1510  138.8047  160.3349 H   0  0  0  0  0  0  0  0  0  0  0  0
  155.7336  138.0817  160.2010 H   0  0  0  0  0  0  0  0  0  0  0  0
  153.7055  136.5642  161.6501 H   0  0  0  0  0  0  0  0  0  0  0  0
  153.5426  135.7173  164.0035 H   0  0  0  0  0  0  0  0  0  0  0  0
  154.7751  136.9426  165.8167 H   0  0  0  0  0  0  0  0  0  0  0  0
  156.1217  138.9652  165.1938 H   0  0  0  0  0  0  0  0  0  0  0  0
  1  2  2  0  0  0  0
  2  3  1  0  0  0  0
  2  9  1  0  0  0  0
  3  4  1  0  0  0  0
  3 18  1  0  0  0  0
  3 19  1  0  0  0  0
  4  8  1  0  0  0  0
  4  5  1  0  0  0  0
  4 20  1  0  0  0  0
  5  6  2  0  0  0  0
  5 21  1  0  0  0  0
  6  7  1  0  0  0  0
  6 22  1  0  0  0  0
  7  8  1  0  0  0  0
  7 23  1  0  0  0  0
  7 24  1  0  0  0  0
  8 25  1  0  0  0  0
  8 26  1  0  0  0  0
  9 10  1  0  0  0  0
  9 27  1  0  0  0  0
 10 11  1  0  0  0  0
 10 28  1  0  0  0  0
 10 29  1  0  0  0  0
 11 12  1  0  0  0  0
 11 30  1  0  0  0  0
 11 31  1  0  0  0  0
 12 17  1  0  0  0  0
 12 13  2  0  0  0  0
 13 14  1  0  0  0  0
 13 32  1  0  0  0  0
 14 15  2  0  0  0  0
 14 33  1  0  0  0  0
 15 16  1  0  0  0  0
 15 34  1  0  0  0  0
 16 17  2  0  0  0  0
 16 35  1  0  0  0  0
M  END
> <s_m_source_file>
AV-unprocessed.smi

> <i_m_source_file_index>
3173

> <i_lp_mmshare_version>
43012

> <i_f3d_flags>
0

> <s_epik_input>
W0NIMl0xW0NIMl1bQ0hdPVtDSF1bQ0BIXTFbQ0gyXUMoPU8pW05IXVtDSDJdW0NIMl1jMltjSF1bY0hdW2NIXVtjSF1uMg==

> <s_epik_cmdline>
J2VwaWtfcHl0aG9uJywgJy1waCcsICc3LjAnLCAnLXRuJywgJzgnLCAnLW1hJywgJzIwMCcsICctbWV0YWxfYmluZGluZycsICctaW1hZScsICc8aW5maWxlLm1hZT4nLCAnLW9tYWUnLCAnPG91dGZpbGUubWFlPic=

> <r_epik_Ionization_Penalty>
0.0258754

> <r_epik_Ionization_Penalty_Charging>
0

> <r_epik_Ionization_Penalty_Neutral>
0.0258754

> <r_epik_State_Penalty>
0.0210899

> <r_epik_Charging_Adjusted_Penalty>
0.0210899

> <i_epik_Tot_Q>
0

> <i_epik_Tot_abs_Q>
0

> <r_epik_Metal_State_Penalty>
0.0202045

> <b_epik_Metal_Only>
0

> <s_lp_Force_Field>
OPLS_2005

> <r_lp_Energy>
13.7226

> <b_lp_Chiralities_Consistent>
1

> <s_lp_Variant>
AV-unprocessed.smi:3173-1

> <Gold.Version>
5.8.1

> <Gold.Id.Protein>
6NUR|6NUR_protein|mol2

> <Gold.PLP.Fitness>
44.3994

> <Gold.PLP.PLP>
-45.2683

> <Gold.PLP.part.hbond>
-1.0000

> <Gold.PLP.part.metal>
0.0000

> <Gold.PLP.part.buried>
-5.4270

> <Gold.PLP.part.nonpolar>
-39.8372

> <Gold.PLP.part.repulsive>
0.0097

> <Gold.PLP.ligand.clash>
0.0000

> <Gold.PLP.ligand.torsion>
0.4459

> <Gold.PLP.Chemscore.Hbond>
0.0000

> <Gold.PLP.Chemscore.CHOScore>
0.0000

> <Gold.PLP.Chemscore.Metal>
0.0000

> <Gold.PLP.Chemscore.Internal.Correction>
0.0230

> <Gold.Rescore>
     Score         DG    S(hbond)    S(metal)    S(lipo)     H(rot)  DE(clash)    DE(int)     intcor
     14.65     -16.42       0.01        0.00     126.08       1.50       0.33       1.44       ----

> <Gold.Chemscore.Fitness>
14.6502

> <Gold.Chemscore.DG>
-16.4155

> <Gold.Chemscore.ZeroCoef>
-5.4800

> <Gold.Chemscore.Hbond>
0.0101

> <Gold.Chemscore.Metal>
0.0000

> <Gold.Chemscore.Lipo>
126.0789

> <Gold.Chemscore.Internal_Hbond>
0.0000

> <Gold.Chemscore.DEClash>
0.3298

> <Gold.Chemscore.DEInternal>
1.4355

> <Gold.Chemscore.Rot>
1.5037

> <Gold.Chemscore.Internal.Correction>
   9.000000E+99

> <Gold.Chemscore.Hbond.Weighted>
-0.0337

> <Gold.Chemscore.Metal.Weighted>
-0.0000

> <Gold.Chemscore.Lipo.Weighted>
-14.7512

> <Gold.Chemscore.Internal_Hbond.Weighted>
0.0000

> <Gold.Chemscore.DEClash.Weighted>
0.3298

> <Gold.Chemscore.DEInternal.Weighted>
1.4355

> <Gold.Chemscore.Rot.Weighted>
3.8494

> <Gold.Chemscore.Internal.Correction.Weighted>
   9.000000E+99

> <Gold.Protein.RotatedTorsions>
[ 6907 6896 6895 6894 ] final -109.49 input  -60.11 | X-H torsion
[ 7974 7965 7964 7962 ] final  144.67 input  175.53 | X-H torsion
[ 8008 7997 7996 7995 ] final   48.43 input   59.86 | X-H torsion
[ 10167 10162 10161 10158 ] final   85.32 input  -65.29 | X-H torsion
[ 10718 10713 10712 10709 ] final -123.14 input   66.30 | X-H torsion
[ 10763 10752 10751 10750 ] final -121.62 input  -60.55 | X-H torsion
[ 11005 11000 10999 10996 ] final  102.08 input  -57.11 | X-H torsion

> <Gold.Protein.ActiveResidues>
 VAL166  LYS551  ARG553  GLY616  TRP617  ASP618  TYR619  PRO620  LYS621  CYS622 
 ASP623  PHE694  ASN695  SER759  ASP760  ASP761  ALA762  ILE779  LEU786  VAL792 
 PHE793  MET794  SER795  GLU796  ALA797  LYS798  CYS799  TRP800  GLU811  SER814 

> <Gold.Protein.RotatedAtoms>
  150.7565  133.9522  159.3489 H   0  0  0  0  0  0  0  0  0  0  0  0  # atno 6907 bound_to 6896
  151.7440  135.0846  160.0330 H   0  0  0  0  0  0  0  0  0  0  0  0  # atno 6908 bound_to 6896
  152.3509  133.6142  159.5980 H   0  0  0  0  0  0  0  0  0  0  0  0  # atno 6909 bound_to 6896
  144.8816  139.5690  143.5840 H   0  0  0  0  0  0  0  0  0  0  0  0  # atno 7974 bound_to 7965
  155.3855  140.3431  155.4249 H   0  0  0  0  0  0  0  0  0  0  0  0  # atno 8008 bound_to 7997
  156.1587  140.1594  156.8683 H   0  0  0  0  0  0  0  0  0  0  0  0  # atno 8009 bound_to 7997
  154.5119  140.0788  156.7987 H   0  0  0  0  0  0  0  0  0  0  0  0  # atno 8010 bound_to 7997
  139.8989  144.6341  150.8658 H   0  0  0  0  0  0  0  0  0  0  0  0  # atno 10167 bound_to 10162
  156.1477  130.6512  150.9867 H   0  0  0  0  0  0  0  0  0  0  0  0  # atno 10718 bound_to 10713
  154.8672  135.4161  154.2650 H   0  0  0  0  0  0  0  0  0  0  0  0  # atno 10763 bound_to 10752
  153.3570  135.7001  153.6748 H   0  0  0  0  0  0  0  0  0  0  0  0  # atno 10764 bound_to 10752
  153.5664  135.3600  155.2792 H   0  0  0  0  0  0  0  0  0  0  0  0  # atno 10765 bound_to 10752
  139.8776  134.9209  156.5003 H   0  0  0  0  0  0  0  0  0  0  0  0  # atno 11005 bound_to 11000
  146.2998  139.7391  142.9099 LP  0  0  0  0  0  0  0  0  0  0  0  0  # atno 17320 bound_to 7965
  145.3943  141.0377  143.3106 LP  0  0  0  0  0  0  0  0  0  0  0  0  # atno 17321 bound_to 7965
  140.7711  143.3452  151.2126 LP  0  0  0  0  0  0  0  0  0  0  0  0  # atno 17342 bound_to 10162
  139.7043  143.9482  152.2919 LP  0  0  0  0  0  0  0  0  0  0  0  0  # atno 17343 bound_to 10162
  157.6631  131.0877  150.7793 LP  0  0  0  0  0  0  0  0  0  0  0  0  # atno 17370 bound_to 10713
  156.7863  130.4875  149.5392 LP  0  0  0  0  0  0  0  0  0  0  0  0  # atno 17371 bound_to 10713
  140.8594  133.8071  155.9249 LP  0  0  0  0  0  0  0  0  0  0  0  0  # atno 17394 bound_to 11000
  140.9064  134.2314  157.5011 LP  0  0  0  0  0  0  0  0  0  0  0  0  # atno 17395 bound_to 11000

$$$$
