AV-unprocessed.smi:2802|AV-procd|sdf|10803|dock4
  -GOLD-   2272015233D 1   1.00000     0.00000
 Structure written by MMmdl.
 47 48  0  0  0  0  0  0  0  0  1 V2000
  142.2808  135.1141  153.7270 C   0  0  0  0  0  0  0  0  0  0  0  0
  143.6500  135.0784  153.0322 C   0  0  2  0  0  0  0  0  0  0  0  0
  143.7268  133.9228  152.0177 C   0  0  0  0  0  0  0  0  0  0  0  0
  145.0873  133.8307  151.2883 C   0  0  0  0  0  0  0  0  0  0  0  0
  145.1375  132.4978  150.5141 C   0  0  0  0  0  0  0  0  0  0  0  0
  145.2318  134.9616  150.2448 C   0  0  0  0  0  0  0  0  0  0  0  0
  146.2435  133.8329  152.3288 C   0  0  0  0  0  0  0  0  0  0  0  0
  146.2035  134.9410  153.4244 C   0  0  1  0  0  0  0  0  0  0  0  0
  147.2523  134.6023  154.5207 C   0  0  0  0  0  0  0  0  0  0  0  0
  148.5778  134.6495  154.0283 O   0  0  0  0  0  0  0  0  0  0  0  0
  146.4791  136.2729  152.8632 N   0  0  0  0  0  0  0  0  0  0  0  0
  146.0779  137.4773  153.3081 C   0  0  0  0  0  0  0  0  0  0  0  0
  145.3748  137.6428  154.3049 O   0  0  0  0  0  0  0  0  0  0  0  0
  146.5562  138.6810  152.4902 C   0  0  0  0  0  0  0  0  0  0  0  0
  147.5582  139.5177  153.2675 C   0  0  0  0  0  0  0  0  0  0  0  0
  147.3423  140.8954  153.4810 C   0  0  0  0  0  0  0  0  0  0  0  0
  148.3013  141.6281  154.2063 C   0  0  0  0  0  0  0  0  0  0  0  0
  149.4376  140.9498  154.6908 C   0  0  0  0  0  0  0  0  0  0  0  0
  149.6548  139.6315  154.4938 N   0  0  0  0  0  0  0  0  0  0  0  0
  148.7315  138.9367  153.7948 C   0  0  0  0  0  0  0  0  0  0  0  0
  144.7908  134.9609  154.0608 C   0  0  0  0  0  0  0  0  0  0  0  0
  142.0967  134.1985  154.2899 H   0  0  0  0  0  0  0  0  0  0  0  0
  141.4745  135.2265  153.0015 H   0  0  0  0  0  0  0  0  0  0  0  0
  142.2150  135.9511  154.4227 H   0  0  0  0  0  0  0  0  0  0  0  0
  143.7567  136.0231  152.4998 H   0  0  0  0  0  0  0  0  0  0  0  0
  143.5387  132.9873  152.5476 H   0  0  0  0  0  0  0  0  0  0  0  0
  142.9214  134.0177  151.2877 H   0  0  0  0  0  0  0  0  0  0  0  0
  146.0817  132.3845  149.9801 H   0  0  0  0  0  0  0  0  0  0  0  0
  144.3350  132.4335  149.7782 H   0  0  0  0  0  0  0  0  0  0  0  0
  145.0347  131.6404  151.1803 H   0  0  0  0  0  0  0  0  0  0  0  0
  146.2142  134.9385  149.7720 H   0  0  0  0  0  0  0  0  0  0  0  0
  145.0983  135.9541  150.6692 H   0  0  0  0  0  0  0  0  0  0  0  0
  144.4883  134.8625  149.4532 H   0  0  0  0  0  0  0  0  0  0  0  0
  146.2145  132.8730  152.8471 H   0  0  0  0  0  0  0  0  0  0  0  0
  147.2033  133.8343  151.8118 H   0  0  0  0  0  0  0  0  0  0  0  0
  147.1803  135.3133  155.3445 H   0  0  0  0  0  0  0  0  0  0  0  0
  147.0765  133.6196  154.9576 H   0  0  0  0  0  0  0  0  0  0  0  0
  148.6233  135.3085  153.3524 H   0  0  0  0  0  0  0  0  0  0  0  0
  147.0491  136.2739  152.0300 H   0  0  0  0  0  0  0  0  0  0  0  0
  147.0168  138.3474  151.5589 H   0  0  0  0  0  0  0  0  0  0  0  0
  145.6934  139.2893  152.2168 H   0  0  0  0  0  0  0  0  0  0  0  0
  146.4595  141.3830  153.0946 H   0  0  0  0  0  0  0  0  0  0  0  0
  148.1697  142.6847  154.3872 H   0  0  0  0  0  0  0  0  0  0  0  0
  150.1919  141.4802  155.2530 H   0  0  0  0  0  0  0  0  0  0  0  0
  148.9364  137.8859  153.6521 H   0  0  0  0  0  0  0  0  0  0  0  0
  144.7149  135.7810  154.7761 H   0  0  0  0  0  0  0  0  0  0  0  0
  144.6451  134.0475  154.6395 H   0  0  0  0  0  0  0  0  0  0  0  0
  1  2  1  0  0  0  0
  1 22  1  0  0  0  0
  1 23  1  0  0  0  0
  1 24  1  0  0  0  0
  2 21  1  0  0  0  0
  2  3  1  0  0  0  0
  2 25  1  0  0  0  0
  3  4  1  0  0  0  0
  3 26  1  0  0  0  0
  3 27  1  0  0  0  0
  4  5  1  0  0  0  0
  4  6  1  0  0  0  0
  4  7  1  0  0  0  0
  5 28  1  0  0  0  0
  5 29  1  0  0  0  0
  5 30  1  0  0  0  0
  6 31  1  0  0  0  0
  6 32  1  0  0  0  0
  6 33  1  0  0  0  0
  7  8  1  0  0  0  0
  7 34  1  0  0  0  0
  7 35  1  0  0  0  0
  8  9  1  0  0  0  0
  8 11  1  0  0  0  0
  8 21  1  0  0  0  0
  9 10  1  0  0  0  0
  9 36  1  0  0  0  0
  9 37  1  0  0  0  0
 10 38  1  0  0  0  0
 11 12  1  0  0  0  0
 11 39  1  0  0  0  0
 12 13  2  0  0  0  0
 12 14  1  0  0  0  0
 14 15  1  0  0  0  0
 14 40  1  0  0  0  0
 14 41  1  0  0  0  0
 15 20  1  0  0  0  0
 15 16  2  0  0  0  0
 16 17  1  0  0  0  0
 16 42  1  0  0  0  0
 17 18  2  0  0  0  0
 17 43  1  0  0  0  0
 18 19  1  0  0  0  0
 18 44  1  0  0  0  0
 19 20  2  0  0  0  0
 20 45  1  0  0  0  0
 21 46  1  0  0  0  0
 21 47  1  0  0  0  0
M  END
> <s_m_source_file>
AV-unprocessed.smi

> <i_m_source_file_index>
2802

> <i_lp_mmshare_version>
43012

> <i_f3d_flags>
0

> <s_epik_input>
W0NIM11DMShbQ0gzXSlbQ0gyXVtDQEBIXShbQ0gzXSlbQ0gyXVtDQF0oW0NIMl0xKShbQ0gyXVtPSF0pW05IXUMoPU8pW0NIMl1jMltjSF1bY0hdW2NIXW5bY0hdMg==

> <s_epik_cmdline>
J2VwaWtfcHl0aG9uJywgJy1waCcsICc3LjAnLCAnLXRuJywgJzgnLCAnLW1hJywgJzIwMCcsICctbWV0YWxfYmluZGluZycsICctaW1hZScsICc8aW5maWxlLm1hZT4nLCAnLW9tYWUnLCAnPG91dGZpbGUubWFlPic=

> <r_epik_Ionization_Penalty>
0.004793

> <r_epik_Ionization_Penalty_Charging>
0

> <r_epik_Ionization_Penalty_Neutral>
0.004793

> <r_epik_State_Penalty>
0.00347421

> <r_epik_Charging_Adjusted_Penalty>
0.00347421

> <i_epik_Tot_Q>
0

> <i_epik_Tot_abs_Q>
0

> <r_epik_Metal_State_Penalty>
-0

> <b_epik_Metal_Only>
0

> <s_lp_Force_Field>
OPLS_2005

> <r_lp_Energy>
18.2871

> <b_lp_Chiralities_Consistent>
1

> <s_lp_Variant>
AV-unprocessed.smi:2802-1

> <Gold.Version>
5.8.1

> <Gold.Id.Protein>
6NUR|6NUR_protein|mol2

> <Gold.PLP.Fitness>
40.4536

> <Gold.PLP.PLP>
-33.6987

> <Gold.PLP.part.hbond>
-2.0000

> <Gold.PLP.part.metal>
0.0000

> <Gold.PLP.part.buried>
-0.8709

> <Gold.PLP.part.nonpolar>
-30.9937

> <Gold.PLP.part.repulsive>
0.2144

> <Gold.PLP.ligand.clash>
0.0000

> <Gold.PLP.ligand.torsion>
0.6449

> <Gold.PLP.Chemscore.Hbond>
1.6720

> <Gold.PLP.Chemscore.CHOScore>
1.0000

> <Gold.PLP.Chemscore.Metal>
0.0000

> <Gold.Chemscore.Hbonds>
donor molecule, donor type, donor heavy atom, donor atom, acceptor molecule, acceptor atom, score
      L1  H    10    38       P1  7948  1.00
      L1  H    11    39       P1  7948  0.62
      L1  C    20    45       P1  7948  1.00

> <Gold.PLP.Chemscore.Internal.Correction>
0.0287

> <Gold.Rescore>
     Score         DG    S(hbond)    S(metal)    S(lipo)     H(rot)  DE(clash)    DE(int)     intcor
     13.26     -17.11       1.87        0.00      89.71       2.00       1.57       2.28       ----

> <Gold.Chemscore.Fitness>
13.2584

> <Gold.Chemscore.DG>
-17.1083

> <Gold.Chemscore.ZeroCoef>
-5.4800

> <Gold.Chemscore.Hbond>
1.8738

> <Gold.Chemscore.Metal>
0.0000

> <Gold.Chemscore.Lipo>
89.7122

> <Gold.Chemscore.Internal_Hbond>
0.0000

> <Gold.Chemscore.DEClash>
1.5679

> <Gold.Chemscore.DEInternal>
2.2820

> <Gold.Chemscore.Rot>
2.0026

> <Gold.Chemscore.Internal.Correction>
   9.000000E+99

> <Gold.Chemscore.Hbonds>
donor molecule, donor type, donor heavy atom, donor atom, acceptor molecule, acceptor atom, score
      L1  H    10    38       P1  7948  0.88
      L1  H    11    39       P1  7948  0.62

> <Gold.Chemscore.Hbond.Weighted>
-6.2586

> <Gold.Chemscore.Metal.Weighted>
-0.0000

> <Gold.Chemscore.Lipo.Weighted>
-10.4963

> <Gold.Chemscore.Internal_Hbond.Weighted>
0.0000

> <Gold.Chemscore.DEClash.Weighted>
1.5679

> <Gold.Chemscore.DEInternal.Weighted>
2.2820

> <Gold.Chemscore.Rot.Weighted>
5.1267

> <Gold.Chemscore.Internal.Correction.Weighted>
   9.000000E+99

> <Gold.Protein.RotatedTorsions>
[ 6907 6896 6895 6894 ] final   93.87 input  -60.11 | X-H torsion
[ 7974 7965 7964 7962 ] final -117.27 input  175.53 | X-H torsion
[ 8008 7997 7996 7995 ] final    3.75 input   59.86 | X-H torsion
[ 10167 10162 10161 10158 ] final  160.41 input  -65.29 | X-H torsion
[ 10718 10713 10712 10709 ] final  -47.29 input   66.30 | X-H torsion
[ 10763 10752 10751 10750 ] final  153.25 input  -60.55 | X-H torsion
[ 11005 11000 10999 10996 ] final  -45.52 input  -57.11 | X-H torsion

> <Gold.Protein.ActiveResidues>
 VAL166  LYS551  ARG553  GLY616  TRP617  ASP618  TYR619  PRO620  LYS621  CYS622 
 ASP623  PHE694  ASN695  SER759  ASP760  ASP761  ALA762  ILE779  LEU786  VAL792 
 PHE793  MET794  SER795  GLU796  ALA797  LYS798  CYS799  TRP800  GLU811  SER814 

> <Gold.Protein.RotatedAtoms>
  152.5451  134.1282  159.8427 H   0  0  0  0  0  0  0  0  0  0  0  0  # atno 6907 bound_to 6896
  151.1330  133.5016  159.2606 H   0  0  0  0  0  0  0  0  0  0  0  0  # atno 6908 bound_to 6896
  151.1654  135.0303  159.8783 H   0  0  0  0  0  0  0  0  0  0  0  0  # atno 6909 bound_to 6896
  145.0871  140.8465  143.4004 H   0  0  0  0  0  0  0  0  0  0  0  0  # atno 7974 bound_to 7965
  154.7075  140.2686  155.6661 H   0  0  0  0  0  0  0  0  0  0  0  0  # atno 8008 bound_to 7997
  156.2785  140.2760  156.1630 H   0  0  0  0  0  0  0  0  0  0  0  0  # atno 8009 bound_to 7997
  155.0680  140.0372  157.2589 H   0  0  0  0  0  0  0  0  0  0  0  0  # atno 8010 bound_to 7997
  139.4840  144.4636  151.8671 H   0  0  0  0  0  0  0  0  0  0  0  0  # atno 10167 bound_to 10162
  156.2099  130.4160  149.9129 H   0  0  0  0  0  0  0  0  0  0  0  0  # atno 10718 bound_to 10713
  154.1332  135.2825  155.3180 H   0  0  0  0  0  0  0  0  0  0  0  0  # atno 10763 bound_to 10752
  154.6340  135.5425  153.7716 H   0  0  0  0  0  0  0  0  0  0  0  0  # atno 10764 bound_to 10752
  153.0274  135.6470  154.1482 H   0  0  0  0  0  0  0  0  0  0  0  0  # atno 10765 bound_to 10752
  141.0521  133.6739  156.3025 H   0  0  0  0  0  0  0  0  0  0  0  0  # atno 11005 bound_to 11000
  145.1109  139.2757  143.5638 LP  0  0  0  0  0  0  0  0  0  0  0  0  # atno 17320 bound_to 7965
  146.3531  140.0705  142.8623 LP  0  0  0  0  0  0  0  0  0  0  0  0  # atno 17321 bound_to 7965
  140.4100  144.2381  150.5889 LP  0  0  0  0  0  0  0  0  0  0  0  0  # atno 17342 bound_to 10162
  140.4975  143.2328  151.8727 LP  0  0  0  0  0  0  0  0  0  0  0  0  # atno 17343 bound_to 10162
  156.6810  130.8858  151.3576 LP  0  0  0  0  0  0  0  0  0  0  0  0  # atno 17370 bound_to 10713
  157.7033  130.9356  150.0851 LP  0  0  0  0  0  0  0  0  0  0  0  0  # atno 17371 bound_to 10713
  140.6036  134.5530  157.5522 LP  0  0  0  0  0  0  0  0  0  0  0  0  # atno 17394 bound_to 11000
  139.9359  134.7877  156.0805 LP  0  0  0  0  0  0  0  0  0  0  0  0  # atno 17395 bound_to 11000

$$$$
