AV-unprocessed.smi:2814|AV-procd|sdf|10840|dock3
  -GOLD-   2272015283D 1   1.00000     0.00000
 Structure written by MMmdl.
 38 39  0  0  0  0  0  0  0  0  2 V2000
  146.2578  143.2078  154.0917 C   0  0  0  0  0  0  0  0  0  0  0  0
  147.1875  142.0127  154.1066 C   0  0  0  0  0  0  0  0  0  0  0  0
  146.8044  140.7533  153.5972 C   0  0  0  0  0  0  0  0  0  0  0  0
  147.7257  139.6759  153.6387 C   0  0  0  0  0  0  0  0  0  0  0  0
  147.4315  138.3673  153.1694 N   0  0  0  0  0  0  0  0  0  0  0  0
  146.2608  137.7088  153.2158 C   0  0  0  0  0  0  0  0  0  0  0  0
  145.2087  138.1637  153.6642 O   0  0  0  0  0  0  0  0  0  0  0  0
  146.3759  136.4803  152.6918 N   0  0  0  0  0  0  0  0  0  0  0  0
  145.3029  135.4939  152.5807 C   0  0  0  0  0  0  0  0  0  0  0  0
  145.3858  134.6761  151.2720 C   0  0  0  0  0  0  0  0  0  0  0  0
  145.4561  135.5852  150.1874 O   0  0  0  0  0  0  0  0  0  0  0  0
  146.5540  133.6830  151.1859 C   0  0  0  0  0  0  0  0  0  0  0  0
  146.1357  132.6353  150.1467 C   0  0  0  0  0  0  0  0  0  0  0  0
  144.6038  132.7031  150.0543 C   0  0  0  0  0  0  0  0  0  0  0  0
  144.1576  133.7839  151.0479 C   0  0  0  0  0  0  0  0  0  0  0  0
  148.9950  139.8943  154.2180 C   0  0  0  0  0  0  0  0  0  0  0  0
  149.3232  141.1735  154.7099 C   0  0  0  0  0  0  0  0  0  0  0  0
  148.4206  142.1747  154.6350 N   0  3  0  0  0  0  0  0  0  0  0  0
  145.2971  142.9533  153.6429 H   0  0  0  0  0  0  0  0  0  0  0  0
  146.6965  144.0237  153.5165 H   0  0  0  0  0  0  0  0  0  0  0  0
  146.0758  143.5606  155.1073 H   0  0  0  0  0  0  0  0  0  0  0  0
  145.8097  140.6305  153.1961 H   0  0  0  0  0  0  0  0  0  0  0  0
  148.1845  137.8976  152.6881 H   0  0  0  0  0  0  0  0  0  0  0  0
  147.2813  136.1925  152.3505 H   0  0  0  0  0  0  0  0  0  0  0  0
  145.3246  134.8241  153.4420 H   0  0  0  0  0  0  0  0  0  0  0  0
  144.3471  136.0162  152.6371 H   0  0  0  0  0  0  0  0  0  0  0  0
  145.6737  135.1006  149.4057 H   0  0  0  0  0  0  0  0  0  0  0  0
  147.5045  134.1591  150.9417 H   0  0  0  0  0  0  0  0  0  0  0  0
  146.6789  133.1863  152.1489 H   0  0  0  0  0  0  0  0  0  0  0  0
  146.5744  132.8726  149.1768 H   0  0  0  0  0  0  0  0  0  0  0  0
  146.4833  131.6401  150.4254 H   0  0  0  0  0  0  0  0  0  0  0  0
  144.3079  132.9791  149.0413 H   0  0  0  0  0  0  0  0  0  0  0  0
  144.1390  131.7422  150.2776 H   0  0  0  0  0  0  0  0  0  0  0  0
  143.8800  133.3011  151.9862 H   0  0  0  0  0  0  0  0  0  0  0  0
  143.2827  134.3368  150.7024 H   0  0  0  0  0  0  0  0  0  0  0  0
  149.7166  139.0924  154.2800 H   0  0  0  0  0  0  0  0  0  0  0  0
  150.2731  141.4233  155.1594 H   0  0  0  0  0  0  0  0  0  0  0  0
  148.6789  143.0926  154.9982 H   0  0  0  0  0  0  0  0  0  0  0  0
  1  2  1  0  0  0  0
  1 19  1  0  0  0  0
  1 20  1  0  0  0  0
  1 21  1  0  0  0  0
  2 18  1  0  0  0  0
  2  3  2  0  0  0  0
  3  4  1  0  0  0  0
  3 22  1  0  0  0  0
  4  5  1  0  0  0  0
  4 16  2  0  0  0  0
  5  6  1  0  0  0  0
  5 23  1  0  0  0  0
  6  7  2  0  0  0  0
  6  8  1  0  0  0  0
  8  9  1  0  0  0  0
  8 24  1  0  0  0  0
  9 10  1  0  0  0  0
  9 25  1  0  0  0  0
  9 26  1  0  0  0  0
 10 15  1  0  0  0  0
 10 11  1  0  0  0  0
 10 12  1  0  0  0  0
 11 27  1  0  0  0  0
 12 13  1  0  0  0  0
 12 28  1  0  0  0  0
 12 29  1  0  0  0  0
 13 14  1  0  0  0  0
 13 30  1  0  0  0  0
 13 31  1  0  0  0  0
 14 15  1  0  0  0  0
 14 32  1  0  0  0  0
 14 33  1  0  0  0  0
 15 34  1  0  0  0  0
 15 35  1  0  0  0  0
 16 17  1  0  0  0  0
 16 36  1  0  0  0  0
 17 18  2  0  0  0  0
 17 37  1  0  0  0  0
 18 38  1  0  0  0  0
M  CHG  1  18   1
M  END
> <s_m_source_file>
AV-unprocessed.smi

> <i_m_source_file_index>
2814

> <i_lp_mmshare_version>
43012

> <i_f3d_flags>
0

> <s_epik_input>
W0NIM11jMVtjSF1jKFtjSF1bY0hdbjEpW05IXUMoPU8pW05IXVtDSDJdQzIoW09IXSlbQ0gyXVtDSDJdW0NIMl1bQ0gyXTI=

> <s_epik_cmdline>
J2VwaWtfcHl0aG9uJywgJy1waCcsICc3LjAnLCAnLXRuJywgJzgnLCAnLW1hJywgJzIwMCcsICctbWV0YWxfYmluZGluZycsICctaW1hZScsICc8aW5maWxlLm1hZT4nLCAnLW9tYWUnLCAnPG91dGZpbGUubWFlPic=

> <r_epik_Ionization_Penalty>
0.41638

> <r_epik_Ionization_Penalty_Charging>
0.416357

> <r_epik_Ionization_Penalty_Neutral>
2.25049e-05

> <r_epik_State_Penalty>
0.41674

> <r_epik_Charging_Adjusted_Penalty>
0.833097

> <i_epik_Tot_Q>
1

> <i_epik_Tot_abs_Q>
1

> <r_epik_Metal_State_Penalty>
0.654825

> <b_epik_Metal_Only>
0

> <s_lp_Force_Field>
OPLS_2005

> <r_lp_Energy>
34.0796

> <b_lp_Chiralities_Consistent>
1

> <s_lp_Variant>
AV-unprocessed.smi:2814-2

> <Gold.Version>
5.8.1

> <Gold.Id.Protein>
6NUR|6NUR_protein|mol2

> <Gold.PLP.Fitness>
49.8073

> <Gold.PLP.PLP>
-35.7456

> <Gold.PLP.part.hbond>
-4.0000

> <Gold.PLP.part.metal>
0.0000

> <Gold.PLP.part.buried>
-4.9678

> <Gold.PLP.part.nonpolar>
-28.3885

> <Gold.PLP.part.repulsive>
0.9443

> <Gold.PLP.ligand.clash>
0.0000

> <Gold.PLP.ligand.torsion>
0.4712

> <Gold.PLP.Chemscore.Hbond>
5.0000

> <Gold.PLP.Chemscore.CHOScore>
0.0000

> <Gold.PLP.Chemscore.Metal>
0.0000

> <Gold.Chemscore.Hbonds>
donor molecule, donor type, donor heavy atom, donor atom, acceptor molecule, acceptor atom, score
      L1  H     5    23       P1  7948  1.00
      L1  H     8    24       P1  7948  1.00
      L1  H    11    27       P1  7921  1.00
      L1  H    18    38       P1  8028  2.00

> <Gold.PLP.Chemscore.Internal.Correction>
0.0042

> <Gold.Rescore>
     Score         DG    S(hbond)    S(metal)    S(lipo)     H(rot)  DE(clash)    DE(int)     intcor
     22.41     -23.66       3.96        0.00      80.37       1.74       0.02       1.23       ----

> <Gold.Chemscore.Fitness>
22.4087

> <Gold.Chemscore.DG>
-23.6590

> <Gold.Chemscore.ZeroCoef>
-5.4800

> <Gold.Chemscore.Hbond>
3.9598

> <Gold.Chemscore.Metal>
0.0000

> <Gold.Chemscore.Lipo>
80.3673

> <Gold.Chemscore.Internal_Hbond>
0.0000

> <Gold.Chemscore.DEClash>
0.0208

> <Gold.Chemscore.DEInternal>
1.2295

> <Gold.Chemscore.Rot>
1.7382

> <Gold.Chemscore.Internal.Correction>
   9.000000E+99

> <Gold.Chemscore.Hbonds>
donor molecule, donor type, donor heavy atom, donor atom, acceptor molecule, acceptor atom, score
      L1  H     5    23       P1  7948  0.92
      L1  H     8    24       P1  7948  1.00
      L1  H    11    27       P1  7921  0.98
      L1  H    18    38       P1  8028  1.00

> <Gold.Chemscore.Hbond.Weighted>
-13.2257

> <Gold.Chemscore.Metal.Weighted>
-0.0000

> <Gold.Chemscore.Lipo.Weighted>
-9.4030

> <Gold.Chemscore.Internal_Hbond.Weighted>
0.0000

> <Gold.Chemscore.DEClash.Weighted>
0.0208

> <Gold.Chemscore.DEInternal.Weighted>
1.2295

> <Gold.Chemscore.Rot.Weighted>
4.4497

> <Gold.Chemscore.Internal.Correction.Weighted>
   9.000000E+99

> <Gold.Protein.RotatedTorsions>
[ 6907 6896 6895 6894 ] final  -55.14 input  -60.11 | X-H torsion
[ 7974 7965 7964 7962 ] final  145.46 input  175.53 | X-H torsion
[ 8008 7997 7996 7995 ] final  142.79 input   59.86 | X-H torsion
[ 10167 10162 10161 10158 ] final    8.81 input  -65.29 | X-H torsion
[ 10718 10713 10712 10709 ] final   66.67 input   66.30 | X-H torsion
[ 10763 10752 10751 10750 ] final -132.98 input  -60.55 | X-H torsion
[ 11005 11000 10999 10996 ] final  -69.91 input  -57.11 | X-H torsion

> <Gold.Protein.ActiveResidues>
 VAL166  LYS551  ARG553  GLY616  TRP617  ASP618  TYR619  PRO620  LYS621  CYS622 
 ASP623  PHE694  ASN695  SER759  ASP760  ASP761  ALA762  ILE779  LEU786  VAL792 
 PHE793  MET794  SER795  GLU796  ALA797  LYS798  CYS799  TRP800  GLU811  SER814 

> <Gold.Protein.RotatedAtoms>
  150.8277  134.7516  159.6826 H   0  0  0  0  0  0  0  0  0  0  0  0  # atno 6907 bound_to 6896
  152.4386  134.5633  159.9910 H   0  0  0  0  0  0  0  0  0  0  0  0  # atno 6908 bound_to 6896
  151.5802  133.3341  159.3042 H   0  0  0  0  0  0  0  0  0  0  0  0  # atno 6909 bound_to 6896
  144.8751  139.5785  143.5869 H   0  0  0  0  0  0  0  0  0  0  0  0  # atno 7974 bound_to 7965
  156.2943  140.2279  156.4786 H   0  0  0  0  0  0  0  0  0  0  0  0  # atno 8008 bound_to 7997
  154.7873  140.0456  157.1195 H   0  0  0  0  0  0  0  0  0  0  0  0  # atno 8009 bound_to 7997
  154.9687  140.3064  155.5001 H   0  0  0  0  0  0  0  0  0  0  0  0  # atno 8010 bound_to 7997
  140.6292  143.8031  150.7273 H   0  0  0  0  0  0  0  0  0  0  0  0  # atno 10167 bound_to 10162
  157.6183  130.9280  150.0139 H   0  0  0  0  0  0  0  0  0  0  0  0  # atno 10718 bound_to 10713
  154.8737  135.3780  154.4498 H   0  0  0  0  0  0  0  0  0  0  0  0  # atno 10763 bound_to 10752
  153.5175  135.7029  153.5753 H   0  0  0  0  0  0  0  0  0  0  0  0  # atno 10764 bound_to 10752
  153.4015  135.3947  155.1957 H   0  0  0  0  0  0  0  0  0  0  0  0  # atno 10765 bound_to 10752
  141.1563  133.6776  156.6672 H   0  0  0  0  0  0  0  0  0  0  0  0  # atno 11005 bound_to 11000
  146.2957  139.7271  142.9128 LP  0  0  0  0  0  0  0  0  0  0  0  0  # atno 17320 bound_to 7965
  145.4058  141.0390  143.3045 LP  0  0  0  0  0  0  0  0  0  0  0  0  # atno 17321 bound_to 7965
  140.1639  143.4252  152.2048 LP  0  0  0  0  0  0  0  0  0  0  0  0  # atno 17342 bound_to 10162
  139.5509  144.7336  151.4439 LP  0  0  0  0  0  0  0  0  0  0  0  0  # atno 17343 bound_to 10162
  156.1316  130.3643  149.9723 LP  0  0  0  0  0  0  0  0  0  0  0  0  # atno 17370 bound_to 10713
  156.7783  130.9212  151.3645 LP  0  0  0  0  0  0  0  0  0  0  0  0  # atno 17371 bound_to 10713
  140.3203  134.8013  157.4247 LP  0  0  0  0  0  0  0  0  0  0  0  0  # atno 17394 bound_to 11000
  140.1103  134.5354  155.8272 LP  0  0  0  0  0  0  0  0  0  0  0  0  # atno 17395 bound_to 11000

$$$$
