AV-unprocessed.smi:87|AV-procd|sdf|821|dock5
  -GOLD-   2262017223D 1   1.00000     0.00000
 Structure written by MMmdl.
 58 60  0  0  0  0  0  0  0  0  1 V2000
  143.8588  135.0565  162.9763 C   0  0  0  0  0  0  0  0  0  0  0  0
  144.6069  135.4012  161.6799 C   0  0  0  0  0  0  0  0  0  0  0  0
  145.9161  134.6046  161.4673 C   0  0  0  0  0  0  0  0  0  0  0  0
  147.0139  135.0443  162.4626 C   0  0  0  0  0  0  0  0  0  0  0  0
  147.3282  136.5471  162.4254 C   0  0  0  0  0  0  0  0  0  0  0  0
  146.4113  134.7526  160.0059 C   0  0  0  0  0  0  0  0  0  0  0  0
  147.4900  133.8280  159.6463 N   0  0  0  0  0  0  0  0  0  0  0  0
  147.3738  132.4587  160.1435 C   0  0  0  0  0  0  0  0  0  0  0  0
  148.2658  132.1923  161.3650 C   0  0  0  0  0  0  0  0  0  0  0  0
  148.1666  130.8039  161.8374 C   0  0  0  0  0  0  0  0  0  0  0  0
  148.0886  129.7114  162.2098 N   0  0  0  0  0  0  0  0  0  0  0  0
  148.0130  133.9012  158.3948 C   0  0  0  0  0  0  0  0  0  0  0  0
  149.2383  134.4590  158.1998 N   0  0  0  0  0  0  0  0  0  0  0  0
  149.7402  134.5703  156.9664 C   0  0  0  0  0  0  0  0  0  0  0  0
  149.1908  134.2065  155.8062 N   0  0  0  0  0  0  0  0  0  0  0  0
  147.9630  133.6448  155.9962 C   0  0  0  0  0  0  0  0  0  0  0  0
  147.3094  133.4479  157.2447 C   0  0  0  0  0  0  0  0  0  0  0  0
  146.0787  132.8337  157.0440 N   0  0  0  0  0  0  0  0  0  0  0  0
  145.9974  132.6998  155.7486 C   0  0  0  0  0  0  0  0  0  0  0  0
  147.0780  133.1766  155.0418 N   0  0  0  0  0  0  0  0  0  0  0  0
  147.2361  133.1896  153.5994 C   0  0  0  0  0  0  0  0  0  0  0  0
  146.1149  133.9662  152.8730 C   0  0  1  0  0  0  0  0  0  0  0  0
  146.5034  135.3250  152.8433 O   0  0  0  0  0  0  0  0  0  0  0  0
  145.8229  133.4900  151.4303 C   0  0  2  0  0  0  0  0  0  0  0  0
  144.6777  134.2372  150.7401 C   0  0  0  0  0  0  0  0  0  0  0  0
  144.2233  133.2329  149.7068 C   0  0  0  0  0  0  0  0  0  0  0  0
  144.3430  131.9262  150.4808 C   0  0  0  0  0  0  0  0  0  0  0  0
  145.4036  132.1245  151.4100 O   0  0  0  0  0  0  0  0  0  0  0  0
  142.9020  135.5774  163.0159 H   0  0  0  0  0  0  0  0  0  0  0  0
  144.4199  135.3462  163.8638 H   0  0  0  0  0  0  0  0  0  0  0  0
  143.6538  133.9875  163.0402 H   0  0  0  0  0  0  0  0  0  0  0  0
  143.9219  135.2054  160.8547 H   0  0  0  0  0  0  0  0  0  0  0  0
  144.8133  136.4714  161.6466 H   0  0  0  0  0  0  0  0  0  0  0  0
  145.6996  133.5546  161.6653 H   0  0  0  0  0  0  0  0  0  0  0  0
  146.7355  134.7530  163.4761 H   0  0  0  0  0  0  0  0  0  0  0  0
  147.9425  134.5187  162.2459 H   0  0  0  0  0  0  0  0  0  0  0  0
  148.1721  136.7781  163.0754 H   0  0  0  0  0  0  0  0  0  0  0  0
  146.4863  137.1502  162.7633 H   0  0  0  0  0  0  0  0  0  0  0  0
  147.5904  136.8692  161.4173 H   0  0  0  0  0  0  0  0  0  0  0  0
  145.5710  134.5947  159.3289 H   0  0  0  0  0  0  0  0  0  0  0  0
  146.7563  135.7679  159.8137 H   0  0  0  0  0  0  0  0  0  0  0  0
  146.3376  132.2297  160.3904 H   0  0  0  0  0  0  0  0  0  0  0  0
  147.6436  131.7727  159.3403 H   0  0  0  0  0  0  0  0  0  0  0  0
  149.3114  132.3920  161.1315 H   0  0  0  0  0  0  0  0  0  0  0  0
  147.9882  132.8395  162.1970 H   0  0  0  0  0  0  0  0  0  0  0  0
  150.7183  135.0232  156.8993 H   0  0  0  0  0  0  0  0  0  0  0  0
  145.1331  132.2629  155.2698 H   0  0  0  0  0  0  0  0  0  0  0  0
  148.2094  133.6244  153.3688 H   0  0  0  0  0  0  0  0  0  0  0  0
  147.2647  132.1565  153.2498 H   0  0  0  0  0  0  0  0  0  0  0  0
  145.1962  133.9044  153.4574 H   0  0  0  0  0  0  0  0  0  0  0  0
  147.1168  135.4459  152.1347 H   0  0  0  0  0  0  0  0  0  0  0  0
  146.7213  133.5729  150.8164 H   0  0  0  0  0  0  0  0  0  0  0  0
  143.8686  134.4370  151.4442 H   0  0  0  0  0  0  0  0  0  0  0  0
  144.9908  135.1855  150.3023 H   0  0  0  0  0  0  0  0  0  0  0  0
  143.2148  133.4200  149.3373 H   0  0  0  0  0  0  0  0  0  0  0  0
  144.9073  133.2331  148.8570 H   0  0  0  0  0  0  0  0  0  0  0  0
  143.4282  131.7274  151.0401 H   0  0  0  0  0  0  0  0  0  0  0  0
  144.5359  131.0721  149.8314 H   0  0  0  0  0  0  0  0  0  0  0  0
  1  2  1  0  0  0  0
  1 29  1  0  0  0  0
  1 30  1  0  0  0  0
  1 31  1  0  0  0  0
  2  3  1  0  0  0  0
  2 32  1  0  0  0  0
  2 33  1  0  0  0  0
  3  4  1  0  0  0  0
  3  6  1  0  0  0  0
  3 34  1  0  0  0  0
  4  5  1  0  0  0  0
  4 35  1  0  0  0  0
  4 36  1  0  0  0  0
  5 37  1  0  0  0  0
  5 38  1  0  0  0  0
  5 39  1  0  0  0  0
  6  7  1  0  0  0  0
  6 40  1  0  0  0  0
  6 41  1  0  0  0  0
  7  8  1  0  0  0  0
  7 12  1  0  0  0  0
  8  9  1  0  0  0  0
  8 42  1  0  0  0  0
  8 43  1  0  0  0  0
  9 10  1  0  0  0  0
  9 44  1  0  0  0  0
  9 45  1  0  0  0  0
 10 11  3  0  0  0  0
 12 17  1  0  0  0  0
 12 13  2  0  0  0  0
 13 14  1  0  0  0  0
 14 15  2  0  0  0  0
 14 46  1  0  0  0  0
 15 16  1  0  0  0  0
 16 20  1  0  0  0  0
 16 17  2  0  0  0  0
 17 18  1  0  0  0  0
 18 19  2  0  0  0  0
 19 20  1  0  0  0  0
 19 47  1  0  0  0  0
 20 21  1  0  0  0  0
 21 22  1  0  0  0  0
 21 48  1  0  0  0  0
 21 49  1  0  0  0  0
 22 23  1  0  0  0  0
 22 24  1  0  0  0  0
 22 50  1  0  0  0  0
 23 51  1  0  0  0  0
 24 28  1  0  0  0  0
 24 25  1  0  0  0  0
 24 52  1  0  0  0  0
 25 26  1  0  0  0  0
 25 53  1  0  0  0  0
 25 54  1  0  0  0  0
 26 27  1  0  0  0  0
 26 55  1  0  0  0  0
 26 56  1  0  0  0  0
 27 28  1  0  0  0  0
 27 57  1  0  0  0  0
 27 58  1  0  0  0  0
M  END
> <s_m_source_file>
AV-unprocessed.smi

> <i_m_source_file_index>
87

> <i_lp_mmshare_version>
43012

> <i_f3d_flags>
0

> <s_epik_input>
W0NIM11bQ0gyXVtDSF0oW0NIMl1bQ0gzXSlbQ0gyXU4oW0NIMl1bQ0gyXUMjTiljKG5bY0hdbjEpYyhjMTIpbltjSF1uMltDSDJdW0NASF0oW09IXSlbQ0BASF0zW0NIMl1bQ0gyXVtDSDJdTzM=

> <s_epik_cmdline>
J2VwaWtfcHl0aG9uJywgJy1waCcsICc3LjAnLCAnLXRuJywgJzgnLCAnLW1hJywgJzIwMCcsICctbWV0YWxfYmluZGluZycsICctaW1hZScsICc8aW5maWxlLm1hZT4nLCAnLW9tYWUnLCAnPG91dGZpbGUubWFlPic=

> <r_lp_tautomer_probability>
1

> <r_epik_Ionization_Penalty>
0.000348566

> <r_epik_Ionization_Penalty_Charging>
0

> <r_epik_Ionization_Penalty_Neutral>
0.000348566

> <r_epik_State_Penalty>
-0

> <r_epik_Charging_Adjusted_Penalty>
0

> <i_epik_Tot_Q>
0

> <i_epik_Tot_abs_Q>
0

> <r_epik_Metal_State_Penalty>
-0

> <b_epik_Metal_Only>
0

> <s_lp_Force_Field>
OPLS_2005

> <r_lp_Energy>
32.9267

> <b_lp_Chiralities_Consistent>
1

> <s_lp_Variant>
AV-unprocessed.smi:87-2

> <Gold.Version>
5.8.1

> <Gold.Id.Protein>
6NUR|6NUR_protein|mol2

> <Gold.PLP.Fitness>
44.2176

> <Gold.PLP.PLP>
-37.7793

> <Gold.PLP.part.hbond>
-2.0000

> <Gold.PLP.part.metal>
0.0000

> <Gold.PLP.part.buried>
-6.5982

> <Gold.PLP.part.nonpolar>
-30.0693

> <Gold.PLP.part.repulsive>
0.1916

> <Gold.PLP.ligand.clash>
0.0000

> <Gold.PLP.ligand.torsion>
1.4440

> <Gold.PLP.Chemscore.Hbond>
1.8050

> <Gold.PLP.Chemscore.CHOScore>
0.9974

> <Gold.PLP.Chemscore.Metal>
0.0000

> <Gold.Chemscore.Hbonds>
donor molecule, donor type, donor heavy atom, donor atom, acceptor molecule, acceptor atom, score
      L1  H    23    51       P1  7948  0.78
      P1  H  6896  6909       L1    13  1.00
      L1  C    19    47       P1 10957  0.99

> <Gold.PLP.Chemscore.Internal.Correction>
0.9192

> <Gold.Rescore>
     Score         DG    S(hbond)    S(metal)    S(lipo)     H(rot)  DE(clash)    DE(int)     intcor
     11.29     -12.64       1.83        0.00      88.58       3.64       0.01       1.34       ----

> <Gold.Chemscore.Fitness>
11.2899

> <Gold.Chemscore.DG>
-12.6366

> <Gold.Chemscore.ZeroCoef>
-5.4800

> <Gold.Chemscore.Hbond>
1.8273

> <Gold.Chemscore.Metal>
0.0000

> <Gold.Chemscore.Lipo>
88.5792

> <Gold.Chemscore.Internal_Hbond>
0.0000

> <Gold.Chemscore.DEClash>
0.0092

> <Gold.Chemscore.DEInternal>
1.3375

> <Gold.Chemscore.Rot>
3.6368

> <Gold.Chemscore.Internal.Correction>
   9.000000E+99

> <Gold.Chemscore.Hbonds>
donor molecule, donor type, donor heavy atom, donor atom, acceptor molecule, acceptor atom, score
      L1  H    23    51       P1  7948  0.76
      P1  H  6896  6909       L1    13  0.74

> <Gold.Chemscore.Hbond.Weighted>
-6.1031

> <Gold.Chemscore.Metal.Weighted>
-0.0000

> <Gold.Chemscore.Lipo.Weighted>
-10.3638

> <Gold.Chemscore.Internal_Hbond.Weighted>
0.0000

> <Gold.Chemscore.DEClash.Weighted>
0.0092

> <Gold.Chemscore.DEInternal.Weighted>
1.3375

> <Gold.Chemscore.Rot.Weighted>
9.3102

> <Gold.Chemscore.Internal.Correction.Weighted>
   9.000000E+99

> <Gold.Protein.RotatedTorsions>
[ 6907 6896 6895 6894 ] final   39.80 input  -60.11 | X-H torsion
[ 7974 7965 7964 7962 ] final -138.35 input  175.53 | X-H torsion
[ 8008 7997 7996 7995 ] final -119.30 input   59.86 | X-H torsion
[ 10167 10162 10161 10158 ] final    2.56 input  -65.29 | X-H torsion
[ 10718 10713 10712 10709 ] final  176.47 input   66.30 | X-H torsion
[ 10763 10752 10751 10750 ] final -146.67 input  -60.55 | X-H torsion
[ 11005 11000 10999 10996 ] final  178.70 input  -57.11 | X-H torsion

> <Gold.Protein.ActiveResidues>
 VAL166  LYS551  ARG553  GLY616  TRP617  ASP618  TYR619  PRO620  LYS621  CYS622 
 ASP623  PHE694  ASN695  SER759  ASP760  ASP761  ALA762  ILE779  LEU786  VAL792 
 PHE793  MET794  SER795  GLU796  ALA797  LYS798  CYS799  TRP800  GLU811  SER814 

> <Gold.Protein.RotatedAtoms>
  152.1742  134.8808  160.0531 H   0  0  0  0  0  0  0  0  0  0  0  0  # atno 6907 bound_to 6896
  151.9757  133.3735  159.4096 H   0  0  0  0  0  0  0  0  0  0  0  0  # atno 6908 bound_to 6896
  150.6906  134.4015  159.5165 H   0  0  0  0  0  0  0  0  0  0  0  0  # atno 6909 bound_to 6896
  144.8766  140.6445  143.5233 H   0  0  0  0  0  0  0  0  0  0  0  0  # atno 7974 bound_to 7965
  155.1135  140.0397  157.2730 H   0  0  0  0  0  0  0  0  0  0  0  0  # atno 8008 bound_to 7997
  154.6667  140.2603  155.7024 H   0  0  0  0  0  0  0  0  0  0  0  0  # atno 8009 bound_to 7997
  156.2642  140.2806  156.1161 H   0  0  0  0  0  0  0  0  0  0  0  0  # atno 8010 bound_to 7997
  140.6629  143.7256  150.7772 H   0  0  0  0  0  0  0  0  0  0  0  0  # atno 10167 bound_to 10162
  156.9196  130.9936  151.3007 H   0  0  0  0  0  0  0  0  0  0  0  0  # atno 10718 bound_to 10713
  154.8324  135.3380  154.6698 H   0  0  0  0  0  0  0  0  0  0  0  0  # atno 10763 bound_to 10752
  153.7316  135.6951  153.4992 H   0  0  0  0  0  0  0  0  0  0  0  0  # atno 10764 bound_to 10752
  153.2308  135.4417  155.0545 H   0  0  0  0  0  0  0  0  0  0  0  0  # atno 10765 bound_to 10752
  140.3980  134.6802  157.4546 H   0  0  0  0  0  0  0  0  0  0  0  0  # atno 11005 bound_to 11000
  145.4032  139.1594  143.4166 LP  0  0  0  0  0  0  0  0  0  0  0  0  # atno 17320 bound_to 7965
  146.2966  140.4130  142.8719 LP  0  0  0  0  0  0  0  0  0  0  0  0  # atno 17321 bound_to 7965
  140.0928  143.4861  152.2469 LP  0  0  0  0  0  0  0  0  0  0  0  0  # atno 17342 bound_to 10162
  139.5868  144.7534  151.3500 LP  0  0  0  0  0  0  0  0  0  0  0  0  # atno 17343 bound_to 10162
  157.5916  130.8447  149.8667 LP  0  0  0  0  0  0  0  0  0  0  0  0  # atno 17370 bound_to 10713
  156.0497  130.3720  150.1231 LP  0  0  0  0  0  0  0  0  0  0  0  0  # atno 17371 bound_to 10713
  140.0357  134.6341  155.9047 LP  0  0  0  0  0  0  0  0  0  0  0  0  # atno 17394 bound_to 11000
  141.1867  133.6558  156.5250 LP  0  0  0  0  0  0  0  0  0  0  0  0  # atno 17395 bound_to 11000

$$$$
