AV-unprocessed.smi:2334|AV-procd|sdf|9322|dock4
  -GOLD-   2272012543D 1   1.00000     0.00000
 Structure written by MMmdl.
 50 52  0  0  0  0  0  0  0  0  2 V2000
  148.8397  140.7605  154.6534 C   0  0  0  0  0  0  0  0  0  0  0  0
  149.8238  140.8335  155.8094 C   0  0  0  0  0  0  0  0  0  0  0  0
  150.0126  142.0559  156.3550 N   0  3  0  0  0  0  0  0  0  0  0  0
  150.8487  142.2975  157.3867 C   0  0  0  0  0  0  0  0  0  0  0  0
  150.9381  143.6218  157.8380 N   0  0  0  0  0  0  0  0  0  0  0  0
  152.2911  144.0694  158.1222 C   0  0  0  0  0  0  0  0  0  0  0  0
  152.1388  145.3316  158.9759 C   0  0  0  0  0  0  0  0  0  0  0  0
  150.7188  145.2532  159.5491 C   0  0  0  0  0  0  0  0  0  0  0  0
  150.1576  143.9295  159.0249 C   0  0  0  0  0  0  0  0  0  0  0  0
  151.5772  141.2235  157.9445 C   0  0  0  0  0  0  0  0  0  0  0  0
  151.4158  139.9288  157.4131 C   0  0  0  0  0  0  0  0  0  0  0  0
  150.5372  139.7189  156.3200 C   0  0  0  0  0  0  0  0  0  0  0  0
  150.3136  138.4315  155.7562 N   0  0  0  0  0  0  0  0  0  0  0  0
  150.2694  137.2431  156.3830 C   0  0  0  0  0  0  0  0  0  0  0  0
  150.4544  137.0783  157.5884 O   0  0  0  0  0  0  0  0  0  0  0  0
  150.0141  136.2511  155.5124 N   0  0  0  0  0  0  0  0  0  0  0  0
  149.8798  134.8063  155.7541 C   0  0  0  0  0  0  0  0  0  0  0  0
  149.4791  134.1942  154.3942 C   0  0  0  0  0  0  0  0  0  0  0  0
  151.2216  134.2013  156.2416 C   0  0  0  0  0  0  0  0  0  0  0  0
  151.0641  132.7502  156.7313 C   0  0  0  0  0  0  0  0  0  0  0  0
  150.0643  132.6804  157.7403 O   0  0  0  0  0  0  0  0  0  0  0  0
  148.7757  133.0531  157.2675 C   0  0  0  0  0  0  0  0  0  0  0  0
  148.7836  134.5239  156.8136 C   0  0  0  0  0  0  0  0  0  0  0  0
  148.7271  139.7556  154.2487 H   0  0  0  0  0  0  0  0  0  0  0  0
  149.1707  141.4093  153.8419 H   0  0  0  0  0  0  0  0  0  0  0  0
  147.8561  141.1011  154.9778 H   0  0  0  0  0  0  0  0  0  0  0  0
  152.8380  143.3047  158.6755 H   0  0  0  0  0  0  0  0  0  0  0  0
  152.8377  144.2731  157.2009 H   0  0  0  0  0  0  0  0  0  0  0  0
  152.8983  145.3783  159.7571 H   0  0  0  0  0  0  0  0  0  0  0  0
  152.2423  146.2249  158.3588 H   0  0  0  0  0  0  0  0  0  0  0  0
  150.7063  145.2938  160.6388 H   0  0  0  0  0  0  0  0  0  0  0  0
  150.1238  146.0889  159.1787 H   0  0  0  0  0  0  0  0  0  0  0  0
  149.0963  144.0106  158.7875 H   0  0  0  0  0  0  0  0  0  0  0  0
  150.2749  143.1504  159.7788 H   0  0  0  0  0  0  0  0  0  0  0  0
  152.2529  141.3807  158.7723 H   0  0  0  0  0  0  0  0  0  0  0  0
  151.9619  139.1157  157.8662 H   0  0  0  0  0  0  0  0  0  0  0  0
  150.2446  138.4050  154.7494 H   0  0  0  0  0  0  0  0  0  0  0  0
  149.8904  136.5287  154.5497 H   0  0  0  0  0  0  0  0  0  0  0  0
  149.3498  133.1138  154.4431 H   0  0  0  0  0  0  0  0  0  0  0  0
  150.2351  134.3919  153.6332 H   0  0  0  0  0  0  0  0  0  0  0  0
  148.5387  134.6131  154.0341 H   0  0  0  0  0  0  0  0  0  0  0  0
  151.9726  134.2498  155.4522 H   0  0  0  0  0  0  0  0  0  0  0  0
  151.6244  134.7784  157.0732 H   0  0  0  0  0  0  0  0  0  0  0  0
  150.8192  132.0750  155.9108 H   0  0  0  0  0  0  0  0  0  0  0  0
  152.0061  132.3979  157.1517 H   0  0  0  0  0  0  0  0  0  0  0  0
  148.4625  132.3871  156.4628 H   0  0  0  0  0  0  0  0  0  0  0  0
  148.0577  132.9203  158.0770 H   0  0  0  0  0  0  0  0  0  0  0  0
  148.9418  135.1322  157.7033 H   0  0  0  0  0  0  0  0  0  0  0  0
  147.8011  134.8027  156.4312 H   0  0  0  0  0  0  0  0  0  0  0  0
  149.4916  142.8416  155.9648 H   0  0  0  0  0  0  0  0  0  0  0  0
  1  2  1  0  0  0  0
  1 24  1  0  0  0  0
  1 25  1  0  0  0  0
  1 26  1  0  0  0  0
  2 12  1  0  0  0  0
  2  3  2  0  0  0  0
  3  4  1  0  0  0  0
  3 50  1  0  0  0  0
  4  5  1  0  0  0  0
  4 10  2  0  0  0  0
  5  9  1  0  0  0  0
  5  6  1  0  0  0  0
  6  7  1  0  0  0  0
  6 27  1  0  0  0  0
  6 28  1  0  0  0  0
  7  8  1  0  0  0  0
  7 29  1  0  0  0  0
  7 30  1  0  0  0  0
  8  9  1  0  0  0  0
  8 31  1  0  0  0  0
  8 32  1  0  0  0  0
  9 33  1  0  0  0  0
  9 34  1  0  0  0  0
 10 11  1  0  0  0  0
 10 35  1  0  0  0  0
 11 12  2  0  0  0  0
 11 36  1  0  0  0  0
 12 13  1  0  0  0  0
 13 14  1  0  0  0  0
 13 37  1  0  0  0  0
 14 15  2  0  0  0  0
 14 16  1  0  0  0  0
 16 17  1  0  0  0  0
 16 38  1  0  0  0  0
 17 23  1  0  0  0  0
 17 18  1  0  0  0  0
 17 19  1  0  0  0  0
 18 39  1  0  0  0  0
 18 40  1  0  0  0  0
 18 41  1  0  0  0  0
 19 20  1  0  0  0  0
 19 42  1  0  0  0  0
 19 43  1  0  0  0  0
 20 21  1  0  0  0  0
 20 44  1  0  0  0  0
 20 45  1  0  0  0  0
 21 22  1  0  0  0  0
 22 23  1  0  0  0  0
 22 46  1  0  0  0  0
 22 47  1  0  0  0  0
 23 48  1  0  0  0  0
 23 49  1  0  0  0  0
M  CHG  1   3   1
M  END
> <s_m_source_file>
AV-unprocessed.smi

> <i_m_source_file_index>
2334

> <i_lp_mmshare_version>
43012

> <i_f3d_flags>
0

> <s_epik_input>
W0NIMl0xW0NIMl1bQ0gyXVtDSDJdTjFjKG5jMltDSDNdKVtjSF1bY0hdYzJbTkhdQyg9TylbTkhdQzMoW0NIM10pW0NIMl1bQ0gyXU9bQ0gyXVtDSDJdMw==

> <s_epik_cmdline>
J2VwaWtfcHl0aG9uJywgJy1waCcsICc3LjAnLCAnLXRuJywgJzgnLCAnLW1hJywgJzIwMCcsICctbWV0YWxfYmluZGluZycsICctaW1hZScsICc8aW5maWxlLm1hZT4nLCAnLW9tYWUnLCAnPG91dGZpbGUubWFlPic=

> <r_lp_tautomer_probability>
0.999994

> <r_epik_Ionization_Penalty>
0.526488

> <r_epik_Ionization_Penalty_Charging>
0.526468

> <r_epik_Ionization_Penalty_Neutral>
1.9901e-05

> <r_epik_State_Penalty>
0.534906

> <r_epik_Charging_Adjusted_Penalty>
1.06137

> <i_epik_Tot_Q>
1

> <i_epik_Tot_abs_Q>
1

> <r_epik_Metal_State_Penalty>
0.740533

> <b_epik_Metal_Only>
0

> <s_lp_Force_Field>
OPLS_2005

> <r_lp_Energy>
48.5671

> <b_lp_Chiralities_Consistent>
1

> <s_lp_Variant>
AV-unprocessed.smi:2334-2

> <Gold.Version>
5.8.1

> <Gold.Id.Protein>
6NUR|6NUR_protein|mol2

> <Gold.PLP.Fitness>
44.1610

> <Gold.PLP.PLP>
-36.7705

> <Gold.PLP.part.hbond>
-2.0000

> <Gold.PLP.part.metal>
0.0000

> <Gold.PLP.part.buried>
-6.4821

> <Gold.PLP.part.nonpolar>
-29.0143

> <Gold.PLP.part.repulsive>
0.3001

> <Gold.PLP.ligand.clash>
0.0000

> <Gold.PLP.ligand.torsion>
0.8118

> <Gold.PLP.Chemscore.Hbond>
3.0000

> <Gold.PLP.Chemscore.CHOScore>
0.0000

> <Gold.PLP.Chemscore.Metal>
0.0000

> <Gold.Chemscore.Hbonds>
donor molecule, donor type, donor heavy atom, donor atom, acceptor molecule, acceptor atom, score
      L1  H     3    50       P1  8028  2.00
      P1  H  6896  6909       L1    21  0.80

> <Gold.PLP.Chemscore.Internal.Correction>
0.0142

> <Gold.Rescore>
     Score         DG    S(hbond)    S(metal)    S(lipo)     H(rot)  DE(clash)    DE(int)     intcor
     18.45     -20.24       1.81        0.00     100.41       1.18       0.10       1.69       ----

> <Gold.Chemscore.Fitness>
18.4494

> <Gold.Chemscore.DG>
-20.2405

> <Gold.Chemscore.ZeroCoef>
-5.4800

> <Gold.Chemscore.Hbond>
1.8056

> <Gold.Chemscore.Metal>
0.0000

> <Gold.Chemscore.Lipo>
100.4065

> <Gold.Chemscore.Internal_Hbond>
0.0000

> <Gold.Chemscore.DEClash>
0.1023

> <Gold.Chemscore.DEInternal>
1.6888

> <Gold.Chemscore.Rot>
1.1788

> <Gold.Chemscore.Internal.Correction>
   9.000000E+99

> <Gold.Chemscore.Hbonds>
donor molecule, donor type, donor heavy atom, donor atom, acceptor molecule, acceptor atom, score
      L1  H     3    50       P1  8028  0.96
      P1  H  6896  6909       L1    21  0.11

> <Gold.Chemscore.Hbond.Weighted>
-6.0307

> <Gold.Chemscore.Metal.Weighted>
-0.0000

> <Gold.Chemscore.Lipo.Weighted>
-11.7476

> <Gold.Chemscore.Internal_Hbond.Weighted>
0.0000

> <Gold.Chemscore.DEClash.Weighted>
0.1023

> <Gold.Chemscore.DEInternal.Weighted>
1.6888

> <Gold.Chemscore.Rot.Weighted>
3.0178

> <Gold.Chemscore.Internal.Correction.Weighted>
   9.000000E+99

> <Gold.Protein.RotatedTorsions>
[ 6907 6896 6895 6894 ] final  -32.00 input  -60.11 | X-H torsion
[ 7974 7965 7964 7962 ] final    8.66 input  175.53 | X-H torsion
[ 8008 7997 7996 7995 ] final   76.63 input   59.86 | X-H torsion
[ 10167 10162 10161 10158 ] final  -41.16 input  -65.29 | X-H torsion
[ 10718 10713 10712 10709 ] final  -29.52 input   66.30 | X-H torsion
[ 10763 10752 10751 10750 ] final -115.76 input  -60.55 | X-H torsion
[ 11005 11000 10999 10996 ] final    6.64 input  -57.11 | X-H torsion

> <Gold.Protein.ActiveResidues>
 VAL166  LYS551  ARG553  GLY616  TRP617  ASP618  TYR619  PRO620  LYS621  CYS622 
 ASP623  PHE694  ASN695  SER759  ASP760  ASP761  ALA762  ILE779  LEU786  VAL792 
 PHE793  MET794  SER795  GLU796  ALA797  LYS798  CYS799  TRP800  GLU811  SER814 

> <Gold.Protein.RotatedAtoms>
  151.0845  134.9879  159.8372 H   0  0  0  0  0  0  0  0  0  0  0  0  # atno 6907 bound_to 6896
  152.5423  134.2140  159.8771 H   0  0  0  0  0  0  0  0  0  0  0  0  # atno 6908 bound_to 6896
  151.2173  133.4478  159.2633 H   0  0  0  0  0  0  0  0  0  0  0  0  # atno 6909 bound_to 6896
  146.2413  139.9900  142.8427 H   0  0  0  0  0  0  0  0  0  0  0  0  # atno 7974 bound_to 7965
  155.8300  140.3466  155.5566 H   0  0  0  0  0  0  0  0  0  0  0  0  # atno 8008 bound_to 7997
  155.8252  140.0919  157.1845 H   0  0  0  0  0  0  0  0  0  0  0  0  # atno 8009 bound_to 7997
  154.4004  140.1422  156.3535 H   0  0  0  0  0  0  0  0  0  0  0  0  # atno 8010 bound_to 7997
  140.7011  143.3111  151.3026 H   0  0  0  0  0  0  0  0  0  0  0  0  # atno 10167 bound_to 10162
  156.4114  130.4409  149.7249 H   0  0  0  0  0  0  0  0  0  0  0  0  # atno 10718 bound_to 10713
  154.8493  135.4370  154.1714 H   0  0  0  0  0  0  0  0  0  0  0  0  # atno 10763 bound_to 10752
  153.2826  135.6955  153.7376 H   0  0  0  0  0  0  0  0  0  0  0  0  # atno 10764 bound_to 10752
  153.6574  135.3441  155.3092 H   0  0  0  0  0  0  0  0  0  0  0  0  # atno 10765 bound_to 10752
  140.5572  134.0227  155.7958 H   0  0  0  0  0  0  0  0  0  0  0  0  # atno 11005 bound_to 11000
  145.1512  140.9624  143.4431 LP  0  0  0  0  0  0  0  0  0  0  0  0  # atno 17320 bound_to 7965
  145.0203  139.3430  143.6075 LP  0  0  0  0  0  0  0  0  0  0  0  0  # atno 17321 bound_to 7965
  139.6534  144.0321  152.2642 LP  0  0  0  0  0  0  0  0  0  0  0  0  # atno 17342 bound_to 10162
  139.9864  144.6392  150.7853 LP  0  0  0  0  0  0  0  0  0  0  0  0  # atno 17343 bound_to 10162
  156.4226  130.7776  151.2794 LP  0  0  0  0  0  0  0  0  0  0  0  0  # atno 17370 bound_to 10713
  157.7507  131.0178  150.3600 LP  0  0  0  0  0  0  0  0  0  0  0  0  # atno 17371 bound_to 10713
  141.1136  133.9576  157.2864 LP  0  0  0  0  0  0  0  0  0  0  0  0  # atno 17394 bound_to 11000
  139.9425  135.0189  156.8753 LP  0  0  0  0  0  0  0  0  0  0  0  0  # atno 17395 bound_to 11000

$$$$
