AV-unprocessed.smi:322|AV-procd|sdf|2335|dock2
  -GOLD-   2262022243D 1   1.00000     0.00000
 Structure written by MMmdl.
 43 45  0  0  0  0  0  0  0  0  1 V2000
  154.9713  138.9854  158.2149 O   0  0  0  0  0  0  0  0  0  0  0  0
  153.6335  139.0413  158.6677 C   0  0  0  0  0  0  0  0  0  0  0  0
  153.0621  140.4305  158.7136 C   0  0  0  0  0  0  0  0  0  0  0  0
  153.5429  141.3893  159.5086 N   0  0  0  0  0  0  0  0  0  0  0  0
  152.7181  142.4611  159.2307 C   0  0  0  0  0  0  0  0  0  0  0  0
  152.7119  143.7742  159.7527 C   0  0  0  0  0  0  0  0  0  0  0  0
  151.7564  144.7130  159.3116 C   0  0  0  0  0  0  0  0  0  0  0  0
  150.7964  144.3532  158.3437 C   0  0  0  0  0  0  0  0  0  0  0  0
  150.7853  143.0499  157.8106 C   0  0  0  0  0  0  0  0  0  0  0  0
  151.7404  142.1159  158.2553 C   0  0  0  0  0  0  0  0  0  0  0  0
  152.0007  140.7841  157.9453 N   0  0  0  0  0  0  0  0  0  0  0  0
  151.2665  139.9570  156.9963 C   0  0  0  0  0  0  0  0  0  0  0  0
  152.0742  139.6492  155.7189 C   0  0  2  0  0  0  0  0  0  0  0  0
  151.2457  139.8464  154.5899 O   0  0  0  0  0  0  0  0  0  0  0  0
  152.5819  138.1988  155.7013 C   0  0  0  0  0  0  0  0  0  0  0  0
  151.4921  137.3244  155.9575 O   0  0  0  0  0  0  0  0  0  0  0  0
  151.8601  136.1278  156.6295 C   0  0  0  0  0  0  0  0  0  0  0  0
  151.4007  134.8683  155.9142 C   0  0  0  0  0  0  0  0  0  0  0  0
  150.6022  134.9617  154.7546 C   0  0  0  0  0  0  0  0  0  0  0  0
  150.1889  133.7946  154.0833 C   0  0  0  0  0  0  0  0  0  0  0  0
  150.5777  132.5292  154.5650 C   0  0  0  0  0  0  0  0  0  0  0  0
  150.0739  131.0993  153.7414 Cl  0  0  0  0  0  0  0  0  0  0  0  0
  151.3811  132.4324  155.7181 C   0  0  0  0  0  0  0  0  0  0  0  0
  151.7939  133.5997  156.3897 C   0  0  0  0  0  0  0  0  0  0  0  0
  155.4903  138.5375  158.8648 H   0  0  0  0  0  0  0  0  0  0  0  0
  153.0272  138.4200  158.0093 H   0  0  0  0  0  0  0  0  0  0  0  0
  153.5851  138.6055  159.6659 H   0  0  0  0  0  0  0  0  0  0  0  0
  153.4432  144.0590  160.4945 H   0  0  0  0  0  0  0  0  0  0  0  0
  151.7599  145.7139  159.7177 H   0  0  0  0  0  0  0  0  0  0  0  0
  150.0684  145.0785  158.0106 H   0  0  0  0  0  0  0  0  0  0  0  0
  150.0527  142.7726  157.0671 H   0  0  0  0  0  0  0  0  0  0  0  0
  150.9760  139.0313  157.4935 H   0  0  0  0  0  0  0  0  0  0  0  0
  150.3348  140.4634  156.7410 H   0  0  0  0  0  0  0  0  0  0  0  0
  152.9224  140.3312  155.6551 H   0  0  0  0  0  0  0  0  0  0  0  0
  150.3676  140.0252  154.8901 H   0  0  0  0  0  0  0  0  0  0  0  0
  152.9796  137.9619  154.7133 H   0  0  0  0  0  0  0  0  0  0  0  0
  153.3949  138.0612  156.4161 H   0  0  0  0  0  0  0  0  0  0  0  0
  152.9483  136.0984  156.6880 H   0  0  0  0  0  0  0  0  0  0  0  0
  151.4957  136.1442  157.6580 H   0  0  0  0  0  0  0  0  0  0  0  0
  150.3031  135.9294  154.3789 H   0  0  0  0  0  0  0  0  0  0  0  0
  149.5751  133.8716  153.1979 H   0  0  0  0  0  0  0  0  0  0  0  0
  151.6831  131.4636  156.0877 H   0  0  0  0  0  0  0  0  0  0  0  0
  152.4127  133.5166  157.2712 H   0  0  0  0  0  0  0  0  0  0  0  0
  1  2  1  0  0  0  0
  1 25  1  0  0  0  0
  2  3  1  0  0  0  0
  2 26  1  0  0  0  0
  2 27  1  0  0  0  0
  3 11  1  0  0  0  0
  3  4  2  0  0  0  0
  4  5  1  0  0  0  0
  5 10  2  0  0  0  0
  5  6  1  0  0  0  0
  6  7  2  0  0  0  0
  6 28  1  0  0  0  0
  7  8  1  0  0  0  0
  7 29  1  0  0  0  0
  8  9  2  0  0  0  0
  8 30  1  0  0  0  0
  9 10  1  0  0  0  0
  9 31  1  0  0  0  0
 10 11  1  0  0  0  0
 11 12  1  0  0  0  0
 12 13  1  0  0  0  0
 12 32  1  0  0  0  0
 12 33  1  0  0  0  0
 13 14  1  0  0  0  0
 13 15  1  0  0  0  0
 13 34  1  0  0  0  0
 14 35  1  0  0  0  0
 15 16  1  0  0  0  0
 15 36  1  0  0  0  0
 15 37  1  0  0  0  0
 16 17  1  0  0  0  0
 17 18  1  0  0  0  0
 17 38  1  0  0  0  0
 17 39  1  0  0  0  0
 18 24  1  0  0  0  0
 18 19  2  0  0  0  0
 19 20  1  0  0  0  0
 19 40  1  0  0  0  0
 20 21  2  0  0  0  0
 20 41  1  0  0  0  0
 21 22  1  0  0  0  0
 21 23  1  0  0  0  0
 23 24  2  0  0  0  0
 23 42  1  0  0  0  0
 24 43  1  0  0  0  0
M  END
> <s_m_source_file>
AV-unprocessed.smi

> <i_m_source_file_index>
322

> <i_lp_mmshare_version>
43012

> <i_f3d_flags>
0

> <s_epik_input>
W2NIXTFbY0hdW2NIXVtjSF1jKGMxMiluKGMobjIpW0NIMl1bT0hdKVtDSDJdW0NASF0oW09IXSlbQ0gyXU9bQ0gyXWMzW2NIXVtjSF1jKENsKVtjSF1bY0hdMw==

> <s_epik_cmdline>
J2VwaWtfcHl0aG9uJywgJy1waCcsICc3LjAnLCAnLXRuJywgJzgnLCAnLW1hJywgJzIwMCcsICctbWV0YWxfYmluZGluZycsICctaW1hZScsICc8aW5maWxlLm1hZT4nLCAnLW9tYWUnLCAnPG91dGZpbGUubWFlPic=

> <r_epik_Ionization_Penalty>
0.0649918

> <r_epik_Ionization_Penalty_Charging>
0

> <r_epik_Ionization_Penalty_Neutral>
0.0649918

> <r_epik_State_Penalty>
0.0565791

> <r_epik_Charging_Adjusted_Penalty>
0.0565791

> <i_epik_Tot_Q>
0

> <i_epik_Tot_abs_Q>
0

> <r_epik_Metal_State_Penalty>
5.93658e-05

> <b_epik_Metal_Only>
0

> <s_lp_Force_Field>
OPLS_2005

> <r_lp_Energy>
16.0387

> <b_lp_Chiralities_Consistent>
1

> <s_lp_Variant>
AV-unprocessed.smi:322-1

> <Gold.Version>
5.8.1

> <Gold.Id.Protein>
6NUR|6NUR_protein|mol2

> <Gold.PLP.Fitness>
52.6095

> <Gold.PLP.PLP>
-49.1527

> <Gold.PLP.part.hbond>
-2.0000

> <Gold.PLP.part.metal>
0.0000

> <Gold.PLP.part.buried>
-5.9728

> <Gold.PLP.part.nonpolar>
-41.7333

> <Gold.PLP.part.repulsive>
0.0211

> <Gold.PLP.ligand.clash>
0.0000

> <Gold.PLP.ligand.torsion>
1.3984

> <Gold.PLP.Chemscore.Hbond>
2.0000

> <Gold.PLP.Chemscore.CHOScore>
0.0000

> <Gold.PLP.Chemscore.Metal>
0.0000

> <Gold.Chemscore.Hbonds>
donor molecule, donor type, donor heavy atom, donor atom, acceptor molecule, acceptor atom, score
      P1  H  7989  7998       L1    14  1.00
      P1  H  7997  8010       L1     1  0.55

> <Gold.PLP.Chemscore.Internal.Correction>
0.2536

> <Gold.Rescore>
     Score         DG    S(hbond)    S(metal)    S(lipo)     H(rot)  DE(clash)    DE(int)     intcor
     16.81     -18.12       1.87        0.00     123.16       3.13       0.00       1.31       ----

> <Gold.Chemscore.Fitness>
16.8119

> <Gold.Chemscore.DG>
-18.1213

> <Gold.Chemscore.ZeroCoef>
-5.4800

> <Gold.Chemscore.Hbond>
1.8723

> <Gold.Chemscore.Metal>
0.0000

> <Gold.Chemscore.Lipo>
123.1639

> <Gold.Chemscore.Internal_Hbond>
0.0000

> <Gold.Chemscore.DEClash>
0.0021

> <Gold.Chemscore.DEInternal>
1.3073

> <Gold.Chemscore.Rot>
3.1337

> <Gold.Chemscore.Internal.Correction>
   9.000000E+99

> <Gold.Chemscore.Hbonds>
donor molecule, donor type, donor heavy atom, donor atom, acceptor molecule, acceptor atom, score
      P1  H  7989  7998       L1    14  0.69
      P1  H  7997  8010       L1     1  0.31

> <Gold.Chemscore.Hbond.Weighted>
-6.2535

> <Gold.Chemscore.Metal.Weighted>
-0.0000

> <Gold.Chemscore.Lipo.Weighted>
-14.4102

> <Gold.Chemscore.Internal_Hbond.Weighted>
0.0000

> <Gold.Chemscore.DEClash.Weighted>
0.0021

> <Gold.Chemscore.DEInternal.Weighted>
1.3073

> <Gold.Chemscore.Rot.Weighted>
8.0224

> <Gold.Chemscore.Internal.Correction.Weighted>
   9.000000E+99

> <Gold.Protein.RotatedTorsions>
[ 6907 6896 6895 6894 ] final   24.29 input  -60.11 | X-H torsion
[ 7974 7965 7964 7962 ] final   22.35 input  175.53 | X-H torsion
[ 8008 7997 7996 7995 ] final    1.78 input   59.86 | X-H torsion
[ 10167 10162 10161 10158 ] final  -57.61 input  -65.29 | X-H torsion
[ 10718 10713 10712 10709 ] final  156.62 input   66.30 | X-H torsion
[ 10763 10752 10751 10750 ] final -114.84 input  -60.55 | X-H torsion
[ 11005 11000 10999 10996 ] final  -15.98 input  -57.11 | X-H torsion

> <Gold.Protein.ActiveResidues>
 VAL166  LYS551  ARG553  GLY616  TRP617  ASP618  TYR619  PRO620  LYS621  CYS622 
 ASP623  PHE694  ASN695  SER759  ASP760  ASP761  ALA762  ILE779  LEU786  VAL792 
 PHE793  MET794  SER795  GLU796  ALA797  LYS798  CYS799  TRP800  GLU811  SER814 

> <Gold.Protein.RotatedAtoms>
  151.9553  135.0149  160.0544 H   0  0  0  0  0  0  0  0  0  0  0  0  # atno 6907 bound_to 6896
  152.1917  133.4773  159.5019 H   0  0  0  0  0  0  0  0  0  0  0  0  # atno 6908 bound_to 6896
  150.6936  134.1621  159.4223 H   0  0  0  0  0  0  0  0  0  0  0  0  # atno 6909 bound_to 6896
  146.2033  139.7898  142.8745 H   0  0  0  0  0  0  0  0  0  0  0  0  # atno 7974 bound_to 7965
  154.6838  140.2638  155.6881 H   0  0  0  0  0  0  0  0  0  0  0  0  # atno 8008 bound_to 7997
  156.2707  140.2805  156.1315 H   0  0  0  0  0  0  0  0  0  0  0  0  # atno 8009 bound_to 7997
  155.0993  140.0374  157.2682 H   0  0  0  0  0  0  0  0  0  0  0  0  # atno 8010 bound_to 7997
  140.6247  143.2433  151.5392 H   0  0  0  0  0  0  0  0  0  0  0  0  # atno 10167 bound_to 10162
  157.2025  131.0679  151.2017 H   0  0  0  0  0  0  0  0  0  0  0  0  # atno 10718 bound_to 10713
  154.8456  135.4403  154.1568 H   0  0  0  0  0  0  0  0  0  0  0  0  # atno 10763 bound_to 10752
  153.2715  135.6945  153.7482 H   0  0  0  0  0  0  0  0  0  0  0  0  # atno 10764 bound_to 10752
  153.6721  135.3417  155.3131 H   0  0  0  0  0  0  0  0  0  0  0  0  # atno 10765 bound_to 10752
  140.8021  133.8206  155.9480 H   0  0  0  0  0  0  0  0  0  0  0  0  # atno 11005 bound_to 11000
  145.3409  141.0287  143.3393 LP  0  0  0  0  0  0  0  0  0  0  0  0  # atno 17320 bound_to 7965
  144.8732  139.5008  143.6758 LP  0  0  0  0  0  0  0  0  0  0  0  0  # atno 17321 bound_to 7965
  139.5469  144.2496  152.1460 LP  0  0  0  0  0  0  0  0  0  0  0  0  # atno 17342 bound_to 10162
  140.1725  144.4922  150.6572 LP  0  0  0  0  0  0  0  0  0  0  0  0  # atno 17343 bound_to 10162
  157.3753  130.7202  149.6593 LP  0  0  0  0  0  0  0  0  0  0  0  0  # atno 17370 bound_to 10713
  155.9699  130.4187  150.4342 LP  0  0  0  0  0  0  0  0  0  0  0  0  # atno 17371 bound_to 10713
  140.9284  134.2053  157.4880 LP  0  0  0  0  0  0  0  0  0  0  0  0  # atno 17394 bound_to 11000
  139.8721  134.9822  156.5148 LP  0  0  0  0  0  0  0  0  0  0  0  0  # atno 17395 bound_to 11000

$$$$
