AV-unprocessed.smi:3031|AV-procd|sdf|11543|dock1
  -GOLD-   2272016493D 1   1.00000     0.00000
 Structure written by MMmdl.
 47 48  0  0  0  0  0  0  0  0  2 V2000
  139.2064  136.8024  153.6759 C   0  0  0  0  0  0  0  0  0  0  0  0
  140.6973  136.9560  153.5871 C   0  0  0  0  0  0  0  0  0  0  0  0
  141.4345  138.0328  153.0175 C   0  0  0  0  0  0  0  0  0  0  0  0
  142.7437  137.8583  153.0975 N   0  0  0  0  0  0  0  0  0  0  0  0
  142.8880  136.6702  153.7228 N   0  0  0  0  0  0  0  0  0  0  0  0
  144.2163  136.1423  153.9794 C   0  0  0  0  0  0  0  0  0  0  0  0
  145.1742  136.3716  152.7936 C   0  0  2  0  0  0  0  0  0  0  0  0
  145.4045  135.0657  152.0156 C   0  0  0  0  0  0  0  0  0  0  0  0
  146.4567  136.9323  153.2763 N   0  3  0  0  0  0  0  0  0  0  0  0
  146.5320  138.4074  153.3186 C   0  0  0  0  0  0  0  0  0  0  0  0
  147.9482  138.8714  153.6983 C   0  0  1  0  0  0  0  0  0  0  0  0
  148.1352  140.2131  153.2940 O   0  0  0  0  0  0  0  0  0  0  0  0
  148.3440  138.7289  155.1866 C   0  0  0  0  0  0  0  0  0  0  0  0
  149.7679  138.8660  155.5143 N   0  0  0  0  0  0  0  0  0  0  0  0
  150.1174  140.2677  155.7318 C   0  0  0  0  0  0  0  0  0  0  0  0
  151.6032  140.4457  156.0897 C   0  0  0  0  0  0  0  0  0  0  0  0
  152.4102  139.8905  155.0574 O   0  0  0  0  0  0  0  0  0  0  0  0
  152.1349  138.5128  154.8291 C   0  0  0  0  0  0  0  0  0  0  0  0
  150.6484  138.3360  154.4720 C   0  0  0  0  0  0  0  0  0  0  0  0
  141.6692  136.1041  154.0296 C   0  0  0  0  0  0  0  0  0  0  0  0
  138.6856  137.7101  153.3700 H   0  0  0  0  0  0  0  0  0  0  0  0
  138.8850  136.5756  154.6927 H   0  0  0  0  0  0  0  0  0  0  0  0
  138.8469  135.9957  153.0369 H   0  0  0  0  0  0  0  0  0  0  0  0
  141.0582  138.9303  152.5487 H   0  0  0  0  0  0  0  0  0  0  0  0
  144.6097  136.5926  154.8923 H   0  0  0  0  0  0  0  0  0  0  0  0
  144.1162  135.0748  154.1796 H   0  0  0  0  0  0  0  0  0  0  0  0
  144.7081  137.0951  152.1227 H   0  0  0  0  0  0  0  0  0  0  0  0
  144.4588  134.6409  151.6775 H   0  0  0  0  0  0  0  0  0  0  0  0
  145.9002  134.3171  152.6348 H   0  0  0  0  0  0  0  0  0  0  0  0
  146.0182  135.2251  151.1292 H   0  0  0  0  0  0  0  0  0  0  0  0
  146.5948  136.5985  154.2202 H   0  0  0  0  0  0  0  0  0  0  0  0
  146.2445  138.8107  152.3485 H   0  0  0  0  0  0  0  0  0  0  0  0
  145.8163  138.7703  154.0574 H   0  0  0  0  0  0  0  0  0  0  0  0
  148.6601  138.2688  153.1322 H   0  0  0  0  0  0  0  0  0  0  0  0
  148.6146  140.2187  152.4792 H   0  0  0  0  0  0  0  0  0  0  0  0
  147.7575  139.4193  155.7944 H   0  0  0  0  0  0  0  0  0  0  0  0
  148.0103  137.7353  155.4904 H   0  0  0  0  0  0  0  0  0  0  0  0
  149.8886  140.8505  154.8381 H   0  0  0  0  0  0  0  0  0  0  0  0
  149.5083  140.6807  156.5367 H   0  0  0  0  0  0  0  0  0  0  0  0
  151.8434  141.5033  156.2011 H   0  0  0  0  0  0  0  0  0  0  0  0
  151.8325  139.9620  157.0409 H   0  0  0  0  0  0  0  0  0  0  0  0
  152.7658  138.1539  154.0159 H   0  0  0  0  0  0  0  0  0  0  0  0
  152.3915  137.9305  155.7155 H   0  0  0  0  0  0  0  0  0  0  0  0
  150.4619  137.2802  154.2997 H   0  0  0  0  0  0  0  0  0  0  0  0
  150.4474  138.8421  153.5263 H   0  0  0  0  0  0  0  0  0  0  0  0
  141.5947  135.1501  154.5309 H   0  0  0  0  0  0  0  0  0  0  0  0
  147.2096  136.5787  152.7030 H   0  0  0  0  0  0  0  0  0  0  0  0
  1  2  1  0  0  0  0
  1 21  1  0  0  0  0
  1 22  1  0  0  0  0
  1 23  1  0  0  0  0
  2 20  2  0  0  0  0
  2  3  1  0  0  0  0
  3  4  2  0  0  0  0
  3 24  1  0  0  0  0
  4  5  1  0  0  0  0
  5  6  1  0  0  0  0
  5 20  1  0  0  0  0
  6  7  1  0  0  0  0
  6 25  1  0  0  0  0
  6 26  1  0  0  0  0
  7  8  1  0  0  0  0
  7  9  1  0  0  0  0
  7 27  1  0  0  0  0
  8 28  1  0  0  0  0
  8 29  1  0  0  0  0
  8 30  1  0  0  0  0
  9 10  1  0  0  0  0
  9 31  1  0  0  0  0
  9 47  1  0  0  0  0
 10 11  1  0  0  0  0
 10 32  1  0  0  0  0
 10 33  1  0  0  0  0
 11 12  1  0  0  0  0
 11 13  1  0  0  0  0
 11 34  1  0  0  0  0
 12 35  1  0  0  0  0
 13 14  1  0  0  0  0
 13 36  1  0  0  0  0
 13 37  1  0  0  0  0
 14 19  1  0  0  0  0
 14 15  1  0  0  0  0
 15 16  1  0  0  0  0
 15 38  1  0  0  0  0
 15 39  1  0  0  0  0
 16 17  1  0  0  0  0
 16 40  1  0  0  0  0
 16 41  1  0  0  0  0
 17 18  1  0  0  0  0
 18 19  1  0  0  0  0
 18 42  1  0  0  0  0
 18 43  1  0  0  0  0
 19 44  1  0  0  0  0
 19 45  1  0  0  0  0
 20 46  1  0  0  0  0
M  CHG  1   9   1
M  END
> <s_m_source_file>
AV-unprocessed.smi

> <i_m_source_file_index>
3031

> <i_lp_mmshare_version>
43012

> <i_f3d_flags>
0

> <s_epik_input>
W0NIM11jMVtjSF1ubihbY0hdMSlbQ0gyXVtDQEhdKFtDSDNdKVtOSF1bQ0gyXVtDQEhdKFtPSF0pW0NIMl1OMltDSDJdW0NIMl1PW0NIMl1bQ0gyXTI=

> <s_epik_cmdline>
J2VwaWtfcHl0aG9uJywgJy1waCcsICc3LjAnLCAnLXRuJywgJzgnLCAnLW1hJywgJzIwMCcsICctbWV0YWxfYmluZGluZycsICctaW1hZScsICc8aW5maWxlLm1hZT4nLCAnLW9tYWUnLCAnPG91dGZpbGUubWFlPic=

> <r_lp_tautomer_probability>
1

> <r_epik_Ionization_Penalty>
0.108564

> <r_epik_Ionization_Penalty_Charging>
0.01811

> <r_epik_Ionization_Penalty_Neutral>
0.0904541

> <r_epik_State_Penalty>
0.141043

> <r_epik_Charging_Adjusted_Penalty>
0.159153

> <i_epik_Tot_Q>
1

> <i_epik_Tot_abs_Q>
1

> <r_epik_Metal_State_Penalty>
0.141052

> <b_epik_Metal_Only>
0

> <s_lp_Force_Field>
OPLS_2005

> <r_lp_Energy>
34.8443

> <b_lp_Chiralities_Consistent>
1

> <s_lp_Variant>
AV-unprocessed.smi:3031-3

> <Gold.Version>
5.8.1

> <Gold.Id.Protein>
6NUR|6NUR_protein|mol2

> <Gold.PLP.Fitness>
46.7344

> <Gold.PLP.PLP>
-32.2454

> <Gold.PLP.part.hbond>
-3.3370

> <Gold.PLP.part.metal>
0.0000

> <Gold.PLP.part.buried>
-7.8432

> <Gold.PLP.part.nonpolar>
-23.9194

> <Gold.PLP.part.repulsive>
2.0284

> <Gold.PLP.ligand.clash>
0.0000

> <Gold.PLP.ligand.torsion>
1.8743

> <Gold.PLP.Chemscore.Hbond>
4.1113

> <Gold.PLP.Chemscore.CHOScore>
1.7573

> <Gold.PLP.Chemscore.Metal>
0.0000

> <Gold.Chemscore.Hbonds>
donor molecule, donor type, donor heavy atom, donor atom, acceptor molecule, acceptor atom, score
      L1  H     9    47       P1  7948  2.00
      L1  H    12    35       P1  7957  1.00
      P1  H  7989  7998       L1    17  0.66
      P1  H  7997  8010       L1    17  0.49
      L1  C     3    24       P1 10160  1.00
      L1  C    20    46       P1 11000  0.67

> <Gold.PLP.Chemscore.Internal.Correction>
0.6321

> <Gold.Rescore>
     Score         DG    S(hbond)    S(metal)    S(lipo)     H(rot)  DE(clash)    DE(int)     intcor
     13.43     -15.40       2.26        0.00      77.65       2.63       0.06       1.91       ----

> <Gold.Chemscore.Fitness>
13.4341

> <Gold.Chemscore.DG>
-15.4047

> <Gold.Chemscore.ZeroCoef>
-5.4800

> <Gold.Chemscore.Hbond>
2.2649

> <Gold.Chemscore.Metal>
0.0000

> <Gold.Chemscore.Lipo>
77.6493

> <Gold.Chemscore.Internal_Hbond>
0.0000

> <Gold.Chemscore.DEClash>
0.0575

> <Gold.Chemscore.DEInternal>
1.9131

> <Gold.Chemscore.Rot>
2.6270

> <Gold.Chemscore.Internal.Correction>
   9.000000E+99

> <Gold.Chemscore.Hbonds>
donor molecule, donor type, donor heavy atom, donor atom, acceptor molecule, acceptor atom, score
      L1  H     9    47       P1  7948  0.99
      L1  H    12    35       P1  7957  1.00
      P1  H  7989  7998       L1    17  0.09
      P1  H  7997  8010       L1    17  0.14

> <Gold.Chemscore.Hbond.Weighted>
-7.5648

> <Gold.Chemscore.Metal.Weighted>
-0.0000

> <Gold.Chemscore.Lipo.Weighted>
-9.0850

> <Gold.Chemscore.Internal_Hbond.Weighted>
0.0000

> <Gold.Chemscore.DEClash.Weighted>
0.0575

> <Gold.Chemscore.DEInternal.Weighted>
1.9131

> <Gold.Chemscore.Rot.Weighted>
6.7251

> <Gold.Chemscore.Internal.Correction.Weighted>
   9.000000E+99

> <Gold.Protein.RotatedTorsions>
[ 6907 6896 6895 6894 ] final  -48.56 input  -60.11 | X-H torsion
[ 7974 7965 7964 7962 ] final -102.18 input  175.53 | X-H torsion
[ 8008 7997 7996 7995 ] final  107.69 input   59.86 | X-H torsion
[ 10167 10162 10161 10158 ] final   93.75 input  -65.29 | X-H torsion
[ 10718 10713 10712 10709 ] final   -4.09 input   66.30 | X-H torsion
[ 10763 10752 10751 10750 ] final  154.82 input  -60.55 | X-H torsion
[ 11005 11000 10999 10996 ] final -136.86 input  -57.11 | X-H torsion

> <Gold.Protein.ActiveResidues>
 VAL166  LYS551  ARG553  GLY616  TRP617  ASP618  TYR619  PRO620  LYS621  CYS622 
 ASP623  PHE694  ASN695  SER759  ASP760  ASP761  ALA762  ILE779  LEU786  VAL792 
 PHE793  MET794  SER795  GLU796  ALA797  LYS798  CYS799  TRP800  GLU811  SER814 

> <Gold.Protein.RotatedAtoms>
  150.8893  134.8295  159.7281 H   0  0  0  0  0  0  0  0  0  0  0  0  # atno 6907 bound_to 6896
  152.4827  134.4673  159.9634 H   0  0  0  0  0  0  0  0  0  0  0  0  # atno 6908 bound_to 6896
  151.4738  133.3524  159.2863 H   0  0  0  0  0  0  0  0  0  0  0  0  # atno 6909 bound_to 6896
  145.2720  140.9301  143.2981 H   0  0  0  0  0  0  0  0  0  0  0  0  # atno 7974 bound_to 7965
  156.1844  140.3090  155.9210 H   0  0  0  0  0  0  0  0  0  0  0  0  # atno 8008 bound_to 7997
  155.3313  140.0461  157.3059 H   0  0  0  0  0  0  0  0  0  0  0  0  # atno 8009 bound_to 7997
  154.5379  140.2252  155.8701 H   0  0  0  0  0  0  0  0  0  0  0  0  # atno 8010 bound_to 7997
  139.8150  144.6757  150.9592 H   0  0  0  0  0  0  0  0  0  0  0  0  # atno 10167 bound_to 10162
  156.7665  130.5286  149.5775 H   0  0  0  0  0  0  0  0  0  0  0  0  # atno 10718 bound_to 10713
  154.1585  135.2811  155.3115 H   0  0  0  0  0  0  0  0  0  0  0  0  # atno 10763 bound_to 10752
  154.6165  135.5481  153.7532 H   0  0  0  0  0  0  0  0  0  0  0  0  # atno 10764 bound_to 10752
  153.0199  135.6428  154.1727 H   0  0  0  0  0  0  0  0  0  0  0  0  # atno 10765 bound_to 10752
  140.8766  134.1984  157.4618 H   0  0  0  0  0  0  0  0  0  0  0  0  # atno 11005 bound_to 11000
  144.9327  139.4280  143.6487 LP  0  0  0  0  0  0  0  0  0  0  0  0  # atno 17320 bound_to 7965
  146.3243  139.8246  142.8920 LP  0  0  0  0  0  0  0  0  0  0  0  0  # atno 17321 bound_to 7965
  140.7816  143.4148  151.0935 LP  0  0  0  0  0  0  0  0  0  0  0  0  # atno 17342 bound_to 10162
  139.7812  143.8353  152.3138 LP  0  0  0  0  0  0  0  0  0  0  0  0  # atno 17343 bound_to 10162
  156.1305  130.6175  151.0327 LP  0  0  0  0  0  0  0  0  0  0  0  0  # atno 17370 bound_to 10713
  157.6711  131.0861  150.7610 LP  0  0  0  0  0  0  0  0  0  0  0  0  # atno 17371 bound_to 10713
  139.8716  134.9798  156.5052 LP  0  0  0  0  0  0  0  0  0  0  0  0  # atno 17394 bound_to 11000
  140.8511  133.8131  155.9169 LP  0  0  0  0  0  0  0  0  0  0  0  0  # atno 17395 bound_to 11000

$$$$
