AV-unprocessed.smi:1807|AV-procd|sdf|7302|dock7
  -GOLD-   22720 8563D 1   1.00000     0.00000
 Structure written by MMmdl.
 44 45  0  0  0  0  0  0  0  0  1 V2000
  148.7990  140.6524  154.4288 C   0  0  0  0  0  0  0  0  0  0  0  0
  150.1751  140.5562  155.1094 C   0  0  1  0  0  0  0  0  0  0  0  0
  150.0627  140.7115  156.6401 C   0  0  0  0  0  0  0  0  0  0  0  0
  151.4441  140.6843  157.3134 C   0  0  0  0  0  0  0  0  0  0  0  0
  152.2191  139.4089  156.9503 C   0  0  0  0  0  0  0  0  0  0  0  0
  152.3335  139.2404  155.4250 C   0  0  0  0  0  0  0  0  0  0  0  0
  150.9581  139.2729  154.7282 C   0  0  1  0  0  0  0  0  0  0  0  0
  150.2086  138.0572  155.0538 N   0  0  0  0  0  0  0  0  0  0  0  0
  150.6874  136.8035  155.0502 C   0  0  0  0  0  0  0  0  0  0  0  0
  151.8523  136.5232  154.7623 O   0  0  0  0  0  0  0  0  0  0  0  0
  149.6836  135.7140  155.4371 C   0  0  0  0  0  0  0  0  0  0  0  0
  149.1401  135.0268  154.2735 N   0  0  0  0  0  0  0  0  0  0  0  0
  149.2104  133.6322  154.1962 C   0  0  0  0  0  0  0  0  0  0  0  0
  148.6960  132.9094  153.0858 C   0  0  0  0  0  0  0  0  0  0  0  0
  148.9690  131.6100  153.4067 C   0  0  0  0  0  0  0  0  0  0  0  0
  149.6033  131.6085  154.6342 N   0  0  0  0  0  0  0  0  0  0  0  0
  150.0957  130.4725  155.3928 C   0  0  0  0  0  0  0  0  0  0  0  0
  150.9468  129.5485  154.5185 C   0  0  0  0  0  0  0  0  0  0  0  0
  150.3031  128.7816  153.6350 N   0  0  0  0  0  0  0  0  0  0  0  0
  152.1702  129.5276  154.6360 O   0  0  0  0  0  0  0  0  0  0  0  0
  149.7491  132.8588  155.1264 N   0  0  0  0  0  0  0  0  0  0  0  0
  148.1160  139.8815  154.7863 H   0  0  0  0  0  0  0  0  0  0  0  0
  148.8887  140.5438  153.3476 H   0  0  0  0  0  0  0  0  0  0  0  0
  148.3336  141.6185  154.6248 H   0  0  0  0  0  0  0  0  0  0  0  0
  150.7593  141.4024  154.7445 H   0  0  0  0  0  0  0  0  0  0  0  0
  149.5603  141.6483  156.8829 H   0  0  0  0  0  0  0  0  0  0  0  0
  149.4399  139.9157  157.0510 H   0  0  0  0  0  0  0  0  0  0  0  0
  152.0174  141.5595  157.0051 H   0  0  0  0  0  0  0  0  0  0  0  0
  151.3315  140.7549  158.3956 H   0  0  0  0  0  0  0  0  0  0  0  0
  153.2143  139.4414  157.3942 H   0  0  0  0  0  0  0  0  0  0  0  0
  151.7192  138.5411  157.3822 H   0  0  0  0  0  0  0  0  0  0  0  0
  152.9546  140.0431  155.0254 H   0  0  0  0  0  0  0  0  0  0  0  0
  152.8542  138.3112  155.1898 H   0  0  0  0  0  0  0  0  0  0  0  0
  151.1460  139.2990  153.6535 H   0  0  0  0  0  0  0  0  0  0  0  0
  149.2386  138.1837  155.3034 H   0  0  0  0  0  0  0  0  0  0  0  0
  150.1809  134.9939  156.0884 H   0  0  0  0  0  0  0  0  0  0  0  0
  148.8670  136.1634  156.0045 H   0  0  0  0  0  0  0  0  0  0  0  0
  148.7944  135.5715  153.4961 H   0  0  0  0  0  0  0  0  0  0  0  0
  148.2088  133.2820  152.1970 H   0  0  0  0  0  0  0  0  0  0  0  0
  148.7701  130.6952  152.8685 H   0  0  0  0  0  0  0  0  0  0  0  0
  150.6928  130.8266  156.2349 H   0  0  0  0  0  0  0  0  0  0  0  0
  149.2420  129.9356  155.8088 H   0  0  0  0  0  0  0  0  0  0  0  0
  150.8212  128.1576  153.0338 H   0  0  0  0  0  0  0  0  0  0  0  0
  149.2965  128.8317  153.5702 H   0  0  0  0  0  0  0  0  0  0  0  0
  1  2  1  0  0  0  0
  1 22  1  0  0  0  0
  1 23  1  0  0  0  0
  1 24  1  0  0  0  0
  2  7  1  0  0  0  0
  2  3  1  0  0  0  0
  2 25  1  0  0  0  0
  3  4  1  0  0  0  0
  3 26  1  0  0  0  0
  3 27  1  0  0  0  0
  4  5  1  0  0  0  0
  4 28  1  0  0  0  0
  4 29  1  0  0  0  0
  5  6  1  0  0  0  0
  5 30  1  0  0  0  0
  5 31  1  0  0  0  0
  6  7  1  0  0  0  0
  6 32  1  0  0  0  0
  6 33  1  0  0  0  0
  7  8  1  0  0  0  0
  7 34  1  0  0  0  0
  8  9  1  0  0  0  0
  8 35  1  0  0  0  0
  9 10  2  0  0  0  0
  9 11  1  0  0  0  0
 11 12  1  0  0  0  0
 11 36  1  0  0  0  0
 11 37  1  0  0  0  0
 12 13  1  0  0  0  0
 12 38  1  0  0  0  0
 13 21  2  0  0  0  0
 13 14  1  0  0  0  0
 14 15  2  0  0  0  0
 14 39  1  0  0  0  0
 15 16  1  0  0  0  0
 15 40  1  0  0  0  0
 16 17  1  0  0  0  0
 16 21  1  0  0  0  0
 17 18  1  0  0  0  0
 17 41  1  0  0  0  0
 17 42  1  0  0  0  0
 18 19  1  0  0  0  0
 18 20  2  0  0  0  0
 19 43  1  0  0  0  0
 19 44  1  0  0  0  0
M  END
> <s_m_source_file>
AV-unprocessed.smi

> <i_m_source_file_index>
1807

> <i_lp_mmshare_version>
43012

> <i_f3d_flags>
0

> <s_epik_input>
W0NIM11bQ0BASF0xW0NIMl1bQ0gyXVtDSDJdW0NIMl1bQ0BIXTFbTkhdQyg9TylbQ0gyXVtOSF1jMltjSF1bY0hdbihuMilbQ0gyXUMoPU8pW05IMl0=

> <s_epik_cmdline>
J2VwaWtfcHl0aG9uJywgJy1waCcsICc3LjAnLCAnLXRuJywgJzgnLCAnLW1hJywgJzIwMCcsICctbWV0YWxfYmluZGluZycsICctaW1hZScsICc8aW5maWxlLm1hZT4nLCAnLW9tYWUnLCAnPG91dGZpbGUubWFlPic=

> <r_lp_tautomer_probability>
1

> <r_epik_Ionization_Penalty>
0.000167642

> <r_epik_Ionization_Penalty_Charging>
0

> <r_epik_Ionization_Penalty_Neutral>
0.000167642

> <r_epik_State_Penalty>
-0

> <r_epik_Charging_Adjusted_Penalty>
0

> <i_epik_Tot_Q>
0

> <i_epik_Tot_abs_Q>
0

> <r_epik_Metal_State_Penalty>
-0

> <b_epik_Metal_Only>
0

> <s_lp_Force_Field>
OPLS_2005

> <r_lp_Energy>
4.94833

> <b_lp_Chiralities_Consistent>
1

> <s_lp_Variant>
AV-unprocessed.smi:1807-2

> <Gold.Version>
5.8.1

> <Gold.Id.Protein>
6NUR|6NUR_protein|mol2

> <Gold.PLP.Fitness>
46.3821

> <Gold.PLP.PLP>
-37.5908

> <Gold.PLP.part.hbond>
-2.9512

> <Gold.PLP.part.metal>
0.0000

> <Gold.PLP.part.buried>
-1.7041

> <Gold.PLP.part.nonpolar>
-32.3243

> <Gold.PLP.part.repulsive>
0.3331

> <Gold.PLP.ligand.clash>
0.0000

> <Gold.PLP.ligand.torsion>
0.7370

> <Gold.PLP.Chemscore.Hbond>
2.9920

> <Gold.PLP.Chemscore.CHOScore>
0.4252

> <Gold.PLP.Chemscore.Metal>
0.0000

> <Gold.Chemscore.Hbonds>
donor molecule, donor type, donor heavy atom, donor atom, acceptor molecule, acceptor atom, score
      L1  H    12    38       P1  7948  1.00
      L1  H    19    43       P1 10737  1.00
      P1  H 10752 10763       L1    10  0.84
      L1  C    15    40       P1 10747  0.63

> <Gold.PLP.Chemscore.Internal.Correction>
0.0137

> <Gold.Rescore>
     Score         DG    S(hbond)    S(metal)    S(lipo)     H(rot)  DE(clash)    DE(int)     intcor
     13.94     -16.24       2.89        0.00      67.32       2.64       0.25       2.05       ----

> <Gold.Chemscore.Fitness>
13.9405

> <Gold.Chemscore.DG>
-16.2431

> <Gold.Chemscore.ZeroCoef>
-5.4800

> <Gold.Chemscore.Hbond>
2.8853

> <Gold.Chemscore.Metal>
0.0000

> <Gold.Chemscore.Lipo>
67.3210

> <Gold.Chemscore.Internal_Hbond>
0.0000

> <Gold.Chemscore.DEClash>
0.2499

> <Gold.Chemscore.DEInternal>
2.0527

> <Gold.Chemscore.Rot>
2.6369

> <Gold.Chemscore.Internal.Correction>
   9.000000E+99

> <Gold.Chemscore.Hbonds>
donor molecule, donor type, donor heavy atom, donor atom, acceptor molecule, acceptor atom, score
      L1  H    12    38       P1  7948  0.88
      L1  H    19    43       P1 10737  0.98
      P1  H 10752 10763       L1    10  0.80

> <Gold.Chemscore.Hbond.Weighted>
-9.6369

> <Gold.Chemscore.Metal.Weighted>
-0.0000

> <Gold.Chemscore.Lipo.Weighted>
-7.8766

> <Gold.Chemscore.Internal_Hbond.Weighted>
0.0000

> <Gold.Chemscore.DEClash.Weighted>
0.2499

> <Gold.Chemscore.DEInternal.Weighted>
2.0527

> <Gold.Chemscore.Rot.Weighted>
6.7504

> <Gold.Chemscore.Internal.Correction.Weighted>
   9.000000E+99

> <Gold.Protein.RotatedTorsions>
[ 6907 6896 6895 6894 ] final  -83.81 input  -60.11 | X-H torsion
[ 7974 7965 7964 7962 ] final   52.35 input  175.53 | X-H torsion
[ 8008 7997 7996 7995 ] final -179.98 input   59.86 | X-H torsion
[ 10167 10162 10161 10158 ] final  -86.49 input  -65.29 | X-H torsion
[ 10718 10713 10712 10709 ] final  -68.56 input   66.30 | X-H torsion
[ 10763 10752 10751 10750 ] final   40.98 input  -60.55 | X-H torsion
[ 11005 11000 10999 10996 ] final   59.96 input  -57.11 | X-H torsion

> <Gold.Protein.ActiveResidues>
 VAL166  LYS551  ARG553  GLY616  TRP617  ASP618  TYR619  PRO620  LYS621  CYS622 
 ASP623  PHE694  ASN695  SER759  ASP760  ASP761  ALA762  ILE779  LEU786  VAL792 
 PHE793  MET794  SER795  GLU796  ALA797  LYS798  CYS799  TRP800  GLU811  SER814 

> <Gold.Protein.RotatedAtoms>
  150.6882  134.3454  159.4885 H   0  0  0  0  0  0  0  0  0  0  0  0  # atno 6907 bound_to 6896
  152.1302  134.9138  160.0568 H   0  0  0  0  0  0  0  0  0  0  0  0  # atno 6908 bound_to 6896
  152.0311  133.3903  159.4334 H   0  0  0  0  0  0  0  0  0  0  0  0  # atno 6909 bound_to 6896
  145.9822  139.4254  143.0125 H   0  0  0  0  0  0  0  0  0  0  0  0  # atno 7974 bound_to 7965
  156.0368  140.1294  157.0199 H   0  0  0  0  0  0  0  0  0  0  0  0  # atno 8008 bound_to 7997
  154.4373  140.1038  156.6249 H   0  0  0  0  0  0  0  0  0  0  0  0  # atno 8009 bound_to 7997
  155.5726  140.3466  155.4521 H   0  0  0  0  0  0  0  0  0  0  0  0  # atno 8010 bound_to 7997
  140.3936  143.2693  151.9232 H   0  0  0  0  0  0  0  0  0  0  0  0  # atno 10167 bound_to 10162
  156.0499  130.4297  150.2018 H   0  0  0  0  0  0  0  0  0  0  0  0  # atno 10718 bound_to 10713
  152.9921  135.6175  154.2713 H   0  0  0  0  0  0  0  0  0  0  0  0  # atno 10763 bound_to 10752
  154.2446  135.2787  155.2842 H   0  0  0  0  0  0  0  0  0  0  0  0  # atno 10764 bound_to 10752
  154.5340  135.5780  153.6841 H   0  0  0  0  0  0  0  0  0  0  0  0  # atno 10765 bound_to 10752
  140.0266  134.6074  155.9565 H   0  0  0  0  0  0  0  0  0  0  0  0  # atno 11005 bound_to 11000
  145.7752  140.9879  143.1128 LP  0  0  0  0  0  0  0  0  0  0  0  0  # atno 17320 bound_to 7965
  144.6865  139.9497  143.7477 LP  0  0  0  0  0  0  0  0  0  0  0  0  # atno 17321 bound_to 7965
  139.4788  144.5703  151.8099 LP  0  0  0  0  0  0  0  0  0  0  0  0  # atno 17342 bound_to 10162
  140.4813  144.1445  150.5933 LP  0  0  0  0  0  0  0  0  0  0  0  0  # atno 17343 bound_to 10162
  157.0103  130.9949  151.3367 LP  0  0  0  0  0  0  0  0  0  0  0  0  # atno 17370 bound_to 10713
  157.5414  130.8122  149.8034 LP  0  0  0  0  0  0  0  0  0  0  0  0  # atno 17371 bound_to 10713
  141.1806  133.6546  156.5005 LP  0  0  0  0  0  0  0  0  0  0  0  0  # atno 17394 bound_to 11000
  140.4297  134.7113  157.4935 LP  0  0  0  0  0  0  0  0  0  0  0  0  # atno 17395 bound_to 11000

$$$$
