AV-unprocessed.smi:371|AV-procd|sdf|2442|dock7
  -GOLD-   2262022383D 1   1.00000     0.00000
 Structure written by MMmdl.
 39 40  0  0  0  0  0  0  0  0  1 V2000
  150.9744  137.4042  154.4905 C   0  0  0  0  0  0  0  0  0  0  0  0
  150.7272  138.6257  155.3671 C   0  0  0  0  0  0  0  0  0  0  0  0
  149.8739  139.6703  154.8499 C   0  0  0  0  0  0  0  0  0  0  0  0
  149.6942  140.8174  155.5246 C   0  0  0  0  0  0  0  0  0  0  0  0
  148.7872  141.9117  154.9735 C   0  0  0  0  0  0  0  0  0  0  0  0
  150.3151  141.0168  156.7883 N   0  0  0  0  0  0  0  0  0  0  0  0
  150.1858  142.3338  157.4616 C   0  0  0  0  0  0  0  0  0  0  0  0
  151.5541  143.0091  157.7362 C   0  0  1  0  0  0  0  0  0  0  0  0
  151.6599  144.1451  156.9013 O   0  0  0  0  0  0  0  0  0  0  0  0
  151.7816  143.3454  159.2070 C   0  0  0  0  0  0  0  0  0  0  0  0
  151.0765  144.4107  159.8108 C   0  0  0  0  0  0  0  0  0  0  0  0
  151.2558  144.7004  161.1771 C   0  0  0  0  0  0  0  0  0  0  0  0
  152.1412  143.9268  161.9507 C   0  0  0  0  0  0  0  0  0  0  0  0
  152.8480  142.8643  161.3568 C   0  0  0  0  0  0  0  0  0  0  0  0
  152.6707  142.5730  159.9901 C   0  0  0  0  0  0  0  0  0  0  0  0
  153.3458  141.5347  159.4407 F   0  0  0  0  0  0  0  0  0  0  0  0
  151.0369  140.0246  157.4040 C   0  0  0  0  0  0  0  0  0  0  0  0
  151.4407  140.1708  158.5622 O   0  0  0  0  0  0  0  0  0  0  0  0
  151.2948  138.8064  156.5897 C   0  0  0  0  0  0  0  0  0  0  0  0
  152.1908  137.7951  157.1833 C   0  0  0  0  0  0  0  0  0  0  0  0
  153.0066  138.2529  158.1438 N   0  0  0  0  0  0  0  0  0  0  0  0
  152.2814  136.6279  156.8063 O   0  0  0  0  0  0  0  0  0  0  0  0
  150.5714  137.5508  153.4879 H   0  0  0  0  0  0  0  0  0  0  0  0
  150.4916  136.5242  154.9157 H   0  0  0  0  0  0  0  0  0  0  0  0
  152.0413  137.2042  154.3867 H   0  0  0  0  0  0  0  0  0  0  0  0
  149.3785  139.5274  153.9004 H   0  0  0  0  0  0  0  0  0  0  0  0
  148.4541  141.6659  153.9648 H   0  0  0  0  0  0  0  0  0  0  0  0
  149.2933  142.8736  154.9118 H   0  0  0  0  0  0  0  0  0  0  0  0
  147.8944  142.0174  155.5903 H   0  0  0  0  0  0  0  0  0  0  0  0
  149.5512  143.0059  156.8865 H   0  0  0  0  0  0  0  0  0  0  0  0
  149.6402  142.2484  158.4028 H   0  0  0  0  0  0  0  0  0  0  0  0
  152.3526  142.3401  157.4187 H   0  0  0  0  0  0  0  0  0  0  0  0
  150.8472  144.2468  156.4297 H   0  0  0  0  0  0  0  0  0  0  0  0
  150.3834  145.0022  159.2305 H   0  0  0  0  0  0  0  0  0  0  0  0
  150.7093  145.5134  161.6324 H   0  0  0  0  0  0  0  0  0  0  0  0
  152.2767  144.1467  162.9994 H   0  0  0  0  0  0  0  0  0  0  0  0
  153.5241  142.2679  161.9514 H   0  0  0  0  0  0  0  0  0  0  0  0
  153.6610  137.6274  158.5916 H   0  0  0  0  0  0  0  0  0  0  0  0
  152.9728  139.2272  158.4066 H   0  0  0  0  0  0  0  0  0  0  0  0
  1  2  1  0  0  0  0
  1 23  1  0  0  0  0
  1 24  1  0  0  0  0
  1 25  1  0  0  0  0
  2 19  2  0  0  0  0
  2  3  1  0  0  0  0
  3  4  2  0  0  0  0
  3 26  1  0  0  0  0
  4  5  1  0  0  0  0
  4  6  1  0  0  0  0
  5 27  1  0  0  0  0
  5 28  1  0  0  0  0
  5 29  1  0  0  0  0
  6  7  1  0  0  0  0
  6 17  1  0  0  0  0
  7  8  1  0  0  0  0
  7 30  1  0  0  0  0
  7 31  1  0  0  0  0
  8  9  1  0  0  0  0
  8 10  1  0  0  0  0
  8 32  1  0  0  0  0
  9 33  1  0  0  0  0
 10 15  1  0  0  0  0
 10 11  2  0  0  0  0
 11 12  1  0  0  0  0
 11 34  1  0  0  0  0
 12 13  2  0  0  0  0
 12 35  1  0  0  0  0
 13 14  1  0  0  0  0
 13 36  1  0  0  0  0
 14 15  2  0  0  0  0
 14 37  1  0  0  0  0
 15 16  1  0  0  0  0
 17 18  2  0  0  0  0
 17 19  1  0  0  0  0
 19 20  1  0  0  0  0
 20 21  1  0  0  0  0
 20 22  2  0  0  0  0
 21 38  1  0  0  0  0
 21 39  1  0  0  0  0
M  END
> <s_m_source_file>
AV-unprocessed.smi

> <i_m_source_file_index>
371

> <i_lp_mmshare_version>
43012

> <i_f3d_flags>
0

> <s_epik_input>
W0NIM11jMVtjSF1jKFtDSDNdKW4oYyg9TyljMUMoPU8pW05IMl0pW0NIMl1bQ0BIXShbT0hdKWMyW2NIXVtjSF1bY0hdW2NIXWMyRg==

> <s_epik_cmdline>
J2VwaWtfcHl0aG9uJywgJy1waCcsICc3LjAnLCAnLXRuJywgJzgnLCAnLW1hJywgJzIwMCcsICctbWV0YWxfYmluZGluZycsICctaW1hZScsICc8aW5maWxlLm1hZT4nLCAnLW9tYWUnLCAnPG91dGZpbGUubWFlPic=

> <r_lp_tautomer_probability>
1

> <r_epik_Ionization_Penalty>
3.46512e-07

> <r_epik_Ionization_Penalty_Charging>
1.35363e-07

> <r_epik_Ionization_Penalty_Neutral>
2.11149e-07

> <r_epik_State_Penalty>
-0

> <r_epik_Charging_Adjusted_Penalty>
1.35363e-07

> <i_epik_Tot_Q>
0

> <i_epik_Tot_abs_Q>
0

> <r_epik_Metal_State_Penalty>
-0

> <b_epik_Metal_Only>
0

> <s_lp_Force_Field>
OPLS_2005

> <r_lp_Energy>
37.7279

> <b_lp_Chiralities_Consistent>
1

> <s_lp_Variant>
AV-unprocessed.smi:371-2

> <Gold.Version>
5.8.1

> <Gold.Id.Protein>
6NUR|6NUR_protein|mol2

> <Gold.PLP.Fitness>
46.5634

> <Gold.PLP.PLP>
-43.0698

> <Gold.PLP.part.hbond>
-2.0000

> <Gold.PLP.part.metal>
0.0000

> <Gold.PLP.part.buried>
0.9585

> <Gold.PLP.part.nonpolar>
-42.1614

> <Gold.PLP.part.repulsive>
0.5594

> <Gold.PLP.ligand.clash>
0.0000

> <Gold.PLP.ligand.torsion>
1.1482

> <Gold.PLP.Chemscore.Hbond>
1.8000

> <Gold.PLP.Chemscore.CHOScore>
0.0000

> <Gold.PLP.Chemscore.Metal>
0.0000

> <Gold.Chemscore.Hbonds>
donor molecule, donor type, donor heavy atom, donor atom, acceptor molecule, acceptor atom, score
      L1  H     9    33       P1  8028  0.75
      P1  H 10752 10763       L1    22  0.32

> <Gold.PLP.Chemscore.Internal.Correction>
0.3901

> <Gold.Rescore>
     Score         DG    S(hbond)    S(metal)    S(lipo)     H(rot)  DE(clash)    DE(int)     intcor
     13.81     -21.21       1.85        0.00     126.33       2.04       2.46       4.94       ----

> <Gold.Chemscore.Fitness>
13.8063

> <Gold.Chemscore.DG>
-21.2057

> <Gold.Chemscore.ZeroCoef>
-5.4800

> <Gold.Chemscore.Hbond>
1.8463

> <Gold.Chemscore.Metal>
0.0000

> <Gold.Chemscore.Lipo>
126.3296

> <Gold.Chemscore.Internal_Hbond>
0.0000

> <Gold.Chemscore.DEClash>
2.4617

> <Gold.Chemscore.DEInternal>
4.9377

> <Gold.Chemscore.Rot>
2.0396

> <Gold.Chemscore.Internal.Correction>
   9.000000E+99

> <Gold.Chemscore.Hbonds>
donor molecule, donor type, donor heavy atom, donor atom, acceptor molecule, acceptor atom, score
      L1  H     9    33       P1  8028  0.75
      P1  H 10752 10763       L1    22  0.31

> <Gold.Chemscore.Hbond.Weighted>
-6.1665

> <Gold.Chemscore.Metal.Weighted>
-0.0000

> <Gold.Chemscore.Lipo.Weighted>
-14.7806

> <Gold.Chemscore.Internal_Hbond.Weighted>
0.0000

> <Gold.Chemscore.DEClash.Weighted>
2.4617

> <Gold.Chemscore.DEInternal.Weighted>
4.9377

> <Gold.Chemscore.Rot.Weighted>
5.2214

> <Gold.Chemscore.Internal.Correction.Weighted>
   9.000000E+99

> <Gold.Protein.RotatedTorsions>
[ 6907 6896 6895 6894 ] final  -17.07 input  -60.11 | X-H torsion
[ 7974 7965 7964 7962 ] final   86.94 input  175.53 | X-H torsion
[ 8008 7997 7996 7995 ] final  160.14 input   59.86 | X-H torsion
[ 10167 10162 10161 10158 ] final  -69.64 input  -65.29 | X-H torsion
[ 10718 10713 10712 10709 ] final   72.45 input   66.30 | X-H torsion
[ 10763 10752 10751 10750 ] final   81.67 input  -60.55 | X-H torsion
[ 11005 11000 10999 10996 ] final -148.17 input  -57.11 | X-H torsion

> <Gold.Protein.ActiveResidues>
 VAL166  LYS551  ARG553  GLY616  TRP617  ASP618  TYR619  PRO620  LYS621  CYS622 
 ASP623  PHE694  ASN695  SER759  ASP760  ASP761  ALA762  ILE779  LEU786  VAL792 
 PHE793  MET794  SER795  GLU796  ALA797  LYS798  CYS799  TRP800  GLU811  SER814 

> <Gold.Protein.RotatedAtoms>
  151.2989  135.0763  159.9231 H   0  0  0  0  0  0  0  0  0  0  0  0  # atno 6907 bound_to 6896
  152.5301  133.9854  159.7836 H   0  0  0  0  0  0  0  0  0  0  0  0  # atno 6908 bound_to 6896
  151.0137  133.5890  159.2710 H   0  0  0  0  0  0  0  0  0  0  0  0  # atno 6909 bound_to 6896
  145.5656  139.2308  143.2435 H   0  0  0  0  0  0  0  0  0  0  0  0  # atno 7974 bound_to 7965
  156.2192  140.1812  156.7517 H   0  0  0  0  0  0  0  0  0  0  0  0  # atno 8008 bound_to 7997
  154.5839  140.0662  156.9172 H   0  0  0  0  0  0  0  0  0  0  0  0  # atno 8009 bound_to 7997
  155.2455  140.3325  155.4290 H   0  0  0  0  0  0  0  0  0  0  0  0  # atno 8010 bound_to 7997
  140.5415  143.2315  151.7080 H   0  0  0  0  0  0  0  0  0  0  0  0  # atno 10167 bound_to 10162
  157.6501  130.9579  150.0930 H   0  0  0  0  0  0  0  0  0  0  0  0  # atno 10718 bound_to 10713
  153.1137  135.4757  154.9078 H   0  0  0  0  0  0  0  0  0  0  0  0  # atno 10763 bound_to 10752
  154.7506  135.3105  154.8566 H   0  0  0  0  0  0  0  0  0  0  0  0  # atno 10764 bound_to 10752
  153.9148  135.6861  153.4803 H   0  0  0  0  0  0  0  0  0  0  0  0  # atno 10765 bound_to 10752
  140.7640  134.3266  157.5094 H   0  0  0  0  0  0  0  0  0  0  0  0  # atno 11005 bound_to 11000
  146.1821  140.6481  142.9184 LP  0  0  0  0  0  0  0  0  0  0  0  0  # atno 17320 bound_to 7965
  144.7462  140.5074  143.6834 LP  0  0  0  0  0  0  0  0  0  0  0  0  # atno 17321 bound_to 7965
  139.4990  144.3961  152.0230 LP  0  0  0  0  0  0  0  0  0  0  0  0  # atno 17342 bound_to 10162
  140.3070  144.3581  150.6044 LP  0  0  0  0  0  0  0  0  0  0  0  0  # atno 17343 bound_to 10162
  156.1874  130.3653  149.8955 LP  0  0  0  0  0  0  0  0  0  0  0  0  # atno 17370 bound_to 10713
  156.6891  130.8889  151.3586 LP  0  0  0  0  0  0  0  0  0  0  0  0  # atno 17371 bound_to 10713
  139.8766  134.9219  156.3288 LP  0  0  0  0  0  0  0  0  0  0  0  0  # atno 17394 bound_to 11000
  140.9637  133.7372  156.0436 LP  0  0  0  0  0  0  0  0  0  0  0  0  # atno 17395 bound_to 11000

$$$$
