AV-unprocessed.smi:774|AV-procd|sdf|3692|dock4
  -GOLD-   22720 1113D 1   1.00000     0.00000
 Structure written by MMmdl.
 37 38  0  0  0  0  0  0  0  0  1 V2000
  152.8754  141.9775  159.1747 C   0  0  0  0  0  0  0  0  0  0  0  0
  151.5336  141.7631  158.4693 C   0  0  0  0  0  0  0  0  0  0  0  0
  151.2230  140.0046  158.1522 S   0  0  0  0  0  0  0  0  0  0  0  0
  151.6650  139.9081  156.3929 C   0  0  1  0  0  0  0  0  0  0  0  0
  152.7356  138.8551  156.1168 C   0  0  0  0  0  0  0  0  0  0  0  0
  152.6052  138.5751  154.6196 C   0  0  0  0  0  0  0  0  0  0  0  0
  151.1161  138.7720  154.2840 C   0  0  1  0  0  0  0  0  0  0  0  0
  150.4628  137.4848  154.0532 N   0  0  0  0  0  0  0  0  0  0  0  0
  150.7056  136.3498  154.7244 C   0  0  0  0  0  0  0  0  0  0  0  0
  151.5192  136.2651  155.6428 O   0  0  0  0  0  0  0  0  0  0  0  0
  149.9446  135.3454  154.2557 N   0  0  0  0  0  0  0  0  0  0  0  0
  149.9106  133.9753  154.6390 C   0  0  0  0  0  0  0  0  0  0  0  0
  149.2298  133.0814  153.7861 C   0  0  0  0  0  0  0  0  0  0  0  0
  149.1747  131.7152  154.1203 C   0  0  0  0  0  0  0  0  0  0  0  0
  149.8073  131.2907  155.3041 C   0  0  0  0  0  0  0  0  0  0  0  0
  150.4621  132.1296  156.1335 N   0  0  0  0  0  0  0  0  0  0  0  0
  150.5112  133.4394  155.8068 C   0  0  0  0  0  0  0  0  0  0  0  0
  150.4936  139.4899  155.4971 C   0  0  0  0  0  0  0  0  0  0  0  0
  153.0541  143.0373  159.3564 H   0  0  0  0  0  0  0  0  0  0  0  0
  153.7016  141.5995  158.5721 H   0  0  0  0  0  0  0  0  0  0  0  0
  152.8992  141.4658  160.1373 H   0  0  0  0  0  0  0  0  0  0  0  0
  150.7253  142.1645  159.0808 H   0  0  0  0  0  0  0  0  0  0  0  0
  151.5200  142.3014  157.5216 H   0  0  0  0  0  0  0  0  0  0  0  0
  152.0385  140.8804  156.0683 H   0  0  0  0  0  0  0  0  0  0  0  0
  153.7356  139.1891  156.3946 H   0  0  0  0  0  0  0  0  0  0  0  0
  152.5197  137.9444  156.6774 H   0  0  0  0  0  0  0  0  0  0  0  0
  153.1968  139.3056  154.0661 H   0  0  0  0  0  0  0  0  0  0  0  0
  152.9843  137.5881  154.3510 H   0  0  0  0  0  0  0  0  0  0  0  0
  151.0340  139.4148  153.4057 H   0  0  0  0  0  0  0  0  0  0  0  0
  149.7723  137.4583  153.3172 H   0  0  0  0  0  0  0  0  0  0  0  0
  149.3154  135.5915  153.5057 H   0  0  0  0  0  0  0  0  0  0  0  0
  148.7549  133.4352  152.8825 H   0  0  0  0  0  0  0  0  0  0  0  0
  148.6610  131.0099  153.4841 H   0  0  0  0  0  0  0  0  0  0  0  0
  149.7878  130.2500  155.5918 H   0  0  0  0  0  0  0  0  0  0  0  0
  151.0519  134.0463  156.5141 H   0  0  0  0  0  0  0  0  0  0  0  0
  149.8359  138.8133  156.0457 H   0  0  0  0  0  0  0  0  0  0  0  0
  149.8898  140.3462  155.1949 H   0  0  0  0  0  0  0  0  0  0  0  0
  1  2  1  0  0  0  0
  1 19  1  0  0  0  0
  1 20  1  0  0  0  0
  1 21  1  0  0  0  0
  2  3  1  0  0  0  0
  2 22  1  0  0  0  0
  2 23  1  0  0  0  0
  3  4  1  0  0  0  0
  4 18  1  0  0  0  0
  4  5  1  0  0  0  0
  4 24  1  0  0  0  0
  5  6  1  0  0  0  0
  5 25  1  0  0  0  0
  5 26  1  0  0  0  0
  6  7  1  0  0  0  0
  6 27  1  0  0  0  0
  6 28  1  0  0  0  0
  7  8  1  0  0  0  0
  7 18  1  0  0  0  0
  7 29  1  0  0  0  0
  8  9  1  0  0  0  0
  8 30  1  0  0  0  0
  9 10  2  0  0  0  0
  9 11  1  0  0  0  0
 11 12  1  0  0  0  0
 11 31  1  0  0  0  0
 12 17  1  0  0  0  0
 12 13  2  0  0  0  0
 13 14  1  0  0  0  0
 13 32  1  0  0  0  0
 14 15  2  0  0  0  0
 14 33  1  0  0  0  0
 15 16  1  0  0  0  0
 15 34  1  0  0  0  0
 16 17  2  0  0  0  0
 17 35  1  0  0  0  0
 18 36  1  0  0  0  0
 18 37  1  0  0  0  0
M  END
> <s_m_source_file>
AV-unprocessed.smi

> <i_m_source_file_index>
774

> <i_lp_mmshare_version>
43012

> <i_f3d_flags>
0

> <s_epik_input>
W0NIM11bQ0gyXVNbQ0BASF0xW0NIMl1bQ0gyXVtDQEhdKFtDSDJdMSlbTkhdQyg9TylbTkhdYzJbY0hdW2NIXVtjSF1uW2NIXTI=

> <s_epik_cmdline>
J2VwaWtfcHl0aG9uJywgJy1waCcsICc3LjAnLCAnLXRuJywgJzgnLCAnLW1hJywgJzIwMCcsICctbWV0YWxfYmluZGluZycsICctaW1hZScsICc8aW5maWxlLm1hZT4nLCAnLW9tYWUnLCAnPG91dGZpbGUubWFlPic=

> <r_epik_Ionization_Penalty>
0.00485718

> <r_epik_Ionization_Penalty_Charging>
0

> <r_epik_Ionization_Penalty_Neutral>
0.00485718

> <r_epik_State_Penalty>
0.00349461

> <r_epik_Charging_Adjusted_Penalty>
0.00349461

> <i_epik_Tot_Q>
0

> <i_epik_Tot_abs_Q>
0

> <r_epik_Metal_State_Penalty>
-0

> <b_epik_Metal_Only>
0

> <s_lp_Force_Field>
OPLS_2005

> <r_lp_Energy>
20.4228

> <b_lp_Chiralities_Consistent>
1

> <s_lp_Variant>
AV-unprocessed.smi:774-2

> <Gold.Version>
5.8.1

> <Gold.Id.Protein>
6NUR|6NUR_protein|mol2

> <Gold.PLP.Fitness>
41.1850

> <Gold.PLP.PLP>
-35.1916

> <Gold.PLP.part.hbond>
-4.7997

> <Gold.PLP.part.metal>
0.0000

> <Gold.PLP.part.buried>
-2.0547

> <Gold.PLP.part.nonpolar>
-29.5750

> <Gold.PLP.part.repulsive>
0.1912

> <Gold.PLP.ligand.clash>
0.0000

> <Gold.PLP.ligand.torsion>
1.3740

> <Gold.PLP.Chemscore.Hbond>
2.9120

> <Gold.PLP.Chemscore.CHOScore>
0.0000

> <Gold.PLP.Chemscore.Metal>
0.0000

> <Gold.Chemscore.Hbonds>
donor molecule, donor type, donor heavy atom, donor atom, acceptor molecule, acceptor atom, score
      L1  H     8    30       P1  7948  0.84
      L1  H    11    31       P1  7948  1.00
      P1  H 10752 10764       L1    10  1.00

> <Gold.PLP.Chemscore.Internal.Correction>
0.0054

> <Gold.Rescore>
     Score         DG    S(hbond)    S(metal)    S(lipo)     H(rot)  DE(clash)    DE(int)     intcor
     13.81     -18.66       2.05        0.00      82.72       1.30       0.00       4.85       ----

> <Gold.Chemscore.Fitness>
13.8066

> <Gold.Chemscore.DG>
-18.6584

> <Gold.Chemscore.ZeroCoef>
-5.4800

> <Gold.Chemscore.Hbond>
2.0476

> <Gold.Chemscore.Metal>
0.0000

> <Gold.Chemscore.Lipo>
82.7154

> <Gold.Chemscore.Internal_Hbond>
0.0000

> <Gold.Chemscore.DEClash>
0.0000

> <Gold.Chemscore.DEInternal>
4.8518

> <Gold.Chemscore.Rot>
1.3041

> <Gold.Chemscore.Internal.Correction>
   9.000000E+99

> <Gold.Chemscore.Hbonds>
donor molecule, donor type, donor heavy atom, donor atom, acceptor molecule, acceptor atom, score
      L1  H     8    30       P1  7948  0.50
      L1  H    11    31       P1  7948  0.38
      P1  H 10752 10764       L1    10  0.50

> <Gold.Chemscore.Hbond.Weighted>
-6.8391

> <Gold.Chemscore.Metal.Weighted>
-0.0000

> <Gold.Chemscore.Lipo.Weighted>
-9.6777

> <Gold.Chemscore.Internal_Hbond.Weighted>
0.0000

> <Gold.Chemscore.DEClash.Weighted>
0.0000

> <Gold.Chemscore.DEInternal.Weighted>
4.8518

> <Gold.Chemscore.Rot.Weighted>
3.3384

> <Gold.Chemscore.Internal.Correction.Weighted>
   9.000000E+99

> <Gold.Protein.RotatedTorsions>
[ 6907 6896 6895 6894 ] final -108.98 input  -60.11 | X-H torsion
[ 7974 7965 7964 7962 ] final  171.63 input  175.53 | X-H torsion
[ 8008 7997 7996 7995 ] final   13.55 input   59.86 | X-H torsion
[ 10167 10162 10161 10158 ] final -178.40 input  -65.29 | X-H torsion
[ 10718 10713 10712 10709 ] final -101.44 input   66.30 | X-H torsion
[ 10763 10752 10751 10750 ] final  -41.84 input  -60.55 | X-H torsion
[ 11005 11000 10999 10996 ] final  -81.71 input  -57.11 | X-H torsion

> <Gold.Protein.ActiveResidues>
 VAL166  LYS551  ARG553  GLY616  TRP617  ASP618  TYR619  PRO620  LYS621  CYS622 
 ASP623  PHE694  ASN695  SER759  ASP760  ASP761  ALA762  ILE779  LEU786  VAL792 
 PHE793  MET794  SER795  GLU796  ALA797  LYS798  CYS799  TRP800  GLU811  SER814 

> <Gold.Protein.RotatedAtoms>
  150.7534  133.9597  159.3511 H   0  0  0  0  0  0  0  0  0  0  0  0  # atno 6907 bound_to 6896
  151.7521  135.0828  160.0342 H   0  0  0  0  0  0  0  0  0  0  0  0  # atno 6908 bound_to 6896
  152.3459  133.6084  159.5946 H   0  0  0  0  0  0  0  0  0  0  0  0  # atno 6909 bound_to 6896
  144.7289  139.9379  143.6427 H   0  0  0  0  0  0  0  0  0  0  0  0  # atno 7974 bound_to 7965
  154.8361  140.2907  155.5690 H   0  0  0  0  0  0  0  0  0  0  0  0  # atno 8008 bound_to 7997
  156.3009  140.2523  156.3226 H   0  0  0  0  0  0  0  0  0  0  0  0  # atno 8009 bound_to 7997
  154.9177  140.0387  157.1970 H   0  0  0  0  0  0  0  0  0  0  0  0  # atno 8010 bound_to 7997
  139.5434  144.2301  152.0940 H   0  0  0  0  0  0  0  0  0  0  0  0  # atno 10167 bound_to 10162
  156.0195  130.5373  150.6963 H   0  0  0  0  0  0  0  0  0  0  0  0  # atno 10718 bound_to 10713
  153.9691  135.6730  153.4746 H   0  0  0  0  0  0  0  0  0  0  0  0  # atno 10763 bound_to 10752
  153.0801  135.4928  154.8482 H   0  0  0  0  0  0  0  0  0  0  0  0  # atno 10764 bound_to 10752
  154.7229  135.3121  154.8979 H   0  0  0  0  0  0  0  0  0  0  0  0  # atno 10765 bound_to 10752
  141.1665  133.7209  156.8463 H   0  0  0  0  0  0  0  0  0  0  0  0  # atno 11005 bound_to 11000
  146.0807  139.3795  143.0466 LP  0  0  0  0  0  0  0  0  0  0  0  0  # atno 17320 bound_to 7965
  145.7844  140.9842  143.1082 LP  0  0  0  0  0  0  0  0  0  0  0  0  # atno 17321 bound_to 7965
  140.1783  144.4869  150.6542 LP  0  0  0  0  0  0  0  0  0  0  0  0  # atno 17342 bound_to 10162
  140.6673  143.2272  151.5711 LP  0  0  0  0  0  0  0  0  0  0  0  0  # atno 17343 bound_to 10162
  157.4633  131.0885  151.0722 LP  0  0  0  0  0  0  0  0  0  0  0  0  # atno 17370 bound_to 10713
  157.1203  130.6059  149.5503 LP  0  0  0  0  0  0  0  0  0  0  0  0  # atno 17371 bound_to 10713
  140.1947  134.8940  157.3101 LP  0  0  0  0  0  0  0  0  0  0  0  0  # atno 17394 bound_to 11000
  140.2252  134.3975  155.7547 LP  0  0  0  0  0  0  0  0  0  0  0  0  # atno 17395 bound_to 11000

$$$$
