AV-unprocessed.smi:3313|AV-procd|sdf|12729|dock5
  -GOLD-   2272019 73D 1   1.00000     0.00000
 Structure written by MMmdl.
 43 43  0  0  0  0  0  0  0  0  2 V2000
  147.3502  133.7964  153.3857 C   0  0  0  0  0  0  0  0  0  0  0  0
  146.2859  134.7877  152.8855 C   0  0  2  0  0  0  0  0  0  0  0  0
  145.9707  134.6040  151.3824 C   0  0  0  0  0  0  0  0  0  0  0  0
  145.2881  133.3548  151.0976 N   0  0  0  0  0  0  0  0  0  0  0  0
  143.9874  133.1589  150.6824 C   0  0  0  0  0  0  0  0  0  0  0  0
  143.8009  131.8122  150.5549 C   0  0  0  0  0  0  0  0  0  0  0  0
  145.0591  131.2597  150.9245 C   0  0  0  0  0  0  0  0  0  0  0  0
  145.9464  132.1857  151.2509 N   0  0  0  0  0  0  0  0  0  0  0  0
  146.7288  136.1697  153.1788 N   0  3  0  0  0  0  0  0  0  0  0  0
  145.7507  137.2311  152.8580 C   0  0  0  0  0  0  0  0  0  0  0  0
  146.4538  138.4696  152.2769 C   0  0  0  0  0  0  0  0  0  0  0  0
  147.1694  139.2985  153.3479 C   0  0  0  0  0  0  0  0  0  0  0  0
  148.2190  138.8894  153.8434 O   0  0  0  0  0  0  0  0  0  0  0  0
  146.5793  140.4578  153.6915 N   0  0  0  0  0  0  0  0  0  0  0  0
  147.0242  141.4516  154.6763 C   0  0  0  0  0  0  0  0  0  0  0  0
  148.5582  141.5240  154.5770 C   0  0  0  0  0  0  0  0  0  0  0  0
  146.6354  141.0166  156.1056 C   0  0  0  0  0  0  0  0  0  0  0  0
  146.4346  142.8401  154.3513 C   0  0  0  0  0  0  0  0  0  0  0  0
  147.0185  132.7631  153.2807 H   0  0  0  0  0  0  0  0  0  0  0  0
  147.5693  133.9563  154.4418 H   0  0  0  0  0  0  0  0  0  0  0  0
  148.2838  133.9036  152.8321 H   0  0  0  0  0  0  0  0  0  0  0  0
  145.3779  134.6032  153.4616 H   0  0  0  0  0  0  0  0  0  0  0  0
  145.3418  135.4136  151.0116 H   0  0  0  0  0  0  0  0  0  0  0  0
  146.8916  134.6337  150.7980 H   0  0  0  0  0  0  0  0  0  0  0  0
  143.3111  133.9836  150.5116 H   0  0  0  0  0  0  0  0  0  0  0  0
  142.9020  131.2991  150.2465 H   0  0  0  0  0  0  0  0  0  0  0  0
  145.3521  130.2208  150.9663 H   0  0  0  0  0  0  0  0  0  0  0  0
  146.9093  136.2228  154.1711 H   0  0  0  0  0  0  0  0  0  0  0  0
  145.0200  136.8469  152.1460 H   0  0  0  0  0  0  0  0  0  0  0  0
  145.2079  137.5058  153.7637 H   0  0  0  0  0  0  0  0  0  0  0  0
  147.1744  138.1590  151.5185 H   0  0  0  0  0  0  0  0  0  0  0  0
  145.7285  139.1121  151.7763 H   0  0  0  0  0  0  0  0  0  0  0  0
  145.7172  140.6820  153.2159 H   0  0  0  0  0  0  0  0  0  0  0  0
  148.9688  142.2452  155.2848 H   0  0  0  0  0  0  0  0  0  0  0  0
  148.8801  141.8264  153.5795 H   0  0  0  0  0  0  0  0  0  0  0  0
  149.0173  140.5580  154.7917 H   0  0  0  0  0  0  0  0  0  0  0  0
  147.0136  140.0196  156.3349 H   0  0  0  0  0  0  0  0  0  0  0  0
  145.5553  141.0015  156.2514 H   0  0  0  0  0  0  0  0  0  0  0  0
  147.0462  141.7009  156.8488 H   0  0  0  0  0  0  0  0  0  0  0  0
  146.8348  143.6025  155.0206 H   0  0  0  0  0  0  0  0  0  0  0  0
  145.3501  142.8608  154.4573 H   0  0  0  0  0  0  0  0  0  0  0  0
  146.6721  143.1439  153.3312 H   0  0  0  0  0  0  0  0  0  0  0  0
  147.5922  136.3509  152.6870 H   0  0  0  0  0  0  0  0  0  0  0  0
  1  2  1  0  0  0  0
  1 19  1  0  0  0  0
  1 20  1  0  0  0  0
  1 21  1  0  0  0  0
  2  3  1  0  0  0  0
  2  9  1  0  0  0  0
  2 22  1  0  0  0  0
  3  4  1  0  0  0  0
  3 23  1  0  0  0  0
  3 24  1  0  0  0  0
  4  8  1  0  0  0  0
  4  5  1  0  0  0  0
  5  6  2  0  0  0  0
  5 25  1  0  0  0  0
  6  7  1  0  0  0  0
  6 26  1  0  0  0  0
  7  8  2  0  0  0  0
  7 27  1  0  0  0  0
  9 10  1  0  0  0  0
  9 28  1  0  0  0  0
  9 43  1  0  0  0  0
 10 11  1  0  0  0  0
 10 29  1  0  0  0  0
 10 30  1  0  0  0  0
 11 12  1  0  0  0  0
 11 31  1  0  0  0  0
 11 32  1  0  0  0  0
 12 13  2  0  0  0  0
 12 14  1  0  0  0  0
 14 15  1  0  0  0  0
 14 33  1  0  0  0  0
 15 16  1  0  0  0  0
 15 17  1  0  0  0  0
 15 18  1  0  0  0  0
 16 34  1  0  0  0  0
 16 35  1  0  0  0  0
 16 36  1  0  0  0  0
 17 37  1  0  0  0  0
 17 38  1  0  0  0  0
 17 39  1  0  0  0  0
 18 40  1  0  0  0  0
 18 41  1  0  0  0  0
 18 42  1  0  0  0  0
M  CHG  1   9   1
M  END
> <s_m_source_file>
AV-unprocessed.smi

> <i_m_source_file_index>
3313

> <i_lp_mmshare_version>
43012

> <i_f3d_flags>
0

> <s_epik_input>
bjFbY0hdW2NIXVtjSF1uMVtDSDJdW0NAQEhdKFtDSDNdKVtOSF1bQ0gyXVtDSDJdQyg9TylbTkhdQyhbQ0gzXSkoW0NIM10pW0NIM10=

> <s_epik_cmdline>
J2VwaWtfcHl0aG9uJywgJy1waCcsICc3LjAnLCAnLXRuJywgJzgnLCAnLW1hJywgJzIwMCcsICctbWV0YWxfYmluZGluZycsICctaW1hZScsICc8aW5maWxlLm1hZT4nLCAnLW9tYWUnLCAnPG91dGZpbGUubWFlPic=

> <r_lp_tautomer_probability>
1

> <r_epik_Ionization_Penalty>
0.0056766

> <r_epik_Ionization_Penalty_Charging>
0.00567288

> <r_epik_Ionization_Penalty_Neutral>
3.71277e-06

> <r_epik_State_Penalty>
0.0041598

> <r_epik_Charging_Adjusted_Penalty>
0.00983268

> <i_epik_Tot_Q>
1

> <i_epik_Tot_abs_Q>
1

> <r_epik_Metal_State_Penalty>
-0

> <b_epik_Metal_Only>
0

> <s_lp_Force_Field>
OPLS_2005

> <r_lp_Energy>
7.49453

> <b_lp_Chiralities_Consistent>
1

> <s_lp_Variant>
AV-unprocessed.smi:3313-1

> <Gold.Version>
5.8.1

> <Gold.Id.Protein>
6NUR|6NUR_protein|mol2

> <Gold.PLP.Fitness>
46.2913

> <Gold.PLP.PLP>
-36.4411

> <Gold.PLP.part.hbond>
-2.0000

> <Gold.PLP.part.metal>
0.0000

> <Gold.PLP.part.buried>
-4.6517

> <Gold.PLP.part.nonpolar>
-30.4962

> <Gold.PLP.part.repulsive>
0.5738

> <Gold.PLP.ligand.clash>
0.0000

> <Gold.PLP.ligand.torsion>
1.1005

> <Gold.PLP.Chemscore.Hbond>
2.9920

> <Gold.PLP.Chemscore.CHOScore>
1.0000

> <Gold.PLP.Chemscore.Metal>
0.0000

> <Gold.Chemscore.Hbonds>
donor molecule, donor type, donor heavy atom, donor atom, acceptor molecule, acceptor atom, score
      L1  H     9    43       P1  7948  2.00
      L1  H    14    33       P1 10175  0.65
      L1  C     5    25       P1 10186  1.00

> <Gold.PLP.Chemscore.Internal.Correction>
0.0753

> <Gold.Rescore>
     Score         DG    S(hbond)    S(metal)    S(lipo)     H(rot)  DE(clash)    DE(int)     intcor
     12.89     -15.02       1.88        0.00      76.15       2.20       0.03       2.10       ----

> <Gold.Chemscore.Fitness>
12.8946

> <Gold.Chemscore.DG>
-15.0218

> <Gold.Chemscore.ZeroCoef>
-5.4800

> <Gold.Chemscore.Hbond>
1.8775

> <Gold.Chemscore.Metal>
0.0000

> <Gold.Chemscore.Lipo>
76.1521

> <Gold.Chemscore.Internal_Hbond>
0.0000

> <Gold.Chemscore.DEClash>
0.0299

> <Gold.Chemscore.DEInternal>
2.0972

> <Gold.Chemscore.Rot>
2.2027

> <Gold.Chemscore.Internal.Correction>
   9.000000E+99

> <Gold.Chemscore.Hbonds>
donor molecule, donor type, donor heavy atom, donor atom, acceptor molecule, acceptor atom, score
      L1  H     9    43       P1  7948  0.98
      L1  H    14    33       P1 10175  0.51

> <Gold.Chemscore.Hbond.Weighted>
-6.2710

> <Gold.Chemscore.Metal.Weighted>
-0.0000

> <Gold.Chemscore.Lipo.Weighted>
-8.9098

> <Gold.Chemscore.Internal_Hbond.Weighted>
0.0000

> <Gold.Chemscore.DEClash.Weighted>
0.0299

> <Gold.Chemscore.DEInternal.Weighted>
2.0972

> <Gold.Chemscore.Rot.Weighted>
5.6390

> <Gold.Chemscore.Internal.Correction.Weighted>
   9.000000E+99

> <Gold.Protein.RotatedTorsions>
[ 6907 6896 6895 6894 ] final  161.75 input  -60.11 | X-H torsion
[ 7974 7965 7964 7962 ] final  109.01 input  175.53 | X-H torsion
[ 8008 7997 7996 7995 ] final  -41.14 input   59.86 | X-H torsion
[ 10167 10162 10161 10158 ] final  -54.82 input  -65.29 | X-H torsion
[ 10718 10713 10712 10709 ] final  175.25 input   66.30 | X-H torsion
[ 10763 10752 10751 10750 ] final   60.22 input  -60.55 | X-H torsion
[ 11005 11000 10999 10996 ] final  152.28 input  -57.11 | X-H torsion

> <Gold.Protein.ActiveResidues>
 VAL166  LYS551  ARG553  GLY616  TRP617  ASP618  TYR619  PRO620  LYS621  CYS622 
 ASP623  PHE694  ASN695  SER759  ASP760  ASP761  ALA762  ILE779  LEU786  VAL792 
 PHE793  MET794  SER795  GLU796  ALA797  LYS798  CYS799  TRP800  GLU811  SER814 

> <Gold.Protein.RotatedAtoms>
  151.9509  133.3665  159.3999 H   0  0  0  0  0  0  0  0  0  0  0  0  # atno 6907 bound_to 6896
  150.6981  134.4341  159.5271 H   0  0  0  0  0  0  0  0  0  0  0  0  # atno 6908 bound_to 6896
  152.2014  134.8584  160.0558 H   0  0  0  0  0  0  0  0  0  0  0  0  # atno 6909 bound_to 6896
  145.2733  139.2659  143.3954 H   0  0  0  0  0  0  0  0  0  0  0  0  # atno 7974 bound_to 7965
  154.4006  140.1507  156.3141 H   0  0  0  0  0  0  0  0  0  0  0  0  # atno 8008 bound_to 7997
  155.8588  140.3454  155.5721 H   0  0  0  0  0  0  0  0  0  0  0  0  # atno 8009 bound_to 7997
  155.7902  140.0855  157.2003 H   0  0  0  0  0  0  0  0  0  0  0  0  # atno 8010 bound_to 7997
  140.6409  143.2507  151.4991 H   0  0  0  0  0  0  0  0  0  0  0  0  # atno 10167 bound_to 10162
  156.9376  130.9991  151.2975 H   0  0  0  0  0  0  0  0  0  0  0  0  # atno 10718 bound_to 10713
  152.9915  135.5544  154.5838 H   0  0  0  0  0  0  0  0  0  0  0  0  # atno 10763 bound_to 10752
  154.5214  135.2808  155.1261 H   0  0  0  0  0  0  0  0  0  0  0  0  # atno 10764 bound_to 10752
  154.2613  135.6380  153.5328 H   0  0  0  0  0  0  0  0  0  0  0  0  # atno 10765 bound_to 10752
  140.1294  134.8812  157.2182 H   0  0  0  0  0  0  0  0  0  0  0  0  # atno 11005 bound_to 11000
  146.3239  140.3181  142.8631 LP  0  0  0  0  0  0  0  0  0  0  0  0  # atno 17320 bound_to 7965
  144.9316  140.7981  143.5686 LP  0  0  0  0  0  0  0  0  0  0  0  0  # atno 17321 bound_to 7965
  139.5618  144.2137  152.1704 LP  0  0  0  0  0  0  0  0  0  0  0  0  # atno 17342 bound_to 10162
  140.1407  144.5204  150.6746 LP  0  0  0  0  0  0  0  0  0  0  0  0  # atno 17343 bound_to 10162
  157.5806  130.8373  149.8517 LP  0  0  0  0  0  0  0  0  0  0  0  0  # atno 17370 bound_to 10713
  156.0419  130.3737  150.1415 LP  0  0  0  0  0  0  0  0  0  0  0  0  # atno 17371 bound_to 10713
  140.2862  134.3293  155.7328 LP  0  0  0  0  0  0  0  0  0  0  0  0  # atno 17394 bound_to 11000
  141.2167  133.7507  156.9436 LP  0  0  0  0  0  0  0  0  0  0  0  0  # atno 17395 bound_to 11000

$$$$
