AV-unprocessed.smi:3179|AV-procd|sdf|12132|dock5
  -GOLD-   2272017573D 1   1.00000     0.00000
 Structure written by MMmdl.
 34 34  0  0  0  0  0  0  0  0  2 V2000
  146.4564  142.9445  154.2441 C   0  0  0  0  0  0  0  0  0  0  0  0
  147.4971  141.8862  153.8675 C   0  0  0  0  0  0  0  0  0  0  0  0
  148.6487  141.9252  154.7783 N   0  3  0  0  0  0  0  0  0  0  0  0
  149.5847  140.9638  154.9017 C   0  0  0  0  0  0  0  0  0  0  0  0
  149.5038  139.8451  154.1549 N   0  0  0  0  0  0  0  0  0  0  0  0
  150.4495  138.7217  154.1897 C   0  0  0  0  0  0  0  0  0  0  0  0
  149.8924  137.5533  155.0076 C   0  0  0  0  0  0  0  0  0  0  0  0
  150.6018  141.1202  155.7714 N   0  0  0  0  0  0  0  0  0  0  0  0
  150.8069  142.2772  156.6533 C   0  0  0  0  0  0  0  0  0  0  0  0
  151.0359  141.8356  158.1037 C   0  0  0  0  0  0  0  0  0  0  0  0
  151.4666  142.9624  158.9815 C   0  0  0  0  0  0  0  0  0  0  0  0
  151.7110  142.8262  160.2878 N   0  0  0  0  0  0  0  0  0  0  0  0
  152.0775  144.0316  160.8917 C   0  0  0  0  0  0  0  0  0  0  0  0
  152.0900  145.0956  160.0259 C   0  0  0  0  0  0  0  0  0  0  0  0
  151.6399  144.6192  158.4112 S   0  0  0  0  0  0  0  0  0  0  0  0
  145.6093  142.9144  153.5582 H   0  0  0  0  0  0  0  0  0  0  0  0
  146.8810  143.9480  154.2031 H   0  0  0  0  0  0  0  0  0  0  0  0
  146.0738  142.7808  155.2518 H   0  0  0  0  0  0  0  0  0  0  0  0
  147.0502  140.8924  153.8999 H   0  0  0  0  0  0  0  0  0  0  0  0
  147.8453  142.0528  152.8478 H   0  0  0  0  0  0  0  0  0  0  0  0
  148.7293  139.7586  153.5125 H   0  0  0  0  0  0  0  0  0  0  0  0
  150.6576  138.3989  153.1693 H   0  0  0  0  0  0  0  0  0  0  0  0
  151.3909  139.0635  154.6206 H   0  0  0  0  0  0  0  0  0  0  0  0
  150.6045  136.7283  155.0371 H   0  0  0  0  0  0  0  0  0  0  0  0
  148.9649  137.1760  154.5759 H   0  0  0  0  0  0  0  0  0  0  0  0
  149.6885  137.8527  156.0360 H   0  0  0  0  0  0  0  0  0  0  0  0
  151.2756  140.3720  155.8513 H   0  0  0  0  0  0  0  0  0  0  0  0
  151.6658  142.8478  156.2983 H   0  0  0  0  0  0  0  0  0  0  0  0
  149.9344  142.9281  156.5879 H   0  0  0  0  0  0  0  0  0  0  0  0
  150.1232  141.4009  158.5135 H   0  0  0  0  0  0  0  0  0  0  0  0
  151.7974  141.0559  158.1430 H   0  0  0  0  0  0  0  0  0  0  0  0
  152.3119  144.0415  161.9461 H   0  0  0  0  0  0  0  0  0  0  0  0
  152.3334  146.1259  160.2398 H   0  0  0  0  0  0  0  0  0  0  0  0
  148.7314  142.7468  155.3598 H   0  0  0  0  0  0  0  0  0  0  0  0
  1  2  1  0  0  0  0
  1 16  1  0  0  0  0
  1 17  1  0  0  0  0
  1 18  1  0  0  0  0
  2  3  1  0  0  0  0
  2 19  1  0  0  0  0
  2 20  1  0  0  0  0
  3  4  2  0  0  0  0
  3 34  1  0  0  0  0
  4  5  1  0  0  0  0
  4  8  1  0  0  0  0
  5  6  1  0  0  0  0
  5 21  1  0  0  0  0
  6  7  1  0  0  0  0
  6 22  1  0  0  0  0
  6 23  1  0  0  0  0
  7 24  1  0  0  0  0
  7 25  1  0  0  0  0
  7 26  1  0  0  0  0
  8  9  1  0  0  0  0
  8 27  1  0  0  0  0
  9 10  1  0  0  0  0
  9 28  1  0  0  0  0
  9 29  1  0  0  0  0
 10 11  1  0  0  0  0
 10 30  1  0  0  0  0
 10 31  1  0  0  0  0
 11 15  1  0  0  0  0
 11 12  2  0  0  0  0
 12 13  1  0  0  0  0
 13 14  2  0  0  0  0
 13 32  1  0  0  0  0
 14 15  1  0  0  0  0
 14 33  1  0  0  0  0
M  CHG  1   3   1
M  END
> <s_m_source_file>
AV-unprocessed.smi

> <i_m_source_file_index>
3179

> <i_lp_mmshare_version>
43012

> <i_f3d_flags>
0

> <s_epik_input>
W0NIM11bQ0gyXS9OPUMoXFtOSF1bQ0gyXVtDSDNdKVtOSF1bQ0gyXVtDSDJdYzFuW2NIXVtjSF1zMQ==

> <s_epik_cmdline>
J2VwaWtfcHl0aG9uJywgJy1waCcsICc3LjAnLCAnLXRuJywgJzgnLCAnLW1hJywgJzIwMCcsICctbWV0YWxfYmluZGluZycsICctaW1hZScsICc8aW5maWxlLm1hZT4nLCAnLW9tYWUnLCAnPG91dGZpbGUubWFlPic=

> <r_lp_tautomer_probability>
1

> <r_epik_Ionization_Penalty>
3.28801e-05

> <r_epik_Ionization_Penalty_Charging>
8.99277e-08

> <r_epik_Ionization_Penalty_Neutral>
3.27902e-05

> <r_epik_State_Penalty>
-0

> <r_epik_Charging_Adjusted_Penalty>
8.99277e-08

> <i_epik_Tot_Q>
1

> <i_epik_Tot_abs_Q>
1

> <r_epik_Metal_State_Penalty>
-0

> <b_epik_Metal_Only>
0

> <s_epik_Chemistry_Notes>
This compound has an imine and may undergo hydrolysis.

> <s_lp_Force_Field>
OPLS_2005

> <r_lp_Energy>
0.386487

> <b_lp_Chiralities_Consistent>
1

> <s_lp_Variant>
AV-unprocessed.smi:3179-1

> <Gold.Version>
5.8.1

> <Gold.Id.Protein>
6NUR|6NUR_protein|mol2

> <Gold.PLP.Fitness>
43.1076

> <Gold.PLP.PLP>
-37.6647

> <Gold.PLP.part.hbond>
-2.7069

> <Gold.PLP.part.metal>
0.0000

> <Gold.PLP.part.buried>
-6.2028

> <Gold.PLP.part.nonpolar>
-29.4108

> <Gold.PLP.part.repulsive>
0.5257

> <Gold.PLP.ligand.clash>
0.0000

> <Gold.PLP.ligand.torsion>
0.2880

> <Gold.PLP.Chemscore.Hbond>
2.0000

> <Gold.PLP.Chemscore.CHOScore>
0.0000

> <Gold.PLP.Chemscore.Metal>
0.0000

> <Gold.Chemscore.Hbonds>
donor molecule, donor type, donor heavy atom, donor atom, acceptor molecule, acceptor atom, score
      L1  H     3    34       P1  8028  2.00

> <Gold.PLP.Chemscore.Internal.Correction>
0.0190

> <Gold.Rescore>
     Score         DG    S(hbond)    S(metal)    S(lipo)     H(rot)  DE(clash)    DE(int)     intcor
     14.01     -14.28       0.94        0.00      85.97       1.72       0.04       0.23       ----

> <Gold.Chemscore.Fitness>
14.0095

> <Gold.Chemscore.DG>
-14.2784

> <Gold.Chemscore.ZeroCoef>
-5.4800

> <Gold.Chemscore.Hbond>
0.9400

> <Gold.Chemscore.Metal>
0.0000

> <Gold.Chemscore.Lipo>
85.9708

> <Gold.Chemscore.Internal_Hbond>
0.0000

> <Gold.Chemscore.DEClash>
0.0402

> <Gold.Chemscore.DEInternal>
0.2286

> <Gold.Chemscore.Rot>
1.7187

> <Gold.Chemscore.Internal.Correction>
   9.000000E+99

> <Gold.Chemscore.Hbonds>
donor molecule, donor type, donor heavy atom, donor atom, acceptor molecule, acceptor atom, score
      L1  H     3    34       P1  8028  0.94

> <Gold.Chemscore.Hbond.Weighted>
-3.1396

> <Gold.Chemscore.Metal.Weighted>
-0.0000

> <Gold.Chemscore.Lipo.Weighted>
-10.0586

> <Gold.Chemscore.Internal_Hbond.Weighted>
0.0000

> <Gold.Chemscore.DEClash.Weighted>
0.0402

> <Gold.Chemscore.DEInternal.Weighted>
0.2286

> <Gold.Chemscore.Rot.Weighted>
4.3998

> <Gold.Chemscore.Internal.Correction.Weighted>
   9.000000E+99

> <Gold.Protein.RotatedTorsions>
[ 6907 6896 6895 6894 ] final -179.96 input  -60.11 | X-H torsion
[ 7974 7965 7964 7962 ] final  101.35 input  175.53 | X-H torsion
[ 8008 7997 7996 7995 ] final  175.50 input   59.86 | X-H torsion
[ 10167 10162 10161 10158 ] final  172.59 input  -65.29 | X-H torsion
[ 10718 10713 10712 10709 ] final   76.50 input   66.30 | X-H torsion
[ 10763 10752 10751 10750 ] final   78.01 input  -60.55 | X-H torsion
[ 11005 11000 10999 10996 ] final  124.28 input  -57.11 | X-H torsion

> <Gold.Protein.ActiveResidues>
 VAL166  LYS551  ARG553  GLY616  TRP617  ASP618  TYR619  PRO620  LYS621  CYS622 
 ASP623  PHE694  ASN695  SER759  ASP760  ASP761  ALA762  ILE779  LEU786  VAL792 
 PHE793  MET794  SER795  GLU796  ALA797  LYS798  CYS799  TRP800  GLU811  SER814 

> <Gold.Protein.RotatedAtoms>
  151.6619  133.3316  159.3175 H   0  0  0  0  0  0  0  0  0  0  0  0  # atno 6907 bound_to 6896
  150.7909  134.6936  159.6520 H   0  0  0  0  0  0  0  0  0  0  0  0  # atno 6908 bound_to 6896
  152.3988  134.6324  160.0130 H   0  0  0  0  0  0  0  0  0  0  0  0  # atno 6909 bound_to 6896
  145.3735  139.2393  143.3442 H   0  0  0  0  0  0  0  0  0  0  0  0  # atno 7974 bound_to 7965
  156.0864  140.1407  156.9647 H   0  0  0  0  0  0  0  0  0  0  0  0  # atno 8008 bound_to 7997
  154.4615  140.0941  156.6955 H   0  0  0  0  0  0  0  0  0  0  0  0  # atno 8009 bound_to 7997
  155.4991  140.3450  155.4370 H   0  0  0  0  0  0  0  0  0  0  0  0  # atno 8010 bound_to 7997
  139.5081  144.3356  152.0068 H   0  0  0  0  0  0  0  0  0  0  0  0  # atno 10167 bound_to 10162
  157.6676  130.9777  150.1506 H   0  0  0  0  0  0  0  0  0  0  0  0  # atno 10718 bound_to 10713
  153.0842  135.4893  154.8563 H   0  0  0  0  0  0  0  0  0  0  0  0  # atno 10763 bound_to 10752
  154.7189  135.3035  154.9081 H   0  0  0  0  0  0  0  0  0  0  0  0  # atno 10764 bound_to 10752
  153.9751  135.6796  153.4801 H   0  0  0  0  0  0  0  0  0  0  0  0  # atno 10765 bound_to 10752
  139.9351  134.9640  156.8385 H   0  0  0  0  0  0  0  0  0  0  0  0  # atno 11005 bound_to 11000
  146.2874  140.4391  142.8752 LP  0  0  0  0  0  0  0  0  0  0  0  0  # atno 17320 bound_to 7965
  144.8559  140.7069  143.6138 LP  0  0  0  0  0  0  0  0  0  0  0  0  # atno 17321 bound_to 7965
  140.2795  144.3875  150.6124 LP  0  0  0  0  0  0  0  0  0  0  0  0  # atno 17342 bound_to 10162
  140.6029  143.2167  151.7038 LP  0  0  0  0  0  0  0  0  0  0  0  0  # atno 17343 bound_to 10162
  156.2306  130.3682  149.8449 LP  0  0  0  0  0  0  0  0  0  0  0  0  # atno 17370 bound_to 10713
  156.6277  130.8653  151.3489 LP  0  0  0  0  0  0  0  0  0  0  0  0  # atno 17371 bound_to 10713
  140.6097  134.0094  155.7571 LP  0  0  0  0  0  0  0  0  0  0  0  0  # atno 17394 bound_to 11000
  141.0961  133.9842  157.3158 LP  0  0  0  0  0  0  0  0  0  0  0  0  # atno 17395 bound_to 11000

$$$$
