AV-unprocessed.smi:149|AV-procd|sdf|1238|dock5
  -GOLD-   2262018453D 1   1.00000     0.00000
 Structure written by MMmdl.
 59 63  0  0  0  0  0  0  0  0  1 V2000
  151.1545  129.7464  158.7242 C   0  0  0  0  0  0  0  0  0  0  0  0
  151.4484  129.9223  157.2234 C   0  0  2  0  0  0  0  0  0  0  0  0
  150.5717  131.0381  156.6260 C   0  0  0  0  0  0  0  0  0  0  0  0
  149.8394  130.4461  155.5222 N   0  0  0  0  0  0  0  0  0  0  0  0
  149.2012  131.2305  154.6124 C   0  0  0  0  0  0  0  0  0  0  0  0
  149.5884  132.5286  154.4883 N   0  0  0  0  0  0  0  0  0  0  0  0
  148.9984  133.3351  153.6024 C   0  0  0  0  0  0  0  0  0  0  0  0
  148.0186  133.0540  152.7434 N   0  0  0  0  0  0  0  0  0  0  0  0
  147.6291  131.7516  152.8481 C   0  0  0  0  0  0  0  0  0  0  0  0
  148.1556  130.7812  153.7500 C   0  0  0  0  0  0  0  0  0  0  0  0
  147.4956  129.5708  153.5626 N   0  0  0  0  0  0  0  0  0  0  0  0
  146.6291  129.8140  152.6184 C   0  0  0  0  0  0  0  0  0  0  0  0
  146.6624  131.0916  152.1095 N   0  0  0  0  0  0  0  0  0  0  0  0
  145.8087  131.6369  151.0949 C   0  0  0  0  0  0  0  0  0  0  0  0
  146.1142  132.9863  150.4359 C   0  0  0  0  0  0  0  0  0  0  0  0
  144.5957  133.2475  150.2967 C   0  0  0  0  0  0  0  0  0  0  0  0
  144.0931  134.6791  150.5699 C   0  0  0  0  0  0  0  0  0  0  0  0
  144.6110  135.6218  149.6525 O   0  0  0  0  0  0  0  0  0  0  0  0
  143.9627  132.7899  148.9689 C   0  0  0  0  0  0  0  0  0  0  0  0
  142.7588  132.0822  149.1847 O   0  0  0  0  0  0  0  0  0  0  0  0
  144.4422  132.2312  151.4511 C   0  0  0  0  0  0  0  0  0  0  0  0
  150.5286  129.2407  155.1050 C   0  0  0  0  0  0  0  0  0  0  0  0
  151.1614  128.6559  156.3765 C   0  0  1  0  0  0  0  0  0  0  0  0
  152.3178  127.7904  156.0883 N   0  0  0  0  0  0  0  0  0  0  0  0
  153.3519  128.5028  155.3345 C   0  0  0  0  0  0  0  0  0  0  0  0
  154.5649  127.6114  155.0179 C   0  0  0  0  0  0  0  0  0  0  0  0
  154.1347  126.4623  154.2985 O   0  0  0  0  0  0  0  0  0  0  0  0
  153.1700  125.7041  155.0178 C   0  0  0  0  0  0  0  0  0  0  0  0
  151.9521  126.5864  155.3431 C   0  0  0  0  0  0  0  0  0  0  0  0
  150.1091  129.4851  158.8926 H   0  0  0  0  0  0  0  0  0  0  0  0
  151.3554  130.6695  159.2686 H   0  0  0  0  0  0  0  0  0  0  0  0
  151.7625  128.9655  159.1773 H   0  0  0  0  0  0  0  0  0  0  0  0
  152.4912  130.2159  157.0941 H   0  0  0  0  0  0  0  0  0  0  0  0
  149.8691  131.4245  157.3647 H   0  0  0  0  0  0  0  0  0  0  0  0
  151.1859  131.8690  156.2762 H   0  0  0  0  0  0  0  0  0  0  0  0
  149.3678  134.3497  153.5748 H   0  0  0  0  0  0  0  0  0  0  0  0
  145.9448  129.0584  152.2603 H   0  0  0  0  0  0  0  0  0  0  0  0
  145.7039  130.8555  150.3403 H   0  0  0  0  0  0  0  0  0  0  0  0
  146.6132  133.6771  151.1175 H   0  0  0  0  0  0  0  0  0  0  0  0
  146.6597  132.9118  149.4949 H   0  0  0  0  0  0  0  0  0  0  0  0
  143.0056  134.7324  150.5137 H   0  0  0  0  0  0  0  0  0  0  0  0
  144.3722  135.0023  151.5734 H   0  0  0  0  0  0  0  0  0  0  0  0
  145.0875  135.1571  148.9815 H   0  0  0  0  0  0  0  0  0  0  0  0
  143.7391  133.6376  148.3209 H   0  0  0  0  0  0  0  0  0  0  0  0
  144.6466  132.1520  148.4081 H   0  0  0  0  0  0  0  0  0  0  0  0
  142.0904  132.6982  149.4432 H   0  0  0  0  0  0  0  0  0  0  0  0
  143.6090  131.5360  151.3430 H   0  0  0  0  0  0  0  0  0  0  0  0
  144.4384  132.6864  152.4428 H   0  0  0  0  0  0  0  0  0  0  0  0
  149.8402  128.5321  154.6430 H   0  0  0  0  0  0  0  0  0  0  0  0
  151.2951  129.5038  154.3739 H   0  0  0  0  0  0  0  0  0  0  0  0
  150.3931  128.0738  156.8886 H   0  0  0  0  0  0  0  0  0  0  0  0
  152.9327  128.8832  154.4018 H   0  0  0  0  0  0  0  0  0  0  0  0
  153.7023  129.3696  155.8944 H   0  0  0  0  0  0  0  0  0  0  0  0
  155.2902  128.1579  154.4152 H   0  0  0  0  0  0  0  0  0  0  0  0
  155.0728  127.3084  155.9349 H   0  0  0  0  0  0  0  0  0  0  0  0
  152.8669  124.8487  154.4141 H   0  0  0  0  0  0  0  0  0  0  0  0
  153.6153  125.3092  155.9322 H   0  0  0  0  0  0  0  0  0  0  0  0
  151.2524  125.9858  155.9224 H   0  0  0  0  0  0  0  0  0  0  0  0
  151.4462  126.8623  154.4166 H   0  0  0  0  0  0  0  0  0  0  0  0
  1  2  1  0  0  0  0
  1 30  1  0  0  0  0
  1 31  1  0  0  0  0
  1 32  1  0  0  0  0
  2 23  1  0  0  0  0
  2  3  1  0  0  0  0
  2 33  1  0  0  0  0
  3  4  1  0  0  0  0
  3 34  1  0  0  0  0
  3 35  1  0  0  0  0
  4  5  1  0  0  0  0
  4 22  1  0  0  0  0
  5 10  1  0  0  0  0
  5  6  2  0  0  0  0
  6  7  1  0  0  0  0
  7  8  2  0  0  0  0
  7 36  1  0  0  0  0
  8  9  1  0  0  0  0
  9 13  1  0  0  0  0
  9 10  2  0  0  0  0
 10 11  1  0  0  0  0
 11 12  2  0  0  0  0
 12 13  1  0  0  0  0
 12 37  1  0  0  0  0
 13 14  1  0  0  0  0
 14 21  1  0  0  0  0
 14 15  1  0  0  0  0
 14 38  1  0  0  0  0
 15 16  1  0  0  0  0
 15 39  1  0  0  0  0
 15 40  1  0  0  0  0
 16 17  1  0  0  0  0
 16 19  1  0  0  0  0
 16 21  1  0  0  0  0
 17 18  1  0  0  0  0
 17 41  1  0  0  0  0
 17 42  1  0  0  0  0
 18 43  1  0  0  0  0
 19 20  1  0  0  0  0
 19 44  1  0  0  0  0
 19 45  1  0  0  0  0
 20 46  1  0  0  0  0
 21 47  1  0  0  0  0
 21 48  1  0  0  0  0
 22 23  1  0  0  0  0
 22 49  1  0  0  0  0
 22 50  1  0  0  0  0
 23 24  1  0  0  0  0
 23 51  1  0  0  0  0
 24 29  1  0  0  0  0
 24 25  1  0  0  0  0
 25 26  1  0  0  0  0
 25 52  1  0  0  0  0
 25 53  1  0  0  0  0
 26 27  1  0  0  0  0
 26 54  1  0  0  0  0
 26 55  1  0  0  0  0
 27 28  1  0  0  0  0
 28 29  1  0  0  0  0
 28 56  1  0  0  0  0
 28 57  1  0  0  0  0
 29 58  1  0  0  0  0
 29 59  1  0  0  0  0
M  END
> <s_m_source_file>
AV-unprocessed.smi

> <i_m_source_file_index>
149

> <i_lp_mmshare_version>
43012

> <i_f3d_flags>
0

> <s_epik_input>
W0NIMl0xW0NIMl1PW0NIMl1bQ0gyXU4xW0NAQEhdMltDSDJdTihbQ0gyXVtDQEhdMltDSDNdKWMobltjSF1uMyljKGMzNCluW2NIXW40W0NIXShbQ0gyXTUpW0NIMl1DNShbQ0gyXVtPSF0pW0NIMl1bT0hd

> <s_epik_cmdline>
J2VwaWtfcHl0aG9uJywgJy1waCcsICc3LjAnLCAnLXRuJywgJzgnLCAnLW1hJywgJzIwMCcsICctbWV0YWxfYmluZGluZycsICctaW1hZScsICc8aW5maWxlLm1hZT4nLCAnLW9tYWUnLCAnPG91dGZpbGUubWFlPic=

> <r_lp_tautomer_probability>
1

> <r_epik_Ionization_Penalty>
0.41918

> <r_epik_Ionization_Penalty_Charging>
0

> <r_epik_Ionization_Penalty_Neutral>
0.41918

> <r_epik_State_Penalty>
0.654916

> <r_epik_Charging_Adjusted_Penalty>
0.654916

> <i_epik_Tot_Q>
0

> <i_epik_Tot_abs_Q>
0

> <r_epik_Metal_State_Penalty>
0.653217

> <b_epik_Metal_Only>
0

> <s_lp_Force_Field>
OPLS_2005

> <r_lp_Energy>
75.7626

> <b_lp_Chiralities_Consistent>
1

> <s_lp_Variant>
AV-unprocessed.smi:149-5

> <Gold.Version>
5.8.1

> <Gold.Id.Protein>
6NUR|6NUR_protein|mol2

> <Gold.PLP.Fitness>
48.7342

> <Gold.PLP.PLP>
-40.9104

> <Gold.PLP.part.hbond>
-4.9653

> <Gold.PLP.part.metal>
0.0000

> <Gold.PLP.part.buried>
-4.3090

> <Gold.PLP.part.nonpolar>
-33.5689

> <Gold.PLP.part.repulsive>
0.4634

> <Gold.PLP.ligand.clash>
0.0000

> <Gold.PLP.ligand.torsion>
1.5874

> <Gold.PLP.Chemscore.Hbond>
2.9588

> <Gold.PLP.Chemscore.CHOScore>
0.3859

> <Gold.PLP.Chemscore.Metal>
0.0000

> <Gold.Chemscore.Hbonds>
donor molecule, donor type, donor heavy atom, donor atom, acceptor molecule, acceptor atom, score
      L1  H    18    43       P1  7921  1.00
      L1  H    20    46       P1 10186  1.00
      P1  H 10785 10796       L1    20  0.99
      L1  C     7    36       P1  7948  0.44

> <Gold.PLP.Chemscore.Internal.Correction>
0.9645

> <Gold.Rescore>
     Score         DG    S(hbond)    S(metal)    S(lipo)     H(rot)  DE(clash)    DE(int)     intcor
     12.02     -15.07       2.63        0.00      80.09       3.34       0.40       2.64       ----

> <Gold.Chemscore.Fitness>
12.0248

> <Gold.Chemscore.DG>
-15.0705

> <Gold.Chemscore.ZeroCoef>
-5.4800

> <Gold.Chemscore.Hbond>
2.6272

> <Gold.Chemscore.Metal>
0.0000

> <Gold.Chemscore.Lipo>
80.0864

> <Gold.Chemscore.Internal_Hbond>
0.0000

> <Gold.Chemscore.DEClash>
0.4009

> <Gold.Chemscore.DEInternal>
2.6448

> <Gold.Chemscore.Rot>
3.3416

> <Gold.Chemscore.Internal.Correction>
   9.000000E+99

> <Gold.Chemscore.Hbonds>
donor molecule, donor type, donor heavy atom, donor atom, acceptor molecule, acceptor atom, score
      L1  H    18    43       P1  7921  1.00
      L1  H    20    46       P1 10186  0.93
      P1  H 10785 10796       L1    20  0.46

> <Gold.Chemscore.Hbond.Weighted>
-8.7749

> <Gold.Chemscore.Metal.Weighted>
-0.0000

> <Gold.Chemscore.Lipo.Weighted>
-9.3701

> <Gold.Chemscore.Internal_Hbond.Weighted>
0.0000

> <Gold.Chemscore.DEClash.Weighted>
0.4009

> <Gold.Chemscore.DEInternal.Weighted>
2.6448

> <Gold.Chemscore.Rot.Weighted>
8.5545

> <Gold.Chemscore.Internal.Correction.Weighted>
   9.000000E+99

> <Gold.Protein.RotatedTorsions>
[ 6907 6896 6895 6894 ] final   24.44 input  -60.11 | X-H torsion
[ 7974 7965 7964 7962 ] final  115.36 input  175.53 | X-H torsion
[ 8008 7997 7996 7995 ] final  130.26 input   59.86 | X-H torsion
[ 10167 10162 10161 10158 ] final   86.66 input  -65.29 | X-H torsion
[ 10718 10713 10712 10709 ] final  143.37 input   66.30 | X-H torsion
[ 10763 10752 10751 10750 ] final   61.29 input  -60.55 | X-H torsion
[ 11005 11000 10999 10996 ] final  -20.86 input  -57.11 | X-H torsion

> <Gold.Protein.ActiveResidues>
 VAL166  LYS551  ARG553  GLY616  TRP617  ASP618  TYR619  PRO620  LYS621  CYS622 
 ASP623  PHE694  ASN695  SER759  ASP760  ASP761  ALA762  ILE779  LEU786  VAL792 
 PHE793  MET794  SER795  GLU796  ALA797  LYS798  CYS799  TRP800  GLU811  SER814 

> <Gold.Protein.RotatedAtoms>
  151.9575  135.0139  160.0545 H   0  0  0  0  0  0  0  0  0  0  0  0  # atno 6907 bound_to 6896
  152.1898  133.4760  159.5010 H   0  0  0  0  0  0  0  0  0  0  0  0  # atno 6908 bound_to 6896
  150.6933  134.1644  159.4231 H   0  0  0  0  0  0  0  0  0  0  0  0  # atno 6909 bound_to 6896
  145.1930  139.2991  143.4358 H   0  0  0  0  0  0  0  0  0  0  0  0  # atno 7974 bound_to 7965
  156.2951  140.2600  156.2732 H   0  0  0  0  0  0  0  0  0  0  0  0  # atno 8008 bound_to 7997
  154.9674  140.0391  157.2237 H   0  0  0  0  0  0  0  0  0  0  0  0  # atno 8009 bound_to 7997
  154.7890  140.2808  155.6010 H   0  0  0  0  0  0  0  0  0  0  0  0  # atno 8010 bound_to 7997
  139.8853  144.6417  150.8798 H   0  0  0  0  0  0  0  0  0  0  0  0  # atno 10167 bound_to 10162
  157.3697  131.0977  151.0840 H   0  0  0  0  0  0  0  0  0  0  0  0  # atno 10718 bound_to 10713
  152.9946  135.5506  154.6010 H   0  0  0  0  0  0  0  0  0  0  0  0  # atno 10763 bound_to 10752
  154.5352  135.2816  155.1147 H   0  0  0  0  0  0  0  0  0  0  0  0  # atno 10764 bound_to 10752
  154.2447  135.6410  153.5272 H   0  0  0  0  0  0  0  0  0  0  0  0  # atno 10765 bound_to 10752
  140.8505  133.7860  155.9961 H   0  0  0  0  0  0  0  0  0  0  0  0  # atno 11005 bound_to 11000
  146.3432  140.2149  142.8590 LP  0  0  0  0  0  0  0  0  0  0  0  0  # atno 17320 bound_to 7965
  145.0023  140.8642  143.5274 LP  0  0  0  0  0  0  0  0  0  0  0  0  # atno 17321 bound_to 7965
  140.7737  143.3553  151.1933 LP  0  0  0  0  0  0  0  0  0  0  0  0  # atno 17342 bound_to 10162
  139.7159  143.9301  152.2966 LP  0  0  0  0  0  0  0  0  0  0  0  0  # atno 17343 bound_to 10162
  157.1948  130.6368  149.5717 LP  0  0  0  0  0  0  0  0  0  0  0  0  # atno 17370 bound_to 10713
  155.9753  130.4710  150.6449 LP  0  0  0  0  0  0  0  0  0  0  0  0  # atno 17371 bound_to 10713
  140.8795  134.2629  157.5151 LP  0  0  0  0  0  0  0  0  0  0  0  0  # atno 17394 bound_to 11000
  139.8704  134.9608  156.4375 LP  0  0  0  0  0  0  0  0  0  0  0  0  # atno 17395 bound_to 11000

$$$$
