AV-unprocessed.smi:3229|AV-procd|sdf|12327|dock10
  -GOLD-   2272018173D 1   1.00000     0.00000
 Structure written by MMmdl.
 35 36  0  0  0  0  0  0  0  0  1 V2000
  151.4442  145.0447  158.5522 C   0  0  0  0  0  0  0  0  0  0  0  0
  151.5799  145.0694  160.0786 C   0  0  0  0  0  0  0  0  0  0  0  0
  152.2663  143.8630  160.6293 C   0  0  0  0  0  0  0  0  0  0  0  0
  152.5522  143.5904  161.9441 C   0  0  0  0  0  0  0  0  0  0  0  0
  153.2064  142.3725  162.1392 N   0  0  0  0  0  0  0  0  0  0  0  0
  153.4282  141.7223  160.9937 C   0  0  0  0  0  0  0  0  0  0  0  0
  154.0800  140.3786  160.9168 C   0  0  0  0  0  0  0  0  0  0  0  0
  155.0914  140.2396  159.7617 C   0  0  0  0  0  0  0  0  0  0  0  0
  156.3996  140.8015  160.0831 N   0  0  0  0  0  0  0  0  0  0  0  0
  157.5104  140.6462  159.3460 C   0  0  0  0  0  0  0  0  0  0  0  0
  157.5435  139.9745  158.3146 O   0  0  0  0  0  0  0  0  0  0  0  0
  158.7639  141.3863  159.8305 C   0  0  2  0  0  0  0  0  0  0  0  0
  159.4756  142.2065  158.7497 C   0  0  0  0  0  0  0  0  0  0  0  0
  160.8970  142.2220  159.2649 C   0  0  0  0  0  0  0  0  0  0  0  0
  161.0367  140.8167  159.8403 C   0  0  0  0  0  0  0  0  0  0  0  0
  159.7374  140.4505  160.2970 O   0  0  0  0  0  0  0  0  0  0  0  0
  152.8152  142.5774  159.5837 S   0  0  0  0  0  0  0  0  0  0  0  0
  150.9285  145.9360  158.1942 H   0  0  0  0  0  0  0  0  0  0  0  0
  150.8747  144.1751  158.2225 H   0  0  0  0  0  0  0  0  0  0  0  0
  152.4208  145.0095  158.0689 H   0  0  0  0  0  0  0  0  0  0  0  0
  152.1270  145.9636  160.3785 H   0  0  0  0  0  0  0  0  0  0  0  0
  150.5888  145.1590  160.5248 H   0  0  0  0  0  0  0  0  0  0  0  0
  152.3257  144.2049  162.8029 H   0  0  0  0  0  0  0  0  0  0  0  0
  154.5796  140.1812  161.8656 H   0  0  0  0  0  0  0  0  0  0  0  0
  153.3008  139.6213  160.8215 H   0  0  0  0  0  0  0  0  0  0  0  0
  155.2368  139.1837  159.5333 H   0  0  0  0  0  0  0  0  0  0  0  0
  154.6969  140.6990  158.8542 H   0  0  0  0  0  0  0  0  0  0  0  0
  156.4620  141.3729  160.9135 H   0  0  0  0  0  0  0  0  0  0  0  0
  158.4942  142.0342  160.6661 H   0  0  0  0  0  0  0  0  0  0  0  0
  159.4360  141.7082  157.7793 H   0  0  0  0  0  0  0  0  0  0  0  0
  159.0600  143.2085  158.6382 H   0  0  0  0  0  0  0  0  0  0  0  0
  161.6335  142.4427  158.4917 H   0  0  0  0  0  0  0  0  0  0  0  0
  160.9987  142.9644  160.0576 H   0  0  0  0  0  0  0  0  0  0  0  0
  161.3380  140.1160  159.0606 H   0  0  0  0  0  0  0  0  0  0  0  0
  161.7722  140.7657  160.6434 H   0  0  0  0  0  0  0  0  0  0  0  0
  1  2  1  0  0  0  0
  1 18  1  0  0  0  0
  1 19  1  0  0  0  0
  1 20  1  0  0  0  0
  2  3  1  0  0  0  0
  2 21  1  0  0  0  0
  2 22  1  0  0  0  0
  3 17  1  0  0  0  0
  3  4  2  0  0  0  0
  4  5  1  0  0  0  0
  4 23  1  0  0  0  0
  5  6  2  0  0  0  0
  6  7  1  0  0  0  0
  6 17  1  0  0  0  0
  7  8  1  0  0  0  0
  7 24  1  0  0  0  0
  7 25  1  0  0  0  0
  8  9  1  0  0  0  0
  8 26  1  0  0  0  0
  8 27  1  0  0  0  0
  9 10  1  0  0  0  0
  9 28  1  0  0  0  0
 10 11  2  0  0  0  0
 10 12  1  0  0  0  0
 12 16  1  0  0  0  0
 12 13  1  0  0  0  0
 12 29  1  0  0  0  0
 13 14  1  0  0  0  0
 13 30  1  0  0  0  0
 13 31  1  0  0  0  0
 14 15  1  0  0  0  0
 14 32  1  0  0  0  0
 14 33  1  0  0  0  0
 15 16  1  0  0  0  0
 15 34  1  0  0  0  0
 15 35  1  0  0  0  0
M  END
> <s_m_source_file>
AV-unprocessed.smi

> <i_m_source_file_index>
3229

> <i_lp_mmshare_version>
43012

> <i_f3d_flags>
0

> <s_epik_input>
W0NIM11bQ0gyXWMxW2NIXW5jKHMxKVtDSDJdW0NIMl1bTkhdQyg9TylbQ0BASF0yW0NIMl1bQ0gyXVtDSDJdTzI=

> <s_epik_cmdline>
J2VwaWtfcHl0aG9uJywgJy1waCcsICc3LjAnLCAnLXRuJywgJzgnLCAnLW1hJywgJzIwMCcsICctbWV0YWxfYmluZGluZycsICctaW1hZScsICc8aW5maWxlLm1hZT4nLCAnLW9tYWUnLCAnPG91dGZpbGUubWFlPic=

> <r_epik_Ionization_Penalty>
0.000508191

> <r_epik_Ionization_Penalty_Charging>
0

> <r_epik_Ionization_Penalty_Neutral>
0.000508191

> <r_epik_State_Penalty>
0.000316483

> <r_epik_Charging_Adjusted_Penalty>
0.000316483

> <i_epik_Tot_Q>
0

> <i_epik_Tot_abs_Q>
0

> <r_epik_Metal_State_Penalty>
-0

> <b_epik_Metal_Only>
0

> <s_lp_Force_Field>
OPLS_2005

> <r_lp_Energy>
9.62318

> <b_lp_Chiralities_Consistent>
1

> <s_lp_Variant>
AV-unprocessed.smi:3229-1

> <Gold.Version>
5.8.1

> <Gold.Id.Protein>
6NUR|6NUR_protein|mol2

> <Gold.PLP.Fitness>
42.9148

> <Gold.PLP.PLP>
-41.0448

> <Gold.PLP.part.hbond>
-2.0000

> <Gold.PLP.part.metal>
0.0000

> <Gold.PLP.part.buried>
-6.6636

> <Gold.PLP.part.nonpolar>
-34.6560

> <Gold.PLP.part.repulsive>
1.5004

> <Gold.PLP.ligand.clash>
0.0000

> <Gold.PLP.ligand.torsion>
0.5822

> <Gold.PLP.Chemscore.Hbond>
1.0000

> <Gold.PLP.Chemscore.CHOScore>
0.0000

> <Gold.PLP.Chemscore.Metal>
0.0000

> <Gold.Chemscore.Hbonds>
donor molecule, donor type, donor heavy atom, donor atom, acceptor molecule, acceptor atom, score
      P1  H  7997  8010       L1    11  1.00

> <Gold.PLP.Chemscore.Internal.Correction>
0.0344

> <Gold.Rescore>
     Score         DG    S(hbond)    S(metal)    S(lipo)     H(rot)  DE(clash)    DE(int)     intcor
     17.72     -18.43       0.99        0.00     117.59       1.60       0.29       0.42       ----

> <Gold.Chemscore.Fitness>
17.7239

> <Gold.Chemscore.DG>
-18.4327

> <Gold.Chemscore.ZeroCoef>
-5.4800

> <Gold.Chemscore.Hbond>
0.9883

> <Gold.Chemscore.Metal>
0.0000

> <Gold.Chemscore.Lipo>
117.5906

> <Gold.Chemscore.Internal_Hbond>
0.0000

> <Gold.Chemscore.DEClash>
0.2916

> <Gold.Chemscore.DEInternal>
0.4172

> <Gold.Chemscore.Rot>
1.6040

> <Gold.Chemscore.Internal.Correction>
   9.000000E+99

> <Gold.Chemscore.Hbonds>
donor molecule, donor type, donor heavy atom, donor atom, acceptor molecule, acceptor atom, score
      P1  H  7997  8010       L1    11  0.96

> <Gold.Chemscore.Hbond.Weighted>
-3.3008

> <Gold.Chemscore.Metal.Weighted>
-0.0000

> <Gold.Chemscore.Lipo.Weighted>
-13.7581

> <Gold.Chemscore.Internal_Hbond.Weighted>
0.0000

> <Gold.Chemscore.DEClash.Weighted>
0.2916

> <Gold.Chemscore.DEInternal.Weighted>
0.4172

> <Gold.Chemscore.Rot.Weighted>
4.1062

> <Gold.Chemscore.Internal.Correction.Weighted>
   9.000000E+99

> <Gold.Protein.RotatedTorsions>
[ 6907 6896 6895 6894 ] final  177.83 input  -60.11 | X-H torsion
[ 7974 7965 7964 7962 ] final  -43.34 input  175.53 | X-H torsion
[ 8008 7997 7996 7995 ] final  -61.16 input   59.86 | X-H torsion
[ 10167 10162 10161 10158 ] final   67.60 input  -65.29 | X-H torsion
[ 10718 10713 10712 10709 ] final  132.85 input   66.30 | X-H torsion
[ 10763 10752 10751 10750 ] final -178.74 input  -60.55 | X-H torsion
[ 11005 11000 10999 10996 ] final  106.46 input  -57.11 | X-H torsion

> <Gold.Protein.ActiveResidues>
 VAL166  LYS551  ARG553  GLY616  TRP617  ASP618  TYR619  PRO620  LYS621  CYS622 
 ASP623  PHE694  ASN695  SER759  ASP760  ASP761  ALA762  ILE779  LEU786  VAL792 
 PHE793  MET794  SER795  GLU796  ALA797  LYS798  CYS799  TRP800  GLU811  SER814 

> <Gold.Protein.RotatedAtoms>
  151.6976  133.3311  159.3258 H   0  0  0  0  0  0  0  0  0  0  0  0  # atno 6907 bound_to 6896
  150.7750  134.6644  159.6366 H   0  0  0  0  0  0  0  0  0  0  0  0  # atno 6908 bound_to 6896
  152.3789  134.6623  160.0202 H   0  0  0  0  0  0  0  0  0  0  0  0  # atno 6909 bound_to 6896
  146.0029  140.7054  142.9262 H   0  0  0  0  0  0  0  0  0  0  0  0  # atno 7974 bound_to 7965
  154.4434  140.1024  156.6387 H   0  0  0  0  0  0  0  0  0  0  0  0  # atno 8008 bound_to 7997
  155.5525  140.3486  155.4453 H   0  0  0  0  0  0  0  0  0  0  0  0  # atno 8009 bound_to 7997
  156.0518  140.1306  157.0030 H   0  0  0  0  0  0  0  0  0  0  0  0  # atno 8010 bound_to 7997
  140.0877  144.5015  150.7119 H   0  0  0  0  0  0  0  0  0  0  0  0  # atno 10167 bound_to 10162
  157.4831  131.1087  150.9656 H   0  0  0  0  0  0  0  0  0  0  0  0  # atno 10718 bound_to 10713
  154.5439  135.2808  155.1071 H   0  0  0  0  0  0  0  0  0  0  0  0  # atno 10763 bound_to 10752
  154.2543  135.6333  153.5255 H   0  0  0  0  0  0  0  0  0  0  0  0  # atno 10764 bound_to 10752
  152.9985  135.5590  154.5985 H   0  0  0  0  0  0  0  0  0  0  0  0  # atno 10765 bound_to 10752
  139.8814  134.9370  156.5670 H   0  0  0  0  0  0  0  0  0  0  0  0  # atno 11005 bound_to 11000
  144.6925  140.3264  143.7223 LP  0  0  0  0  0  0  0  0  0  0  0  0  # atno 17320 bound_to 7965
  145.7461  139.1779  143.2348 LP  0  0  0  0  0  0  0  0  0  0  0  0  # atno 17321 bound_to 7965
  140.7045  143.2458  151.4768 LP  0  0  0  0  0  0  0  0  0  0  0  0  # atno 17342 bound_to 10162
  139.5742  144.1856  152.1880 LP  0  0  0  0  0  0  0  0  0  0  0  0  # atno 17343 bound_to 10162
  157.0383  130.5739  149.5352 LP  0  0  0  0  0  0  0  0  0  0  0  0  # atno 17370 bound_to 10713
  156.0132  130.5225  150.8053 LP  0  0  0  0  0  0  0  0  0  0  0  0  # atno 17371 bound_to 10713
  140.8126  133.8417  155.8824 LP  0  0  0  0  0  0  0  0  0  0  0  0  # atno 17394 bound_to 11000
  140.9492  134.1801  157.4741 LP  0  0  0  0  0  0  0  0  0  0  0  0  # atno 17395 bound_to 11000

$$$$
