AV-unprocessed.smi:2676|AV-procd|sdf|10364|dock6
  -GOLD-   2272014393D 1   1.00000     0.00000
 Structure written by MMmdl.
 40 41  0  0  0  0  0  0  0  0  1 V2000
  148.7974  141.5948  154.4837 C   0  0  0  0  0  0  0  0  0  0  0  0
  149.4708  140.8908  155.4055 C   0  0  0  0  0  0  0  0  0  0  0  0
  149.5623  141.2645  156.8742 C   0  0  0  0  0  0  0  0  0  0  0  0
  150.1323  140.1617  157.6805 N   0  0  0  0  0  0  0  0  0  0  0  0
  151.3769  140.3243  158.2214 C   0  0  0  0  0  0  0  0  0  0  0  0
  152.0299  141.3571  158.0439 O   0  0  0  0  0  0  0  0  0  0  0  0
  151.8694  139.2829  158.9571 N   0  0  0  0  0  0  0  0  0  0  0  0
  153.2182  139.4130  159.5528 C   0  0  0  0  0  0  0  0  0  0  0  0
  153.3001  140.6082  160.4855 C   0  0  0  0  0  0  0  0  0  0  0  0
  154.1959  141.5997  160.3711 C   0  0  0  0  0  0  0  0  0  0  0  0
  151.1967  138.1065  159.1328 C   0  0  0  0  0  0  0  0  0  0  0  0
  151.6863  137.1693  159.7706 O   0  0  0  0  0  0  0  0  0  0  0  0
  149.9607  138.0112  158.5560 N   0  0  0  0  0  0  0  0  0  0  0  0
  149.2098  136.7387  158.7006 C   0  0  0  0  0  0  0  0  0  0  0  0
  148.0095  136.8374  159.6567 C   0  0  0  0  0  0  0  0  0  0  0  0
  147.1170  137.6665  159.4714 O   0  0  0  0  0  0  0  0  0  0  0  0
  148.0082  135.9707  160.6794 N   0  0  0  0  0  0  0  0  0  0  0  0
  146.9969  135.8722  161.6815 C   0  0  0  0  0  0  0  0  0  0  0  0
  147.3678  136.2605  163.0962 C   0  0  0  0  0  0  0  0  0  0  0  0
  147.1675  134.8113  162.7475 C   0  0  0  0  0  0  0  0  0  0  0  0
  149.4037  139.0129  157.8109 C   0  0  0  0  0  0  0  0  0  0  0  0
  148.3004  138.8809  157.2726 O   0  0  0  0  0  0  0  0  0  0  0  0
  148.2619  142.4953  154.7462 H   0  0  0  0  0  0  0  0  0  0  0  0
  148.7732  141.2770  153.4519 H   0  0  0  0  0  0  0  0  0  0  0  0
  149.9962  139.9961  155.1043 H   0  0  0  0  0  0  0  0  0  0  0  0
  150.1580  142.1748  156.9570 H   0  0  0  0  0  0  0  0  0  0  0  0
  148.5787  141.5655  157.2396 H   0  0  0  0  0  0  0  0  0  0  0  0
  153.4996  138.5219  160.1161 H   0  0  0  0  0  0  0  0  0  0  0  0
  153.9924  139.4896  158.7871 H   0  0  0  0  0  0  0  0  0  0  0  0
  152.5811  140.6384  161.2915 H   0  0  0  0  0  0  0  0  0  0  0  0
  154.9306  141.6034  159.5792 H   0  0  0  0  0  0  0  0  0  0  0  0
  154.2045  142.4231  161.0700 H   0  0  0  0  0  0  0  0  0  0  0  0
  148.8491  136.3782  157.7356 H   0  0  0  0  0  0  0  0  0  0  0  0
  149.8608  135.9328  159.0442 H   0  0  0  0  0  0  0  0  0  0  0  0
  148.7827  135.3268  160.7527 H   0  0  0  0  0  0  0  0  0  0  0  0
  145.9715  136.0824  161.3800 H   0  0  0  0  0  0  0  0  0  0  0  0
  148.3863  136.5969  163.2820 H   0  0  0  0  0  0  0  0  0  0  0  0
  146.6015  136.7425  163.7001 H   0  0  0  0  0  0  0  0  0  0  0  0
  146.2678  134.3253  163.1198 H   0  0  0  0  0  0  0  0  0  0  0  0
  148.0526  134.1794  162.7015 H   0  0  0  0  0  0  0  0  0  0  0  0
  1  2  2  0  0  0  0
  1 23  1  0  0  0  0
  1 24  1  0  0  0  0
  2  3  1  0  0  0  0
  2 25  1  0  0  0  0
  3  4  1  0  0  0  0
  3 26  1  0  0  0  0
  3 27  1  0  0  0  0
  4 21  1  0  0  0  0
  4  5  1  0  0  0  0
  5  6  2  0  0  0  0
  5  7  1  0  0  0  0
  7  8  1  0  0  0  0
  7 11  1  0  0  0  0
  8  9  1  0  0  0  0
  8 28  1  0  0  0  0
  8 29  1  0  0  0  0
  9 10  2  0  0  0  0
  9 30  1  0  0  0  0
 10 31  1  0  0  0  0
 10 32  1  0  0  0  0
 11 12  2  0  0  0  0
 11 13  1  0  0  0  0
 13 14  1  0  0  0  0
 13 21  1  0  0  0  0
 14 15  1  0  0  0  0
 14 33  1  0  0  0  0
 14 34  1  0  0  0  0
 15 16  2  0  0  0  0
 15 17  1  0  0  0  0
 17 18  1  0  0  0  0
 17 35  1  0  0  0  0
 18 20  1  0  0  0  0
 18 19  1  0  0  0  0
 18 36  1  0  0  0  0
 19 20  1  0  0  0  0
 19 37  1  0  0  0  0
 19 38  1  0  0  0  0
 20 39  1  0  0  0  0
 20 40  1  0  0  0  0
 21 22  2  0  0  0  0
M  END
> <s_m_source_file>
AV-unprocessed.smi

> <i_m_source_file_index>
2676

> <i_lp_mmshare_version>
43012

> <i_f3d_flags>
0

> <s_epik_input>
W0NIMl09W0NIXVtDSDJdbjFjKD1PKW4oW0NIMl1bQ0hdPVtDSDJdKWMoPU8pbihjMT1PKVtDSDJdQyg9TylbTkhdW0NIXTJbQ0gyXVtDSDJdMg==

> <s_epik_cmdline>
J2VwaWtfcHl0aG9uJywgJy1waCcsICc3LjAnLCAnLXRuJywgJzgnLCAnLW1hJywgJzIwMCcsICctbWV0YWxfYmluZGluZycsICctaW1hZScsICc8aW5maWxlLm1hZT4nLCAnLW9tYWUnLCAnPG91dGZpbGUubWFlPic=

> <r_lp_tautomer_probability>
1

> <r_epik_Ionization_Penalty>
2.07961e-08

> <r_epik_Ionization_Penalty_Charging>
1.25795e-10

> <r_epik_Ionization_Penalty_Neutral>
2.06703e-08

> <r_epik_State_Penalty>
-0

> <r_epik_Charging_Adjusted_Penalty>
1.25795e-10

> <i_epik_Tot_Q>
0

> <i_epik_Tot_abs_Q>
0

> <r_epik_Metal_State_Penalty>
-0

> <b_epik_Metal_Only>
0

> <s_lp_Force_Field>
OPLS_2005

> <r_lp_Energy>
27.3169

> <b_lp_Chiralities_Consistent>
1

> <s_lp_Variant>
AV-unprocessed.smi:2676-1

> <Gold.Version>
5.8.1

> <Gold.Id.Protein>
6NUR|6NUR_protein|mol2

> <Gold.PLP.Fitness>
45.8897

> <Gold.PLP.PLP>
-41.2778

> <Gold.PLP.part.hbond>
-1.9444

> <Gold.PLP.part.metal>
0.0000

> <Gold.PLP.part.buried>
-5.8458

> <Gold.PLP.part.nonpolar>
-33.6709

> <Gold.PLP.part.repulsive>
0.1780

> <Gold.PLP.ligand.clash>
0.0000

> <Gold.PLP.ligand.torsion>
0.3335

> <Gold.PLP.Chemscore.Hbond>
1.7268

> <Gold.PLP.Chemscore.CHOScore>
0.0000

> <Gold.PLP.Chemscore.Metal>
0.0000

> <Gold.Chemscore.Hbonds>
donor molecule, donor type, donor heavy atom, donor atom, acceptor molecule, acceptor atom, score
      P1  H  6896  6908       L1    12  1.00
      P1  H  6934  6947       L1    16  0.78

> <Gold.PLP.Chemscore.Internal.Correction>
0.0987

> <Gold.Rescore>
     Score         DG    S(hbond)    S(metal)    S(lipo)     H(rot)  DE(clash)    DE(int)     intcor
     12.49     -14.57       1.83        0.00      77.90       2.39       0.13       1.95       ----

> <Gold.Chemscore.Fitness>
12.4897

> <Gold.Chemscore.DG>
-14.5725

> <Gold.Chemscore.ZeroCoef>
-5.4800

> <Gold.Chemscore.Hbond>
1.8253

> <Gold.Chemscore.Metal>
0.0000

> <Gold.Chemscore.Lipo>
77.8991

> <Gold.Chemscore.Internal_Hbond>
0.0000

> <Gold.Chemscore.DEClash>
0.1349

> <Gold.Chemscore.DEInternal>
1.9478

> <Gold.Chemscore.Rot>
2.3899

> <Gold.Chemscore.Internal.Correction>
   9.000000E+99

> <Gold.Chemscore.Hbonds>
donor molecule, donor type, donor heavy atom, donor atom, acceptor molecule, acceptor atom, score
      P1  H  6896  6908       L1    12  0.93
      P1  H  6934  6947       L1    16  0.57

> <Gold.Chemscore.Hbond.Weighted>
-6.0964

> <Gold.Chemscore.Metal.Weighted>
-0.0000

> <Gold.Chemscore.Lipo.Weighted>
-9.1142

> <Gold.Chemscore.Internal_Hbond.Weighted>
0.0000

> <Gold.Chemscore.DEClash.Weighted>
0.1349

> <Gold.Chemscore.DEInternal.Weighted>
1.9478

> <Gold.Chemscore.Rot.Weighted>
6.1181

> <Gold.Chemscore.Internal.Correction.Weighted>
   9.000000E+99

> <Gold.Protein.RotatedTorsions>
[ 6907 6896 6895 6894 ] final -111.74 input  -60.11 | X-H torsion
[ 7974 7965 7964 7962 ] final   35.05 input  175.53 | X-H torsion
[ 8008 7997 7996 7995 ] final -107.97 input   59.86 | X-H torsion
[ 10167 10162 10161 10158 ] final -122.31 input  -65.29 | X-H torsion
[ 10718 10713 10712 10709 ] final -108.71 input   66.30 | X-H torsion
[ 10763 10752 10751 10750 ] final -179.14 input  -60.55 | X-H torsion
[ 11005 11000 10999 10996 ] final -145.08 input  -57.11 | X-H torsion

> <Gold.Protein.ActiveResidues>
 VAL166  LYS551  ARG553  GLY616  TRP617  ASP618  TYR619  PRO620  LYS621  CYS622 
 ASP623  PHE694  ASN695  SER759  ASP760  ASP761  ALA762  ILE779  LEU786  VAL792 
 PHE793  MET794  SER795  GLU796  ALA797  LYS798  CYS799  TRP800  GLU811  SER814 

> <Gold.Protein.RotatedAtoms>
  150.7710  133.9191  159.3392 H   0  0  0  0  0  0  0  0  0  0  0  0  # atno 6907 bound_to 6896
  151.7078  135.0916  160.0271 H   0  0  0  0  0  0  0  0  0  0  0  0  # atno 6908 bound_to 6896
  152.3728  133.6403  159.6136 H   0  0  0  0  0  0  0  0  0  0  0  0  # atno 6909 bound_to 6896
  146.1310  139.6191  142.9226 H   0  0  0  0  0  0  0  0  0  0  0  0  # atno 7974 bound_to 7965
  154.9372  140.0403  157.2078 H   0  0  0  0  0  0  0  0  0  0  0  0  # atno 8008 bound_to 7997
  154.8104  140.2867  155.5836 H   0  0  0  0  0  0  0  0  0  0  0  0  # atno 8009 bound_to 7997
  156.2971  140.2538  156.2991 H   0  0  0  0  0  0  0  0  0  0  0  0  # atno 8010 bound_to 7997
  140.0157  143.5396  152.2243 H   0  0  0  0  0  0  0  0  0  0  0  0  # atno 10167 bound_to 10162
  156.0500  130.5727  150.8000 H   0  0  0  0  0  0  0  0  0  0  0  0  # atno 10718 bound_to 10713
  154.5389  135.2804  155.1114 H   0  0  0  0  0  0  0  0  0  0  0  0  # atno 10763 bound_to 10752
  154.2604  135.6322  153.5276 H   0  0  0  0  0  0  0  0  0  0  0  0  # atno 10764 bound_to 10752
  152.9974  135.5604  154.5922 H   0  0  0  0  0  0  0  0  0  0  0  0  # atno 10765 bound_to 10752
  140.7959  134.2914  157.4996 H   0  0  0  0  0  0  0  0  0  0  0  0  # atno 11005 bound_to 11000
  145.5260  141.0429  143.2409 LP  0  0  0  0  0  0  0  0  0  0  0  0  # atno 17320 bound_to 7965
  144.7691  139.6777  143.7202 LP  0  0  0  0  0  0  0  0  0  0  0  0  # atno 17321 bound_to 7965
  139.6174  144.7622  151.2815 LP  0  0  0  0  0  0  0  0  0  0  0  0  # atno 17342 bound_to 10162
  140.7363  143.6710  150.8081 LP  0  0  0  0  0  0  0  0  0  0  0  0  # atno 17343 bound_to 10162
  157.5415  131.0941  150.9820 LP  0  0  0  0  0  0  0  0  0  0  0  0  # atno 17370 bound_to 10713
  157.0102  130.5633  149.5320 LP  0  0  0  0  0  0  0  0  0  0  0  0  # atno 17371 bound_to 10713
  139.8726  134.9401  156.3761 LP  0  0  0  0  0  0  0  0  0  0  0  0  # atno 17394 bound_to 11000
  140.9343  133.7558  156.0065 LP  0  0  0  0  0  0  0  0  0  0  0  0  # atno 17395 bound_to 11000

$$$$
