AV-unprocessed.smi:3111|AV-procd|sdf|11832|dock5
  -GOLD-   2272017203D 1   1.00000     0.00000
 Structure written by MMmdl.
 29 29  0  0  0  0  0  0  0  0  1 V2000
  146.7141  145.3061  160.4779 C   0  0  0  0  0  0  0  0  0  0  0  0
  146.9487  144.5302  159.2698 N   0  0  0  0  0  0  0  0  0  0  0  0
  146.6257  143.2369  159.1289 C   0  0  0  0  0  0  0  0  0  0  0  0
  146.0774  142.5793  160.0148 O   0  0  0  0  0  0  0  0  0  0  0  0
  146.9542  142.6027  157.7715 C   0  0  0  0  0  0  0  0  0  0  0  0
  148.3743  142.6797  157.4370 N   0  0  0  0  0  0  0  0  0  0  0  0
  149.2717  141.7021  157.6437 C   0  0  0  0  0  0  0  0  0  0  0  0
  148.9817  140.6226  158.1613 O   0  0  0  0  0  0  0  0  0  0  0  0
  150.7132  141.9963  157.1995 C   0  0  2  0  0  0  0  0  0  0  0  0
  151.5992  140.7366  157.1796 C   0  0  0  0  0  0  0  0  0  0  0  0
  151.3005  143.0402  158.0278 N   0  0  0  0  0  0  0  0  0  0  0  0
  152.4771  142.9558  158.7625 C   0  0  0  0  0  0  0  0  0  0  0  0
  152.6429  144.1715  159.3863 C   0  0  0  0  0  0  0  0  0  0  0  0
  151.5884  145.0174  159.0531 N   0  0  0  0  0  0  0  0  0  0  0  0
  150.8346  144.2802  158.2479 C   0  0  0  0  0  0  0  0  0  0  0  0
  147.0907  146.3206  160.3472 H   0  0  0  0  0  0  0  0  0  0  0  0
  147.2260  144.8601  161.3318 H   0  0  0  0  0  0  0  0  0  0  0  0
  145.6478  145.3641  160.7016 H   0  0  0  0  0  0  0  0  0  0  0  0
  147.3907  145.0032  158.4948 H   0  0  0  0  0  0  0  0  0  0  0  0
  146.6658  141.5518  157.8018 H   0  0  0  0  0  0  0  0  0  0  0  0
  146.3588  143.0679  156.9835 H   0  0  0  0  0  0  0  0  0  0  0  0
  148.6944  143.5343  157.0052 H   0  0  0  0  0  0  0  0  0  0  0  0
  150.6655  142.3761  156.1773 H   0  0  0  0  0  0  0  0  0  0  0  0
  151.1665  139.9591  156.5487 H   0  0  0  0  0  0  0  0  0  0  0  0
  151.7341  140.3182  158.1778 H   0  0  0  0  0  0  0  0  0  0  0  0
  152.5887  140.9650  156.7828 H   0  0  0  0  0  0  0  0  0  0  0  0
  153.0829  142.0618  158.7815 H   0  0  0  0  0  0  0  0  0  0  0  0
  153.4341  144.5002  160.0441 H   0  0  0  0  0  0  0  0  0  0  0  0
  149.9216  144.6517  157.8056 H   0  0  0  0  0  0  0  0  0  0  0  0
  1  2  1  0  0  0  0
  1 16  1  0  0  0  0
  1 17  1  0  0  0  0
  1 18  1  0  0  0  0
  2  3  1  0  0  0  0
  2 19  1  0  0  0  0
  3  4  2  0  0  0  0
  3  5  1  0  0  0  0
  5  6  1  0  0  0  0
  5 20  1  0  0  0  0
  5 21  1  0  0  0  0
  6  7  1  0  0  0  0
  6 22  1  0  0  0  0
  7  8  2  0  0  0  0
  7  9  1  0  0  0  0
  9 10  1  0  0  0  0
  9 11  1  0  0  0  0
  9 23  1  0  0  0  0
 10 24  1  0  0  0  0
 10 25  1  0  0  0  0
 10 26  1  0  0  0  0
 11 15  1  0  0  0  0
 11 12  1  0  0  0  0
 12 13  2  0  0  0  0
 12 27  1  0  0  0  0
 13 14  1  0  0  0  0
 13 28  1  0  0  0  0
 14 15  2  0  0  0  0
 15 29  1  0  0  0  0
M  END
> <s_m_source_file>
AV-unprocessed.smi

> <i_m_source_file_index>
3111

> <i_lp_mmshare_version>
43012

> <i_f3d_flags>
0

> <s_epik_input>
W0NIM11bTkhdQyg9TylbQ0gyXVtOSF1DKD1PKVtDQEhdKFtDSDNdKW4xW2NIXVtjSF1uW2NIXTE=

> <s_epik_cmdline>
J2VwaWtfcHl0aG9uJywgJy1waCcsICc3LjAnLCAnLXRuJywgJzgnLCAnLW1hJywgJzIwMCcsICctbWV0YWxfYmluZGluZycsICctaW1hZScsICc8aW5maWxlLm1hZT4nLCAnLW9tYWUnLCAnPG91dGZpbGUubWFlPic=

> <r_lp_tautomer_probability>
1

> <r_epik_Ionization_Penalty>
0.278299

> <r_epik_Ionization_Penalty_Charging>
0.278299

> <r_epik_Ionization_Penalty_Neutral>
1.78617e-07

> <r_epik_State_Penalty>
0.270759

> <r_epik_Charging_Adjusted_Penalty>
0.549058

> <i_epik_Tot_Q>
0

> <i_epik_Tot_abs_Q>
0

> <r_epik_Metal_State_Penalty>
0.183212

> <b_epik_Metal_Only>
0

> <s_lp_Force_Field>
OPLS_2005

> <r_lp_Energy>
5.209

> <b_lp_Chiralities_Consistent>
1

> <s_lp_Variant>
AV-unprocessed.smi:3111-1

> <Gold.Version>
5.8.1

> <Gold.Id.Protein>
6NUR|6NUR_protein|mol2

> <Gold.PLP.Fitness>
39.1824

> <Gold.PLP.PLP>
-27.4655

> <Gold.PLP.part.hbond>
-3.1810

> <Gold.PLP.part.metal>
0.0000

> <Gold.PLP.part.buried>
-5.0020

> <Gold.PLP.part.nonpolar>
-19.8560

> <Gold.PLP.part.repulsive>
0.2203

> <Gold.PLP.ligand.clash>
0.0000

> <Gold.PLP.ligand.torsion>
0.3914

> <Gold.PLP.Chemscore.Hbond>
3.0000

> <Gold.PLP.Chemscore.CHOScore>
1.1438

> <Gold.PLP.Chemscore.Metal>
0.0000

> <Gold.Chemscore.Hbonds>
donor molecule, donor type, donor heavy atom, donor atom, acceptor molecule, acceptor atom, score
      L1  H     2    19       P1  8029  1.00
      L1  H     6    22       P1  8028  1.00
      P1  H  6934  6946       L1     4  0.99
      L1  C    15    29       P1  8028  0.62
      L1  C    15    29       P1  8029  0.39

> <Gold.PLP.Chemscore.Internal.Correction>
0.0682

> <Gold.Rescore>
     Score         DG    S(hbond)    S(metal)    S(lipo)     H(rot)  DE(clash)    DE(int)     intcor
     13.40     -13.89       2.70        0.00      44.50       2.27       0.02       0.47       ----

> <Gold.Chemscore.Fitness>
13.4035

> <Gold.Chemscore.DG>
-13.8949

> <Gold.Chemscore.ZeroCoef>
-5.4800

> <Gold.Chemscore.Hbond>
2.7011

> <Gold.Chemscore.Metal>
0.0000

> <Gold.Chemscore.Lipo>
44.5021

> <Gold.Chemscore.Internal_Hbond>
0.0000

> <Gold.Chemscore.DEClash>
0.0178

> <Gold.Chemscore.DEInternal>
0.4736

> <Gold.Chemscore.Rot>
2.2709

> <Gold.Chemscore.Internal.Correction>
   9.000000E+99

> <Gold.Chemscore.Hbonds>
donor molecule, donor type, donor heavy atom, donor atom, acceptor molecule, acceptor atom, score
      L1  H     2    19       P1  8029  0.99
      L1  H     6    22       P1  8028  0.30
      P1  H  6934  6946       L1     4  0.91

> <Gold.Chemscore.Hbond.Weighted>
-9.0216

> <Gold.Chemscore.Metal.Weighted>
-0.0000

> <Gold.Chemscore.Lipo.Weighted>
-5.2068

> <Gold.Chemscore.Internal_Hbond.Weighted>
0.0000

> <Gold.Chemscore.DEClash.Weighted>
0.0178

> <Gold.Chemscore.DEInternal.Weighted>
0.4736

> <Gold.Chemscore.Rot.Weighted>
5.8135

> <Gold.Chemscore.Internal.Correction.Weighted>
   9.000000E+99

> <Gold.Protein.RotatedTorsions>
[ 6907 6896 6895 6894 ] final  -82.61 input  -60.11 | X-H torsion
[ 7974 7965 7964 7962 ] final  -83.97 input  175.53 | X-H torsion
[ 8008 7997 7996 7995 ] final  109.61 input   59.86 | X-H torsion
[ 10167 10162 10161 10158 ] final  -44.54 input  -65.29 | X-H torsion
[ 10718 10713 10712 10709 ] final  104.46 input   66.30 | X-H torsion
[ 10763 10752 10751 10750 ] final  -13.59 input  -60.55 | X-H torsion
[ 11005 11000 10999 10996 ] final  -32.64 input  -57.11 | X-H torsion

> <Gold.Protein.ActiveResidues>
 VAL166  LYS551  ARG553  GLY616  TRP617  ASP618  TYR619  PRO620  LYS621  CYS622 
 ASP623  PHE694  ASN695  SER759  ASP760  ASP761  ALA762  ILE779  LEU786  VAL792 
 PHE793  MET794  SER795  GLU796  ALA797  LYS798  CYS799  TRP800  GLU811  SER814 

> <Gold.Protein.RotatedAtoms>
  150.6895  134.3638  159.4961 H   0  0  0  0  0  0  0  0  0  0  0  0  # atno 6907 bound_to 6896
  152.1463  134.9020  160.0560 H   0  0  0  0  0  0  0  0  0  0  0  0  # atno 6908 bound_to 6896
  152.0135  133.3836  159.4266 H   0  0  0  0  0  0  0  0  0  0  0  0  # atno 6909 bound_to 6896
  145.5128  140.9538  143.1698 H   0  0  0  0  0  0  0  0  0  0  0  0  # atno 7974 bound_to 7965
  156.1992  140.3054  155.9491 H   0  0  0  0  0  0  0  0  0  0  0  0  # atno 8008 bound_to 7997
  155.2994  140.0446  157.3045 H   0  0  0  0  0  0  0  0  0  0  0  0  # atno 8009 bound_to 7997
  154.5549  140.2302  155.8435 H   0  0  0  0  0  0  0  0  0  0  0  0  # atno 8010 bound_to 7997
  140.6893  143.2925  151.3510 H   0  0  0  0  0  0  0  0  0  0  0  0  # atno 10167 bound_to 10162
  157.6739  131.0804  150.5710 H   0  0  0  0  0  0  0  0  0  0  0  0  # atno 10718 bound_to 10713
  153.5156  135.7016  153.5758 H   0  0  0  0  0  0  0  0  0  0  0  0  # atno 10763 bound_to 10752
  153.3829  135.3915  155.1869 H   0  0  0  0  0  0  0  0  0  0  0  0  # atno 10764 bound_to 10752
  154.8699  135.3839  154.4640 H   0  0  0  0  0  0  0  0  0  0  0  0  # atno 10765 bound_to 10752
  140.9569  133.7187  156.1307 H   0  0  0  0  0  0  0  0  0  0  0  0  # atno 11005 bound_to 11000
  144.7718  139.6718  143.7191 LP  0  0  0  0  0  0  0  0  0  0  0  0  # atno 17320 bound_to 7965
  146.2156  139.5543  142.9652 LP  0  0  0  0  0  0  0  0  0  0  0  0  # atno 17321 bound_to 7965
  139.6279  144.0777  152.2451 LP  0  0  0  0  0  0  0  0  0  0  0  0  # atno 17342 bound_to 10162
  140.0243  144.6129  150.7541 LP  0  0  0  0  0  0  0  0  0  0  0  0  # atno 17343 bound_to 10162
  156.6012  130.4355  149.5896 LP  0  0  0  0  0  0  0  0  0  0  0  0  # atno 17370 bound_to 10713
  156.2505  130.6904  151.1640 LP  0  0  0  0  0  0  0  0  0  0  0  0  # atno 17371 bound_to 10713
  140.7524  134.4030  157.5539 LP  0  0  0  0  0  0  0  0  0  0  0  0  # atno 17394 bound_to 11000
  139.8865  134.8908  156.2581 LP  0  0  0  0  0  0  0  0  0  0  0  0  # atno 17395 bound_to 11000

$$$$
