AV-unprocessed.smi:609|AV-procd|sdf|3050|dock2
  -GOLD-   2262023573D 1   1.00000     0.00000
 Structure written by MMmdl.
 44 46  0  0  0  0  0  0  0  0  3 V2000
  152.3962  143.6359  160.5293 C   0  0  0  0  0  0  0  0  0  0  0  0
  152.1411  142.6860  159.3713 C   0  0  0  0  0  0  0  0  0  0  0  0
  151.2201  143.0730  158.3718 C   0  0  0  0  0  0  0  0  0  0  0  0
  151.0033  142.1803  157.3289 C   0  0  0  0  0  0  0  0  0  0  0  0
  150.1679  142.2641  156.2131 N   0  3  0  0  0  0  0  0  0  0  0  0
  150.2910  141.1318  155.4670 C   0  0  0  0  0  0  0  0  0  0  0  0
  151.1923  140.3250  156.0902 N   0  0  0  0  0  0  0  0  0  0  0  0
  151.6815  138.9955  155.6990 C   0  0  0  0  0  0  0  0  0  0  0  0
  150.9798  138.4401  154.4434 C   0  0  1  0  0  0  0  0  0  0  0  0
  151.6507  137.2556  154.0666 O   0  0  0  0  0  0  0  0  0  0  0  0
  149.4851  138.1288  154.6469 C   0  0  0  0  0  0  0  0  0  0  0  0
  149.1789  137.1781  156.1628 S   0  0  0  0  0  0  0  0  0  0  0  0
  149.1765  135.4805  155.6715 C   0  0  0  0  0  0  0  0  0  0  0  0
  149.2879  135.0276  154.4191 N   0  3  0  0  0  0  0  0  0  0  0  0
  149.2435  133.6590  154.4143 C   0  0  0  0  0  0  0  0  0  0  0  0
  149.0996  133.2680  155.7219 C   0  0  0  0  0  0  0  0  0  0  0  0
  149.0603  134.4141  156.4750 N   0  0  0  0  0  0  0  0  0  0  0  0
  148.9167  134.5102  157.9283 C   0  0  0  0  0  0  0  0  0  0  0  0
  151.6686  140.9408  157.2542 C   0  0  0  0  0  0  0  0  0  0  0  0
  152.5837  140.5472  158.2282 C   0  0  0  0  0  0  0  0  0  0  0  0
  152.8141  141.4388  159.3000 C   0  0  0  0  0  0  0  0  0  0  0  0
  153.8012  141.0318  160.3808 C   0  0  0  0  0  0  0  0  0  0  0  0
  151.8147  144.5529  160.4291 H   0  0  0  0  0  0  0  0  0  0  0  0
  153.4494  143.9139  160.5727 H   0  0  0  0  0  0  0  0  0  0  0  0
  152.1214  143.1687  161.4753 H   0  0  0  0  0  0  0  0  0  0  0  0
  150.7050  144.0215  158.4183 H   0  0  0  0  0  0  0  0  0  0  0  0
  149.7682  140.9135  154.5467 H   0  0  0  0  0  0  0  0  0  0  0  0
  152.7512  139.0966  155.5098 H   0  0  0  0  0  0  0  0  0  0  0  0
  151.5876  138.3108  156.5421 H   0  0  0  0  0  0  0  0  0  0  0  0
  151.0899  139.1588  153.6303 H   0  0  0  0  0  0  0  0  0  0  0  0
  151.3345  136.9872  153.2170 H   0  0  0  0  0  0  0  0  0  0  0  0
  148.9075  139.0532  154.6818 H   0  0  0  0  0  0  0  0  0  0  0  0
  149.1009  137.5411  153.8137 H   0  0  0  0  0  0  0  0  0  0  0  0
  149.3156  133.0802  153.5050 H   0  0  0  0  0  0  0  0  0  0  0  0
  149.0237  132.2831  156.1600 H   0  0  0  0  0  0  0  0  0  0  0  0
  148.8369  133.5098  158.3544 H   0  0  0  0  0  0  0  0  0  0  0  0
  148.0159  135.0772  158.1652 H   0  0  0  0  0  0  0  0  0  0  0  0
  149.7908  135.0121  158.3441 H   0  0  0  0  0  0  0  0  0  0  0  0
  153.0979  139.5991  158.1766 H   0  0  0  0  0  0  0  0  0  0  0  0
  154.2454  140.0586  160.1700 H   0  0  0  0  0  0  0  0  0  0  0  0
  153.3040  140.9688  161.3491 H   0  0  0  0  0  0  0  0  0  0  0  0
  154.6115  141.7575  160.4534 H   0  0  0  0  0  0  0  0  0  0  0  0
  149.3859  135.6117  153.5987 H   0  0  0  0  0  0  0  0  0  0  0  0
  149.5586  143.0364  155.9749 H   0  0  0  0  0  0  0  0  0  0  0  0
  1  2  1  0  0  0  0
  1 23  1  0  0  0  0
  1 24  1  0  0  0  0
  1 25  1  0  0  0  0
  2 21  1  0  0  0  0
  2  3  2  0  0  0  0
  3  4  1  0  0  0  0
  3 26  1  0  0  0  0
  4 19  2  0  0  0  0
  4  5  1  0  0  0  0
  5  6  2  0  0  0  0
  5 44  1  0  0  0  0
  6  7  1  0  0  0  0
  6 27  1  0  0  0  0
  7  8  1  0  0  0  0
  7 19  1  0  0  0  0
  8  9  1  0  0  0  0
  8 28  1  0  0  0  0
  8 29  1  0  0  0  0
  9 10  1  0  0  0  0
  9 11  1  0  0  0  0
  9 30  1  0  0  0  0
 10 31  1  0  0  0  0
 11 12  1  0  0  0  0
 11 32  1  0  0  0  0
 11 33  1  0  0  0  0
 12 13  1  0  0  0  0
 13 17  1  0  0  0  0
 13 14  2  0  0  0  0
 14 15  1  0  0  0  0
 14 43  1  0  0  0  0
 15 16  2  0  0  0  0
 15 34  1  0  0  0  0
 16 17  1  0  0  0  0
 16 35  1  0  0  0  0
 17 18  1  0  0  0  0
 18 36  1  0  0  0  0
 18 37  1  0  0  0  0
 18 38  1  0  0  0  0
 19 20  1  0  0  0  0
 20 21  2  0  0  0  0
 20 39  1  0  0  0  0
 21 22  1  0  0  0  0
 22 40  1  0  0  0  0
 22 41  1  0  0  0  0
 22 42  1  0  0  0  0
M  CHG  1   5   1
M  CHG  1  14   1
M  END
> <s_m_source_file>
AV-unprocessed.smi

> <i_m_source_file_index>
609

> <i_lp_mmshare_version>
43012

> <i_f3d_flags>
0

> <s_epik_input>
W0NIM11jKFtjSF0xKWMoW0NIM10pW2NIXWMoYzEyKW4oW2NIXW4yKVtDSDJdW0NASF0oW09IXSlbQ0gyXVNjM25bY0hdW2NIXW4zW0NIM10=

> <s_epik_cmdline>
J2VwaWtfcHl0aG9uJywgJy1waCcsICc3LjAnLCAnLXRuJywgJzgnLCAnLW1hJywgJzIwMCcsICctbWV0YWxfYmluZGluZycsICctaW1hZScsICc8aW5maWxlLm1hZT4nLCAnLW9tYWUnLCAnPG91dGZpbGUubWFlPic=

> <r_lp_tautomer_probability>
1

> <r_epik_Ionization_Penalty>
1.19058

> <r_epik_Ionization_Penalty_Charging>
1.07615

> <r_epik_Ionization_Penalty_Neutral>
0.114429

> <r_epik_State_Penalty>
1.23473

> <r_epik_Charging_Adjusted_Penalty>
2.31088

> <i_epik_Tot_Q>
2

> <i_epik_Tot_abs_Q>
2

> <r_epik_Metal_State_Penalty>
4.63867

> <b_epik_Metal_Only>
0

> <s_lp_Force_Field>
OPLS_2005

> <r_lp_Energy>
20.0831

> <b_lp_Chiralities_Consistent>
1

> <s_lp_Variant>
AV-unprocessed.smi:609-6

> <Gold.Version>
5.8.1

> <Gold.Id.Protein>
6NUR|6NUR_protein|mol2

> <Gold.PLP.Fitness>
59.4833

> <Gold.PLP.PLP>
-43.0495

> <Gold.PLP.part.hbond>
-4.0000

> <Gold.PLP.part.metal>
0.0000

> <Gold.PLP.part.buried>
-4.7451

> <Gold.PLP.part.nonpolar>
-35.2289

> <Gold.PLP.part.repulsive>
0.1242

> <Gold.PLP.ligand.clash>
0.0000

> <Gold.PLP.ligand.torsion>
0.3571

> <Gold.PLP.Chemscore.Hbond>
5.6947

> <Gold.PLP.Chemscore.CHOScore>
0.0000

> <Gold.PLP.Chemscore.Metal>
0.0000

> <Gold.Chemscore.Hbonds>
donor molecule, donor type, donor heavy atom, donor atom, acceptor molecule, acceptor atom, score
      L1  H     5    44       P1  8028  2.00
      L1  H    10    31       P1  7949  1.00
      L1  H    14    43       P1  7948  2.00
      P1  H 10752 10763       L1    10  0.65

> <Gold.PLP.Chemscore.Internal.Correction>
0.0641

> <Gold.Rescore>
     Score         DG    S(hbond)    S(metal)    S(lipo)     H(rot)  DE(clash)    DE(int)     intcor
     20.59     -21.20       2.96        0.00     106.57       2.59       0.05       0.56       ----

> <Gold.Chemscore.Fitness>
20.5943

> <Gold.Chemscore.DG>
-21.2026

> <Gold.Chemscore.ZeroCoef>
-5.4800

> <Gold.Chemscore.Hbond>
2.9566

> <Gold.Chemscore.Metal>
0.0000

> <Gold.Chemscore.Lipo>
106.5701

> <Gold.Chemscore.Internal_Hbond>
0.0000

> <Gold.Chemscore.DEClash>
0.0505

> <Gold.Chemscore.DEInternal>
0.5579

> <Gold.Chemscore.Rot>
2.5863

> <Gold.Chemscore.Internal.Correction>
   9.000000E+99

> <Gold.Chemscore.Hbonds>
donor molecule, donor type, donor heavy atom, donor atom, acceptor molecule, acceptor atom, score
      L1  H     5    44       P1  8028  1.00
      L1  H    10    31       P1  7949  0.71
      L1  H    14    43       P1  7948  0.34
      P1  H 10752 10763       L1    10  0.06

> <Gold.Chemscore.Hbond.Weighted>
-9.8749

> <Gold.Chemscore.Metal.Weighted>
-0.0000

> <Gold.Chemscore.Lipo.Weighted>
-12.4687

> <Gold.Chemscore.Internal_Hbond.Weighted>
0.0000

> <Gold.Chemscore.DEClash.Weighted>
0.0505

> <Gold.Chemscore.DEInternal.Weighted>
0.5579

> <Gold.Chemscore.Rot.Weighted>
6.6210

> <Gold.Chemscore.Internal.Correction.Weighted>
   9.000000E+99

> <Gold.Protein.RotatedTorsions>
[ 6907 6896 6895 6894 ] final  -58.24 input  -60.11 | X-H torsion
[ 7974 7965 7964 7962 ] final  155.41 input  175.53 | X-H torsion
[ 8008 7997 7996 7995 ] final -105.64 input   59.86 | X-H torsion
[ 10167 10162 10161 10158 ] final  125.84 input  -65.29 | X-H torsion
[ 10718 10713 10712 10709 ] final  124.08 input   66.30 | X-H torsion
[ 10763 10752 10751 10750 ] final   40.64 input  -60.55 | X-H torsion
[ 11005 11000 10999 10996 ] final -159.66 input  -57.11 | X-H torsion

> <Gold.Protein.ActiveResidues>
 VAL166  LYS551  ARG553  GLY616  TRP617  ASP618  TYR619  PRO620  LYS621  CYS622 
 ASP623  PHE694  ASN695  SER759  ASP760  ASP761  ALA762  ILE779  LEU786  VAL792 
 PHE793  MET794  SER795  GLU796  ALA797  LYS798  CYS799  TRP800  GLU811  SER814 

> <Gold.Protein.RotatedAtoms>
  150.8023  134.7124  159.6611 H   0  0  0  0  0  0  0  0  0  0  0  0  # atno 6907 bound_to 6896
  152.4140  134.6071  160.0025 H   0  0  0  0  0  0  0  0  0  0  0  0  # atno 6908 bound_to 6896
  151.6305  133.3295  159.3144 H   0  0  0  0  0  0  0  0  0  0  0  0  # atno 6909 bound_to 6896
  144.8027  139.7064  143.6175 H   0  0  0  0  0  0  0  0  0  0  0  0  # atno 7974 bound_to 7965
  154.9029  140.0412  157.1903 H   0  0  0  0  0  0  0  0  0  0  0  0  # atno 8008 bound_to 7997
  154.8426  140.2916  155.5628 H   0  0  0  0  0  0  0  0  0  0  0  0  # atno 8009 bound_to 7997
  156.2993  140.2480  156.3371 H   0  0  0  0  0  0  0  0  0  0  0  0  # atno 8010 bound_to 7997
  139.5663  144.6913  151.3900 H   0  0  0  0  0  0  0  0  0  0  0  0  # atno 10167 bound_to 10162
  157.5614  131.1089  150.8532 H   0  0  0  0  0  0  0  0  0  0  0  0  # atno 10718 bound_to 10713
  152.9930  135.6185  154.2659 H   0  0  0  0  0  0  0  0  0  0  0  0  # atno 10763 bound_to 10752
  154.2394  135.2789  155.2861 H   0  0  0  0  0  0  0  0  0  0  0  0  # atno 10764 bound_to 10752
  154.5382  135.5768  153.6874 H   0  0  0  0  0  0  0  0  0  0  0  0  # atno 10765 bound_to 10752
  140.6401  134.4560  157.5233 H   0  0  0  0  0  0  0  0  0  0  0  0  # atno 11005 bound_to 11000
  146.2312  139.5817  142.9554 LP  0  0  0  0  0  0  0  0  0  0  0  0  # atno 17320 bound_to 7965
  145.5514  141.0413  143.2276 LP  0  0  0  0  0  0  0  0  0  0  0  0  # atno 17321 bound_to 7965
  140.6947  143.7778  150.7308 LP  0  0  0  0  0  0  0  0  0  0  0  0  # atno 17342 bound_to 10162
  140.1270  143.4560  152.2278 LP  0  0  0  0  0  0  0  0  0  0  0  0  # atno 17343 bound_to 10162
  156.9028  130.5253  149.5282 LP  0  0  0  0  0  0  0  0  0  0  0  0  # atno 17370 bound_to 10713
  156.0666  130.5708  150.9301 LP  0  0  0  0  0  0  0  0  0  0  0  0  # atno 17371 bound_to 10713
  139.9083  134.8400  156.1622 LP  0  0  0  0  0  0  0  0  0  0  0  0  # atno 17394 bound_to 11000
  141.0613  133.6840  156.1957 LP  0  0  0  0  0  0  0  0  0  0  0  0  # atno 17395 bound_to 11000

$$$$
