AV-unprocessed.smi:2040|AV-procd|sdf|8287|dock2
  -GOLD-   2272010553D 1   1.00000     0.00000
 Structure written by MMmdl.
 38 39  0  0  0  0  0  0  0  0  1 V2000
  153.5202  142.1003  162.0442 C   0  0  0  0  0  0  0  0  0  0  0  0
  152.7473  142.6319  160.8734 C   0  0  0  0  0  0  0  0  0  0  0  0
  152.1932  141.9005  159.7827 C   0  0  0  0  0  0  0  0  0  0  0  0
  151.6084  142.8810  159.0287 C   0  0  0  0  0  0  0  0  0  0  0  0
  150.9298  142.7674  157.8561 N   0  0  0  0  0  0  0  0  0  0  0  0
  150.4023  141.6651  157.2955 C   0  0  0  0  0  0  0  0  0  0  0  0
  150.4413  140.5317  157.7747 O   0  0  0  0  0  0  0  0  0  0  0  0
  149.8074  141.9538  156.1289 N   0  0  0  0  0  0  0  0  0  0  0  0
  149.1432  140.9885  155.2565 C   0  0  1  0  0  0  0  0  0  0  0  0
  148.2067  141.7287  154.2855 C   0  0  0  0  0  0  0  0  0  0  0  0
  150.2100  140.1584  154.5174 C   0  0  2  0  0  0  0  0  0  0  0  0
  149.7748  138.7372  154.1478 C   0  0  0  0  0  0  0  0  0  0  0  0
  151.0699  137.9371  154.1551 C   0  0  0  0  0  0  0  0  0  0  0  0
  152.1028  138.9008  154.7417 C   0  0  0  0  0  0  0  0  0  0  0  0
  151.3305  139.9204  155.3564 O   0  0  0  0  0  0  0  0  0  0  0  0
  151.8164  144.0969  159.6412 N   0  0  0  0  0  0  0  0  0  0  0  0
  151.3941  145.4207  159.2271 C   0  0  0  0  0  0  0  0  0  0  0  0
  152.5188  143.9374  160.7837 N   0  0  0  0  0  0  0  0  0  0  0  0
  153.7068  141.0312  161.9404 H   0  0  0  0  0  0  0  0  0  0  0  0
  152.9748  142.2527  162.9759 H   0  0  0  0  0  0  0  0  0  0  0  0
  154.4863  142.5972  162.1366 H   0  0  0  0  0  0  0  0  0  0  0  0
  152.2321  140.8369  159.6027 H   0  0  0  0  0  0  0  0  0  0  0  0
  150.7965  143.6305  157.3503 H   0  0  0  0  0  0  0  0  0  0  0  0
  149.8279  142.9109  155.8092 H   0  0  0  0  0  0  0  0  0  0  0  0
  148.5461  140.3088  155.8675 H   0  0  0  0  0  0  0  0  0  0  0  0
  147.6666  141.0315  153.6449 H   0  0  0  0  0  0  0  0  0  0  0  0
  148.7625  142.4104  153.6409 H   0  0  0  0  0  0  0  0  0  0  0  0
  147.4609  142.3143  154.8240 H   0  0  0  0  0  0  0  0  0  0  0  0
  150.5497  140.6842  153.6224 H   0  0  0  0  0  0  0  0  0  0  0  0
  149.0973  138.3366  154.9033 H   0  0  0  0  0  0  0  0  0  0  0  0
  149.2623  138.6982  153.1862 H   0  0  0  0  0  0  0  0  0  0  0  0
  150.9628  137.0481  154.7779 H   0  0  0  0  0  0  0  0  0  0  0  0
  151.3585  137.6133  153.1546 H   0  0  0  0  0  0  0  0  0  0  0  0
  152.7697  138.4193  155.4571 H   0  0  0  0  0  0  0  0  0  0  0  0
  152.7114  139.3407  153.9502 H   0  0  0  0  0  0  0  0  0  0  0  0
  150.3059  145.4576  159.1728 H   0  0  0  0  0  0  0  0  0  0  0  0
  151.8086  145.6464  158.2444 H   0  0  0  0  0  0  0  0  0  0  0  0
  151.7387  146.1737  159.9371 H   0  0  0  0  0  0  0  0  0  0  0  0
  1  2  1  0  0  0  0
  1 19  1  0  0  0  0
  1 20  1  0  0  0  0
  1 21  1  0  0  0  0
  2 18  2  0  0  0  0
  2  3  1  0  0  0  0
  3  4  2  0  0  0  0
  3 22  1  0  0  0  0
  4  5  1  0  0  0  0
  4 16  1  0  0  0  0
  5  6  1  0  0  0  0
  5 23  1  0  0  0  0
  6  7  2  0  0  0  0
  6  8  1  0  0  0  0
  8  9  1  0  0  0  0
  8 24  1  0  0  0  0
  9 10  1  0  0  0  0
  9 11  1  0  0  0  0
  9 25  1  0  0  0  0
 10 26  1  0  0  0  0
 10 27  1  0  0  0  0
 10 28  1  0  0  0  0
 11 15  1  0  0  0  0
 11 12  1  0  0  0  0
 11 29  1  0  0  0  0
 12 13  1  0  0  0  0
 12 30  1  0  0  0  0
 12 31  1  0  0  0  0
 13 14  1  0  0  0  0
 13 32  1  0  0  0  0
 13 33  1  0  0  0  0
 14 15  1  0  0  0  0
 14 34  1  0  0  0  0
 14 35  1  0  0  0  0
 16 17  1  0  0  0  0
 16 18  1  0  0  0  0
 17 36  1  0  0  0  0
 17 37  1  0  0  0  0
 17 38  1  0  0  0  0
M  END
> <s_m_source_file>
AV-unprocessed.smi

> <i_m_source_file_index>
2040

> <i_lp_mmshare_version>
43012

> <i_f3d_flags>
0

> <s_epik_input>
W0NIM11jMVtjSF1jKG4objEpW0NIM10pW05IXUMoPU8pW05IXVtDQEhdKFtDSDNdKVtDQEBIXTJbQ0gyXVtDSDJdW0NIMl1PMg==

> <s_epik_cmdline>
J2VwaWtfcHl0aG9uJywgJy1waCcsICc3LjAnLCAnLXRuJywgJzgnLCAnLW1hJywgJzIwMCcsICctbWV0YWxfYmluZGluZycsICctaW1hZScsICc8aW5maWxlLm1hZT4nLCAnLW9tYWUnLCAnPG91dGZpbGUubWFlPic=

> <r_lp_tautomer_probability>
1

> <r_epik_Ionization_Penalty>
9.09088e-05

> <r_epik_Ionization_Penalty_Charging>
0

> <r_epik_Ionization_Penalty_Neutral>
9.09088e-05

> <r_epik_State_Penalty>
-0

> <r_epik_Charging_Adjusted_Penalty>
0

> <i_epik_Tot_Q>
0

> <i_epik_Tot_abs_Q>
0

> <r_epik_Metal_State_Penalty>
-0

> <b_epik_Metal_Only>
0

> <s_lp_Force_Field>
OPLS_2005

> <r_lp_Energy>
19.5884

> <b_lp_Chiralities_Consistent>
1

> <s_lp_Variant>
AV-unprocessed.smi:2040-2

> <Gold.Version>
5.8.1

> <Gold.Id.Protein>
6NUR|6NUR_protein|mol2

> <Gold.PLP.Fitness>
42.6283

> <Gold.PLP.PLP>
-41.3518

> <Gold.PLP.part.hbond>
-2.0000

> <Gold.PLP.part.metal>
0.0000

> <Gold.PLP.part.buried>
-1.5714

> <Gold.PLP.part.nonpolar>
-37.5447

> <Gold.PLP.part.repulsive>
0.2212

> <Gold.PLP.ligand.clash>
0.0000

> <Gold.PLP.ligand.torsion>
0.8731

> <Gold.PLP.Chemscore.Hbond>
1.0000

> <Gold.PLP.Chemscore.CHOScore>
0.0000

> <Gold.PLP.Chemscore.Metal>
0.0000

> <Gold.Chemscore.Hbonds>
donor molecule, donor type, donor heavy atom, donor atom, acceptor molecule, acceptor atom, score
      L1  H     8    24       P1  8028  0.94

> <Gold.PLP.Chemscore.Internal.Correction>
0.0228

> <Gold.Rescore>
     Score         DG    S(hbond)    S(metal)    S(lipo)     H(rot)  DE(clash)    DE(int)     intcor
     12.69     -17.91       1.78        0.00      82.45       1.23       0.46       4.76       ----

> <Gold.Chemscore.Fitness>
12.6855

> <Gold.Chemscore.DG>
-17.9063

> <Gold.Chemscore.ZeroCoef>
-5.4800

> <Gold.Chemscore.Hbond>
1.7777

> <Gold.Chemscore.Metal>
0.0000

> <Gold.Chemscore.Lipo>
82.4533

> <Gold.Chemscore.Internal_Hbond>
0.0000

> <Gold.Chemscore.DEClash>
0.4606

> <Gold.Chemscore.DEInternal>
4.7601

> <Gold.Chemscore.Rot>
1.2338

> <Gold.Chemscore.Internal.Correction>
   9.000000E+99

> <Gold.Chemscore.Hbonds>
donor molecule, donor type, donor heavy atom, donor atom, acceptor molecule, acceptor atom, score
      L1  H     8    24       P1  8028  0.85

> <Gold.Chemscore.Hbond.Weighted>
-5.9376

> <Gold.Chemscore.Metal.Weighted>
-0.0000

> <Gold.Chemscore.Lipo.Weighted>
-9.6470

> <Gold.Chemscore.Internal_Hbond.Weighted>
0.0000

> <Gold.Chemscore.DEClash.Weighted>
0.4606

> <Gold.Chemscore.DEInternal.Weighted>
4.7601

> <Gold.Chemscore.Rot.Weighted>
3.1584

> <Gold.Chemscore.Internal.Correction.Weighted>
   9.000000E+99

> <Gold.Protein.RotatedTorsions>
[ 6907 6896 6895 6894 ] final  -51.12 input  -60.11 | X-H torsion
[ 7974 7965 7964 7962 ] final -175.73 input  175.53 | X-H torsion
[ 8008 7997 7996 7995 ] final  -83.16 input   59.86 | X-H torsion
[ 10167 10162 10161 10158 ] final -131.69 input  -65.29 | X-H torsion
[ 10718 10713 10712 10709 ] final  -90.22 input   66.30 | X-H torsion
[ 10763 10752 10751 10750 ] final  121.56 input  -60.55 | X-H torsion
[ 11005 11000 10999 10996 ] final -101.84 input  -57.11 | X-H torsion

> <Gold.Protein.ActiveResidues>
 VAL166  LYS551  ARG553  GLY616  TRP617  ASP618  TYR619  PRO620  LYS621  CYS622 
 ASP623  PHE694  ASN695  SER759  ASP760  ASP761  ALA762  ILE779  LEU786  VAL792 
 PHE793  MET794  SER795  GLU796  ALA797  LYS798  CYS799  TRP800  GLU811  SER814 

> <Gold.Protein.RotatedAtoms>
  150.8642  134.8001  159.7105 H   0  0  0  0  0  0  0  0  0  0  0  0  # atno 6907 bound_to 6896
  152.4669  134.5051  159.9746 H   0  0  0  0  0  0  0  0  0  0  0  0  # atno 6908 bound_to 6896
  151.5150  133.3439  159.2927 H   0  0  0  0  0  0  0  0  0  0  0  0  # atno 6909 bound_to 6896
  144.7127  140.1277  143.6401 H   0  0  0  0  0  0  0  0  0  0  0  0  # atno 7974 bound_to 7965
  154.6162  140.0623  156.9557 H   0  0  0  0  0  0  0  0  0  0  0  0  # atno 8008 bound_to 7997
  155.1892  140.3305  155.4343 H   0  0  0  0  0  0  0  0  0  0  0  0  # atno 8009 bound_to 7997
  156.2405  140.1884  156.6983 H   0  0  0  0  0  0  0  0  0  0  0  0  # atno 8010 bound_to 7997
  139.9163  143.6435  152.2564 H   0  0  0  0  0  0  0  0  0  0  0  0  # atno 10167 bound_to 10162
  155.9987  130.4901  150.5290 H   0  0  0  0  0  0  0  0  0  0  0  0  # atno 10718 bound_to 10713
  153.6161  135.3421  155.2995 H   0  0  0  0  0  0  0  0  0  0  0  0  # atno 10763 bound_to 10752
  154.8609  135.4261  154.2258 H   0  0  0  0  0  0  0  0  0  0  0  0  # atno 10764 bound_to 10752
  153.3120  135.7032  153.7180 H   0  0  0  0  0  0  0  0  0  0  0  0  # atno 10765 bound_to 10752
  141.1214  133.8510  157.1283 H   0  0  0  0  0  0  0  0  0  0  0  0  # atno 11005 bound_to 11000
  145.9315  139.2609  143.1322 LP  0  0  0  0  0  0  0  0  0  0  0  0  # atno 17320 bound_to 7965
  145.9518  140.8903  143.0255 LP  0  0  0  0  0  0  0  0  0  0  0  0  # atno 17321 bound_to 7965
  139.6900  144.7648  151.1456 LP  0  0  0  0  0  0  0  0  0  0  0  0  # atno 17342 bound_to 10162
  140.7673  143.5603  150.9106 LP  0  0  0  0  0  0  0  0  0  0  0  0  # atno 17343 bound_to 10162
  157.3242  131.0687  151.1909 LP  0  0  0  0  0  0  0  0  0  0  0  0  # atno 17370 bound_to 10713
  157.2812  130.6751  149.6067 LP  0  0  0  0  0  0  0  0  0  0  0  0  # atno 17371 bound_to 10713
  140.0175  134.9961  157.0523 LP  0  0  0  0  0  0  0  0  0  0  0  0  # atno 17394 bound_to 11000
  140.4495  134.1597  155.7180 LP  0  0  0  0  0  0  0  0  0  0  0  0  # atno 17395 bound_to 11000

$$$$
