AV-unprocessed.smi:902|AV-procd|sdf|4094|dock4
  -GOLD-   22720 1583D 1   1.00000     0.00000
 Structure written by MMmdl.
 42 44  0  0  0  0  0  0  0  0  1 V2000
  151.7408  137.9871  154.3301 C   0  0  0  0  0  0  0  0  0  0  0  0
  150.9583  139.1244  154.7732 N   0  0  0  0  0  0  0  0  0  0  0  0
  151.4766  139.9940  155.6661 N   0  0  0  0  0  0  0  0  0  0  0  0
  150.5287  140.9065  155.8579 C   0  0  0  0  0  0  0  0  0  0  0  0
  150.7692  142.0481  156.8089 C   0  0  0  0  0  0  0  0  0  0  0  0
  151.8845  141.9624  157.8607 C   0  0  0  0  0  0  0  0  0  0  0  0
  150.9783  142.7380  158.8225 C   0  0  0  0  0  0  0  0  0  0  0  0
  149.7847  142.3281  157.9533 C   0  0  0  0  0  0  0  0  0  0  0  0
  149.3586  140.6501  155.0852 C   0  0  0  0  0  0  0  0  0  0  0  0
  149.6853  139.5049  154.4123 C   0  0  0  0  0  0  0  0  0  0  0  0
  148.9450  138.7972  153.5184 N   0  0  0  0  0  0  0  0  0  0  0  0
  147.6432  138.9308  153.2113 C   0  0  0  0  0  0  0  0  0  0  0  0
  146.8678  139.7402  153.7209 O   0  0  0  0  0  0  0  0  0  0  0  0
  147.2811  138.0573  152.2613 N   0  0  0  0  0  0  0  0  0  0  0  0
  145.9504  137.9657  151.6709 C   0  0  0  0  0  0  0  0  0  0  0  0
  145.2128  136.6394  151.8493 C   0  0  0  0  0  0  0  0  0  0  0  0
  145.5796  135.6158  150.7788 C   0  0  0  0  0  0  0  0  0  0  0  0
  144.8605  135.8315  149.5821 O   0  0  0  0  0  0  0  0  0  0  0  0
  145.0179  136.1375  153.2671 C   0  0  0  0  0  0  0  0  0  0  0  0
  143.8312  136.6119  152.4711 C   0  0  0  0  0  0  0  0  0  0  0  0
  151.1390  137.0799  154.3905 H   0  0  0  0  0  0  0  0  0  0  0  0
  152.6258  137.8635  154.9556 H   0  0  0  0  0  0  0  0  0  0  0  0
  152.0539  138.1406  153.2974 H   0  0  0  0  0  0  0  0  0  0  0  0
  150.9043  142.9675  156.2357 H   0  0  0  0  0  0  0  0  0  0  0  0
  152.0776  140.9431  158.1993 H   0  0  0  0  0  0  0  0  0  0  0  0
  152.8069  142.4758  157.5876 H   0  0  0  0  0  0  0  0  0  0  0  0
  150.9549  142.3481  159.8405 H   0  0  0  0  0  0  0  0  0  0  0  0
  151.1638  143.8129  158.8034 H   0  0  0  0  0  0  0  0  0  0  0  0
  149.0700  143.1266  157.7532 H   0  0  0  0  0  0  0  0  0  0  0  0
  149.2893  141.4286  158.3222 H   0  0  0  0  0  0  0  0  0  0  0  0
  148.4456  141.2246  155.0457 H   0  0  0  0  0  0  0  0  0  0  0  0
  149.4480  138.0809  153.0157 H   0  0  0  0  0  0  0  0  0  0  0  0
  147.9832  137.4291  151.8989 H   0  0  0  0  0  0  0  0  0  0  0  0
  145.3421  138.7550  152.1134 H   0  0  0  0  0  0  0  0  0  0  0  0
  146.0131  138.2045  150.6077 H   0  0  0  0  0  0  0  0  0  0  0  0
  146.6509  135.6513  150.5783 H   0  0  0  0  0  0  0  0  0  0  0  0
  145.3517  134.6104  151.1342 H   0  0  0  0  0  0  0  0  0  0  0  0
  145.4289  135.6424  148.8511 H   0  0  0  0  0  0  0  0  0  0  0  0
  145.0996  135.0679  153.4504 H   0  0  0  0  0  0  0  0  0  0  0  0
  145.3554  136.7725  154.0840 H   0  0  0  0  0  0  0  0  0  0  0  0
  143.3833  137.5615  152.7565 H   0  0  0  0  0  0  0  0  0  0  0  0
  143.1321  135.8588  152.1130 H   0  0  0  0  0  0  0  0  0  0  0  0
  1  2  1  0  0  0  0
  1 21  1  0  0  0  0
  1 22  1  0  0  0  0
  1 23  1  0  0  0  0
  2 10  1  0  0  0  0
  2  3  1  0  0  0  0
  3  4  2  0  0  0  0
  4  5  1  0  0  0  0
  4  9  1  0  0  0  0
  5  8  1  0  0  0  0
  5  6  1  0  0  0  0
  5 24  1  0  0  0  0
  6  7  1  0  0  0  0
  6 25  1  0  0  0  0
  6 26  1  0  0  0  0
  7  8  1  0  0  0  0
  7 27  1  0  0  0  0
  7 28  1  0  0  0  0
  8 29  1  0  0  0  0
  8 30  1  0  0  0  0
  9 10  2  0  0  0  0
  9 31  1  0  0  0  0
 10 11  1  0  0  0  0
 11 12  1  0  0  0  0
 11 32  1  0  0  0  0
 12 13  2  0  0  0  0
 12 14  1  0  0  0  0
 14 15  1  0  0  0  0
 14 33  1  0  0  0  0
 15 16  1  0  0  0  0
 15 34  1  0  0  0  0
 15 35  1  0  0  0  0
 16 20  1  0  0  0  0
 16 17  1  0  0  0  0
 16 19  1  0  0  0  0
 17 18  1  0  0  0  0
 17 36  1  0  0  0  0
 17 37  1  0  0  0  0
 18 38  1  0  0  0  0
 19 20  1  0  0  0  0
 19 39  1  0  0  0  0
 19 40  1  0  0  0  0
 20 41  1  0  0  0  0
 20 42  1  0  0  0  0
M  END
> <s_m_source_file>
AV-unprocessed.smi

> <i_m_source_file_index>
902

> <i_lp_mmshare_version>
43012

> <i_f3d_flags>
0

> <s_epik_input>
W0NIMl0xW0NIMl1bQ0gyXVtDSF0xYyhubjJbQ0gzXSlbY0hdYzJbTkhdQyg9TylbTkhdW0NIMl1DMyhbQ0gyXVtPSF0pW0NIMl1bQ0gyXTM=

> <s_epik_cmdline>
J2VwaWtfcHl0aG9uJywgJy1waCcsICc3LjAnLCAnLXRuJywgJzgnLCAnLW1hJywgJzIwMCcsICctbWV0YWxfYmluZGluZycsICctaW1hZScsICc8aW5maWxlLm1hZT4nLCAnLW9tYWUnLCAnPG91dGZpbGUubWFlPic=

> <r_lp_tautomer_probability>
1

> <r_epik_Ionization_Penalty>
9.68756e-05

> <r_epik_Ionization_Penalty_Charging>
0

> <r_epik_Ionization_Penalty_Neutral>
9.68756e-05

> <r_epik_State_Penalty>
-0

> <r_epik_Charging_Adjusted_Penalty>
0

> <i_epik_Tot_Q>
0

> <i_epik_Tot_abs_Q>
0

> <r_epik_Metal_State_Penalty>
-0

> <b_epik_Metal_Only>
0

> <s_lp_Force_Field>
OPLS_2005

> <r_lp_Energy>
26.4992

> <b_lp_Chiralities_Consistent>
1

> <s_lp_Variant>
AV-unprocessed.smi:902-1

> <Gold.Version>
5.8.1

> <Gold.Id.Protein>
6NUR|6NUR_protein|mol2

> <Gold.PLP.Fitness>
43.9681

> <Gold.PLP.PLP>
-37.7824

> <Gold.PLP.part.hbond>
-5.6077

> <Gold.PLP.part.metal>
0.0000

> <Gold.PLP.part.buried>
-2.4163

> <Gold.PLP.part.nonpolar>
-31.6157

> <Gold.PLP.part.repulsive>
0.3212

> <Gold.PLP.ligand.clash>
0.0000

> <Gold.PLP.ligand.torsion>
1.2561

> <Gold.PLP.Chemscore.Hbond>
2.4550

> <Gold.PLP.Chemscore.CHOScore>
0.0000

> <Gold.PLP.Chemscore.Metal>
0.0000

> <Gold.Chemscore.Hbonds>
donor molecule, donor type, donor heavy atom, donor atom, acceptor molecule, acceptor atom, score
      L1  H    11    32       P1  7948  0.45
      L1  H    14    33       P1  7948  0.96
      L1  H    18    38       P1  7921  1.00

> <Gold.PLP.Chemscore.Internal.Correction>
1.3329

> <Gold.Rescore>
     Score         DG    S(hbond)    S(metal)    S(lipo)     H(rot)  DE(clash)    DE(int)     intcor
     13.99     -18.11       2.89        0.00      75.07       2.26       1.72       2.40       ----

> <Gold.Chemscore.Fitness>
13.9919

> <Gold.Chemscore.DG>
-18.1105

> <Gold.Chemscore.ZeroCoef>
-5.4800

> <Gold.Chemscore.Hbond>
2.8861

> <Gold.Chemscore.Metal>
0.0000

> <Gold.Chemscore.Lipo>
75.0694

> <Gold.Chemscore.Internal_Hbond>
0.0000

> <Gold.Chemscore.DEClash>
1.7209

> <Gold.Chemscore.DEInternal>
2.3977

> <Gold.Chemscore.Rot>
2.2626

> <Gold.Chemscore.Internal.Correction>
   9.000000E+99

> <Gold.Chemscore.Hbonds>
donor molecule, donor type, donor heavy atom, donor atom, acceptor molecule, acceptor atom, score
      L1  H    11    32       P1  7948  0.41
      L1  H    14    33       P1  7948  0.91
      L1  H    18    38       P1  7921  0.99

> <Gold.Chemscore.Hbond.Weighted>
-9.6395

> <Gold.Chemscore.Metal.Weighted>
-0.0000

> <Gold.Chemscore.Lipo.Weighted>
-8.7831

> <Gold.Chemscore.Internal_Hbond.Weighted>
0.0000

> <Gold.Chemscore.DEClash.Weighted>
1.7209

> <Gold.Chemscore.DEInternal.Weighted>
2.3977

> <Gold.Chemscore.Rot.Weighted>
5.7922

> <Gold.Chemscore.Internal.Correction.Weighted>
   9.000000E+99

> <Gold.Protein.RotatedTorsions>
[ 6907 6896 6895 6894 ] final  -68.78 input  -60.11 | X-H torsion
[ 7974 7965 7964 7962 ] final   62.92 input  175.53 | X-H torsion
[ 8008 7997 7996 7995 ] final  126.69 input   59.86 | X-H torsion
[ 10167 10162 10161 10158 ] final  -48.03 input  -65.29 | X-H torsion
[ 10718 10713 10712 10709 ] final  -48.94 input   66.30 | X-H torsion
[ 10763 10752 10751 10750 ] final   44.28 input  -60.55 | X-H torsion
[ 11005 11000 10999 10996 ] final -175.45 input  -57.11 | X-H torsion

> <Gold.Protein.ActiveResidues>
 VAL166  LYS551  ARG553  GLY616  TRP617  ASP618  TYR619  PRO620  LYS621  CYS622 
 ASP623  PHE694  ASN695  SER759  ASP760  ASP761  ALA762  ILE779  LEU786  VAL792 
 PHE793  MET794  SER795  GLU796  ALA797  LYS798  CYS799  TRP800  GLU811  SER814 

> <Gold.Protein.RotatedAtoms>
  150.7338  134.5690  159.5880 H   0  0  0  0  0  0  0  0  0  0  0  0  # atno 6907 bound_to 6896
  152.3134  134.7467  160.0340 H   0  0  0  0  0  0  0  0  0  0  0  0  # atno 6908 bound_to 6896
  151.8007  133.3334  159.3563 H   0  0  0  0  0  0  0  0  0  0  0  0  # atno 6909 bound_to 6896
  145.8678  139.3357  143.0781 H   0  0  0  0  0  0  0  0  0  0  0  0  # atno 7974 bound_to 7965
  156.2871  140.2687  156.2151 H   0  0  0  0  0  0  0  0  0  0  0  0  # atno 8008 bound_to 7997
  155.0225  140.0386  157.2461 H   0  0  0  0  0  0  0  0  0  0  0  0  # atno 8009 bound_to 7997
  154.7424  140.2727  155.6367 H   0  0  0  0  0  0  0  0  0  0  0  0  # atno 8010 bound_to 7997
  140.6749  143.2758  151.4011 H   0  0  0  0  0  0  0  0  0  0  0  0  # atno 10167 bound_to 10162
  156.1940  130.4153  149.9332 H   0  0  0  0  0  0  0  0  0  0  0  0  # atno 10718 bound_to 10713
  152.9844  135.6075  154.3248 H   0  0  0  0  0  0  0  0  0  0  0  0  # atno 10763 bound_to 10752
  154.2955  135.2774  155.2637 H   0  0  0  0  0  0  0  0  0  0  0  0  # atno 10764 bound_to 10752
  154.4913  135.5891  153.6517 H   0  0  0  0  0  0  0  0  0  0  0  0  # atno 10765 bound_to 10752
  140.4631  134.6236  157.4851 H   0  0  0  0  0  0  0  0  0  0  0  0  # atno 11005 bound_to 11000
  145.9173  140.9139  143.0423 LP  0  0  0  0  0  0  0  0  0  0  0  0  # atno 17320 bound_to 7965
  144.6726  140.1241  143.7448 LP  0  0  0  0  0  0  0  0  0  0  0  0  # atno 17321 bound_to 7965
  139.6036  144.1243  152.2225 LP  0  0  0  0  0  0  0  0  0  0  0  0  # atno 17342 bound_to 10162
  140.0635  144.5837  150.7245 LP  0  0  0  0  0  0  0  0  0  0  0  0  # atno 17343 bound_to 10162
  156.7064  130.8953  151.3605 LP  0  0  0  0  0  0  0  0  0  0  0  0  # atno 17370 bound_to 10713
  157.6946  130.9268  150.0609 LP  0  0  0  0  0  0  0  0  0  0  0  0  # atno 17371 bound_to 10713
  139.9932  134.6952  155.9653 LP  0  0  0  0  0  0  0  0  0  0  0  0  # atno 17394 bound_to 11000
  141.1612  133.6539  156.4325 LP  0  0  0  0  0  0  0  0  0  0  0  0  # atno 17395 bound_to 11000

$$$$
