AV-unprocessed.smi:2077|AV-procd|sdf|8461|dock1
  -GOLD-   2272011163D 1   1.00000     0.00000
 Structure written by MMmdl.
 38 40  0  0  0  0  0  0  0  0  1 V2000
  147.9061  135.8159  158.6474 C   0  0  0  0  0  0  0  0  0  0  0  0
  148.2936  137.2029  158.3283 N   0  0  0  0  0  0  0  0  0  0  0  0
  149.5521  137.6215  158.6727 C   0  0  0  0  0  0  0  0  0  0  0  0
  150.3958  136.9220  159.2344 O   0  0  0  0  0  0  0  0  0  0  0  0
  149.8356  139.0146  158.3083 C   0  0  0  0  0  0  0  0  0  0  0  0
  148.9344  139.8127  157.6843 C   0  0  0  0  0  0  0  0  0  0  0  0
  149.4596  141.0786  157.4489 N   0  0  0  0  0  0  0  0  0  0  0  0
  150.6871  140.9715  157.9582 C   0  0  0  0  0  0  0  0  0  0  0  0
  150.9935  139.7713  158.4902 N   0  0  0  0  0  0  0  0  0  0  0  0
  152.2639  139.4052  159.0988 C   0  0  0  0  0  0  0  0  0  0  0  0
  153.3335  140.5081  158.9582 C   0  0  2  0  0  0  0  0  0  0  0  0
  154.6311  139.9453  158.9797 O   0  0  0  0  0  0  0  0  0  0  0  0
  153.1625  141.5811  160.0215 C   0  0  0  0  0  0  0  0  0  0  0  0
  153.5543  141.3281  161.3538 C   0  0  0  0  0  0  0  0  0  0  0  0
  153.3992  142.3223  162.3395 C   0  0  0  0  0  0  0  0  0  0  0  0
  152.8543  143.5751  161.9983 C   0  0  0  0  0  0  0  0  0  0  0  0
  152.4651  143.8342  160.6702 C   0  0  0  0  0  0  0  0  0  0  0  0
  151.9428  145.0392  160.3404 F   0  0  0  0  0  0  0  0  0  0  0  0
  152.6193  142.8405  159.6843 C   0  0  0  0  0  0  0  0  0  0  0  0
  147.6585  139.2760  157.3720 N   0  0  0  0  0  0  0  0  0  0  0  0
  146.6739  140.1240  156.6941 C   0  0  0  0  0  0  0  0  0  0  0  0
  147.3421  137.9785  157.6887 C   0  0  0  0  0  0  0  0  0  0  0  0
  146.2315  137.5210  157.4042 O   0  0  0  0  0  0  0  0  0  0  0  0
  148.6541  135.2457  159.1992 H   0  0  0  0  0  0  0  0  0  0  0  0
  147.7025  135.2606  157.7305 H   0  0  0  0  0  0  0  0  0  0  0  0
  147.0004  135.8010  159.2562 H   0  0  0  0  0  0  0  0  0  0  0  0
  151.3883  141.7929  157.9417 H   0  0  0  0  0  0  0  0  0  0  0  0
  152.0837  139.2047  160.1559 H   0  0  0  0  0  0  0  0  0  0  0  0
  152.6105  138.4636  158.6752 H   0  0  0  0  0  0  0  0  0  0  0  0
  153.2191  140.9754  157.9791 H   0  0  0  0  0  0  0  0  0  0  0  0
  154.7369  139.4658  159.7872 H   0  0  0  0  0  0  0  0  0  0  0  0
  153.9752  140.3712  161.6259 H   0  0  0  0  0  0  0  0  0  0  0  0
  153.6989  142.1237  163.3580 H   0  0  0  0  0  0  0  0  0  0  0  0
  152.7357  144.3372  162.7545 H   0  0  0  0  0  0  0  0  0  0  0  0
  152.3208  143.0478  158.6669 H   0  0  0  0  0  0  0  0  0  0  0  0
  145.7616  140.2037  157.2872 H   0  0  0  0  0  0  0  0  0  0  0  0
  146.4124  139.7024  155.7226 H   0  0  0  0  0  0  0  0  0  0  0  0
  147.0358  141.1371  156.5215 H   0  0  0  0  0  0  0  0  0  0  0  0
  1  2  1  0  0  0  0
  1 24  1  0  0  0  0
  1 25  1  0  0  0  0
  1 26  1  0  0  0  0
  2 22  1  0  0  0  0
  2  3  1  0  0  0  0
  3  4  2  0  0  0  0
  3  5  1  0  0  0  0
  5  9  1  0  0  0  0
  5  6  2  0  0  0  0
  6  7  1  0  0  0  0
  6 20  1  0  0  0  0
  7  8  2  0  0  0  0
  8  9  1  0  0  0  0
  8 27  1  0  0  0  0
  9 10  1  0  0  0  0
 10 11  1  0  0  0  0
 10 28  1  0  0  0  0
 10 29  1  0  0  0  0
 11 12  1  0  0  0  0
 11 13  1  0  0  0  0
 11 30  1  0  0  0  0
 12 31  1  0  0  0  0
 13 19  1  0  0  0  0
 13 14  2  0  0  0  0
 14 15  1  0  0  0  0
 14 32  1  0  0  0  0
 15 16  2  0  0  0  0
 15 33  1  0  0  0  0
 16 17  1  0  0  0  0
 16 34  1  0  0  0  0
 17 18  1  0  0  0  0
 17 19  2  0  0  0  0
 19 35  1  0  0  0  0
 20 21  1  0  0  0  0
 20 22  1  0  0  0  0
 21 36  1  0  0  0  0
 21 37  1  0  0  0  0
 21 38  1  0  0  0  0
 22 23  2  0  0  0  0
M  END
> <s_m_source_file>
AV-unprocessed.smi

> <i_m_source_file_index>
2077

> <i_lp_mmshare_version>
43012

> <i_f3d_flags>
0

> <s_epik_input>
Tz1jMW4oW0NIM10pYyg9TyluKFtDSDNdKWMoYzEyKW5bY0hdbjJbQ0gyXVtDQEhdKFtPSF0pYzNbY0hdW2NIXVtjSF1jKEYpW2NIXTM=

> <s_epik_cmdline>
J2VwaWtfcHl0aG9uJywgJy1waCcsICc3LjAnLCAnLXRuJywgJzgnLCAnLW1hJywgJzIwMCcsICctbWV0YWxfYmluZGluZycsICctaW1hZScsICc8aW5maWxlLm1hZT4nLCAnLW9tYWUnLCAnPG91dGZpbGUubWFlPic=

> <r_lp_tautomer_probability>
1

> <r_epik_Ionization_Penalty>
1.5338e-06

> <r_epik_Ionization_Penalty_Charging>
3.74189e-09

> <r_epik_Ionization_Penalty_Neutral>
1.53006e-06

> <r_epik_State_Penalty>
-0

> <r_epik_Charging_Adjusted_Penalty>
3.74189e-09

> <i_epik_Tot_Q>
0

> <i_epik_Tot_abs_Q>
0

> <r_epik_Metal_State_Penalty>
-0

> <b_epik_Metal_Only>
0

> <s_lp_Force_Field>
OPLS_2005

> <r_lp_Energy>
35.2177

> <b_lp_Chiralities_Consistent>
1

> <s_lp_Variant>
AV-unprocessed.smi:2077-1

> <Gold.Version>
5.8.1

> <Gold.Id.Protein>
6NUR|6NUR_protein|mol2

> <Gold.PLP.Fitness>
48.0148

> <Gold.PLP.PLP>
-43.3242

> <Gold.PLP.part.hbond>
-2.0000

> <Gold.PLP.part.metal>
0.0000

> <Gold.PLP.part.buried>
-5.9715

> <Gold.PLP.part.nonpolar>
-34.9285

> <Gold.PLP.part.repulsive>
0.0374

> <Gold.PLP.ligand.clash>
0.0000

> <Gold.PLP.ligand.torsion>
0.5979

> <Gold.PLP.Chemscore.Hbond>
1.9520

> <Gold.PLP.Chemscore.CHOScore>
0.0000

> <Gold.PLP.Chemscore.Metal>
0.0000

> <Gold.Chemscore.Hbonds>
donor molecule, donor type, donor heavy atom, donor atom, acceptor molecule, acceptor atom, score
      P1  H  6896  6908       L1     4  0.75
      P1  H  7997  8009       L1    12  1.00

> <Gold.PLP.Chemscore.Internal.Correction>
0.0305

> <Gold.Rescore>
     Score         DG    S(hbond)    S(metal)    S(lipo)     H(rot)  DE(clash)    DE(int)     intcor
     15.07     -15.68       1.84        0.00      83.64       2.24       0.00       0.61       ----

> <Gold.Chemscore.Fitness>
15.0695

> <Gold.Chemscore.DG>
-15.6842

> <Gold.Chemscore.ZeroCoef>
-5.4800

> <Gold.Chemscore.Hbond>
1.8405

> <Gold.Chemscore.Metal>
0.0000

> <Gold.Chemscore.Lipo>
83.6386

> <Gold.Chemscore.Internal_Hbond>
0.0000

> <Gold.Chemscore.DEClash>
0.0000

> <Gold.Chemscore.DEInternal>
0.6147

> <Gold.Chemscore.Rot>
2.2377

> <Gold.Chemscore.Internal.Correction>
   9.000000E+99

> <Gold.Chemscore.Hbonds>
donor molecule, donor type, donor heavy atom, donor atom, acceptor molecule, acceptor atom, score
      P1  H  6896  6908       L1     4  0.72
      P1  H  7997  8009       L1    12  0.48

> <Gold.Chemscore.Hbond.Weighted>
-6.1471

> <Gold.Chemscore.Metal.Weighted>
-0.0000

> <Gold.Chemscore.Lipo.Weighted>
-9.7857

> <Gold.Chemscore.Internal_Hbond.Weighted>
0.0000

> <Gold.Chemscore.DEClash.Weighted>
0.0000

> <Gold.Chemscore.DEInternal.Weighted>
0.6147

> <Gold.Chemscore.Rot.Weighted>
5.7286

> <Gold.Chemscore.Internal.Correction.Weighted>
   9.000000E+99

> <Gold.Protein.RotatedTorsions>
[ 6907 6896 6895 6894 ] final -167.80 input  -60.11 | X-H torsion
[ 7974 7965 7964 7962 ] final  -89.93 input  175.53 | X-H torsion
[ 8008 7997 7996 7995 ] final  115.75 input   59.86 | X-H torsion
[ 10167 10162 10161 10158 ] final -121.52 input  -65.29 | X-H torsion
[ 10718 10713 10712 10709 ] final   55.39 input   66.30 | X-H torsion
[ 10763 10752 10751 10750 ] final   63.79 input  -60.55 | X-H torsion
[ 11005 11000 10999 10996 ] final   48.60 input  -57.11 | X-H torsion

> <Gold.Protein.ActiveResidues>
 VAL166  LYS551  ARG553  GLY616  TRP617  ASP618  TYR619  PRO620  LYS621  CYS622 
 ASP623  PHE694  ASN695  SER759  ASP760  ASP761  ALA762  ILE779  LEU786  VAL792 
 PHE793  MET794  SER795  GLU796  ALA797  LYS798  CYS799  TRP800  GLU811  SER814 

> <Gold.Protein.RotatedAtoms>
  151.4654  133.3582  159.2815 H   0  0  0  0  0  0  0  0  0  0  0  0  # atno 6907 bound_to 6896
  150.8997  134.8410  159.7362 H   0  0  0  0  0  0  0  0  0  0  0  0  # atno 6908 bound_to 6896
  152.4872  134.4573  159.9645 H   0  0  0  0  0  0  0  0  0  0  0  0  # atno 6909 bound_to 6896
  145.4333  140.9556  143.2116 H   0  0  0  0  0  0  0  0  0  0  0  0  # atno 7974 bound_to 7965
  156.2399  140.2932  156.0416 H   0  0  0  0  0  0  0  0  0  0  0  0  # atno 8008 bound_to 7997
  155.1981  140.0409  157.2929 H   0  0  0  0  0  0  0  0  0  0  0  0  # atno 8009 bound_to 7997
  154.6149  140.2461  155.7629 H   0  0  0  0  0  0  0  0  0  0  0  0  # atno 8010 bound_to 7997
  140.0241  143.5314  152.2207 H   0  0  0  0  0  0  0  0  0  0  0  0  # atno 10167 bound_to 10162
  157.5340  130.8650  149.8728 H   0  0  0  0  0  0  0  0  0  0  0  0  # atno 10718 bound_to 10713
  153.0031  135.5416  154.6407 H   0  0  0  0  0  0  0  0  0  0  0  0  # atno 10763 bound_to 10752
  154.5663  135.2838  155.0873 H   0  0  0  0  0  0  0  0  0  0  0  0  # atno 10764 bound_to 10752
  154.2056  135.6476  153.5152 H   0  0  0  0  0  0  0  0  0  0  0  0  # atno 10765 bound_to 10752
  140.1176  134.4872  155.8624 H   0  0  0  0  0  0  0  0  0  0  0  0  # atno 11005 bound_to 11000
  144.8169  139.5861  143.7004 LP  0  0  0  0  0  0  0  0  0  0  0  0  # atno 17320 bound_to 7965
  146.2596  139.6379  142.9371 LP  0  0  0  0  0  0  0  0  0  0  0  0  # atno 17321 bound_to 7965
  139.6120  144.7611  151.2931 LP  0  0  0  0  0  0  0  0  0  0  0  0  # atno 17342 bound_to 10162
  140.7330  143.6807  150.8003 LP  0  0  0  0  0  0  0  0  0  0  0  0  # atno 17343 bound_to 10162
  156.0444  130.3731  150.1353 LP  0  0  0  0  0  0  0  0  0  0  0  0  # atno 17370 bound_to 10713
  156.9536  130.9783  151.3493 LP  0  0  0  0  0  0  0  0  0  0  0  0  # atno 17371 bound_to 10713
  141.2144  133.6749  156.6826 LP  0  0  0  0  0  0  0  0  0  0  0  0  # atno 17394 bound_to 11000
  140.3008  134.8165  157.4096 LP  0  0  0  0  0  0  0  0  0  0  0  0  # atno 17395 bound_to 11000

$$$$
