AV-unprocessed.smi:2334|AV-procd|sdf|9321|dock4
  -GOLD-   2272012543D 1   1.00000     0.00000
 Structure written by MMmdl.
 49 51  0  0  0  0  0  0  0  0  1 V2000
  150.9771  137.4591  154.4669 C   0  0  0  0  0  0  0  0  0  0  0  0
  150.2619  138.6823  155.0137 C   0  0  0  0  0  0  0  0  0  0  0  0
  151.0286  139.5244  155.7404 N   0  0  0  0  0  0  0  0  0  0  0  0
  150.4723  140.6442  156.2592 C   0  0  0  0  0  0  0  0  0  0  0  0
  151.3066  141.4928  157.0135 N   0  0  0  0  0  0  0  0  0  0  0  0
  150.9292  142.8639  157.3203 C   0  0  0  0  0  0  0  0  0  0  0  0
  152.0216  143.3629  158.2647 C   0  0  0  0  0  0  0  0  0  0  0  0
  152.4197  142.1011  159.0306 C   0  0  0  0  0  0  0  0  0  0  0  0
  152.2268  140.9697  158.0141 C   0  0  0  0  0  0  0  0  0  0  0  0
  149.1065  140.9529  156.0642 C   0  0  0  0  0  0  0  0  0  0  0  0
  148.3066  140.0758  155.3083 C   0  0  0  0  0  0  0  0  0  0  0  0
  148.8853  138.9015  154.7724 C   0  0  0  0  0  0  0  0  0  0  0  0
  148.1634  137.9685  153.9764 N   0  0  0  0  0  0  0  0  0  0  0  0
  146.8753  137.6003  154.0830 C   0  0  0  0  0  0  0  0  0  0  0  0
  146.0910  138.0117  154.9371 O   0  0  0  0  0  0  0  0  0  0  0  0
  146.5571  136.6973  153.1404 N   0  0  0  0  0  0  0  0  0  0  0  0
  145.2701  136.0210  152.9164 C   0  0  0  0  0  0  0  0  0  0  0  0
  144.1111  137.0284  153.0768 C   0  0  0  0  0  0  0  0  0  0  0  0
  145.2702  135.4716  151.4732 C   0  0  0  0  0  0  0  0  0  0  0  0
  146.2667  134.3102  151.2944 C   0  0  0  0  0  0  0  0  0  0  0  0
  145.9781  133.2709  152.2219 O   0  0  0  0  0  0  0  0  0  0  0  0
  146.0949  133.6895  153.5769 C   0  0  0  0  0  0  0  0  0  0  0  0
  145.0835  134.8131  153.8670 C   0  0  0  0  0  0  0  0  0  0  0  0
  150.5016  136.5474  154.8305 H   0  0  0  0  0  0  0  0  0  0  0  0
  152.0244  137.4365  154.7717 H   0  0  0  0  0  0  0  0  0  0  0  0
  150.9435  137.4561  153.3769 H   0  0  0  0  0  0  0  0  0  0  0  0
  150.8641  143.4752  156.4193 H   0  0  0  0  0  0  0  0  0  0  0  0
  149.9576  142.8726  157.8164 H   0  0  0  0  0  0  0  0  0  0  0  0
  152.8725  143.7264  157.6868 H   0  0  0  0  0  0  0  0  0  0  0  0
  151.6842  144.1706  158.9146 H   0  0  0  0  0  0  0  0  0  0  0  0
  153.4344  142.1450  159.4269 H   0  0  0  0  0  0  0  0  0  0  0  0
  151.7386  141.9560  159.8702 H   0  0  0  0  0  0  0  0  0  0  0  0
  151.8430  140.0720  158.5001 H   0  0  0  0  0  0  0  0  0  0  0  0
  153.1705  140.7207  157.5279 H   0  0  0  0  0  0  0  0  0  0  0  0
  148.6623  141.8437  156.4827 H   0  0  0  0  0  0  0  0  0  0  0  0
  147.2708  140.3288  155.1441 H   0  0  0  0  0  0  0  0  0  0  0  0
  148.7106  137.4752  153.2863 H   0  0  0  0  0  0  0  0  0  0  0  0
  147.2940  136.4388  152.5007 H   0  0  0  0  0  0  0  0  0  0  0  0
  143.1536  136.5729  152.8218 H   0  0  0  0  0  0  0  0  0  0  0  0
  144.2445  137.8933  152.4261 H   0  0  0  0  0  0  0  0  0  0  0  0
  144.0248  137.3946  154.0997 H   0  0  0  0  0  0  0  0  0  0  0  0
  144.2728  135.1109  151.2182 H   0  0  0  0  0  0  0  0  0  0  0  0
  145.4951  136.2669  150.7612 H   0  0  0  0  0  0  0  0  0  0  0  0
  146.1910  133.9070  150.2844 H   0  0  0  0  0  0  0  0  0  0  0  0
  147.2962  134.6485  151.4210 H   0  0  0  0  0  0  0  0  0  0  0  0
  145.8977  132.8349  154.2243 H   0  0  0  0  0  0  0  0  0  0  0  0
  147.1157  134.0134  153.7850 H   0  0  0  0  0  0  0  0  0  0  0  0
  145.1504  135.1136  154.9123 H   0  0  0  0  0  0  0  0  0  0  0  0
  144.0777  134.4095  153.7418 H   0  0  0  0  0  0  0  0  0  0  0  0
  1  2  1  0  0  0  0
  1 24  1  0  0  0  0
  1 25  1  0  0  0  0
  1 26  1  0  0  0  0
  2 12  1  0  0  0  0
  2  3  2  0  0  0  0
  3  4  1  0  0  0  0
  4  5  1  0  0  0  0
  4 10  2  0  0  0  0
  5  9  1  0  0  0  0
  5  6  1  0  0  0  0
  6  7  1  0  0  0  0
  6 27  1  0  0  0  0
  6 28  1  0  0  0  0
  7  8  1  0  0  0  0
  7 29  1  0  0  0  0
  7 30  1  0  0  0  0
  8  9  1  0  0  0  0
  8 31  1  0  0  0  0
  8 32  1  0  0  0  0
  9 33  1  0  0  0  0
  9 34  1  0  0  0  0
 10 11  1  0  0  0  0
 10 35  1  0  0  0  0
 11 12  2  0  0  0  0
 11 36  1  0  0  0  0
 12 13  1  0  0  0  0
 13 14  1  0  0  0  0
 13 37  1  0  0  0  0
 14 15  2  0  0  0  0
 14 16  1  0  0  0  0
 16 17  1  0  0  0  0
 16 38  1  0  0  0  0
 17 23  1  0  0  0  0
 17 18  1  0  0  0  0
 17 19  1  0  0  0  0
 18 39  1  0  0  0  0
 18 40  1  0  0  0  0
 18 41  1  0  0  0  0
 19 20  1  0  0  0  0
 19 42  1  0  0  0  0
 19 43  1  0  0  0  0
 20 21  1  0  0  0  0
 20 44  1  0  0  0  0
 20 45  1  0  0  0  0
 21 22  1  0  0  0  0
 22 23  1  0  0  0  0
 22 46  1  0  0  0  0
 22 47  1  0  0  0  0
 23 48  1  0  0  0  0
 23 49  1  0  0  0  0
M  END
> <s_m_source_file>
AV-unprocessed.smi

> <i_m_source_file_index>
2334

> <i_lp_mmshare_version>
43012

> <i_f3d_flags>
0

> <s_epik_input>
W0NIMl0xW0NIMl1bQ0gyXVtDSDJdTjFjKG5jMltDSDNdKVtjSF1bY0hdYzJbTkhdQyg9TylbTkhdQzMoW0NIM10pW0NIMl1bQ0gyXU9bQ0gyXVtDSDJdMw==

> <s_epik_cmdline>
J2VwaWtfcHl0aG9uJywgJy1waCcsICc3LjAnLCAnLXRuJywgJzgnLCAnLW1hJywgJzIwMCcsICctbWV0YWxfYmluZGluZycsICctaW1hZScsICc8aW5maWxlLm1hZT4nLCAnLW9tYWUnLCAnPG91dGZpbGUubWFlPic=

> <r_lp_tautomer_probability>
1

> <r_epik_Ionization_Penalty>
0.314437

> <r_epik_Ionization_Penalty_Charging>
0

> <r_epik_Ionization_Penalty_Neutral>
0.314437

> <r_epik_State_Penalty>
0.308039

> <r_epik_Charging_Adjusted_Penalty>
0.308039

> <i_epik_Tot_Q>
0

> <i_epik_Tot_abs_Q>
0

> <r_epik_Metal_State_Penalty>
0.200041

> <b_epik_Metal_Only>
0

> <s_lp_Force_Field>
OPLS_2005

> <r_lp_Energy>
36.0775

> <b_lp_Chiralities_Consistent>
1

> <s_lp_Variant>
AV-unprocessed.smi:2334-1

> <Gold.Version>
5.8.1

> <Gold.Id.Protein>
6NUR|6NUR_protein|mol2

> <Gold.PLP.Fitness>
37.7404

> <Gold.PLP.PLP>
-33.7036

> <Gold.PLP.part.hbond>
-2.0000

> <Gold.PLP.part.metal>
0.0000

> <Gold.PLP.part.buried>
-5.5436

> <Gold.PLP.part.nonpolar>
-27.2888

> <Gold.PLP.part.repulsive>
0.2165

> <Gold.PLP.ligand.clash>
0.0000

> <Gold.PLP.ligand.torsion>
1.0788

> <Gold.PLP.Chemscore.Hbond>
2.0000

> <Gold.PLP.Chemscore.CHOScore>
0.0000

> <Gold.PLP.Chemscore.Metal>
0.0000

> <Gold.Chemscore.Hbonds>
donor molecule, donor type, donor heavy atom, donor atom, acceptor molecule, acceptor atom, score
      L1  H    13    37       P1  7948  1.00
      L1  H    16    38       P1  7948  1.00

> <Gold.PLP.Chemscore.Internal.Correction>
0.1944

> <Gold.Rescore>
     Score         DG    S(hbond)    S(metal)    S(lipo)     H(rot)  DE(clash)    DE(int)     intcor
     18.11     -19.63       1.98        0.00      86.40       1.00       0.10       1.42       ----

> <Gold.Chemscore.Fitness>
18.1110

> <Gold.Chemscore.DG>
-19.6307

> <Gold.Chemscore.ZeroCoef>
-5.4800

> <Gold.Chemscore.Hbond>
1.9765

> <Gold.Chemscore.Metal>
0.0000

> <Gold.Chemscore.Lipo>
86.4049

> <Gold.Chemscore.Internal_Hbond>
0.0000

> <Gold.Chemscore.DEClash>
0.0959

> <Gold.Chemscore.DEInternal>
1.4238

> <Gold.Chemscore.Rot>
1.0000

> <Gold.Chemscore.Internal.Correction>
   9.000000E+99

> <Gold.Chemscore.Hbonds>
donor molecule, donor type, donor heavy atom, donor atom, acceptor molecule, acceptor atom, score
      L1  H    13    37       P1  7948  0.98
      L1  H    16    38       P1  7948  1.00

> <Gold.Chemscore.Hbond.Weighted>
-6.6013

> <Gold.Chemscore.Metal.Weighted>
-0.0000

> <Gold.Chemscore.Lipo.Weighted>
-10.1094

> <Gold.Chemscore.Internal_Hbond.Weighted>
0.0000

> <Gold.Chemscore.DEClash.Weighted>
0.0959

> <Gold.Chemscore.DEInternal.Weighted>
1.4238

> <Gold.Chemscore.Rot.Weighted>
2.5600

> <Gold.Chemscore.Internal.Correction.Weighted>
   9.000000E+99

> <Gold.Protein.RotatedTorsions>
[ 6907 6896 6895 6894 ] final -117.20 input  -60.11 | X-H torsion
[ 7974 7965 7964 7962 ] final   57.39 input  175.53 | X-H torsion
[ 8008 7997 7996 7995 ] final -176.38 input   59.86 | X-H torsion
[ 10167 10162 10161 10158 ] final   61.72 input  -65.29 | X-H torsion
[ 10718 10713 10712 10709 ] final   64.36 input   66.30 | X-H torsion
[ 10763 10752 10751 10750 ] final  159.76 input  -60.55 | X-H torsion
[ 11005 11000 10999 10996 ] final  120.18 input  -57.11 | X-H torsion

> <Gold.Protein.ActiveResidues>
 VAL166  LYS551  ARG553  GLY616  TRP617  ASP618  TYR619  PRO620  LYS621  CYS622 
 ASP623  PHE694  ASN695  SER759  ASP760  ASP761  ALA762  ILE779  LEU786  VAL792 
 PHE793  MET794  SER795  GLU796  ALA797  LYS798  CYS799  TRP800  GLU811  SER814 

> <Gold.Protein.RotatedAtoms>
  150.8117  133.8409  159.3178 H   0  0  0  0  0  0  0  0  0  0  0  0  # atno 6907 bound_to 6896
  151.6193  135.1032  160.0107 H   0  0  0  0  0  0  0  0  0  0  0  0  # atno 6908 bound_to 6896
  152.4209  133.7075  159.6516 H   0  0  0  0  0  0  0  0  0  0  0  0  # atno 6909 bound_to 6896
  145.9295  139.3796  143.0429 H   0  0  0  0  0  0  0  0  0  0  0  0  # atno 7974 bound_to 7965
  155.9941  140.1207  157.0610 H   0  0  0  0  0  0  0  0  0  0  0  0  # atno 8008 bound_to 7997
  154.4221  140.1120  156.5674 H   0  0  0  0  0  0  0  0  0  0  0  0  # atno 8009 bound_to 7997
  155.6303  140.3473  155.4683 H   0  0  0  0  0  0  0  0  0  0  0  0  # atno 8010 bound_to 7997
  140.1517  144.4456  150.6756 H   0  0  0  0  0  0  0  0  0  0  0  0  # atno 10167 bound_to 10162
  157.6034  130.9156  149.9835 H   0  0  0  0  0  0  0  0  0  0  0  0  # atno 10718 bound_to 10713
  154.2368  135.2776  155.2869 H   0  0  0  0  0  0  0  0  0  0  0  0  # atno 10763 bound_to 10752
  154.5578  135.5656  153.6983 H   0  0  0  0  0  0  0  0  0  0  0  0  # atno 10764 bound_to 10752
  153.0008  135.6290  154.2511 H   0  0  0  0  0  0  0  0  0  0  0  0  # atno 10765 bound_to 10752
  139.9175  134.9633  156.7767 H   0  0  0  0  0  0  0  0  0  0  0  0  # atno 11005 bound_to 11000
  145.8444  140.9563  143.0782 LP  0  0  0  0  0  0  0  0  0  0  0  0  # atno 17320 bound_to 7965
  144.6763  140.0326  143.7482 LP  0  0  0  0  0  0  0  0  0  0  0  0  # atno 17321 bound_to 7965
  140.6698  143.2281  151.5653 LP  0  0  0  0  0  0  0  0  0  0  0  0  # atno 17342 bound_to 10162
  139.5423  144.2615  152.1374 LP  0  0  0  0  0  0  0  0  0  0  0  0  # atno 17343 bound_to 10162
  156.1113  130.3650  150.0043 LP  0  0  0  0  0  0  0  0  0  0  0  0  # atno 17370 bound_to 10713
  156.8141  130.9335  151.3643 LP  0  0  0  0  0  0  0  0  0  0  0  0  # atno 17371 bound_to 10713
  140.6577  133.9674  155.7788 LP  0  0  0  0  0  0  0  0  0  0  0  0  # atno 17394 bound_to 11000
  141.0665  134.0269  157.3587 LP  0  0  0  0  0  0  0  0  0  0  0  0  # atno 17395 bound_to 11000

$$$$
