AV-unprocessed.smi:2510|AV-procd|sdf|9874|dock1
  -GOLD-   2272013503D 1   1.00000     0.00000
 Structure written by MMmdl.
 48 49  0  0  0  0  0  0  0  0  1 V2000
  147.2284  141.0474  154.3828 C   0  0  0  0  0  0  0  0  0  0  0  0
  148.5414  140.4274  153.8766 C   0  0  0  0  0  0  0  0  0  0  0  0
  149.3376  139.5440  154.8795 C   0  0  0  0  0  0  0  0  0  0  0  0
  149.5615  140.4112  156.1427 C   0  0  0  0  0  0  0  0  0  0  0  0
  150.4084  141.6767  155.9190 C   0  0  0  0  0  0  0  0  0  0  0  0
  148.8082  138.1125  155.1979 C   0  0  1  0  0  0  0  0  0  0  0  0
  148.0134  137.5121  154.1253 N   0  0  0  0  0  0  0  0  0  0  0  0
  146.7132  137.1958  154.2260 C   0  0  0  0  0  0  0  0  0  0  0  0
  146.0456  137.3899  155.2418 O   0  0  0  0  0  0  0  0  0  0  0  0
  146.0636  136.5663  152.9931 C   0  0  0  0  0  0  0  0  0  0  0  0
  144.7313  135.9657  153.3550 C   0  0  0  0  0  0  0  0  0  0  0  0
  143.4325  136.3988  152.9535 C   0  0  0  0  0  0  0  0  0  0  0  0
  142.5808  135.5076  153.5428 C   0  0  0  0  0  0  0  0  0  0  0  0
  141.0948  135.3938  153.5095 C   0  0  0  0  0  0  0  0  0  0  0  0
  143.3715  134.6266  154.2433 N   0  0  0  0  0  0  0  0  0  0  0  0
  144.6859  134.8970  154.1388 N   0  0  0  0  0  0  0  0  0  0  0  0
  150.2561  137.5892  155.2087 C   0  0  1  0  0  0  0  0  0  0  0  0
  150.5760  136.1852  154.7003 C   0  0  0  0  0  0  0  0  0  0  0  0
  150.6088  138.8158  154.3551 C   0  0  2  0  0  0  0  0  0  0  0  0
  151.8093  139.4829  154.7172 O   0  0  0  0  0  0  0  0  0  0  0  0
  152.9747  138.7182  154.4628 C   0  0  0  0  0  0  0  0  0  0  0  0
  143.0325  133.8479  154.7904 H   0  0  0  0  0  0  0  0  0  0  0  0
  146.7923  141.6924  153.6198 H   0  0  0  0  0  0  0  0  0  0  0  0
  147.3760  141.6544  155.2740 H   0  0  0  0  0  0  0  0  0  0  0  0
  146.4908  140.2788  154.6145 H   0  0  0  0  0  0  0  0  0  0  0  0
  148.2806  139.8555  152.9855 H   0  0  0  0  0  0  0  0  0  0  0  0
  149.1813  141.2314  153.5125 H   0  0  0  0  0  0  0  0  0  0  0  0
  148.6049  140.7264  156.5593 H   0  0  0  0  0  0  0  0  0  0  0  0
  150.0231  139.8150  156.9308 H   0  0  0  0  0  0  0  0  0  0  0  0
  150.4907  142.2478  156.8439 H   0  0  0  0  0  0  0  0  0  0  0  0
  149.9675  142.3336  155.1701 H   0  0  0  0  0  0  0  0  0  0  0  0
  151.4216  141.4371  155.5971 H   0  0  0  0  0  0  0  0  0  0  0  0
  148.3470  138.0165  156.1816 H   0  0  0  0  0  0  0  0  0  0  0  0
  148.4845  137.3244  153.2520 H   0  0  0  0  0  0  0  0  0  0  0  0
  145.9579  137.3253  152.2163 H   0  0  0  0  0  0  0  0  0  0  0  0
  146.7240  135.7985  152.5884 H   0  0  0  0  0  0  0  0  0  0  0  0
  143.1699  137.2332  152.3198 H   0  0  0  0  0  0  0  0  0  0  0  0
  140.6435  136.3038  153.1136 H   0  0  0  0  0  0  0  0  0  0  0  0
  140.6934  135.2264  154.5094 H   0  0  0  0  0  0  0  0  0  0  0  0
  140.7860  134.5620  152.8760 H   0  0  0  0  0  0  0  0  0  0  0  0
  150.6599  137.7205  156.2139 H   0  0  0  0  0  0  0  0  0  0  0  0
  150.3524  136.0783  153.6386 H   0  0  0  0  0  0  0  0  0  0  0  0
  149.9980  135.4327  155.2372 H   0  0  0  0  0  0  0  0  0  0  0  0
  151.6300  135.9448  154.8365 H   0  0  0  0  0  0  0  0  0  0  0  0
  150.5748  138.5714  153.2930 H   0  0  0  0  0  0  0  0  0  0  0  0
  153.8576  139.3069  154.7114 H   0  0  0  0  0  0  0  0  0  0  0  0
  153.0430  138.4377  153.4108 H   0  0  0  0  0  0  0  0  0  0  0  0
  152.9971  137.8138  155.0703 H   0  0  0  0  0  0  0  0  0  0  0  0
  1  2  1  0  0  0  0
  1 23  1  0  0  0  0
  1 24  1  0  0  0  0
  1 25  1  0  0  0  0
  2  3  1  0  0  0  0
  2 26  1  0  0  0  0
  2 27  1  0  0  0  0
  3 19  1  0  0  0  0
  3  4  1  0  0  0  0
  3  6  1  0  0  0  0
  4  5  1  0  0  0  0
  4 28  1  0  0  0  0
  4 29  1  0  0  0  0
  5 30  1  0  0  0  0
  5 31  1  0  0  0  0
  5 32  1  0  0  0  0
  6  7  1  0  0  0  0
  6 17  1  0  0  0  0
  6 33  1  0  0  0  0
  7  8  1  0  0  0  0
  7 34  1  0  0  0  0
  8  9  2  0  0  0  0
  8 10  1  0  0  0  0
 10 11  1  0  0  0  0
 10 35  1  0  0  0  0
 10 36  1  0  0  0  0
 11 16  2  0  0  0  0
 11 12  1  0  0  0  0
 12 13  2  0  0  0  0
 12 37  1  0  0  0  0
 13 14  1  0  0  0  0
 13 15  1  0  0  0  0
 14 38  1  0  0  0  0
 14 39  1  0  0  0  0
 14 40  1  0  0  0  0
 15 22  1  0  0  0  0
 15 16  1  0  0  0  0
 17 18  1  0  0  0  0
 17 19  1  0  0  0  0
 17 41  1  0  0  0  0
 18 42  1  0  0  0  0
 18 43  1  0  0  0  0
 18 44  1  0  0  0  0
 19 20  1  0  0  0  0
 19 45  1  0  0  0  0
 20 21  1  0  0  0  0
 21 46  1  0  0  0  0
 21 47  1  0  0  0  0
 21 48  1  0  0  0  0
M  END
> <s_m_source_file>
AV-unprocessed.smi

> <i_m_source_file_index>
2510

> <i_lp_mmshare_version>
43012

> <i_f3d_flags>
0

> <s_epik_input>
W0NIM11PW0NAQEhdMVtDQEhdKFtDSDNdKVtDQEBIXShDMShbQ0gyXVtDSDNdKVtDSDJdW0NIM10pW05IXUMoPU8pW0NIMl1jMltjSF1jKFtDSDNdKVtuSF1uMg==

> <s_epik_cmdline>
J2VwaWtfcHl0aG9uJywgJy1waCcsICc3LjAnLCAnLXRuJywgJzgnLCAnLW1hJywgJzIwMCcsICctbWV0YWxfYmluZGluZycsICctaW1hZScsICc8aW5maWxlLm1hZT4nLCAnLW9tYWUnLCAnPG91dGZpbGUubWFlPic=

> <r_lp_tautomer_probability>
0.5

> <r_epik_Ionization_Penalty>
9.73156e-05

> <r_epik_Ionization_Penalty_Charging>
0

> <r_epik_Ionization_Penalty_Neutral>
9.73156e-05

> <r_epik_State_Penalty>
0.41068

> <r_epik_Charging_Adjusted_Penalty>
0.41068

> <i_epik_Tot_Q>
0

> <i_epik_Tot_abs_Q>
0

> <r_epik_Metal_State_Penalty>
0.410699

> <b_epik_Metal_Only>
0

> <s_lp_Force_Field>
OPLS_2005

> <r_lp_Energy>
25.9502

> <b_lp_Chiralities_Consistent>
1

> <s_lp_Variant>
AV-unprocessed.smi:2510-5

> <Gold.Version>
5.8.1

> <Gold.Id.Protein>
6NUR|6NUR_protein|mol2

> <Gold.PLP.Fitness>
37.9854

> <Gold.PLP.PLP>
-29.9960

> <Gold.PLP.part.hbond>
-3.0000

> <Gold.PLP.part.metal>
0.0000

> <Gold.PLP.part.buried>
-2.0730

> <Gold.PLP.part.nonpolar>
-23.7288

> <Gold.PLP.part.repulsive>
0.1595

> <Gold.PLP.ligand.clash>
0.0000

> <Gold.PLP.ligand.torsion>
0.6023

> <Gold.PLP.Chemscore.Hbond>
2.8620

> <Gold.PLP.Chemscore.CHOScore>
0.0000

> <Gold.PLP.Chemscore.Metal>
0.0000

> <Gold.Chemscore.Hbonds>
donor molecule, donor type, donor heavy atom, donor atom, acceptor molecule, acceptor atom, score
      L1  H     7    34       P1  7948  1.00
      L1  H    15    22       P1 10957  0.73
      P1  H  7989  7998       L1    20  0.85

> <Gold.PLP.Chemscore.Internal.Correction>
0.6079

> <Gold.Rescore>
     Score         DG    S(hbond)    S(metal)    S(lipo)     H(rot)  DE(clash)    DE(int)     intcor
     14.87     -17.57       2.23        0.00      79.33       1.81       0.28       2.42       ----

> <Gold.Chemscore.Fitness>
14.8737

> <Gold.Chemscore.DG>
-17.5737

> <Gold.Chemscore.ZeroCoef>
-5.4800

> <Gold.Chemscore.Hbond>
2.2294

> <Gold.Chemscore.Metal>
0.0000

> <Gold.Chemscore.Lipo>
79.3304

> <Gold.Chemscore.Internal_Hbond>
0.0000

> <Gold.Chemscore.DEClash>
0.2784

> <Gold.Chemscore.DEInternal>
2.4216

> <Gold.Chemscore.Rot>
1.8102

> <Gold.Chemscore.Internal.Correction>
   9.000000E+99

> <Gold.Chemscore.Hbonds>
donor molecule, donor type, donor heavy atom, donor atom, acceptor molecule, acceptor atom, score
      L1  H     7    34       P1  7948  0.98
      L1  H    15    22       P1 10957  0.69
      P1  H  7989  7998       L1    20  0.10

> <Gold.Chemscore.Hbond.Weighted>
-7.4461

> <Gold.Chemscore.Metal.Weighted>
-0.0000

> <Gold.Chemscore.Lipo.Weighted>
-9.2817

> <Gold.Chemscore.Internal_Hbond.Weighted>
0.0000

> <Gold.Chemscore.DEClash.Weighted>
0.2784

> <Gold.Chemscore.DEInternal.Weighted>
2.4216

> <Gold.Chemscore.Rot.Weighted>
4.6341

> <Gold.Chemscore.Internal.Correction.Weighted>
   9.000000E+99

> <Gold.Protein.RotatedTorsions>
[ 6907 6896 6895 6894 ] final  -59.44 input  -60.11 | X-H torsion
[ 7974 7965 7964 7962 ] final   36.40 input  175.53 | X-H torsion
[ 8008 7997 7996 7995 ] final  179.55 input   59.86 | X-H torsion
[ 10167 10162 10161 10158 ] final  -72.93 input  -65.29 | X-H torsion
[ 10718 10713 10712 10709 ] final   32.33 input   66.30 | X-H torsion
[ 10763 10752 10751 10750 ] final   66.45 input  -60.55 | X-H torsion
[ 11005 11000 10999 10996 ] final  136.73 input  -57.11 | X-H torsion

> <Gold.Protein.ActiveResidues>
 VAL166  LYS551  ARG553  GLY616  TRP617  ASP618  TYR619  PRO620  LYS621  CYS622 
 ASP623  PHE694  ASN695  SER759  ASP760  ASP761  ALA762  ILE779  LEU786  VAL792 
 PHE793  MET794  SER795  GLU796  ALA797  LYS798  CYS799  TRP800  GLU811  SER814 

> <Gold.Protein.RotatedAtoms>
  150.7930  134.6969  159.6527 H   0  0  0  0  0  0  0  0  0  0  0  0  # atno 6907 bound_to 6896
  152.4039  134.6237  160.0067 H   0  0  0  0  0  0  0  0  0  0  0  0  # atno 6908 bound_to 6896
  151.6500  133.3284  159.3186 H   0  0  0  0  0  0  0  0  0  0  0  0  # atno 6909 bound_to 6896
  146.1214  139.6022  142.9287 H   0  0  0  0  0  0  0  0  0  0  0  0  # atno 7974 bound_to 7965
  156.0421  140.1306  157.0144 H   0  0  0  0  0  0  0  0  0  0  0  0  # atno 8008 bound_to 7997
  154.4395  140.1028  156.6322 H   0  0  0  0  0  0  0  0  0  0  0  0  # atno 8009 bound_to 7997
  155.5651  140.3465  155.4503 H   0  0  0  0  0  0  0  0  0  0  0  0  # atno 8010 bound_to 7997
  140.5152  143.2339  151.7526 H   0  0  0  0  0  0  0  0  0  0  0  0  # atno 10167 bound_to 10162
  157.2839  130.7268  149.6572 H   0  0  0  0  0  0  0  0  0  0  0  0  # atno 10718 bound_to 10713
  153.0140  135.5320  154.6826 H   0  0  0  0  0  0  0  0  0  0  0  0  # atno 10763 bound_to 10752
  154.5982  135.2865  155.0566 H   0  0  0  0  0  0  0  0  0  0  0  0  # atno 10764 bound_to 10752
  154.1633  135.6544  153.5044 H   0  0  0  0  0  0  0  0  0  0  0  0  # atno 10765 bound_to 10752
  140.0066  134.9456  157.0188 H   0  0  0  0  0  0  0  0  0  0  0  0  # atno 11005 bound_to 11000
  145.5458  141.0417  143.2305 LP  0  0  0  0  0  0  0  0  0  0  0  0  # atno 17320 bound_to 7965
  144.7600  139.6979  143.7238 LP  0  0  0  0  0  0  0  0  0  0  0  0  # atno 17321 bound_to 7965
  139.4907  144.4334  151.9846 LP  0  0  0  0  0  0  0  0  0  0  0  0  # atno 17342 bound_to 10162
  140.3428  144.3182  150.5964 LP  0  0  0  0  0  0  0  0  0  0  0  0  # atno 17343 bound_to 10162
  155.9665  130.4330  150.4986 LP  0  0  0  0  0  0  0  0  0  0  0  0  # atno 17370 bound_to 10713
  157.2935  131.0631  151.2117 LP  0  0  0  0  0  0  0  0  0  0  0  0  # atno 17371 bound_to 10713
  140.4630  134.1464  155.7193 LP  0  0  0  0  0  0  0  0  0  0  0  0  # atno 17394 bound_to 11000
  141.1681  133.8663  157.1654 LP  0  0  0  0  0  0  0  0  0  0  0  0  # atno 17395 bound_to 11000

$$$$
