AV-unprocessed.smi:2492|AV-procd|sdf|9813|dock9
  -GOLD-   2272013443D 1   1.00000     0.00000
 Structure written by MMmdl.
 33 34  0  0  0  0  0  0  0  0  1 V2000
  144.0987  132.7029  148.9226 C   0  0  0  0  0  0  0  0  0  0  0  0
  145.6764  132.1674  149.6361 S   0  0  0  0  0  0  0  0  0  0  0  0
  145.3934  132.5666  151.3852 C   0  0  2  0  0  0  0  0  0  0  0  0
  144.8164  133.9653  151.5977 C   0  0  0  0  0  0  0  0  0  0  0  0
  145.1291  134.2792  153.0609 C   0  0  0  0  0  0  0  0  0  0  0  0
  146.4389  133.5373  153.3840 C   0  0  2  0  0  0  0  0  0  0  0  0
  147.5383  134.4840  153.5520 N   0  0  0  0  0  0  0  0  0  0  0  0
  148.1836  134.7134  154.7049 C   0  0  0  0  0  0  0  0  0  0  0  0
  147.9111  134.1413  155.7607 O   0  0  0  0  0  0  0  0  0  0  0  0
  149.1509  135.6328  154.5486 N   0  0  0  0  0  0  0  0  0  0  0  0
  150.0372  136.1343  155.5352 C   0  0  0  0  0  0  0  0  0  0  0  0
  149.7062  136.5818  156.7467 N   0  0  0  0  0  0  0  0  0  0  0  0
  150.9290  136.9275  157.2352 C   0  0  0  0  0  0  0  0  0  0  0  0
  151.1240  137.4960  158.5992 C   0  0  0  0  0  0  0  0  0  0  0  0
  151.9593  136.7226  156.4225 N   0  0  0  0  0  0  0  0  0  0  0  0
  151.3634  136.1891  155.2700 O   0  0  0  0  0  0  0  0  0  0  0  0
  146.6879  132.5760  152.2033 C   0  0  0  0  0  0  0  0  0  0  0  0
  144.0852  132.5031  147.8513 H   0  0  0  0  0  0  0  0  0  0  0  0
  143.9504  133.7719  149.0739 H   0  0  0  0  0  0  0  0  0  0  0  0
  143.2696  132.1663  149.3843 H   0  0  0  0  0  0  0  0  0  0  0  0
  144.7136  131.8275  151.8117 H   0  0  0  0  0  0  0  0  0  0  0  0
  145.3257  134.6826  150.9525 H   0  0  0  0  0  0  0  0  0  0  0  0
  143.7491  134.0197  151.3816 H   0  0  0  0  0  0  0  0  0  0  0  0
  145.1799  135.3529  153.2470 H   0  0  0  0  0  0  0  0  0  0  0  0
  144.3298  133.8844  153.6900 H   0  0  0  0  0  0  0  0  0  0  0  0
  146.3021  132.9718  154.3078 H   0  0  0  0  0  0  0  0  0  0  0  0
  147.8279  134.9958  152.7313 H   0  0  0  0  0  0  0  0  0  0  0  0
  149.2678  136.0166  153.6226 H   0  0  0  0  0  0  0  0  0  0  0  0
  151.8701  138.2911  158.5795 H   0  0  0  0  0  0  0  0  0  0  0  0
  151.4618  136.7189  159.2850 H   0  0  0  0  0  0  0  0  0  0  0  0
  150.1901  137.9110  158.9796 H   0  0  0  0  0  0  0  0  0  0  0  0
  146.9643  131.5763  152.5401 H   0  0  0  0  0  0  0  0  0  0  0  0
  147.5082  132.9422  151.5834 H   0  0  0  0  0  0  0  0  0  0  0  0
  1  2  1  0  0  0  0
  1 18  1  0  0  0  0
  1 19  1  0  0  0  0
  1 20  1  0  0  0  0
  2  3  1  0  0  0  0
  3 17  1  0  0  0  0
  3  4  1  0  0  0  0
  3 21  1  0  0  0  0
  4  5  1  0  0  0  0
  4 22  1  0  0  0  0
  4 23  1  0  0  0  0
  5  6  1  0  0  0  0
  5 24  1  0  0  0  0
  5 25  1  0  0  0  0
  6  7  1  0  0  0  0
  6 17  1  0  0  0  0
  6 26  1  0  0  0  0
  7  8  1  0  0  0  0
  7 27  1  0  0  0  0
  8  9  2  0  0  0  0
  8 10  1  0  0  0  0
 10 11  1  0  0  0  0
 10 28  1  0  0  0  0
 11 16  1  0  0  0  0
 11 12  2  0  0  0  0
 12 13  1  0  0  0  0
 13 14  1  0  0  0  0
 13 15  2  0  0  0  0
 14 29  1  0  0  0  0
 14 30  1  0  0  0  0
 14 31  1  0  0  0  0
 15 16  1  0  0  0  0
 17 32  1  0  0  0  0
 17 33  1  0  0  0  0
M  END
> <s_m_source_file>
AV-unprocessed.smi

> <i_m_source_file_index>
2492

> <i_lp_mmshare_version>
43012

> <i_f3d_flags>
0

> <s_epik_input>
W0NIM11TW0NAQEhdMVtDSDJdW0NIMl1bQ0BIXShbQ0gyXTEpW05IXUMoPU8pW05IXWMybmMoW0NIM10pbm8y

> <s_epik_cmdline>
J2VwaWtfcHl0aG9uJywgJy1waCcsICc3LjAnLCAnLXRuJywgJzgnLCAnLW1hJywgJzIwMCcsICctbWV0YWxfYmluZGluZycsICctaW1hZScsICc8aW5maWxlLm1hZT4nLCAnLW9tYWUnLCAnPG91dGZpbGUubWFlPic=

> <r_lp_tautomer_probability>
1

> <r_epik_Ionization_Penalty>
3.56659e-05

> <r_epik_Ionization_Penalty_Charging>
0

> <r_epik_Ionization_Penalty_Neutral>
3.56659e-05

> <r_epik_State_Penalty>
-0

> <r_epik_Charging_Adjusted_Penalty>
0

> <i_epik_Tot_Q>
0

> <i_epik_Tot_abs_Q>
0

> <r_epik_Metal_State_Penalty>
0.0146047

> <b_epik_Metal_Only>
0

> <s_lp_Force_Field>
OPLS_2005

> <r_lp_Energy>
15.0837

> <b_lp_Chiralities_Consistent>
1

> <s_lp_Variant>
AV-unprocessed.smi:2492-3

> <Gold.Version>
5.8.1

> <Gold.Id.Protein>
6NUR|6NUR_protein|mol2

> <Gold.PLP.Fitness>
31.6231

> <Gold.PLP.PLP>
-23.8957

> <Gold.PLP.part.hbond>
-3.5248

> <Gold.PLP.part.metal>
0.0000

> <Gold.PLP.part.buried>
-3.9411

> <Gold.PLP.part.nonpolar>
-16.2756

> <Gold.PLP.part.repulsive>
0.1438

> <Gold.PLP.ligand.clash>
0.0000

> <Gold.PLP.ligand.torsion>
0.5784

> <Gold.PLP.Chemscore.Hbond>
2.9600

> <Gold.PLP.Chemscore.CHOScore>
0.0000

> <Gold.PLP.Chemscore.Metal>
0.0000

> <Gold.Chemscore.Hbonds>
donor molecule, donor type, donor heavy atom, donor atom, acceptor molecule, acceptor atom, score
      L1  H     7    27       P1  7948  1.00
      L1  H    10    28       P1  7948  1.00
      P1  H 10752 10764       L1    16  0.91

> <Gold.PLP.Chemscore.Internal.Correction>
0.0041

> <Gold.Rescore>
     Score         DG    S(hbond)    S(metal)    S(lipo)     H(rot)  DE(clash)    DE(int)     intcor
     15.17     -15.72       2.18        0.00      53.38       1.28       0.02       0.52       ----

> <Gold.Chemscore.Fitness>
15.1727

> <Gold.Chemscore.DG>
-15.7161

> <Gold.Chemscore.ZeroCoef>
-5.4800

> <Gold.Chemscore.Hbond>
2.1771

> <Gold.Chemscore.Metal>
0.0000

> <Gold.Chemscore.Lipo>
53.3801

> <Gold.Chemscore.Internal_Hbond>
0.0000

> <Gold.Chemscore.DEClash>
0.0202

> <Gold.Chemscore.DEInternal>
0.5232

> <Gold.Chemscore.Rot>
1.2815

> <Gold.Chemscore.Internal.Correction>
   9.000000E+99

> <Gold.Chemscore.Hbonds>
donor molecule, donor type, donor heavy atom, donor atom, acceptor molecule, acceptor atom, score
      L1  H     7    27       P1  7948  0.93
      L1  H    10    28       P1  7948  0.78
      P1  H 10752 10764       L1    16  0.20

> <Gold.Chemscore.Hbond.Weighted>
-7.2714

> <Gold.Chemscore.Metal.Weighted>
-0.0000

> <Gold.Chemscore.Lipo.Weighted>
-6.2455

> <Gold.Chemscore.Internal_Hbond.Weighted>
0.0000

> <Gold.Chemscore.DEClash.Weighted>
0.0202

> <Gold.Chemscore.DEInternal.Weighted>
0.5232

> <Gold.Chemscore.Rot.Weighted>
3.2808

> <Gold.Chemscore.Internal.Correction.Weighted>
   9.000000E+99

> <Gold.Protein.RotatedTorsions>
[ 6907 6896 6895 6894 ] final -163.77 input  -60.11 | X-H torsion
[ 7974 7965 7964 7962 ] final -118.45 input  175.53 | X-H torsion
[ 8008 7997 7996 7995 ] final -168.58 input   59.86 | X-H torsion
[ 10167 10162 10161 10158 ] final  177.11 input  -65.29 | X-H torsion
[ 10718 10713 10712 10709 ] final  177.38 input   66.30 | X-H torsion
[ 10763 10752 10751 10750 ] final  -76.37 input  -60.55 | X-H torsion
[ 11005 11000 10999 10996 ] final -127.10 input  -57.11 | X-H torsion

> <Gold.Protein.ActiveResidues>
 VAL166  LYS551  ARG553  GLY616  TRP617  ASP618  TYR619  PRO620  LYS621  CYS622 
 ASP623  PHE694  ASN695  SER759  ASP760  ASP761  ALA762  ILE779  LEU786  VAL792 
 PHE793  MET794  SER795  GLU796  ALA797  LYS798  CYS799  TRP800  GLU811  SER814 

> <Gold.Protein.RotatedAtoms>
  151.4012  133.3757  159.2732 H   0  0  0  0  0  0  0  0  0  0  0  0  # atno 6907 bound_to 6896
  150.9432  134.8840  159.7636 H   0  0  0  0  0  0  0  0  0  0  0  0  # atno 6908 bound_to 6896
  152.5080  134.3964  159.9453 H   0  0  0  0  0  0  0  0  0  0  0  0  # atno 6909 bound_to 6896
  145.0737  140.8377  143.4080 H   0  0  0  0  0  0  0  0  0  0  0  0  # atno 7974 bound_to 7965
  155.8933  140.1028  157.1402 H   0  0  0  0  0  0  0  0  0  0  0  0  # atno 8008 bound_to 7997
  154.4017  140.1306  156.4408 H   0  0  0  0  0  0  0  0  0  0  0  0  # atno 8009 bound_to 7997
  155.7508  140.3465  155.5151 H   0  0  0  0  0  0  0  0  0  0  0  0  # atno 8010 bound_to 7997
  139.5240  144.2836  152.0525 H   0  0  0  0  0  0  0  0  0  0  0  0  # atno 10167 bound_to 10162
  156.9062  130.9895  151.3028 H   0  0  0  0  0  0  0  0  0  0  0  0  # atno 10718 bound_to 10713
  154.4989  135.5800  153.6516 H   0  0  0  0  0  0  0  0  0  0  0  0  # atno 10763 bound_to 10752
  152.9875  135.6131  154.3028 H   0  0  0  0  0  0  0  0  0  0  0  0  # atno 10764 bound_to 10752
  154.2933  135.2848  155.2624 H   0  0  0  0  0  0  0  0  0  0  0  0  # atno 10765 bound_to 10752
  140.9627  134.0914  157.3952 H   0  0  0  0  0  0  0  0  0  0  0  0  # atno 11005 bound_to 11000
  145.1261  139.2662  143.5563 LP  0  0  0  0  0  0  0  0  0  0  0  0  # atno 17320 bound_to 7965
  146.3529  140.0899  142.8613 LP  0  0  0  0  0  0  0  0  0  0  0  0  # atno 17321 bound_to 7965
  140.2290  144.4388  150.6308 LP  0  0  0  0  0  0  0  0  0  0  0  0  # atno 17342 bound_to 10162
  140.6368  143.2196  151.6378 LP  0  0  0  0  0  0  0  0  0  0  0  0  # atno 17343 bound_to 10162
  157.5995  130.8502  149.8781 LP  0  0  0  0  0  0  0  0  0  0  0  0  # atno 17370 bound_to 10713
  156.0558  130.3709  150.1095 LP  0  0  0  0  0  0  0  0  0  0  0  0  # atno 17371 bound_to 10713
  139.8884  135.0097  156.6616 LP  0  0  0  0  0  0  0  0  0  0  0  0  # atno 17394 bound_to 11000
  140.7444  133.8950  155.8301 LP  0  0  0  0  0  0  0  0  0  0  0  0  # atno 17395 bound_to 11000

$$$$
