AV-unprocessed.smi:1071|AV-procd|sdf|4677|dock6
  -GOLD-   22720 3193D 1   1.00000     0.00000
 Structure written by MMmdl.
 47 48  0  0  0  0  0  0  0  0  2 V2000
  153.9027  135.6108  164.3640 C   0  0  0  0  0  0  0  0  0  0  0  0
  155.0506  136.4327  164.2440 O   0  0  0  0  0  0  0  0  0  0  0  0
  154.8379  137.7381  164.7549 C   0  0  0  0  0  0  0  0  0  0  0  0
  156.0803  138.5908  164.4838 C   0  0  0  0  0  0  0  0  0  0  0  0
  156.3756  138.5361  163.0914 O   0  0  0  0  0  0  0  0  0  0  0  0
  155.6606  139.3466  162.2338 C   0  0  0  0  0  0  0  0  0  0  0  0
  154.9119  140.4082  162.7784 C   0  0  0  0  0  0  0  0  0  0  0  0
  154.1827  141.2396  161.9080 C   0  0  0  0  0  0  0  0  0  0  0  0
  154.2279  140.9947  160.5207 C   0  0  0  0  0  0  0  0  0  0  0  0
  153.4714  141.8515  159.6753 N   0  0  0  0  0  0  0  0  0  0  0  0
  152.5658  142.7922  160.0093 C   0  0  0  0  0  0  0  0  0  0  0  0
  152.3678  143.1829  161.1584 O   0  0  0  0  0  0  0  0  0  0  0  0
  151.9810  143.3575  158.9244 N   0  0  0  0  0  0  0  0  0  0  0  0
  151.5588  142.5169  157.7937 C   0  0  0  0  0  0  0  0  0  0  0  0
  150.0945  142.0823  158.0067 C   0  0  0  0  0  0  0  0  0  0  0  0
  149.2005  143.2539  158.2004 N   0  3  1  0  0  0  0  0  0  0  0  0
  147.7947  142.8597  158.4317 C   0  0  0  0  0  0  0  0  0  0  0  0
  149.6965  144.2145  159.2211 C   0  0  0  0  0  0  0  0  0  0  0  0
  151.1696  144.5910  158.9592 C   0  0  1  0  0  0  0  0  0  0  0  0
  151.6824  145.6869  159.9172 C   0  0  0  0  0  0  0  0  0  0  0  0
  154.9992  139.8939  160.0725 C   0  0  0  0  0  0  0  0  0  0  0  0
  155.6999  139.0925  160.9025 N   0  0  0  0  0  0  0  0  0  0  0  0
  154.1153  134.6226  163.9562 H   0  0  0  0  0  0  0  0  0  0  0  0
  153.0595  136.0282  163.8122 H   0  0  0  0  0  0  0  0  0  0  0  0
  153.6120  135.4889  165.4084 H   0  0  0  0  0  0  0  0  0  0  0  0
  153.9658  138.1894  164.2788 H   0  0  0  0  0  0  0  0  0  0  0  0
  154.6431  137.6934  165.8275 H   0  0  0  0  0  0  0  0  0  0  0  0
  155.8936  139.6212  164.7911 H   0  0  0  0  0  0  0  0  0  0  0  0
  156.9209  138.2098  165.0663 H   0  0  0  0  0  0  0  0  0  0  0  0
  154.8978  140.5818  163.8444 H   0  0  0  0  0  0  0  0  0  0  0  0
  153.6003  142.0587  162.3041 H   0  0  0  0  0  0  0  0  0  0  0  0
  153.5456  141.6518  158.6883 H   0  0  0  0  0  0  0  0  0  0  0  0
  151.6528  143.0802  156.8642 H   0  0  0  0  0  0  0  0  0  0  0  0
  152.1844  141.6332  157.6614 H   0  0  0  0  0  0  0  0  0  0  0  0
  149.7519  141.5019  157.1494 H   0  0  0  0  0  0  0  0  0  0  0  0
  150.0261  141.4295  158.8787 H   0  0  0  0  0  0  0  0  0  0  0  0
  147.6909  142.3126  159.3696 H   0  0  0  0  0  0  0  0  0  0  0  0
  147.4356  142.2232  157.6226 H   0  0  0  0  0  0  0  0  0  0  0  0
  147.1509  143.7389  158.4748 H   0  0  0  0  0  0  0  0  0  0  0  0
  149.0739  145.1098  159.2012 H   0  0  0  0  0  0  0  0  0  0  0  0
  149.5908  143.7771  160.2154 H   0  0  0  0  0  0  0  0  0  0  0  0
  151.2271  145.0338  157.9632 H   0  0  0  0  0  0  0  0  0  0  0  0
  151.1625  146.6273  159.7322 H   0  0  0  0  0  0  0  0  0  0  0  0
  152.7474  145.8721  159.7738 H   0  0  0  0  0  0  0  0  0  0  0  0
  151.5179  145.4391  160.9654 H   0  0  0  0  0  0  0  0  0  0  0  0
  155.0601  139.6170  159.0322 H   0  0  0  0  0  0  0  0  0  0  0  0
  149.2138  143.7557  157.3238 H   0  0  0  0  0  0  0  0  0  0  0  0
  1  2  1  0  0  0  0
  1 23  1  0  0  0  0
  1 24  1  0  0  0  0
  1 25  1  0  0  0  0
  2  3  1  0  0  0  0
  3  4  1  0  0  0  0
  3 26  1  0  0  0  0
  3 27  1  0  0  0  0
  4  5  1  0  0  0  0
  4 28  1  0  0  0  0
  4 29  1  0  0  0  0
  5  6  1  0  0  0  0
  6 22  1  0  0  0  0
  6  7  2  0  0  0  0
  7  8  1  0  0  0  0
  7 30  1  0  0  0  0
  8  9  2  0  0  0  0
  8 31  1  0  0  0  0
  9 10  1  0  0  0  0
  9 21  1  0  0  0  0
 10 11  1  0  0  0  0
 10 32  1  0  0  0  0
 11 12  2  0  0  0  0
 11 13  1  0  0  0  0
 13 19  1  0  0  0  0
 13 14  1  0  0  0  0
 14 15  1  0  0  0  0
 14 33  1  0  0  0  0
 14 34  1  0  0  0  0
 15 16  1  0  0  0  0
 15 35  1  0  0  0  0
 15 36  1  0  0  0  0
 16 17  1  0  0  0  0
 16 18  1  0  0  0  0
 16 47  1  0  0  0  0
 17 37  1  0  0  0  0
 17 38  1  0  0  0  0
 17 39  1  0  0  0  0
 18 19  1  0  0  0  0
 18 40  1  0  0  0  0
 18 41  1  0  0  0  0
 19 20  1  0  0  0  0
 19 42  1  0  0  0  0
 20 43  1  0  0  0  0
 20 44  1  0  0  0  0
 20 45  1  0  0  0  0
 21 22  2  0  0  0  0
 21 46  1  0  0  0  0
M  CHG  1  16   1
M  END
> <s_m_source_file>
AV-unprocessed.smi

> <i_m_source_file_index>
1071

> <i_lp_mmshare_version>
43012

> <i_f3d_flags>
0

> <s_epik_input>
W0NIM11PW0NIMl1bQ0gyXU9jMVtjSF1bY0hdYyhbY0hdbjEpW05IXUMoPU8pTjJbQ0gyXVtDSDJdTihbQ0gzXSlbQ0gyXVtDQEhdMltDSDNd

> <s_epik_cmdline>
J2VwaWtfcHl0aG9uJywgJy1waCcsICc3LjAnLCAnLXRuJywgJzgnLCAnLW1hJywgJzIwMCcsICctbWV0YWxfYmluZGluZycsICctaW1hZScsICc8aW5maWxlLm1hZT4nLCAnLW9tYWUnLCAnPG91dGZpbGUubWFlPic=

> <r_lp_tautomer_probability>
1

> <r_epik_Ionization_Penalty>
0.25455

> <r_epik_Ionization_Penalty_Charging>
0.254506

> <r_epik_Ionization_Penalty_Neutral>
4.43365e-05

> <r_epik_State_Penalty>
0.245983

> <r_epik_Charging_Adjusted_Penalty>
0.500488

> <i_epik_Tot_Q>
1

> <i_epik_Tot_abs_Q>
1

> <r_epik_Metal_State_Penalty>
0.245987

> <b_epik_Metal_Only>
0

> <s_lp_Force_Field>
OPLS_2005

> <r_lp_Energy>
54.998

> <b_lp_Chiralities_Consistent>
1

> <s_lp_Variant>
AV-unprocessed.smi:1071-1

> <Gold.Version>
5.8.1

> <Gold.Id.Protein>
6NUR|6NUR_protein|mol2

> <Gold.PLP.Fitness>
47.9518

> <Gold.PLP.PLP>
-42.6489

> <Gold.PLP.part.hbond>
-1.5748

> <Gold.PLP.part.metal>
0.0000

> <Gold.PLP.part.buried>
-4.9478

> <Gold.PLP.part.nonpolar>
-37.2970

> <Gold.PLP.part.repulsive>
0.3011

> <Gold.PLP.ligand.clash>
0.0000

> <Gold.PLP.ligand.torsion>
0.6580

> <Gold.PLP.Chemscore.Hbond>
2.0000

> <Gold.PLP.Chemscore.CHOScore>
0.0000

> <Gold.PLP.Chemscore.Metal>
0.0000

> <Gold.Chemscore.Hbonds>
donor molecule, donor type, donor heavy atom, donor atom, acceptor molecule, acceptor atom, score
      L1  H    16    47       P1  8028  2.00

> <Gold.PLP.Chemscore.Internal.Correction>
0.6189

> <Gold.Rescore>
     Score         DG    S(hbond)    S(metal)    S(lipo)     H(rot)  DE(clash)    DE(int)     intcor
     12.70     -16.24       0.91        0.00     101.00       1.60       0.23       3.30       ----

> <Gold.Chemscore.Fitness>
12.6970

> <Gold.Chemscore.DG>
-16.2355

> <Gold.Chemscore.ZeroCoef>
-5.4800

> <Gold.Chemscore.Hbond>
0.9119

> <Gold.Chemscore.Metal>
0.0000

> <Gold.Chemscore.Lipo>
101.0011

> <Gold.Chemscore.Internal_Hbond>
0.0000

> <Gold.Chemscore.DEClash>
0.2347

> <Gold.Chemscore.DEInternal>
3.3038

> <Gold.Chemscore.Rot>
1.6045

> <Gold.Chemscore.Internal.Correction>
   9.000000E+99

> <Gold.Chemscore.Hbonds>
donor molecule, donor type, donor heavy atom, donor atom, acceptor molecule, acceptor atom, score
      L1  H    16    47       P1  8028  0.34

> <Gold.Chemscore.Hbond.Weighted>
-3.0459

> <Gold.Chemscore.Metal.Weighted>
-0.0000

> <Gold.Chemscore.Lipo.Weighted>
-11.8171

> <Gold.Chemscore.Internal_Hbond.Weighted>
0.0000

> <Gold.Chemscore.DEClash.Weighted>
0.2347

> <Gold.Chemscore.DEInternal.Weighted>
3.3038

> <Gold.Chemscore.Rot.Weighted>
4.1075

> <Gold.Chemscore.Internal.Correction.Weighted>
   9.000000E+99

> <Gold.Protein.RotatedTorsions>
[ 6907 6896 6895 6894 ] final -138.53 input  -60.11 | X-H torsion
[ 7974 7965 7964 7962 ] final  168.40 input  175.53 | X-H torsion
[ 8008 7997 7996 7995 ] final  -80.17 input   59.86 | X-H torsion
[ 10167 10162 10161 10158 ] final   36.88 input  -65.29 | X-H torsion
[ 10718 10713 10712 10709 ] final  166.10 input   66.30 | X-H torsion
[ 10763 10752 10751 10750 ] final  154.20 input  -60.55 | X-H torsion
[ 11005 11000 10999 10996 ] final  -74.69 input  -57.11 | X-H torsion

> <Gold.Protein.ActiveResidues>
 VAL166  LYS551  ARG553  GLY616  TRP617  ASP618  TYR619  PRO620  LYS621  CYS622 
 ASP623  PHE694  ASN695  SER759  ASP760  ASP761  ALA762  ILE779  LEU786  VAL792 
 PHE793  MET794  SER795  GLU796  ALA797  LYS798  CYS799  TRP800  GLU811  SER814 

> <Gold.Protein.RotatedAtoms>
  151.0362  133.5746  159.2655 H   0  0  0  0  0  0  0  0  0  0  0  0  # atno 6907 bound_to 6896
  151.2810  135.0713  159.9179 H   0  0  0  0  0  0  0  0  0  0  0  0  # atno 6908 bound_to 6896
  152.5355  134.0076  159.7978 H   0  0  0  0  0  0  0  0  0  0  0  0  # atno 6909 bound_to 6896
  144.7390  139.8901  143.6402 H   0  0  0  0  0  0  0  0  0  0  0  0  # atno 7974 bound_to 7965
  154.5857  140.0667  156.9167 H   0  0  0  0  0  0  0  0  0  0  0  0  # atno 8008 bound_to 7997
  155.2384  140.3343  155.4277 H   0  0  0  0  0  0  0  0  0  0  0  0  # atno 8009 bound_to 7997
  156.2221  140.1803  156.7437 H   0  0  0  0  0  0  0  0  0  0  0  0  # atno 8010 bound_to 7997
  140.4085  144.1625  150.6138 H   0  0  0  0  0  0  0  0  0  0  0  0  # atno 10167 bound_to 10162
  157.0707  131.0365  151.2612 H   0  0  0  0  0  0  0  0  0  0  0  0  # atno 10718 bound_to 10713
  154.1485  135.2816  155.3142 H   0  0  0  0  0  0  0  0  0  0  0  0  # atno 10763 bound_to 10752
  154.6235  135.5459  153.7604 H   0  0  0  0  0  0  0  0  0  0  0  0  # atno 10764 bound_to 10752
  153.0228  135.6445  154.1630 H   0  0  0  0  0  0  0  0  0  0  0  0  # atno 10765 bound_to 10752
  141.1638  133.6920  156.7402 H   0  0  0  0  0  0  0  0  0  0  0  0  # atno 11005 bound_to 11000
  146.1148  139.4157  143.0265 LP  0  0  0  0  0  0  0  0  0  0  0  0  # atno 17320 bound_to 7965
  145.7391  141.0015  143.1311 LP  0  0  0  0  0  0  0  0  0  0  0  0  # atno 17321 bound_to 7965
  140.4663  143.2429  151.9151 LP  0  0  0  0  0  0  0  0  0  0  0  0  # atno 17342 bound_to 10162
  139.4783  144.5416  151.8520 LP  0  0  0  0  0  0  0  0  0  0  0  0  # atno 17343 bound_to 10162
  157.4880  130.7805  149.7479 LP  0  0  0  0  0  0  0  0  0  0  0  0  # atno 17370 bound_to 10713
  155.9951  130.3914  150.2832 LP  0  0  0  0  0  0  0  0  0  0  0  0  # atno 17371 bound_to 10713
  140.2680  134.8415  157.3820 LP  0  0  0  0  0  0  0  0  0  0  0  0  # atno 17394 bound_to 11000
  140.1548  134.4803  155.7935 LP  0  0  0  0  0  0  0  0  0  0  0  0  # atno 17395 bound_to 11000

$$$$
