AV-unprocessed.smi:16|AV-procd|sdf|96|dock2
  -GOLD-   2262015243D 1   1.00000     0.00000
 Structure written by MMmdl.
 59 63  0  0  0  0  0  0  0  0  1 V2000
  151.9564  145.4488  159.4294 C   0  0  0  0  0  0  0  0  0  0  0  0
  151.4765  144.0872  158.9016 C   0  0  0  0  0  0  0  0  0  0  0  0
  152.4083  143.0052  159.2198 N   0  0  0  0  0  0  0  0  0  0  0  0
  152.7176  143.0589  160.6516 C   0  0  0  0  0  0  0  0  0  0  0  0
  153.7479  141.9800  161.0272 C   0  0  0  0  0  0  0  0  0  0  0  0
  153.2097  140.5923  160.6703 C   0  0  2  0  0  0  0  0  0  0  0  0
  154.1897  139.5970  160.9460 O   0  0  0  0  0  0  0  0  0  0  0  0
  153.6959  138.2886  160.6759 C   0  0  0  0  0  0  0  0  0  0  0  0
  153.3151  138.1802  159.1901 C   0  0  0  0  0  0  0  0  0  0  0  0
  152.3556  139.2230  158.8321 N   0  0  0  0  0  0  0  0  0  0  0  0
  151.8611  139.0981  157.5784 C   0  0  0  0  0  0  0  0  0  0  0  0
  152.6239  139.4311  156.5039 N   0  0  0  0  0  0  0  0  0  0  0  0
  152.1187  139.3306  155.2705 C   0  0  0  0  0  0  0  0  0  0  0  0
  150.9001  138.9337  154.8965 N   0  0  0  0  0  0  0  0  0  0  0  0
  150.1323  138.6017  155.9744 C   0  0  0  0  0  0  0  0  0  0  0  0
  150.5340  138.6544  157.3384 C   0  0  0  0  0  0  0  0  0  0  0  0
  149.4895  138.2557  158.1616 N   0  0  0  0  0  0  0  0  0  0  0  0
  148.5202  137.9866  157.3304 C   0  0  0  0  0  0  0  0  0  0  0  0
  148.8206  138.1579  155.9965 N   0  0  0  0  0  0  0  0  0  0  0  0
  147.9355  137.9537  154.8846 C   0  0  0  0  0  0  0  0  0  0  0  0
  148.3561  138.3769  153.4759 C   0  0  0  0  0  0  0  0  0  0  0  0
  146.9136  138.8383  153.1680 C   0  0  0  0  0  0  0  0  0  0  0  0
  146.8218  140.2265  152.5160 C   0  0  0  0  0  0  0  0  0  0  0  0
  147.7963  141.1081  153.0361 O   0  0  0  0  0  0  0  0  0  0  0  0
  146.0587  137.8760  152.3147 C   0  0  0  0  0  0  0  0  0  0  0  0
  146.4872  137.7948  150.9705 O   0  0  0  0  0  0  0  0  0  0  0  0
  146.6834  138.8150  154.6961 C   0  0  0  0  0  0  0  0  0  0  0  0
  152.8425  140.5623  159.1739 C   0  0  1  0  0  0  0  0  0  0  0  0
  151.8316  141.6985  158.8806 C   0  0  0  0  0  0  0  0  0  0  0  0
  152.3226  140.3956  161.2763 H   0  0  0  0  0  0  0  0  0  0  0  0
  153.7445  140.7448  158.5866 H   0  0  0  0  0  0  0  0  0  0  0  0
  151.1770  146.2003  159.3021 H   0  0  0  0  0  0  0  0  0  0  0  0
  152.8372  145.8116  158.9006 H   0  0  0  0  0  0  0  0  0  0  0  0
  152.1945  145.3993  160.4923 H   0  0  0  0  0  0  0  0  0  0  0  0
  150.5155  143.8726  159.3709 H   0  0  0  0  0  0  0  0  0  0  0  0
  151.2946  144.1327  157.8267 H   0  0  0  0  0  0  0  0  0  0  0  0
  153.1222  144.0400  160.9031 H   0  0  0  0  0  0  0  0  0  0  0  0
  151.8055  142.9293  161.2367 H   0  0  0  0  0  0  0  0  0  0  0  0
  154.6871  142.1650  160.5043 H   0  0  0  0  0  0  0  0  0  0  0  0
  153.9684  142.0316  162.0936 H   0  0  0  0  0  0  0  0  0  0  0  0
  154.4677  137.5590  160.9210 H   0  0  0  0  0  0  0  0  0  0  0  0
  152.8378  138.0712  161.3139 H   0  0  0  0  0  0  0  0  0  0  0  0
  154.2144  138.2762  158.5795 H   0  0  0  0  0  0  0  0  0  0  0  0
  152.8886  137.1973  158.9856 H   0  0  0  0  0  0  0  0  0  0  0  0
  152.7853  139.6115  154.4686 H   0  0  0  0  0  0  0  0  0  0  0  0
  147.5500  137.6573  157.6727 H   0  0  0  0  0  0  0  0  0  0  0  0
  147.6578  136.8991  154.8934 H   0  0  0  0  0  0  0  0  0  0  0  0
  149.0741  139.1985  153.4864 H   0  0  0  0  0  0  0  0  0  0  0  0
  148.7189  137.5575  152.8544 H   0  0  0  0  0  0  0  0  0  0  0  0
  146.9765  140.1607  151.4385 H   0  0  0  0  0  0  0  0  0  0  0  0
  145.8339  140.6657  152.6585 H   0  0  0  0  0  0  0  0  0  0  0  0
  148.5992  140.9879  152.5524 H   0  0  0  0  0  0  0  0  0  0  0  0
  146.0801  136.8658  152.7246 H   0  0  0  0  0  0  0  0  0  0  0  0
  145.0141  138.1890  152.3101 H   0  0  0  0  0  0  0  0  0  0  0  0
  145.7512  137.9836  150.4086 H   0  0  0  0  0  0  0  0  0  0  0  0
  145.7576  138.3303  155.0078 H   0  0  0  0  0  0  0  0  0  0  0  0
  146.7723  139.8026  155.1507 H   0  0  0  0  0  0  0  0  0  0  0  0
  150.9058  141.5395  159.4359 H   0  0  0  0  0  0  0  0  0  0  0  0
  151.5781  141.6875  157.8220 H   0  0  0  0  0  0  0  0  0  0  0  0
  1  2  1  0  0  0  0
  1 32  1  0  0  0  0
  1 33  1  0  0  0  0
  1 34  1  0  0  0  0
  2  3  1  0  0  0  0
  2 35  1  0  0  0  0
  2 36  1  0  0  0  0
  3 29  1  0  0  0  0
  3  4  1  0  0  0  0
  4  5  1  0  0  0  0
  4 37  1  0  0  0  0
  4 38  1  0  0  0  0
  5  6  1  0  0  0  0
  5 39  1  0  0  0  0
  5 40  1  0  0  0  0
  6 30  1  0  0  0  0
  6 28  1  0  0  0  0
  6  7  1  0  0  0  0
  7  8  1  0  0  0  0
  8  9  1  0  0  0  0
  8 41  1  0  0  0  0
  8 42  1  0  0  0  0
  9 10  1  0  0  0  0
  9 43  1  0  0  0  0
  9 44  1  0  0  0  0
 10 11  1  0  0  0  0
 10 28  1  0  0  0  0
 11 16  1  0  0  0  0
 11 12  2  0  0  0  0
 12 13  1  0  0  0  0
 13 14  2  0  0  0  0
 13 45  1  0  0  0  0
 14 15  1  0  0  0  0
 15 19  1  0  0  0  0
 15 16  2  0  0  0  0
 16 17  1  0  0  0  0
 17 18  2  0  0  0  0
 18 19  1  0  0  0  0
 18 46  1  0  0  0  0
 19 20  1  0  0  0  0
 20 27  1  0  0  0  0
 20 21  1  0  0  0  0
 20 47  1  0  0  0  0
 21 22  1  0  0  0  0
 21 48  1  0  0  0  0
 21 49  1  0  0  0  0
 22 23  1  0  0  0  0
 22 25  1  0  0  0  0
 22 27  1  0  0  0  0
 23 24  1  0  0  0  0
 23 50  1  0  0  0  0
 23 51  1  0  0  0  0
 24 52  1  0  0  0  0
 25 26  1  0  0  0  0
 25 53  1  0  0  0  0
 25 54  1  0  0  0  0
 26 55  1  0  0  0  0
 27 56  1  0  0  0  0
 27 57  1  0  0  0  0
 28 31  1  0  0  0  0
 28 29  1  0  0  0  0
 29 58  1  0  0  0  0
 29 59  1  0  0  0  0
M  END
> <s_m_source_file>
AV-unprocessed.smi

> <i_m_source_file_index>
16

> <i_lp_mmshare_version>
43012

> <i_f3d_flags>
0

> <s_epik_input>
W0NIM11bQ0gyXU4oW0NIMl1bQ0gyXTEpW0NIMl1bQ0BASF0oW0NAQEhdMTIpTihbQ0gyXVtDSDJdTzIpYyhuW2NIXW4zKWMoYzM0KW5bY0hdbjRbQ0hdKFtDSDJdNSlbQ0gyXUM1KFtDSDJdW09IXSlbQ0gyXVtPSF0=

> <s_epik_cmdline>
J2VwaWtfcHl0aG9uJywgJy1waCcsICc3LjAnLCAnLXRuJywgJzgnLCAnLW1hJywgJzIwMCcsICctbWV0YWxfYmluZGluZycsICctaW1hZScsICc8aW5maWxlLm1hZT4nLCAnLW9tYWUnLCAnPG91dGZpbGUubWFlPic=

> <r_lp_tautomer_probability>
1

> <r_epik_Ionization_Penalty>
2.27341

> <r_epik_Ionization_Penalty_Charging>
0

> <r_epik_Ionization_Penalty_Neutral>
2.27341

> <r_epik_State_Penalty>
2.41121

> <r_epik_Charging_Adjusted_Penalty>
2.41121

> <i_epik_Tot_Q>
0

> <i_epik_Tot_abs_Q>
0

> <r_epik_Metal_State_Penalty>
2.40177

> <b_epik_Metal_Only>
0

> <s_lp_Force_Field>
OPLS_2005

> <r_lp_Energy>
56.9359

> <b_lp_Chiralities_Consistent>
1

> <s_lp_Variant>
AV-unprocessed.smi:16-10

> <Gold.Version>
5.8.1

> <Gold.Id.Protein>
6NUR|6NUR_protein|mol2

> <Gold.PLP.Fitness>
52.5540

> <Gold.PLP.PLP>
-41.0714

> <Gold.PLP.part.hbond>
-5.0534

> <Gold.PLP.part.metal>
0.0000

> <Gold.PLP.part.buried>
-0.8623

> <Gold.PLP.part.nonpolar>
-36.9190

> <Gold.PLP.part.repulsive>
0.0960

> <Gold.PLP.ligand.clash>
0.0000

> <Gold.PLP.ligand.torsion>
0.5277

> <Gold.PLP.Chemscore.Hbond>
3.9920

> <Gold.PLP.Chemscore.CHOScore>
0.0000

> <Gold.PLP.Chemscore.Metal>
0.0000

> <Gold.Chemscore.Hbonds>
donor molecule, donor type, donor heavy atom, donor atom, acceptor molecule, acceptor atom, score
      L1  H    24    52       P1  7957  0.99
      L1  H    26    55       P1 10171  0.96
      P1  H  7954  7966       L1    26  1.00
      P1  H  7997  8009       L1    12  1.00

> <Gold.PLP.Chemscore.Internal.Correction>
0.5620

> <Gold.Rescore>
     Score         DG    S(hbond)    S(metal)    S(lipo)     H(rot)  DE(clash)    DE(int)     intcor
     18.58     -23.07       3.67        0.00     117.18       3.28       2.72       1.77       ----

> <Gold.Chemscore.Fitness>
18.5842

> <Gold.Chemscore.DG>
-23.0719

> <Gold.Chemscore.ZeroCoef>
-5.4800

> <Gold.Chemscore.Hbond>
3.6743

> <Gold.Chemscore.Metal>
0.0000

> <Gold.Chemscore.Lipo>
117.1817

> <Gold.Chemscore.Internal_Hbond>
0.0000

> <Gold.Chemscore.DEClash>
2.7153

> <Gold.Chemscore.DEInternal>
1.7724

> <Gold.Chemscore.Rot>
3.2776

> <Gold.Chemscore.Internal.Correction>
   9.000000E+99

> <Gold.Chemscore.Hbonds>
donor molecule, donor type, donor heavy atom, donor atom, acceptor molecule, acceptor atom, score
      L1  H    24    52       P1  7957  0.92
      L1  H    26    55       P1 10171  0.90
      P1  H  7954  7966       L1    26  0.67
      P1  H  7997  8009       L1    12  0.78

> <Gold.Chemscore.Hbond.Weighted>
-12.2723

> <Gold.Chemscore.Metal.Weighted>
-0.0000

> <Gold.Chemscore.Lipo.Weighted>
-13.7103

> <Gold.Chemscore.Internal_Hbond.Weighted>
0.0000

> <Gold.Chemscore.DEClash.Weighted>
2.7153

> <Gold.Chemscore.DEInternal.Weighted>
1.7724

> <Gold.Chemscore.Rot.Weighted>
8.3907

> <Gold.Chemscore.Internal.Correction.Weighted>
   9.000000E+99

> <Gold.Protein.RotatedTorsions>
[ 6907 6896 6895 6894 ] final  -99.46 input  -60.11 | X-H torsion
[ 7974 7965 7964 7962 ] final  143.86 input  175.53 | X-H torsion
[ 8008 7997 7996 7995 ] final -170.18 input   59.86 | X-H torsion
[ 10167 10162 10161 10158 ] final  152.96 input  -65.29 | X-H torsion
[ 10718 10713 10712 10709 ] final  123.92 input   66.30 | X-H torsion
[ 10763 10752 10751 10750 ] final   69.35 input  -60.55 | X-H torsion
[ 11005 11000 10999 10996 ] final  -28.47 input  -57.11 | X-H torsion

> <Gold.Protein.ActiveResidues>
 VAL166  LYS551  ARG553  GLY616  TRP617  ASP618  TYR619  PRO620  LYS621  CYS622 
 ASP623  PHE694  ASN695  SER759  ASP760  ASP761  ALA762  ILE779  LEU786  VAL792 
 PHE793  MET794  SER795  GLU796  ALA797  LYS798  CYS799  TRP800  GLU811  SER814 

> <Gold.Protein.RotatedAtoms>
  150.7081  134.1038  159.3975 H   0  0  0  0  0  0  0  0  0  0  0  0  # atno 6907 bound_to 6896
  151.9024  135.0370  160.0517 H   0  0  0  0  0  0  0  0  0  0  0  0  # atno 6908 bound_to 6896
  152.2403  133.5094  159.5303 H   0  0  0  0  0  0  0  0  0  0  0  0  # atno 6909 bound_to 6896
  144.8885  139.5593  143.5809 H   0  0  0  0  0  0  0  0  0  0  0  0  # atno 7974 bound_to 7965
  155.9149  140.1064  157.1251 H   0  0  0  0  0  0  0  0  0  0  0  0  # atno 8008 bound_to 7997
  154.4045  140.1267  156.4669 H   0  0  0  0  0  0  0  0  0  0  0  0  # atno 8009 bound_to 7997
  155.7266  140.3469  155.5042 H   0  0  0  0  0  0  0  0  0  0  0  0  # atno 8010 bound_to 7997
  139.4830  144.5314  151.7717 H   0  0  0  0  0  0  0  0  0  0  0  0  # atno 10167 bound_to 10162
  157.5626  131.1088  150.8511 H   0  0  0  0  0  0  0  0  0  0  0  0  # atno 10718 bound_to 10713
  153.0282  135.5214  154.7274 H   0  0  0  0  0  0  0  0  0  0  0  0  # atno 10763 bound_to 10752
  154.6312  135.2900  155.0217 H   0  0  0  0  0  0  0  0  0  0  0  0  # atno 10764 bound_to 10752
  154.1168  135.6613  153.4948 H   0  0  0  0  0  0  0  0  0  0  0  0  # atno 10765 bound_to 10752
  140.9211  133.7398  156.0803 H   0  0  0  0  0  0  0  0  0  0  0  0  # atno 11005 bound_to 11000
  146.3039  139.7516  142.9070 LP  0  0  0  0  0  0  0  0  0  0  0  0  # atno 17320 bound_to 7965
  145.3825  141.0360  143.3169 LP  0  0  0  0  0  0  0  0  0  0  0  0  # atno 17321 bound_to 7965
  140.4840  144.1407  150.5937 LP  0  0  0  0  0  0  0  0  0  0  0  0  # atno 17342 bound_to 10162
  140.4245  143.2596  151.9673 LP  0  0  0  0  0  0  0  0  0  0  0  0  # atno 17343 bound_to 10162
  156.9004  130.5244  149.5283 LP  0  0  0  0  0  0  0  0  0  0  0  0  # atno 17370 bound_to 10713
  156.0677  130.5717  150.9322 LP  0  0  0  0  0  0  0  0  0  0  0  0  # atno 17371 bound_to 10713
  140.7986  134.3535  157.5445 LP  0  0  0  0  0  0  0  0  0  0  0  0  # atno 17394 bound_to 11000
  139.8776  134.9184  156.3201 LP  0  0  0  0  0  0  0  0  0  0  0  0  # atno 17395 bound_to 11000

$$$$
