AV-unprocessed.smi:32|AV-procd|sdf|198|dock6
  -GOLD-   2262015473D 1   1.00000     0.00000
 Structure written by MMmdl.
 49 51  0  0  0  0  0  0  0  0  1 V2000
  152.4624  136.1586  156.2896 O   0  0  0  0  0  0  0  0  0  0  0  0
  151.9352  137.2588  156.4585 C   0  0  0  0  0  0  0  0  0  0  0  0
  152.6788  138.5500  156.0854 C   0  0  0  0  0  0  0  0  0  0  0  0
  151.8948  139.7738  156.3595 N   0  0  0  0  0  0  0  0  0  0  0  0
  151.0309  140.2604  155.3468 C   0  0  0  0  0  0  0  0  0  0  0  0
  150.9215  139.6774  154.2670 O   0  0  0  0  0  0  0  0  0  0  0  0
  150.3044  141.4825  155.6714 C   0  0  0  0  0  0  0  0  0  0  0  0
  149.4640  142.0171  154.7691 F   0  0  0  0  0  0  0  0  0  0  0  0
  150.4655  142.0897  156.8649 C   0  0  0  0  0  0  0  0  0  0  0  0
  151.3137  141.6048  157.8441 N   0  0  0  0  0  0  0  0  0  0  0  0
  151.4882  142.3218  159.1659 C   0  0  1  0  0  0  0  0  0  0  0  0
  152.8908  142.9316  159.2569 C   0  0  0  0  0  0  0  0  0  0  0  0
  152.6607  144.3178  158.6957 C   0  0  0  0  0  0  0  0  0  0  0  0
  151.2558  144.6282  159.2022 C   0  0  0  0  0  0  0  0  0  0  0  0
  150.5722  143.3763  159.2429 O   0  0  0  0  0  0  0  0  0  0  0  0
  152.0596  140.4304  157.6025 C   0  0  0  0  0  0  0  0  0  0  0  0
  152.8423  139.9974  158.4511 O   0  0  0  0  0  0  0  0  0  0  0  0
  150.7074  137.4230  156.9806 N   0  0  0  0  0  0  0  0  0  0  0  0
  149.7789  136.3819  157.4315 C   0  0  0  0  0  0  0  0  0  0  0  0
  149.4281  135.4353  156.2591 C   0  0  0  0  0  0  0  0  0  0  0  0
  148.7950  134.0964  156.6651 C   0  0  0  0  0  0  0  0  0  0  0  0
  147.5000  134.2114  157.4859 C   0  0  0  0  0  0  0  0  0  0  0  0
  147.7568  134.6402  158.9384 C   0  0  0  0  0  0  0  0  0  0  0  0
  147.8408  136.1576  159.1774 C   0  0  0  0  0  0  0  0  0  0  0  0
  148.5246  137.0052  158.0885 C   0  0  0  0  0  0  0  0  0  0  0  0
  153.6326  138.5828  156.6154 H   0  0  0  0  0  0  0  0  0  0  0  0
  152.9644  138.4843  155.0348 H   0  0  0  0  0  0  0  0  0  0  0  0
  149.9057  142.9950  157.0448 H   0  0  0  0  0  0  0  0  0  0  0  0
  151.2705  141.5846  159.9406 H   0  0  0  0  0  0  0  0  0  0  0  0
  153.1790  142.9875  160.3073 H   0  0  0  0  0  0  0  0  0  0  0  0
  153.6365  142.3490  158.7149 H   0  0  0  0  0  0  0  0  0  0  0  0
  153.4037  145.0440  159.0263 H   0  0  0  0  0  0  0  0  0  0  0  0
  152.6731  144.2895  157.6056 H   0  0  0  0  0  0  0  0  0  0  0  0
  151.2990  145.0337  160.2138 H   0  0  0  0  0  0  0  0  0  0  0  0
  150.7336  145.3472  158.5708 H   0  0  0  0  0  0  0  0  0  0  0  0
  150.3772  138.3726  157.0734 H   0  0  0  0  0  0  0  0  0  0  0  0
  150.3317  135.8217  158.1863 H   0  0  0  0  0  0  0  0  0  0  0  0
  148.7660  135.9411  155.5554 H   0  0  0  0  0  0  0  0  0  0  0  0
  150.3366  135.2120  155.6978 H   0  0  0  0  0  0  0  0  0  0  0  0
  148.5782  133.5371  155.7545 H   0  0  0  0  0  0  0  0  0  0  0  0
  149.5251  133.4963  157.2096 H   0  0  0  0  0  0  0  0  0  0  0  0
  146.7799  134.8713  157.0005 H   0  0  0  0  0  0  0  0  0  0  0  0
  147.0350  133.2252  157.5054 H   0  0  0  0  0  0  0  0  0  0  0  0
  146.9588  134.2469  159.5690 H   0  0  0  0  0  0  0  0  0  0  0  0
  148.6677  134.1625  159.3017 H   0  0  0  0  0  0  0  0  0  0  0  0
  146.8337  136.5495  159.3229 H   0  0  0  0  0  0  0  0  0  0  0  0
  148.3536  136.3200  160.1261 H   0  0  0  0  0  0  0  0  0  0  0  0
  148.7815  137.9636  158.5424 H   0  0  0  0  0  0  0  0  0  0  0  0
  147.7947  137.2443  157.3142 H   0  0  0  0  0  0  0  0  0  0  0  0
  1  2  2  0  0  0  0
  2  3  1  0  0  0  0
  2 18  1  0  0  0  0
  3  4  1  0  0  0  0
  3 26  1  0  0  0  0
  3 27  1  0  0  0  0
  4 16  1  0  0  0  0
  4  5  1  0  0  0  0
  5  6  2  0  0  0  0
  5  7  1  0  0  0  0
  7  8  1  0  0  0  0
  7  9  2  0  0  0  0
  9 10  1  0  0  0  0
  9 28  1  0  0  0  0
 10 11  1  0  0  0  0
 10 16  1  0  0  0  0
 11 15  1  0  0  0  0
 11 12  1  0  0  0  0
 11 29  1  0  0  0  0
 12 13  1  0  0  0  0
 12 30  1  0  0  0  0
 12 31  1  0  0  0  0
 13 14  1  0  0  0  0
 13 32  1  0  0  0  0
 13 33  1  0  0  0  0
 14 15  1  0  0  0  0
 14 34  1  0  0  0  0
 14 35  1  0  0  0  0
 16 17  2  0  0  0  0
 18 19  1  0  0  0  0
 18 36  1  0  0  0  0
 19 25  1  0  0  0  0
 19 20  1  0  0  0  0
 19 37  1  0  0  0  0
 20 21  1  0  0  0  0
 20 38  1  0  0  0  0
 20 39  1  0  0  0  0
 21 22  1  0  0  0  0
 21 40  1  0  0  0  0
 21 41  1  0  0  0  0
 22 23  1  0  0  0  0
 22 42  1  0  0  0  0
 22 43  1  0  0  0  0
 23 24  1  0  0  0  0
 23 44  1  0  0  0  0
 23 45  1  0  0  0  0
 24 25  1  0  0  0  0
 24 46  1  0  0  0  0
 24 47  1  0  0  0  0
 25 48  1  0  0  0  0
 25 49  1  0  0  0  0
M  END
> <s_m_source_file>
AV-unprocessed.smi

> <i_m_source_file_index>
32

> <i_lp_mmshare_version>
43012

> <i_f3d_flags>
0

> <s_epik_input>
W0NIMl0xW0NIMl1bQ0gyXVtDSDJdW0NIMl1bQ0gyXVtDSF0xW05IXUMoPU8pW0NIMl1uMmMoPU8pYyhGKVtjSF1uKGMyPU8pW0NAQEhdM1tDSDJdW0NIMl1bQ0gyXU8z

> <s_epik_cmdline>
J2VwaWtfcHl0aG9uJywgJy1waCcsICc3LjAnLCAnLXRuJywgJzgnLCAnLW1hJywgJzIwMCcsICctbWV0YWxfYmluZGluZycsICctaW1hZScsICc8aW5maWxlLm1hZT4nLCAnLW9tYWUnLCAnPG91dGZpbGUubWFlPic=

> <r_lp_tautomer_probability>
1

> <r_epik_Ionization_Penalty>
2.43741e-08

> <r_epik_Ionization_Penalty_Charging>
4.15308e-09

> <r_epik_Ionization_Penalty_Neutral>
2.0221e-08

> <r_epik_State_Penalty>
-0

> <r_epik_Charging_Adjusted_Penalty>
4.15308e-09

> <i_epik_Tot_Q>
0

> <i_epik_Tot_abs_Q>
0

> <r_epik_Metal_State_Penalty>
-0

> <b_epik_Metal_Only>
0

> <s_epik_Chemistry_Notes>
This compound contains an acetal/aminal-like group ( X-CH(R)-Y where X, Y are N, S, or O) that may be acid/base labile, releasing an aldehyde.

> <s_lp_Force_Field>
OPLS_2005

> <r_lp_Energy>
36.3437

> <b_lp_Chiralities_Consistent>
1

> <s_lp_Variant>
AV-unprocessed.smi:32-2

> <Gold.Version>
5.8.1

> <Gold.Id.Protein>
6NUR|6NUR_protein|mol2

> <Gold.PLP.Fitness>
51.3544

> <Gold.PLP.PLP>
-42.3206

> <Gold.PLP.part.hbond>
-3.0000

> <Gold.PLP.part.metal>
0.0000

> <Gold.PLP.part.buried>
-1.1759

> <Gold.PLP.part.nonpolar>
-37.2212

> <Gold.PLP.part.repulsive>
0.2690

> <Gold.PLP.ligand.clash>
0.0000

> <Gold.PLP.ligand.torsion>
0.4914

> <Gold.PLP.Chemscore.Hbond>
2.3260

> <Gold.PLP.Chemscore.CHOScore>
1.0000

> <Gold.PLP.Chemscore.Metal>
0.0000

> <Gold.Chemscore.Hbonds>
donor molecule, donor type, donor heavy atom, donor atom, acceptor molecule, acceptor atom, score
      P1  H  7989  7998       L1     6  0.65
      P1  H  7997  8010       L1    17  0.32
      P1  H 10752 10764       L1     1  1.00
      L1  C     9    28       P1  8028  1.00

> <Gold.PLP.Chemscore.Internal.Correction>
0.0385

> <Gold.Rescore>
     Score         DG    S(hbond)    S(metal)    S(lipo)     H(rot)  DE(clash)    DE(int)     intcor
     14.81     -16.45       1.76        0.00      83.33       1.82       0.97       0.67       ----

> <Gold.Chemscore.Fitness>
14.8137

> <Gold.Chemscore.DG>
-16.4511

> <Gold.Chemscore.ZeroCoef>
-5.4800

> <Gold.Chemscore.Hbond>
1.7642

> <Gold.Chemscore.Metal>
0.0000

> <Gold.Chemscore.Lipo>
83.3333

> <Gold.Chemscore.Internal_Hbond>
0.0000

> <Gold.Chemscore.DEClash>
0.9667

> <Gold.Chemscore.DEInternal>
0.6708

> <Gold.Chemscore.Rot>
1.8248

> <Gold.Chemscore.Internal.Correction>
   9.000000E+99

> <Gold.Chemscore.Hbonds>
donor molecule, donor type, donor heavy atom, donor atom, acceptor molecule, acceptor atom, score
      P1  H  7989  7998       L1     6  0.06
      P1  H  7997  8010       L1    17  0.04
      P1  H 10752 10764       L1     1  0.96

> <Gold.Chemscore.Hbond.Weighted>
-5.8925

> <Gold.Chemscore.Metal.Weighted>
-0.0000

> <Gold.Chemscore.Lipo.Weighted>
-9.7500

> <Gold.Chemscore.Internal_Hbond.Weighted>
0.0000

> <Gold.Chemscore.DEClash.Weighted>
0.9667

> <Gold.Chemscore.DEInternal.Weighted>
0.6708

> <Gold.Chemscore.Rot.Weighted>
4.6714

> <Gold.Chemscore.Internal.Correction.Weighted>
   9.000000E+99

> <Gold.Protein.RotatedTorsions>
[ 6907 6896 6895 6894 ] final   23.64 input  -60.11 | X-H torsion
[ 7974 7965 7964 7962 ] final  144.73 input  175.53 | X-H torsion
[ 8008 7997 7996 7995 ] final   29.60 input   59.86 | X-H torsion
[ 10167 10162 10161 10158 ] final -117.03 input  -65.29 | X-H torsion
[ 10718 10713 10712 10709 ] final  150.06 input   66.30 | X-H torsion
[ 10763 10752 10751 10750 ] final   -5.17 input  -60.55 | X-H torsion
[ 11005 11000 10999 10996 ] final   76.93 input  -57.11 | X-H torsion

> <Gold.Protein.ActiveResidues>
 VAL166  LYS551  ARG553  GLY616  TRP617  ASP618  TYR619  PRO620  LYS621  CYS622 
 ASP623  PHE694  ASN695  SER759  ASP760  ASP761  ALA762  ILE779  LEU786  VAL792 
 PHE793  MET794  SER795  GLU796  ALA797  LYS798  CYS799  TRP800  GLU811  SER814 

> <Gold.Protein.RotatedAtoms>
  151.9455  135.0194  160.0538 H   0  0  0  0  0  0  0  0  0  0  0  0  # atno 6907 bound_to 6896
  152.1999  133.4829  159.5061 H   0  0  0  0  0  0  0  0  0  0  0  0  # atno 6908 bound_to 6896
  150.6952  134.1521  159.4187 H   0  0  0  0  0  0  0  0  0  0  0  0  # atno 6909 bound_to 6896
  144.8811  139.5697  143.5842 H   0  0  0  0  0  0  0  0  0  0  0  0  # atno 7974 bound_to 7965
  155.0770  140.3206  155.4613 H   0  0  0  0  0  0  0  0  0  0  0  0  # atno 8008 bound_to 7997
  156.2776  140.2101  156.5843 H   0  0  0  0  0  0  0  0  0  0  0  0  # atno 8009 bound_to 7997
  154.7009  140.0507  157.0444 H   0  0  0  0  0  0  0  0  0  0  0  0  # atno 8010 bound_to 7997
  140.0728  143.4861  152.1970 H   0  0  0  0  0  0  0  0  0  0  0  0  # atno 10167 bound_to 10162
  157.2883  131.0848  151.1481 H   0  0  0  0  0  0  0  0  0  0  0  0  # atno 10718 bound_to 10713
  153.3948  135.7003  153.6468 H   0  0  0  0  0  0  0  0  0  0  0  0  # atno 10763 bound_to 10752
  153.5026  135.3649  155.2548 H   0  0  0  0  0  0  0  0  0  0  0  0  # atno 10764 bound_to 10752
  154.8705  135.4115  154.3272 H   0  0  0  0  0  0  0  0  0  0  0  0  # atno 10765 bound_to 10752
  139.9276  134.7642  156.1458 H   0  0  0  0  0  0  0  0  0  0  0  0  # atno 11005 bound_to 11000
  146.2995  139.7382  142.9102 LP  0  0  0  0  0  0  0  0  0  0  0  0  # atno 17320 bound_to 7965
  145.3952  141.0378  143.3101 LP  0  0  0  0  0  0  0  0  0  0  0  0  # atno 17321 bound_to 7965
  139.5826  144.7517  151.3602 LP  0  0  0  0  0  0  0  0  0  0  0  0  # atno 17342 bound_to 10162
  140.7117  143.7373  150.7579 LP  0  0  0  0  0  0  0  0  0  0  0  0  # atno 17343 bound_to 10162
  157.2888  130.6786  149.6103 LP  0  0  0  0  0  0  0  0  0  0  0  0  # atno 17370 bound_to 10713
  155.9666  130.4427  150.5392 LP  0  0  0  0  0  0  0  0  0  0  0  0  # atno 17371 bound_to 10713
  141.0844  133.6740  156.2406 LP  0  0  0  0  0  0  0  0  0  0  0  0  # atno 17394 bound_to 11000
  140.6291  134.5282  157.5557 LP  0  0  0  0  0  0  0  0  0  0  0  0  # atno 17395 bound_to 11000

$$$$
