AV-unprocessed.smi:2529|AV-procd|sdf|9960|dock2
  -GOLD-   2272014 03D 1   1.00000     0.00000
 Structure written by MMmdl.
 44 46  0  0  0  0  0  0  0  0  1 V2000
  147.4854  135.1713  156.7483 C   0  0  0  0  0  0  0  0  0  0  0  0
  148.5523  136.2457  156.4937 C   0  0  2  0  0  0  0  0  0  0  0  0
  148.5041  136.7559  155.0430 C   0  0  0  0  0  0  0  0  0  0  0  0
  149.5651  137.8404  154.7832 C   0  0  0  0  0  0  0  0  0  0  0  0
  151.0027  137.3835  155.1391 C   0  0  1  0  0  0  0  0  0  0  0  0
  151.3836  136.3321  154.2688 O   0  0  0  0  0  0  0  0  0  0  0  0
  152.0821  138.4988  155.0082 C   0  0  0  0  0  0  0  0  0  0  0  0
  151.9560  139.6065  155.9762 N   0  0  0  0  0  0  0  0  0  0  0  0
  152.7977  139.5411  157.1035 C   0  0  0  0  0  0  0  0  0  0  0  0
  152.7711  140.4437  158.0312 N   0  0  0  0  0  0  0  0  0  0  0  0
  151.8830  141.5199  157.9290 C   0  0  0  0  0  0  0  0  0  0  0  0
  151.9175  142.5671  159.0335 C   0  0  0  0  0  0  0  0  0  0  0  0
  150.9374  143.7413  158.8783 C   0  0  0  0  0  0  0  0  0  0  0  0
  152.0409  144.6509  159.4297 C   0  0  0  0  0  0  0  0  0  0  0  0
  153.0514  143.6030  158.9504 C   0  0  0  0  0  0  0  0  0  0  0  0
  151.0502  141.6268  156.8666 C   0  0  0  0  0  0  0  0  0  0  0  0
  151.0521  140.6175  155.8073 C   0  0  0  0  0  0  0  0  0  0  0  0
  150.2990  140.6805  154.8356 O   0  0  0  0  0  0  0  0  0  0  0  0
  151.0345  136.8055  156.5748 C   0  0  0  0  0  0  0  0  0  0  0  0
  149.9630  135.7287  156.8239 C   0  0  0  0  0  0  0  0  0  0  0  0
  147.6428  134.2975  156.1151 H   0  0  0  0  0  0  0  0  0  0  0  0
  146.4856  135.5549  156.5430 H   0  0  0  0  0  0  0  0  0  0  0  0
  147.5031  134.8384  157.7864 H   0  0  0  0  0  0  0  0  0  0  0  0
  148.3369  137.0866  157.1548 H   0  0  0  0  0  0  0  0  0  0  0  0
  148.6533  135.9238  154.3536 H   0  0  0  0  0  0  0  0  0  0  0  0
  147.5147  137.1589  154.8241 H   0  0  0  0  0  0  0  0  0  0  0  0
  149.5063  138.1468  153.7383 H   0  0  0  0  0  0  0  0  0  0  0  0
  149.3112  138.7199  155.3758 H   0  0  0  0  0  0  0  0  0  0  0  0
  151.1576  136.5762  153.3844 H   0  0  0  0  0  0  0  0  0  0  0  0
  153.0689  138.0466  155.1186 H   0  0  0  0  0  0  0  0  0  0  0  0
  152.0964  138.8890  153.9881 H   0  0  0  0  0  0  0  0  0  0  0  0
  153.4681  138.6807  157.1365 H   0  0  0  0  0  0  0  0  0  0  0  0
  151.8547  142.1126  160.0238 H   0  0  0  0  0  0  0  0  0  0  0  0
  150.6906  143.9688  157.8396 H   0  0  0  0  0  0  0  0  0  0  0  0
  150.0446  143.6765  159.5009 H   0  0  0  0  0  0  0  0  0  0  0  0
  152.1222  145.6221  158.9406 H   0  0  0  0  0  0  0  0  0  0  0  0
  152.0099  144.7443  160.5166 H   0  0  0  0  0  0  0  0  0  0  0  0
  153.8838  143.4243  159.6311 H   0  0  0  0  0  0  0  0  0  0  0  0
  153.3959  143.7955  157.9324 H   0  0  0  0  0  0  0  0  0  0  0  0
  150.3726  142.4646  156.7915 H   0  0  0  0  0  0  0  0  0  0  0  0
  152.0213  136.3972  156.7975 H   0  0  0  0  0  0  0  0  0  0  0  0
  150.8770  137.6139  157.2905 H   0  0  0  0  0  0  0  0  0  0  0  0
  150.0063  135.4101  157.8659 H   0  0  0  0  0  0  0  0  0  0  0  0
  150.1827  134.8435  156.2258 H   0  0  0  0  0  0  0  0  0  0  0  0
  1  2  1  0  0  0  0
  1 21  1  0  0  0  0
  1 22  1  0  0  0  0
  1 23  1  0  0  0  0
  2 20  1  0  0  0  0
  2  3  1  0  0  0  0
  2 24  1  0  0  0  0
  3  4  1  0  0  0  0
  3 25  1  0  0  0  0
  3 26  1  0  0  0  0
  4  5  1  0  0  0  0
  4 27  1  0  0  0  0
  4 28  1  0  0  0  0
  5  6  1  0  0  0  0
  5  7  1  0  0  0  0
  5 19  1  0  0  0  0
  6 29  1  0  0  0  0
  7  8  1  0  0  0  0
  7 30  1  0  0  0  0
  7 31  1  0  0  0  0
  8 17  1  0  0  0  0
  8  9  1  0  0  0  0
  9 10  2  0  0  0  0
  9 32  1  0  0  0  0
 10 11  1  0  0  0  0
 11 12  1  0  0  0  0
 11 16  2  0  0  0  0
 12 15  1  0  0  0  0
 12 13  1  0  0  0  0
 12 33  1  0  0  0  0
 13 14  1  0  0  0  0
 13 34  1  0  0  0  0
 13 35  1  0  0  0  0
 14 15  1  0  0  0  0
 14 36  1  0  0  0  0
 14 37  1  0  0  0  0
 15 38  1  0  0  0  0
 15 39  1  0  0  0  0
 16 17  1  0  0  0  0
 16 40  1  0  0  0  0
 17 18  2  0  0  0  0
 19 20  1  0  0  0  0
 19 41  1  0  0  0  0
 19 42  1  0  0  0  0
 20 43  1  0  0  0  0
 20 44  1  0  0  0  0
M  END
> <s_m_source_file>
AV-unprocessed.smi

> <i_m_source_file_index>
2529

> <i_lp_mmshare_version>
43012

> <i_f3d_flags>
0

> <s_epik_input>
W0NIMl0xW0NIMl1bQ0BIXShbQ0gzXSlbQ0gyXVtDSDJdW0NAQF0xKFtPSF0pW0NIMl1uMltjSF1uYyhbY0hdYzI9TylbQ0hdM1tDSDJdW0NIMl1bQ0gyXTM=

> <s_epik_cmdline>
J2VwaWtfcHl0aG9uJywgJy1waCcsICc3LjAnLCAnLXRuJywgJzgnLCAnLW1hJywgJzIwMCcsICctbWV0YWxfYmluZGluZycsICctaW1hZScsICc8aW5maWxlLm1hZT4nLCAnLW9tYWUnLCAnPG91dGZpbGUubWFlPic=

> <r_lp_tautomer_probability>
1

> <r_epik_Ionization_Penalty>
9.15498e-05

> <r_epik_Ionization_Penalty_Charging>
1.67865e-07

> <r_epik_Ionization_Penalty_Neutral>
9.13819e-05

> <r_epik_State_Penalty>
-0

> <r_epik_Charging_Adjusted_Penalty>
1.67865e-07

> <i_epik_Tot_Q>
0

> <i_epik_Tot_abs_Q>
0

> <r_epik_Metal_State_Penalty>
-0

> <b_epik_Metal_Only>
0

> <s_lp_Force_Field>
OPLS_2005

> <r_lp_Energy>
32.8679

> <b_lp_Chiralities_Consistent>
1

> <s_lp_Variant>
AV-unprocessed.smi:2529-1

> <Gold.Version>
5.8.1

> <Gold.Id.Protein>
6NUR|6NUR_protein|mol2

> <Gold.PLP.Fitness>
41.4850

> <Gold.PLP.PLP>
-33.8354

> <Gold.PLP.part.hbond>
-4.0000

> <Gold.PLP.part.metal>
0.0000

> <Gold.PLP.part.buried>
-0.8409

> <Gold.PLP.part.nonpolar>
-28.8592

> <Gold.PLP.part.repulsive>
0.0949

> <Gold.PLP.ligand.clash>
0.0000

> <Gold.PLP.ligand.torsion>
0.5926

> <Gold.PLP.Chemscore.Hbond>
2.7920

> <Gold.PLP.Chemscore.CHOScore>
0.0000

> <Gold.PLP.Chemscore.Metal>
0.0000

> <Gold.Chemscore.Hbonds>
donor molecule, donor type, donor heavy atom, donor atom, acceptor molecule, acceptor atom, score
      L1  H     6    29       P1  7949  0.88
      P1  H  7989  7998       L1    18  0.79
      P1  H 10752 10764       L1     6  1.00

> <Gold.PLP.Chemscore.Internal.Correction>
0.4589

> <Gold.Rescore>
     Score         DG    S(hbond)    S(metal)    S(lipo)     H(rot)  DE(clash)    DE(int)     intcor
     15.86     -17.75       1.95        0.00      88.48       1.80       1.12       0.77       ----

> <Gold.Chemscore.Fitness>
15.8568

> <Gold.Chemscore.DG>
-17.7494

> <Gold.Chemscore.ZeroCoef>
-5.4800

> <Gold.Chemscore.Hbond>
1.9513

> <Gold.Chemscore.Metal>
0.0000

> <Gold.Chemscore.Lipo>
88.4771

> <Gold.Chemscore.Internal_Hbond>
0.0000

> <Gold.Chemscore.DEClash>
1.1188

> <Gold.Chemscore.DEInternal>
0.7738

> <Gold.Chemscore.Rot>
1.7968

> <Gold.Chemscore.Internal.Correction>
   9.000000E+99

> <Gold.Chemscore.Hbonds>
donor molecule, donor type, donor heavy atom, donor atom, acceptor molecule, acceptor atom, score
      L1  H     6    29       P1  7949  0.38
      P1  H  7989  7998       L1    18  0.15
      P1  H 10752 10764       L1     6  0.39

> <Gold.Chemscore.Hbond.Weighted>
-6.5173

> <Gold.Chemscore.Metal.Weighted>
-0.0000

> <Gold.Chemscore.Lipo.Weighted>
-10.3518

> <Gold.Chemscore.Internal_Hbond.Weighted>
0.0000

> <Gold.Chemscore.DEClash.Weighted>
1.1188

> <Gold.Chemscore.DEInternal.Weighted>
0.7738

> <Gold.Chemscore.Rot.Weighted>
4.5997

> <Gold.Chemscore.Internal.Correction.Weighted>
   9.000000E+99

> <Gold.Protein.RotatedTorsions>
[ 6907 6896 6895 6894 ] final -162.28 input  -60.11 | X-H torsion
[ 7974 7965 7964 7962 ] final   99.87 input  175.53 | X-H torsion
[ 8008 7997 7996 7995 ] final   49.22 input   59.86 | X-H torsion
[ 10167 10162 10161 10158 ] final  -77.59 input  -65.29 | X-H torsion
[ 10718 10713 10712 10709 ] final -135.54 input   66.30 | X-H torsion
[ 10763 10752 10751 10750 ] final  -88.93 input  -60.55 | X-H torsion
[ 11005 11000 10999 10996 ] final    0.75 input  -57.11 | X-H torsion

> <Gold.Protein.ActiveResidues>
 VAL166  LYS551  ARG553  GLY616  TRP617  ASP618  TYR619  PRO620  LYS621  CYS622 
 ASP623  PHE694  ASN695  SER759  ASP760  ASP761  ALA762  ILE779  LEU786  VAL792 
 PHE793  MET794  SER795  GLU796  ALA797  LYS798  CYS799  TRP800  GLU811  SER814 

> <Gold.Protein.RotatedAtoms>
  151.3778  133.3832  159.2706 H   0  0  0  0  0  0  0  0  0  0  0  0  # atno 6907 bound_to 6896
  150.9601  134.8991  159.7736 H   0  0  0  0  0  0  0  0  0  0  0  0  # atno 6908 bound_to 6896
  152.5146  134.3736  159.9379 H   0  0  0  0  0  0  0  0  0  0  0  0  # atno 6909 bound_to 6896
  145.3931  139.2359  143.3341 H   0  0  0  0  0  0  0  0  0  0  0  0  # atno 7974 bound_to 7965
  155.3986  140.3437  155.4255 H   0  0  0  0  0  0  0  0  0  0  0  0  # atno 8008 bound_to 7997
  156.1516  140.1573  156.8792 H   0  0  0  0  0  0  0  0  0  0  0  0  # atno 8009 bound_to 7997
  154.5058  140.0803  156.7872 H   0  0  0  0  0  0  0  0  0  0  0  0  # atno 8010 bound_to 7997
  140.4756  143.2415  151.8137 H   0  0  0  0  0  0  0  0  0  0  0  0  # atno 10167 bound_to 10162
  156.2673  130.7245  151.1199 H   0  0  0  0  0  0  0  0  0  0  0  0  # atno 10718 bound_to 10713
  154.6498  135.5359  153.7888 H   0  0  0  0  0  0  0  0  0  0  0  0  # atno 10763 bound_to 10752
  153.0380  135.6480  154.1033 H   0  0  0  0  0  0  0  0  0  0  0  0  # atno 10764 bound_to 10752
  154.0951  135.2937  155.3243 H   0  0  0  0  0  0  0  0  0  0  0  0  # atno 10765 bound_to 10752
  140.6231  133.9643  155.8235 H   0  0  0  0  0  0  0  0  0  0  0  0  # atno 11005 bound_to 11000
  146.2788  140.4617  142.8785 LP  0  0  0  0  0  0  0  0  0  0  0  0  # atno 17320 bound_to 7965
  144.8426  140.6880  143.6219 LP  0  0  0  0  0  0  0  0  0  0  0  0  # atno 17321 bound_to 7965
  139.4825  144.4837  151.9274 LP  0  0  0  0  0  0  0  0  0  0  0  0  # atno 17342 bound_to 10162
  140.3922  144.2601  150.5899 LP  0  0  0  0  0  0  0  0  0  0  0  0  # atno 17343 bound_to 10162
  157.7271  131.0641  150.5878 LP  0  0  0  0  0  0  0  0  0  0  0  0  # atno 17370 bound_to 10713
  156.5971  130.4344  149.5912 LP  0  0  0  0  0  0  0  0  0  0  0  0  # atno 17371 bound_to 10713
  141.0728  134.0179  157.3501 LP  0  0  0  0  0  0  0  0  0  0  0  0  # atno 17394 bound_to 11000
  139.9145  135.0195  156.7827 LP  0  0  0  0  0  0  0  0  0  0  0  0  # atno 17395 bound_to 11000

$$$$
