AV-unprocessed.smi:1956|AV-procd|sdf|7900|dock1
  -GOLD-   2272010 53D 1   1.00000     0.00000
 Structure written by MMmdl.
 46 47  0  0  0  0  0  0  0  0  2 V2000
  152.7985  139.8936  158.8684 C   0  0  0  0  0  0  0  0  0  0  0  0
  152.9286  139.9336  157.4516 O   0  0  0  0  0  0  0  0  0  0  0  0
  152.2104  139.0249  156.7020 C   0  0  0  0  0  0  0  0  0  0  0  0
  152.2774  139.1080  155.2974 C   0  0  0  0  0  0  0  0  0  0  0  0
  151.5461  138.1869  154.5238 C   0  0  0  0  0  0  0  0  0  0  0  0
  150.7722  137.2011  155.1824 C   0  0  0  0  0  0  0  0  0  0  0  0
  149.9740  136.2260  154.5231 N   0  0  0  0  0  0  0  0  0  0  0  0
  149.5399  135.0394  154.9812 C   0  0  0  0  0  0  0  0  0  0  0  0
  149.7217  134.6002  156.1157 O   0  0  0  0  0  0  0  0  0  0  0  0
  148.8625  134.3727  154.0356 N   0  0  0  0  0  0  0  0  0  0  0  0
  148.2548  133.0550  154.2090 C   0  0  0  0  0  0  0  0  0  0  0  0
  148.6713  132.0441  153.1176 C   0  0  0  0  0  0  0  0  0  0  0  0
  147.5630  131.6923  152.1929 N   0  3  1  0  0  0  0  0  0  0  0  0
  146.7732  130.5296  152.6715 C   0  0  0  0  0  0  0  0  0  0  0  0
  145.7357  130.1005  151.6225 C   0  0  0  0  0  0  0  0  0  0  0  0
  144.8149  131.2700  151.2526 C   0  0  0  0  0  0  0  0  0  0  0  0
  145.6454  132.4793  150.7897 C   0  0  1  0  0  0  0  0  0  0  0  0
  144.7472  133.6760  150.4461 C   0  0  0  0  0  0  0  0  0  0  0  0
  146.6926  132.8505  151.8590 C   0  0  0  0  0  0  0  0  0  0  0  0
  150.7663  137.2094  156.5929 C   0  0  0  0  0  0  0  0  0  0  0  0
  151.4638  138.0902  157.3403 N   0  0  0  0  0  0  0  0  0  0  0  0
  153.4285  140.6656  159.3101 H   0  0  0  0  0  0  0  0  0  0  0  0
  153.1207  138.9330  159.2725 H   0  0  0  0  0  0  0  0  0  0  0  0
  151.7709  140.0869  159.1798 H   0  0  0  0  0  0  0  0  0  0  0  0
  152.8763  139.8702  154.8208 H   0  0  0  0  0  0  0  0  0  0  0  0
  151.5872  138.2689  153.4495 H   0  0  0  0  0  0  0  0  0  0  0  0
  149.6754  136.4774  153.5919 H   0  0  0  0  0  0  0  0  0  0  0  0
  148.7447  134.8144  153.1350 H   0  0  0  0  0  0  0  0  0  0  0  0
  148.5021  132.6623  155.1964 H   0  0  0  0  0  0  0  0  0  0  0  0
  147.1730  133.1868  154.2023 H   0  0  0  0  0  0  0  0  0  0  0  0
  149.4834  132.4891  152.5413 H   0  0  0  0  0  0  0  0  0  0  0  0
  149.0858  131.1414  153.5687 H   0  0  0  0  0  0  0  0  0  0  0  0
  147.4387  129.6905  152.8776 H   0  0  0  0  0  0  0  0  0  0  0  0
  146.2798  130.7837  153.6110 H   0  0  0  0  0  0  0  0  0  0  0  0
  146.2459  129.7370  150.7294 H   0  0  0  0  0  0  0  0  0  0  0  0
  145.1443  129.2667  152.0018 H   0  0  0  0  0  0  0  0  0  0  0  0
  144.1224  130.9631  150.4679 H   0  0  0  0  0  0  0  0  0  0  0  0
  144.2064  131.5437  152.1159 H   0  0  0  0  0  0  0  0  0  0  0  0
  146.1781  132.1958  149.8807 H   0  0  0  0  0  0  0  0  0  0  0  0
  144.1800  134.0087  151.3161 H   0  0  0  0  0  0  0  0  0  0  0  0
  144.0337  133.4195  149.6625 H   0  0  0  0  0  0  0  0  0  0  0  0
  145.3367  134.5215  150.0904 H   0  0  0  0  0  0  0  0  0  0  0  0
  146.1985  133.2063  152.7648 H   0  0  0  0  0  0  0  0  0  0  0  0
  147.3021  133.6744  151.4882 H   0  0  0  0  0  0  0  0  0  0  0  0
  150.1837  136.4845  157.1426 H   0  0  0  0  0  0  0  0  0  0  0  0
  148.0000  131.3948  151.3322 H   0  0  0  0  0  0  0  0  0  0  0  0
  1  2  1  0  0  0  0
  1 22  1  0  0  0  0
  1 23  1  0  0  0  0
  1 24  1  0  0  0  0
  2  3  1  0  0  0  0
  3 21  1  0  0  0  0
  3  4  2  0  0  0  0
  4  5  1  0  0  0  0
  4 25  1  0  0  0  0
  5  6  2  0  0  0  0
  5 26  1  0  0  0  0
  6  7  1  0  0  0  0
  6 20  1  0  0  0  0
  7  8  1  0  0  0  0
  7 27  1  0  0  0  0
  8  9  2  0  0  0  0
  8 10  1  0  0  0  0
 10 11  1  0  0  0  0
 10 28  1  0  0  0  0
 11 12  1  0  0  0  0
 11 29  1  0  0  0  0
 11 30  1  0  0  0  0
 12 13  1  0  0  0  0
 12 31  1  0  0  0  0
 12 32  1  0  0  0  0
 13 19  1  0  0  0  0
 13 14  1  0  0  0  0
 13 46  1  0  0  0  0
 14 15  1  0  0  0  0
 14 33  1  0  0  0  0
 14 34  1  0  0  0  0
 15 16  1  0  0  0  0
 15 35  1  0  0  0  0
 15 36  1  0  0  0  0
 16 17  1  0  0  0  0
 16 37  1  0  0  0  0
 16 38  1  0  0  0  0
 17 18  1  0  0  0  0
 17 19  1  0  0  0  0
 17 39  1  0  0  0  0
 18 40  1  0  0  0  0
 18 41  1  0  0  0  0
 18 42  1  0  0  0  0
 19 43  1  0  0  0  0
 19 44  1  0  0  0  0
 20 21  2  0  0  0  0
 20 45  1  0  0  0  0
M  CHG  1  13   1
M  END
> <s_m_source_file>
AV-unprocessed.smi

> <i_m_source_file_index>
1956

> <i_lp_mmshare_version>
43012

> <i_f3d_flags>
0

> <s_epik_input>
W0NIM11PYzFbY0hdW2NIXWMoW2NIXW4xKVtOSF1DKD1PKVtOSF1bQ0gyXVtDSDJdTjJbQ0gyXVtDSDJdW0NIMl1bQ0BASF0oW0NIM10pW0NIMl0y

> <s_epik_cmdline>
J2VwaWtfcHl0aG9uJywgJy1waCcsICc3LjAnLCAnLXRuJywgJzgnLCAnLW1hJywgJzIwMCcsICctbWV0YWxfYmluZGluZycsICctaW1hZScsICc8aW5maWxlLm1hZT4nLCAnLW9tYWUnLCAnPG91dGZpbGUubWFlPic=

> <r_lp_tautomer_probability>
1

> <r_epik_Ionization_Penalty>
0.00179545

> <r_epik_Ionization_Penalty_Charging>
0.00171832

> <r_epik_Ionization_Penalty_Neutral>
7.7124e-05

> <r_epik_State_Penalty>
0.0011618

> <r_epik_Charging_Adjusted_Penalty>
0.00288012

> <i_epik_Tot_Q>
1

> <i_epik_Tot_abs_Q>
1

> <r_epik_Metal_State_Penalty>
-0

> <b_epik_Metal_Only>
0

> <s_lp_Force_Field>
OPLS_2005

> <r_lp_Energy>
26.1696

> <b_lp_Chiralities_Consistent>
1

> <s_lp_Variant>
AV-unprocessed.smi:1956-1

> <Gold.Version>
5.8.1

> <Gold.Id.Protein>
6NUR|6NUR_protein|mol2

> <Gold.PLP.Fitness>
48.0283

> <Gold.PLP.PLP>
-37.4841

> <Gold.PLP.part.hbond>
-4.1018

> <Gold.PLP.part.metal>
0.0000

> <Gold.PLP.part.buried>
-4.6836

> <Gold.PLP.part.nonpolar>
-29.0402

> <Gold.PLP.part.repulsive>
0.0722

> <Gold.PLP.ligand.clash>
0.0000

> <Gold.PLP.ligand.torsion>
0.7981

> <Gold.PLP.Chemscore.Hbond>
4.0000

> <Gold.PLP.Chemscore.CHOScore>
0.0000

> <Gold.PLP.Chemscore.Metal>
0.0000

> <Gold.Chemscore.Hbonds>
donor molecule, donor type, donor heavy atom, donor atom, acceptor molecule, acceptor atom, score
      L1  H     7    27       P1  7948  1.00
      L1  H    10    28       P1  7948  1.00
      L1  H    13    46       P1 10747  1.00
      P1  H  7997  8010       L1     2  1.00

> <Gold.PLP.Chemscore.Internal.Correction>
0.1403

> <Gold.Rescore>
     Score         DG    S(hbond)    S(metal)    S(lipo)     H(rot)  DE(clash)    DE(int)     intcor
     19.12     -21.30       2.94        0.00      88.62       1.71       0.08       2.10       ----

> <Gold.Chemscore.Fitness>
19.1227

> <Gold.Chemscore.DG>
-21.2990

> <Gold.Chemscore.ZeroCoef>
-5.4800

> <Gold.Chemscore.Hbond>
2.9432

> <Gold.Chemscore.Metal>
0.0000

> <Gold.Chemscore.Lipo>
88.6170

> <Gold.Chemscore.Internal_Hbond>
0.0000

> <Gold.Chemscore.DEClash>
0.0780

> <Gold.Chemscore.DEInternal>
2.0983

> <Gold.Chemscore.Rot>
1.7107

> <Gold.Chemscore.Internal.Correction>
   9.000000E+99

> <Gold.Chemscore.Hbonds>
donor molecule, donor type, donor heavy atom, donor atom, acceptor molecule, acceptor atom, score
      L1  H     7    27       P1  7948  0.50
      L1  H    10    28       P1  7948  0.29
      L1  H    13    46       P1 10747  0.93
      P1  H  7997  8010       L1     2  0.66

> <Gold.Chemscore.Hbond.Weighted>
-9.8302

> <Gold.Chemscore.Metal.Weighted>
-0.0000

> <Gold.Chemscore.Lipo.Weighted>
-10.3682

> <Gold.Chemscore.Internal_Hbond.Weighted>
0.0000

> <Gold.Chemscore.DEClash.Weighted>
0.0780

> <Gold.Chemscore.DEInternal.Weighted>
2.0983

> <Gold.Chemscore.Rot.Weighted>
4.3794

> <Gold.Chemscore.Internal.Correction.Weighted>
   9.000000E+99

> <Gold.Protein.RotatedTorsions>
[ 6907 6896 6895 6894 ] final  100.91 input  -60.11 | X-H torsion
[ 7974 7965 7964 7962 ] final   13.93 input  175.53 | X-H torsion
[ 8008 7997 7996 7995 ] final   48.88 input   59.86 | X-H torsion
[ 10167 10162 10161 10158 ] final   65.96 input  -65.29 | X-H torsion
[ 10718 10713 10712 10709 ] final  -12.81 input   66.30 | X-H torsion
[ 10763 10752 10751 10750 ] final  -10.34 input  -60.55 | X-H torsion
[ 11005 11000 10999 10996 ] final   56.66 input  -57.11 | X-H torsion

> <Gold.Protein.ActiveResidues>
 VAL166  LYS551  ARG553  GLY616  TRP617  ASP618  TYR619  PRO620  LYS621  CYS622 
 ASP623  PHE694  ASN695  SER759  ASP760  ASP761  ALA762  ILE779  LEU786  VAL792 
 PHE793  MET794  SER795  GLU796  ALA797  LYS798  CYS799  TRP800  GLU811  SER814 

> <Gold.Protein.RotatedAtoms>
  152.5361  134.0205  159.7979 H   0  0  0  0  0  0  0  0  0  0  0  0  # atno 6907 bound_to 6896
  151.0392  133.5713  159.2660 H   0  0  0  0  0  0  0  0  0  0  0  0  # atno 6908 bound_to 6896
  151.2689  135.0685  159.9180 H   0  0  0  0  0  0  0  0  0  0  0  0  # atno 6909 bound_to 6896
  146.2317  139.9116  142.8523 H   0  0  0  0  0  0  0  0  0  0  0  0  # atno 7974 bound_to 7965
  155.3930  140.3434  155.4252 H   0  0  0  0  0  0  0  0  0  0  0  0  # atno 8008 bound_to 7997
  156.1546  140.1581  156.8746 H   0  0  0  0  0  0  0  0  0  0  0  0  # atno 8009 bound_to 7997
  154.5083  140.0796  156.7921 H   0  0  0  0  0  0  0  0  0  0  0  0  # atno 8010 bound_to 7997
  140.1056  144.4864  150.7010 H   0  0  0  0  0  0  0  0  0  0  0  0  # atno 10167 bound_to 10162
  156.6393  130.4923  149.6101 H   0  0  0  0  0  0  0  0  0  0  0  0  # atno 10718 bound_to 10713
  153.4678  135.7016  153.6011 H   0  0  0  0  0  0  0  0  0  0  0  0  # atno 10763 bound_to 10752
  153.4278  135.3810  155.2152 H   0  0  0  0  0  0  0  0  0  0  0  0  # atno 10764 bound_to 10752
  154.8726  135.3943  154.4112 H   0  0  0  0  0  0  0  0  0  0  0  0  # atno 10765 bound_to 10752
  140.0512  134.5734  155.9262 H   0  0  0  0  0  0  0  0  0  0  0  0  # atno 11005 bound_to 11000
  145.2224  140.9940  143.4038 LP  0  0  0  0  0  0  0  0  0  0  0  0  # atno 17320 bound_to 7965
  144.9599  139.3991  143.6361 LP  0  0  0  0  0  0  0  0  0  0  0  0  # atno 17321 bound_to 7965
  140.6954  143.2400  151.5016 LP  0  0  0  0  0  0  0  0  0  0  0  0  # atno 17342 bound_to 10162
  139.5647  144.2071  152.1746 LP  0  0  0  0  0  0  0  0  0  0  0  0  # atno 17343 bound_to 10162
  156.2172  130.6715  151.1331 LP  0  0  0  0  0  0  0  0  0  0  0  0  # atno 17370 bound_to 10713
  157.7176  131.0701  150.6266 LP  0  0  0  0  0  0  0  0  0  0  0  0  # atno 17371 bound_to 10713
  141.1931  133.6577  156.5532 LP  0  0  0  0  0  0  0  0  0  0  0  0  # atno 17394 bound_to 11000
  140.3915  134.7436  157.4724 LP  0  0  0  0  0  0  0  0  0  0  0  0  # atno 17395 bound_to 11000

$$$$
