AV-unprocessed.smi:1803|AV-procd|sdf|7288|dock3
  -GOLD-   22720 8543D 1   1.00000     0.00000
 Structure written by MMmdl.
 35 37  0  0  0  0  0  0  0  0  3 V2000
  150.8722  140.0289  154.7762 O   0  0  0  0  0  0  0  0  0  0  0  0
  151.2470  139.5730  155.8557 C   0  0  0  0  0  0  0  0  0  0  0  0
  151.8397  138.3581  155.9885 N   0  5  0  0  0  0  0  0  0  0  0  0
  151.2002  137.2054  155.7157 C   0  0  0  0  0  0  0  0  0  0  0  0
  151.7659  136.0032  155.9117 N   0  0  0  0  0  0  0  0  0  0  0  0
  150.9310  134.9463  155.5761 N   0  0  0  0  0  0  0  0  0  0  0  0
  149.7566  135.3807  155.1194 C   0  0  0  0  0  0  0  0  0  0  0  0
  149.5616  137.1201  155.0654 S   0  0  0  0  0  0  0  0  0  0  0  0
  151.0757  140.3132  156.9677 N   0  0  0  0  0  0  0  0  0  0  0  0
  150.5139  141.6592  157.0188 C   0  0  1  0  0  0  0  0  0  0  0  0
  149.3662  141.7960  158.0279 C   0  0  0  0  0  0  0  0  0  0  0  0
  149.4660  143.2384  158.5551 C   0  0  0  0  0  0  0  0  0  0  0  0
  150.6314  143.8457  157.8747 N   0  3  1  0  0  0  0  0  0  0  0  0
  151.2906  144.9782  158.5737 C   0  0  0  0  0  0  0  0  0  0  0  0
  152.2160  144.5171  159.7125 C   0  0  0  0  0  0  0  0  0  0  0  0
  153.2238  143.4808  159.2052 C   0  0  0  0  0  0  0  0  0  0  0  0
  152.4736  142.2920  158.5958 C   0  0  0  0  0  0  0  0  0  0  0  0
  151.5184  142.7373  157.4582 C   0  0  1  0  0  0  0  0  0  0  0  0
  149.0003  134.6729  154.8145 H   0  0  0  0  0  0  0  0  0  0  0  0
  151.3921  139.9176  157.8411 H   0  0  0  0  0  0  0  0  0  0  0  0
  150.1253  141.9235  156.0328 H   0  0  0  0  0  0  0  0  0  0  0  0
  148.4001  141.5922  157.5649 H   0  0  0  0  0  0  0  0  0  0  0  0
  149.4876  141.0944  158.8549 H   0  0  0  0  0  0  0  0  0  0  0  0
  148.5655  143.8146  158.3408 H   0  0  0  0  0  0  0  0  0  0  0  0
  149.6062  143.2295  159.6366 H   0  0  0  0  0  0  0  0  0  0  0  0
  151.8779  145.5274  157.8369 H   0  0  0  0  0  0  0  0  0  0  0  0
  150.5358  145.6715  158.9464 H   0  0  0  0  0  0  0  0  0  0  0  0
  152.7438  145.3748  160.1305 H   0  0  0  0  0  0  0  0  0  0  0  0
  151.6290  144.0922  160.5273 H   0  0  0  0  0  0  0  0  0  0  0  0
  153.8806  143.9300  158.4591 H   0  0  0  0  0  0  0  0  0  0  0  0
  153.8610  143.1433  160.0229 H   0  0  0  0  0  0  0  0  0  0  0  0
  153.1932  141.5643  158.2191 H   0  0  0  0  0  0  0  0  0  0  0  0
  151.9136  141.7857  159.3829 H   0  0  0  0  0  0  0  0  0  0  0  0
  152.1172  143.0668  156.6080 H   0  0  0  0  0  0  0  0  0  0  0  0
  150.2585  144.2229  157.0152 H   0  0  0  0  0  0  0  0  0  0  0  0
  1  2  2  0  0  0  0
  2  3  1  0  0  0  0
  2  9  1  0  0  0  0
  3  4  1  0  0  0  0
  4  8  1  0  0  0  0
  4  5  2  0  0  0  0
  5  6  1  0  0  0  0
  6  7  2  0  0  0  0
  7  8  1  0  0  0  0
  7 19  1  0  0  0  0
  9 10  1  0  0  0  0
  9 20  1  0  0  0  0
 10 18  1  0  0  0  0
 10 11  1  0  0  0  0
 10 21  1  0  0  0  0
 11 12  1  0  0  0  0
 11 22  1  0  0  0  0
 11 23  1  0  0  0  0
 12 13  1  0  0  0  0
 12 24  1  0  0  0  0
 12 25  1  0  0  0  0
 13 18  1  0  0  0  0
 13 14  1  0  0  0  0
 13 35  1  0  0  0  0
 14 15  1  0  0  0  0
 14 26  1  0  0  0  0
 14 27  1  0  0  0  0
 15 16  1  0  0  0  0
 15 28  1  0  0  0  0
 15 29  1  0  0  0  0
 16 17  1  0  0  0  0
 16 30  1  0  0  0  0
 16 31  1  0  0  0  0
 17 18  1  0  0  0  0
 17 32  1  0  0  0  0
 17 33  1  0  0  0  0
 18 34  1  0  0  0  0
M  CHG  1   3  -1
M  CHG  1  13   1
M  END
> <s_m_source_file>
AV-unprocessed.smi

> <i_m_source_file_index>
1803

> <i_lp_mmshare_version>
43012

> <i_f3d_flags>
0

> <s_epik_input>
czFbY0hdbm5jMVtOSF1DKD1PKVtOSF1bQ0BIXShbQ0gyXVtDSDJdMilbQ0BASF0oTjIzKVtDSDJdW0NIMl1bQ0gyXVtDSDJdMw==

> <s_epik_cmdline>
J2VwaWtfcHl0aG9uJywgJy1waCcsICc3LjAnLCAnLXRuJywgJzgnLCAnLW1hJywgJzIwMCcsICctbWV0YWxfYmluZGluZycsICctaW1hZScsICc8aW5maWxlLm1hZT4nLCAnLW9tYWUnLCAnPG91dGZpbGUubWFlPic=

> <r_lp_tautomer_probability>
1

> <r_epik_Ionization_Penalty>
3.78828

> <r_epik_Ionization_Penalty_Charging>
3.7591

> <r_epik_Ionization_Penalty_Neutral>
0.0291838

> <r_epik_State_Penalty>
3.757

> <r_epik_Charging_Adjusted_Penalty>
7.51609

> <i_epik_Tot_Q>
0

> <i_epik_Tot_abs_Q>
2

> <r_epik_Metal_State_Penalty>
0.558016

> <b_epik_Metal_Only>
1

> <s_lp_Force_Field>
OPLS_2005

> <r_lp_Energy>
30.1197

> <b_lp_Chiralities_Consistent>
1

> <s_lp_Variant>
AV-unprocessed.smi:1803-10

> <Gold.Version>
5.8.1

> <Gold.Id.Protein>
6NUR|6NUR_protein|mol2

> <Gold.PLP.Fitness>
42.0661

> <Gold.PLP.PLP>
-31.9847

> <Gold.PLP.part.hbond>
-3.7887

> <Gold.PLP.part.metal>
0.0000

> <Gold.PLP.part.buried>
-6.2157

> <Gold.PLP.part.nonpolar>
-23.0072

> <Gold.PLP.part.repulsive>
0.2791

> <Gold.PLP.ligand.clash>
0.0000

> <Gold.PLP.ligand.torsion>
0.6613

> <Gold.PLP.Chemscore.Hbond>
3.8000

> <Gold.PLP.Chemscore.CHOScore>
0.0000

> <Gold.PLP.Chemscore.Metal>
0.0000

> <Gold.Chemscore.Hbonds>
donor molecule, donor type, donor heavy atom, donor atom, acceptor molecule, acceptor atom, score
      L1  H    13    35       P1  8028  2.00
      P1  H  7989  7998       L1     1  1.00
      P1  H 10752 10763       L1     5  0.80

> <Gold.PLP.Chemscore.Internal.Correction>
0.0038

> <Gold.Rescore>
     Score         DG    S(hbond)    S(metal)    S(lipo)     H(rot)  DE(clash)    DE(int)     intcor
     20.69     -21.52       2.80        0.00      79.04       1.00       0.21       0.62       ----

> <Gold.Chemscore.Fitness>
20.6886

> <Gold.Chemscore.DG>
-21.5247

> <Gold.Chemscore.ZeroCoef>
-5.4800

> <Gold.Chemscore.Hbond>
2.8017

> <Gold.Chemscore.Metal>
0.0000

> <Gold.Chemscore.Lipo>
79.0354

> <Gold.Chemscore.Internal_Hbond>
0.0000

> <Gold.Chemscore.DEClash>
0.2130

> <Gold.Chemscore.DEInternal>
0.6232

> <Gold.Chemscore.Rot>
1.0000

> <Gold.Chemscore.Internal.Correction>
   9.000000E+99

> <Gold.Chemscore.Hbonds>
donor molecule, donor type, donor heavy atom, donor atom, acceptor molecule, acceptor atom, score
      L1  H    13    35       P1  8028  0.88
      P1  H  7989  7998       L1     1  1.00
      P1  H 10752 10763       L1     5  0.12

> <Gold.Chemscore.Hbond.Weighted>
-9.3576

> <Gold.Chemscore.Metal.Weighted>
-0.0000

> <Gold.Chemscore.Lipo.Weighted>
-9.2471

> <Gold.Chemscore.Internal_Hbond.Weighted>
0.0000

> <Gold.Chemscore.DEClash.Weighted>
0.2130

> <Gold.Chemscore.DEInternal.Weighted>
0.6232

> <Gold.Chemscore.Rot.Weighted>
2.5600

> <Gold.Chemscore.Internal.Correction.Weighted>
   9.000000E+99

> <Gold.Protein.RotatedTorsions>
[ 6907 6896 6895 6894 ] final   96.62 input  -60.11 | X-H torsion
[ 7974 7965 7964 7962 ] final  128.05 input  175.53 | X-H torsion
[ 8008 7997 7996 7995 ] final  128.11 input   59.86 | X-H torsion
[ 10167 10162 10161 10158 ] final   47.55 input  -65.29 | X-H torsion
[ 10718 10713 10712 10709 ] final   30.03 input   66.30 | X-H torsion
[ 10763 10752 10751 10750 ] final   84.51 input  -60.55 | X-H torsion
[ 11005 11000 10999 10996 ] final   31.56 input  -57.11 | X-H torsion

> <Gold.Protein.ActiveResidues>
 VAL166  LYS551  ARG553  GLY616  TRP617  ASP618  TYR619  PRO620  LYS621  CYS622 
 ASP623  PHE694  ASN695  SER759  ASP760  ASP761  ALA762  ILE779  LEU786  VAL792 
 PHE793  MET794  SER795  GLU796  ALA797  LYS798  CYS799  TRP800  GLU811  SER814 

> <Gold.Protein.RotatedAtoms>
  152.5433  134.0859  159.8255 H   0  0  0  0  0  0  0  0  0  0  0  0  # atno 6907 bound_to 6896
  151.0954  133.5276  159.2620 H   0  0  0  0  0  0  0  0  0  0  0  0  # atno 6908 bound_to 6896
  151.2051  135.0467  159.8942 H   0  0  0  0  0  0  0  0  0  0  0  0  # atno 6909 bound_to 6896
  145.0438  139.3940  143.5088 H   0  0  0  0  0  0  0  0  0  0  0  0  # atno 7974 bound_to 7965
  156.2907  140.2652  156.2383 H   0  0  0  0  0  0  0  0  0  0  0  0  # atno 8008 bound_to 7997
  155.0003  140.0388  157.2375 H   0  0  0  0  0  0  0  0  0  0  0  0  # atno 8009 bound_to 7997
  154.7607  140.2760  155.6221 H   0  0  0  0  0  0  0  0  0  0  0  0  # atno 8010 bound_to 7997
  140.3025  144.2917  150.6216 H   0  0  0  0  0  0  0  0  0  0  0  0  # atno 10167 bound_to 10162
  157.2544  130.7130  149.6421 H   0  0  0  0  0  0  0  0  0  0  0  0  # atno 10718 bound_to 10713
  153.1388  135.4651  154.9464 H   0  0  0  0  0  0  0  0  0  0  0  0  # atno 10763 bound_to 10752
  154.7729  135.3164  154.8154 H   0  0  0  0  0  0  0  0  0  0  0  0  # atno 10764 bound_to 10752
  153.8681  135.6906  153.4831 H   0  0  0  0  0  0  0  0  0  0  0  0  # atno 10765 bound_to 10752
  140.2826  134.2955  155.7796 H   0  0  0  0  0  0  0  0  0  0  0  0  # atno 11005 bound_to 11000
  146.3512  140.0053  142.8672 LP  0  0  0  0  0  0  0  0  0  0  0  0  # atno 17320 bound_to 7965
  145.1614  140.9674  143.4375 LP  0  0  0  0  0  0  0  0  0  0  0  0  # atno 17321 bound_to 7965
  140.5639  143.2188  151.7718 LP  0  0  0  0  0  0  0  0  0  0  0  0  # atno 17342 bound_to 10162
  139.4912  144.4311  151.9871 LP  0  0  0  0  0  0  0  0  0  0  0  0  # atno 17343 bound_to 10162
  155.9665  130.4417  150.5353 LP  0  0  0  0  0  0  0  0  0  0  0  0  # atno 17370 bound_to 10713
  157.3244  131.0688  151.1908 LP  0  0  0  0  0  0  0  0  0  0  0  0  # atno 17371 bound_to 10713
  141.2160  133.7535  156.9504 LP  0  0  0  0  0  0  0  0  0  0  0  0  # atno 17394 bound_to 11000
  140.1269  134.9381  157.2282 LP  0  0  0  0  0  0  0  0  0  0  0  0  # atno 17395 bound_to 11000

$$$$
