AV-unprocessed.smi:2059|AV-procd|sdf|8351|dock1
  -GOLD-   2272011 23D 1   1.00000     0.00000
 Structure written by MMmdl.
 29 30  0  0  0  0  0  0  0  0  2 V2000
  152.3615  143.5346  161.8903 C   0  0  0  0  0  0  0  0  0  0  0  0
  152.8638  142.3949  161.0715 C   0  0  0  0  0  0  0  0  0  0  0  0
  152.4497  141.8489  159.8900 C   0  0  0  0  0  0  0  0  0  0  0  0
  153.3751  140.7910  159.6785 C   0  0  0  0  0  0  0  0  0  0  0  0
  153.3770  139.9453  158.6329 N   0  5  0  0  0  0  0  0  0  0  0  0
  152.2402  139.4012  158.1227 C   0  0  0  0  0  0  0  0  0  0  0  0
  151.1803  140.0187  158.0276 O   0  0  0  0  0  0  0  0  0  0  0  0
  152.2871  138.1212  157.7052 N   0  0  0  0  0  0  0  0  0  0  0  0
  151.1844  137.3636  157.1225 C   0  0  1  0  0  0  0  0  0  0  0  0
  151.6500  135.9590  156.6973 C   0  0  0  0  0  0  0  0  0  0  0  0
  150.4143  135.0908  156.4325 C   0  0  0  0  0  0  0  0  0  0  0  0
  149.1149  135.6974  157.5742 S   0  0  0  0  0  0  0  0  0  0  0  0
  147.9351  136.0884  156.7878 O   0  0  0  0  0  0  0  0  0  0  0  0
  148.9923  134.7758  158.7140 O   0  0  0  0  0  0  0  0  0  0  0  0
  150.0188  137.1976  158.1112 C   0  0  0  0  0  0  0  0  0  0  0  0
  154.2649  140.6950  160.6524 N   0  0  0  0  0  0  0  0  0  0  0  0
  153.9474  141.7239  161.5470 O   0  0  0  0  0  0  0  0  0  0  0  0
  151.4056  143.2850  162.3508 H   0  0  0  0  0  0  0  0  0  0  0  0
  152.2181  144.4206  161.2719 H   0  0  0  0  0  0  0  0  0  0  0  0
  153.0636  143.7880  162.6848 H   0  0  0  0  0  0  0  0  0  0  0  0
  151.6186  142.1565  159.2734 H   0  0  0  0  0  0  0  0  0  0  0  0
  153.1682  137.6376  157.8011 H   0  0  0  0  0  0  0  0  0  0  0  0
  150.8191  137.8784  156.2319 H   0  0  0  0  0  0  0  0  0  0  0  0
  152.3083  135.9950  155.8286 H   0  0  0  0  0  0  0  0  0  0  0  0
  152.2219  135.5099  157.5107 H   0  0  0  0  0  0  0  0  0  0  0  0
  150.0564  135.2313  155.4126 H   0  0  0  0  0  0  0  0  0  0  0  0
  150.5967  134.0286  156.5957 H   0  0  0  0  0  0  0  0  0  0  0  0
  150.3830  137.0236  159.1243 H   0  0  0  0  0  0  0  0  0  0  0  0
  149.3487  138.0572  158.1255 H   0  0  0  0  0  0  0  0  0  0  0  0
  1  2  1  0  0  0  0
  1 18  1  0  0  0  0
  1 19  1  0  0  0  0
  1 20  1  0  0  0  0
  2 17  1  0  0  0  0
  2  3  2  0  0  0  0
  3  4  1  0  0  0  0
  3 21  1  0  0  0  0
  4  5  1  0  0  0  0
  4 16  2  0  0  0  0
  5  6  1  0  0  0  0
  6  7  2  0  0  0  0
  6  8  1  0  0  0  0
  8  9  1  0  0  0  0
  8 22  1  0  0  0  0
  9 15  1  0  0  0  0
  9 10  1  0  0  0  0
  9 23  1  0  0  0  0
 10 11  1  0  0  0  0
 10 24  1  0  0  0  0
 10 25  1  0  0  0  0
 11 12  1  0  0  0  0
 11 26  1  0  0  0  0
 11 27  1  0  0  0  0
 12 13  2  0  0  0  0
 12 14  2  0  0  0  0
 12 15  1  0  0  0  0
 15 28  1  0  0  0  0
 15 29  1  0  0  0  0
 16 17  1  0  0  0  0
M  CHG  1   5  -1
M  END
> <s_m_source_file>
AV-unprocessed.smi

> <i_m_source_file_index>
2059

> <i_lp_mmshare_version>
43012

> <i_f3d_flags>
0

> <s_epik_input>
W0NIM11jMVtjSF1jKG5vMSlbTkhdQyg9TylbTkhdW0NAQEhdKFtDSDJdMilbQ0gyXVtDSDJdUzIoPU8pPU8=

> <s_epik_cmdline>
J2VwaWtfcHl0aG9uJywgJy1waCcsICc3LjAnLCAnLXRuJywgJzgnLCAnLW1hJywgJzIwMCcsICctbWV0YWxfYmluZGluZycsICctaW1hZScsICc8aW5maWxlLm1hZT4nLCAnLW9tYWUnLCAnPG91dGZpbGUubWFlPic=

> <r_lp_tautomer_probability>
1

> <r_epik_Ionization_Penalty>
6.15571

> <r_epik_Ionization_Penalty_Charging>
6.1556

> <r_epik_Ionization_Penalty_Neutral>
0.000110918

> <r_epik_State_Penalty>
6.15558

> <r_epik_Charging_Adjusted_Penalty>
12.3112

> <i_epik_Tot_Q>
-1

> <i_epik_Tot_abs_Q>
1

> <r_epik_Metal_State_Penalty>
2.1059

> <b_epik_Metal_Only>
1

> <s_lp_Force_Field>
OPLS_2005

> <r_lp_Energy>
-1.66836

> <b_lp_Chiralities_Consistent>
1

> <s_lp_Variant>
AV-unprocessed.smi:2059-4

> <Gold.Version>
5.8.1

> <Gold.Id.Protein>
6NUR|6NUR_protein|mol2

> <Gold.PLP.Fitness>
32.5472

> <Gold.PLP.PLP>
-24.7922

> <Gold.PLP.part.hbond>
-2.9548

> <Gold.PLP.part.metal>
0.0000

> <Gold.PLP.part.buried>
-3.7344

> <Gold.PLP.part.nonpolar>
-17.3105

> <Gold.PLP.part.repulsive>
0.0732

> <Gold.PLP.ligand.clash>
0.0000

> <Gold.PLP.ligand.torsion>
0.6334

> <Gold.PLP.Chemscore.Hbond>
3.0000

> <Gold.PLP.Chemscore.CHOScore>
0.0000

> <Gold.PLP.Chemscore.Metal>
0.0000

> <Gold.Chemscore.Hbonds>
donor molecule, donor type, donor heavy atom, donor atom, acceptor molecule, acceptor atom, score
      P1  H  6896  6907       L1    14  1.00
      P1  H  7997  8009       L1     5  2.00

> <Gold.PLP.Chemscore.Internal.Correction>
0.0219

> <Gold.Rescore>
     Score         DG    S(hbond)    S(metal)    S(lipo)     H(rot)  DE(clash)    DE(int)     intcor
     12.00     -14.63       1.81        0.00      48.36       1.00       0.05       2.58       ----

> <Gold.Chemscore.Fitness>
12.0040

> <Gold.Chemscore.DG>
-14.6272

> <Gold.Chemscore.ZeroCoef>
-5.4800

> <Gold.Chemscore.Hbond>
1.8110

> <Gold.Chemscore.Metal>
0.0000

> <Gold.Chemscore.Lipo>
48.3628

> <Gold.Chemscore.Internal_Hbond>
0.0000

> <Gold.Chemscore.DEClash>
0.0479

> <Gold.Chemscore.DEInternal>
2.5754

> <Gold.Chemscore.Rot>
1.0000

> <Gold.Chemscore.Internal.Correction>
   9.000000E+99

> <Gold.Chemscore.Hbonds>
donor molecule, donor type, donor heavy atom, donor atom, acceptor molecule, acceptor atom, score
      P1  H  6896  6907       L1    14  0.82
      P1  H  7997  8009       L1     5  0.42

> <Gold.Chemscore.Hbond.Weighted>
-6.0488

> <Gold.Chemscore.Metal.Weighted>
-0.0000

> <Gold.Chemscore.Lipo.Weighted>
-5.6584

> <Gold.Chemscore.Internal_Hbond.Weighted>
0.0000

> <Gold.Chemscore.DEClash.Weighted>
0.0479

> <Gold.Chemscore.DEInternal.Weighted>
2.5754

> <Gold.Chemscore.Rot.Weighted>
2.5600

> <Gold.Chemscore.Internal.Correction.Weighted>
   9.000000E+99

> <Gold.Protein.RotatedTorsions>
[ 6907 6896 6895 6894 ] final  -81.89 input  -60.11 | X-H torsion
[ 7974 7965 7964 7962 ] final  139.09 input  175.53 | X-H torsion
[ 8008 7997 7996 7995 ] final  152.64 input   59.86 | X-H torsion
[ 10167 10162 10161 10158 ] final   31.79 input  -65.29 | X-H torsion
[ 10718 10713 10712 10709 ] final  133.59 input   66.30 | X-H torsion
[ 10763 10752 10751 10750 ] final   26.52 input  -60.55 | X-H torsion
[ 11005 11000 10999 10996 ] final  -23.20 input  -57.11 | X-H torsion

> <Gold.Protein.ActiveResidues>
 VAL166  LYS551  ARG553  GLY616  TRP617  ASP618  TYR619  PRO620  LYS621  CYS622 
 ASP623  PHE694  ASN695  SER759  ASP760  ASP761  ALA762  ILE779  LEU786  VAL792 
 PHE793  MET794  SER795  GLU796  ALA797  LYS798  CYS799  TRP800  GLU811  SER814 

> <Gold.Protein.RotatedAtoms>
  150.6905  134.3748  159.5007 H   0  0  0  0  0  0  0  0  0  0  0  0  # atno 6907 bound_to 6896
  152.1559  134.8948  160.0554 H   0  0  0  0  0  0  0  0  0  0  0  0  # atno 6908 bound_to 6896
  152.0028  133.3797  159.4225 H   0  0  0  0  0  0  0  0  0  0  0  0  # atno 6909 bound_to 6896
  144.9311  139.5046  143.5617 H   0  0  0  0  0  0  0  0  0  0  0  0  # atno 7974 bound_to 7965
  156.2619  140.2015  156.6365 H   0  0  0  0  0  0  0  0  0  0  0  0  # atno 8008 bound_to 7997
  154.6642  140.0557  157.0120 H   0  0  0  0  0  0  0  0  0  0  0  0  # atno 8009 bound_to 7997
  155.1231  140.3226  155.4495 H   0  0  0  0  0  0  0  0  0  0  0  0  # atno 8010 bound_to 7997
  140.4557  144.0982  150.6201 H   0  0  0  0  0  0  0  0  0  0  0  0  # atno 10167 bound_to 10162
  157.4757  131.1083  150.9746 H   0  0  0  0  0  0  0  0  0  0  0  0  # atno 10718 bound_to 10713
  153.0617  135.6558  154.0448 H   0  0  0  0  0  0  0  0  0  0  0  0  # atno 10763 bound_to 10752
  154.0114  135.2928  155.3393 H   0  0  0  0  0  0  0  0  0  0  0  0  # atno 10764 bound_to 10752
  154.6958  135.5265  153.8524 H   0  0  0  0  0  0  0  0  0  0  0  0  # atno 10765 bound_to 10752
  140.8729  133.7707  156.0209 H   0  0  0  0  0  0  0  0  0  0  0  0  # atno 11005 bound_to 11000
  146.3247  139.8262  142.8917 LP  0  0  0  0  0  0  0  0  0  0  0  0  # atno 17320 bound_to 7965
  145.3140  141.0227  143.3538 LP  0  0  0  0  0  0  0  0  0  0  0  0  # atno 17321 bound_to 7965
  140.4154  143.2637  151.9782 LP  0  0  0  0  0  0  0  0  0  0  0  0  # atno 17342 bound_to 10162
  139.4801  144.5879  151.7823 LP  0  0  0  0  0  0  0  0  0  0  0  0  # atno 17343 bound_to 10162
  157.0496  130.5781  149.5368 LP  0  0  0  0  0  0  0  0  0  0  0  0  # atno 17370 bound_to 10713
  156.0096  130.5186  150.7944 LP  0  0  0  0  0  0  0  0  0  0  0  0  # atno 17371 bound_to 10713
  140.8552  134.2907  157.5258 LP  0  0  0  0  0  0  0  0  0  0  0  0  # atno 17394 bound_to 11000
  139.8713  134.9489  156.4009 LP  0  0  0  0  0  0  0  0  0  0  0  0  # atno 17395 bound_to 11000

$$$$
