AV-unprocessed.smi:2083|AV-procd|sdf|8506|dock6
  -GOLD-   2272011223D 1   1.00000     0.00000
 Structure written by MMmdl.
 44 45  0  0  0  0  0  0  0  0  3 V2000
  151.5997  134.1469  152.6427 C   0  0  0  0  0  0  0  0  0  0  0  0
  152.1214  135.1251  153.6386 C   0  0  0  0  0  0  0  0  0  0  0  0
  152.0921  136.4894  153.7050 C   0  0  0  0  0  0  0  0  0  0  0  0
  152.7789  136.7671  154.9170 C   0  0  0  0  0  0  0  0  0  0  0  0
  152.9699  138.1062  155.3485 N   0  0  0  0  0  0  0  0  0  0  0  0
  154.1174  138.7383  155.6553 C   0  0  0  0  0  0  0  0  0  0  0  0
  155.1977  138.1391  155.5910 O   0  0  0  0  0  0  0  0  0  0  0  0
  153.9084  140.0340  156.0153 N   0  5  0  0  0  0  0  0  0  0  0  0
  152.6944  140.5285  156.6627 C   0  0  0  0  0  0  0  0  0  0  0  0
  152.7308  140.2208  158.1943 C   0  0  2  0  0  0  0  0  0  0  0  0
  152.2714  138.7849  158.5430 C   0  0  0  0  0  0  0  0  0  0  0  0
  152.0215  141.2126  159.0737 N   0  3  1  0  0  0  0  0  0  0  0  0
  152.1636  140.9740  160.5379 C   0  0  0  0  0  0  0  0  0  0  0  0
  151.1199  141.7844  161.3217 C   0  0  0  0  0  0  0  0  0  0  0  0
  151.2232  143.2798  160.9920 C   0  0  0  0  0  0  0  0  0  0  0  0
  151.1047  143.5050  159.4743 C   0  0  1  0  0  0  0  0  0  0  0  0
  151.2233  144.9934  159.1173 C   0  0  0  0  0  0  0  0  0  0  0  0
  152.1545  142.6597  158.7259 C   0  0  0  0  0  0  0  0  0  0  0  0
  153.1861  135.6692  155.5368 N   0  0  0  0  0  0  0  0  0  0  0  0
  152.7666  134.6116  154.7210 O   0  0  0  0  0  0  0  0  0  0  0  0
  151.3012  134.6496  151.7226 H   0  0  0  0  0  0  0  0  0  0  0  0
  150.7313  133.6202  153.0381 H   0  0  0  0  0  0  0  0  0  0  0  0
  152.3601  133.4075  152.3911 H   0  0  0  0  0  0  0  0  0  0  0  0
  151.6526  137.1771  152.9981 H   0  0  0  0  0  0  0  0  0  0  0  0
  152.1314  138.6621  155.4254 H   0  0  0  0  0  0  0  0  0  0  0  0
  152.5950  141.6049  156.5217 H   0  0  0  0  0  0  0  0  0  0  0  0
  151.7905  140.0920  156.2363 H   0  0  0  0  0  0  0  0  0  0  0  0
  153.7773  140.2688  158.5002 H   0  0  0  0  0  0  0  0  0  0  0  0
  152.9091  138.0273  158.0838 H   0  0  0  0  0  0  0  0  0  0  0  0
  151.2472  138.5792  158.2291 H   0  0  0  0  0  0  0  0  0  0  0  0
  152.3199  138.6175  159.6195 H   0  0  0  0  0  0  0  0  0  0  0  0
  152.0315  139.9146  160.7602 H   0  0  0  0  0  0  0  0  0  0  0  0
  153.1664  141.2464  160.8696 H   0  0  0  0  0  0  0  0  0  0  0  0
  150.1193  141.4235  161.0797 H   0  0  0  0  0  0  0  0  0  0  0  0
  151.2544  141.6284  162.3925 H   0  0  0  0  0  0  0  0  0  0  0  0
  150.4423  143.8293  161.5187 H   0  0  0  0  0  0  0  0  0  0  0  0
  152.1764  143.6691  161.3526 H   0  0  0  0  0  0  0  0  0  0  0  0
  150.1154  143.1698  159.1590 H   0  0  0  0  0  0  0  0  0  0  0  0
  152.1970  145.3933  159.4022 H   0  0  0  0  0  0  0  0  0  0  0  0
  150.4598  145.5814  159.6271 H   0  0  0  0  0  0  0  0  0  0  0  0
  151.0989  145.1514  158.0457 H   0  0  0  0  0  0  0  0  0  0  0  0
  153.1550  143.0177  158.9747 H   0  0  0  0  0  0  0  0  0  0  0  0
  152.0259  142.8029  157.6536 H   0  0  0  0  0  0  0  0  0  0  0  0
  151.0490  141.0081  158.8958 H   0  0  0  0  0  0  0  0  0  0  0  0
  1  2  1  0  0  0  0
  1 21  1  0  0  0  0
  1 22  1  0  0  0  0
  1 23  1  0  0  0  0
  2 20  1  0  0  0  0
  2  3  2  0  0  0  0
  3  4  1  0  0  0  0
  3 24  1  0  0  0  0
  4  5  1  0  0  0  0
  4 19  2  0  0  0  0
  5  6  1  0  0  0  0
  5 25  1  0  0  0  0
  6  7  2  0  0  0  0
  6  8  1  0  0  0  0
  8  9  1  0  0  0  0
  9 10  1  0  0  0  0
  9 26  1  0  0  0  0
  9 27  1  0  0  0  0
 10 11  1  0  0  0  0
 10 12  1  0  0  0  0
 10 28  1  0  0  0  0
 11 29  1  0  0  0  0
 11 30  1  0  0  0  0
 11 31  1  0  0  0  0
 12 18  1  0  0  0  0
 12 13  1  0  0  0  0
 12 44  1  0  0  0  0
 13 14  1  0  0  0  0
 13 32  1  0  0  0  0
 13 33  1  0  0  0  0
 14 15  1  0  0  0  0
 14 34  1  0  0  0  0
 14 35  1  0  0  0  0
 15 16  1  0  0  0  0
 15 36  1  0  0  0  0
 15 37  1  0  0  0  0
 16 17  1  0  0  0  0
 16 18  1  0  0  0  0
 16 38  1  0  0  0  0
 17 39  1  0  0  0  0
 17 40  1  0  0  0  0
 17 41  1  0  0  0  0
 18 42  1  0  0  0  0
 18 43  1  0  0  0  0
 19 20  1  0  0  0  0
M  CHG  1   8  -1
M  CHG  1  12   1
M  END
> <s_m_source_file>
AV-unprocessed.smi

> <i_m_source_file_index>
2083

> <i_lp_mmshare_version>
43012

> <i_f3d_flags>
0

> <s_epik_input>
W0NIM11jMVtjSF1jKG5vMSlbTkhdQyg9TylbTkhdW0NIMl1bQ0BIXShbQ0gzXSlOMltDSDJdW0NIMl1bQ0gyXVtDQEBIXShbQ0gzXSlbQ0gyXTI=

> <s_epik_cmdline>
J2VwaWtfcHl0aG9uJywgJy1waCcsICc3LjAnLCAnLXRuJywgJzgnLCAnLW1hJywgJzIwMCcsICctbWV0YWxfYmluZGluZycsICctaW1hZScsICc8aW5maWxlLm1hZT4nLCAnLW9tYWUnLCAnPG91dGZpbGUubWFlPic=

> <r_epik_Ionization_Penalty>
6.76934

> <r_epik_Ionization_Penalty_Charging>
6.76934

> <r_epik_Ionization_Penalty_Neutral>
5.77849e-06

> <r_epik_State_Penalty>
6.79457

> <r_epik_Charging_Adjusted_Penalty>
13.5639

> <i_epik_Tot_Q>
0

> <i_epik_Tot_abs_Q>
2

> <r_epik_Metal_State_Penalty>
2.72837

> <b_epik_Metal_Only>
1

> <s_lp_Force_Field>
OPLS_2005

> <r_lp_Energy>
20.364

> <b_lp_Chiralities_Consistent>
1

> <s_lp_Variant>
AV-unprocessed.smi:2083-17

> <Gold.Version>
5.8.1

> <Gold.Id.Protein>
6NUR|6NUR_protein|mol2

> <Gold.PLP.Fitness>
46.8816

> <Gold.PLP.PLP>
-40.1959

> <Gold.PLP.part.hbond>
-3.0367

> <Gold.PLP.part.metal>
0.0000

> <Gold.PLP.part.buried>
-4.8477

> <Gold.PLP.part.nonpolar>
-31.9096

> <Gold.PLP.part.repulsive>
0.2571

> <Gold.PLP.ligand.clash>
0.0000

> <Gold.PLP.ligand.torsion>
1.2933

> <Gold.PLP.Chemscore.Hbond>
3.0000

> <Gold.PLP.Chemscore.CHOScore>
0.0000

> <Gold.PLP.Chemscore.Metal>
0.0000

> <Gold.PLP.Chemscore.Internal.Correction>
0.2724

> <Gold.Rescore>
     Score         DG    S(hbond)    S(metal)    S(lipo)     H(rot)  DE(clash)    DE(int)     intcor
     15.71     -18.30       1.58        0.00      97.68       1.52       0.03       2.56       ----

> <Gold.Chemscore.Fitness>
15.7119

> <Gold.Chemscore.DG>
-18.3013

> <Gold.Chemscore.ZeroCoef>
-5.4800

> <Gold.Chemscore.Hbond>
1.5813

> <Gold.Chemscore.Metal>
0.0000

> <Gold.Chemscore.Lipo>
97.6782

> <Gold.Chemscore.Internal_Hbond>
0.0000

> <Gold.Chemscore.DEClash>
0.0263

> <Gold.Chemscore.DEInternal>
2.5631

> <Gold.Chemscore.Rot>
1.5190

> <Gold.Chemscore.Internal.Correction>
   9.000000E+99

> <Gold.Chemscore.Hbond.Weighted>
-5.2816

> <Gold.Chemscore.Metal.Weighted>
-0.0000

> <Gold.Chemscore.Lipo.Weighted>
-11.4283

> <Gold.Chemscore.Internal_Hbond.Weighted>
0.0000

> <Gold.Chemscore.DEClash.Weighted>
0.0263

> <Gold.Chemscore.DEInternal.Weighted>
2.5631

> <Gold.Chemscore.Rot.Weighted>
3.8886

> <Gold.Chemscore.Internal.Correction.Weighted>
   9.000000E+99

> <Gold.Protein.RotatedTorsions>
[ 6907 6896 6895 6894 ] final    1.38 input  -60.11 | X-H torsion
[ 7974 7965 7964 7962 ] final  158.68 input  175.53 | X-H torsion
[ 8008 7997 7996 7995 ] final   93.28 input   59.86 | X-H torsion
[ 10167 10162 10161 10158 ] final -102.10 input  -65.29 | X-H torsion
[ 10718 10713 10712 10709 ] final  -37.62 input   66.30 | X-H torsion
[ 10763 10752 10751 10750 ] final -154.48 input  -60.55 | X-H torsion
[ 11005 11000 10999 10996 ] final   96.91 input  -57.11 | X-H torsion

> <Gold.Protein.ActiveResidues>
 VAL166  LYS551  ARG553  GLY616  TRP617  ASP618  TYR619  PRO620  LYS621  CYS622 
 ASP623  PHE694  ASN695  SER759  ASP760  ASP761  ALA762  ILE779  LEU786  VAL792 
 PHE793  MET794  SER795  GLU796  ALA797  LYS798  CYS799  TRP800  GLU811  SER814 

> <Gold.Protein.RotatedAtoms>
  151.5918  135.1053  160.0040 H   0  0  0  0  0  0  0  0  0  0  0  0  # atno 6907 bound_to 6896
  152.4303  133.7261  159.6571 H   0  0  0  0  0  0  0  0  0  0  0  0  # atno 6908 bound_to 6896
  150.8194  133.8208  159.3168 H   0  0  0  0  0  0  0  0  0  0  0  0  # atno 6909 bound_to 6896
  144.7832  139.7511  143.6251 H   0  0  0  0  0  0  0  0  0  0  0  0  # atno 7974 bound_to 7965
  156.0450  140.3315  155.7286 H   0  0  0  0  0  0  0  0  0  0  0  0  # atno 8008 bound_to 7997
  155.5688  140.0626  157.2829 H   0  0  0  0  0  0  0  0  0  0  0  0  # atno 8009 bound_to 7997
  154.4410  140.1864  156.0846 H   0  0  0  0  0  0  0  0  0  0  0  0  # atno 8010 bound_to 7997
  140.2342  143.3584  152.0859 H   0  0  0  0  0  0  0  0  0  0  0  0  # atno 10167 bound_to 10162
  156.3131  130.4255  149.8031 H   0  0  0  0  0  0  0  0  0  0  0  0  # atno 10718 bound_to 10713
  154.7855  135.3189  154.7895 H   0  0  0  0  0  0  0  0  0  0  0  0  # atno 10763 bound_to 10752
  153.8596  135.6854  153.4788 H   0  0  0  0  0  0  0  0  0  0  0  0  # atno 10764 bound_to 10752
  153.1506  135.4701  154.9569 H   0  0  0  0  0  0  0  0  0  0  0  0  # atno 10765 bound_to 10752
  139.8779  134.8974  156.4228 H   0  0  0  0  0  0  0  0  0  0  0  0  # atno 11005 bound_to 11000
  146.2051  139.5371  142.9717 LP  0  0  0  0  0  0  0  0  0  0  0  0  # atno 17320 bound_to 7965
  145.5992  141.0358  143.2027 LP  0  0  0  0  0  0  0  0  0  0  0  0  # atno 17321 bound_to 7965
  139.5099  144.6875  151.5847 LP  0  0  0  0  0  0  0  0  0  0  0  0  # atno 17342 bound_to 10162
  140.6162  143.9344  150.6490 LP  0  0  0  0  0  0  0  0  0  0  0  0  # atno 17343 bound_to 10162
  156.5366  130.8281  151.3255 LP  0  0  0  0  0  0  0  0  0  0  0  0  # atno 17370 bound_to 10713
  157.7395  130.9834  150.2321 LP  0  0  0  0  0  0  0  0  0  0  0  0  # atno 17371 bound_to 10713
  140.9122  133.7704  155.9805 LP  0  0  0  0  0  0  0  0  0  0  0  0  # atno 17394 bound_to 11000
  140.8534  134.2927  157.5266 LP  0  0  0  0  0  0  0  0  0  0  0  0  # atno 17395 bound_to 11000

$$$$
