AV-unprocessed.smi:3057|AV-procd|sdf|11667|dock8
  -GOLD-   2272017 73D 1   1.00000     0.00000
 Structure written by MMmdl.
 41 43  0  0  0  0  0  0  0  0  2 V2000
  150.7837  135.2023  155.4020 C   0  0  0  0  0  0  0  0  0  0  0  0
  150.5952  136.4684  156.2633 C   0  0  1  0  0  0  0  0  0  0  0  0
  151.4413  136.4024  157.5449 C   0  0  0  0  0  0  0  0  0  0  0  0
  152.7648  137.0768  157.1517 C   0  0  0  0  0  0  0  0  0  0  0  0
  152.3486  137.9653  155.9884 C   0  0  0  0  0  0  0  0  0  0  0  0
  153.0486  138.8792  155.5546 O   0  0  0  0  0  0  0  0  0  0  0  0
  151.1113  137.6401  155.5803 N   0  0  0  0  0  0  0  0  0  0  0  0
  150.1593  138.4042  154.7594 C   0  0  2  0  0  0  0  0  0  0  0  0
  150.0984  139.8979  155.1289 C   0  0  0  0  0  0  0  0  0  0  0  0
  150.2403  140.7599  154.2602 O   0  0  0  0  0  0  0  0  0  0  0  0
  149.8942  140.1886  156.4229 N   0  0  0  0  0  0  0  0  0  0  0  0
  149.7721  141.5377  156.9614 C   0  0  0  0  0  0  0  0  0  0  0  0
  151.0550  142.3541  156.7279 C   0  0  0  0  0  0  0  0  0  0  0  0
  151.3182  143.3436  157.8456 C   0  0  0  0  0  0  0  0  0  0  0  0
  152.2094  143.0648  158.9045 C   0  0  0  0  0  0  0  0  0  0  0  0
  152.4092  144.0345  159.9094 C   0  0  0  0  0  0  0  0  0  0  0  0
  151.7152  145.2600  159.8344 C   0  0  0  0  0  0  0  0  0  0  0  0
  150.8380  145.4859  158.7541 C   0  0  0  0  0  0  0  0  0  0  0  0
  150.6739  144.5326  157.8107 N   0  3  0  0  0  0  0  0  0  0  0  0
  148.7875  137.7111  154.9141 C   0  0  0  0  0  0  0  0  0  0  0  0
  148.8472  136.8444  156.5064 S   0  0  0  0  0  0  0  0  0  0  0  0
  151.8381  135.0038  155.2065 H   0  0  0  0  0  0  0  0  0  0  0  0
  150.2858  135.2882  154.4362 H   0  0  0  0  0  0  0  0  0  0  0  0
  150.3738  134.3260  155.9048 H   0  0  0  0  0  0  0  0  0  0  0  0
  150.9673  136.9700  158.3474 H   0  0  0  0  0  0  0  0  0  0  0  0
  151.5836  135.3830  157.9052 H   0  0  0  0  0  0  0  0  0  0  0  0
  153.1969  137.6517  157.9713 H   0  0  0  0  0  0  0  0  0  0  0  0
  153.4981  136.3482  156.8049 H   0  0  0  0  0  0  0  0  0  0  0  0
  150.4791  138.3205  153.7194 H   0  0  0  0  0  0  0  0  0  0  0  0
  149.7962  139.4228  157.0742 H   0  0  0  0  0  0  0  0  0  0  0  0
  148.9273  142.0251  156.4739 H   0  0  0  0  0  0  0  0  0  0  0  0
  149.5329  141.4910  158.0251 H   0  0  0  0  0  0  0  0  0  0  0  0
  151.9178  141.6917  156.6425 H   0  0  0  0  0  0  0  0  0  0  0  0
  150.9877  142.8913  155.7809 H   0  0  0  0  0  0  0  0  0  0  0  0
  152.7341  142.1213  158.9482 H   0  0  0  0  0  0  0  0  0  0  0  0
  153.0872  143.8402  160.7275 H   0  0  0  0  0  0  0  0  0  0  0  0
  151.8541  146.0153  160.5943 H   0  0  0  0  0  0  0  0  0  0  0  0
  150.2669  146.3925  158.6167 H   0  0  0  0  0  0  0  0  0  0  0  0
  147.9431  138.4007  154.8759 H   0  0  0  0  0  0  0  0  0  0  0  0
  148.6438  136.9759  154.1223 H   0  0  0  0  0  0  0  0  0  0  0  0
  150.0345  144.7172  157.0370 H   0  0  0  0  0  0  0  0  0  0  0  0
  1  2  1  0  0  0  0
  1 22  1  0  0  0  0
  1 23  1  0  0  0  0
  1 24  1  0  0  0  0
  2  7  1  0  0  0  0
  2 21  1  0  0  0  0
  2  3  1  0  0  0  0
  3  4  1  0  0  0  0
  3 25  1  0  0  0  0
  3 26  1  0  0  0  0
  4  5  1  0  0  0  0
  4 27  1  0  0  0  0
  4 28  1  0  0  0  0
  5  6  2  0  0  0  0
  5  7  1  0  0  0  0
  7  8  1  0  0  0  0
  8  9  1  0  0  0  0
  8 20  1  0  0  0  0
  8 29  1  0  0  0  0
  9 10  2  0  0  0  0
  9 11  1  0  0  0  0
 11 12  1  0  0  0  0
 11 30  1  0  0  0  0
 12 13  1  0  0  0  0
 12 31  1  0  0  0  0
 12 32  1  0  0  0  0
 13 14  1  0  0  0  0
 13 33  1  0  0  0  0
 13 34  1  0  0  0  0
 14 19  1  0  0  0  0
 14 15  2  0  0  0  0
 15 16  1  0  0  0  0
 15 35  1  0  0  0  0
 16 17  2  0  0  0  0
 16 36  1  0  0  0  0
 17 18  1  0  0  0  0
 17 37  1  0  0  0  0
 18 19  2  0  0  0  0
 18 38  1  0  0  0  0
 19 41  1  0  0  0  0
 20 21  1  0  0  0  0
 20 39  1  0  0  0  0
 20 40  1  0  0  0  0
M  CHG  1  19   1
M  END
> <s_m_source_file>
AV-unprocessed.smi

> <i_m_source_file_index>
3057

> <i_lp_mmshare_version>
43012

> <i_f3d_flags>
0

> <s_epik_input>
W0NIMl0xW0NIMl1DKD1PKU4oW0NAQF0xMltDSDNdKVtDQEhdKFtDSDJdUzIpQyg9TylbTkhdW0NIMl1bQ0gyXWMzW2NIXVtjSF1bY0hdW2NIXW4z

> <s_epik_cmdline>
J2VwaWtfcHl0aG9uJywgJy1waCcsICc3LjAnLCAnLXRuJywgJzgnLCAnLW1hJywgJzIwMCcsICctbWV0YWxfYmluZGluZycsICctaW1hZScsICc8aW5maWxlLm1hZT4nLCAnLW9tYWUnLCAnPG91dGZpbGUubWFlPic=

> <r_epik_Ionization_Penalty>
1.8888

> <r_epik_Ionization_Penalty_Charging>
1.8888

> <r_epik_Ionization_Penalty_Neutral>
1.66252e-07

> <r_epik_State_Penalty>
2.00916

> <r_epik_Charging_Adjusted_Penalty>
3.89796

> <i_epik_Tot_Q>
1

> <i_epik_Tot_abs_Q>
1

> <r_epik_Metal_State_Penalty>
2.03343

> <b_epik_Metal_Only>
0

> <s_lp_Force_Field>
OPLS_2005

> <r_lp_Energy>
30.9082

> <b_lp_Chiralities_Consistent>
1

> <s_lp_Variant>
AV-unprocessed.smi:3057-7

> <Gold.Version>
5.8.1

> <Gold.Id.Protein>
6NUR|6NUR_protein|mol2

> <Gold.PLP.Fitness>
47.4277

> <Gold.PLP.PLP>
-37.8415

> <Gold.PLP.part.hbond>
-3.2396

> <Gold.PLP.part.metal>
0.0000

> <Gold.PLP.part.buried>
-3.2054

> <Gold.PLP.part.nonpolar>
-31.7560

> <Gold.PLP.part.repulsive>
0.2851

> <Gold.PLP.ligand.clash>
0.0000

> <Gold.PLP.ligand.torsion>
0.6634

> <Gold.PLP.Chemscore.Hbond>
3.6325

> <Gold.PLP.Chemscore.CHOScore>
0.0000

> <Gold.PLP.Chemscore.Metal>
0.0000

> <Gold.Chemscore.Hbonds>
donor molecule, donor type, donor heavy atom, donor atom, acceptor molecule, acceptor atom, score
      L1  H    19    41       P1  8028  2.00
      P1  H  7989  7998       L1    10  0.72
      P1  H  7997  8010       L1     6  1.00

> <Gold.PLP.Chemscore.Internal.Correction>
0.0154

> <Gold.Rescore>
     Score         DG    S(hbond)    S(metal)    S(lipo)     H(rot)  DE(clash)    DE(int)     intcor
     20.17     -21.01       2.40        0.00      99.80       1.62       0.29       0.54       ----

> <Gold.Chemscore.Fitness>
20.1735

> <Gold.Chemscore.DG>
-21.0106

> <Gold.Chemscore.ZeroCoef>
-5.4800

> <Gold.Chemscore.Hbond>
2.3981

> <Gold.Chemscore.Metal>
0.0000

> <Gold.Chemscore.Lipo>
99.8016

> <Gold.Chemscore.Internal_Hbond>
0.0000

> <Gold.Chemscore.DEClash>
0.2929

> <Gold.Chemscore.DEInternal>
0.5442

> <Gold.Chemscore.Rot>
1.6234

> <Gold.Chemscore.Internal.Correction>
   9.000000E+99

> <Gold.Chemscore.Hbonds>
donor molecule, donor type, donor heavy atom, donor atom, acceptor molecule, acceptor atom, score
      L1  H    19    41       P1  8028  0.35
      P1  H  7989  7998       L1    10  0.69
      P1  H  7997  8010       L1     6  0.97

> <Gold.Chemscore.Hbond.Weighted>
-8.0096

> <Gold.Chemscore.Metal.Weighted>
-0.0000

> <Gold.Chemscore.Lipo.Weighted>
-11.6768

> <Gold.Chemscore.Internal_Hbond.Weighted>
0.0000

> <Gold.Chemscore.DEClash.Weighted>
0.2929

> <Gold.Chemscore.DEInternal.Weighted>
0.5442

> <Gold.Chemscore.Rot.Weighted>
4.1558

> <Gold.Chemscore.Internal.Correction.Weighted>
   9.000000E+99

> <Gold.Protein.RotatedTorsions>
[ 6907 6896 6895 6894 ] final  152.78 input  -60.11 | X-H torsion
[ 7974 7965 7964 7962 ] final   -0.16 input  175.53 | X-H torsion
[ 8008 7997 7996 7995 ] final  101.31 input   59.86 | X-H torsion
[ 10167 10162 10161 10158 ] final  158.00 input  -65.29 | X-H torsion
[ 10718 10713 10712 10709 ] final  103.46 input   66.30 | X-H torsion
[ 10763 10752 10751 10750 ] final   26.60 input  -60.55 | X-H torsion
[ 11005 11000 10999 10996 ] final  -75.97 input  -57.11 | X-H torsion

> <Gold.Protein.ActiveResidues>
 VAL166  LYS551  ARG553  GLY616  TRP617  ASP618  TYR619  PRO620  LYS621  CYS622 
 ASP623  PHE694  ASN695  SER759  ASP760  ASP761  ALA762  ILE779  LEU786  VAL792 
 PHE793  MET794  SER795  GLU796  ALA797  LYS798  CYS799  TRP800  GLU811  SER814 

> <Gold.Protein.RotatedAtoms>
  152.0819  133.4157  159.4504 H   0  0  0  0  0  0  0  0  0  0  0  0  # atno 6907 bound_to 6896
  150.6862  134.2972  159.4700 H   0  0  0  0  0  0  0  0  0  0  0  0  # atno 6908 bound_to 6896
  152.0815  134.9468  160.0624 H   0  0  0  0  0  0  0  0  0  0  0  0  # atno 6909 bound_to 6896
  146.2429  140.1228  142.8340 H   0  0  0  0  0  0  0  0  0  0  0  0  # atno 7974 bound_to 7965
  156.1287  140.3199  155.8316 H   0  0  0  0  0  0  0  0  0  0  0  0  # atno 8008 bound_to 7997
  155.4372  140.0523  157.3030 H   0  0  0  0  0  0  0  0  0  0  0  0  # atno 8009 bound_to 7997
  154.4882  140.2081  155.9620 H   0  0  0  0  0  0  0  0  0  0  0  0  # atno 8010 bound_to 7997
  139.4825  144.4865  151.8370 H   0  0  0  0  0  0  0  0  0  0  0  0  # atno 10167 bound_to 10162
  157.6772  131.0779  150.5558 H   0  0  0  0  0  0  0  0  0  0  0  0  # atno 10718 bound_to 10713
  153.0612  135.6556  154.0459 H   0  0  0  0  0  0  0  0  0  0  0  0  # atno 10763 bound_to 10752
  154.0126  135.2927  155.3392 H   0  0  0  0  0  0  0  0  0  0  0  0  # atno 10764 bound_to 10752
  154.6951  135.5267  153.8514 H   0  0  0  0  0  0  0  0  0  0  0  0  # atno 10765 bound_to 10752
  141.1650  133.6966  156.7597 H   0  0  0  0  0  0  0  0  0  0  0  0  # atno 11005 bound_to 11000
  145.0392  140.8932  143.5063 LP  0  0  0  0  0  0  0  0  0  0  0  0  # atno 17320 bound_to 7965
  145.1306  139.2634  143.5541 LP  0  0  0  0  0  0  0  0  0  0  0  0  # atno 17321 bound_to 7965
  140.4345  144.2070  150.5889 LP  0  0  0  0  0  0  0  0  0  0  0  0  # atno 17342 bound_to 10162
  140.4746  143.2401  151.9042 LP  0  0  0  0  0  0  0  0  0  0  0  0  # atno 17343 bound_to 10162
  156.5862  130.4317  149.5956 LP  0  0  0  0  0  0  0  0  0  0  0  0  # atno 17370 bound_to 10713
  156.2621  130.6968  151.1740 LP  0  0  0  0  0  0  0  0  0  0  0  0  # atno 17371 bound_to 10713
  140.2543  134.8516  157.3697 LP  0  0  0  0  0  0  0  0  0  0  0  0  # atno 17394 bound_to 11000
  140.1672  134.4654  155.7855 LP  0  0  0  0  0  0  0  0  0  0  0  0  # atno 17395 bound_to 11000

$$$$
