AV-unprocessed.smi:2895|AV-procd|sdf|11129|dock9
  -GOLD-   2272016 03D 1   1.00000     0.00000
 Structure written by MMmdl.
 53 56  0  0  0  0  0  0  0  0  2 V2000
  150.7438  137.7866  154.3419 O   0  0  0  0  0  0  0  0  0  0  0  0
  150.2892  138.0769  155.4498 C   0  0  0  0  0  0  0  0  0  0  0  0
  149.9592  137.1317  156.3483 N   0  0  0  0  0  0  0  0  0  0  0  0
  150.0851  135.6930  156.1446 C   0  0  0  0  0  0  0  0  0  0  0  0
  149.4875  135.2606  154.7967 C   0  0  0  0  0  0  0  0  0  0  0  0
  149.6098  133.7662  154.5723 C   0  0  0  0  0  0  0  0  0  0  0  0
  150.3262  132.9574  155.4783 C   0  0  0  0  0  0  0  0  0  0  0  0
  150.4064  131.5735  155.2240 C   0  0  0  0  0  0  0  0  0  0  0  0
  149.8301  130.9804  154.1561 N   0  0  0  0  0  0  0  0  0  0  0  0
  149.1440  131.7614  153.2942 C   0  0  0  0  0  0  0  0  0  0  0  0
  149.0038  133.1546  153.4555 C   0  0  0  0  0  0  0  0  0  0  0  0
  150.1062  139.3589  155.8671 N   0  0  0  0  0  0  0  0  0  0  0  0
  149.5740  139.7042  157.2064 C   0  0  0  0  0  0  0  0  0  0  0  0
  148.9591  141.1107  157.3051 C   0  0  0  0  0  0  0  0  0  0  0  0
  149.8248  142.1485  156.7001 N   0  3  0  0  0  0  0  0  0  0  0  0
  151.1156  142.4101  157.4124 C   0  0  1  0  0  0  0  0  0  0  0  0
  151.7025  143.8069  157.0764 C   0  0  0  0  0  0  0  0  0  0  0  0
  151.9303  144.4458  158.4561 C   0  0  2  0  0  0  0  0  0  0  0  0
  153.0716  143.7166  159.1855 C   0  0  0  0  0  0  0  0  0  0  0  0
  152.4227  142.3732  159.5615 C   0  0  0  0  0  0  0  0  0  0  0  0
  151.0080  142.4932  158.9609 C   0  0  1  0  0  0  0  0  0  0  0  0
  150.7002  143.9649  159.2128 C   0  0  0  0  0  0  0  0  0  0  0  0
  149.9872  141.8362  155.2606 C   0  0  0  0  0  0  0  0  0  0  0  0
  150.6266  140.4547  155.0208 C   0  0  0  0  0  0  0  0  0  0  0  0
  149.6006  137.4330  157.2426 H   0  0  0  0  0  0  0  0  0  0  0  0
  151.1318  135.3914  156.2141 H   0  0  0  0  0  0  0  0  0  0  0  0
  149.5641  135.1912  156.9605 H   0  0  0  0  0  0  0  0  0  0  0  0
  148.4342  135.5399  154.7467 H   0  0  0  0  0  0  0  0  0  0  0  0
  149.9832  135.7832  153.9774 H   0  0  0  0  0  0  0  0  0  0  0  0
  150.8032  133.3838  156.3485 H   0  0  0  0  0  0  0  0  0  0  0  0
  150.9481  130.9252  155.8968 H   0  0  0  0  0  0  0  0  0  0  0  0
  148.6924  131.2613  152.4502 H   0  0  0  0  0  0  0  0  0  0  0  0
  148.4429  133.7360  152.7386 H   0  0  0  0  0  0  0  0  0  0  0  0
  148.7996  139.0043  157.5236 H   0  0  0  0  0  0  0  0  0  0  0  0
  150.3872  139.6085  157.9271 H   0  0  0  0  0  0  0  0  0  0  0  0
  148.0085  141.1140  156.7698 H   0  0  0  0  0  0  0  0  0  0  0  0
  148.6917  141.3448  158.3330 H   0  0  0  0  0  0  0  0  0  0  0  0
  151.8291  141.6309  157.1425 H   0  0  0  0  0  0  0  0  0  0  0  0
  152.6201  143.7421  156.4903 H   0  0  0  0  0  0  0  0  0  0  0  0
  150.9972  144.4235  156.5179 H   0  0  0  0  0  0  0  0  0  0  0  0
  152.0548  145.5285  158.4204 H   0  0  0  0  0  0  0  0  0  0  0  0
  153.9530  143.5929  158.5550 H   0  0  0  0  0  0  0  0  0  0  0  0
  153.3732  144.2610  160.0815 H   0  0  0  0  0  0  0  0  0  0  0  0
  152.9749  141.5179  159.1702 H   0  0  0  0  0  0  0  0  0  0  0  0
  152.3726  142.2656  160.6458 H   0  0  0  0  0  0  0  0  0  0  0  0
  150.3181  141.7981  159.4335 H   0  0  0  0  0  0  0  0  0  0  0  0
  150.7105  144.2349  160.2702 H   0  0  0  0  0  0  0  0  0  0  0  0
  149.7596  144.2941  158.7681 H   0  0  0  0  0  0  0  0  0  0  0  0
  148.9996  141.8540  154.7973 H   0  0  0  0  0  0  0  0  0  0  0  0
  150.5596  142.6060  154.7442 H   0  0  0  0  0  0  0  0  0  0  0  0
  151.7018  140.5203  155.1929 H   0  0  0  0  0  0  0  0  0  0  0  0
  150.5081  140.2247  153.9605 H   0  0  0  0  0  0  0  0  0  0  0  0
  149.3057  143.0137  156.7492 H   0  0  0  0  0  0  0  0  0  0  0  0
  1  2  2  0  0  0  0
  2  3  1  0  0  0  0
  2 12  1  0  0  0  0
  3  4  1  0  0  0  0
  3 25  1  0  0  0  0
  4  5  1  0  0  0  0
  4 26  1  0  0  0  0
  4 27  1  0  0  0  0
  5  6  1  0  0  0  0
  5 28  1  0  0  0  0
  5 29  1  0  0  0  0
  6 11  1  0  0  0  0
  6  7  2  0  0  0  0
  7  8  1  0  0  0  0
  7 30  1  0  0  0  0
  8  9  2  0  0  0  0
  8 31  1  0  0  0  0
  9 10  1  0  0  0  0
 10 11  2  0  0  0  0
 10 32  1  0  0  0  0
 11 33  1  0  0  0  0
 12 24  1  0  0  0  0
 12 13  1  0  0  0  0
 13 14  1  0  0  0  0
 13 34  1  0  0  0  0
 13 35  1  0  0  0  0
 14 15  1  0  0  0  0
 14 36  1  0  0  0  0
 14 37  1  0  0  0  0
 15 16  1  0  0  0  0
 15 23  1  0  0  0  0
 15 53  1  0  0  0  0
 16 21  1  0  0  0  0
 16 17  1  0  0  0  0
 16 38  1  0  0  0  0
 17 18  1  0  0  0  0
 17 39  1  0  0  0  0
 17 40  1  0  0  0  0
 18 22  1  0  0  0  0
 18 19  1  0  0  0  0
 18 41  1  0  0  0  0
 19 20  1  0  0  0  0
 19 42  1  0  0  0  0
 19 43  1  0  0  0  0
 20 21  1  0  0  0  0
 20 44  1  0  0  0  0
 20 45  1  0  0  0  0
 21 22  1  0  0  0  0
 21 46  1  0  0  0  0
 22 47  1  0  0  0  0
 22 48  1  0  0  0  0
 23 24  1  0  0  0  0
 23 49  1  0  0  0  0
 23 50  1  0  0  0  0
 24 51  1  0  0  0  0
 24 52  1  0  0  0  0
M  CHG  1  15   1
M  END
> <s_m_source_file>
AV-unprocessed.smi

> <i_m_source_file_index>
2895

> <i_lp_mmshare_version>
43012

> <i_f3d_flags>
0

> <s_epik_input>
W0NIMl0xW0NIMl1bQ0BASF0oW0NIMl0yKVtDQEBIXShbQ0gyXVtDQEhdMTIpTihbQ0gyXVtDSDJdMylbQ0gyXVtDSDJdTjNDKD1PKVtOSF1bQ0gyXVtDSDJdYzRbY0hdW2NIXW5bY0hdW2NIXTQ=

> <s_epik_cmdline>
J2VwaWtfcHl0aG9uJywgJy1waCcsICc3LjAnLCAnLXRuJywgJzgnLCAnLW1hJywgJzIwMCcsICctbWV0YWxfYmluZGluZycsICctaW1hZScsICc8aW5maWxlLm1hZT4nLCAnLW9tYWUnLCAnPG91dGZpbGUubWFlPic=

> <r_epik_Ionization_Penalty>
0.0566172

> <r_epik_Ionization_Penalty_Charging>
0.00262064

> <r_epik_Ionization_Penalty_Neutral>
0.0539965

> <r_epik_State_Penalty>
0.0463959

> <r_epik_Charging_Adjusted_Penalty>
0.0490165

> <i_epik_Tot_Q>
1

> <i_epik_Tot_abs_Q>
1

> <r_epik_Metal_State_Penalty>
0.0424856

> <b_epik_Metal_Only>
0

> <s_lp_Force_Field>
OPLS_2005

> <r_lp_Energy>
101.263

> <b_lp_Chiralities_Consistent>
1

> <s_lp_Variant>
AV-unprocessed.smi:2895-2

> <Gold.Version>
5.8.1

> <Gold.Id.Protein>
6NUR|6NUR_protein|mol2

> <Gold.PLP.Fitness>
49.5668

> <Gold.PLP.PLP>
-42.4804

> <Gold.PLP.part.hbond>
-1.0000

> <Gold.PLP.part.metal>
0.0000

> <Gold.PLP.part.buried>
-1.9219

> <Gold.PLP.part.nonpolar>
-38.8210

> <Gold.PLP.part.repulsive>
0.3028

> <Gold.PLP.ligand.clash>
0.3943

> <Gold.PLP.ligand.torsion>
0.3702

> <Gold.PLP.Chemscore.Hbond>
1.6960

> <Gold.PLP.Chemscore.CHOScore>
1.0000

> <Gold.PLP.Chemscore.Metal>
0.0000

> <Gold.Chemscore.Hbonds>
donor molecule, donor type, donor heavy atom, donor atom, acceptor molecule, acceptor atom, score
      L1  H    15    53       P1  8028  1.54
      L1  C    10    32       P1 10747  1.00

> <Gold.PLP.Chemscore.Internal.Correction>
0.1330

> <Gold.Rescore>
     Score         DG    S(hbond)    S(metal)    S(lipo)     H(rot)  DE(clash)    DE(int)     intcor
     17.07     -20.69       0.84        0.00     136.06       1.37       1.61       2.00       ----

> <Gold.Chemscore.Fitness>
17.0713

> <Gold.Chemscore.DG>
-20.6878

> <Gold.Chemscore.ZeroCoef>
-5.4800

> <Gold.Chemscore.Hbond>
0.8394

> <Gold.Chemscore.Metal>
0.0000

> <Gold.Chemscore.Lipo>
136.0618

> <Gold.Chemscore.Internal_Hbond>
0.0000

> <Gold.Chemscore.DEClash>
1.6133

> <Gold.Chemscore.DEInternal>
2.0032

> <Gold.Chemscore.Rot>
1.3731

> <Gold.Chemscore.Internal.Correction>
   9.000000E+99

> <Gold.Chemscore.Hbonds>
donor molecule, donor type, donor heavy atom, donor atom, acceptor molecule, acceptor atom, score
      L1  H    15    53       P1  8028  0.73

> <Gold.Chemscore.Hbond.Weighted>
-2.8037

> <Gold.Chemscore.Metal.Weighted>
-0.0000

> <Gold.Chemscore.Lipo.Weighted>
-15.9192

> <Gold.Chemscore.Internal_Hbond.Weighted>
0.0000

> <Gold.Chemscore.DEClash.Weighted>
1.6133

> <Gold.Chemscore.DEInternal.Weighted>
2.0032

> <Gold.Chemscore.Rot.Weighted>
3.5152

> <Gold.Chemscore.Internal.Correction.Weighted>
   9.000000E+99

> <Gold.Protein.RotatedTorsions>
[ 6907 6896 6895 6894 ] final -167.68 input  -60.11 | X-H torsion
[ 7974 7965 7964 7962 ] final  171.55 input  175.53 | X-H torsion
[ 8008 7997 7996 7995 ] final -113.18 input   59.86 | X-H torsion
[ 10167 10162 10161 10158 ] final  117.36 input  -65.29 | X-H torsion
[ 10718 10713 10712 10709 ] final  154.12 input   66.30 | X-H torsion
[ 10763 10752 10751 10750 ] final  156.58 input  -60.55 | X-H torsion
[ 11005 11000 10999 10996 ] final   76.23 input  -57.11 | X-H torsion

> <Gold.Protein.ActiveResidues>
 VAL166  LYS551  ARG553  GLY616  TRP617  ASP618  TYR619  PRO620  LYS621  CYS622 
 ASP623  PHE694  ASN695  SER759  ASP760  ASP761  ALA762  ILE779  LEU786  VAL792 
 PHE793  MET794  SER795  GLU796  ALA797  LYS798  CYS799  TRP800  GLU811  SER814 

> <Gold.Protein.RotatedAtoms>
  151.4635  133.3587  159.2812 H   0  0  0  0  0  0  0  0  0  0  0  0  # atno 6907 bound_to 6896
  150.9009  134.8423  159.7370 H   0  0  0  0  0  0  0  0  0  0  0  0  # atno 6908 bound_to 6896
  152.4879  134.4555  159.9640 H   0  0  0  0  0  0  0  0  0  0  0  0  # atno 6909 bound_to 6896
  144.7292  139.9366  143.6427 H   0  0  0  0  0  0  0  0  0  0  0  0  # atno 7974 bound_to 7965
  155.0167  140.0393  157.2421 H   0  0  0  0  0  0  0  0  0  0  0  0  # atno 8008 bound_to 7997
  154.7413  140.2749  155.6347 H   0  0  0  0  0  0  0  0  0  0  0  0  # atno 8009 bound_to 7997
  156.2865  140.2665  156.2142 H   0  0  0  0  0  0  0  0  0  0  0  0  # atno 8010 bound_to 7997
  139.6184  144.7096  151.2689 H   0  0  0  0  0  0  0  0  0  0  0  0  # atno 10167 bound_to 10162
  157.2358  131.0749  151.1824 H   0  0  0  0  0  0  0  0  0  0  0  0  # atno 10718 bound_to 10713
  154.1865  135.2797  155.3035 H   0  0  0  0  0  0  0  0  0  0  0  0  # atno 10763 bound_to 10752
  154.5962  135.5544  153.7331 H   0  0  0  0  0  0  0  0  0  0  0  0  # atno 10764 bound_to 10752
  153.0124  135.6380  154.2004 H   0  0  0  0  0  0  0  0  0  0  0  0  # atno 10765 bound_to 10752
  139.9308  134.7583  156.1369 H   0  0  0  0  0  0  0  0  0  0  0  0  # atno 11005 bound_to 11000
  146.0816  139.3804  143.0460 LP  0  0  0  0  0  0  0  0  0  0  0  0  # atno 17320 bound_to 7965
  145.7832  140.9847  143.1088 LP  0  0  0  0  0  0  0  0  0  0  0  0  # atno 17321 bound_to 7965
  140.7366  143.6703  150.8087 LP  0  0  0  0  0  0  0  0  0  0  0  0  # atno 17342 bound_to 10162
  140.0310  143.5444  152.2760 LP  0  0  0  0  0  0  0  0  0  0  0  0  # atno 17343 bound_to 10162
  157.3430  130.7043  149.6393 LP  0  0  0  0  0  0  0  0  0  0  0  0  # atno 17370 bound_to 10713
  155.9672  130.4274  150.4743 LP  0  0  0  0  0  0  0  0  0  0  0  0  # atno 17371 bound_to 10713
  141.0895  133.6720  156.2508 LP  0  0  0  0  0  0  0  0  0  0  0  0  # atno 17394 bound_to 11000
  140.6208  134.5363  157.5547 LP  0  0  0  0  0  0  0  0  0  0  0  0  # atno 17395 bound_to 11000

$$$$
