AV-unprocessed.smi:6|AV-procd|sdf|39|dock2
  -GOLD-   2262015153D 1   1.00000     0.00000
 Structure written by MMmdl.
 37 38  0  0  0  0  0  0  0  0  1 V2000
  151.9212  144.3046  161.0496 C   0  0  0  0  0  0  0  0  0  0  0  0
  152.6399  143.7038  159.8318 C   0  0  0  0  0  0  0  0  0  0  0  0
  152.3697  144.4760  158.5313 C   0  0  0  0  0  0  0  0  0  0  0  0
  152.3600  142.2140  159.6807 C   0  0  0  0  0  0  0  0  0  0  0  0
  152.7087  141.4209  160.7001 N   0  0  0  0  0  0  0  0  0  0  0  0
  152.4613  140.1011  160.5597 C   0  0  0  0  0  0  0  0  0  0  0  0
  151.8614  139.5771  159.3968 C   0  0  0  0  0  0  0  0  0  0  0  0
  151.5305  140.5029  158.3860 C   0  0  0  0  0  0  0  0  0  0  0  0
  150.9311  140.0469  157.2041 N   0  0  0  0  0  0  0  0  0  0  0  0
  150.8572  140.9283  156.0456 C   0  0  0  0  0  0  0  0  0  0  0  0
  149.8199  140.4847  155.0262 C   0  0  0  0  0  0  0  0  0  0  0  0
  148.9447  141.3603  154.4696 C   0  0  0  0  0  0  0  0  0  0  0  0
  148.0031  141.0012  153.5182 N   0  0  0  0  0  0  0  0  0  0  0  0
  147.0754  141.9335  152.9386 C   0  0  0  0  0  0  0  0  0  0  0  0
  147.9301  139.6652  153.0721 C   0  0  0  0  0  0  0  0  0  0  0  0
  147.1194  139.2802  152.2290 O   0  0  0  0  0  0  0  0  0  0  0  0
  148.8372  138.7680  153.6341 N   0  0  0  0  0  0  0  0  0  0  0  0
  149.8016  139.0810  154.5973 C   0  0  0  0  0  0  0  0  0  0  0  0
  150.5499  138.1983  155.0135 O   0  0  0  0  0  0  0  0  0  0  0  0
  151.7856  141.8241  158.5377 N   0  0  0  0  0  0  0  0  0  0  0  0
  148.7948  137.8101  153.3173 H   0  0  0  0  0  0  0  0  0  0  0  0
  152.1937  143.7766  161.9639 H   0  0  0  0  0  0  0  0  0  0  0  0
  150.8375  144.2475  160.9418 H   0  0  0  0  0  0  0  0  0  0  0  0
  152.1857  145.3538  161.1826 H   0  0  0  0  0  0  0  0  0  0  0  0
  153.7081  143.8107  160.0297 H   0  0  0  0  0  0  0  0  0  0  0  0
  152.9606  144.0734  157.7080 H   0  0  0  0  0  0  0  0  0  0  0  0
  152.6293  145.5292  158.6397 H   0  0  0  0  0  0  0  0  0  0  0  0
  151.3188  144.4213  158.2460 H   0  0  0  0  0  0  0  0  0  0  0  0
  152.7438  139.4584  161.3803 H   0  0  0  0  0  0  0  0  0  0  0  0
  151.6673  138.5200  159.2913 H   0  0  0  0  0  0  0  0  0  0  0  0
  150.2795  139.2778  157.2617 H   0  0  0  0  0  0  0  0  0  0  0  0
  150.6288  141.9388  156.3867 H   0  0  0  0  0  0  0  0  0  0  0  0
  151.8293  140.9739  155.5528 H   0  0  0  0  0  0  0  0  0  0  0  0
  148.9850  142.3924  154.7882 H   0  0  0  0  0  0  0  0  0  0  0  0
  146.0661  141.5819  153.1624 H   0  0  0  0  0  0  0  0  0  0  0  0
  147.2702  141.9704  151.8647 H   0  0  0  0  0  0  0  0  0  0  0  0
  147.2435  142.9124  153.3889 H   0  0  0  0  0  0  0  0  0  0  0  0
  1  2  1  0  0  0  0
  1 22  1  0  0  0  0
  1 23  1  0  0  0  0
  1 24  1  0  0  0  0
  2  3  1  0  0  0  0
  2  4  1  0  0  0  0
  2 25  1  0  0  0  0
  3 26  1  0  0  0  0
  3 27  1  0  0  0  0
  3 28  1  0  0  0  0
  4 20  1  0  0  0  0
  4  5  2  0  0  0  0
  5  6  1  0  0  0  0
  6  7  2  0  0  0  0
  6 29  1  0  0  0  0
  7  8  1  0  0  0  0
  7 30  1  0  0  0  0
  8  9  1  0  0  0  0
  8 20  2  0  0  0  0
  9 10  1  0  0  0  0
  9 31  1  0  0  0  0
 10 11  1  0  0  0  0
 10 32  1  0  0  0  0
 10 33  1  0  0  0  0
 11 18  1  0  0  0  0
 11 12  2  0  0  0  0
 12 13  1  0  0  0  0
 12 34  1  0  0  0  0
 13 14  1  0  0  0  0
 13 15  1  0  0  0  0
 14 35  1  0  0  0  0
 14 36  1  0  0  0  0
 14 37  1  0  0  0  0
 15 16  2  0  0  0  0
 15 17  1  0  0  0  0
 17 21  1  0  0  0  0
 17 18  1  0  0  0  0
 18 19  2  0  0  0  0
M  END
> <s_m_source_file>
AV-unprocessed.smi

> <i_m_source_file_index>
6

> <i_lp_mmshare_version>
43012

> <i_f3d_flags>
0

> <s_epik_input>
W0NIM11bQ0hdKFtDSDNdKWMxbltjSF1bY0hdYyhuMSlbTkhdW0NIMl1jMltjSF1uKFtDSDNdKWMoPU8pW25IXWMyPU8=

> <s_epik_cmdline>
J2VwaWtfcHl0aG9uJywgJy1waCcsICc3LjAnLCAnLXRuJywgJzgnLCAnLW1hJywgJzIwMCcsICctbWV0YWxfYmluZGluZycsICctaW1hZScsICc8aW5maWxlLm1hZT4nLCAnLW9tYWUnLCAnPG91dGZpbGUubWFlPic=

> <r_lp_tautomer_probability>
0.999537

> <r_epik_Ionization_Penalty>
0.308056

> <r_epik_Ionization_Penalty_Charging>
0.000755917

> <r_epik_Ionization_Penalty_Neutral>
0.3073

> <r_epik_State_Penalty>
0.300752

> <r_epik_Charging_Adjusted_Penalty>
0.301508

> <i_epik_Tot_Q>
0

> <i_epik_Tot_abs_Q>
0

> <r_epik_Metal_State_Penalty>
0.395738

> <b_epik_Metal_Only>
0

> <s_lp_Force_Field>
OPLS_2005

> <r_lp_Energy>
3.35028

> <b_lp_Chiralities_Consistent>
1

> <s_lp_Variant>
AV-unprocessed.smi:6-1

> <Gold.Version>
5.8.1

> <Gold.Id.Protein>
6NUR|6NUR_protein|mol2

> <Gold.PLP.Fitness>
47.5859

> <Gold.PLP.PLP>
-42.6459

> <Gold.PLP.part.hbond>
-1.8314

> <Gold.PLP.part.metal>
0.0000

> <Gold.PLP.part.buried>
-4.2511

> <Gold.PLP.part.nonpolar>
-37.5654

> <Gold.PLP.part.repulsive>
0.9012

> <Gold.PLP.ligand.clash>
0.0000

> <Gold.PLP.ligand.torsion>
0.3684

> <Gold.PLP.Chemscore.Hbond>
0.8613

> <Gold.PLP.Chemscore.CHOScore>
1.0000

> <Gold.PLP.Chemscore.Metal>
0.0000

> <Gold.Chemscore.Hbonds>
donor molecule, donor type, donor heavy atom, donor atom, acceptor molecule, acceptor atom, score
      L1  H    17    21       P1  7948  0.75
      L1  C    12    34       P1  8028  1.00

> <Gold.PLP.Chemscore.Internal.Correction>
0.0931

> <Gold.Rescore>
     Score         DG    S(hbond)    S(metal)    S(lipo)     H(rot)  DE(clash)    DE(int)     intcor
     11.54     -13.96       0.97        0.00      80.88       1.65       0.39       2.03       ----

> <Gold.Chemscore.Fitness>
11.5360

> <Gold.Chemscore.DG>
-13.9557

> <Gold.Chemscore.ZeroCoef>
-5.4800

> <Gold.Chemscore.Hbond>
0.9700

> <Gold.Chemscore.Metal>
0.0000

> <Gold.Chemscore.Lipo>
80.8834

> <Gold.Chemscore.Internal_Hbond>
0.0000

> <Gold.Chemscore.DEClash>
0.3893

> <Gold.Chemscore.DEInternal>
2.0304

> <Gold.Chemscore.Rot>
1.6514

> <Gold.Chemscore.Internal.Correction>
   9.000000E+99

> <Gold.Chemscore.Hbonds>
donor molecule, donor type, donor heavy atom, donor atom, acceptor molecule, acceptor atom, score
      L1  H    17    21       P1  7948  0.71

> <Gold.Chemscore.Hbond.Weighted>
-3.2398

> <Gold.Chemscore.Metal.Weighted>
-0.0000

> <Gold.Chemscore.Lipo.Weighted>
-9.4634

> <Gold.Chemscore.Internal_Hbond.Weighted>
0.0000

> <Gold.Chemscore.DEClash.Weighted>
0.3893

> <Gold.Chemscore.DEInternal.Weighted>
2.0304

> <Gold.Chemscore.Rot.Weighted>
4.2275

> <Gold.Chemscore.Internal.Correction.Weighted>
   9.000000E+99

> <Gold.Protein.RotatedTorsions>
[ 6907 6896 6895 6894 ] final  132.44 input  -60.11 | X-H torsion
[ 7974 7965 7964 7962 ] final -157.98 input  175.53 | X-H torsion
[ 8008 7997 7996 7995 ] final  139.85 input   59.86 | X-H torsion
[ 10167 10162 10161 10158 ] final   20.83 input  -65.29 | X-H torsion
[ 10718 10713 10712 10709 ] final   91.75 input   66.30 | X-H torsion
[ 10763 10752 10751 10750 ] final  158.41 input  -60.55 | X-H torsion
[ 11005 11000 10999 10996 ] final   20.10 input  -57.11 | X-H torsion

> <Gold.Protein.ActiveResidues>
 VAL166  LYS551  ARG553  GLY616  TRP617  ASP618  TYR619  PRO620  LYS621  CYS622 
 ASP623  PHE694  ASN695  SER759  ASP760  ASP761  ALA762  ILE779  LEU786  VAL792 
 PHE793  MET794  SER795  GLU796  ALA797  LYS798  CYS799  TRP800  GLU811  SER814 

> <Gold.Protein.RotatedAtoms>
  152.3323  133.5972  159.5818 H   0  0  0  0  0  0  0  0  0  0  0  0  # atno 6907 bound_to 6896
  150.7430  133.9848  159.3597 H   0  0  0  0  0  0  0  0  0  0  0  0  # atno 6908 bound_to 6896
  151.7722  135.0784  160.0412 H   0  0  0  0  0  0  0  0  0  0  0  0  # atno 6909 bound_to 6896
  144.7525  140.3893  143.6037 H   0  0  0  0  0  0  0  0  0  0  0  0  # atno 7974 bound_to 7965
  156.2985  140.2357  156.4305 H   0  0  0  0  0  0  0  0  0  0  0  0  # atno 8008 bound_to 7997
  154.8274  140.0434  157.1474 H   0  0  0  0  0  0  0  0  0  0  0  0  # atno 8009 bound_to 7997
  154.9246  140.3008  155.5202 H   0  0  0  0  0  0  0  0  0  0  0  0  # atno 8010 bound_to 7997
  140.5473  143.9571  150.6556 H   0  0  0  0  0  0  0  0  0  0  0  0  # atno 10167 bound_to 10162
  157.6960  131.0419  150.3778 H   0  0  0  0  0  0  0  0  0  0  0  0  # atno 10718 bound_to 10713
  154.2156  135.2784  155.2943 H   0  0  0  0  0  0  0  0  0  0  0  0  # atno 10763 bound_to 10752
  154.5743  135.5609  153.7128 H   0  0  0  0  0  0  0  0  0  0  0  0  # atno 10764 bound_to 10752
  153.0054  135.6329  154.2295 H   0  0  0  0  0  0  0  0  0  0  0  0  # atno 10765 bound_to 10752
  140.4063  134.1665  155.7665 H   0  0  0  0  0  0  0  0  0  0  0  0  # atno 11005 bound_to 11000
  145.6894  139.1636  143.2655 LP  0  0  0  0  0  0  0  0  0  0  0  0  # atno 17320 bound_to 7965
  146.1494  140.6947  142.9329 LP  0  0  0  0  0  0  0  0  0  0  0  0  # atno 17321 bound_to 7965
  140.2988  143.3275  152.0992 LP  0  0  0  0  0  0  0  0  0  0  0  0  # atno 17342 bound_to 10162
  139.5013  144.6710  151.6243 LP  0  0  0  0  0  0  0  0  0  0  0  0  # atno 17343 bound_to 10162
  156.4195  130.3950  149.6835 LP  0  0  0  0  0  0  0  0  0  0  0  0  # atno 17370 bound_to 10713
  156.4091  130.7713  151.2725 LP  0  0  0  0  0  0  0  0  0  0  0  0  # atno 17371 bound_to 10713
  141.1838  133.8357  157.1163 LP  0  0  0  0  0  0  0  0  0  0  0  0  # atno 17394 bound_to 11000
  140.0299  134.9906  157.0760 LP  0  0  0  0  0  0  0  0  0  0  0  0  # atno 17395 bound_to 11000

$$$$
