AV-unprocessed.smi:2509|AV-procd|sdf|9866|dock10
  -GOLD-   2272013493D 1   1.00000     0.00000
 Structure written by MMmdl.
 45 46  0  0  0  0  0  0  0  0  1 V2000
  152.0515  145.9483  159.3538 C   0  0  0  0  0  0  0  0  0  0  0  0
  151.6468  144.4628  159.2065 C   0  0  0  0  0  0  0  0  0  0  0  0
  150.2111  144.2637  159.7255 C   0  0  0  0  0  0  0  0  0  0  0  0
  151.6944  144.1549  157.6909 C   0  0  0  0  0  0  0  0  0  0  0  0
  152.6057  143.5491  159.9897 C   0  0  0  0  0  0  0  0  0  0  0  0
  152.7160  143.7697  161.3065 N   0  0  0  0  0  0  0  0  0  0  0  0
  153.4517  142.8984  162.0282 C   0  0  0  0  0  0  0  0  0  0  0  0
  154.0690  141.7769  161.4400 C   0  0  0  0  0  0  0  0  0  0  0  0
  154.8134  140.8874  162.2592 N   0  0  0  0  0  0  0  0  0  0  0  0
  155.1657  139.6175  161.9971 C   0  0  0  0  0  0  0  0  0  0  0  0
  154.9249  139.0163  160.9506 O   0  0  0  0  0  0  0  0  0  0  0  0
  155.8453  139.0832  163.0217 N   0  0  0  0  0  0  0  0  0  0  0  0
  156.4021  137.7340  163.0585 C   0  0  0  0  0  0  0  0  0  0  0  0
  155.3303  136.6856  163.4141 C   0  0  2  0  0  0  0  0  0  0  0  0
  154.7737  136.8021  164.8422 C   0  0  0  0  0  0  0  0  0  0  0  0
  154.3261  135.3897  165.2510 C   0  0  0  0  0  0  0  0  0  0  0  0
  154.7823  134.4501  164.1281 C   0  0  0  0  0  0  0  0  0  0  0  0
  155.8361  135.2410  163.3512 C   0  0  1  0  0  0  0  0  0  0  0  0
  155.9614  134.7721  162.0245 O   0  0  0  0  0  0  0  0  0  0  0  0
  153.8466  141.6092  160.0527 C   0  0  0  0  0  0  0  0  0  0  0  0
  153.1049  142.4868  159.3439 N   0  0  0  0  0  0  0  0  0  0  0  0
  151.4047  146.5968  158.7619 H   0  0  0  0  0  0  0  0  0  0  0  0
  153.0765  146.1155  159.0203 H   0  0  0  0  0  0  0  0  0  0  0  0
  151.9791  146.2912  160.3865 H   0  0  0  0  0  0  0  0  0  0  0  0
  150.1359  144.5099  160.7852 H   0  0  0  0  0  0  0  0  0  0  0  0
  149.8866  143.2297  159.6049 H   0  0  0  0  0  0  0  0  0  0  0  0
  149.5028  144.8963  159.1896 H   0  0  0  0  0  0  0  0  0  0  0  0
  151.0515  144.8322  157.1276 H   0  0  0  0  0  0  0  0  0  0  0  0
  151.3544  143.1426  157.4688 H   0  0  0  0  0  0  0  0  0  0  0  0
  152.7055  144.2586  157.2954 H   0  0  0  0  0  0  0  0  0  0  0  0
  153.5436  143.0988  163.0857 H   0  0  0  0  0  0  0  0  0  0  0  0
  155.1569  141.2774  163.1247 H   0  0  0  0  0  0  0  0  0  0  0  0
  155.9979  139.6567  163.8384 H   0  0  0  0  0  0  0  0  0  0  0  0
  156.8093  137.5189  162.0704 H   0  0  0  0  0  0  0  0  0  0  0  0
  157.2429  137.6717  163.7516 H   0  0  0  0  0  0  0  0  0  0  0  0
  154.4931  136.7858  162.7205 H   0  0  0  0  0  0  0  0  0  0  0  0
  155.5556  137.1389  165.5240 H   0  0  0  0  0  0  0  0  0  0  0  0
  153.9589  137.5242  164.9021 H   0  0  0  0  0  0  0  0  0  0  0  0
  154.7896  135.1108  166.1978 H   0  0  0  0  0  0  0  0  0  0  0  0
  153.2457  135.3342  165.3886 H   0  0  0  0  0  0  0  0  0  0  0  0
  155.1649  133.5006  164.5035 H   0  0  0  0  0  0  0  0  0  0  0  0
  153.9306  134.2289  163.4827 H   0  0  0  0  0  0  0  0  0  0  0  0
  156.8001  135.1599  163.8556 H   0  0  0  0  0  0  0  0  0  0  0  0
  156.3691  133.9199  162.0433 H   0  0  0  0  0  0  0  0  0  0  0  0
  154.2277  140.7656  159.4984 H   0  0  0  0  0  0  0  0  0  0  0  0
  1  2  1  0  0  0  0
  1 22  1  0  0  0  0
  1 23  1  0  0  0  0
  1 24  1  0  0  0  0
  2  3  1  0  0  0  0
  2  4  1  0  0  0  0
  2  5  1  0  0  0  0
  3 25  1  0  0  0  0
  3 26  1  0  0  0  0
  3 27  1  0  0  0  0
  4 28  1  0  0  0  0
  4 29  1  0  0  0  0
  4 30  1  0  0  0  0
  5 21  1  0  0  0  0
  5  6  2  0  0  0  0
  6  7  1  0  0  0  0
  7  8  2  0  0  0  0
  7 31  1  0  0  0  0
  8  9  1  0  0  0  0
  8 20  1  0  0  0  0
  9 10  1  0  0  0  0
  9 32  1  0  0  0  0
 10 11  2  0  0  0  0
 10 12  1  0  0  0  0
 12 13  1  0  0  0  0
 12 33  1  0  0  0  0
 13 14  1  0  0  0  0
 13 34  1  0  0  0  0
 13 35  1  0  0  0  0
 14 18  1  0  0  0  0
 14 15  1  0  0  0  0
 14 36  1  0  0  0  0
 15 16  1  0  0  0  0
 15 37  1  0  0  0  0
 15 38  1  0  0  0  0
 16 17  1  0  0  0  0
 16 39  1  0  0  0  0
 16 40  1  0  0  0  0
 17 18  1  0  0  0  0
 17 41  1  0  0  0  0
 17 42  1  0  0  0  0
 18 19  1  0  0  0  0
 18 43  1  0  0  0  0
 19 44  1  0  0  0  0
 20 21  2  0  0  0  0
 20 45  1  0  0  0  0
M  END
> <s_m_source_file>
AV-unprocessed.smi

> <i_m_source_file_index>
2509

> <i_lp_mmshare_version>
43012

> <i_f3d_flags>
0

> <s_epik_input>
W0NIM11DKFtDSDNdKShbQ0gzXSljMW5bY0hdYyhbY0hdbjEpW05IXUMoPU8pW05IXVtDSDJdW0NAQEhdMltDSDJdW0NIMl1bQ0gyXVtDQEhdMltPSF0=

> <s_epik_cmdline>
J2VwaWtfcHl0aG9uJywgJy1waCcsICc3LjAnLCAnLXRuJywgJzgnLCAnLW1hJywgJzIwMCcsICctbWV0YWxfYmluZGluZycsICctaW1hZScsICc8aW5maWxlLm1hZT4nLCAnLW9tYWUnLCAnPG91dGZpbGUubWFlPic=

> <r_lp_tautomer_probability>
1

> <r_epik_Ionization_Penalty>
2.77586e-05

> <r_epik_Ionization_Penalty_Charging>
0

> <r_epik_Ionization_Penalty_Neutral>
2.77586e-05

> <r_epik_State_Penalty>
-0

> <r_epik_Charging_Adjusted_Penalty>
0

> <i_epik_Tot_Q>
0

> <i_epik_Tot_abs_Q>
0

> <r_epik_Metal_State_Penalty>
-0

> <b_epik_Metal_Only>
0

> <s_lp_Force_Field>
OPLS_2005

> <r_lp_Energy>
20.4584

> <b_lp_Chiralities_Consistent>
1

> <s_lp_Variant>
AV-unprocessed.smi:2509-1

> <Gold.Version>
5.8.1

> <Gold.Id.Protein>
6NUR|6NUR_protein|mol2

> <Gold.PLP.Fitness>
43.7150

> <Gold.PLP.PLP>
-44.4625

> <Gold.PLP.part.hbond>
-0.1152

> <Gold.PLP.part.metal>
0.0000

> <Gold.PLP.part.buried>
-5.0387

> <Gold.PLP.part.nonpolar>
-39.0433

> <Gold.PLP.part.repulsive>
0.1153

> <Gold.PLP.ligand.clash>
0.0000

> <Gold.PLP.ligand.torsion>
0.4502

> <Gold.PLP.Chemscore.Hbond>
0.0000

> <Gold.PLP.Chemscore.CHOScore>
0.0000

> <Gold.PLP.Chemscore.Metal>
0.0000

> <Gold.PLP.Chemscore.Internal.Correction>
0.1530

> <Gold.Rescore>
     Score         DG    S(hbond)    S(metal)    S(lipo)     H(rot)  DE(clash)    DE(int)     intcor
     12.61     -14.34       0.00        0.00     117.55       1.91       0.22       1.50       ----

> <Gold.Chemscore.Fitness>
12.6128

> <Gold.Chemscore.DG>
-14.3400

> <Gold.Chemscore.ZeroCoef>
-5.4800

> <Gold.Chemscore.Hbond>
0.0000

> <Gold.Chemscore.Metal>
0.0000

> <Gold.Chemscore.Lipo>
117.5521

> <Gold.Chemscore.Internal_Hbond>
0.0000

> <Gold.Chemscore.DEClash>
0.2249

> <Gold.Chemscore.DEInternal>
1.5022

> <Gold.Chemscore.Rot>
1.9116

> <Gold.Chemscore.Internal.Correction>
   9.000000E+99

> <Gold.Chemscore.Hbond.Weighted>
-0.0000

> <Gold.Chemscore.Metal.Weighted>
-0.0000

> <Gold.Chemscore.Lipo.Weighted>
-13.7536

> <Gold.Chemscore.Internal_Hbond.Weighted>
0.0000

> <Gold.Chemscore.DEClash.Weighted>
0.2249

> <Gold.Chemscore.DEInternal.Weighted>
1.5022

> <Gold.Chemscore.Rot.Weighted>
4.8936

> <Gold.Chemscore.Internal.Correction.Weighted>
   9.000000E+99

> <Gold.Protein.RotatedTorsions>
[ 6907 6896 6895 6894 ] final -167.54 input  -60.11 | X-H torsion
[ 7974 7965 7964 7962 ] final  -90.05 input  175.53 | X-H torsion
[ 8008 7997 7996 7995 ] final  126.25 input   59.86 | X-H torsion
[ 10167 10162 10161 10158 ] final  153.77 input  -65.29 | X-H torsion
[ 10718 10713 10712 10709 ] final   44.94 input   66.30 | X-H torsion
[ 10763 10752 10751 10750 ] final   92.24 input  -60.55 | X-H torsion
[ 11005 11000 10999 10996 ] final  120.12 input  -57.11 | X-H torsion

> <Gold.Protein.ActiveResidues>
 VAL166  LYS551  ARG553  GLY616  TRP617  ASP618  TYR619  PRO620  LYS621  CYS622 
 ASP623  PHE694  ASN695  SER759  ASP760  ASP761  ALA762  ILE779  LEU786  VAL792 
 PHE793  MET794  SER795  GLU796  ALA797  LYS798  CYS799  TRP800  GLU811  SER814 

> <Gold.Protein.RotatedAtoms>
  151.4612  133.3592  159.2809 H   0  0  0  0  0  0  0  0  0  0  0  0  # atno 6907 bound_to 6896
  150.9024  134.8439  159.7380 H   0  0  0  0  0  0  0  0  0  0  0  0  # atno 6908 bound_to 6896
  152.4887  134.4533  159.9633 H   0  0  0  0  0  0  0  0  0  0  0  0  # atno 6909 bound_to 6896
  145.4317  140.9556  143.2124 H   0  0  0  0  0  0  0  0  0  0  0  0  # atno 7974 bound_to 7965
  156.2858  140.2697  156.2080 H   0  0  0  0  0  0  0  0  0  0  0  0  # atno 8008 bound_to 7997
  155.0293  140.0386  157.2486 H   0  0  0  0  0  0  0  0  0  0  0  0  # atno 8009 bound_to 7997
  154.7368  140.2717  155.6413 H   0  0  0  0  0  0  0  0  0  0  0  0  # atno 8010 bound_to 7997
  139.4826  144.5244  151.7824 H   0  0  0  0  0  0  0  0  0  0  0  0  # atno 10167 bound_to 10162
  157.4323  130.8032  149.7614 H   0  0  0  0  0  0  0  0  0  0  0  0  # atno 10718 bound_to 10713
  153.2170  135.4368  155.0446 H   0  0  0  0  0  0  0  0  0  0  0  0  # atno 10763 bound_to 10752
  154.8230  135.3347  154.6983 H   0  0  0  0  0  0  0  0  0  0  0  0  # atno 10764 bound_to 10752
  153.7417  135.7004  153.5021 H   0  0  0  0  0  0  0  0  0  0  0  0  # atno 10765 bound_to 10752
  139.9173  134.9633  156.7759 H   0  0  0  0  0  0  0  0  0  0  0  0  # atno 11005 bound_to 11000
  144.8179  139.5845  143.7000 LP  0  0  0  0  0  0  0  0  0  0  0  0  # atno 17320 bound_to 7965
  146.2603  139.6396  142.9366 LP  0  0  0  0  0  0  0  0  0  0  0  0  # atno 17321 bound_to 7965
  140.4762  144.1515  150.5925 LP  0  0  0  0  0  0  0  0  0  0  0  0  # atno 17342 bound_to 10162
  140.4328  143.2561  151.9574 LP  0  0  0  0  0  0  0  0  0  0  0  0  # atno 17343 bound_to 10162
  155.9917  130.3935  150.2971 LP  0  0  0  0  0  0  0  0  0  0  0  0  # atno 17370 bound_to 10713
  157.1129  131.0226  151.3041 LP  0  0  0  0  0  0  0  0  0  0  0  0  # atno 17371 bound_to 10713
  140.6583  133.9668  155.7791 LP  0  0  0  0  0  0  0  0  0  0  0  0  # atno 17394 bound_to 11000
  141.0661  134.0275  157.3592 LP  0  0  0  0  0  0  0  0  0  0  0  0  # atno 17395 bound_to 11000

$$$$
