AV-unprocessed.smi:716|AV-procd|sdf|3486|dock8
  -GOLD-   22720 0483D 1   1.00000     0.00000
 Structure written by MMmdl.
 48 50  0  0  0  0  0  0  0  0  1 V2000
  152.1707  144.6057  159.1046 C   0  0  0  0  0  0  0  0  0  0  0  0
  151.3568  144.0106  157.9537 C   0  0  0  0  0  0  0  0  0  0  0  0
  151.3283  142.5998  158.0926 O   0  0  0  0  0  0  0  0  0  0  0  0
  150.3326  141.9818  157.2860 C   0  0  2  0  0  0  0  0  0  0  0  0
  149.1476  141.4696  158.1147 C   0  0  0  0  0  0  0  0  0  0  0  0
  149.9503  140.1802  158.2920 C   0  0  1  0  0  0  0  0  0  0  0  0
  149.1061  138.9928  158.2652 N   0  0  0  0  0  0  0  0  0  0  0  0
  149.3902  137.8399  158.8867 C   0  0  0  0  0  0  0  0  0  0  0  0
  150.3842  137.6762  159.5934 O   0  0  0  0  0  0  0  0  0  0  0  0
  148.4054  136.6881  158.6674 C   0  0  0  0  0  0  0  0  0  0  0  0
  148.0318  136.0585  159.9407 N   0  0  0  0  0  0  0  0  0  0  0  0
  147.5175  136.9398  160.8779 N   0  0  0  0  0  0  0  0  0  0  0  0
  147.1894  136.5377  162.0617 C   0  0  0  0  0  0  0  0  0  0  0  0
  146.6535  137.5606  163.0188 C   0  0  0  0  0  0  0  0  0  0  0  0
  147.3508  135.1394  162.4115 C   0  0  0  0  0  0  0  0  0  0  0  0
  147.8494  134.2814  161.4960 C   0  0  0  0  0  0  0  0  0  0  0  0
  148.2353  134.7246  160.1584 C   0  0  0  0  0  0  0  0  0  0  0  0
  148.7136  133.9709  159.3108 O   0  0  0  0  0  0  0  0  0  0  0  0
  150.6760  140.5081  156.9574 C   0  0  0  0  0  0  0  0  0  0  0  0
  150.1074  139.9572  155.6419 C   0  0  0  0  0  0  0  0  0  0  0  0
  150.9204  138.7158  155.2647 C   0  0  0  0  0  0  0  0  0  0  0  0
  152.2418  138.8327  156.0265 C   0  0  0  0  0  0  0  0  0  0  0  0
  152.1513  140.1293  156.8369 C   0  0  0  0  0  0  0  0  0  0  0  0
  152.2098  145.6928  159.0327 H   0  0  0  0  0  0  0  0  0  0  0  0
  153.1946  144.2313  159.0936 H   0  0  0  0  0  0  0  0  0  0  0  0
  151.7297  144.3497  160.0682 H   0  0  0  0  0  0  0  0  0  0  0  0
  150.3454  144.4185  157.9666 H   0  0  0  0  0  0  0  0  0  0  0  0
  151.8088  144.2821  156.9987 H   0  0  0  0  0  0  0  0  0  0  0  0
  150.0557  142.5716  156.4106 H   0  0  0  0  0  0  0  0  0  0  0  0
  148.9510  142.0116  159.0398 H   0  0  0  0  0  0  0  0  0  0  0  0
  148.2407  141.3444  157.5201 H   0  0  0  0  0  0  0  0  0  0  0  0
  150.6125  140.2360  159.1595 H   0  0  0  0  0  0  0  0  0  0  0  0
  148.2681  139.0371  157.7031 H   0  0  0  0  0  0  0  0  0  0  0  0
  147.5158  137.0773  158.1686 H   0  0  0  0  0  0  0  0  0  0  0  0
  148.8308  135.9606  157.9732 H   0  0  0  0  0  0  0  0  0  0  0  0
  146.4239  137.1139  163.9865 H   0  0  0  0  0  0  0  0  0  0  0  0
  145.7385  138.0118  162.6341 H   0  0  0  0  0  0  0  0  0  0  0  0
  147.3809  138.3560  163.1834 H   0  0  0  0  0  0  0  0  0  0  0  0
  147.0715  134.7960  163.3966 H   0  0  0  0  0  0  0  0  0  0  0  0
  147.9694  133.2403  161.7574 H   0  0  0  0  0  0  0  0  0  0  0  0
  149.0414  139.7336  155.6937 H   0  0  0  0  0  0  0  0  0  0  0  0
  150.2226  140.7022  154.8536 H   0  0  0  0  0  0  0  0  0  0  0  0
  150.3991  137.8099  155.5715 H   0  0  0  0  0  0  0  0  0  0  0  0
  151.0735  138.6518  154.1871 H   0  0  0  0  0  0  0  0  0  0  0  0
  152.3643  137.9762  156.6902 H   0  0  0  0  0  0  0  0  0  0  0  0
  153.0991  138.8464  155.3528 H   0  0  0  0  0  0  0  0  0  0  0  0
  152.6932  140.9174  156.3125 H   0  0  0  0  0  0  0  0  0  0  0  0
  152.6297  140.0168  157.8104 H   0  0  0  0  0  0  0  0  0  0  0  0
  1  2  1  0  0  0  0
  1 24  1  0  0  0  0
  1 25  1  0  0  0  0
  1 26  1  0  0  0  0
  2  3  1  0  0  0  0
  2 27  1  0  0  0  0
  2 28  1  0  0  0  0
  3  4  1  0  0  0  0
  4 19  1  0  0  0  0
  4  5  1  0  0  0  0
  4 29  1  0  0  0  0
  5  6  1  0  0  0  0
  5 30  1  0  0  0  0
  5 31  1  0  0  0  0
  6  7  1  0  0  0  0
  6 19  1  0  0  0  0
  6 32  1  0  0  0  0
  7  8  1  0  0  0  0
  7 33  1  0  0  0  0
  8  9  2  0  0  0  0
  8 10  1  0  0  0  0
 10 11  1  0  0  0  0
 10 34  1  0  0  0  0
 10 35  1  0  0  0  0
 11 17  1  0  0  0  0
 11 12  1  0  0  0  0
 12 13  2  0  0  0  0
 13 14  1  0  0  0  0
 13 15  1  0  0  0  0
 14 36  1  0  0  0  0
 14 37  1  0  0  0  0
 14 38  1  0  0  0  0
 15 16  2  0  0  0  0
 15 39  1  0  0  0  0
 16 17  1  0  0  0  0
 16 40  1  0  0  0  0
 17 18  2  0  0  0  0
 19 23  1  0  0  0  0
 19 20  1  0  0  0  0
 20 21  1  0  0  0  0
 20 41  1  0  0  0  0
 20 42  1  0  0  0  0
 21 22  1  0  0  0  0
 21 43  1  0  0  0  0
 21 44  1  0  0  0  0
 22 23  1  0  0  0  0
 22 45  1  0  0  0  0
 22 46  1  0  0  0  0
 23 47  1  0  0  0  0
 23 48  1  0  0  0  0
M  END
> <s_m_source_file>
AV-unprocessed.smi

> <i_m_source_file_index>
716

> <i_lp_mmshare_version>
43012

> <i_f3d_flags>
0

> <s_epik_input>
W0NIMl0xW0NIMl1bQ0gyXVtDSDJdQzEyW0NASF0oT1tDSDJdW0NIM10pW0NIMl1bQ0BIXTJbTkhdQyg9TylbQ0gyXW4zbmMoW0NIM10pW2NIXVtjSF1jMz1P

> <s_epik_cmdline>
J2VwaWtfcHl0aG9uJywgJy1waCcsICc3LjAnLCAnLXRuJywgJzgnLCAnLW1hJywgJzIwMCcsICctbWV0YWxfYmluZGluZycsICctaW1hZScsICc8aW5maWxlLm1hZT4nLCAnLW9tYWUnLCAnPG91dGZpbGUubWFlPic=

> <r_lp_tautomer_probability>
1

> <r_epik_Ionization_Penalty>
4.75561e-08

> <r_epik_Ionization_Penalty_Charging>
2.86617e-08

> <r_epik_Ionization_Penalty_Neutral>
1.88944e-08

> <r_epik_State_Penalty>
-0

> <r_epik_Charging_Adjusted_Penalty>
2.86617e-08

> <i_epik_Tot_Q>
0

> <i_epik_Tot_abs_Q>
0

> <r_epik_Metal_State_Penalty>
-0

> <b_epik_Metal_Only>
0

> <s_lp_Force_Field>
OPLS_2005

> <r_lp_Energy>
50.4804

> <b_lp_Chiralities_Consistent>
1

> <s_lp_Variant>
AV-unprocessed.smi:716-1

> <Gold.Version>
5.8.1

> <Gold.Id.Protein>
6NUR|6NUR_protein|mol2

> <Gold.PLP.Fitness>
47.2371

> <Gold.PLP.PLP>
-42.3611

> <Gold.PLP.part.hbond>
-3.8715

> <Gold.PLP.part.metal>
0.0000

> <Gold.PLP.part.buried>
-2.9561

> <Gold.PLP.part.nonpolar>
-36.3903

> <Gold.PLP.part.repulsive>
0.2297

> <Gold.PLP.ligand.clash>
0.0000

> <Gold.PLP.ligand.torsion>
0.9036

> <Gold.PLP.Chemscore.Hbond>
2.1057

> <Gold.PLP.Chemscore.CHOScore>
0.0000

> <Gold.PLP.Chemscore.Metal>
0.0000

> <Gold.Chemscore.Hbonds>
donor molecule, donor type, donor heavy atom, donor atom, acceptor molecule, acceptor atom, score
      P1  H  6896  6908       L1    18  0.98
      P1  H  6931  6943       L1    12  0.13
      P1  H  6934  6947       L1    12  0.81

> <Gold.PLP.Chemscore.Internal.Correction>
0.3659

> <Gold.Rescore>
     Score         DG    S(hbond)    S(metal)    S(lipo)     H(rot)  DE(clash)    DE(int)     intcor
     17.41     -18.49       1.52        0.00     105.71       1.73       0.23       0.85       ----

> <Gold.Chemscore.Fitness>
17.4141

> <Gold.Chemscore.DG>
-18.4894

> <Gold.Chemscore.ZeroCoef>
-5.4800

> <Gold.Chemscore.Hbond>
1.5218

> <Gold.Chemscore.Metal>
0.0000

> <Gold.Chemscore.Lipo>
105.7082

> <Gold.Chemscore.Internal_Hbond>
0.0000

> <Gold.Chemscore.DEClash>
0.2270

> <Gold.Chemscore.DEInternal>
0.8483

> <Gold.Chemscore.Rot>
1.7348

> <Gold.Chemscore.Internal.Correction>
   9.000000E+99

> <Gold.Chemscore.Hbonds>
donor molecule, donor type, donor heavy atom, donor atom, acceptor molecule, acceptor atom, score
      P1  H  6896  6908       L1    18  0.61
      P1  H  6934  6947       L1    12  0.34

> <Gold.Chemscore.Hbond.Weighted>
-5.0827

> <Gold.Chemscore.Metal.Weighted>
-0.0000

> <Gold.Chemscore.Lipo.Weighted>
-12.3679

> <Gold.Chemscore.Internal_Hbond.Weighted>
0.0000

> <Gold.Chemscore.DEClash.Weighted>
0.2270

> <Gold.Chemscore.DEInternal.Weighted>
0.8483

> <Gold.Chemscore.Rot.Weighted>
4.4411

> <Gold.Chemscore.Internal.Correction.Weighted>
   9.000000E+99

> <Gold.Protein.RotatedTorsions>
[ 6907 6896 6895 6894 ] final  142.10 input  -60.11 | X-H torsion
[ 7974 7965 7964 7962 ] final -128.96 input  175.53 | X-H torsion
[ 8008 7997 7996 7995 ] final -111.14 input   59.86 | X-H torsion
[ 10167 10162 10161 10158 ] final -129.80 input  -65.29 | X-H torsion
[ 10718 10713 10712 10709 ] final   17.45 input   66.30 | X-H torsion
[ 10763 10752 10751 10750 ] final   -2.32 input  -60.55 | X-H torsion
[ 11005 11000 10999 10996 ] final -101.87 input  -57.11 | X-H torsion

> <Gold.Protein.ActiveResidues>
 VAL166  LYS551  ARG553  GLY616  TRP617  ASP618  TYR619  PRO620  LYS621  CYS622 
 ASP623  PHE694  ASN695  SER759  ASP760  ASP761  ALA762  ILE779  LEU786  VAL792 
 PHE793  MET794  SER795  GLU796  ALA797  LYS798  CYS799  TRP800  GLU811  SER814 

> <Gold.Protein.RotatedAtoms>
  152.2228  133.4997  159.5171 H   0  0  0  0  0  0  0  0  0  0  0  0  # atno 6907 bound_to 6896
  150.7017  134.1319  159.4082 H   0  0  0  0  0  0  0  0  0  0  0  0  # atno 6908 bound_to 6896
  151.9240  135.0286  160.0575 H   0  0  0  0  0  0  0  0  0  0  0  0  # atno 6909 bound_to 6896
  144.9619  140.7455  143.4724 H   0  0  0  0  0  0  0  0  0  0  0  0  # atno 7974 bound_to 7965
  154.9852  140.0396  157.2295 H   0  0  0  0  0  0  0  0  0  0  0  0  # atno 8008 bound_to 7997
  154.7678  140.2796  155.6139 H   0  0  0  0  0  0  0  0  0  0  0  0  # atno 8009 bound_to 7997
  156.2915  140.2616  156.2473 H   0  0  0  0  0  0  0  0  0  0  0  0  # atno 8010 bound_to 7997
  139.9360  143.6217  152.2517 H   0  0  0  0  0  0  0  0  0  0  0  0  # atno 10167 bound_to 10162
  157.0823  130.6393  149.5829 H   0  0  0  0  0  0  0  0  0  0  0  0  # atno 10718 bound_to 10713
  153.3565  135.6988  153.6746 H   0  0  0  0  0  0  0  0  0  0  0  0  # atno 10763 bound_to 10752
  153.5452  135.3565  155.2736 H   0  0  0  0  0  0  0  0  0  0  0  0  # atno 10764 bound_to 10752
  154.8661  135.4213  154.2813 H   0  0  0  0  0  0  0  0  0  0  0  0  # atno 10765 bound_to 10752
  141.1213  133.8513  157.1287 H   0  0  0  0  0  0  0  0  0  0  0  0  # atno 11005 bound_to 11000
  145.2688  139.1963  143.4853 LP  0  0  0  0  0  0  0  0  0  0  0  0  # atno 17320 bound_to 7965
  146.3355  140.2630  142.8602 LP  0  0  0  0  0  0  0  0  0  0  0  0  # atno 17321 bound_to 7965
  139.6743  144.7659  151.1725 LP  0  0  0  0  0  0  0  0  0  0  0  0  # atno 17342 bound_to 10162
  140.7624  143.5818  150.8887 LP  0  0  0  0  0  0  0  0  0  0  0  0  # atno 17343 bound_to 10162
  155.9920  130.4977  150.7322 LP  0  0  0  0  0  0  0  0  0  0  0  0  # atno 17370 bound_to 10713
  157.4789  131.0900  151.0558 LP  0  0  0  0  0  0  0  0  0  0  0  0  # atno 17371 bound_to 10713
  140.0172  134.9962  157.0519 LP  0  0  0  0  0  0  0  0  0  0  0  0  # atno 17394 bound_to 11000
  140.4499  134.1593  155.7180 LP  0  0  0  0  0  0  0  0  0  0  0  0  # atno 17395 bound_to 11000

$$$$
