AV-unprocessed.smi:82|AV-procd|sdf|798|dock4
  -GOLD-   2262017183D 1   1.00000     0.00000
 Structure written by MMmdl.
 58 61  0  0  0  0  0  0  0  0  1 V2000
  152.0072  144.4940  157.9635 C   0  0  0  0  0  0  0  0  0  0  0  0
  152.3571  143.3460  158.7170 O   0  0  0  0  0  0  0  0  0  0  0  0
  151.4880  142.2522  158.4770 C   0  0  0  0  0  0  0  0  0  0  0  0
  152.3112  140.9545  158.5310 C   0  0  0  0  0  0  0  0  0  0  0  0
  151.6149  139.7575  158.0424 N   0  0  0  0  0  0  0  0  0  0  0  0
  152.2913  138.5571  158.5430 C   0  0  0  0  0  0  0  0  0  0  0  0
  151.5727  137.2609  158.1438 C   0  0  0  0  0  0  0  0  0  0  0  0
  151.4520  137.1923  156.6918 N   0  0  0  0  0  0  0  0  0  0  0  0
  151.0897  135.9773  156.2065 C   0  0  0  0  0  0  0  0  0  0  0  0
  151.9356  134.9181  156.3217 N   0  0  0  0  0  0  0  0  0  0  0  0
  151.5880  133.7205  155.8416 C   0  0  0  0  0  0  0  0  0  0  0  0
  150.4621  133.3651  155.2203 N   0  0  0  0  0  0  0  0  0  0  0  0
  149.6062  134.4206  155.1050 C   0  0  0  0  0  0  0  0  0  0  0  0
  149.8366  135.7463  155.5711 C   0  0  0  0  0  0  0  0  0  0  0  0
  148.7272  136.5397  155.3033 N   0  0  0  0  0  0  0  0  0  0  0  0
  147.8923  135.7315  154.7096 C   0  0  0  0  0  0  0  0  0  0  0  0
  148.3509  134.4470  154.5216 N   0  0  0  0  0  0  0  0  0  0  0  0
  147.6272  133.3547  153.9383 C   0  0  0  0  0  0  0  0  0  0  0  0
  148.0253  132.7825  152.5744 C   0  0  0  0  0  0  0  0  0  0  0  0
  146.5385  132.5551  152.2200 C   0  0  0  0  0  0  0  0  0  0  0  0
  146.1457  133.0224  150.8097 C   0  0  0  0  0  0  0  0  0  0  0  0
  146.7220  132.2020  149.8134 O   0  0  0  0  0  0  0  0  0  0  0  0
  146.0083  131.1136  152.3859 C   0  0  0  0  0  0  0  0  0  0  0  0
  146.4938  130.2223  151.4025 O   0  0  0  0  0  0  0  0  0  0  0  0
  146.2254  133.5564  153.3540 C   0  0  0  0  0  0  0  0  0  0  0  0
  150.8208  138.3801  156.1182 C   0  0  0  0  0  0  0  0  0  0  0  0
  151.5495  139.6684  156.5665 C   0  0  1  0  0  0  0  0  0  0  0  0
  150.8770  140.8622  155.8666 C   0  0  0  0  0  0  0  0  0  0  0  0
  152.7031  145.3032  158.1841 H   0  0  0  0  0  0  0  0  0  0  0  0
  151.0020  144.8373  158.2116 H   0  0  0  0  0  0  0  0  0  0  0  0
  152.0541  144.2921  156.8927 H   0  0  0  0  0  0  0  0  0  0  0  0
  150.7107  142.2246  159.2424 H   0  0  0  0  0  0  0  0  0  0  0  0
  150.9913  142.3886  157.5189 H   0  0  0  0  0  0  0  0  0  0  0  0
  153.2590  141.0809  158.0059 H   0  0  0  0  0  0  0  0  0  0  0  0
  152.5809  140.8165  159.5791 H   0  0  0  0  0  0  0  0  0  0  0  0
  153.3205  138.5311  158.1807 H   0  0  0  0  0  0  0  0  0  0  0  0
  152.3478  138.5931  159.6316 H   0  0  0  0  0  0  0  0  0  0  0  0
  152.1222  136.4081  158.5406 H   0  0  0  0  0  0  0  0  0  0  0  0
  150.5769  137.2310  158.5882 H   0  0  0  0  0  0  0  0  0  0  0  0
  152.3182  132.9353  155.9716 H   0  0  0  0  0  0  0  0  0  0  0  0
  146.9136  136.0560  154.3870 H   0  0  0  0  0  0  0  0  0  0  0  0
  147.6174  132.5698  154.6953 H   0  0  0  0  0  0  0  0  0  0  0  0
  148.5062  133.5287  151.9399 H   0  0  0  0  0  0  0  0  0  0  0  0
  148.6289  131.8758  152.6288 H   0  0  0  0  0  0  0  0  0  0  0  0
  145.0637  132.9929  150.6773 H   0  0  0  0  0  0  0  0  0  0  0  0
  146.4489  134.0556  150.6368 H   0  0  0  0  0  0  0  0  0  0  0  0
  147.5464  131.8714  150.1366 H   0  0  0  0  0  0  0  0  0  0  0  0
  146.2853  130.7050  153.3579 H   0  0  0  0  0  0  0  0  0  0  0  0
  144.9188  131.0952  152.3392 H   0  0  0  0  0  0  0  0  0  0  0  0
  147.3751  130.4772  151.1754 H   0  0  0  0  0  0  0  0  0  0  0  0
  145.4141  133.2557  154.0178 H   0  0  0  0  0  0  0  0  0  0  0  0
  146.0698  134.5717  152.9855 H   0  0  0  0  0  0  0  0  0  0  0  0
  150.8413  138.3076  155.0299 H   0  0  0  0  0  0  0  0  0  0  0  0
  149.7729  138.4176  156.4206 H   0  0  0  0  0  0  0  0  0  0  0  0
  152.5691  139.6121  156.1809 H   0  0  0  0  0  0  0  0  0  0  0  0
  150.7542  140.6724  154.7999 H   0  0  0  0  0  0  0  0  0  0  0  0
  151.4799  141.7660  155.9482 H   0  0  0  0  0  0  0  0  0  0  0  0
  149.8880  141.0627  156.2801 H   0  0  0  0  0  0  0  0  0  0  0  0
  1  2  1  0  0  0  0
  1 29  1  0  0  0  0
  1 30  1  0  0  0  0
  1 31  1  0  0  0  0
  2  3  1  0  0  0  0
  3  4  1  0  0  0  0
  3 32  1  0  0  0  0
  3 33  1  0  0  0  0
  4  5  1  0  0  0  0
  4 34  1  0  0  0  0
  4 35  1  0  0  0  0
  5 27  1  0  0  0  0
  5  6  1  0  0  0  0
  6  7  1  0  0  0  0
  6 36  1  0  0  0  0
  6 37  1  0  0  0  0
  7  8  1  0  0  0  0
  7 38  1  0  0  0  0
  7 39  1  0  0  0  0
  8  9  1  0  0  0  0
  8 26  1  0  0  0  0
  9 14  1  0  0  0  0
  9 10  2  0  0  0  0
 10 11  1  0  0  0  0
 11 12  2  0  0  0  0
 11 40  1  0  0  0  0
 12 13  1  0  0  0  0
 13 17  1  0  0  0  0
 13 14  2  0  0  0  0
 14 15  1  0  0  0  0
 15 16  2  0  0  0  0
 16 17  1  0  0  0  0
 16 41  1  0  0  0  0
 17 18  1  0  0  0  0
 18 25  1  0  0  0  0
 18 19  1  0  0  0  0
 18 42  1  0  0  0  0
 19 20  1  0  0  0  0
 19 43  1  0  0  0  0
 19 44  1  0  0  0  0
 20 21  1  0  0  0  0
 20 23  1  0  0  0  0
 20 25  1  0  0  0  0
 21 22  1  0  0  0  0
 21 45  1  0  0  0  0
 21 46  1  0  0  0  0
 22 47  1  0  0  0  0
 23 24  1  0  0  0  0
 23 48  1  0  0  0  0
 23 49  1  0  0  0  0
 24 50  1  0  0  0  0
 25 51  1  0  0  0  0
 25 52  1  0  0  0  0
 26 27  1  0  0  0  0
 26 53  1  0  0  0  0
 26 54  1  0  0  0  0
 27 28  1  0  0  0  0
 27 55  1  0  0  0  0
 28 56  1  0  0  0  0
 28 57  1  0  0  0  0
 28 58  1  0  0  0  0
M  END
> <s_m_source_file>
AV-unprocessed.smi

> <i_m_source_file_index>
82

> <i_lp_mmshare_version>
43012

> <i_f3d_flags>
0

> <s_epik_input>
W0NIM11PW0NIMl1bQ0gyXU4xW0NIMl1bQ0gyXU4oW0NIMl1bQ0BIXTFbQ0gzXSljKG5bY0hdbjIpYyhjMjMpbltjSF1uM1tDSF0oW0NIMl00KVtDSDJdQzQoW0NIMl1bT0hdKVtDSDJdW09IXQ==

> <s_epik_cmdline>
J2VwaWtfcHl0aG9uJywgJy1waCcsICc3LjAnLCAnLXRuJywgJzgnLCAnLW1hJywgJzIwMCcsICctbWV0YWxfYmluZGluZycsICctaW1hZScsICc8aW5maWxlLm1hZT4nLCAnLW9tYWUnLCAnPG91dGZpbGUubWFlPic=

> <r_lp_tautomer_probability>
1

> <r_epik_Ionization_Penalty>
0.549054

> <r_epik_Ionization_Penalty_Charging>
0

> <r_epik_Ionization_Penalty_Neutral>
0.549054

> <r_epik_State_Penalty>
0.552556

> <r_epik_Charging_Adjusted_Penalty>
0.552556

> <i_epik_Tot_Q>
0

> <i_epik_Tot_abs_Q>
0

> <r_epik_Metal_State_Penalty>
0.545162

> <b_epik_Metal_Only>
0

> <s_lp_Force_Field>
OPLS_2005

> <r_lp_Energy>
72.4409

> <b_lp_Chiralities_Consistent>
1

> <s_lp_Variant>
AV-unprocessed.smi:82-5

> <Gold.Version>
5.8.1

> <Gold.Id.Protein>
6NUR|6NUR_protein|mol2

> <Gold.PLP.Fitness>
45.4349

> <Gold.PLP.PLP>
-38.2170

> <Gold.PLP.part.hbond>
-2.9018

> <Gold.PLP.part.metal>
0.0000

> <Gold.PLP.part.buried>
-5.7140

> <Gold.PLP.part.nonpolar>
-28.8887

> <Gold.PLP.part.repulsive>
0.1215

> <Gold.PLP.ligand.clash>
0.0000

> <Gold.PLP.ligand.torsion>
1.0718

> <Gold.PLP.Chemscore.Hbond>
2.8149

> <Gold.PLP.Chemscore.CHOScore>
0.0000

> <Gold.PLP.Chemscore.Metal>
0.0000

> <Gold.Chemscore.Hbonds>
donor molecule, donor type, donor heavy atom, donor atom, acceptor molecule, acceptor atom, score
      L1  H    22    47       P1 10747  1.00
      L1  H    24    50       P1 10747  1.00
      P1  H 10752 10763       L1    10  0.98

> <Gold.PLP.Chemscore.Internal.Correction>
0.9168

> <Gold.Rescore>
     Score         DG    S(hbond)    S(metal)    S(lipo)     H(rot)  DE(clash)    DE(int)     intcor
     10.50     -13.18       2.00        0.00      92.75       3.84       0.17       2.51       ----

> <Gold.Chemscore.Fitness>
10.5046

> <Gold.Chemscore.DG>
-13.1796

> <Gold.Chemscore.ZeroCoef>
-5.4800

> <Gold.Chemscore.Hbond>
2.0022

> <Gold.Chemscore.Metal>
0.0000

> <Gold.Chemscore.Lipo>
92.7476

> <Gold.Chemscore.Internal_Hbond>
0.0000

> <Gold.Chemscore.DEClash>
0.1657

> <Gold.Chemscore.DEInternal>
2.5094

> <Gold.Chemscore.Rot>
3.8434

> <Gold.Chemscore.Internal.Correction>
   9.000000E+99

> <Gold.Chemscore.Hbonds>
donor molecule, donor type, donor heavy atom, donor atom, acceptor molecule, acceptor atom, score
      L1  H    22    47       P1 10747  0.99
      L1  H    24    50       P1 10747  1.00
      P1  H 10752 10763       L1    10  0.08

> <Gold.Chemscore.Hbond.Weighted>
-6.6873

> <Gold.Chemscore.Metal.Weighted>
-0.0000

> <Gold.Chemscore.Lipo.Weighted>
-10.8515

> <Gold.Chemscore.Internal_Hbond.Weighted>
0.0000

> <Gold.Chemscore.DEClash.Weighted>
0.1657

> <Gold.Chemscore.DEInternal.Weighted>
2.5094

> <Gold.Chemscore.Rot.Weighted>
9.8391

> <Gold.Chemscore.Internal.Correction.Weighted>
   9.000000E+99

> <Gold.Protein.RotatedTorsions>
[ 6907 6896 6895 6894 ] final  -35.88 input  -60.11 | X-H torsion
[ 7974 7965 7964 7962 ] final -150.53 input  175.53 | X-H torsion
[ 8008 7997 7996 7995 ] final  157.27 input   59.86 | X-H torsion
[ 10167 10162 10161 10158 ] final -170.81 input  -65.29 | X-H torsion
[ 10718 10713 10712 10709 ] final  -45.92 input   66.30 | X-H torsion
[ 10763 10752 10751 10750 ] final   98.27 input  -60.55 | X-H torsion
[ 11005 11000 10999 10996 ] final -177.97 input  -57.11 | X-H torsion

> <Gold.Protein.ActiveResidues>
 VAL166  LYS551  ARG553  GLY616  TRP617  ASP618  TYR619  PRO620  LYS621  CYS622 
 ASP623  PHE694  ASN695  SER759  ASP760  ASP761  ALA762  ILE779  LEU786  VAL792 
 PHE793  MET794  SER795  GLU796  ALA797  LYS798  CYS799  TRP800  GLU811  SER814 

> <Gold.Protein.RotatedAtoms>
  151.0342  134.9561  159.8127 H   0  0  0  0  0  0  0  0  0  0  0  0  # atno 6907 bound_to 6896
  152.5352  134.2741  159.8992 H   0  0  0  0  0  0  0  0  0  0  0  0  # atno 6908 bound_to 6896
  151.2751  133.4194  159.2657 H   0  0  0  0  0  0  0  0  0  0  0  0  # atno 6909 bound_to 6896
  144.7902  140.4919  143.5778 H   0  0  0  0  0  0  0  0  0  0  0  0  # atno 7974 bound_to 7965
  156.2374  140.1890  156.7083 H   0  0  0  0  0  0  0  0  0  0  0  0  # atno 8008 bound_to 7997
  154.6131  140.0619  156.9547 H   0  0  0  0  0  0  0  0  0  0  0  0  # atno 8009 bound_to 7997
  155.1983  140.3290  155.4350 H   0  0  0  0  0  0  0  0  0  0  0  0  # atno 8010 bound_to 7997
  139.5839  144.1361  152.1551 H   0  0  0  0  0  0  0  0  0  0  0  0  # atno 10167 bound_to 10162
  156.2234  130.4167  149.8964 H   0  0  0  0  0  0  0  0  0  0  0  0  # atno 10718 bound_to 10713
  153.2870  135.4154  155.1132 H   0  0  0  0  0  0  0  0  0  0  0  0  # atno 10763 bound_to 10752
  154.8508  135.3509  154.6033 H   0  0  0  0  0  0  0  0  0  0  0  0  # atno 10764 bound_to 10752
  153.6455  135.7055  153.5284 H   0  0  0  0  0  0  0  0  0  0  0  0  # atno 10765 bound_to 10752
  140.4350  134.6484  157.4730 H   0  0  0  0  0  0  0  0  0  0  0  0  # atno 11005 bound_to 11000
  145.5814  139.1489  143.3233 LP  0  0  0  0  0  0  0  0  0  0  0  0  # atno 17320 bound_to 7965
  146.2151  140.5944  142.9042 LP  0  0  0  0  0  0  0  0  0  0  0  0  # atno 17321 bound_to 7965
  140.0920  144.5612  150.7048 LP  0  0  0  0  0  0  0  0  0  0  0  0  # atno 17342 bound_to 10162
  140.7114  143.2508  151.4570 LP  0  0  0  0  0  0  0  0  0  0  0  0  # atno 17343 bound_to 10162
  156.6602  130.8779  151.3546 LP  0  0  0  0  0  0  0  0  0  0  0  0  # atno 17370 bound_to 10713
  157.7099  130.9428  150.1053 LP  0  0  0  0  0  0  0  0  0  0  0  0  # atno 17371 bound_to 10713
  140.0108  134.6693  155.9383 LP  0  0  0  0  0  0  0  0  0  0  0  0  # atno 17394 bound_to 11000
  141.1730  133.6538  156.4721 LP  0  0  0  0  0  0  0  0  0  0  0  0  # atno 17395 bound_to 11000

$$$$
