AV-unprocessed.smi:110|AV-procd|sdf|1078|dock9
  -GOLD-   2262018163D 1   1.00000     0.00000
 Structure written by MMmdl.
 46 50  0  0  0  0  0  0  0  0  1 V2000
  147.5089  135.8103  156.7071 O   0  0  0  0  0  0  0  0  0  0  0  0
  146.9065  137.0399  156.3645 C   0  0  0  0  0  0  0  0  0  0  0  0
  147.2720  137.4235  154.9222 C   0  0  2  0  0  0  0  0  0  0  0  0
  148.6851  137.5995  154.7974 O   0  0  0  0  0  0  0  0  0  0  0  0
  149.0092  138.7659  154.0961 C   0  0  2  0  0  0  0  0  0  0  0  0
  149.5503  139.7877  155.0636 N   0  0  0  0  0  0  0  0  0  0  0  0
  149.1038  141.0783  155.2542 C   0  0  0  0  0  0  0  0  0  0  0  0
  149.7630  141.7805  156.1329 N   0  0  0  0  0  0  0  0  0  0  0  0
  150.7770  140.9334  156.5604 C   0  0  0  0  0  0  0  0  0  0  0  0
  151.8578  141.0615  157.4834 C   0  0  0  0  0  0  0  0  0  0  0  0
  152.0847  142.1730  158.2337 N   0  0  0  0  0  0  0  0  0  0  0  0
  151.5471  143.4694  157.7914 C   0  0  0  0  0  0  0  0  0  0  0  0
  151.4979  144.4061  159.0103 C   0  0  0  0  0  0  0  0  0  0  0  0
  152.1613  143.5583  160.0437 C   0  0  0  0  0  0  0  0  0  0  0  0
  152.4712  143.9245  161.3649 C   0  0  0  0  0  0  0  0  0  0  0  0
  153.1158  142.9750  162.1848 C   0  0  0  0  0  0  0  0  0  0  0  0
  153.4414  141.6976  161.6749 C   0  0  0  0  0  0  0  0  0  0  0  0
  153.1223  141.3525  160.3428 C   0  0  0  0  0  0  0  0  0  0  0  0
  152.4622  142.2995  159.5290 C   0  0  0  0  0  0  0  0  0  0  0  0
  152.6811  139.9911  157.6229 N   0  0  0  0  0  0  0  0  0  0  0  0
  152.4800  138.8828  156.9077 C   0  0  0  0  0  0  0  0  0  0  0  0
  151.5206  138.6304  156.0183 N   0  0  0  0  0  0  0  0  0  0  0  0
  150.6693  139.6875  155.8746 C   0  0  0  0  0  0  0  0  0  0  0  0
  147.6985  139.2626  153.4707 C   0  0  1  0  0  0  0  0  0  0  0  0
  147.5209  138.7226  152.1743 O   0  0  0  0  0  0  0  0  0  0  0  0
  146.6805  138.7639  154.4834 C   0  0  1  0  0  0  0  0  0  0  0  0
  145.3780  138.6521  153.9425 O   0  0  0  0  0  0  0  0  0  0  0  0
  146.9618  136.6465  154.2209 H   0  0  0  0  0  0  0  0  0  0  0  0
  149.8252  138.6156  153.3883 H   0  0  0  0  0  0  0  0  0  0  0  0
  147.6728  140.3471  153.3757 H   0  0  0  0  0  0  0  0  0  0  0  0
  146.6560  139.4520  155.3303 H   0  0  0  0  0  0  0  0  0  0  0  0
  147.7956  135.3848  155.9136 H   0  0  0  0  0  0  0  0  0  0  0  0
  145.8273  136.9090  156.4531 H   0  0  0  0  0  0  0  0  0  0  0  0
  147.1948  137.8176  157.0714 H   0  0  0  0  0  0  0  0  0  0  0  0
  148.2641  141.4959  154.7182 H   0  0  0  0  0  0  0  0  0  0  0  0
  152.2089  143.8874  157.0322 H   0  0  0  0  0  0  0  0  0  0  0  0
  150.5570  143.3556  157.3479 H   0  0  0  0  0  0  0  0  0  0  0  0
  152.0459  145.3340  158.8436 H   0  0  0  0  0  0  0  0  0  0  0  0
  150.4744  144.6358  159.3078 H   0  0  0  0  0  0  0  0  0  0  0  0
  152.2258  144.9067  161.7412 H   0  0  0  0  0  0  0  0  0  0  0  0
  153.3669  143.2282  163.2044 H   0  0  0  0  0  0  0  0  0  0  0  0
  153.9430  140.9802  162.3075 H   0  0  0  0  0  0  0  0  0  0  0  0
  153.3952  140.3786  159.9660 H   0  0  0  0  0  0  0  0  0  0  0  0
  153.1872  138.0835  157.0731 H   0  0  0  0  0  0  0  0  0  0  0  0
  148.2026  138.0859  152.0211 H   0  0  0  0  0  0  0  0  0  0  0  0
  145.1514  139.4735  153.5337 H   0  0  0  0  0  0  0  0  0  0  0  0
  1  2  1  0  0  0  0
  1 32  1  0  0  0  0
  2  3  1  0  0  0  0
  2 33  1  0  0  0  0
  2 34  1  0  0  0  0
  3 28  1  0  0  0  0
  3 26  1  0  0  0  0
  3  4  1  0  0  0  0
  4  5  1  0  0  0  0
  5 29  1  0  0  0  0
  5  6  1  0  0  0  0
  5 24  1  0  0  0  0
  6 23  1  0  0  0  0
  6  7  1  0  0  0  0
  7  8  2  0  0  0  0
  7 35  1  0  0  0  0
  8  9  1  0  0  0  0
  9 23  2  0  0  0  0
  9 10  1  0  0  0  0
 10 11  1  0  0  0  0
 10 20  2  0  0  0  0
 11 19  1  0  0  0  0
 11 12  1  0  0  0  0
 12 13  1  0  0  0  0
 12 36  1  0  0  0  0
 12 37  1  0  0  0  0
 13 14  1  0  0  0  0
 13 38  1  0  0  0  0
 13 39  1  0  0  0  0
 14 19  2  0  0  0  0
 14 15  1  0  0  0  0
 15 16  2  0  0  0  0
 15 40  1  0  0  0  0
 16 17  1  0  0  0  0
 16 41  1  0  0  0  0
 17 18  2  0  0  0  0
 17 42  1  0  0  0  0
 18 19  1  0  0  0  0
 18 43  1  0  0  0  0
 20 21  1  0  0  0  0
 21 22  2  0  0  0  0
 21 44  1  0  0  0  0
 22 23  1  0  0  0  0
 24 30  1  0  0  0  0
 24 25  1  0  0  0  0
 24 26  1  0  0  0  0
 25 45  1  0  0  0  0
 26 31  1  0  0  0  0
 26 27  1  0  0  0  0
 27 46  1  0  0  0  0
M  END
> <s_m_source_file>
AV-unprocessed.smi

> <i_m_source_file_index>
110

> <i_lp_mmshare_version>
43012

> <i_f3d_flags>
0

> <s_epik_input>
W09IXVtDSDJdW0NASF0xT1tDQEhdKFtDQEhdKFtPSF0pW0NAQEhdMVtPSF0pbihbY0hdbjIpYyhjMjMpbltjSF1uYzNOKFtDSDJdW0NIMl00KWMoYzQ1KVtjSF1bY0hdW2NIXVtjSF01

> <s_epik_cmdline>
J2VwaWtfcHl0aG9uJywgJy1waCcsICc3LjAnLCAnLXRuJywgJzgnLCAnLW1hJywgJzIwMCcsICctbWV0YWxfYmluZGluZycsICctaW1hZScsICc8aW5maWxlLm1hZT4nLCAnLW9tYWUnLCAnPG91dGZpbGUubWFlPic=

> <r_lp_tautomer_probability>
1

> <r_epik_Ionization_Penalty>
0.00068475

> <r_epik_Ionization_Penalty_Charging>
0

> <r_epik_Ionization_Penalty_Neutral>
0.00068475

> <r_epik_State_Penalty>
0.000417442

> <r_epik_Charging_Adjusted_Penalty>
0.000417442

> <i_epik_Tot_Q>
0

> <i_epik_Tot_abs_Q>
0

> <r_epik_Metal_State_Penalty>
-0

> <b_epik_Metal_Only>
0

> <s_epik_Chemistry_Notes>
This compound contains an acetal/aminal-like group ( X-CH(R)-Y where X, Y are N, S, or O) that may be acid/base labile, releasing an aldehyde.

> <s_lp_Force_Field>
OPLS_2005

> <r_lp_Energy>
62.7544

> <b_lp_Chiralities_Consistent>
1

> <s_lp_Variant>
AV-unprocessed.smi:110-16

> <Gold.Version>
5.8.1

> <Gold.Id.Protein>
6NUR|6NUR_protein|mol2

> <Gold.PLP.Fitness>
55.2667

> <Gold.PLP.PLP>
-48.9365

> <Gold.PLP.part.hbond>
-4.0000

> <Gold.PLP.part.metal>
0.0000

> <Gold.PLP.part.buried>
-6.3123

> <Gold.PLP.part.nonpolar>
-38.7857

> <Gold.PLP.part.repulsive>
0.5241

> <Gold.PLP.ligand.clash>
0.0000

> <Gold.PLP.ligand.torsion>
0.4890

> <Gold.PLP.Chemscore.Hbond>
2.3915

> <Gold.PLP.Chemscore.CHOScore>
0.0000

> <Gold.PLP.Chemscore.Metal>
0.0000

> <Gold.Chemscore.Hbonds>
donor molecule, donor type, donor heavy atom, donor atom, acceptor molecule, acceptor atom, score
      L1  H    25    45       P1  7948  1.00
      L1  H    27    46       P1 10175  0.79
      P1  H  7997  8008       L1    20  0.47

> <Gold.PLP.Chemscore.Internal.Correction>
0.1337

> <Gold.Rescore>
     Score         DG    S(hbond)    S(metal)    S(lipo)     H(rot)  DE(clash)    DE(int)     intcor
     14.20     -16.06       2.04        0.00     106.28       3.38       0.23       1.64       ----

> <Gold.Chemscore.Fitness>
14.2007

> <Gold.Chemscore.DG>
-16.0640

> <Gold.Chemscore.ZeroCoef>
-5.4800

> <Gold.Chemscore.Hbond>
2.0393

> <Gold.Chemscore.Metal>
0.0000

> <Gold.Chemscore.Lipo>
106.2803

> <Gold.Chemscore.Internal_Hbond>
0.0000

> <Gold.Chemscore.DEClash>
0.2271

> <Gold.Chemscore.DEInternal>
1.6363

> <Gold.Chemscore.Rot>
3.3837

> <Gold.Chemscore.Internal.Correction>
   9.000000E+99

> <Gold.Chemscore.Hbonds>
donor molecule, donor type, donor heavy atom, donor atom, acceptor molecule, acceptor atom, score
      L1  H    25    45       P1  7948  0.96
      L1  H    27    46       P1 10175  0.75
      P1  H  7997  8008       L1    20  0.02

> <Gold.Chemscore.Hbond.Weighted>
-6.8114

> <Gold.Chemscore.Metal.Weighted>
-0.0000

> <Gold.Chemscore.Lipo.Weighted>
-12.4348

> <Gold.Chemscore.Internal_Hbond.Weighted>
0.0000

> <Gold.Chemscore.DEClash.Weighted>
0.2271

> <Gold.Chemscore.DEInternal.Weighted>
1.6363

> <Gold.Chemscore.Rot.Weighted>
8.6622

> <Gold.Chemscore.Internal.Correction.Weighted>
   9.000000E+99

> <Gold.Protein.RotatedTorsions>
[ 6907 6896 6895 6894 ] final   67.02 input  -60.11 | X-H torsion
[ 7974 7965 7964 7962 ] final   89.18 input  175.53 | X-H torsion
[ 8008 7997 7996 7995 ] final  -85.36 input   59.86 | X-H torsion
[ 10167 10162 10161 10158 ] final  -82.87 input  -65.29 | X-H torsion
[ 10718 10713 10712 10709 ] final   17.67 input   66.30 | X-H torsion
[ 10763 10752 10751 10750 ] final  119.34 input  -60.55 | X-H torsion
[ 11005 11000 10999 10996 ] final  -78.36 input  -57.11 | X-H torsion

> <Gold.Protein.ActiveResidues>
 VAL166  LYS551  ARG553  GLY616  TRP617  ASP618  TYR619  PRO620  LYS621  CYS622 
 ASP623  PHE694  ASN695  SER759  ASP760  ASP761  ALA762  ILE779  LEU786  VAL792 
 PHE793  MET794  SER795  GLU796  ALA797  LYS798  CYS799  TRP800  GLU811  SER814 

> <Gold.Protein.RotatedAtoms>
  152.4522  134.5368  159.9827 H   0  0  0  0  0  0  0  0  0  0  0  0  # atno 6907 bound_to 6896
  151.5438  133.3422  159.2948 H   0  0  0  0  0  0  0  0  0  0  0  0  # atno 6908 bound_to 6896
  150.8455  134.7794  159.7030 H   0  0  0  0  0  0  0  0  0  0  0  0  # atno 6909 bound_to 6896
  145.5357  139.2285  143.2593 H   0  0  0  0  0  0  0  0  0  0  0  0  # atno 7974 bound_to 7965
  154.6399  140.0592  156.9833 H   0  0  0  0  0  0  0  0  0  0  0  0  # atno 8008 bound_to 7997
  155.1533  140.3276  155.4408 H   0  0  0  0  0  0  0  0  0  0  0  0  # atno 8009 bound_to 7997
  156.2526  140.1943  156.6643 H   0  0  0  0  0  0  0  0  0  0  0  0  # atno 8010 bound_to 7997
  140.4280  143.2559  151.8799 H   0  0  0  0  0  0  0  0  0  0  0  0  # atno 10167 bound_to 10162
  157.0855  130.6405  149.5836 H   0  0  0  0  0  0  0  0  0  0  0  0  # atno 10718 bound_to 10713
  153.5816  135.3483  155.2877 H   0  0  0  0  0  0  0  0  0  0  0  0  # atno 10763 bound_to 10752
  154.8667  135.4183  154.2614 H   0  0  0  0  0  0  0  0  0  0  0  0  # atno 10764 bound_to 10752
  153.3402  135.7049  153.6944 H   0  0  0  0  0  0  0  0  0  0  0  0  # atno 10765 bound_to 10752
  141.1664  133.7060  156.7961 H   0  0  0  0  0  0  0  0  0  0  0  0  # atno 11005 bound_to 11000
  146.2014  140.6176  142.9100 LP  0  0  0  0  0  0  0  0  0  0  0  0  # atno 17320 bound_to 7965
  144.7602  140.5405  143.6740 LP  0  0  0  0  0  0  0  0  0  0  0  0  # atno 17321 bound_to 7965
  139.4784  144.5366  151.8589 LP  0  0  0  0  0  0  0  0  0  0  0  0  # atno 17342 bound_to 10162
  140.4460  144.1921  150.5894 LP  0  0  0  0  0  0  0  0  0  0  0  0  # atno 17343 bound_to 10162
  155.9912  130.4966  150.7289 LP  0  0  0  0  0  0  0  0  0  0  0  0  # atno 17370 bound_to 10713
  157.4765  131.0898  151.0585 LP  0  0  0  0  0  0  0  0  0  0  0  0  # atno 17371 bound_to 10713
  140.2290  134.8700  157.3457 LP  0  0  0  0  0  0  0  0  0  0  0  0  # atno 17394 bound_to 11000
  140.1910  134.4372  155.7716 LP  0  0  0  0  0  0  0  0  0  0  0  0  # atno 17395 bound_to 11000

$$$$
