AV-unprocessed.smi:409|AV-procd|sdf|2506|dock8
  -GOLD-   2262022453D 1   1.00000     0.00000
 Structure written by MMmdl.
 34 35  0  0  0  0  0  0  0  0  2 V2000
  147.0844  132.8264  154.6603 O   0  0  0  0  0  0  0  0  0  0  0  0
  147.6677  133.6698  153.9777 C   0  0  0  0  0  0  0  0  0  0  0  0
  148.9881  134.2878  154.4570 C   0  0  0  0  0  0  0  0  0  0  0  0
  149.4090  133.7866  155.7751 N   0  0  0  0  0  0  0  0  0  0  0  0
  149.6064  132.4017  155.9164 C   0  0  0  0  0  0  0  0  0  0  0  0
  149.9887  131.8543  157.0860 C   0  0  0  0  0  0  0  0  0  0  0  0
  150.1993  132.7382  158.2257 C   0  0  0  0  0  0  0  0  0  0  0  0
  150.5538  132.2566  159.2999 O   0  0  0  0  0  0  0  0  0  0  0  0
  149.9897  134.0745  158.0397 N   0  5  0  0  0  0  0  0  0  0  0  0
  149.5978  134.6167  156.8450 C   0  0  0  0  0  0  0  0  0  0  0  0
  149.4114  135.8255  156.6996 O   0  0  0  0  0  0  0  0  0  0  0  0
  147.2248  134.0817  152.7801 N   0  0  0  0  0  0  0  0  0  0  0  0
  146.0000  133.6262  152.1299 C   0  0  0  0  0  0  0  0  0  0  0  0
  146.0630  132.1103  151.8495 C   0  0  0  0  0  0  0  0  0  0  0  0
  144.8141  131.6256  151.0954 C   0  0  0  0  0  0  0  0  0  0  0  0
  144.6030  132.4187  149.7962 C   0  0  0  0  0  0  0  0  0  0  0  0
  144.5342  133.9287  150.0734 C   0  0  0  0  0  0  0  0  0  0  0  0
  145.7843  134.4151  150.8245 C   0  0  0  0  0  0  0  0  0  0  0  0
  149.7519  134.0768  153.7077 H   0  0  0  0  0  0  0  0  0  0  0  0
  148.9030  135.3760  154.4801 H   0  0  0  0  0  0  0  0  0  0  0  0
  149.4231  131.8176  155.0267 H   0  0  0  0  0  0  0  0  0  0  0  0
  150.1330  130.7880  157.1790 H   0  0  0  0  0  0  0  0  0  0  0  0
  147.7706  134.7751  152.2895 H   0  0  0  0  0  0  0  0  0  0  0  0
  145.1534  133.8282  152.7892 H   0  0  0  0  0  0  0  0  0  0  0  0
  146.9524  131.8801  151.2610 H   0  0  0  0  0  0  0  0  0  0  0  0
  146.1605  131.5574  152.7843 H   0  0  0  0  0  0  0  0  0  0  0  0
  144.9045  130.5622  150.8718 H   0  0  0  0  0  0  0  0  0  0  0  0
  143.9376  131.7333  151.7357 H   0  0  0  0  0  0  0  0  0  0  0  0
  145.4200  132.2105  149.1043 H   0  0  0  0  0  0  0  0  0  0  0  0
  143.6881  132.0889  149.3033 H   0  0  0  0  0  0  0  0  0  0  0  0
  144.4282  134.4751  149.1360 H   0  0  0  0  0  0  0  0  0  0  0  0
  143.6446  134.1516  150.6638 H   0  0  0  0  0  0  0  0  0  0  0  0
  145.6900  135.4797  151.0421 H   0  0  0  0  0  0  0  0  0  0  0  0
  146.6570  134.3080  150.1784 H   0  0  0  0  0  0  0  0  0  0  0  0
  1  2  2  0  0  0  0
  2  3  1  0  0  0  0
  2 12  1  0  0  0  0
  3  4  1  0  0  0  0
  3 19  1  0  0  0  0
  3 20  1  0  0  0  0
  4 10  1  0  0  0  0
  4  5  1  0  0  0  0
  5  6  2  0  0  0  0
  5 21  1  0  0  0  0
  6  7  1  0  0  0  0
  6 22  1  0  0  0  0
  7  8  2  0  0  0  0
  7  9  1  0  0  0  0
  9 10  1  0  0  0  0
 10 11  2  0  0  0  0
 12 13  1  0  0  0  0
 12 23  1  0  0  0  0
 13 18  1  0  0  0  0
 13 14  1  0  0  0  0
 13 24  1  0  0  0  0
 14 15  1  0  0  0  0
 14 25  1  0  0  0  0
 14 26  1  0  0  0  0
 15 16  1  0  0  0  0
 15 27  1  0  0  0  0
 15 28  1  0  0  0  0
 16 17  1  0  0  0  0
 16 29  1  0  0  0  0
 16 30  1  0  0  0  0
 17 18  1  0  0  0  0
 17 31  1  0  0  0  0
 17 32  1  0  0  0  0
 18 33  1  0  0  0  0
 18 34  1  0  0  0  0
M  CHG  1   9  -1
M  END
> <s_m_source_file>
AV-unprocessed.smi

> <i_m_source_file_index>
409

> <i_lp_mmshare_version>
43012

> <i_f3d_flags>
0

> <s_epik_input>
W0NIMl0xW0NIMl1bQ0gyXVtDSDJdW0NIMl1bQ0hdMVtOSF1DKD1PKVtDSDJdbjJbY0hdW2NIXWMoPU8pW25IXWMyPU8=

> <s_epik_cmdline>
J2VwaWtfcHl0aG9uJywgJy1waCcsICc3LjAnLCAnLXRuJywgJzgnLCAnLW1hJywgJzIwMCcsICctbWV0YWxfYmluZGluZycsICctaW1hZScsICc8aW5maWxlLm1hZT4nLCAnLW9tYWUnLCAnPG91dGZpbGUubWFlPic=

> <r_lp_tautomer_probability>
0.999537

> <r_epik_Ionization_Penalty>
3.11464

> <r_epik_Ionization_Penalty_Charging>
2.89611e-08

> <r_epik_Ionization_Penalty_Neutral>
3.11464

> <r_epik_State_Penalty>
3.11372

> <r_epik_Charging_Adjusted_Penalty>
3.11373

> <i_epik_Tot_Q>
-1

> <i_epik_Tot_abs_Q>
1

> <r_epik_Metal_State_Penalty>
0.463005

> <b_epik_Metal_Only>
1

> <s_lp_Force_Field>
OPLS_2005

> <r_lp_Energy>
17.6148

> <b_lp_Chiralities_Consistent>
1

> <s_lp_Variant>
AV-unprocessed.smi:409-2

> <Gold.Version>
5.8.1

> <Gold.Id.Protein>
6NUR|6NUR_protein|mol2

> <Gold.PLP.Fitness>
40.7880

> <Gold.PLP.PLP>
-31.8139

> <Gold.PLP.part.hbond>
-2.0000

> <Gold.PLP.part.metal>
0.0000

> <Gold.PLP.part.buried>
-4.1210

> <Gold.PLP.part.nonpolar>
-25.0311

> <Gold.PLP.part.repulsive>
0.0561

> <Gold.PLP.ligand.clash>
0.0000

> <Gold.PLP.ligand.torsion>
0.0153

> <Gold.PLP.Chemscore.Hbond>
3.0000

> <Gold.PLP.Chemscore.CHOScore>
0.0000

> <Gold.PLP.Chemscore.Metal>
0.0000

> <Gold.Chemscore.Hbonds>
donor molecule, donor type, donor heavy atom, donor atom, acceptor molecule, acceptor atom, score
      L1  H    12    23       P1  7948  1.00

> <Gold.PLP.Chemscore.Internal.Correction>
0.0047

> <Gold.Rescore>
     Score         DG    S(hbond)    S(metal)    S(lipo)     H(rot)  DE(clash)    DE(int)     intcor
     11.97     -14.48       1.85        0.00      60.52       1.67       0.01       2.50       ----

> <Gold.Chemscore.Fitness>
11.9659

> <Gold.Chemscore.DG>
-14.4770

> <Gold.Chemscore.ZeroCoef>
-5.4800

> <Gold.Chemscore.Hbond>
1.8530

> <Gold.Chemscore.Metal>
0.0000

> <Gold.Chemscore.Lipo>
60.5177

> <Gold.Chemscore.Internal_Hbond>
0.0000

> <Gold.Chemscore.DEClash>
0.0077

> <Gold.Chemscore.DEInternal>
2.5034

> <Gold.Chemscore.Rot>
1.6690

> <Gold.Chemscore.Internal.Correction>
   9.000000E+99

> <Gold.Chemscore.Hbonds>
donor molecule, donor type, donor heavy atom, donor atom, acceptor molecule, acceptor atom, score
      L1  H    12    23       P1  7948  0.74

> <Gold.Chemscore.Hbond.Weighted>
-6.1890

> <Gold.Chemscore.Metal.Weighted>
-0.0000

> <Gold.Chemscore.Lipo.Weighted>
-7.0806

> <Gold.Chemscore.Internal_Hbond.Weighted>
0.0000

> <Gold.Chemscore.DEClash.Weighted>
0.0077

> <Gold.Chemscore.DEInternal.Weighted>
2.5034

> <Gold.Chemscore.Rot.Weighted>
4.2726

> <Gold.Chemscore.Internal.Correction.Weighted>
   9.000000E+99

> <Gold.Protein.RotatedTorsions>
[ 6907 6896 6895 6894 ] final -154.57 input  -60.11 | X-H torsion
[ 7974 7965 7964 7962 ] final  -32.19 input  175.53 | X-H torsion
[ 8008 7997 7996 7995 ] final  163.35 input   59.86 | X-H torsion
[ 10167 10162 10161 10158 ] final    8.75 input  -65.29 | X-H torsion
[ 10718 10713 10712 10709 ] final   18.35 input   66.30 | X-H torsion
[ 10763 10752 10751 10750 ] final -118.31 input  -60.55 | X-H torsion
[ 11005 11000 10999 10996 ] final -135.19 input  -57.11 | X-H torsion

> <Gold.Protein.ActiveResidues>
 VAL166  LYS551  ARG553  GLY616  TRP617  ASP618  TYR619  PRO620  LYS621  CYS622 
 ASP623  PHE694  ASN695  SER759  ASP760  ASP761  ALA762  ILE779  LEU786  VAL792 
 PHE793  MET794  SER795  GLU796  ALA797  LYS798  CYS799  TRP800  GLU811  SER814 

> <Gold.Protein.RotatedAtoms>
  151.2595  133.4309  159.2615 H   0  0  0  0  0  0  0  0  0  0  0  0  # atno 6907 bound_to 6896
  151.0544  134.9695  159.8238 H   0  0  0  0  0  0  0  0  0  0  0  0  # atno 6908 bound_to 6896
  152.5388  134.2548  159.8965 H   0  0  0  0  0  0  0  0  0  0  0  0  # atno 6909 bound_to 6896
  146.1009  140.5762  142.8821 H   0  0  0  0  0  0  0  0  0  0  0  0  # atno 7974 bound_to 7965
  156.1964  140.1726  156.7990 H   0  0  0  0  0  0  0  0  0  0  0  0  # atno 8008 bound_to 7997
  154.5535  140.0713  156.8737 H   0  0  0  0  0  0  0  0  0  0  0  0  # atno 8009 bound_to 7997
  155.2984  140.3360  155.4251 H   0  0  0  0  0  0  0  0  0  0  0  0  # atno 8010 bound_to 7997
  140.6296  143.8024  150.7278 H   0  0  0  0  0  0  0  0  0  0  0  0  # atno 10167 bound_to 10162
  157.0951  130.6444  149.5858 H   0  0  0  0  0  0  0  0  0  0  0  0  # atno 10718 bound_to 10713
  154.8583  135.4278  154.2119 H   0  0  0  0  0  0  0  0  0  0  0  0  # atno 10763 bound_to 10752
  153.3142  135.6978  153.7094 H   0  0  0  0  0  0  0  0  0  0  0  0  # atno 10764 bound_to 10752
  153.6174  135.3508  155.2973 H   0  0  0  0  0  0  0  0  0  0  0  0  # atno 10765 bound_to 10752
  140.8921  134.1798  157.4520 H   0  0  0  0  0  0  0  0  0  0  0  0  # atno 11005 bound_to 11000
  144.7432  140.4998  143.6854 LP  0  0  0  0  0  0  0  0  0  0  0  0  # atno 17320 bound_to 7965
  145.5856  139.1492  143.3211 LP  0  0  0  0  0  0  0  0  0  0  0  0  # atno 17321 bound_to 7965
  140.1632  143.4257  152.2052 LP  0  0  0  0  0  0  0  0  0  0  0  0  # atno 17342 bound_to 10162
  139.5512  144.7338  151.4431 LP  0  0  0  0  0  0  0  0  0  0  0  0  # atno 17343 bound_to 10162
  155.9888  130.4933  150.7185 LP  0  0  0  0  0  0  0  0  0  0  0  0  # atno 17370 bound_to 10713
  157.4688  131.0891  151.0665 LP  0  0  0  0  0  0  0  0  0  0  0  0  # atno 17371 bound_to 10713
  139.8731  134.9863  156.5317 LP  0  0  0  0  0  0  0  0  0  0  0  0  # atno 17394 bound_to 11000
  140.8334  133.8261  155.9006 LP  0  0  0  0  0  0  0  0  0  0  0  0  # atno 17395 bound_to 11000

$$$$
