AV-unprocessed.smi:709|AV-procd|sdf|3459|dock1
  -GOLD-   22720 0443D 1   1.00000     0.00000
 Structure written by MMmdl.
 48 50  0  0  0  0  0  0  0  0  1 V2000
  152.5697  143.3392  160.9446 C   0  0  0  0  0  0  0  0  0  0  0  0
  152.9012  142.1748  160.0088 C   0  0  0  0  0  0  0  0  0  0  0  0
  151.9078  142.1035  159.0005 O   0  0  0  0  0  0  0  0  0  0  0  0
  152.0015  140.9264  158.2146 C   0  0  1  0  0  0  0  0  0  0  0  0
  151.6703  139.6316  158.9647 C   0  0  0  0  0  0  0  0  0  0  0  0
  151.0192  139.1772  157.6575 C   0  0  1  0  0  0  0  0  0  0  0  0
  149.8208  138.3732  157.8701 N   0  0  0  0  0  0  0  0  0  0  0  0
  149.7240  137.3840  158.7681 C   0  0  0  0  0  0  0  0  0  0  0  0
  150.6372  137.0785  159.5346 O   0  0  0  0  0  0  0  0  0  0  0  0
  148.5141  136.7985  158.7100 N   0  0  0  0  0  0  0  0  0  0  0  0
  148.0236  135.6993  159.4359 C   0  0  0  0  0  0  0  0  0  0  0  0
  147.9890  134.4247  158.9716 C   0  0  0  0  0  0  0  0  0  0  0  0
  147.4566  133.3545  159.7803 C   0  0  0  0  0  0  0  0  0  0  0  0
  146.9842  133.6514  160.9988 C   0  0  0  0  0  0  0  0  0  0  0  0
  146.9976  134.9663  161.4949 N   0  0  0  0  0  0  0  0  0  0  0  0
  146.4563  135.1897  162.8379 C   0  0  0  0  0  0  0  0  0  0  0  0
  147.4930  136.0174  160.7759 C   0  0  0  0  0  0  0  0  0  0  0  0
  147.4905  137.1622  161.2357 O   0  0  0  0  0  0  0  0  0  0  0  0
  150.7576  140.6732  157.3287 C   0  0  0  0  0  0  0  0  0  0  0  0
  150.8311  141.0879  155.8627 C   0  0  0  0  0  0  0  0  0  0  0  0
  149.3966  141.1501  155.3264 C   0  0  0  0  0  0  0  0  0  0  0  0
  148.4876  141.2630  156.5537 C   0  0  0  0  0  0  0  0  0  0  0  0
  149.4252  141.3036  157.7626 C   0  0  0  0  0  0  0  0  0  0  0  0
  153.3175  143.4315  161.7322 H   0  0  0  0  0  0  0  0  0  0  0  0
  151.5989  143.1945  161.4191 H   0  0  0  0  0  0  0  0  0  0  0  0
  152.5390  144.2829  160.3994 H   0  0  0  0  0  0  0  0  0  0  0  0
  153.8832  142.3271  159.5587 H   0  0  0  0  0  0  0  0  0  0  0  0
  152.9373  141.2423  160.5738 H   0  0  0  0  0  0  0  0  0  0  0  0
  152.9312  140.8620  157.6438 H   0  0  0  0  0  0  0  0  0  0  0  0
  152.5377  139.0470  159.2721 H   0  0  0  0  0  0  0  0  0  0  0  0
  150.9649  139.7783  159.7850 H   0  0  0  0  0  0  0  0  0  0  0  0
  151.7514  138.7178  156.9883 H   0  0  0  0  0  0  0  0  0  0  0  0
  149.0249  138.5688  157.2807 H   0  0  0  0  0  0  0  0  0  0  0  0
  147.8451  137.2144  158.0782 H   0  0  0  0  0  0  0  0  0  0  0  0
  148.3382  134.1692  157.9842 H   0  0  0  0  0  0  0  0  0  0  0  0
  147.4408  132.3391  159.4127 H   0  0  0  0  0  0  0  0  0  0  0  0
  146.5713  132.9071  161.6641 H   0  0  0  0  0  0  0  0  0  0  0  0
  145.6273  135.8986  162.8053 H   0  0  0  0  0  0  0  0  0  0  0  0
  147.2251  135.5951  163.4975 H   0  0  0  0  0  0  0  0  0  0  0  0
  146.0820  134.2751  163.2992 H   0  0  0  0  0  0  0  0  0  0  0  0
  151.2902  142.0740  155.7815 H   0  0  0  0  0  0  0  0  0  0  0  0
  151.4433  140.4079  155.2694 H   0  0  0  0  0  0  0  0  0  0  0  0
  149.2659  141.9915  154.6454 H   0  0  0  0  0  0  0  0  0  0  0  0
  149.1587  140.2420  154.7714 H   0  0  0  0  0  0  0  0  0  0  0  0
  147.8505  142.1470  156.5117 H   0  0  0  0  0  0  0  0  0  0  0  0
  147.8330  140.3928  156.6117 H   0  0  0  0  0  0  0  0  0  0  0  0
  148.9805  140.8166  158.6306 H   0  0  0  0  0  0  0  0  0  0  0  0
  149.5789  142.3463  158.0427 H   0  0  0  0  0  0  0  0  0  0  0  0
  1  2  1  0  0  0  0
  1 24  1  0  0  0  0
  1 25  1  0  0  0  0
  1 26  1  0  0  0  0
  2  3  1  0  0  0  0
  2 27  1  0  0  0  0
  2 28  1  0  0  0  0
  3  4  1  0  0  0  0
  4 19  1  0  0  0  0
  4  5  1  0  0  0  0
  4 29  1  0  0  0  0
  5  6  1  0  0  0  0
  5 30  1  0  0  0  0
  5 31  1  0  0  0  0
  6  7  1  0  0  0  0
  6 19  1  0  0  0  0
  6 32  1  0  0  0  0
  7  8  1  0  0  0  0
  7 33  1  0  0  0  0
  8  9  2  0  0  0  0
  8 10  1  0  0  0  0
 10 11  1  0  0  0  0
 10 34  1  0  0  0  0
 11 17  1  0  0  0  0
 11 12  2  0  0  0  0
 12 13  1  0  0  0  0
 12 35  1  0  0  0  0
 13 14  2  0  0  0  0
 13 36  1  0  0  0  0
 14 15  1  0  0  0  0
 14 37  1  0  0  0  0
 15 16  1  0  0  0  0
 15 17  1  0  0  0  0
 16 38  1  0  0  0  0
 16 39  1  0  0  0  0
 16 40  1  0  0  0  0
 17 18  2  0  0  0  0
 19 23  1  0  0  0  0
 19 20  1  0  0  0  0
 20 21  1  0  0  0  0
 20 41  1  0  0  0  0
 20 42  1  0  0  0  0
 21 22  1  0  0  0  0
 21 43  1  0  0  0  0
 21 44  1  0  0  0  0
 22 23  1  0  0  0  0
 22 45  1  0  0  0  0
 22 46  1  0  0  0  0
 23 47  1  0  0  0  0
 23 48  1  0  0  0  0
M  END
> <s_m_source_file>
AV-unprocessed.smi

> <i_m_source_file_index>
709

> <i_lp_mmshare_version>
43012

> <i_f3d_flags>
0

> <s_epik_input>
W0NIMl0xW0NIMl1bQ0gyXVtDSDJdQzEyW0NASF0oT1tDSDJdW0NIM10pW0NIMl1bQ0BIXTJbTkhdQyg9TylbTkhdYzNbY0hdW2NIXVtjSF1uKFtDSDNdKWMzPU8=

> <s_epik_cmdline>
J2VwaWtfcHl0aG9uJywgJy1waCcsICc3LjAnLCAnLXRuJywgJzgnLCAnLW1hJywgJzIwMCcsICctbWV0YWxfYmluZGluZycsICctaW1hZScsICc8aW5maWxlLm1hZT4nLCAnLW9tYWUnLCAnPG91dGZpbGUubWFlPic=

> <r_lp_tautomer_probability>
1

> <r_epik_Ionization_Penalty>
2.50859e-05

> <r_epik_Ionization_Penalty_Charging>
5.10493e-06

> <r_epik_Ionization_Penalty_Neutral>
1.9981e-05

> <r_epik_State_Penalty>
-0

> <r_epik_Charging_Adjusted_Penalty>
5.10493e-06

> <i_epik_Tot_Q>
0

> <i_epik_Tot_abs_Q>
0

> <r_epik_Metal_State_Penalty>
-0

> <b_epik_Metal_Only>
0

> <s_lp_Force_Field>
OPLS_2005

> <r_lp_Energy>
49.4881

> <b_lp_Chiralities_Consistent>
1

> <s_lp_Variant>
AV-unprocessed.smi:709-2

> <Gold.Version>
5.8.1

> <Gold.Id.Protein>
6NUR|6NUR_protein|mol2

> <Gold.PLP.Fitness>
47.5717

> <Gold.PLP.PLP>
-40.7420

> <Gold.PLP.part.hbond>
-3.0000

> <Gold.PLP.part.metal>
0.0000

> <Gold.PLP.part.buried>
-6.9147

> <Gold.PLP.part.nonpolar>
-32.4046

> <Gold.PLP.part.repulsive>
0.2125

> <Gold.PLP.ligand.clash>
0.0000

> <Gold.PLP.ligand.torsion>
1.0843

> <Gold.PLP.Chemscore.Hbond>
2.8812

> <Gold.PLP.Chemscore.CHOScore>
0.0000

> <Gold.PLP.Chemscore.Metal>
0.0000

> <Gold.Chemscore.Hbonds>
donor molecule, donor type, donor heavy atom, donor atom, acceptor molecule, acceptor atom, score
      P1  H  6896  6908       L1     9  0.84
      P1  H  6931  6943       L1    18  0.91
      P1  H  6934  6947       L1    18  0.94

> <Gold.PLP.Chemscore.Internal.Correction>
0.3546

> <Gold.Rescore>
     Score         DG    S(hbond)    S(metal)    S(lipo)     H(rot)  DE(clash)    DE(int)     intcor
     19.55     -21.94       2.78        0.00      91.10       1.36       0.01       2.38       ----

> <Gold.Chemscore.Fitness>
19.5519

> <Gold.Chemscore.DG>
-21.9408

> <Gold.Chemscore.ZeroCoef>
-5.4800

> <Gold.Chemscore.Hbond>
2.7793

> <Gold.Chemscore.Metal>
0.0000

> <Gold.Chemscore.Lipo>
91.1031

> <Gold.Chemscore.Internal_Hbond>
0.0000

> <Gold.Chemscore.DEClash>
0.0057

> <Gold.Chemscore.DEInternal>
2.3832

> <Gold.Chemscore.Rot>
1.3599

> <Gold.Chemscore.Internal.Correction>
   9.000000E+99

> <Gold.Chemscore.Hbonds>
donor molecule, donor type, donor heavy atom, donor atom, acceptor molecule, acceptor atom, score
      P1  H  6896  6908       L1     9  0.82
      P1  H  6931  6943       L1    18  0.86
      P1  H  6934  6947       L1    18  0.91

> <Gold.Chemscore.Hbond.Weighted>
-9.2830

> <Gold.Chemscore.Metal.Weighted>
-0.0000

> <Gold.Chemscore.Lipo.Weighted>
-10.6591

> <Gold.Chemscore.Internal_Hbond.Weighted>
0.0000

> <Gold.Chemscore.DEClash.Weighted>
0.0057

> <Gold.Chemscore.DEInternal.Weighted>
2.3832

> <Gold.Chemscore.Rot.Weighted>
3.4813

> <Gold.Chemscore.Internal.Correction.Weighted>
   9.000000E+99

> <Gold.Protein.RotatedTorsions>
[ 6907 6896 6895 6894 ] final -131.86 input  -60.11 | X-H torsion
[ 7974 7965 7964 7962 ] final  -95.12 input  175.53 | X-H torsion
[ 8008 7997 7996 7995 ] final   79.45 input   59.86 | X-H torsion
[ 10167 10162 10161 10158 ] final  -75.59 input  -65.29 | X-H torsion
[ 10718 10713 10712 10709 ] final   48.50 input   66.30 | X-H torsion
[ 10763 10752 10751 10750 ] final   47.32 input  -60.55 | X-H torsion
[ 11005 11000 10999 10996 ] final  -10.09 input  -57.11 | X-H torsion

> <Gold.Protein.ActiveResidues>
 VAL166  LYS551  ARG553  GLY616  TRP617  ASP618  TYR619  PRO620  LYS621  CYS622 
 ASP623  PHE694  ASN695  SER759  ASP760  ASP761  ALA762  ILE779  LEU786  VAL792 
 PHE793  MET794  SER795  GLU796  ALA797  LYS798  CYS799  TRP800  GLU811  SER814 

> <Gold.Protein.RotatedAtoms>
  150.9558  133.6499  159.2763 H   0  0  0  0  0  0  0  0  0  0  0  0  # atno 6907 bound_to 6896
  151.3839  135.0943  159.9514 H   0  0  0  0  0  0  0  0  0  0  0  0  # atno 6908 bound_to 6896
  152.5128  133.9087  159.7531 H   0  0  0  0  0  0  0  0  0  0  0  0  # atno 6909 bound_to 6896
  145.3643  140.9496  143.2483 H   0  0  0  0  0  0  0  0  0  0  0  0  # atno 7974 bound_to 7965
  155.8699  140.3449  155.5814 H   0  0  0  0  0  0  0  0  0  0  0  0  # atno 8008 bound_to 7997
  155.7839  140.0862  157.2064 H   0  0  0  0  0  0  0  0  0  0  0  0  # atno 8009 bound_to 7997
  154.4016  140.1495  156.3072 H   0  0  0  0  0  0  0  0  0  0  0  0  # atno 8010 bound_to 7997
  140.4930  143.2376  151.7877 H   0  0  0  0  0  0  0  0  0  0  0  0  # atno 10167 bound_to 10162
  157.4693  130.8245  149.7970 H   0  0  0  0  0  0  0  0  0  0  0  0  # atno 10718 bound_to 10713
  152.9801  135.5980  154.3744 H   0  0  0  0  0  0  0  0  0  0  0  0  # atno 10763 bound_to 10752
  154.3415  135.2767  155.2422 H   0  0  0  0  0  0  0  0  0  0  0  0  # atno 10764 bound_to 10752
  154.4502  135.5991  153.6241 H   0  0  0  0  0  0  0  0  0  0  0  0  # atno 10765 bound_to 10752
  140.7411  133.8670  155.8968 H   0  0  0  0  0  0  0  0  0  0  0  0  # atno 11005 bound_to 11000
  144.8623  139.5159  143.6806 LP  0  0  0  0  0  0  0  0  0  0  0  0  # atno 17320 bound_to 7965
  146.2913  139.7149  142.9158 LP  0  0  0  0  0  0  0  0  0  0  0  0  # atno 17321 bound_to 7965
  139.4855  144.4624  151.9524 LP  0  0  0  0  0  0  0  0  0  0  0  0  # atno 17342 bound_to 10162
  140.3712  144.2853  150.5920 LP  0  0  0  0  0  0  0  0  0  0  0  0  # atno 17343 bound_to 10162
  156.0065  130.3853  150.2412 LP  0  0  0  0  0  0  0  0  0  0  0  0  # atno 17370 bound_to 10713
  157.0594  131.0085  151.3227 LP  0  0  0  0  0  0  0  0  0  0  0  0  # atno 17371 bound_to 10713
  140.9836  134.1373  157.4472 LP  0  0  0  0  0  0  0  0  0  0  0  0  # atno 17394 bound_to 11000
  139.8806  135.0018  156.6090 LP  0  0  0  0  0  0  0  0  0  0  0  0  # atno 17395 bound_to 11000

$$$$
