AV-unprocessed.smi:3112|AV-procd|sdf|11842|dock1
  -GOLD-   2272017223D 1   1.00000     0.00000
 Structure written by MMmdl.
 37 37  0  0  0  0  0  0  0  0  2 V2000
  145.7343  135.1537  151.4561 C   0  0  0  0  0  0  0  0  0  0  0  0
  146.1956  136.2493  152.4270 C   0  0  0  0  0  0  0  0  0  0  0  0
  145.9593  137.6762  151.8988 C   0  0  2  0  0  0  0  0  0  0  0  0
  146.5455  137.7932  150.6169 O   0  0  0  0  0  0  0  0  0  0  0  0
  146.5863  138.7396  152.8160 C   0  0  0  0  0  0  0  0  0  0  0  0
  148.0587  138.6092  152.8558 N   0  3  0  0  0  0  0  0  0  0  0  0
  148.6961  138.9782  154.1407 C   0  0  1  0  0  0  0  0  0  0  0  0
  149.9626  138.1257  154.3683 C   0  0  0  0  0  0  0  0  0  0  0  0
  148.9806  140.5032  154.1616 C   0  0  1  0  0  0  0  0  0  0  0  0
  147.6915  141.3452  154.2087 C   0  0  0  0  0  0  0  0  0  0  0  0
  149.8585  140.8822  155.2624 N   0  0  0  0  0  0  0  0  0  0  0  0
  149.5703  141.6489  156.3745 C   0  0  0  0  0  0  0  0  0  0  0  0
  150.7061  141.7175  157.1291 C   0  0  0  0  0  0  0  0  0  0  0  0
  151.6493  140.9505  156.3903 C   0  0  0  0  0  0  0  0  0  0  0  0
  151.1389  140.4511  155.2763 N   0  0  0  0  0  0  0  0  0  0  0  0
  145.8845  134.1647  151.8899 H   0  0  0  0  0  0  0  0  0  0  0  0
  146.2909  135.1896  150.5193 H   0  0  0  0  0  0  0  0  0  0  0  0
  144.6742  135.2551  151.2214 H   0  0  0  0  0  0  0  0  0  0  0  0
  145.6550  136.1216  153.3657 H   0  0  0  0  0  0  0  0  0  0  0  0
  147.2509  136.1072  152.6642 H   0  0  0  0  0  0  0  0  0  0  0  0
  144.8862  137.8549  151.8129 H   0  0  0  0  0  0  0  0  0  0  0  0
  145.8727  138.0378  149.9990 H   0  0  0  0  0  0  0  0  0  0  0  0
  146.3420  139.7349  152.4420 H   0  0  0  0  0  0  0  0  0  0  0  0
  146.1660  138.6648  153.8192 H   0  0  0  0  0  0  0  0  0  0  0  0
  148.3129  137.6592  152.6246 H   0  0  0  0  0  0  0  0  0  0  0  0
  147.9925  138.7609  154.9462 H   0  0  0  0  0  0  0  0  0  0  0  0
  150.4120  138.3182  155.3425 H   0  0  0  0  0  0  0  0  0  0  0  0
  150.7178  138.3334  153.6093 H   0  0  0  0  0  0  0  0  0  0  0  0
  149.7459  137.0584  154.3348 H   0  0  0  0  0  0  0  0  0  0  0  0
  149.4990  140.7570  153.2345 H   0  0  0  0  0  0  0  0  0  0  0  0
  147.0635  141.1679  153.3356 H   0  0  0  0  0  0  0  0  0  0  0  0
  147.9223  142.4109  154.2276 H   0  0  0  0  0  0  0  0  0  0  0  0
  147.0972  141.1194  155.0945 H   0  0  0  0  0  0  0  0  0  0  0  0
  148.5918  142.0766  156.5357 H   0  0  0  0  0  0  0  0  0  0  0  0
  150.8424  142.2360  158.0666 H   0  0  0  0  0  0  0  0  0  0  0  0
  152.6819  140.7424  156.6294 H   0  0  0  0  0  0  0  0  0  0  0  0
  148.4304  139.2200  152.1425 H   0  0  0  0  0  0  0  0  0  0  0  0
  1  2  1  0  0  0  0
  1 16  1  0  0  0  0
  1 17  1  0  0  0  0
  1 18  1  0  0  0  0
  2  3  1  0  0  0  0
  2 19  1  0  0  0  0
  2 20  1  0  0  0  0
  3  4  1  0  0  0  0
  3  5  1  0  0  0  0
  3 21  1  0  0  0  0
  4 22  1  0  0  0  0
  5  6  1  0  0  0  0
  5 23  1  0  0  0  0
  5 24  1  0  0  0  0
  6  7  1  0  0  0  0
  6 25  1  0  0  0  0
  6 37  1  0  0  0  0
  7  8  1  0  0  0  0
  7  9  1  0  0  0  0
  7 26  1  0  0  0  0
  8 27  1  0  0  0  0
  8 28  1  0  0  0  0
  8 29  1  0  0  0  0
  9 10  1  0  0  0  0
  9 11  1  0  0  0  0
  9 30  1  0  0  0  0
 10 31  1  0  0  0  0
 10 32  1  0  0  0  0
 10 33  1  0  0  0  0
 11 15  1  0  0  0  0
 11 12  1  0  0  0  0
 12 13  2  0  0  0  0
 12 34  1  0  0  0  0
 13 14  1  0  0  0  0
 13 35  1  0  0  0  0
 14 15  2  0  0  0  0
 14 36  1  0  0  0  0
M  CHG  1   6   1
M  END
> <s_m_source_file>
AV-unprocessed.smi

> <i_m_source_file_index>
3112

> <i_lp_mmshare_version>
43012

> <i_f3d_flags>
0

> <s_epik_input>
W0NIM11bQ0gyXVtDQEhdKFtPSF0pW0NIMl1bTkhdW0NASF0oW0NIM10pW0NASF0oW0NIM10pbjFbY0hdW2NIXVtjSF1uMQ==

> <s_epik_cmdline>
J2VwaWtfcHl0aG9uJywgJy1waCcsICc3LjAnLCAnLXRuJywgJzgnLCAnLW1hJywgJzIwMCcsICctbWV0YWxfYmluZGluZycsICctaW1hZScsICc8aW5maWxlLm1hZT4nLCAnLW9tYWUnLCAnPG91dGZpbGUubWFlPic=

> <r_lp_tautomer_probability>
1

> <r_epik_Ionization_Penalty>
0.0154842

> <r_epik_Ionization_Penalty_Charging>
0.0154724

> <r_epik_Ionization_Penalty_Neutral>
1.17979e-05

> <r_epik_State_Penalty>
0.0121607

> <r_epik_Charging_Adjusted_Penalty>
0.0276331

> <i_epik_Tot_Q>
1

> <i_epik_Tot_abs_Q>
1

> <r_epik_Metal_State_Penalty>
0.0121863

> <b_epik_Metal_Only>
0

> <s_lp_Force_Field>
OPLS_2005

> <r_lp_Energy>
13.0446

> <b_lp_Chiralities_Consistent>
1

> <s_lp_Variant>
AV-unprocessed.smi:3112-7

> <Gold.Version>
5.8.1

> <Gold.Id.Protein>
6NUR|6NUR_protein|mol2

> <Gold.PLP.Fitness>
47.4831

> <Gold.PLP.PLP>
-30.4709

> <Gold.PLP.part.hbond>
-5.7055

> <Gold.PLP.part.metal>
0.0000

> <Gold.PLP.part.buried>
0.3587

> <Gold.PLP.part.nonpolar>
-25.6651

> <Gold.PLP.part.repulsive>
0.0846

> <Gold.PLP.ligand.clash>
0.0000

> <Gold.PLP.ligand.torsion>
0.9274

> <Gold.PLP.Chemscore.Hbond>
5.5406

> <Gold.PLP.Chemscore.CHOScore>
0.6625

> <Gold.PLP.Chemscore.Metal>
0.0000

> <Gold.Chemscore.Hbonds>
donor molecule, donor type, donor heavy atom, donor atom, acceptor molecule, acceptor atom, score
      L1  H     4    22       P1 10171  0.84
      L1  H     6    25       P1  7948  2.00
      L1  H     6    37       P1  7957  1.00
      P1  H  7954  7966       L1     4  1.00
      P1  H  7989  7998       L1    15  0.98
      L1  C    12    34       P1  8028  0.16

> <Gold.PLP.Chemscore.Internal.Correction>
0.2578

> <Gold.Rescore>
     Score         DG    S(hbond)    S(metal)    S(lipo)     H(rot)  DE(clash)    DE(int)     intcor
     16.69     -20.57       3.86        0.00      71.48       2.41       1.49       2.39       ----

> <Gold.Chemscore.Fitness>
16.6888

> <Gold.Chemscore.DG>
-20.5708

> <Gold.Chemscore.ZeroCoef>
-5.4800

> <Gold.Chemscore.Hbond>
3.8605

> <Gold.Chemscore.Metal>
0.0000

> <Gold.Chemscore.Lipo>
71.4830

> <Gold.Chemscore.Internal_Hbond>
0.0000

> <Gold.Chemscore.DEClash>
1.4915

> <Gold.Chemscore.DEInternal>
2.3905

> <Gold.Chemscore.Rot>
2.4089

> <Gold.Chemscore.Internal.Correction>
   9.000000E+99

> <Gold.Chemscore.Hbonds>
donor molecule, donor type, donor heavy atom, donor atom, acceptor molecule, acceptor atom, score
      L1  H     4    22       P1 10171  0.78
      L1  H     6    25       P1  7948  1.00
      L1  H     6    37       P1  7957  0.99
      P1  H  7954  7966       L1     4  0.75
      P1  H  7989  7998       L1    15  0.24

> <Gold.Chemscore.Hbond.Weighted>
-12.8940

> <Gold.Chemscore.Metal.Weighted>
-0.0000

> <Gold.Chemscore.Lipo.Weighted>
-8.3635

> <Gold.Chemscore.Internal_Hbond.Weighted>
0.0000

> <Gold.Chemscore.DEClash.Weighted>
1.4915

> <Gold.Chemscore.DEInternal.Weighted>
2.3905

> <Gold.Chemscore.Rot.Weighted>
6.1667

> <Gold.Chemscore.Internal.Correction.Weighted>
   9.000000E+99

> <Gold.Protein.RotatedTorsions>
[ 6907 6896 6895 6894 ] final  -79.20 input  -60.11 | X-H torsion
[ 7974 7965 7964 7962 ] final   83.53 input  175.53 | X-H torsion
[ 8008 7997 7996 7995 ] final  -36.67 input   59.86 | X-H torsion
[ 10167 10162 10161 10158 ] final  -89.99 input  -65.29 | X-H torsion
[ 10718 10713 10712 10709 ] final  -66.51 input   66.30 | X-H torsion
[ 10763 10752 10751 10750 ] final   96.50 input  -60.55 | X-H torsion
[ 11005 11000 10999 10996 ] final  -58.59 input  -57.11 | X-H torsion

> <Gold.Protein.ActiveResidues>
 VAL166  LYS551  ARG553  GLY616  TRP617  ASP618  TYR619  PRO620  LYS621  CYS622 
 ASP623  PHE694  ASN695  SER759  ASP760  ASP761  ALA762  ILE779  LEU786  VAL792 
 PHE793  MET794  SER795  GLU796  ALA797  LYS798  CYS799  TRP800  GLU811  SER814 

> <Gold.Protein.RotatedAtoms>
  150.6955  134.4156  159.5181 H   0  0  0  0  0  0  0  0  0  0  0  0  # atno 6907 bound_to 6896
  152.1907  134.8671  160.0527 H   0  0  0  0  0  0  0  0  0  0  0  0  # atno 6908 bound_to 6896
  151.9627  133.3665  159.4078 H   0  0  0  0  0  0  0  0  0  0  0  0  # atno 6909 bound_to 6896
  145.6107  139.2368  143.2194 H   0  0  0  0  0  0  0  0  0  0  0  0  # atno 7974 bound_to 7965
  154.4068  140.1624  156.2412 H   0  0  0  0  0  0  0  0  0  0  0  0  # atno 8008 bound_to 7997
  155.9200  140.3422  155.6142 H   0  0  0  0  0  0  0  0  0  0  0  0  # atno 8009 bound_to 7997
  155.7234  140.0771  157.2311 H   0  0  0  0  0  0  0  0  0  0  0  0  # atno 8010 bound_to 7997
  140.3593  143.2850  151.9633 H   0  0  0  0  0  0  0  0  0  0  0  0  # atno 10167 bound_to 10162
  156.0609  130.4263  150.1719 H   0  0  0  0  0  0  0  0  0  0  0  0  # atno 10718 bound_to 10713
  153.2657  135.4216  155.0938 H   0  0  0  0  0  0  0  0  0  0  0  0  # atno 10763 bound_to 10752
  154.8437  135.3460  154.6315 H   0  0  0  0  0  0  0  0  0  0  0  0  # atno 10764 bound_to 10752
  153.6735  135.7042  153.5197 H   0  0  0  0  0  0  0  0  0  0  0  0  # atno 10765 bound_to 10752
  141.1214  133.6613  156.4944 H   0  0  0  0  0  0  0  0  0  0  0  0  # atno 11005 bound_to 11000
  146.1506  140.6930  142.9324 LP  0  0  0  0  0  0  0  0  0  0  0  0  # atno 17320 bound_to 7965
  144.7271  140.4558  143.6965 LP  0  0  0  0  0  0  0  0  0  0  0  0  # atno 17321 bound_to 7965
  139.4816  144.6007  151.7611 LP  0  0  0  0  0  0  0  0  0  0  0  0  # atno 17342 bound_to 10162
  140.5142  144.0978  150.6004 LP  0  0  0  0  0  0  0  0  0  0  0  0  # atno 17343 bound_to 10162
  156.9787  130.9857  151.3442 LP  0  0  0  0  0  0  0  0  0  0  0  0  # atno 17370 bound_to 10713
  157.5616  130.8249  149.8273 LP  0  0  0  0  0  0  0  0  0  0  0  0  # atno 17371 bound_to 10713
  140.4497  134.6940  157.5033 LP  0  0  0  0  0  0  0  0  0  0  0  0  # atno 17394 bound_to 11000
  140.0174  134.6599  155.9290 LP  0  0  0  0  0  0  0  0  0  0  0  0  # atno 17395 bound_to 11000

$$$$
