AV-unprocessed.smi:1230|AV-procd|sdf|5152|dock1
  -GOLD-   22720 4223D 1   1.00000     0.00000
 Structure written by MMmdl.
 38 39  0  0  0  0  0  0  0  0  2 V2000
  151.3952  145.2582  158.9574 C   0  0  0  0  0  0  0  0  0  0  0  0
  151.5959  143.8875  159.6242 C   0  0  2  0  0  0  0  0  0  0  0  0
  152.3426  144.0392  160.9650 C   0  0  0  0  0  0  0  0  0  0  0  0
  152.5641  142.6829  161.6515 C   0  0  0  0  0  0  0  0  0  0  0  0
  153.3113  141.7128  160.7262 C   0  0  0  0  0  0  0  0  0  0  0  0
  152.5696  141.5454  159.3924 C   0  0  0  0  0  0  0  0  0  0  0  0
  152.3398  142.9028  158.6941 C   0  0  1  0  0  0  0  0  0  0  0  0
  151.5351  142.6901  157.5432 O   0  0  0  0  0  0  0  0  0  0  0  0
  150.3454  141.9540  157.7873 C   0  0  0  0  0  0  0  0  0  0  0  0
  149.6704  141.6490  156.4421 C   0  0  0  0  0  0  0  0  0  0  0  0
  150.0689  140.3268  155.9398 N   0  0  0  0  0  0  0  0  0  0  0  0
  151.4232  140.1375  155.6161 C   0  0  0  0  0  0  0  0  0  0  0  0
  151.8747  138.9701  155.1204 C   0  0  0  0  0  0  0  0  0  0  0  0
  153.2412  138.7567  154.7739 C   0  0  0  0  0  0  0  0  0  0  0  0
  154.3594  138.5918  154.5218 N   0  0  0  0  0  0  0  0  0  0  0  0
  150.9234  137.8794  154.9217 C   0  0  0  0  0  0  0  0  0  0  0  0
  151.3093  136.7992  154.4768 O   0  0  0  0  0  0  0  0  0  0  0  0
  149.6191  138.1202  155.2467 N   0  5  0  0  0  0  0  0  0  0  0  0
  149.1703  139.3158  155.7422 C   0  0  0  0  0  0  0  0  0  0  0  0
  147.9851  139.5123  156.0120 O   0  0  0  0  0  0  0  0  0  0  0  0
  152.3504  145.7215  158.7088 H   0  0  0  0  0  0  0  0  0  0  0  0
  150.8565  145.9396  159.6161 H   0  0  0  0  0  0  0  0  0  0  0  0
  150.8182  145.1712  158.0365 H   0  0  0  0  0  0  0  0  0  0  0  0
  150.6089  143.4732  159.8361 H   0  0  0  0  0  0  0  0  0  0  0  0
  153.3070  144.5208  160.7970 H   0  0  0  0  0  0  0  0  0  0  0  0
  151.7826  144.6963  161.6313 H   0  0  0  0  0  0  0  0  0  0  0  0
  153.1244  142.8203  162.5766 H   0  0  0  0  0  0  0  0  0  0  0  0
  151.6019  142.2528  161.9325 H   0  0  0  0  0  0  0  0  0  0  0  0
  154.3199  142.0844  160.5408 H   0  0  0  0  0  0  0  0  0  0  0  0
  153.4218  140.7439  161.2138 H   0  0  0  0  0  0  0  0  0  0  0  0
  153.1339  140.8713  158.7483 H   0  0  0  0  0  0  0  0  0  0  0  0
  151.6086  141.0612  159.5710 H   0  0  0  0  0  0  0  0  0  0  0  0
  153.2982  143.3443  158.4123 H   0  0  0  0  0  0  0  0  0  0  0  0
  150.6011  141.0268  158.3011 H   0  0  0  0  0  0  0  0  0  0  0  0
  149.6576  142.4989  158.4347 H   0  0  0  0  0  0  0  0  0  0  0  0
  148.5864  141.7078  156.5495 H   0  0  0  0  0  0  0  0  0  0  0  0
  149.9269  142.4224  155.7167 H   0  0  0  0  0  0  0  0  0  0  0  0
  152.0597  140.9944  155.7826 H   0  0  0  0  0  0  0  0  0  0  0  0
  1  2  1  0  0  0  0
  1 21  1  0  0  0  0
  1 22  1  0  0  0  0
  1 23  1  0  0  0  0
  2  7  1  0  0  0  0
  2  3  1  0  0  0  0
  2 24  1  0  0  0  0
  3  4  1  0  0  0  0
  3 25  1  0  0  0  0
  3 26  1  0  0  0  0
  4  5  1  0  0  0  0
  4 27  1  0  0  0  0
  4 28  1  0  0  0  0
  5  6  1  0  0  0  0
  5 29  1  0  0  0  0
  5 30  1  0  0  0  0
  6  7  1  0  0  0  0
  6 31  1  0  0  0  0
  6 32  1  0  0  0  0
  7  8  1  0  0  0  0
  7 33  1  0  0  0  0
  8  9  1  0  0  0  0
  9 10  1  0  0  0  0
  9 34  1  0  0  0  0
  9 35  1  0  0  0  0
 10 11  1  0  0  0  0
 10 36  1  0  0  0  0
 10 37  1  0  0  0  0
 11 19  1  0  0  0  0
 11 12  1  0  0  0  0
 12 13  2  0  0  0  0
 12 38  1  0  0  0  0
 13 14  1  0  0  0  0
 13 16  1  0  0  0  0
 14 15  3  0  0  0  0
 16 17  2  0  0  0  0
 16 18  1  0  0  0  0
 18 19  1  0  0  0  0
 19 20  2  0  0  0  0
M  CHG  1  18  -1
M  END
> <s_m_source_file>
AV-unprocessed.smi

> <i_m_source_file_index>
1230

> <i_lp_mmshare_version>
43012

> <i_f3d_flags>
0

> <s_epik_input>
W0NIM11bQ0BASF0xW0NIMl1bQ0gyXVtDSDJdW0NIMl1bQ0BIXTFPW0NIMl1bQ0gyXW4yW2NIXWMoQyNOKWMoPU8pW25IXWMyPU8=

> <s_epik_cmdline>
J2VwaWtfcHl0aG9uJywgJy1waCcsICc3LjAnLCAnLXRuJywgJzgnLCAnLW1hJywgJzIwMCcsICctbWV0YWxfYmluZGluZycsICctaW1hZScsICc8aW5maWxlLm1hZT4nLCAnLW9tYWUnLCAnPG91dGZpbGUubWFlPic=

> <r_epik_Ionization_Penalty>
0.400014

> <r_epik_Ionization_Penalty_Charging>
4.81474e-10

> <r_epik_Ionization_Penalty_Neutral>
0.400014

> <r_epik_State_Penalty>
0.399305

> <r_epik_Charging_Adjusted_Penalty>
0.399305

> <i_epik_Tot_Q>
-1

> <i_epik_Tot_abs_Q>
1

> <r_epik_Metal_State_Penalty>
0.00056968

> <b_epik_Metal_Only>
0

> <s_lp_Force_Field>
OPLS_2005

> <r_lp_Energy>
24.1099

> <b_lp_Chiralities_Consistent>
1

> <s_lp_Variant>
AV-unprocessed.smi:1230-1

> <Gold.Version>
5.8.1

> <Gold.Id.Protein>
6NUR|6NUR_protein|mol2

> <Gold.PLP.Fitness>
48.1046

> <Gold.PLP.PLP>
-43.7417

> <Gold.PLP.part.hbond>
-2.0000

> <Gold.PLP.part.metal>
0.0000

> <Gold.PLP.part.buried>
-3.2403

> <Gold.PLP.part.nonpolar>
-38.4790

> <Gold.PLP.part.repulsive>
0.9173

> <Gold.PLP.ligand.clash>
0.0000

> <Gold.PLP.ligand.torsion>
0.2935

> <Gold.PLP.Chemscore.Hbond>
1.6384

> <Gold.PLP.Chemscore.CHOScore>
0.0000

> <Gold.PLP.Chemscore.Metal>
0.0000

> <Gold.Chemscore.Hbonds>
donor molecule, donor type, donor heavy atom, donor atom, acceptor molecule, acceptor atom, score
      P1  H  7997  8008       L1    15  0.52
      P1  H 10752 10765       L1    17  0.98

> <Gold.PLP.Chemscore.Internal.Correction>
0.0346

> <Gold.Rescore>
     Score         DG    S(hbond)    S(metal)    S(lipo)     H(rot)  DE(clash)    DE(int)     intcor
     16.22     -16.59       1.07        0.00     105.94       1.90       0.05       0.31       ----

> <Gold.Chemscore.Fitness>
16.2243

> <Gold.Chemscore.DG>
-16.5900

> <Gold.Chemscore.ZeroCoef>
-5.4800

> <Gold.Chemscore.Hbond>
1.0703

> <Gold.Chemscore.Metal>
0.0000

> <Gold.Chemscore.Lipo>
105.9399

> <Gold.Chemscore.Internal_Hbond>
0.0000

> <Gold.Chemscore.DEClash>
0.0549

> <Gold.Chemscore.DEInternal>
0.3109

> <Gold.Chemscore.Rot>
1.8984

> <Gold.Chemscore.Internal.Correction>
   9.000000E+99

> <Gold.Chemscore.Hbonds>
donor molecule, donor type, donor heavy atom, donor atom, acceptor molecule, acceptor atom, score
      P1  H  7997  8008       L1    15  0.10
      P1  H 10752 10765       L1    17  0.91

> <Gold.Chemscore.Hbond.Weighted>
-3.5749

> <Gold.Chemscore.Metal.Weighted>
-0.0000

> <Gold.Chemscore.Lipo.Weighted>
-12.3950

> <Gold.Chemscore.Internal_Hbond.Weighted>
0.0000

> <Gold.Chemscore.DEClash.Weighted>
0.0549

> <Gold.Chemscore.DEInternal.Weighted>
0.3109

> <Gold.Chemscore.Rot.Weighted>
4.8598

> <Gold.Chemscore.Internal.Correction.Weighted>
   9.000000E+99

> <Gold.Protein.RotatedTorsions>
[ 6907 6896 6895 6894 ] final -154.31 input  -60.11 | X-H torsion
[ 7974 7965 7964 7962 ] final  127.11 input  175.53 | X-H torsion
[ 8008 7997 7996 7995 ] final   33.78 input   59.86 | X-H torsion
[ 10167 10162 10161 10158 ] final  -81.39 input  -65.29 | X-H torsion
[ 10718 10713 10712 10709 ] final  -33.66 input   66.30 | X-H torsion
[ 10763 10752 10751 10750 ] final  150.96 input  -60.55 | X-H torsion
[ 11005 11000 10999 10996 ] final  -75.05 input  -57.11 | X-H torsion

> <Gold.Protein.ActiveResidues>
 VAL166  LYS551  ARG553  GLY616  TRP617  ASP618  TYR619  PRO620  LYS621  CYS622 
 ASP623  PHE694  ASN695  SER759  ASP760  ASP761  ALA762  ILE779  LEU786  VAL792 
 PHE793  MET794  SER795  GLU796  ALA797  LYS798  CYS799  TRP800  GLU811  SER814 

> <Gold.Protein.RotatedAtoms>
  151.2556  133.4328  159.2613 H   0  0  0  0  0  0  0  0  0  0  0  0  # atno 6907 bound_to 6896
  151.0577  134.9716  159.8255 H   0  0  0  0  0  0  0  0  0  0  0  0  # atno 6908 bound_to 6896
  152.5393  134.2508  159.8950 H   0  0  0  0  0  0  0  0  0  0  0  0  # atno 6909 bound_to 6896
  145.0542  139.3857  143.5038 H   0  0  0  0  0  0  0  0  0  0  0  0  # atno 7974 bound_to 7965
  155.1441  140.3269  155.4445 H   0  0  0  0  0  0  0  0  0  0  0  0  # atno 8008 bound_to 7997
  156.2595  140.1988  156.6505 H   0  0  0  0  0  0  0  0  0  0  0  0  # atno 8009 bound_to 7997
  154.6521  140.0557  156.9953 H   0  0  0  0  0  0  0  0  0  0  0  0  # atno 8010 bound_to 7997
  140.4417  143.2512  151.8617 H   0  0  0  0  0  0  0  0  0  0  0  0  # atno 10167 bound_to 10162
  156.3600  130.4322  149.7632 H   0  0  0  0  0  0  0  0  0  0  0  0  # atno 10718 bound_to 10713
  154.0960  135.2849  155.3261 H   0  0  0  0  0  0  0  0  0  0  0  0  # atno 10763 bound_to 10752
  154.6587  135.5342  153.7995 H   0  0  0  0  0  0  0  0  0  0  0  0  # atno 10764 bound_to 10752
  153.0396  135.6528  154.1127 H   0  0  0  0  0  0  0  0  0  0  0  0  # atno 10765 bound_to 10752
  141.1641  133.6933  156.7458 H   0  0  0  0  0  0  0  0  0  0  0  0  # atno 11005 bound_to 11000
  146.3520  140.0208  142.8659 LP  0  0  0  0  0  0  0  0  0  0  0  0  # atno 17320 bound_to 7965
  145.1489  140.9612  143.4445 LP  0  0  0  0  0  0  0  0  0  0  0  0  # atno 17321 bound_to 7965
  139.4790  144.5222  151.8785 LP  0  0  0  0  0  0  0  0  0  0  0  0  # atno 17342 bound_to 10162
  140.4311  144.2114  150.5888 LP  0  0  0  0  0  0  0  0  0  0  0  0  # atno 17343 bound_to 10162
  156.4799  130.8036  151.3051 LP  0  0  0  0  0  0  0  0  0  0  0  0  # atno 17370 bound_to 10713
  157.7472  131.0009  150.2943 LP  0  0  0  0  0  0  0  0  0  0  0  0  # atno 17371 bound_to 10713
  140.2641  134.8444  157.3786 LP  0  0  0  0  0  0  0  0  0  0  0  0  # atno 17394 bound_to 11000
  140.1583  134.4761  155.7912 LP  0  0  0  0  0  0  0  0  0  0  0  0  # atno 17395 bound_to 11000

$$$$
