AV-unprocessed.smi:1425|AV-procd|sdf|5804|dock4
  -GOLD-   22720 5453D 1   1.00000     0.00000
 Structure written by MMmdl.
 36 37  0  0  0  0  0  0  0  0  1 V2000
  146.0093  134.5815  151.3872 C   0  0  0  0  0  0  0  0  0  0  0  0
  146.2172  133.1209  151.7534 C   0  0  0  0  0  0  0  0  0  0  0  0
  145.2630  132.1646  151.3456 C   0  0  0  0  0  0  0  0  0  0  0  0
  145.4562  130.8148  151.6855 C   0  0  0  0  0  0  0  0  0  0  0  0
  146.6030  130.4762  152.4238 C   0  0  0  0  0  0  0  0  0  0  0  0
  147.5201  131.3835  152.8175 N   0  0  0  0  0  0  0  0  0  0  0  0
  147.3485  132.6910  152.4976 C   0  0  0  0  0  0  0  0  0  0  0  0
  148.2700  133.7049  152.8838 N   0  0  0  0  0  0  0  0  0  0  0  0
  149.2762  133.6290  153.7726 C   0  0  0  0  0  0  0  0  0  0  0  0
  149.6002  132.6202  154.3997 O   0  0  0  0  0  0  0  0  0  0  0  0
  149.9019  134.8091  153.8934 N   0  0  0  0  0  0  0  0  0  0  0  0
  151.0324  135.0852  154.7749 C   0  0  0  0  0  0  0  0  0  0  0  0
  151.1039  136.5728  155.1682 C   0  0  1  0  0  0  0  0  0  0  0  0
  152.1410  136.8342  156.2779 C   0  0  0  0  0  0  0  0  0  0  0  0
  152.3329  138.3468  156.4238 C   0  0  0  0  0  0  0  0  0  0  0  0
  152.1437  139.0314  154.7360 S   0  0  0  0  0  0  0  0  0  0  0  0
  151.1261  140.0929  154.7621 O   0  0  0  0  0  0  0  0  0  0  0  0
  153.4722  139.2698  154.1519 O   0  0  0  0  0  0  0  0  0  0  0  0
  151.4312  137.5133  153.9948 C   0  0  0  0  0  0  0  0  0  0  0  0
  145.0930  134.7207  150.8129 H   0  0  0  0  0  0  0  0  0  0  0  0
  146.8412  134.9463  150.7839 H   0  0  0  0  0  0  0  0  0  0  0  0
  145.9373  135.1941  152.2863 H   0  0  0  0  0  0  0  0  0  0  0  0
  144.3914  132.4589  150.7794 H   0  0  0  0  0  0  0  0  0  0  0  0
  144.7441  130.0593  151.3885 H   0  0  0  0  0  0  0  0  0  0  0  0
  146.7894  129.4508  152.7066 H   0  0  0  0  0  0  0  0  0  0  0  0
  148.1359  134.5999  152.4377 H   0  0  0  0  0  0  0  0  0  0  0  0
  149.5665  135.5807  153.3355 H   0  0  0  0  0  0  0  0  0  0  0  0
  150.9050  134.4771  155.6709 H   0  0  0  0  0  0  0  0  0  0  0  0
  151.9720  134.7623  154.3227 H   0  0  0  0  0  0  0  0  0  0  0  0
  150.1317  136.8703  155.5639 H   0  0  0  0  0  0  0  0  0  0  0  0
  151.8453  136.3787  157.2235 H   0  0  0  0  0  0  0  0  0  0  0  0
  153.0930  136.3848  155.9921 H   0  0  0  0  0  0  0  0  0  0  0  0
  151.5529  138.7776  157.0521 H   0  0  0  0  0  0  0  0  0  0  0  0
  153.3047  138.6182  156.8361 H   0  0  0  0  0  0  0  0  0  0  0  0
  152.1884  137.0770  153.3425 H   0  0  0  0  0  0  0  0  0  0  0  0
  150.5587  137.7637  153.3912 H   0  0  0  0  0  0  0  0  0  0  0  0
  1  2  1  0  0  0  0
  1 20  1  0  0  0  0
  1 21  1  0  0  0  0
  1 22  1  0  0  0  0
  2  7  1  0  0  0  0
  2  3  2  0  0  0  0
  3  4  1  0  0  0  0
  3 23  1  0  0  0  0
  4  5  2  0  0  0  0
  4 24  1  0  0  0  0
  5  6  1  0  0  0  0
  5 25  1  0  0  0  0
  6  7  2  0  0  0  0
  7  8  1  0  0  0  0
  8  9  1  0  0  0  0
  8 26  1  0  0  0  0
  9 10  2  0  0  0  0
  9 11  1  0  0  0  0
 11 12  1  0  0  0  0
 11 27  1  0  0  0  0
 12 13  1  0  0  0  0
 12 28  1  0  0  0  0
 12 29  1  0  0  0  0
 13 19  1  0  0  0  0
 13 14  1  0  0  0  0
 13 30  1  0  0  0  0
 14 15  1  0  0  0  0
 14 31  1  0  0  0  0
 14 32  1  0  0  0  0
 15 16  1  0  0  0  0
 15 33  1  0  0  0  0
 15 34  1  0  0  0  0
 16 17  2  0  0  0  0
 16 18  2  0  0  0  0
 16 19  1  0  0  0  0
 19 35  1  0  0  0  0
 19 36  1  0  0  0  0
M  END
> <s_m_source_file>
AV-unprocessed.smi

> <i_m_source_file_index>
1425

> <i_lp_mmshare_version>
43012

> <i_f3d_flags>
0

> <s_epik_input>
W0NIM11jMVtjSF1bY0hdW2NIXW5jMVtOSF1DKD1PKVtOSF1bQ0gyXVtDQEBIXShbQ0gyXTIpW0NIMl1bQ0gyXVMyKD1PKT1P

> <s_epik_cmdline>
J2VwaWtfcHl0aG9uJywgJy1waCcsICc3LjAnLCAnLXRuJywgJzgnLCAnLW1hJywgJzIwMCcsICctbWV0YWxfYmluZGluZycsICctaW1hZScsICc8aW5maWxlLm1hZT4nLCAnLW9tYWUnLCAnPG91dGZpbGUubWFlPic=

> <r_lp_tautomer_probability>
1

> <r_epik_Ionization_Penalty>
5.46275e-05

> <r_epik_Ionization_Penalty_Charging>
0

> <r_epik_Ionization_Penalty_Neutral>
5.46275e-05

> <r_epik_State_Penalty>
-0

> <r_epik_Charging_Adjusted_Penalty>
0

> <i_epik_Tot_Q>
0

> <i_epik_Tot_abs_Q>
0

> <r_epik_Metal_State_Penalty>
-0

> <b_epik_Metal_Only>
0

> <s_lp_Force_Field>
OPLS_2005

> <r_lp_Energy>
7.35863

> <b_lp_Chiralities_Consistent>
1

> <s_lp_Variant>
AV-unprocessed.smi:1425-2

> <Gold.Version>
5.8.1

> <Gold.Id.Protein>
6NUR|6NUR_protein|mol2

> <Gold.PLP.Fitness>
45.5345

> <Gold.PLP.PLP>
-34.0283

> <Gold.PLP.part.hbond>
-4.5568

> <Gold.PLP.part.metal>
0.0000

> <Gold.PLP.part.buried>
-5.3221

> <Gold.PLP.part.nonpolar>
-24.1982

> <Gold.PLP.part.repulsive>
0.2422

> <Gold.PLP.ligand.clash>
0.0000

> <Gold.PLP.ligand.torsion>
0.2521

> <Gold.PLP.Chemscore.Hbond>
4.0000

> <Gold.PLP.Chemscore.CHOScore>
0.0000

> <Gold.PLP.Chemscore.Metal>
0.0000

> <Gold.Chemscore.Hbonds>
donor molecule, donor type, donor heavy atom, donor atom, acceptor molecule, acceptor atom, score
      L1  H     8    26       P1  7948  0.91
      L1  H    11    27       P1  7948  0.70
      P1  H  7989  7998       L1    17  0.85
      P1  H  7997  8008       L1    18  0.71

> <Gold.PLP.Chemscore.Internal.Correction>
0.0103

> <Gold.Rescore>
     Score         DG    S(hbond)    S(metal)    S(lipo)     H(rot)  DE(clash)    DE(int)     intcor
     18.34     -19.91       3.25        0.00      58.77       1.29       0.04       1.53       ----

> <Gold.Chemscore.Fitness>
18.3399

> <Gold.Chemscore.DG>
-19.9099

> <Gold.Chemscore.ZeroCoef>
-5.4800

> <Gold.Chemscore.Hbond>
3.2532

> <Gold.Chemscore.Metal>
0.0000

> <Gold.Chemscore.Lipo>
58.7731

> <Gold.Chemscore.Internal_Hbond>
0.0000

> <Gold.Chemscore.DEClash>
0.0375

> <Gold.Chemscore.DEInternal>
1.5324

> <Gold.Chemscore.Rot>
1.2939

> <Gold.Chemscore.Internal.Correction>
   9.000000E+99

> <Gold.Chemscore.Hbonds>
donor molecule, donor type, donor heavy atom, donor atom, acceptor molecule, acceptor atom, score
      L1  H     8    26       P1  7948  0.31
      L1  H    11    27       P1  7948  0.07
      P1  H  7989  7998       L1    17  0.14
      P1  H  7997  8008       L1    18  0.28

> <Gold.Chemscore.Hbond.Weighted>
-10.8657

> <Gold.Chemscore.Metal.Weighted>
-0.0000

> <Gold.Chemscore.Lipo.Weighted>
-6.8764

> <Gold.Chemscore.Internal_Hbond.Weighted>
0.0000

> <Gold.Chemscore.DEClash.Weighted>
0.0375

> <Gold.Chemscore.DEInternal.Weighted>
1.5324

> <Gold.Chemscore.Rot.Weighted>
3.3123

> <Gold.Chemscore.Internal.Correction.Weighted>
   9.000000E+99

> <Gold.Protein.RotatedTorsions>
[ 6907 6896 6895 6894 ] final  129.75 input  -60.11 | X-H torsion
[ 7974 7965 7964 7962 ] final  150.11 input  175.53 | X-H torsion
[ 8008 7997 7996 7995 ] final   -7.38 input   59.86 | X-H torsion
[ 10167 10162 10161 10158 ] final    8.30 input  -65.29 | X-H torsion
[ 10718 10713 10712 10709 ] final  118.33 input   66.30 | X-H torsion
[ 10763 10752 10751 10750 ] final -145.89 input  -60.55 | X-H torsion
[ 11005 11000 10999 10996 ] final -173.70 input  -57.11 | X-H torsion

> <Gold.Protein.ActiveResidues>
 VAL166  LYS551  ARG553  GLY616  TRP617  ASP618  TYR619  PRO620  LYS621  CYS622 
 ASP623  PHE694  ASN695  SER759  ASP760  ASP761  ALA762  ILE779  LEU786  VAL792 
 PHE793  MET794  SER795  GLU796  ALA797  LYS798  CYS799  TRP800  GLU811  SER814 

> <Gold.Protein.RotatedAtoms>
  152.3594  133.6277  159.6003 H   0  0  0  0  0  0  0  0  0  0  0  0  # atno 6907 bound_to 6896
  150.7590  133.9448  159.3476 H   0  0  0  0  0  0  0  0  0  0  0  0  # atno 6908 bound_to 6896
  151.7288  135.0880  160.0348 H   0  0  0  0  0  0  0  0  0  0  0  0  # atno 6909 bound_to 6896
  144.8388  139.6366  143.6026 H   0  0  0  0  0  0  0  0  0  0  0  0  # atno 7974 bound_to 7965
  154.5844  140.2408  155.8007 H   0  0  0  0  0  0  0  0  0  0  0  0  # atno 8008 bound_to 7997
  156.2203  140.2999  155.9891 H   0  0  0  0  0  0  0  0  0  0  0  0  # atno 8009 bound_to 7997
  155.2483  140.0409  157.2974 H   0  0  0  0  0  0  0  0  0  0  0  0  # atno 8010 bound_to 7997
  140.6322  143.7967  150.7311 H   0  0  0  0  0  0  0  0  0  0  0  0  # atno 10167 bound_to 10162
  157.6038  131.1047  150.7740 H   0  0  0  0  0  0  0  0  0  0  0  0  # atno 10718 bound_to 10713
  154.8362  135.3401  154.6575 H   0  0  0  0  0  0  0  0  0  0  0  0  # atno 10763 bound_to 10752
  153.7189  135.6959  153.5022 H   0  0  0  0  0  0  0  0  0  0  0  0  # atno 10764 bound_to 10752
  153.2396  135.4389  155.0636 H   0  0  0  0  0  0  0  0  0  0  0  0  # atno 10765 bound_to 10752
  140.4827  134.6059  157.4925 H   0  0  0  0  0  0  0  0  0  0  0  0  # atno 11005 bound_to 11000
  146.2683  139.6574  142.9314 LP  0  0  0  0  0  0  0  0  0  0  0  0  # atno 17320 bound_to 7965
  145.4738  141.0436  143.2684 LP  0  0  0  0  0  0  0  0  0  0  0  0  # atno 17321 bound_to 7965
  140.1581  143.4299  152.2086 LP  0  0  0  0  0  0  0  0  0  0  0  0  # atno 17342 bound_to 10162
  139.5535  144.7356  151.4363 LP  0  0  0  0  0  0  0  0  0  0  0  0  # atno 17343 bound_to 10162
  156.8133  130.4960  149.5353 LP  0  0  0  0  0  0  0  0  0  0  0  0  # atno 17370 bound_to 10713
  156.1118  130.6046  151.0059 LP  0  0  0  0  0  0  0  0  0  0  0  0  # atno 17371 bound_to 10713
  139.9816  134.7128  155.9849 LP  0  0  0  0  0  0  0  0  0  0  0  0  # atno 17394 bound_to 11000
  141.1523  133.6547  156.4051 LP  0  0  0  0  0  0  0  0  0  0  0  0  # atno 17395 bound_to 11000

$$$$
