AV-unprocessed.smi:2650|AV-procd|sdf|10291|dock3
  -GOLD-   2272014303D 1   1.00000     0.00000
 Structure written by MMmdl.
 33 34  0  0  0  0  0  0  0  0  1 V2000
  144.7308  137.2789  152.5997 O   0  0  0  0  0  0  0  0  0  0  0  0
  145.9167  137.0691  152.3427 C   0  0  0  0  0  0  0  0  0  0  0  0
  146.8897  137.9642  152.5672 N   0  0  0  0  0  0  0  0  0  0  0  0
  146.6871  139.2868  153.1452 C   0  0  0  0  0  0  0  0  0  0  0  0
  147.9564  140.1509  153.0297 C   0  0  0  0  0  0  0  0  0  0  0  0
  148.3980  140.6302  154.3423 N   0  0  0  0  0  0  0  0  0  0  0  0
  147.6131  141.2926  155.2035 C   0  0  0  0  0  0  0  0  0  0  0  0
  146.4340  141.5984  155.0281 O   0  0  0  0  0  0  0  0  0  0  0  0
  148.3692  141.6339  156.4804 C   0  0  0  0  0  0  0  0  0  0  0  0
  149.7600  141.0431  156.2277 C   0  0  0  0  0  0  0  0  0  0  0  0
  149.6274  140.4328  154.8390 C   0  0  0  0  0  0  0  0  0  0  0  0
  150.5517  139.8399  154.2839 O   0  0  0  0  0  0  0  0  0  0  0  0
  146.4094  135.9357  151.8126 N   0  0  0  0  0  0  0  0  0  0  0  0
  145.7030  134.7592  151.4456 C   0  0  0  0  0  0  0  0  0  0  0  0
  146.5120  133.6889  151.0011 C   0  0  0  0  0  0  0  0  0  0  0  0
  145.9071  132.4775  150.6141 C   0  0  0  0  0  0  0  0  0  0  0  0
  144.5067  132.3673  150.6817 C   0  0  0  0  0  0  0  0  0  0  0  0
  143.7751  133.4799  151.1358 C   0  0  0  0  0  0  0  0  0  0  0  0
  144.3529  134.6418  151.5069 N   0  0  0  0  0  0  0  0  0  0  0  0
  147.8373  137.7121  152.3269 H   0  0  0  0  0  0  0  0  0  0  0  0
  145.8608  139.7631  152.6169 H   0  0  0  0  0  0  0  0  0  0  0  0
  146.3767  139.1939  154.1876 H   0  0  0  0  0  0  0  0  0  0  0  0
  148.7592  139.5812  152.5579 H   0  0  0  0  0  0  0  0  0  0  0  0
  147.7708  140.9970  152.3656 H   0  0  0  0  0  0  0  0  0  0  0  0
  148.4061  142.7140  156.6259 H   0  0  0  0  0  0  0  0  0  0  0  0
  147.8846  141.1777  157.3441 H   0  0  0  0  0  0  0  0  0  0  0  0
  150.5350  141.8102  156.2349 H   0  0  0  0  0  0  0  0  0  0  0  0
  150.0161  140.2761  156.9595 H   0  0  0  0  0  0  0  0  0  0  0  0
  147.4062  135.9095  151.6573 H   0  0  0  0  0  0  0  0  0  0  0  0
  147.5867  133.7903  150.9559 H   0  0  0  0  0  0  0  0  0  0  0  0
  146.5079  131.6476  150.2722 H   0  0  0  0  0  0  0  0  0  0  0  0
  144.0064  131.4546  150.3935 H   0  0  0  0  0  0  0  0  0  0  0  0
  142.6982  133.4371  151.2034 H   0  0  0  0  0  0  0  0  0  0  0  0
  1  2  2  0  0  0  0
  2  3  1  0  0  0  0
  2 13  1  0  0  0  0
  3  4  1  0  0  0  0
  3 20  1  0  0  0  0
  4  5  1  0  0  0  0
  4 21  1  0  0  0  0
  4 22  1  0  0  0  0
  5  6  1  0  0  0  0
  5 23  1  0  0  0  0
  5 24  1  0  0  0  0
  6 11  1  0  0  0  0
  6  7  1  0  0  0  0
  7  8  2  0  0  0  0
  7  9  1  0  0  0  0
  9 10  1  0  0  0  0
  9 25  1  0  0  0  0
  9 26  1  0  0  0  0
 10 11  1  0  0  0  0
 10 27  1  0  0  0  0
 10 28  1  0  0  0  0
 11 12  2  0  0  0  0
 13 14  1  0  0  0  0
 13 29  1  0  0  0  0
 14 19  1  0  0  0  0
 14 15  2  0  0  0  0
 15 16  1  0  0  0  0
 15 30  1  0  0  0  0
 16 17  2  0  0  0  0
 16 31  1  0  0  0  0
 17 18  1  0  0  0  0
 17 32  1  0  0  0  0
 18 19  2  0  0  0  0
 18 33  1  0  0  0  0
M  END
> <s_m_source_file>
AV-unprocessed.smi

> <i_m_source_file_index>
2650

> <i_lp_mmshare_version>
43012

> <i_f3d_flags>
0

> <s_epik_input>
bjFbY0hdW2NIXVtjSF1bY0hdYzFbTkhdQyg9TylbTkhdW0NIMl1bQ0gyXU4yQyg9TylbQ0gyXVtDSDJdQzI9Tw==

> <s_epik_cmdline>
J2VwaWtfcHl0aG9uJywgJy1waCcsICc3LjAnLCAnLXRuJywgJzgnLCAnLW1hJywgJzIwMCcsICctbWV0YWxfYmluZGluZycsICctaW1hZScsICc8aW5maWxlLm1hZT4nLCAnLW9tYWUnLCAnPG91dGZpbGUubWFlPic=

> <r_lp_tautomer_probability>
1

> <r_epik_Ionization_Penalty>
4.11926e-05

> <r_epik_Ionization_Penalty_Charging>
0

> <r_epik_Ionization_Penalty_Neutral>
4.11926e-05

> <r_epik_State_Penalty>
-0

> <r_epik_Charging_Adjusted_Penalty>
0

> <i_epik_Tot_Q>
0

> <i_epik_Tot_abs_Q>
0

> <r_epik_Metal_State_Penalty>
-0

> <b_epik_Metal_Only>
0

> <s_lp_Force_Field>
OPLS_2005

> <r_lp_Energy>
11.0549

> <b_lp_Chiralities_Consistent>
1

> <s_lp_Variant>
AV-unprocessed.smi:2650-1

> <Gold.Version>
5.8.1

> <Gold.Id.Protein>
6NUR|6NUR_protein|mol2

> <Gold.PLP.Fitness>
39.8413

> <Gold.PLP.PLP>
-29.0913

> <Gold.PLP.part.hbond>
-3.0000

> <Gold.PLP.part.metal>
0.0000

> <Gold.PLP.part.buried>
-1.4176

> <Gold.PLP.part.nonpolar>
-26.5168

> <Gold.PLP.part.repulsive>
0.8813

> <Gold.PLP.ligand.clash>
0.0000

> <Gold.PLP.ligand.torsion>
0.4591

> <Gold.PLP.Chemscore.Hbond>
2.8800

> <Gold.PLP.Chemscore.CHOScore>
1.0000

> <Gold.PLP.Chemscore.Metal>
0.0000

> <Gold.Chemscore.Hbonds>
donor molecule, donor type, donor heavy atom, donor atom, acceptor molecule, acceptor atom, score
      L1  H     3    20       P1  7948  0.88
      L1  H    13    29       P1  7948  1.00
      P1  H  7989  7998       L1    12  1.00
      L1  C    18    33       P1 10186  0.90

> <Gold.PLP.Chemscore.Internal.Correction>
0.0283

> <Gold.Rescore>
     Score         DG    S(hbond)    S(metal)    S(lipo)     H(rot)  DE(clash)    DE(int)     intcor
     12.93     -16.60       2.89        0.00      51.82       1.80       0.70       2.96       ----

> <Gold.Chemscore.Fitness>
12.9347

> <Gold.Chemscore.DG>
-16.5970

> <Gold.Chemscore.ZeroCoef>
-5.4800

> <Gold.Chemscore.Hbond>
2.8903

> <Gold.Chemscore.Metal>
0.0000

> <Gold.Chemscore.Lipo>
51.8230

> <Gold.Chemscore.Internal_Hbond>
0.0000

> <Gold.Chemscore.DEClash>
0.7050

> <Gold.Chemscore.DEInternal>
2.9573

> <Gold.Chemscore.Rot>
1.7968

> <Gold.Chemscore.Internal.Correction>
   9.000000E+99

> <Gold.Chemscore.Hbonds>
donor molecule, donor type, donor heavy atom, donor atom, acceptor molecule, acceptor atom, score
      L1  H     3    20       P1  7948  0.86
      L1  H    13    29       P1  7948  0.96
      P1  H  7989  7998       L1    12  0.88

> <Gold.Chemscore.Hbond.Weighted>
-9.6536

> <Gold.Chemscore.Metal.Weighted>
-0.0000

> <Gold.Chemscore.Lipo.Weighted>
-6.0633

> <Gold.Chemscore.Internal_Hbond.Weighted>
0.0000

> <Gold.Chemscore.DEClash.Weighted>
0.7050

> <Gold.Chemscore.DEInternal.Weighted>
2.9573

> <Gold.Chemscore.Rot.Weighted>
4.5999

> <Gold.Chemscore.Internal.Correction.Weighted>
   9.000000E+99

> <Gold.Protein.RotatedTorsions>
[ 6907 6896 6895 6894 ] final    1.81 input  -60.11 | X-H torsion
[ 7974 7965 7964 7962 ] final   83.70 input  175.53 | X-H torsion
[ 8008 7997 7996 7995 ] final -137.04 input   59.86 | X-H torsion
[ 10167 10162 10161 10158 ] final  140.01 input  -65.29 | X-H torsion
[ 10718 10713 10712 10709 ] final -129.33 input   66.30 | X-H torsion
[ 10763 10752 10751 10750 ] final -139.22 input  -60.55 | X-H torsion
[ 11005 11000 10999 10996 ] final -153.51 input  -57.11 | X-H torsion

> <Gold.Protein.ActiveResidues>
 VAL166  LYS551  ARG553  GLY616  TRP617  ASP618  TYR619  PRO620  LYS621  CYS622 
 ASP623  PHE694  ASN695  SER759  ASP760  ASP761  ALA762  ILE779  LEU786  VAL792 
 PHE793  MET794  SER795  GLU796  ALA797  LYS798  CYS799  TRP800  GLU811  SER814 

> <Gold.Protein.RotatedAtoms>
  151.5987  135.1049  160.0055 H   0  0  0  0  0  0  0  0  0  0  0  0  # atno 6907 bound_to 6896
  152.4269  133.7206  159.6542 H   0  0  0  0  0  0  0  0  0  0  0  0  # atno 6908 bound_to 6896
  150.8159  133.8267  159.3183 H   0  0  0  0  0  0  0  0  0  0  0  0  # atno 6909 bound_to 6896
  145.6085  139.2364  143.2205 H   0  0  0  0  0  0  0  0  0  0  0  0  # atno 7974 bound_to 7965
  155.4052  140.0508  157.3034 H   0  0  0  0  0  0  0  0  0  0  0  0  # atno 8008 bound_to 7997
  154.4972  140.2143  155.9382 H   0  0  0  0  0  0  0  0  0  0  0  0  # atno 8009 bound_to 7997
  156.1421  140.3152  155.8516 H   0  0  0  0  0  0  0  0  0  0  0  0  # atno 8010 bound_to 7997
  139.5061  144.6260  151.5936 H   0  0  0  0  0  0  0  0  0  0  0  0  # atno 10167 bound_to 10162
  156.2036  130.6873  151.0568 H   0  0  0  0  0  0  0  0  0  0  0  0  # atno 10718 bound_to 10713
  154.8615  135.3589  154.5511 H   0  0  0  0  0  0  0  0  0  0  0  0  # atno 10763 bound_to 10752
  153.6129  135.7009  153.5345 H   0  0  0  0  0  0  0  0  0  0  0  0  # atno 10764 bound_to 10752
  153.3194  135.4155  155.1364 H   0  0  0  0  0  0  0  0  0  0  0  0  # atno 10765 bound_to 10752
  140.7074  134.3870  157.5202 H   0  0  0  0  0  0  0  0  0  0  0  0  # atno 11005 bound_to 11000
  146.1522  140.6908  142.9316 LP  0  0  0  0  0  0  0  0  0  0  0  0  # atno 17320 bound_to 7965
  144.7280  140.4584  143.6959 LP  0  0  0  0  0  0  0  0  0  0  0  0  # atno 17321 bound_to 7965
  140.5977  143.9666  150.6365 LP  0  0  0  0  0  0  0  0  0  0  0  0  # atno 17342 bound_to 10162
  140.2867  143.3352  152.1100 LP  0  0  0  0  0  0  0  0  0  0  0  0  # atno 17343 bound_to 10162
  157.7000  131.0780  150.6851 LP  0  0  0  0  0  0  0  0  0  0  0  0  # atno 17370 bound_to 10713
  156.6909  130.4595  149.5600 LP  0  0  0  0  0  0  0  0  0  0  0  0  # atno 17371 bound_to 10713
  139.8880  134.8866  156.2495 LP  0  0  0  0  0  0  0  0  0  0  0  0  # atno 17394 bound_to 11000
  141.0113  133.7094  156.1116 LP  0  0  0  0  0  0  0  0  0  0  0  0  # atno 17395 bound_to 11000

$$$$
