AV-unprocessed.smi:1949|AV-procd|sdf|7878|dock9
  -GOLD-   2272010 33D 1   1.00000     0.00000
 Structure written by MMmdl.
 28 29  0  0  0  0  0  0  0  0  2 V2000
  150.2190  134.9724  155.9425 C   0  0  0  0  0  0  0  0  0  0  0  0
  151.0429  136.2114  156.0247 C   0  0  0  0  0  0  0  0  0  0  0  0
  151.9908  136.5082  155.1323 N   0  0  0  0  0  0  0  0  0  0  0  0
  152.6202  137.7110  155.4190 N   0  0  0  0  0  0  0  0  0  0  0  0
  152.1315  138.3125  156.5131 C   0  0  0  0  0  0  0  0  0  0  0  0
  152.5968  139.4940  156.9599 N   0  5  0  0  0  0  0  0  0  0  0  0
  151.9061  140.2666  157.8395 C   0  0  0  0  0  0  0  0  0  0  0  0
  150.7747  139.9903  158.2362 O   0  0  0  0  0  0  0  0  0  0  0  0
  152.5008  141.3866  158.2951 N   0  0  0  0  0  0  0  0  0  0  0  0
  151.9308  142.3487  159.2350 C   0  0  0  0  0  0  0  0  0  0  0  0
  150.6588  142.9912  158.6469 C   0  0  0  0  0  0  0  0  0  0  0  0
  150.8367  144.5041  158.7921 C   0  0  0  0  0  0  0  0  0  0  0  0
  152.3469  144.7148  158.7590 C   0  0  0  0  0  0  0  0  0  0  0  0
  152.9055  143.5098  159.5149 C   0  0  0  0  0  0  0  0  0  0  0  0
  150.8438  137.4008  157.3005 S   0  0  0  0  0  0  0  0  0  0  0  0
  149.5107  135.0499  155.1176 H   0  0  0  0  0  0  0  0  0  0  0  0
  149.6632  134.8244  156.8685 H   0  0  0  0  0  0  0  0  0  0  0  0
  150.8584  134.1051  155.7774 H   0  0  0  0  0  0  0  0  0  0  0  0
  153.4326  141.5822  157.9599 H   0  0  0  0  0  0  0  0  0  0  0  0
  151.6852  141.8417  160.1698 H   0  0  0  0  0  0  0  0  0  0  0  0
  150.5562  142.7452  157.5884 H   0  0  0  0  0  0  0  0  0  0  0  0
  149.7545  142.6405  159.1454 H   0  0  0  0  0  0  0  0  0  0  0  0
  150.3176  145.0642  158.0137 H   0  0  0  0  0  0  0  0  0  0  0  0
  150.4433  144.8293  159.7561 H   0  0  0  0  0  0  0  0  0  0  0  0
  152.6990  144.6961  157.7268 H   0  0  0  0  0  0  0  0  0  0  0  0
  152.6500  145.6649  159.1997 H   0  0  0  0  0  0  0  0  0  0  0  0
  152.9046  143.7262  160.5839 H   0  0  0  0  0  0  0  0  0  0  0  0
  153.9369  143.2919  159.2345 H   0  0  0  0  0  0  0  0  0  0  0  0
  1  2  1  0  0  0  0
  1 16  1  0  0  0  0
  1 17  1  0  0  0  0
  1 18  1  0  0  0  0
  2 15  1  0  0  0  0
  2  3  2  0  0  0  0
  3  4  1  0  0  0  0
  4  5  2  0  0  0  0
  5  6  1  0  0  0  0
  5 15  1  0  0  0  0
  6  7  1  0  0  0  0
  7  8  2  0  0  0  0
  7  9  1  0  0  0  0
  9 10  1  0  0  0  0
  9 19  1  0  0  0  0
 10 14  1  0  0  0  0
 10 11  1  0  0  0  0
 10 20  1  0  0  0  0
 11 12  1  0  0  0  0
 11 21  1  0  0  0  0
 11 22  1  0  0  0  0
 12 13  1  0  0  0  0
 12 23  1  0  0  0  0
 12 24  1  0  0  0  0
 13 14  1  0  0  0  0
 13 25  1  0  0  0  0
 13 26  1  0  0  0  0
 14 27  1  0  0  0  0
 14 28  1  0  0  0  0
M  CHG  1   6  -1
M  END
> <s_m_source_file>
AV-unprocessed.smi

> <i_m_source_file_index>
1949

> <i_lp_mmshare_version>
43012

> <i_f3d_flags>
0

> <s_epik_input>
W0NIM11jMW5uYyhzMSlbTkhdQyg9TylbTkhdW0NIXTJbQ0gyXVtDSDJdW0NIMl1bQ0gyXTI=

> <s_epik_cmdline>
J2VwaWtfcHl0aG9uJywgJy1waCcsICc3LjAnLCAnLXRuJywgJzgnLCAnLW1hJywgJzIwMCcsICctbWV0YWxfYmluZGluZycsICctaW1hZScsICc8aW5maWxlLm1hZT4nLCAnLW9tYWUnLCAnPG91dGZpbGUubWFlPic=

> <r_lp_tautomer_probability>
1

> <r_epik_Ionization_Penalty>
4.54091

> <r_epik_Ionization_Penalty_Charging>
4.38642

> <r_epik_Ionization_Penalty_Neutral>
0.154484

> <r_epik_State_Penalty>
4.38606

> <r_epik_Charging_Adjusted_Penalty>
8.77248

> <i_epik_Tot_Q>
-1

> <i_epik_Tot_abs_Q>
1

> <r_epik_Metal_State_Penalty>
0.765318

> <b_epik_Metal_Only>
1

> <s_lp_Force_Field>
OPLS_2005

> <r_lp_Energy>
17.692

> <b_lp_Chiralities_Consistent>
1

> <s_lp_Variant>
AV-unprocessed.smi:1949-2

> <Gold.Version>
5.8.1

> <Gold.Id.Protein>
6NUR|6NUR_protein|mol2

> <Gold.PLP.Fitness>
34.8764

> <Gold.PLP.PLP>
-26.0217

> <Gold.PLP.part.hbond>
-2.8365

> <Gold.PLP.part.metal>
0.0000

> <Gold.PLP.part.buried>
-3.7684

> <Gold.PLP.part.nonpolar>
-19.5277

> <Gold.PLP.part.repulsive>
0.2304

> <Gold.PLP.ligand.clash>
0.0000

> <Gold.PLP.ligand.torsion>
0.0740

> <Gold.PLP.Chemscore.Hbond>
3.0000

> <Gold.PLP.Chemscore.CHOScore>
0.0000

> <Gold.PLP.Chemscore.Metal>
0.0000

> <Gold.Chemscore.Hbonds>
donor molecule, donor type, donor heavy atom, donor atom, acceptor molecule, acceptor atom, score
      P1  H  7997  8008       L1     6  2.00
      P1  H 10752 10765       L1     3  0.81

> <Gold.PLP.Chemscore.Internal.Correction>
0.0027

> <Gold.Rescore>
     Score         DG    S(hbond)    S(metal)    S(lipo)     H(rot)  DE(clash)    DE(int)     intcor
     14.04     -16.78       1.74        0.00      68.88       1.00       0.07       2.67       ----

> <Gold.Chemscore.Fitness>
14.0409

> <Gold.Chemscore.DG>
-16.7847

> <Gold.Chemscore.ZeroCoef>
-5.4800

> <Gold.Chemscore.Hbond>
1.7383

> <Gold.Chemscore.Metal>
0.0000

> <Gold.Chemscore.Lipo>
68.8770

> <Gold.Chemscore.Internal_Hbond>
0.0000

> <Gold.Chemscore.DEClash>
0.0724

> <Gold.Chemscore.DEInternal>
2.6714

> <Gold.Chemscore.Rot>
1.0000

> <Gold.Chemscore.Internal.Correction>
   9.000000E+99

> <Gold.Chemscore.Hbonds>
donor molecule, donor type, donor heavy atom, donor atom, acceptor molecule, acceptor atom, score
      P1  H  7997  8008       L1     6  0.91
      P1  H 10752 10765       L1     3  0.54

> <Gold.Chemscore.Hbond.Weighted>
-5.8060

> <Gold.Chemscore.Metal.Weighted>
-0.0000

> <Gold.Chemscore.Lipo.Weighted>
-8.0586

> <Gold.Chemscore.Internal_Hbond.Weighted>
0.0000

> <Gold.Chemscore.DEClash.Weighted>
0.0724

> <Gold.Chemscore.DEInternal.Weighted>
2.6714

> <Gold.Chemscore.Rot.Weighted>
2.5600

> <Gold.Chemscore.Internal.Correction.Weighted>
   9.000000E+99

> <Gold.Protein.RotatedTorsions>
[ 6907 6896 6895 6894 ] final   61.23 input  -60.11 | X-H torsion
[ 7974 7965 7964 7962 ] final  -79.36 input  175.53 | X-H torsion
[ 8008 7997 7996 7995 ] final  -50.62 input   59.86 | X-H torsion
[ 10167 10162 10161 10158 ] final -101.10 input  -65.29 | X-H torsion
[ 10718 10713 10712 10709 ] final   45.12 input   66.30 | X-H torsion
[ 10763 10752 10751 10750 ] final  169.59 input  -60.55 | X-H torsion
[ 11005 11000 10999 10996 ] final -173.20 input  -57.11 | X-H torsion

> <Gold.Protein.ActiveResidues>
 VAL166  LYS551  ARG553  GLY616  TRP617  ASP618  TYR619  PRO620  LYS621  CYS622 
 ASP623  PHE694  ASN695  SER759  ASP760  ASP761  ALA762  ILE779  LEU786  VAL792 
 PHE793  MET794  SER795  GLU796  ALA797  LYS798  CYS799  TRP800  GLU811  SER814 

> <Gold.Protein.RotatedAtoms>
  152.4071  134.6188  160.0045 H   0  0  0  0  0  0  0  0  0  0  0  0  # atno 6907 bound_to 6896
  151.6377  133.3322  159.3131 H   0  0  0  0  0  0  0  0  0  0  0  0  # atno 6908 bound_to 6896
  150.7965  134.7069  159.6626 H   0  0  0  0  0  0  0  0  0  0  0  0  # atno 6909 bound_to 6896
  145.5742  140.9460  143.1379 H   0  0  0  0  0  0  0  0  0  0  0  0  # atno 7974 bound_to 7965
  154.4066  140.1268  156.4695 H   0  0  0  0  0  0  0  0  0  0  0  0  # atno 8008 bound_to 7997
  155.7193  140.3493  155.4989 H   0  0  0  0  0  0  0  0  0  0  0  0  # atno 8009 bound_to 7997
  155.9229  140.1056  157.1183 H   0  0  0  0  0  0  0  0  0  0  0  0  # atno 8010 bound_to 7997
  140.2449  143.3513  152.0768 H   0  0  0  0  0  0  0  0  0  0  0  0  # atno 10167 bound_to 10162
  157.4341  130.8042  149.7631 H   0  0  0  0  0  0  0  0  0  0  0  0  # atno 10718 bound_to 10713
  154.3854  135.2753  155.2186 H   0  0  0  0  0  0  0  0  0  0  0  0  # atno 10763 bound_to 10752
  154.4275  135.5985  153.6052 H   0  0  0  0  0  0  0  0  0  0  0  0  # atno 10764 bound_to 10752
  152.9833  135.5987  154.4102 H   0  0  0  0  0  0  0  0  0  0  0  0  # atno 10765 bound_to 10752
  140.4884  134.6008  157.4945 H   0  0  0  0  0  0  0  0  0  0  0  0  # atno 11005 bound_to 11000
  144.7423  139.7414  143.7306 LP  0  0  0  0  0  0  0  0  0  0  0  0  # atno 17320 bound_to 7965
  146.1762  139.4934  142.9895 LP  0  0  0  0  0  0  0  0  0  0  0  0  # atno 17321 bound_to 7965
  139.5065  144.6815  151.5997 LP  0  0  0  0  0  0  0  0  0  0  0  0  # atno 17342 bound_to 10162
  140.6085  143.9480  150.6436 LP  0  0  0  0  0  0  0  0  0  0  0  0  # atno 17343 bound_to 10162
  155.9924  130.3931  150.2943 LP  0  0  0  0  0  0  0  0  0  0  0  0  # atno 17370 bound_to 10713
  157.1103  131.0219  151.3051 LP  0  0  0  0  0  0  0  0  0  0  0  0  # atno 17371 bound_to 10713
  139.9784  134.7178  155.9906 LP  0  0  0  0  0  0  0  0  0  0  0  0  # atno 17394 bound_to 11000
  141.1496  133.6550  156.3973 LP  0  0  0  0  0  0  0  0  0  0  0  0  # atno 17395 bound_to 11000

$$$$
