AV-unprocessed.smi:39|AV-procd|sdf|364|dock3
  -GOLD-   2262016203D 1   1.00000     0.00000
 Structure written by MMmdl.
 31 32  0  0  0  0  0  0  0  0  4 V2000
  149.5768  136.5283  158.4721 C   0  0  0  0  0  0  0  0  0  0  0  0
  150.6050  137.1530  157.5454 C   0  0  0  0  0  0  0  0  0  0  0  0
  150.5856  138.4667  157.2293 C   0  0  0  0  0  0  0  0  0  0  0  0
  151.5272  139.0349  156.3882 N   0  0  0  0  0  0  0  0  0  0  0  0
  151.4926  140.5116  156.0540 C   0  0  2  0  0  0  0  0  0  0  0  0
  150.8369  141.3143  157.1936 C   0  0  0  0  0  0  0  0  0  0  0  0
  149.4193  141.5471  156.6947 C   0  0  2  0  0  0  0  0  0  0  0  0
  148.5466  140.4426  157.1116 N   0  0  0  0  0  0  0  0  0  0  0  0
  147.6542  140.7126  157.9254 N   0  3  0  0  0  0  0  0  0  0  0  0
  146.7700  141.0114  158.5765 N   0  5  0  0  0  0  0  0  0  0  0  0
  149.6820  141.6249  155.1798 C   0  0  2  0  0  0  0  0  0  0  0  0
  148.5143  141.5152  154.1768 C   0  0  0  0  0  0  0  0  0  0  0  0
  148.4778  140.2836  153.4865 O   0  0  0  0  0  0  0  0  0  0  0  0
  150.7307  140.7079  154.8972 O   0  0  0  0  0  0  0  0  0  0  0  0
  152.5590  138.2256  155.8450 C   0  0  0  0  0  0  0  0  0  0  0  0
  153.3962  138.7643  155.1200 O   0  0  0  0  0  0  0  0  0  0  0  0
  152.5821  136.8971  156.1512 N   0  5  0  0  0  0  0  0  0  0  0  0
  151.6603  136.3117  156.9687 C   0  0  0  0  0  0  0  0  0  0  0  0
  151.6903  135.1100  157.2329 O   0  0  0  0  0  0  0  0  0  0  0  0
  152.5273  140.7962  155.8563 H   0  0  0  0  0  0  0  0  0  0  0  0
  149.0451  142.5020  157.0706 H   0  0  0  0  0  0  0  0  0  0  0  0
  150.1263  142.6069  155.0052 H   0  0  0  0  0  0  0  0  0  0  0  0
  148.8809  137.2765  158.8527 H   0  0  0  0  0  0  0  0  0  0  0  0
  150.0672  136.0592  159.3257 H   0  0  0  0  0  0  0  0  0  0  0  0
  149.0011  135.7681  157.9436 H   0  0  0  0  0  0  0  0  0  0  0  0
  149.8125  139.0857  157.6583 H   0  0  0  0  0  0  0  0  0  0  0  0
  150.8983  140.8011  158.1544 H   0  0  0  0  0  0  0  0  0  0  0  0
  151.3637  142.2651  157.2826 H   0  0  0  0  0  0  0  0  0  0  0  0
  147.5670  141.6368  154.7023 H   0  0  0  0  0  0  0  0  0  0  0  0
  148.5765  142.3206  153.4449 H   0  0  0  0  0  0  0  0  0  0  0  0
  148.9289  140.3863  152.6626 H   0  0  0  0  0  0  0  0  0  0  0  0
  1  2  1  0  0  0  0
  1 23  1  0  0  0  0
  1 24  1  0  0  0  0
  1 25  1  0  0  0  0
  2 18  1  0  0  0  0
  2  3  2  0  0  0  0
  3  4  1  0  0  0  0
  3 26  1  0  0  0  0
  4  5  1  0  0  0  0
  4 15  1  0  0  0  0
  5 20  1  0  0  0  0
  5 14  1  0  0  0  0
  5  6  1  0  0  0  0
  6  7  1  0  0  0  0
  6 27  1  0  0  0  0
  6 28  1  0  0  0  0
  7 21  1  0  0  0  0
  7  8  1  0  0  0  0
  7 11  1  0  0  0  0
  8  9  2  0  0  0  0
  9 10  2  0  0  0  0
 11 22  1  0  0  0  0
 11 12  1  0  0  0  0
 11 14  1  0  0  0  0
 12 13  1  0  0  0  0
 12 29  1  0  0  0  0
 12 30  1  0  0  0  0
 13 31  1  0  0  0  0
 15 16  2  0  0  0  0
 15 17  1  0  0  0  0
 17 18  1  0  0  0  0
 18 19  2  0  0  0  0
M  CHG  1   9   1
M  CHG  1  10  -1
M  CHG  1  17  -1
M  END
> <s_m_source_file>
AV-unprocessed.smi

> <i_m_source_file_index>
39

> <i_lp_mmshare_version>
43012

> <i_f3d_flags>
0

> <s_epik_input>
Tz1jMVtuSF1jKD1PKW4oW2NIXWMxW0NIM10pW0NASF0yW0NIMl1bQ0BIXShOPVtOK109W04tXSlbQ0BIXShPMilbQ0gyXVtPSF0=

> <s_epik_cmdline>
J2VwaWtfcHl0aG9uJywgJy1waCcsICc3LjAnLCAnLXRuJywgJzgnLCAnLW1hJywgJzIwMCcsICctbWV0YWxfYmluZGluZycsICctaW1hZScsICc8aW5maWxlLm1hZT4nLCAnLW9tYWUnLCAnPG91dGZpbGUubWFlPic=

> <r_lp_tautomer_probability>
0.999537

> <r_epik_Ionization_Penalty>
3.6393

> <r_epik_Ionization_Penalty_Charging>
9.76484e-08

> <r_epik_Ionization_Penalty_Neutral>
3.6393

> <r_epik_State_Penalty>
3.63887

> <r_epik_Charging_Adjusted_Penalty>
3.63887

> <i_epik_Tot_Q>
-1

> <i_epik_Tot_abs_Q>
3

> <r_epik_Metal_State_Penalty>
0.225911

> <b_epik_Metal_Only>
1

> <s_epik_Chemistry_Notes>
This compound contains an acetal/aminal-like group ( X-CH(R)-Y where X, Y are N, S, or O) that may be acid/base labile, releasing an aldehyde.

> <s_lp_Force_Field>
OPLS_2005

> <r_lp_Energy>
40.5793

> <b_lp_Chiralities_Consistent>
1

> <s_lp_Variant>
AV-unprocessed.smi:39-14

> <Gold.Version>
5.8.1

> <Gold.Id.Protein>
6NUR|6NUR_protein|mol2

> <Gold.PLP.Fitness>
40.0215

> <Gold.PLP.PLP>
-27.0637

> <Gold.PLP.part.hbond>
-6.7780

> <Gold.PLP.part.metal>
0.0000

> <Gold.PLP.part.buried>
-3.9812

> <Gold.PLP.part.nonpolar>
-16.9702

> <Gold.PLP.part.repulsive>
0.1190

> <Gold.PLP.ligand.clash>
0.0000

> <Gold.PLP.ligand.torsion>
1.4686

> <Gold.PLP.Chemscore.Hbond>
5.2808

> <Gold.PLP.Chemscore.CHOScore>
0.0000

> <Gold.PLP.Chemscore.Metal>
0.0000

> <Gold.Chemscore.Hbonds>
donor molecule, donor type, donor heavy atom, donor atom, acceptor molecule, acceptor atom, score
      L1  H    13    31       P1  7957  1.00
      P1  H  6934  6946       L1    10  0.25
      P1  H  7989  7998       L1    14  0.91
      P1  H  7997  8010       L1    16  1.00
      P1  H 10752 10765       L1    17  1.82

> <Gold.PLP.Chemscore.Internal.Correction>
0.0525

> <Gold.Rescore>
     Score         DG    S(hbond)    S(metal)    S(lipo)     H(rot)  DE(clash)    DE(int)     intcor
     12.07     -14.68       3.56        0.00      36.33       2.72       0.00       2.61       ----

> <Gold.Chemscore.Fitness>
12.0716

> <Gold.Chemscore.DG>
-14.6811

> <Gold.Chemscore.ZeroCoef>
-5.4800

> <Gold.Chemscore.Hbond>
3.5635

> <Gold.Chemscore.Metal>
0.0000

> <Gold.Chemscore.Lipo>
36.3265

> <Gold.Chemscore.Internal_Hbond>
0.0000

> <Gold.Chemscore.DEClash>
0.0000

> <Gold.Chemscore.DEInternal>
2.6095

> <Gold.Chemscore.Rot>
2.7153

> <Gold.Chemscore.Internal.Correction>
   9.000000E+99

> <Gold.Chemscore.Hbonds>
donor molecule, donor type, donor heavy atom, donor atom, acceptor molecule, acceptor atom, score
      L1  H    13    31       P1  7957  1.00
      P1  H  6934  6946       L1    10  0.24
      P1  H  7989  7998       L1    14  0.75
      P1  H  7997  8010       L1    16  0.90
      P1  H 10752 10765       L1    17  0.40

> <Gold.Chemscore.Hbond.Weighted>
-11.9021

> <Gold.Chemscore.Metal.Weighted>
-0.0000

> <Gold.Chemscore.Lipo.Weighted>
-4.2502

> <Gold.Chemscore.Internal_Hbond.Weighted>
0.0000

> <Gold.Chemscore.DEClash.Weighted>
0.0000

> <Gold.Chemscore.DEInternal.Weighted>
2.6095

> <Gold.Chemscore.Rot.Weighted>
6.9512

> <Gold.Chemscore.Internal.Correction.Weighted>
   9.000000E+99

> <Gold.Protein.RotatedTorsions>
[ 6907 6896 6895 6894 ] final   96.19 input  -60.11 | X-H torsion
[ 7974 7965 7964 7962 ] final   82.19 input  175.53 | X-H torsion
[ 8008 7997 7996 7995 ] final  103.54 input   59.86 | X-H torsion
[ 10167 10162 10161 10158 ] final  -70.27 input  -65.29 | X-H torsion
[ 10718 10713 10712 10709 ] final   91.90 input   66.30 | X-H torsion
[ 10763 10752 10751 10750 ] final -143.42 input  -60.55 | X-H torsion
[ 11005 11000 10999 10996 ] final -175.54 input  -57.11 | X-H torsion

> <Gold.Protein.ActiveResidues>
 VAL166  LYS551  ARG553  GLY616  TRP617  ASP618  TYR619  PRO620  LYS621  CYS622 
 ASP623  PHE694  ASN695  SER759  ASP760  ASP761  ALA762  ILE779  LEU786  VAL792 
 PHE793  MET794  SER795  GLU796  ALA797  LYS798  CYS799  TRP800  GLU811  SER814 

> <Gold.Protein.RotatedAtoms>
  152.5437  134.0924  159.8282 H   0  0  0  0  0  0  0  0  0  0  0  0  # atno 6907 bound_to 6896
  151.1011  133.5235  159.2617 H   0  0  0  0  0  0  0  0  0  0  0  0  # atno 6908 bound_to 6896
  151.1990  135.0443  159.8918 H   0  0  0  0  0  0  0  0  0  0  0  0  # atno 6909 bound_to 6896
  145.6284  139.2399  143.2099 H   0  0  0  0  0  0  0  0  0  0  0  0  # atno 7974 bound_to 7965
  156.1493  140.3163  155.8622 H   0  0  0  0  0  0  0  0  0  0  0  0  # atno 8008 bound_to 7997
  155.4002  140.0499  157.3054 H   0  0  0  0  0  0  0  0  0  0  0  0  # atno 8009 bound_to 7997
  154.5044  140.2141  155.9292 H   0  0  0  0  0  0  0  0  0  0  0  0  # atno 8010 bound_to 7997
  140.5366  143.2317  151.7166 H   0  0  0  0  0  0  0  0  0  0  0  0  # atno 10167 bound_to 10162
  157.6959  131.0424  150.3800 H   0  0  0  0  0  0  0  0  0  0  0  0  # atno 10718 bound_to 10713
  154.8470  135.3468  154.6185 H   0  0  0  0  0  0  0  0  0  0  0  0  # atno 10763 bound_to 10752
  153.6793  135.6981  153.5127 H   0  0  0  0  0  0  0  0  0  0  0  0  # atno 10764 bound_to 10752
  153.2680  135.4302  155.0916 H   0  0  0  0  0  0  0  0  0  0  0  0  # atno 10765 bound_to 10752
  140.4621  134.6244  157.4847 H   0  0  0  0  0  0  0  0  0  0  0  0  # atno 11005 bound_to 11000
  146.1376  140.7101  142.9382 LP  0  0  0  0  0  0  0  0  0  0  0  0  # atno 17320 bound_to 7965
  144.7203  140.4352  143.7013 LP  0  0  0  0  0  0  0  0  0  0  0  0  # atno 17321 bound_to 7965
  139.4973  144.4033  152.0158 LP  0  0  0  0  0  0  0  0  0  0  0  0  # atno 17342 bound_to 10162
  140.3139  144.3506  150.6026 LP  0  0  0  0  0  0  0  0  0  0  0  0  # atno 17343 bound_to 10162
  156.4215  130.3954  149.6822 LP  0  0  0  0  0  0  0  0  0  0  0  0  # atno 17370 bound_to 10713
  156.4071  130.7703  151.2714 LP  0  0  0  0  0  0  0  0  0  0  0  0  # atno 17371 bound_to 10713
  139.9938  134.6943  155.9643 LP  0  0  0  0  0  0  0  0  0  0  0  0  # atno 17394 bound_to 11000
  141.1616  133.6538  156.4339 LP  0  0  0  0  0  0  0  0  0  0  0  0  # atno 17395 bound_to 11000

$$$$
