AV-unprocessed.smi:2527|AV-procd|sdf|9947|dock4
  -GOLD-   2272013583D 1   1.00000     0.00000
 Structure written by MMmdl.
 36 38  0  0  0  0  0  0  0  0  3 V2000
  150.3412  138.9083  154.2117 C   0  0  0  0  0  0  0  0  0  0  0  0
  150.3296  140.2958  154.4972 O   0  0  0  0  0  0  0  0  0  0  0  0
  150.4961  140.5681  155.8794 C   0  0  0  0  0  0  0  0  0  0  0  0
  151.8778  140.0872  156.3451 C   0  0  0  0  0  0  0  0  0  0  0  0
  152.2006  140.5532  157.7016 N   0  0  0  0  0  0  0  0  0  0  0  0
  152.6774  139.8643  158.7759 C   0  0  0  0  0  0  0  0  0  0  0  0
  153.0485  138.1409  158.8266 S   0  0  0  0  0  0  0  0  0  0  0  0
  153.0400  137.6906  160.5832 C   0  0  0  0  0  0  0  0  0  0  0  0
  154.1221  136.7244  160.9681 C   0  0  0  0  0  0  0  0  0  0  0  0
  154.1576  135.5012  160.3761 N   0  5  0  0  0  0  0  0  0  0  0  0
  155.2284  134.9079  160.9336 C   0  0  0  0  0  0  0  0  0  0  0  0
  155.6948  133.7878  160.7381 O   0  0  0  0  0  0  0  0  0  0  0  0
  155.7478  135.7836  161.7972 N   0  0  0  0  0  0  0  0  0  0  0  0
  155.0527  136.9329  161.8226 N   0  0  0  0  0  0  0  0  0  0  0  0
  152.8192  140.7472  159.8029 N   0  3  0  0  0  0  0  0  0  0  0  0
  152.4330  142.0203  159.3798 C   0  0  0  0  0  0  0  0  0  0  0  0
  152.4043  143.2352  160.0576 C   0  0  0  0  0  0  0  0  0  0  0  0
  151.9581  144.3582  159.3299 C   0  0  0  0  0  0  0  0  0  0  0  0
  151.8984  145.8983  160.1047 Cl  0  0  0  0  0  0  0  0  0  0  0  0
  151.5623  144.2458  157.9809 C   0  0  0  0  0  0  0  0  0  0  0  0
  151.5943  143.0092  157.3035 C   0  0  0  0  0  0  0  0  0  0  0  0
  152.0356  141.9039  158.0310 C   0  0  0  0  0  0  0  0  0  0  0  0
  156.5591  135.6665  162.3862 H   0  0  0  0  0  0  0  0  0  0  0  0
  150.2084  138.7535  153.1410 H   0  0  0  0  0  0  0  0  0  0  0  0
  149.5320  138.3920  154.7298 H   0  0  0  0  0  0  0  0  0  0  0  0
  151.2894  138.4544  154.5026 H   0  0  0  0  0  0  0  0  0  0  0  0
  150.3975  141.6389  156.0627 H   0  0  0  0  0  0  0  0  0  0  0  0
  149.7166  140.0661  156.4551 H   0  0  0  0  0  0  0  0  0  0  0  0
  151.9482  139.0001  156.3107 H   0  0  0  0  0  0  0  0  0  0  0  0
  152.6495  140.4640  155.6732 H   0  0  0  0  0  0  0  0  0  0  0  0
  153.1394  138.6036  161.1711 H   0  0  0  0  0  0  0  0  0  0  0  0
  152.0626  137.2727  160.8277 H   0  0  0  0  0  0  0  0  0  0  0  0
  152.7091  143.3222  161.0902 H   0  0  0  0  0  0  0  0  0  0  0  0
  151.2276  145.1266  157.4523 H   0  0  0  0  0  0  0  0  0  0  0  0
  151.2943  142.9382  156.2686 H   0  0  0  0  0  0  0  0  0  0  0  0
  153.1553  140.4927  160.7228 H   0  0  0  0  0  0  0  0  0  0  0  0
  1  2  1  0  0  0  0
  1 24  1  0  0  0  0
  1 25  1  0  0  0  0
  1 26  1  0  0  0  0
  2  3  1  0  0  0  0
  3  4  1  0  0  0  0
  3 27  1  0  0  0  0
  3 28  1  0  0  0  0
  4  5  1  0  0  0  0
  4 29  1  0  0  0  0
  4 30  1  0  0  0  0
  5 22  1  0  0  0  0
  5  6  1  0  0  0  0
  6  7  1  0  0  0  0
  6 15  2  0  0  0  0
  7  8  1  0  0  0  0
  8 31  1  0  0  0  0
  8 32  1  0  0  0  0
  8  9  1  0  0  0  0
  9 14  2  0  0  0  0
  9 10  1  0  0  0  0
 10 11  1  0  0  0  0
 11 13  1  0  0  0  0
 11 12  2  0  0  0  0
 13 14  1  0  0  0  0
 13 23  1  0  0  0  0
 15 16  1  0  0  0  0
 15 36  1  0  0  0  0
 16 22  2  0  0  0  0
 16 17  1  0  0  0  0
 17 18  2  0  0  0  0
 17 33  1  0  0  0  0
 18 19  1  0  0  0  0
 18 20  1  0  0  0  0
 20 21  2  0  0  0  0
 20 34  1  0  0  0  0
 21 22  1  0  0  0  0
 21 35  1  0  0  0  0
M  CHG  1  10  -1
M  CHG  1  15   1
M  END
> <s_m_source_file>
AV-unprocessed.smi

> <i_m_source_file_index>
2527

> <i_lp_mmshare_version>
43012

> <i_f3d_flags>
0

> <s_epik_input>
W2NIXTFjKENsKVtjSF1bY0hdYyhjMTIpbihbQ0gyXVtDSDJdT1tDSDNdKWMobjIpU1tDSDJdYzNuYyg9TylbbkhdW25IXTM=

> <s_epik_cmdline>
J2VwaWtfcHl0aG9uJywgJy1waCcsICc3LjAnLCAnLXRuJywgJzgnLCAnLW1hJywgJzIwMCcsICctbWV0YWxfYmluZGluZycsICctaW1hZScsICc8aW5maWxlLm1hZT4nLCAnLW9tYWUnLCAnPG91dGZpbGUubWFlPic=

> <r_lp_tautomer_probability>
0.999897

> <r_epik_Ionization_Penalty>
3.64286

> <r_epik_Ionization_Penalty_Charging>
2.48685

> <r_epik_Ionization_Penalty_Neutral>
1.15601

> <r_epik_State_Penalty>
3.71863

> <r_epik_Charging_Adjusted_Penalty>
6.20549

> <i_epik_Tot_Q>
0

> <i_epik_Tot_abs_Q>
2

> <r_epik_Metal_State_Penalty>
2.92967

> <b_epik_Metal_Only>
1

> <s_lp_Force_Field>
OPLS_2005

> <r_lp_Energy>
23.3692

> <b_lp_Chiralities_Consistent>
1

> <s_lp_Variant>
AV-unprocessed.smi:2527-6

> <Gold.Version>
5.8.1

> <Gold.Id.Protein>
6NUR|6NUR_protein|mol2

> <Gold.PLP.Fitness>
50.2439

> <Gold.PLP.PLP>
-42.5666

> <Gold.PLP.part.hbond>
-2.0000

> <Gold.PLP.part.metal>
0.0000

> <Gold.PLP.part.buried>
-5.6193

> <Gold.PLP.part.nonpolar>
-33.9527

> <Gold.PLP.part.repulsive>
0.2283

> <Gold.PLP.ligand.clash>
0.0000

> <Gold.PLP.ligand.torsion>
0.7090

> <Gold.PLP.Chemscore.Hbond>
3.0000

> <Gold.PLP.Chemscore.CHOScore>
0.0000

> <Gold.PLP.Chemscore.Metal>
0.0000

> <Gold.Chemscore.Hbonds>
donor molecule, donor type, donor heavy atom, donor atom, acceptor molecule, acceptor atom, score
      P1  H  6896  6909       L1    10  2.00
      P1  H  7989  7998       L1     2  1.00

> <Gold.PLP.Chemscore.Internal.Correction>
0.0953

> <Gold.Rescore>
     Score         DG    S(hbond)    S(metal)    S(lipo)     H(rot)  DE(clash)    DE(int)     intcor
     14.36     -16.65       1.68        0.00     110.53       2.88       1.70       0.59       ----

> <Gold.Chemscore.Fitness>
14.3639

> <Gold.Chemscore.DG>
-16.6530

> <Gold.Chemscore.ZeroCoef>
-5.4800

> <Gold.Chemscore.Hbond>
1.6783

> <Gold.Chemscore.Metal>
0.0000

> <Gold.Chemscore.Lipo>
110.5344

> <Gold.Chemscore.Internal_Hbond>
0.0000

> <Gold.Chemscore.DEClash>
1.7020

> <Gold.Chemscore.DEInternal>
0.5871

> <Gold.Chemscore.Rot>
2.8770

> <Gold.Chemscore.Internal.Correction>
   9.000000E+99

> <Gold.Chemscore.Hbonds>
donor molecule, donor type, donor heavy atom, donor atom, acceptor molecule, acceptor atom, score
      P1  H  6896  6909       L1    10  0.93
      P1  H  7989  7998       L1     2  0.30

> <Gold.Chemscore.Hbond.Weighted>
-5.6054

> <Gold.Chemscore.Metal.Weighted>
-0.0000

> <Gold.Chemscore.Lipo.Weighted>
-12.9325

> <Gold.Chemscore.Internal_Hbond.Weighted>
0.0000

> <Gold.Chemscore.DEClash.Weighted>
1.7020

> <Gold.Chemscore.DEInternal.Weighted>
0.5871

> <Gold.Chemscore.Rot.Weighted>
7.3650

> <Gold.Chemscore.Internal.Correction.Weighted>
   9.000000E+99

> <Gold.Protein.RotatedTorsions>
[ 6907 6896 6895 6894 ] final -162.11 input  -60.11 | X-H torsion
[ 7974 7965 7964 7962 ] final  -18.84 input  175.53 | X-H torsion
[ 8008 7997 7996 7995 ] final -173.27 input   59.86 | X-H torsion
[ 10167 10162 10161 10158 ] final -135.34 input  -65.29 | X-H torsion
[ 10718 10713 10712 10709 ] final -136.41 input   66.30 | X-H torsion
[ 10763 10752 10751 10750 ] final   11.01 input  -60.55 | X-H torsion
[ 11005 11000 10999 10996 ] final   69.25 input  -57.11 | X-H torsion

> <Gold.Protein.ActiveResidues>
 VAL166  LYS551  ARG553  GLY616  TRP617  ASP618  TYR619  PRO620  LYS621  CYS622 
 ASP623  PHE694  ASN695  SER759  ASP760  ASP761  ALA762  ILE779  LEU786  VAL792 
 PHE793  MET794  SER795  GLU796  ALA797  LYS798  CYS799  TRP800  GLU811  SER814 

> <Gold.Protein.RotatedAtoms>
  151.3752  133.3840  159.2703 H   0  0  0  0  0  0  0  0  0  0  0  0  # atno 6907 bound_to 6896
  150.9620  134.9007  159.7747 H   0  0  0  0  0  0  0  0  0  0  0  0  # atno 6908 bound_to 6896
  152.5153  134.3712  159.9371 H   0  0  0  0  0  0  0  0  0  0  0  0  # atno 6909 bound_to 6896
  146.1872  140.3978  142.8472 H   0  0  0  0  0  0  0  0  0  0  0  0  # atno 7974 bound_to 7965
  155.9553  140.1134  157.0942 H   0  0  0  0  0  0  0  0  0  0  0  0  # atno 8008 bound_to 7997
  154.4119  140.1192  156.5173 H   0  0  0  0  0  0  0  0  0  0  0  0  # atno 8009 bound_to 7997
  155.6790  140.3473  155.4850 H   0  0  0  0  0  0  0  0  0  0  0  0  # atno 8010 bound_to 7997
  139.8789  143.6864  152.2630 H   0  0  0  0  0  0  0  0  0  0  0  0  # atno 10167 bound_to 10162
  156.2768  130.7297  151.1282 H   0  0  0  0  0  0  0  0  0  0  0  0  # atno 10718 bound_to 10713
  153.1971  135.6851  153.8278 H   0  0  0  0  0  0  0  0  0  0  0  0  # atno 10763 bound_to 10752
  153.7557  135.3217  155.3330 H   0  0  0  0  0  0  0  0  0  0  0  0  # atno 10764 bound_to 10752
  154.8150  135.4691  154.0720 H   0  0  0  0  0  0  0  0  0  0  0  0  # atno 10765 bound_to 10752
  139.9664  134.6973  156.0536 H   0  0  0  0  0  0  0  0  0  0  0  0  # atno 11005 bound_to 11000
  144.8418  140.6869  143.6224 LP  0  0  0  0  0  0  0  0  0  0  0  0  # atno 17320 bound_to 7965
  145.3904  139.1618  143.4232 LP  0  0  0  0  0  0  0  0  0  0  0  0  # atno 17321 bound_to 7965
  139.7214  144.7602  151.0949 LP  0  0  0  0  0  0  0  0  0  0  0  0  # atno 17342 bound_to 10162
  140.7748  143.5202  150.9545 LP  0  0  0  0  0  0  0  0  0  0  0  0  # atno 17343 bound_to 10162
  157.7302  131.0618  150.5739 LP  0  0  0  0  0  0  0  0  0  0  0  0  # atno 17370 bound_to 10713
  156.5841  130.4312  149.5965 LP  0  0  0  0  0  0  0  0  0  0  0  0  # atno 17371 bound_to 10713
  141.1344  133.6578  156.3553 LP  0  0  0  0  0  0  0  0  0  0  0  0  # atno 17394 bound_to 11000
  140.5386  134.6142  157.5373 LP  0  0  0  0  0  0  0  0  0  0  0  0  # atno 17395 bound_to 11000

$$$$
