AV-unprocessed.smi:159|AV-procd|sdf|1341|dock2
  -GOLD-   2262019 33D 1   1.00000     0.00000
 Structure written by MMmdl.
 28 29  0  0  0  0  0  0  0  0  1 V2000
  148.8361  139.9573  153.5357 N   0  0  0  0  0  0  0  0  0  0  0  0
  149.3383  140.4461  154.6780 C   0  0  0  0  0  0  0  0  0  0  0  0
  148.5526  141.3422  155.4949 C   0  0  0  0  0  0  0  0  0  0  0  0
  149.1259  141.7944  156.6318 C   0  0  0  0  0  0  0  0  0  0  0  0
  150.4146  141.4323  157.0069 N   0  0  0  0  0  0  0  0  0  0  0  0
  151.0568  141.9196  158.2925 C   0  0  1  0  0  0  0  0  0  0  0  0
  152.1944  142.9160  157.9968 C   0  0  0  0  0  0  0  0  0  0  0  0
  151.8129  144.1145  158.8436 C   0  0  0  0  0  0  0  0  0  0  0  0
  150.2924  144.0099  158.8780 C   0  0  2  0  0  0  0  0  0  0  0  0
  149.6444  144.7892  160.0301 C   0  0  0  0  0  0  0  0  0  0  0  0
  148.2390  144.7366  159.9118 O   0  0  0  0  0  0  0  0  0  0  0  0
  150.1172  142.6103  159.0645 O   0  0  0  0  0  0  0  0  0  0  0  0
  151.1518  140.5398  156.1912 C   0  0  0  0  0  0  0  0  0  0  0  0
  152.2862  140.1731  156.4960 O   0  0  0  0  0  0  0  0  0  0  0  0
  150.5555  140.0933  155.0425 N   0  0  0  0  0  0  0  0  0  0  0  0
  151.3738  141.0192  158.8225 H   0  0  0  0  0  0  0  0  0  0  0  0
  149.8874  144.3237  157.9138 H   0  0  0  0  0  0  0  0  0  0  0  0
  149.3865  139.3294  152.9682 H   0  0  0  0  0  0  0  0  0  0  0  0
  147.9063  140.2214  153.2434 H   0  0  0  0  0  0  0  0  0  0  0  0
  147.5503  141.6550  155.2389 H   0  0  0  0  0  0  0  0  0  0  0  0
  148.5346  142.4577  157.2447 H   0  0  0  0  0  0  0  0  0  0  0  0
  153.1641  142.4945  158.2629 H   0  0  0  0  0  0  0  0  0  0  0  0
  152.2010  143.1841  156.9391 H   0  0  0  0  0  0  0  0  0  0  0  0
  152.2245  144.0068  159.8482 H   0  0  0  0  0  0  0  0  0  0  0  0
  152.1668  145.0582  158.4279 H   0  0  0  0  0  0  0  0  0  0  0  0
  149.9602  144.4027  160.9996 H   0  0  0  0  0  0  0  0  0  0  0  0
  149.9389  145.8382  159.9856 H   0  0  0  0  0  0  0  0  0  0  0  0
  147.9984  145.0394  159.0498 H   0  0  0  0  0  0  0  0  0  0  0  0
  1  2  1  0  0  0  0
  1 18  1  0  0  0  0
  1 19  1  0  0  0  0
  2 15  2  0  0  0  0
  2  3  1  0  0  0  0
  3  4  2  0  0  0  0
  3 20  1  0  0  0  0
  4  5  1  0  0  0  0
  4 21  1  0  0  0  0
  5  6  1  0  0  0  0
  5 13  1  0  0  0  0
  6 16  1  0  0  0  0
  6 12  1  0  0  0  0
  6  7  1  0  0  0  0
  7  8  1  0  0  0  0
  7 22  1  0  0  0  0
  7 23  1  0  0  0  0
  8  9  1  0  0  0  0
  8 24  1  0  0  0  0
  8 25  1  0  0  0  0
  9 17  1  0  0  0  0
  9 10  1  0  0  0  0
  9 12  1  0  0  0  0
 10 11  1  0  0  0  0
 10 26  1  0  0  0  0
 10 27  1  0  0  0  0
 11 28  1  0  0  0  0
 13 14  2  0  0  0  0
 13 15  1  0  0  0  0
M  END
> <s_m_source_file>
AV-unprocessed.smi

> <i_m_source_file_index>
159

> <i_lp_mmshare_version>
43012

> <i_f3d_flags>
0

> <s_epik_input>
W05IMl1jMVtjSF1bY0hdbihjKD1PKW4xKVtDQEhdMltDSDJdW0NIMl1bQ0BIXShPMilbQ0gyXVtPSF0=

> <s_epik_cmdline>
J2VwaWtfcHl0aG9uJywgJy1waCcsICc3LjAnLCAnLXRuJywgJzgnLCAnLW1hJywgJzIwMCcsICctbWV0YWxfYmluZGluZycsICctaW1hZScsICc8aW5maWxlLm1hZT4nLCAnLW9tYWUnLCAnPG91dGZpbGUubWFlPic=

> <r_lp_tautomer_probability>
0.99996

> <r_epik_Ionization_Penalty>
0.00126102

> <r_epik_Ionization_Penalty_Charging>
4.46248e-08

> <r_epik_Ionization_Penalty_Neutral>
0.00126097

> <r_epik_State_Penalty>
1.15523e-05

> <r_epik_Charging_Adjusted_Penalty>
1.1597e-05

> <i_epik_Tot_Q>
0

> <i_epik_Tot_abs_Q>
0

> <r_epik_Metal_State_Penalty>
-0

> <b_epik_Metal_Only>
0

> <s_epik_Chemistry_Notes>
This compound contains an acetal/aminal-like group ( X-CH(R)-Y where X, Y are N, S, or O) that may be acid/base labile, releasing an aldehyde.

> <s_lp_Force_Field>
OPLS_2005

> <r_lp_Energy>
23.8036

> <b_lp_Chiralities_Consistent>
1

> <s_lp_Variant>
AV-unprocessed.smi:159-3

> <Gold.Version>
5.8.1

> <Gold.Id.Protein>
6NUR|6NUR_protein|mol2

> <Gold.PLP.Fitness>
36.6358

> <Gold.PLP.PLP>
-26.7650

> <Gold.PLP.part.hbond>
-4.5009

> <Gold.PLP.part.metal>
0.0000

> <Gold.PLP.part.buried>
-3.8781

> <Gold.PLP.part.nonpolar>
-19.0191

> <Gold.PLP.part.repulsive>
0.2800

> <Gold.PLP.ligand.clash>
0.0000

> <Gold.PLP.ligand.torsion>
0.2247

> <Gold.PLP.Chemscore.Hbond>
3.2473

> <Gold.PLP.Chemscore.CHOScore>
0.1847

> <Gold.PLP.Chemscore.Metal>
0.0000

> <Gold.Chemscore.Hbonds>
donor molecule, donor type, donor heavy atom, donor atom, acceptor molecule, acceptor atom, score
      L1  H     1    18       P1  7957  0.22
      L1  H    11    28       P1  8029  1.00
      P1  H  7989  7998       L1    15  0.99
      P1  H  7997  8008       L1    14  0.94
      L1  C     4    21       P1  8028  0.13

> <Gold.PLP.Chemscore.Internal.Correction>
0.0244

> <Gold.Rescore>
     Score         DG    S(hbond)    S(metal)    S(lipo)     H(rot)  DE(clash)    DE(int)     intcor
     12.04     -12.66       2.00        0.00      50.03       2.09       0.30       0.32       ----

> <Gold.Chemscore.Fitness>
12.0412

> <Gold.Chemscore.DG>
-12.6595

> <Gold.Chemscore.ZeroCoef>
-5.4800

> <Gold.Chemscore.Hbond>
2.0015

> <Gold.Chemscore.Metal>
0.0000

> <Gold.Chemscore.Lipo>
50.0338

> <Gold.Chemscore.Internal_Hbond>
0.0000

> <Gold.Chemscore.DEClash>
0.3009

> <Gold.Chemscore.DEInternal>
0.3175

> <Gold.Chemscore.Rot>
2.0935

> <Gold.Chemscore.Internal.Correction>
   9.000000E+99

> <Gold.Chemscore.Hbonds>
donor molecule, donor type, donor heavy atom, donor atom, acceptor molecule, acceptor atom, score
      L1  H     1    18       P1  7957  0.24
      L1  H    11    28       P1  8029  0.97
      P1  H  7989  7998       L1    15  0.13
      P1  H  7997  8008       L1    14  0.88

> <Gold.Chemscore.Hbond.Weighted>
-6.6849

> <Gold.Chemscore.Metal.Weighted>
-0.0000

> <Gold.Chemscore.Lipo.Weighted>
-5.8540

> <Gold.Chemscore.Internal_Hbond.Weighted>
0.0000

> <Gold.Chemscore.DEClash.Weighted>
0.3009

> <Gold.Chemscore.DEInternal.Weighted>
0.3175

> <Gold.Chemscore.Rot.Weighted>
5.3594

> <Gold.Chemscore.Internal.Correction.Weighted>
   9.000000E+99

> <Gold.Protein.RotatedTorsions>
[ 6907 6896 6895 6894 ] final  124.55 input  -60.11 | X-H torsion
[ 7974 7965 7964 7962 ] final  132.44 input  175.53 | X-H torsion
[ 8008 7997 7996 7995 ] final  -51.66 input   59.86 | X-H torsion
[ 10167 10162 10161 10158 ] final  144.48 input  -65.29 | X-H torsion
[ 10718 10713 10712 10709 ] final  -22.84 input   66.30 | X-H torsion
[ 10763 10752 10751 10750 ] final -162.44 input  -60.55 | X-H torsion
[ 11005 11000 10999 10996 ] final -107.78 input  -57.11 | X-H torsion

> <Gold.Protein.ActiveResidues>
 VAL166  LYS551  ARG553  GLY616  TRP617  ASP618  TYR619  PRO620  LYS621  CYS622 
 ASP623  PHE694  ASN695  SER759  ASP760  ASP761  ALA762  ILE779  LEU786  VAL792 
 PHE793  MET794  SER795  GLU796  ALA797  LYS798  CYS799  TRP800  GLU811  SER814 

> <Gold.Protein.RotatedAtoms>
  152.4068  133.6902  159.6363 H   0  0  0  0  0  0  0  0  0  0  0  0  # atno 6907 bound_to 6896
  150.7952  133.8694  159.3263 H   0  0  0  0  0  0  0  0  0  0  0  0  # atno 6908 bound_to 6896
  151.6446  135.1010  160.0200 H   0  0  0  0  0  0  0  0  0  0  0  0  # atno 6909 bound_to 6896
  144.9968  139.4351  143.5312 H   0  0  0  0  0  0  0  0  0  0  0  0  # atno 7974 bound_to 7965
  154.4088  140.1242  156.4866 H   0  0  0  0  0  0  0  0  0  0  0  0  # atno 8008 bound_to 7997
  155.7032  140.3494  155.4922 H   0  0  0  0  0  0  0  0  0  0  0  0  # atno 8009 bound_to 7997
  155.9366  140.1079  157.1079 H   0  0  0  0  0  0  0  0  0  0  0  0  # atno 8010 bound_to 7997
  139.4946  144.5969  151.6564 H   0  0  0  0  0  0  0  0  0  0  0  0  # atno 10167 bound_to 10162
  156.4992  130.4584  149.6711 H   0  0  0  0  0  0  0  0  0  0  0  0  # atno 10718 bound_to 10713
  154.7214  135.3026  154.9041 H   0  0  0  0  0  0  0  0  0  0  0  0  # atno 10763 bound_to 10752
  153.9912  135.6718  153.4758 H   0  0  0  0  0  0  0  0  0  0  0  0  # atno 10764 bound_to 10752
  153.0837  135.4995  154.8472 H   0  0  0  0  0  0  0  0  0  0  0  0  # atno 10765 bound_to 10752
  141.0936  133.9010  157.2016 H   0  0  0  0  0  0  0  0  0  0  0  0  # atno 11005 bound_to 11000
  146.3443  139.9332  142.8750 LP  0  0  0  0  0  0  0  0  0  0  0  0  # atno 17320 bound_to 7965
  145.2209  140.9934  143.4046 LP  0  0  0  0  0  0  0  0  0  0  0  0  # atno 17321 bound_to 7965
  140.5609  144.0270  150.6169 LP  0  0  0  0  0  0  0  0  0  0  0  0  # atno 17342 bound_to 10162
  140.3355  143.3051  152.0642 LP  0  0  0  0  0  0  0  0  0  0  0  0  # atno 17343 bound_to 10162
  156.3350  130.7351  151.2287 LP  0  0  0  0  0  0  0  0  0  0  0  0  # atno 17370 bound_to 10713
  157.7465  131.0419  150.4670 LP  0  0  0  0  0  0  0  0  0  0  0  0  # atno 17371 bound_to 10713
  139.9768  135.0111  156.9650 LP  0  0  0  0  0  0  0  0  0  0  0  0  # atno 17394 bound_to 11000
  140.5193  134.0924  155.7288 LP  0  0  0  0  0  0  0  0  0  0  0  0  # atno 17395 bound_to 11000

$$$$
