AV-unprocessed.smi:744|AV-procd|sdf|3570|dock5
  -GOLD-   22720 0563D 1   1.00000     0.00000
 Structure written by MMmdl.
 34 35  0  0  0  0  0  0  0  0  1 V2000
  144.7123  137.1408  151.7414 O   0  0  0  0  0  0  0  0  0  0  0  0
  145.9040  136.8340  151.7786 C   0  0  0  0  0  0  0  0  0  0  0  0
  146.8922  137.7242  151.9507 N   0  0  0  0  0  0  0  0  0  0  0  0
  146.7181  139.1649  152.1135 C   0  0  0  0  0  0  0  0  0  0  0  0
  147.2185  139.6532  153.4888 C   0  0  2  0  0  0  0  0  0  0  0  0
  147.7057  141.1066  153.4999 C   0  0  0  0  0  0  0  0  0  0  0  0
  148.6020  141.2345  154.7410 C   0  0  0  0  0  0  0  0  0  0  0  0
  148.8739  139.8039  155.2338 C   0  0  0  0  0  0  0  0  0  0  0  0
  148.3831  138.8723  154.1202 C   0  0  2  0  0  0  0  0  0  0  0  0
  149.4369  138.6745  153.1959 O   0  0  0  0  0  0  0  0  0  0  0  0
  146.3896  135.5865  151.6503 N   0  0  0  0  0  0  0  0  0  0  0  0
  145.6667  134.3806  151.4463 C   0  0  0  0  0  0  0  0  0  0  0  0
  146.4535  133.2067  151.4243 C   0  0  0  0  0  0  0  0  0  0  0  0
  145.8309  131.9588  151.2279 C   0  0  0  0  0  0  0  0  0  0  0  0
  144.4352  131.9165  151.0595 C   0  0  0  0  0  0  0  0  0  0  0  0
  143.7260  133.1311  151.0945 C   0  0  0  0  0  0  0  0  0  0  0  0
  144.3210  134.3282  151.2818 N   0  0  0  0  0  0  0  0  0  0  0  0
  147.8409  137.3801  151.9700 H   0  0  0  0  0  0  0  0  0  0  0  0
  147.1997  139.7160  151.3039 H   0  0  0  0  0  0  0  0  0  0  0  0
  145.6523  139.3764  152.0239 H   0  0  0  0  0  0  0  0  0  0  0  0
  146.3796  139.5948  154.1850 H   0  0  0  0  0  0  0  0  0  0  0  0
  148.2968  141.3077  152.6051 H   0  0  0  0  0  0  0  0  0  0  0  0
  146.8791  141.8177  153.5109 H   0  0  0  0  0  0  0  0  0  0  0  0
  149.5316  141.7447  154.4859 H   0  0  0  0  0  0  0  0  0  0  0  0
  148.1133  141.8190  155.5211 H   0  0  0  0  0  0  0  0  0  0  0  0
  149.9200  139.6407  155.4966 H   0  0  0  0  0  0  0  0  0  0  0  0
  148.2862  139.6221  156.1345 H   0  0  0  0  0  0  0  0  0  0  0  0
  148.0683  137.9038  154.5103 H   0  0  0  0  0  0  0  0  0  0  0  0
  149.1963  137.9691  152.6129 H   0  0  0  0  0  0  0  0  0  0  0  0
  147.3926  135.4876  151.7013 H   0  0  0  0  0  0  0  0  0  0  0  0
  147.5249  133.2567  151.5560 H   0  0  0  0  0  0  0  0  0  0  0  0
  146.4148  131.0505  151.2070 H   0  0  0  0  0  0  0  0  0  0  0  0
  143.9216  130.9789  150.9076 H   0  0  0  0  0  0  0  0  0  0  0  0
  142.6534  133.1427  150.9696 H   0  0  0  0  0  0  0  0  0  0  0  0
  1  2  2  0  0  0  0
  2  3  1  0  0  0  0
  2 11  1  0  0  0  0
  3  4  1  0  0  0  0
  3 18  1  0  0  0  0
  4  5  1  0  0  0  0
  4 19  1  0  0  0  0
  4 20  1  0  0  0  0
  5  9  1  0  0  0  0
  5  6  1  0  0  0  0
  5 21  1  0  0  0  0
  6  7  1  0  0  0  0
  6 22  1  0  0  0  0
  6 23  1  0  0  0  0
  7  8  1  0  0  0  0
  7 24  1  0  0  0  0
  7 25  1  0  0  0  0
  8  9  1  0  0  0  0
  8 26  1  0  0  0  0
  8 27  1  0  0  0  0
  9 10  1  0  0  0  0
  9 28  1  0  0  0  0
 10 29  1  0  0  0  0
 11 12  1  0  0  0  0
 11 30  1  0  0  0  0
 12 17  1  0  0  0  0
 12 13  2  0  0  0  0
 13 14  1  0  0  0  0
 13 31  1  0  0  0  0
 14 15  2  0  0  0  0
 14 32  1  0  0  0  0
 15 16  1  0  0  0  0
 15 33  1  0  0  0  0
 16 17  2  0  0  0  0
 16 34  1  0  0  0  0
M  END
> <s_m_source_file>
AV-unprocessed.smi

> <i_m_source_file_index>
744

> <i_lp_mmshare_version>
43012

> <i_f3d_flags>
0

> <s_epik_input>
bjFbY0hdW2NIXVtjSF1bY0hdYzFbTkhdQyg9TylbTkhdW0NIMl1bQ0BASF0yW0NIMl1bQ0gyXVtDSDJdW0NASF0yW09IXQ==

> <s_epik_cmdline>
J2VwaWtfcHl0aG9uJywgJy1waCcsICc3LjAnLCAnLXRuJywgJzgnLCAnLW1hJywgJzIwMCcsICctbWV0YWxfYmluZGluZycsICctaW1hZScsICc8aW5maWxlLm1hZT4nLCAnLW9tYWUnLCAnPG91dGZpbGUubWFlPic=

> <r_lp_tautomer_probability>
1

> <r_epik_Ionization_Penalty>
5.04769e-05

> <r_epik_Ionization_Penalty_Charging>
0

> <r_epik_Ionization_Penalty_Neutral>
5.04769e-05

> <r_epik_State_Penalty>
-0

> <r_epik_Charging_Adjusted_Penalty>
0

> <i_epik_Tot_Q>
0

> <i_epik_Tot_abs_Q>
0

> <r_epik_Metal_State_Penalty>
-0

> <b_epik_Metal_Only>
0

> <s_lp_Force_Field>
OPLS_2005

> <r_lp_Energy>
26.8719

> <b_lp_Chiralities_Consistent>
1

> <s_lp_Variant>
AV-unprocessed.smi:744-3

> <Gold.Version>
5.8.1

> <Gold.Id.Protein>
6NUR|6NUR_protein|mol2

> <Gold.PLP.Fitness>
41.3724

> <Gold.PLP.PLP>
-30.0897

> <Gold.PLP.part.hbond>
-3.6902

> <Gold.PLP.part.metal>
0.0000

> <Gold.PLP.part.buried>
-4.2000

> <Gold.PLP.part.nonpolar>
-25.6390

> <Gold.PLP.part.repulsive>
4.0613

> <Gold.PLP.ligand.clash>
0.0000

> <Gold.PLP.ligand.torsion>
0.3594

> <Gold.PLP.Chemscore.Hbond>
3.0000

> <Gold.PLP.Chemscore.CHOScore>
1.0000

> <Gold.PLP.Chemscore.Metal>
0.0000

> <Gold.Chemscore.Hbonds>
donor molecule, donor type, donor heavy atom, donor atom, acceptor molecule, acceptor atom, score
      L1  H     3    18       P1  7948  1.00
      L1  H    10    29       P1  7948  1.00
      L1  H    11    30       P1  7948  0.99
      L1  C    16    34       P1 10186  1.00

> <Gold.PLP.Chemscore.Internal.Correction>
0.0013

> <Gold.Rescore>
     Score         DG    S(hbond)    S(metal)    S(lipo)     H(rot)  DE(clash)    DE(int)     intcor
     14.85     -18.09       2.79        0.00      67.69       1.81       0.71       2.53       ----

> <Gold.Chemscore.Fitness>
14.8455

> <Gold.Chemscore.DG>
-18.0886

> <Gold.Chemscore.ZeroCoef>
-5.4800

> <Gold.Chemscore.Hbond>
2.7876

> <Gold.Chemscore.Metal>
0.0000

> <Gold.Chemscore.Lipo>
67.6857

> <Gold.Chemscore.Internal_Hbond>
0.0000

> <Gold.Chemscore.DEClash>
0.7118

> <Gold.Chemscore.DEInternal>
2.5313

> <Gold.Chemscore.Rot>
1.8052

> <Gold.Chemscore.Internal.Correction>
   9.000000E+99

> <Gold.Chemscore.Hbonds>
donor molecule, donor type, donor heavy atom, donor atom, acceptor molecule, acceptor atom, score
      L1  H     3    18       P1  7948  0.95
      L1  H    10    29       P1  7948  0.96
      L1  H    11    30       P1  7948  0.93

> <Gold.Chemscore.Hbond.Weighted>
-9.3106

> <Gold.Chemscore.Metal.Weighted>
-0.0000

> <Gold.Chemscore.Lipo.Weighted>
-7.9192

> <Gold.Chemscore.Internal_Hbond.Weighted>
0.0000

> <Gold.Chemscore.DEClash.Weighted>
0.7118

> <Gold.Chemscore.DEInternal.Weighted>
2.5313

> <Gold.Chemscore.Rot.Weighted>
4.6212

> <Gold.Chemscore.Internal.Correction.Weighted>
   9.000000E+99

> <Gold.Protein.RotatedTorsions>
[ 6907 6896 6895 6894 ] final -124.99 input  -60.11 | X-H torsion
[ 7974 7965 7964 7962 ] final  111.33 input  175.53 | X-H torsion
[ 8008 7997 7996 7995 ] final  -42.57 input   59.86 | X-H torsion
[ 10167 10162 10161 10158 ] final -125.18 input  -65.29 | X-H torsion
[ 10718 10713 10712 10709 ] final -140.65 input   66.30 | X-H torsion
[ 10763 10752 10751 10750 ] final -115.45 input  -60.55 | X-H torsion
[ 11005 11000 10999 10996 ] final  120.81 input  -57.11 | X-H torsion

> <Gold.Protein.ActiveResidues>
 VAL166  LYS551  ARG553  GLY616  TRP617  ASP618  TYR619  PRO620  LYS621  CYS622 
 ASP623  PHE694  ASN695  SER759  ASP760  ASP761  ALA762  ILE779  LEU786  VAL792 
 PHE793  MET794  SER795  GLU796  ALA797  LYS798  CYS799  TRP800  GLU811  SER814 

> <Gold.Protein.RotatedAtoms>
  150.8823  133.7356  159.2928 H   0  0  0  0  0  0  0  0  0  0  0  0  # atno 6907 bound_to 6896
  151.4933  135.1057  159.9819 H   0  0  0  0  0  0  0  0  0  0  0  0  # atno 6908 bound_to 6896
  152.4767  133.8110  159.7059 H   0  0  0  0  0  0  0  0  0  0  0  0  # atno 6909 bound_to 6896
  145.2436  139.2768  143.4105 H   0  0  0  0  0  0  0  0  0  0  0  0  # atno 7974 bound_to 7965
  154.3998  140.1470  156.3377 H   0  0  0  0  0  0  0  0  0  0  0  0  # atno 8008 bound_to 7997
  155.8385  140.3463  155.5596 H   0  0  0  0  0  0  0  0  0  0  0  0  # atno 8009 bound_to 7997
  155.8112  140.0884  157.1893 H   0  0  0  0  0  0  0  0  0  0  0  0  # atno 8010 bound_to 7997
  139.9848  143.5704  152.2364 H   0  0  0  0  0  0  0  0  0  0  0  0  # atno 10167 bound_to 10162
  156.3248  130.7554  151.1659 H   0  0  0  0  0  0  0  0  0  0  0  0  # atno 10718 bound_to 10713
  154.8481  135.4381  154.1665 H   0  0  0  0  0  0  0  0  0  0  0  0  # atno 10763 bound_to 10752
  153.2789  135.6952  153.7411 H   0  0  0  0  0  0  0  0  0  0  0  0  # atno 10764 bound_to 10752
  153.6623  135.3433  155.3105 H   0  0  0  0  0  0  0  0  0  0  0  0  # atno 10765 bound_to 10752
  139.9200  134.9636  156.7862 H   0  0  0  0  0  0  0  0  0  0  0  0  # atno 11005 bound_to 11000
  146.3322  140.2806  142.8610 LP  0  0  0  0  0  0  0  0  0  0  0  0  # atno 17320 bound_to 7965
  144.9566  140.8233  143.5539 LP  0  0  0  0  0  0  0  0  0  0  0  0  # atno 17321 bound_to 7965
  139.6383  144.7652  151.2392 LP  0  0  0  0  0  0  0  0  0  0  0  0  # atno 17342 bound_to 10162
  140.7476  143.6360  150.8378 LP  0  0  0  0  0  0  0  0  0  0  0  0  # atno 17343 bound_to 10162
  157.7419  131.0497  150.5063 LP  0  0  0  0  0  0  0  0  0  0  0  0  # atno 17370 bound_to 10713
  156.5221  130.4164  149.6245 LP  0  0  0  0  0  0  0  0  0  0  0  0  # atno 17371 bound_to 10713
  140.6504  133.9737  155.7752 LP  0  0  0  0  0  0  0  0  0  0  0  0  # atno 17394 bound_to 11000
  141.0712  134.0203  157.3523 LP  0  0  0  0  0  0  0  0  0  0  0  0  # atno 17395 bound_to 11000

$$$$
