AV-unprocessed.smi:3181|AV-procd|sdf|12139|dock4
  -GOLD-   2272017573D 1   1.00000     0.00000
 Structure written by MMmdl.
 42 43  0  0  0  0  0  0  0  0  2 V2000
  151.8776  138.9901  158.5350 C   0  0  0  0  0  0  0  0  0  0  0  0
  151.2261  140.1731  157.7975 C   0  0  2  0  0  0  0  0  0  0  0  0
  151.8560  140.4390  156.4158 C   0  0  0  0  0  0  0  0  0  0  0  0
  151.5692  139.3907  155.4539 N   0  0  0  0  0  0  0  0  0  0  0  0
  152.0510  138.1507  155.3532 C   0  0  0  0  0  0  0  0  0  0  0  0
  151.5558  137.4659  154.3322 N   0  0  0  0  0  0  0  0  0  0  0  0
  150.7122  138.4072  153.8129 C   0  0  0  0  0  0  0  0  0  0  0  0
  150.6820  139.5785  154.4490 N   0  0  0  0  0  0  0  0  0  0  0  0
  151.3231  141.3978  158.6239 N   0  3  0  0  0  0  0  0  0  0  0  0
  152.6349  142.0884  158.6189 C   0  0  2  0  0  0  0  0  0  0  0  0
  153.5519  141.5101  159.7093 C   0  0  0  0  0  0  0  0  0  0  0  0
  153.0878  141.9022  161.1209 C   0  0  0  0  0  0  0  0  0  0  0  0
  152.9600  143.4296  161.2903 C   0  0  2  0  0  0  0  0  0  0  0  0
  152.5013  143.7573  162.7224 C   0  0  0  0  0  0  0  0  0  0  0  0
  152.0248  144.0246  160.2047 C   0  0  1  0  0  0  0  0  0  0  0  0
  151.9058  145.5568  160.2898 C   0  0  0  0  0  0  0  0  0  0  0  0
  152.4986  143.6153  158.7926 C   0  0  0  0  0  0  0  0  0  0  0  0
  151.7549  138.0576  157.9838 H   0  0  0  0  0  0  0  0  0  0  0  0
  151.4317  138.8402  159.5183 H   0  0  0  0  0  0  0  0  0  0  0  0
  152.9464  139.1532  158.6780 H   0  0  0  0  0  0  0  0  0  0  0  0
  150.1746  139.9296  157.6374 H   0  0  0  0  0  0  0  0  0  0  0  0
  151.4819  141.3790  156.0076 H   0  0  0  0  0  0  0  0  0  0  0  0
  152.9384  140.5477  156.5055 H   0  0  0  0  0  0  0  0  0  0  0  0
  152.7799  137.7418  156.0378 H   0  0  0  0  0  0  0  0  0  0  0  0
  150.1032  138.2240  152.9397 H   0  0  0  0  0  0  0  0  0  0  0  0
  150.6076  142.0492  158.3341 H   0  0  0  0  0  0  0  0  0  0  0  0
  153.1032  141.8836  157.6549 H   0  0  0  0  0  0  0  0  0  0  0  0
  153.6078  140.4241  159.6212 H   0  0  0  0  0  0  0  0  0  0  0  0
  154.5670  141.8786  159.5558 H   0  0  0  0  0  0  0  0  0  0  0  0
  152.1304  141.4264  161.3379 H   0  0  0  0  0  0  0  0  0  0  0  0
  153.7946  141.5069  161.8516 H   0  0  0  0  0  0  0  0  0  0  0  0
  153.9532  143.8616  161.1571 H   0  0  0  0  0  0  0  0  0  0  0  0
  151.4818  143.4145  162.9012 H   0  0  0  0  0  0  0  0  0  0  0  0
  152.5366  144.8273  162.9249 H   0  0  0  0  0  0  0  0  0  0  0  0
  153.1457  143.2759  163.4587 H   0  0  0  0  0  0  0  0  0  0  0  0
  151.0254  143.6147  160.3566 H   0  0  0  0  0  0  0  0  0  0  0  0
  152.8834  146.0356  160.2249 H   0  0  0  0  0  0  0  0  0  0  0  0
  151.4364  145.8759  161.2200 H   0  0  0  0  0  0  0  0  0  0  0  0
  151.2914  145.9471  159.4780 H   0  0  0  0  0  0  0  0  0  0  0  0
  153.4704  144.0733  158.6015 H   0  0  0  0  0  0  0  0  0  0  0  0
  151.8305  144.0264  158.0358 H   0  0  0  0  0  0  0  0  0  0  0  0
  151.1331  141.1269  159.5782 H   0  0  0  0  0  0  0  0  0  0  0  0
  1  2  1  0  0  0  0
  1 18  1  0  0  0  0
  1 19  1  0  0  0  0
  1 20  1  0  0  0  0
  2  3  1  0  0  0  0
  2  9  1  0  0  0  0
  2 21  1  0  0  0  0
  3  4  1  0  0  0  0
  3 22  1  0  0  0  0
  3 23  1  0  0  0  0
  4  8  1  0  0  0  0
  4  5  1  0  0  0  0
  5  6  2  0  0  0  0
  5 24  1  0  0  0  0
  6  7  1  0  0  0  0
  7  8  2  0  0  0  0
  7 25  1  0  0  0  0
  9 10  1  0  0  0  0
  9 26  1  0  0  0  0
  9 42  1  0  0  0  0
 10 17  1  0  0  0  0
 10 11  1  0  0  0  0
 10 27  1  0  0  0  0
 11 12  1  0  0  0  0
 11 28  1  0  0  0  0
 11 29  1  0  0  0  0
 12 13  1  0  0  0  0
 12 30  1  0  0  0  0
 12 31  1  0  0  0  0
 13 14  1  0  0  0  0
 13 15  1  0  0  0  0
 13 32  1  0  0  0  0
 14 33  1  0  0  0  0
 14 34  1  0  0  0  0
 14 35  1  0  0  0  0
 15 16  1  0  0  0  0
 15 17  1  0  0  0  0
 15 36  1  0  0  0  0
 16 37  1  0  0  0  0
 16 38  1  0  0  0  0
 16 39  1  0  0  0  0
 17 40  1  0  0  0  0
 17 41  1  0  0  0  0
M  CHG  1   9   1
M  END
> <s_m_source_file>
AV-unprocessed.smi

> <i_m_source_file_index>
3181

> <i_lp_mmshare_version>
43012

> <i_f3d_flags>
0

> <s_epik_input>
bjFbY0hdbltjSF1uMVtDSDJdW0NAQEhdKFtDSDNdKVtOSF1bQ0BASF0yW0NIMl1bQ0gyXVtDQEBIXShbQ0gzXSlbQ0BASF0oW0NIM10pW0NIMl0y

> <s_epik_cmdline>
J2VwaWtfcHl0aG9uJywgJy1waCcsICc3LjAnLCAnLXRuJywgJzgnLCAnLW1hJywgJzIwMCcsICctbWV0YWxfYmluZGluZycsICctaW1hZScsICc8aW5maWxlLm1hZT4nLCAnLW9tYWUnLCAnPG91dGZpbGUubWFlPic=

> <r_lp_tautomer_probability>
1

> <r_epik_Ionization_Penalty>
0.000617007

> <r_epik_Ionization_Penalty_Charging>
0.000616215

> <r_epik_Ionization_Penalty_Neutral>
7.92544e-07

> <r_epik_State_Penalty>
0.000388807

> <r_epik_Charging_Adjusted_Penalty>
0.00100502

> <i_epik_Tot_Q>
1

> <i_epik_Tot_abs_Q>
1

> <r_epik_Metal_State_Penalty>
-0

> <b_epik_Metal_Only>
0

> <s_lp_Force_Field>
OPLS_2005

> <r_lp_Energy>
23.3583

> <b_lp_Chiralities_Consistent>
1

> <s_lp_Variant>
AV-unprocessed.smi:3181-5

> <Gold.Version>
5.8.1

> <Gold.Id.Protein>
6NUR|6NUR_protein|mol2

> <Gold.PLP.Fitness>
48.1900

> <Gold.PLP.PLP>
-39.8369

> <Gold.PLP.part.hbond>
-1.5419

> <Gold.PLP.part.metal>
0.0000

> <Gold.PLP.part.buried>
-4.0192

> <Gold.PLP.part.nonpolar>
-33.7210

> <Gold.PLP.part.repulsive>
0.4337

> <Gold.PLP.ligand.clash>
0.0000

> <Gold.PLP.ligand.torsion>
0.7186

> <Gold.PLP.Chemscore.Hbond>
1.5038

> <Gold.PLP.Chemscore.CHOScore>
1.7505

> <Gold.PLP.Chemscore.Metal>
0.0000

> <Gold.Chemscore.Hbonds>
donor molecule, donor type, donor heavy atom, donor atom, acceptor molecule, acceptor atom, score
      P1  H  7989  7998       L1     8  0.90
      P1  H 10752 10765       L1     6  0.41
      L1  C     7    25       P1  7948  1.00
      L1  C     7    25       P1  7949  0.02
      L1  C     7    25       P1  7957  0.79

> <Gold.PLP.Chemscore.Internal.Correction>
0.0276

> <Gold.Rescore>
     Score         DG    S(hbond)    S(metal)    S(lipo)     H(rot)  DE(clash)    DE(int)     intcor
     16.03     -18.63       1.70        0.00     109.93       2.11       1.90       0.70       ----

> <Gold.Chemscore.Fitness>
16.0262

> <Gold.Chemscore.DG>
-18.6337

> <Gold.Chemscore.ZeroCoef>
-5.4800

> <Gold.Chemscore.Hbond>
1.7044

> <Gold.Chemscore.Metal>
0.0000

> <Gold.Chemscore.Lipo>
109.9267

> <Gold.Chemscore.Internal_Hbond>
0.0000

> <Gold.Chemscore.DEClash>
1.9038

> <Gold.Chemscore.DEInternal>
0.7037

> <Gold.Chemscore.Rot>
2.1095

> <Gold.Chemscore.Internal.Correction>
   9.000000E+99

> <Gold.Chemscore.Hbonds>
donor molecule, donor type, donor heavy atom, donor atom, acceptor molecule, acceptor atom, score
      P1  H  7989  7998       L1     8  0.13
      P1  H 10752 10765       L1     6  0.12

> <Gold.Chemscore.Hbond.Weighted>
-5.6926

> <Gold.Chemscore.Metal.Weighted>
-0.0000

> <Gold.Chemscore.Lipo.Weighted>
-12.8614

> <Gold.Chemscore.Internal_Hbond.Weighted>
0.0000

> <Gold.Chemscore.DEClash.Weighted>
1.9038

> <Gold.Chemscore.DEInternal.Weighted>
0.7037

> <Gold.Chemscore.Rot.Weighted>
5.4003

> <Gold.Chemscore.Internal.Correction.Weighted>
   9.000000E+99

> <Gold.Protein.RotatedTorsions>
[ 6907 6896 6895 6894 ] final   48.41 input  -60.11 | X-H torsion
[ 7974 7965 7964 7962 ] final  -37.24 input  175.53 | X-H torsion
[ 8008 7997 7996 7995 ] final   54.88 input   59.86 | X-H torsion
[ 10167 10162 10161 10158 ] final    4.35 input  -65.29 | X-H torsion
[ 10718 10713 10712 10709 ] final -128.39 input   66.30 | X-H torsion
[ 10763 10752 10751 10750 ] final  160.69 input  -60.55 | X-H torsion
[ 11005 11000 10999 10996 ] final  125.55 input  -57.11 | X-H torsion

> <Gold.Protein.ActiveResidues>
 VAL166  LYS551  ARG553  GLY616  TRP617  ASP618  TYR619  PRO620  LYS621  CYS622 
 ASP623  PHE694  ASN695  SER759  ASP760  ASP761  ALA762  ILE779  LEU786  VAL792 
 PHE793  MET794  SER795  GLU796  ALA797  LYS798  CYS799  TRP800  GLU811  SER814 

> <Gold.Protein.RotatedAtoms>
  152.2792  134.7847  160.0399 H   0  0  0  0  0  0  0  0  0  0  0  0  # atno 6907 bound_to 6896
  151.8432  133.3422  159.3658 H   0  0  0  0  0  0  0  0  0  0  0  0  # atno 6908 bound_to 6896
  150.7183  134.5299  159.5739 H   0  0  0  0  0  0  0  0  0  0  0  0  # atno 6909 bound_to 6896
  146.0592  140.6372  142.9005 H   0  0  0  0  0  0  0  0  0  0  0  0  # atno 7974 bound_to 7965
  155.4919  140.3472  155.4356 H   0  0  0  0  0  0  0  0  0  0  0  0  # atno 8008 bound_to 7997
  156.0971  140.1426  156.9544 H   0  0  0  0  0  0  0  0  0  0  0  0  # atno 8009 bound_to 7997
  154.4670  140.0914  156.7024 H   0  0  0  0  0  0  0  0  0  0  0  0  # atno 8010 bound_to 7997
  140.6539  143.7476  150.7621 H   0  0  0  0  0  0  0  0  0  0  0  0  # atno 10167 bound_to 10162
  156.1947  130.6818  151.0467 H   0  0  0  0  0  0  0  0  0  0  0  0  # atno 10718 bound_to 10713
  154.2513  135.2771  155.2815 H   0  0  0  0  0  0  0  0  0  0  0  0  # atno 10763 bound_to 10752
  154.5462  135.5688  153.6886 H   0  0  0  0  0  0  0  0  0  0  0  0  # atno 10764 bound_to 10752
  152.9980  135.6263  154.2660 H   0  0  0  0  0  0  0  0  0  0  0  0  # atno 10765 bound_to 10752
  139.9412  134.9635  156.8575 H   0  0  0  0  0  0  0  0  0  0  0  0  # atno 11005 bound_to 11000
  144.7165  140.4228  143.7040 LP  0  0  0  0  0  0  0  0  0  0  0  0  # atno 17320 bound_to 7965
  145.6590  139.1578  143.2819 LP  0  0  0  0  0  0  0  0  0  0  0  0  # atno 17321 bound_to 7965
  140.1132  143.4680  152.2357 LP  0  0  0  0  0  0  0  0  0  0  0  0  # atno 17342 bound_to 10162
  139.5758  144.7486  151.3769 LP  0  0  0  0  0  0  0  0  0  0  0  0  # atno 17343 bound_to 10162
  157.6950  131.0797  150.6995 LP  0  0  0  0  0  0  0  0  0  0  0  0  # atno 17370 bound_to 10713
  156.7052  130.4635  149.5562 LP  0  0  0  0  0  0  0  0  0  0  0  0  # atno 17371 bound_to 10713
  140.5948  134.0228  155.7513 LP  0  0  0  0  0  0  0  0  0  0  0  0  # atno 17394 bound_to 11000
  141.1047  133.9713  157.3018 LP  0  0  0  0  0  0  0  0  0  0  0  0  # atno 17395 bound_to 11000

$$$$
