AV-unprocessed.smi:227|AV-procd|sdf|1728|dock9
  -GOLD-   2262020213D 1   1.00000     0.00000
 Structure written by MMmdl.
 54 58  0  0  0  0  0  0  0  0  1 V2000
  144.5004  136.3352  149.5061 O   0  0  0  0  0  0  0  0  0  0  0  0
  144.2002  135.0875  150.0971 C   0  0  0  0  0  0  0  0  0  0  0  0
  145.1796  134.7521  151.2512 C   0  0  1  0  0  0  0  0  0  0  0  0
  144.8111  135.5352  152.5465 C   0  0  0  0  0  0  0  0  0  0  0  0
  145.7290  136.6170  152.8735 N   0  0  0  0  0  0  0  0  0  0  0  0
  145.9922  137.7317  152.1117 C   0  0  0  0  0  0  0  0  0  0  0  0
  146.8543  138.5643  152.6255 N   0  0  0  0  0  0  0  0  0  0  0  0
  147.2313  137.9780  153.8286 C   0  0  0  0  0  0  0  0  0  0  0  0
  148.1213  138.3370  154.8856 C   0  0  0  0  0  0  0  0  0  0  0  0
  148.8591  139.4820  154.9312 N   0  0  0  0  0  0  0  0  0  0  0  0
  149.8183  139.7283  155.9988 C   0  0  2  0  0  0  0  0  0  0  0  0
  150.2504  141.1793  155.7267 C   0  0  0  0  0  0  0  0  0  0  0  0
  150.2108  141.2228  154.1929 C   0  0  0  0  0  0  0  0  0  0  0  0
  149.8044  139.7751  153.8603 C   0  0  1  0  0  0  0  0  0  0  0  0
  150.9637  138.7810  154.1319 C   0  0  1  0  0  0  0  0  0  0  0  0
  152.3050  139.0889  153.4420 C   0  0  0  0  0  0  0  0  0  0  0  0
  153.0014  140.0785  154.1687 O   0  0  0  0  0  0  0  0  0  0  0  0
  150.9976  138.7891  155.6724 C   0  0  0  0  0  0  0  0  0  0  0  0
  148.2486  137.4559  155.9135 N   0  0  0  0  0  0  0  0  0  0  0  0
  147.5458  136.3210  155.9293 C   0  0  0  0  0  0  0  0  0  0  0  0
  146.6713  135.8716  155.0299 N   0  0  0  0  0  0  0  0  0  0  0  0
  146.5434  136.7394  153.9868 C   0  0  0  0  0  0  0  0  0  0  0  0
  145.2888  133.2127  151.4914 C   0  0  2  0  0  0  0  0  0  0  0  0
  146.0689  132.4705  150.4089 C   0  0  0  0  0  0  0  0  0  0  0  0
  145.0176  132.1428  149.3463 C   0  0  0  0  0  0  0  0  0  0  0  0
  143.7554  132.2769  149.9888 O   0  0  0  0  0  0  0  0  0  0  0  0
  143.9671  132.4388  151.3823 C   0  0  0  0  0  0  0  0  0  0  0  0
  144.0967  137.0169  150.0216 H   0  0  0  0  0  0  0  0  0  0  0  0
  143.1664  135.0872  150.4417 H   0  0  0  0  0  0  0  0  0  0  0  0
  144.2625  134.3572  149.2935 H   0  0  0  0  0  0  0  0  0  0  0  0
  146.1634  135.1059  150.9397 H   0  0  0  0  0  0  0  0  0  0  0  0
  143.8053  135.9471  152.4829 H   0  0  0  0  0  0  0  0  0  0  0  0
  144.7726  134.8610  153.4024 H   0  0  0  0  0  0  0  0  0  0  0  0
  145.5157  137.9139  151.1593 H   0  0  0  0  0  0  0  0  0  0  0  0
  149.4396  139.6140  157.0125 H   0  0  0  0  0  0  0  0  0  0  0  0
  149.5345  141.8860  156.1480 H   0  0  0  0  0  0  0  0  0  0  0  0
  151.2354  141.4105  156.1341 H   0  0  0  0  0  0  0  0  0  0  0  0
  149.4416  141.9192  153.8567 H   0  0  0  0  0  0  0  0  0  0  0  0
  151.1524  141.5357  153.7438 H   0  0  0  0  0  0  0  0  0  0  0  0
  149.3941  139.6878  152.8537 H   0  0  0  0  0  0  0  0  0  0  0  0
  150.6377  137.7947  153.7968 H   0  0  0  0  0  0  0  0  0  0  0  0
  152.9234  138.1921  153.3964 H   0  0  0  0  0  0  0  0  0  0  0  0
  152.1630  139.4432  152.4213 H   0  0  0  0  0  0  0  0  0  0  0  0
  152.8065  139.9689  155.0867 H   0  0  0  0  0  0  0  0  0  0  0  0
  151.9406  139.1493  156.0855 H   0  0  0  0  0  0  0  0  0  0  0  0
  150.8227  137.7859  156.0637 H   0  0  0  0  0  0  0  0  0  0  0  0
  147.7058  135.6833  156.7862 H   0  0  0  0  0  0  0  0  0  0  0  0
  145.7319  133.0369  152.4722 H   0  0  0  0  0  0  0  0  0  0  0  0
  146.9187  133.0088  149.9950 H   0  0  0  0  0  0  0  0  0  0  0  0
  146.4587  131.5407  150.8261 H   0  0  0  0  0  0  0  0  0  0  0  0
  145.0660  132.8428  148.5117 H   0  0  0  0  0  0  0  0  0  0  0  0
  145.1486  131.1347  148.9523 H   0  0  0  0  0  0  0  0  0  0  0  0
  144.0807  131.4486  151.8270 H   0  0  0  0  0  0  0  0  0  0  0  0
  143.1110  132.8997  151.8693 H   0  0  0  0  0  0  0  0  0  0  0  0
  1  2  1  0  0  0  0
  1 28  1  0  0  0  0
  2  3  1  0  0  0  0
  2 29  1  0  0  0  0
  2 30  1  0  0  0  0
  3  4  1  0  0  0  0
  3 23  1  0  0  0  0
  3 31  1  0  0  0  0
  4  5  1  0  0  0  0
  4 32  1  0  0  0  0
  4 33  1  0  0  0  0
  5 22  1  0  0  0  0
  5  6  1  0  0  0  0
  6  7  2  0  0  0  0
  6 34  1  0  0  0  0
  7  8  1  0  0  0  0
  8 22  2  0  0  0  0
  8  9  1  0  0  0  0
  9 10  1  0  0  0  0
  9 19  2  0  0  0  0
 10 14  1  0  0  0  0
 10 11  1  0  0  0  0
 11 18  1  0  0  0  0
 11 12  1  0  0  0  0
 11 35  1  0  0  0  0
 12 13  1  0  0  0  0
 12 36  1  0  0  0  0
 12 37  1  0  0  0  0
 13 14  1  0  0  0  0
 13 38  1  0  0  0  0
 13 39  1  0  0  0  0
 14 15  1  0  0  0  0
 14 40  1  0  0  0  0
 15 16  1  0  0  0  0
 15 18  1  0  0  0  0
 15 41  1  0  0  0  0
 16 17  1  0  0  0  0
 16 42  1  0  0  0  0
 16 43  1  0  0  0  0
 17 44  1  0  0  0  0
 18 45  1  0  0  0  0
 18 46  1  0  0  0  0
 19 20  1  0  0  0  0
 20 21  2  0  0  0  0
 20 47  1  0  0  0  0
 21 22  1  0  0  0  0
 23 27  1  0  0  0  0
 23 24  1  0  0  0  0
 23 48  1  0  0  0  0
 24 25  1  0  0  0  0
 24 49  1  0  0  0  0
 24 50  1  0  0  0  0
 25 26  1  0  0  0  0
 25 51  1  0  0  0  0
 25 52  1  0  0  0  0
 26 27  1  0  0  0  0
 27 53  1  0  0  0  0
 27 54  1  0  0  0  0
M  END
> <s_m_source_file>
AV-unprocessed.smi

> <i_m_source_file_index>
227

> <i_lp_mmshare_version>
43012

> <i_f3d_flags>
0

> <s_epik_input>
W0NIMl0xT1tDSDJdW0NIMl1bQ0BIXTFbQ0BIXShbQ0gyXVtPSF0pW0NIMl1uKFtjSF1uMiljKGMyMyluW2NIXW5jM04oW0NASF00NSlbQ0BASF0oW0NIMl1bQ0gyXTQpW0NASF0oW0NIMl01KVtDSDJdW09IXQ==

> <s_epik_cmdline>
J2VwaWtfcHl0aG9uJywgJy1waCcsICc3LjAnLCAnLXRuJywgJzgnLCAnLW1hJywgJzIwMCcsICctbWV0YWxfYmluZGluZycsICctaW1hZScsICc8aW5maWxlLm1hZT4nLCAnLW9tYWUnLCAnPG91dGZpbGUubWFlPic=

> <r_lp_tautomer_probability>
1

> <r_epik_Ionization_Penalty>
0.0055791

> <r_epik_Ionization_Penalty_Charging>
0

> <r_epik_Ionization_Penalty_Neutral>
0.0055791

> <r_epik_State_Penalty>
0.00401299

> <r_epik_Charging_Adjusted_Penalty>
0.00401299

> <i_epik_Tot_Q>
0

> <i_epik_Tot_abs_Q>
0

> <r_epik_Metal_State_Penalty>
-0

> <b_epik_Metal_Only>
0

> <s_lp_Force_Field>
OPLS_2005

> <r_lp_Energy>
90.5153

> <b_lp_Chiralities_Consistent>
1

> <s_lp_Variant>
AV-unprocessed.smi:227-2

> <Gold.Version>
5.8.1

> <Gold.Id.Protein>
6NUR|6NUR_protein|mol2

> <Gold.PLP.Fitness>
43.5360

> <Gold.PLP.PLP>
-37.4134

> <Gold.PLP.part.hbond>
-3.3634

> <Gold.PLP.part.metal>
0.0000

> <Gold.PLP.part.buried>
-2.5003

> <Gold.PLP.part.nonpolar>
-31.5671

> <Gold.PLP.part.repulsive>
0.5412

> <Gold.PLP.ligand.clash>
0.0000

> <Gold.PLP.ligand.torsion>
1.5263

> <Gold.PLP.Chemscore.Hbond>
2.0000

> <Gold.PLP.Chemscore.CHOScore>
1.0000

> <Gold.PLP.Chemscore.Metal>
0.0000

> <Gold.Chemscore.Hbonds>
donor molecule, donor type, donor heavy atom, donor atom, acceptor molecule, acceptor atom, score
      L1  H     1    28       P1 10171  0.66
      L1  C     6    34       P1 10171  1.00

> <Gold.PLP.Chemscore.Internal.Correction>
0.1751

> <Gold.Rescore>
     Score         DG    S(hbond)    S(metal)    S(lipo)     H(rot)  DE(clash)    DE(int)     intcor
      7.74     -13.38       1.95        0.00      90.69       3.61       1.54       4.10       ----

> <Gold.Chemscore.Fitness>
7.7366

> <Gold.Chemscore.DG>
-13.3779

> <Gold.Chemscore.ZeroCoef>
-5.4800

> <Gold.Chemscore.Hbond>
1.9524

> <Gold.Chemscore.Metal>
0.0000

> <Gold.Chemscore.Lipo>
90.6924

> <Gold.Chemscore.Internal_Hbond>
0.0000

> <Gold.Chemscore.DEClash>
1.5421

> <Gold.Chemscore.DEInternal>
4.0992

> <Gold.Chemscore.Rot>
3.6071

> <Gold.Chemscore.Internal.Correction>
   9.000000E+99

> <Gold.Chemscore.Hbonds>
donor molecule, donor type, donor heavy atom, donor atom, acceptor molecule, acceptor atom, score
      L1  H     1    28       P1 10171  0.64

> <Gold.Chemscore.Hbond.Weighted>
-6.5211

> <Gold.Chemscore.Metal.Weighted>
-0.0000

> <Gold.Chemscore.Lipo.Weighted>
-10.6110

> <Gold.Chemscore.Internal_Hbond.Weighted>
0.0000

> <Gold.Chemscore.DEClash.Weighted>
1.5421

> <Gold.Chemscore.DEInternal.Weighted>
4.0992

> <Gold.Chemscore.Rot.Weighted>
9.2342

> <Gold.Chemscore.Internal.Correction.Weighted>
   9.000000E+99

> <Gold.Protein.RotatedTorsions>
[ 6907 6896 6895 6894 ] final -172.38 input  -60.11 | X-H torsion
[ 7974 7965 7964 7962 ] final  -63.80 input  175.53 | X-H torsion
[ 8008 7997 7996 7995 ] final -146.53 input   59.86 | X-H torsion
[ 10167 10162 10161 10158 ] final   23.25 input  -65.29 | X-H torsion
[ 10718 10713 10712 10709 ] final  -73.58 input   66.30 | X-H torsion
[ 10763 10752 10751 10750 ] final  160.40 input  -60.55 | X-H torsion
[ 11005 11000 10999 10996 ] final  139.83 input  -57.11 | X-H torsion

> <Gold.Protein.ActiveResidues>
 VAL166  LYS551  ARG553  GLY616  TRP617  ASP618  TYR619  PRO620  LYS621  CYS622 
 ASP623  PHE694  ASN695  SER759  ASP760  ASP761  ALA762  ILE779  LEU786  VAL792 
 PHE793  MET794  SER795  GLU796  ALA797  LYS798  CYS799  TRP800  GLU811  SER814 

> <Gold.Protein.RotatedAtoms>
  151.5391  133.3436  159.2931 H   0  0  0  0  0  0  0  0  0  0  0  0  # atno 6907 bound_to 6896
  150.8546  134.7884  159.7047 H   0  0  0  0  0  0  0  0  0  0  0  0  # atno 6908 bound_to 6896
  152.4583  134.5250  159.9845 H   0  0  0  0  0  0  0  0  0  0  0  0  # atno 6909 bound_to 6896
  145.7746  140.8794  143.0362 H   0  0  0  0  0  0  0  0  0  0  0  0  # atno 7974 bound_to 7965
  155.5609  140.0625  157.2829 H   0  0  0  0  0  0  0  0  0  0  0  0  # atno 8008 bound_to 7997
  154.4390  140.1886  156.0827 H   0  0  0  0  0  0  0  0  0  0  0  0  # atno 8009 bound_to 7997
  156.0447  140.3291  155.7287 H   0  0  0  0  0  0  0  0  0  0  0  0  # atno 8010 bound_to 7997
  140.5283  143.9884  150.6452 H   0  0  0  0  0  0  0  0  0  0  0  0  # atno 10167 bound_to 10162
  156.0275  130.4397  150.2763 H   0  0  0  0  0  0  0  0  0  0  0  0  # atno 10718 bound_to 10713
  154.2468  135.2773  155.2832 H   0  0  0  0  0  0  0  0  0  0  0  0  # atno 10763 bound_to 10752
  154.5498  135.5678  153.6916 H   0  0  0  0  0  0  0  0  0  0  0  0  # atno 10764 bound_to 10752
  152.9988  135.6272  154.2614 H   0  0  0  0  0  0  0  0  0  0  0  0  # atno 10765 bound_to 10752
  140.0283  134.9364  157.0612 H   0  0  0  0  0  0  0  0  0  0  0  0  # atno 11005 bound_to 11000
  144.6806  139.9904  143.7484 LP  0  0  0  0  0  0  0  0  0  0  0  0  # atno 17320 bound_to 7965
  146.0135  139.3190  143.0856 LP  0  0  0  0  0  0  0  0  0  0  0  0  # atno 17321 bound_to 7965
  140.3252  143.3112  152.0743 LP  0  0  0  0  0  0  0  0  0  0  0  0  # atno 17342 bound_to 10162
  139.4946  144.6546  151.6600 LP  0  0  0  0  0  0  0  0  0  0  0  0  # atno 17343 bound_to 10162
  157.0867  131.0158  151.3137 LP  0  0  0  0  0  0  0  0  0  0  0  0  # atno 17370 bound_to 10713
  157.4886  130.7808  149.7485 LP  0  0  0  0  0  0  0  0  0  0  0  0  # atno 17371 bound_to 10713
  140.4269  134.1821  155.7166 LP  0  0  0  0  0  0  0  0  0  0  0  0  # atno 17394 bound_to 11000
  141.1816  133.8402  157.1238 LP  0  0  0  0  0  0  0  0  0  0  0  0  # atno 17395 bound_to 11000

$$$$
