AV-unprocessed.smi:1766|AV-procd|sdf|7137|dock8
  -GOLD-   22720 8373D 1   1.00000     0.00000
 Structure written by MMmdl.
 40 42  0  0  0  0  0  0  0  0  2 V2000
  149.1212  141.6211  154.2838 N   0  0  0  0  0  0  0  0  0  0  0  0
  149.7482  140.5667  154.8117 C   0  0  0  0  0  0  0  0  0  0  0  0
  150.4727  139.8312  154.1443 O   0  0  0  0  0  0  0  0  0  0  0  0
  149.5311  140.2928  156.3017 C   0  0  0  0  0  0  0  0  0  0  0  0
  150.3227  141.2488  157.1439 C   0  0  0  0  0  0  0  0  0  0  0  0
  150.2951  142.6095  157.0399 N   0  3  0  0  0  0  0  0  0  0  0  0
  151.1582  143.1770  157.9764 C   0  0  0  0  0  0  0  0  0  0  0  0
  151.4687  144.5074  158.2407 C   0  0  0  0  0  0  0  0  0  0  0  0
  152.4012  144.7464  159.2715 C   0  0  0  0  0  0  0  0  0  0  0  0
  152.9846  143.6853  159.9939 C   0  0  0  0  0  0  0  0  0  0  0  0
  152.6593  142.3407  159.7181 C   0  0  0  0  0  0  0  0  0  0  0  0
  151.7364  142.1131  158.6973 C   0  0  0  0  0  0  0  0  0  0  0  0
  151.1863  140.9439  158.1589 N   0  0  0  0  0  0  0  0  0  0  0  0
  151.5888  139.6465  158.7276 C   0  0  0  0  0  0  0  0  0  0  0  0
  153.1167  139.4913  158.8582 C   0  0  2  0  0  0  0  0  0  0  0  0
  153.6204  138.7483  157.7654 O   0  0  0  0  0  0  0  0  0  0  0  0
  153.4931  138.8749  160.1962 C   0  0  0  0  0  0  0  0  0  0  0  0
  153.0770  137.5628  160.5088 C   0  0  0  0  0  0  0  0  0  0  0  0
  153.4295  136.9811  161.7422 C   0  0  0  0  0  0  0  0  0  0  0  0
  154.2018  137.7070  162.6692 C   0  0  0  0  0  0  0  0  0  0  0  0
  154.5403  137.1475  163.8548 F   0  0  0  0  0  0  0  0  0  0  0  0
  154.6232  139.0147  162.3616 C   0  0  0  0  0  0  0  0  0  0  0  0
  154.2716  139.5968  161.1281 C   0  0  0  0  0  0  0  0  0  0  0  0
  149.2345  141.8318  153.3026 H   0  0  0  0  0  0  0  0  0  0  0  0
  148.5316  142.2017  154.8633 H   0  0  0  0  0  0  0  0  0  0  0  0
  148.4725  140.4021  156.5394 H   0  0  0  0  0  0  0  0  0  0  0  0
  149.8007  139.2623  156.5307 H   0  0  0  0  0  0  0  0  0  0  0  0
  151.0229  145.3215  157.6878 H   0  0  0  0  0  0  0  0  0  0  0  0
  152.6748  145.7637  159.5120 H   0  0  0  0  0  0  0  0  0  0  0  0
  153.6962  143.9074  160.7760 H   0  0  0  0  0  0  0  0  0  0  0  0
  153.1132  141.5358  160.2772 H   0  0  0  0  0  0  0  0  0  0  0  0
  151.1062  139.5346  159.6993 H   0  0  0  0  0  0  0  0  0  0  0  0
  151.1748  138.8574  158.1002 H   0  0  0  0  0  0  0  0  0  0  0  0
  153.5780  140.4777  158.7979 H   0  0  0  0  0  0  0  0  0  0  0  0
  153.9165  137.9099  158.0865 H   0  0  0  0  0  0  0  0  0  0  0  0
  152.4865  136.9962  159.8037 H   0  0  0  0  0  0  0  0  0  0  0  0
  153.1078  135.9772  161.9772 H   0  0  0  0  0  0  0  0  0  0  0  0
  155.2172  139.5711  163.0718 H   0  0  0  0  0  0  0  0  0  0  0  0
  154.6036  140.5990  160.8993 H   0  0  0  0  0  0  0  0  0  0  0  0
  149.7294  143.1095  156.3657 H   0  0  0  0  0  0  0  0  0  0  0  0
  1  2  1  0  0  0  0
  1 24  1  0  0  0  0
  1 25  1  0  0  0  0
  2  3  2  0  0  0  0
  2  4  1  0  0  0  0
  4  5  1  0  0  0  0
  4 26  1  0  0  0  0
  4 27  1  0  0  0  0
  5 13  1  0  0  0  0
  5  6  2  0  0  0  0
  6  7  1  0  0  0  0
  6 40  1  0  0  0  0
  7 12  2  0  0  0  0
  7  8  1  0  0  0  0
  8  9  2  0  0  0  0
  8 28  1  0  0  0  0
  9 10  1  0  0  0  0
  9 29  1  0  0  0  0
 10 11  2  0  0  0  0
 10 30  1  0  0  0  0
 11 12  1  0  0  0  0
 11 31  1  0  0  0  0
 12 13  1  0  0  0  0
 13 14  1  0  0  0  0
 14 15  1  0  0  0  0
 14 32  1  0  0  0  0
 14 33  1  0  0  0  0
 15 16  1  0  0  0  0
 15 17  1  0  0  0  0
 15 34  1  0  0  0  0
 16 35  1  0  0  0  0
 17 23  1  0  0  0  0
 17 18  2  0  0  0  0
 18 19  1  0  0  0  0
 18 36  1  0  0  0  0
 19 20  2  0  0  0  0
 19 37  1  0  0  0  0
 20 21  1  0  0  0  0
 20 22  1  0  0  0  0
 22 23  2  0  0  0  0
 22 38  1  0  0  0  0
 23 39  1  0  0  0  0
M  CHG  1   6   1
M  END
> <s_m_source_file>
AV-unprocessed.smi

> <i_m_source_file_index>
1766

> <i_lp_mmshare_version>
43012

> <i_f3d_flags>
0

> <s_epik_input>
W2NIXTFbY0hdW2NIXVtjSF1jKGMxMiluKGMobjIpW0NIMl1DKD1PKVtOSDJdKVtDSDJdW0NASF0oW09IXSljM1tjSF1bY0hdYyhGKVtjSF1bY0hdMw==

> <s_epik_cmdline>
J2VwaWtfcHl0aG9uJywgJy1waCcsICc3LjAnLCAnLXRuJywgJzgnLCAnLW1hJywgJzIwMCcsICctbWV0YWxfYmluZGluZycsICctaW1hZScsICc8aW5maWxlLm1hZT4nLCAnLW9tYWUnLCAnPG91dGZpbGUubWFlPic=

> <r_epik_Ionization_Penalty>
1.66646

> <r_epik_Ionization_Penalty_Charging>
1.66645

> <r_epik_Ionization_Penalty_Neutral>
2.12833e-06

> <r_epik_State_Penalty>
1.76975

> <r_epik_Charging_Adjusted_Penalty>
3.43621

> <i_epik_Tot_Q>
1

> <i_epik_Tot_abs_Q>
1

> <r_epik_Metal_State_Penalty>
1.80493

> <b_epik_Metal_Only>
0

> <s_lp_Force_Field>
OPLS_2005

> <r_lp_Energy>
14.4919

> <b_lp_Chiralities_Consistent>
1

> <s_lp_Variant>
AV-unprocessed.smi:1766-3

> <Gold.Version>
5.8.1

> <Gold.Id.Protein>
6NUR|6NUR_protein|mol2

> <Gold.PLP.Fitness>
57.9227

> <Gold.PLP.PLP>
-47.7868

> <Gold.PLP.part.hbond>
-3.0000

> <Gold.PLP.part.metal>
0.0000

> <Gold.PLP.part.buried>
-6.3710

> <Gold.PLP.part.nonpolar>
-39.9967

> <Gold.PLP.part.repulsive>
1.9124

> <Gold.PLP.ligand.clash>
0.0000

> <Gold.PLP.ligand.torsion>
0.9580

> <Gold.PLP.Chemscore.Hbond>
4.0000

> <Gold.PLP.Chemscore.CHOScore>
0.0000

> <Gold.PLP.Chemscore.Metal>
0.0000

> <Gold.Chemscore.Hbonds>
donor molecule, donor type, donor heavy atom, donor atom, acceptor molecule, acceptor atom, score
      L1  H     6    40       P1  8028  2.00
      P1  H  7989  7998       L1     3  1.00
      P1  H  7997  8010       L1    16  0.99

> <Gold.PLP.Chemscore.Internal.Correction>
0.0519

> <Gold.Rescore>
     Score         DG    S(hbond)    S(metal)    S(lipo)     H(rot)  DE(clash)    DE(int)     intcor
     18.84     -21.42       2.90        0.00     119.98       3.05       0.30       2.27       ----

> <Gold.Chemscore.Fitness>
18.8439

> <Gold.Chemscore.DG>
-21.4155

> <Gold.Chemscore.ZeroCoef>
-5.4800

> <Gold.Chemscore.Hbond>
2.9037

> <Gold.Chemscore.Metal>
0.0000

> <Gold.Chemscore.Lipo>
119.9800

> <Gold.Chemscore.Internal_Hbond>
0.0000

> <Gold.Chemscore.DEClash>
0.3006

> <Gold.Chemscore.DEInternal>
2.2711

> <Gold.Chemscore.Rot>
3.0470

> <Gold.Chemscore.Internal.Correction>
   9.000000E+99

> <Gold.Chemscore.Hbonds>
donor molecule, donor type, donor heavy atom, donor atom, acceptor molecule, acceptor atom, score
      L1  H     6    40       P1  8028  0.96
      P1  H  7989  7998       L1     3  0.50
      P1  H  7997  8010       L1    16  0.33

> <Gold.Chemscore.Hbond.Weighted>
-9.6982

> <Gold.Chemscore.Metal.Weighted>
-0.0000

> <Gold.Chemscore.Lipo.Weighted>
-14.0377

> <Gold.Chemscore.Internal_Hbond.Weighted>
0.0000

> <Gold.Chemscore.DEClash.Weighted>
0.3006

> <Gold.Chemscore.DEInternal.Weighted>
2.2711

> <Gold.Chemscore.Rot.Weighted>
7.8004

> <Gold.Chemscore.Internal.Correction.Weighted>
   9.000000E+99

> <Gold.Protein.RotatedTorsions>
[ 6907 6896 6895 6894 ] final  122.00 input  -60.11 | X-H torsion
[ 7974 7965 7964 7962 ] final -131.46 input  175.53 | X-H torsion
[ 8008 7997 7996 7995 ] final   52.55 input   59.86 | X-H torsion
[ 10167 10162 10161 10158 ] final  -55.41 input  -65.29 | X-H torsion
[ 10718 10713 10712 10709 ] final  -98.47 input   66.30 | X-H torsion
[ 10763 10752 10751 10750 ] final   48.72 input  -60.55 | X-H torsion
[ 11005 11000 10999 10996 ] final  178.70 input  -57.11 | X-H torsion

> <Gold.Protein.ActiveResidues>
 VAL166  LYS551  ARG553  GLY616  TRP617  ASP618  TYR619  PRO620  LYS621  CYS622 
 ASP623  PHE694  ASN695  SER759  ASP760  ASP761  ALA762  ILE779  LEU786  VAL792 
 PHE793  MET794  SER795  GLU796  ALA797  LYS798  CYS799  TRP800  GLU811  SER814 

> <Gold.Protein.RotatedAtoms>
  152.4277  133.7224  159.6540 H   0  0  0  0  0  0  0  0  0  0  0  0  # atno 6907 bound_to 6896
  150.8154  133.8335  159.3168 H   0  0  0  0  0  0  0  0  0  0  0  0  # atno 6908 bound_to 6896
  151.6033  135.1048  160.0116 H   0  0  0  0  0  0  0  0  0  0  0  0  # atno 6909 bound_to 6896
  144.9377  140.7202  143.4866 H   0  0  0  0  0  0  0  0  0  0  0  0  # atno 7974 bound_to 7965
  155.4537  140.3459  155.4304 H   0  0  0  0  0  0  0  0  0  0  0  0  # atno 8008 bound_to 7997
  156.1204  140.1485  156.9242 H   0  0  0  0  0  0  0  0  0  0  0  0  # atno 8009 bound_to 7997
  154.4819  140.0867  156.7377 H   0  0  0  0  0  0  0  0  0  0  0  0  # atno 8010 bound_to 7997
  140.6376  143.2490  151.5076 H   0  0  0  0  0  0  0  0  0  0  0  0  # atno 10167 bound_to 10162
  156.0108  130.5239  150.6528 H   0  0  0  0  0  0  0  0  0  0  0  0  # atno 10718 bound_to 10713
  152.9790  135.5935  154.3972 H   0  0  0  0  0  0  0  0  0  0  0  0  # atno 10763 bound_to 10752
  154.3622  135.2767  155.2315 H   0  0  0  0  0  0  0  0  0  0  0  0  # atno 10764 bound_to 10752
  154.4308  135.6037  153.6122 H   0  0  0  0  0  0  0  0  0  0  0  0  # atno 10765 bound_to 10752
  140.3980  134.6803  157.4545 H   0  0  0  0  0  0  0  0  0  0  0  0  # atno 11005 bound_to 11000
  145.3041  139.1840  143.4674 LP  0  0  0  0  0  0  0  0  0  0  0  0  # atno 17320 bound_to 7965
  146.3273  140.3036  142.8622 LP  0  0  0  0  0  0  0  0  0  0  0  0  # atno 17321 bound_to 7965
  139.5586  144.2213  152.1653 LP  0  0  0  0  0  0  0  0  0  0  0  0  # atno 17342 bound_to 10162
  140.1474  144.5146  150.6707 LP  0  0  0  0  0  0  0  0  0  0  0  0  # atno 17343 bound_to 10162
  157.4286  131.0846  151.1061 LP  0  0  0  0  0  0  0  0  0  0  0  0  # atno 17370 bound_to 10713
  157.1641  130.6238  149.5620 LP  0  0  0  0  0  0  0  0  0  0  0  0  # atno 17371 bound_to 10713
  140.0357  134.6340  155.9046 LP  0  0  0  0  0  0  0  0  0  0  0  0  # atno 17394 bound_to 11000
  141.1867  133.6558  156.5251 LP  0  0  0  0  0  0  0  0  0  0  0  0  # atno 17395 bound_to 11000

$$$$
