AV-unprocessed.smi:26|AV-procd|sdf|185|dock9
  -GOLD-   2262015453D 1   1.00000     0.00000
 Structure written by MMmdl.
 58 61  0  0  0  0  0  0  0  0  1 V2000
  146.7303  140.4572  154.1557 C   0  0  0  0  0  0  0  0  0  0  0  0
  147.7905  139.4450  154.4587 C   0  0  0  0  0  0  0  0  0  0  0  0
  149.1358  139.5620  154.2754 C   0  0  0  0  0  0  0  0  0  0  0  0
  149.7634  138.3632  154.7078 C   0  0  0  0  0  0  0  0  0  0  0  0
  151.2098  138.0268  154.6674 C   0  0  0  0  0  0  0  0  0  0  0  0
  151.6372  136.9072  154.3826 O   0  0  0  0  0  0  0  0  0  0  0  0
  152.1739  139.1838  154.9909 C   0  0  0  0  0  0  0  0  0  0  0  0
  152.1331  139.5869  156.3914 N   0  0  0  0  0  0  0  0  0  0  0  0
  152.6963  138.7058  157.3481 C   0  0  0  0  0  0  0  0  0  0  0  0
  153.2111  137.6331  157.0274 O   0  0  0  0  0  0  0  0  0  0  0  0
  152.6233  139.1803  158.7256 C   0  0  0  0  0  0  0  0  0  0  0  0
  153.1154  138.4186  159.7172 F   0  0  0  0  0  0  0  0  0  0  0  0
  152.0670  140.3743  159.0246 C   0  0  0  0  0  0  0  0  0  0  0  0
  151.5388  141.2236  158.0656 N   0  0  0  0  0  0  0  0  0  0  0  0
  150.9257  142.5602  158.4252 C   0  0  2  0  0  0  0  0  0  0  0  0
  151.6216  143.6999  157.6583 C   0  0  0  0  0  0  0  0  0  0  0  0
  151.9513  144.6884  158.7587 C   0  0  0  0  0  0  0  0  0  0  0  0
  152.1400  143.7720  159.9580 C   0  0  0  0  0  0  0  0  0  0  0  0
  151.1032  142.8139  159.7900 O   0  0  0  0  0  0  0  0  0  0  0  0
  151.5617  140.8432  156.7061 C   0  0  0  0  0  0  0  0  0  0  0  0
  151.1089  141.5904  155.8353 O   0  0  0  0  0  0  0  0  0  0  0  0
  148.7721  137.5308  155.1771 C   0  0  0  0  0  0  0  0  0  0  0  0
  148.8439  136.1645  155.8035 C   0  0  0  0  0  0  0  0  0  0  0  0
  147.5439  138.1746  154.9835 N   0  0  0  0  0  0  0  0  0  0  0  0
  146.2293  137.6071  155.3246 C   0  0  1  0  0  0  0  0  0  0  0  0
  145.4260  138.5729  156.2169 C   0  0  0  0  0  0  0  0  0  0  0  0
  145.4902  137.0592  154.1012 C   0  0  0  0  0  0  0  0  0  0  0  0
  146.1403  136.1079  153.2836 C   0  0  0  0  0  0  0  0  0  0  0  0
  145.4978  135.5786  152.1484 C   0  0  0  0  0  0  0  0  0  0  0  0
  144.1931  135.9921  151.8216 C   0  0  0  0  0  0  0  0  0  0  0  0
  143.5331  136.9341  152.6321 C   0  0  0  0  0  0  0  0  0  0  0  0
  144.1759  137.4645  153.7674 C   0  0  0  0  0  0  0  0  0  0  0  0
  147.1723  141.4422  154.0047 H   0  0  0  0  0  0  0  0  0  0  0  0
  146.0117  140.5471  154.9682 H   0  0  0  0  0  0  0  0  0  0  0  0
  146.1926  140.1992  153.2435 H   0  0  0  0  0  0  0  0  0  0  0  0
  149.6221  140.4331  153.8612 H   0  0  0  0  0  0  0  0  0  0  0  0
  153.2017  138.9153  154.7428 H   0  0  0  0  0  0  0  0  0  0  0  0
  151.9502  140.0620  154.3830 H   0  0  0  0  0  0  0  0  0  0  0  0
  152.0445  140.6600  160.0649 H   0  0  0  0  0  0  0  0  0  0  0  0
  149.8592  142.4649  158.2137 H   0  0  0  0  0  0  0  0  0  0  0  0
  152.5363  143.3354  157.1879 H   0  0  0  0  0  0  0  0  0  0  0  0
  150.9676  144.1125  156.8896 H   0  0  0  0  0  0  0  0  0  0  0  0
  152.8312  145.2938  158.5407 H   0  0  0  0  0  0  0  0  0  0  0  0
  151.1067  145.3572  158.9289 H   0  0  0  0  0  0  0  0  0  0  0  0
  153.1147  143.2834  159.9229 H   0  0  0  0  0  0  0  0  0  0  0  0
  152.0513  144.2972  160.9093 H   0  0  0  0  0  0  0  0  0  0  0  0
  149.8212  135.9610  156.2365 H   0  0  0  0  0  0  0  0  0  0  0  0
  148.6315  135.3889  155.0678 H   0  0  0  0  0  0  0  0  0  0  0  0
  148.1352  136.0620  156.6246 H   0  0  0  0  0  0  0  0  0  0  0  0
  146.3929  136.7112  155.9210 H   0  0  0  0  0  0  0  0  0  0  0  0
  144.5039  138.1091  156.5677 H   0  0  0  0  0  0  0  0  0  0  0  0
  145.1628  139.4940  155.6988 H   0  0  0  0  0  0  0  0  0  0  0  0
  146.0019  138.8522  157.0996 H   0  0  0  0  0  0  0  0  0  0  0  0
  147.1423  135.7845  153.5255 H   0  0  0  0  0  0  0  0  0  0  0  0
  146.0064  134.8551  151.5286 H   0  0  0  0  0  0  0  0  0  0  0  0
  143.6988  135.5864  150.9511 H   0  0  0  0  0  0  0  0  0  0  0  0
  142.5312  137.2512  152.3827 H   0  0  0  0  0  0  0  0  0  0  0  0
  143.6449  138.1880  154.3666 H   0  0  0  0  0  0  0  0  0  0  0  0
  1  2  1  0  0  0  0
  1 33  1  0  0  0  0
  1 34  1  0  0  0  0
  1 35  1  0  0  0  0
  2 24  1  0  0  0  0
  2  3  2  0  0  0  0
  3  4  1  0  0  0  0
  3 36  1  0  0  0  0
  4  5  1  0  0  0  0
  4 22  2  0  0  0  0
  5  6  2  0  0  0  0
  5  7  1  0  0  0  0
  7  8  1  0  0  0  0
  7 37  1  0  0  0  0
  7 38  1  0  0  0  0
  8 20  1  0  0  0  0
  8  9  1  0  0  0  0
  9 10  2  0  0  0  0
  9 11  1  0  0  0  0
 11 12  1  0  0  0  0
 11 13  2  0  0  0  0
 13 14  1  0  0  0  0
 13 39  1  0  0  0  0
 14 15  1  0  0  0  0
 14 20  1  0  0  0  0
 15 19  1  0  0  0  0
 15 16  1  0  0  0  0
 15 40  1  0  0  0  0
 16 17  1  0  0  0  0
 16 41  1  0  0  0  0
 16 42  1  0  0  0  0
 17 18  1  0  0  0  0
 17 43  1  0  0  0  0
 17 44  1  0  0  0  0
 18 19  1  0  0  0  0
 18 45  1  0  0  0  0
 18 46  1  0  0  0  0
 20 21  2  0  0  0  0
 22 23  1  0  0  0  0
 22 24  1  0  0  0  0
 23 47  1  0  0  0  0
 23 48  1  0  0  0  0
 23 49  1  0  0  0  0
 24 25  1  0  0  0  0
 25 26  1  0  0  0  0
 25 27  1  0  0  0  0
 25 50  1  0  0  0  0
 26 51  1  0  0  0  0
 26 52  1  0  0  0  0
 26 53  1  0  0  0  0
 27 32  1  0  0  0  0
 27 28  2  0  0  0  0
 28 29  1  0  0  0  0
 28 54  1  0  0  0  0
 29 30  2  0  0  0  0
 29 55  1  0  0  0  0
 30 31  1  0  0  0  0
 30 56  1  0  0  0  0
 31 32  2  0  0  0  0
 31 57  1  0  0  0  0
 32 58  1  0  0  0  0
M  END
> <s_m_source_file>
AV-unprocessed.smi

> <i_m_source_file_index>
26

> <i_lp_mmshare_version>
43012

> <i_f3d_flags>
0

> <s_epik_input>
W2NIXTFbY0hdW2NIXVtjSF1bY0hdYzFbQ0BASF0oW0NIM10pbjJjKFtDSDNdKWMoW2NIXWMyW0NIM10pQyg9TylbQ0gyXW4zYyg9TyljKEYpW2NIXW4oYzM9TylbQ0BASF00W0NIMl1bQ0gyXVtDSDJdTzQ=

> <s_epik_cmdline>
J2VwaWtfcHl0aG9uJywgJy1waCcsICc3LjAnLCAnLXRuJywgJzgnLCAnLW1hJywgJzIwMCcsICctbWV0YWxfYmluZGluZycsICctaW1hZScsICc8aW5maWxlLm1hZT4nLCAnLW9tYWUnLCAnPG91dGZpbGUubWFlPic=

> <r_lp_tautomer_probability>
1

> <r_epik_Ionization_Penalty>
5.02402e-09

> <r_epik_Ionization_Penalty_Charging>
5.01743e-09

> <r_epik_Ionization_Penalty_Neutral>
6.58831e-12

> <r_epik_State_Penalty>
-0

> <r_epik_Charging_Adjusted_Penalty>
5.01743e-09

> <i_epik_Tot_Q>
0

> <i_epik_Tot_abs_Q>
0

> <r_epik_Metal_State_Penalty>
-0

> <b_epik_Metal_Only>
0

> <s_epik_Chemistry_Notes>
This compound contains an acetal/aminal-like group ( X-CH(R)-Y where X, Y are N, S, or O) that may be acid/base labile, releasing an aldehyde.

> <s_lp_Force_Field>
OPLS_2005

> <r_lp_Energy>
50.3932

> <b_lp_Chiralities_Consistent>
1

> <s_lp_Variant>
AV-unprocessed.smi:26-3

> <Gold.Version>
5.8.1

> <Gold.Id.Protein>
6NUR|6NUR_protein|mol2

> <Gold.PLP.Fitness>
49.6868

> <Gold.PLP.PLP>
-48.8029

> <Gold.PLP.part.hbond>
-2.6586

> <Gold.PLP.part.metal>
0.0000

> <Gold.PLP.part.buried>
-3.0272

> <Gold.PLP.part.nonpolar>
-42.5502

> <Gold.PLP.part.repulsive>
0.5338

> <Gold.PLP.ligand.clash>
0.0000

> <Gold.PLP.ligand.torsion>
1.1942

> <Gold.PLP.Chemscore.Hbond>
1.0000

> <Gold.PLP.Chemscore.CHOScore>
0.0000

> <Gold.PLP.Chemscore.Metal>
0.0000

> <Gold.Chemscore.Hbonds>
donor molecule, donor type, donor heavy atom, donor atom, acceptor molecule, acceptor atom, score
      P1  H 10752 10765       L1     6  1.00

> <Gold.PLP.Chemscore.Internal.Correction>
0.2724

> <Gold.Rescore>
     Score         DG    S(hbond)    S(metal)    S(lipo)     H(rot)  DE(clash)    DE(int)     intcor
     13.27     -15.76       1.00        0.00      99.61       1.84       0.02       2.47       ----

> <Gold.Chemscore.Fitness>
13.2707

> <Gold.Chemscore.DG>
-15.7606

> <Gold.Chemscore.ZeroCoef>
-5.4800

> <Gold.Chemscore.Hbond>
0.9960

> <Gold.Chemscore.Metal>
0.0000

> <Gold.Chemscore.Lipo>
99.6067

> <Gold.Chemscore.Internal_Hbond>
0.0000

> <Gold.Chemscore.DEClash>
0.0232

> <Gold.Chemscore.DEInternal>
2.4666

> <Gold.Chemscore.Rot>
1.8359

> <Gold.Chemscore.Internal.Correction>
   9.000000E+99

> <Gold.Chemscore.Hbonds>
donor molecule, donor type, donor heavy atom, donor atom, acceptor molecule, acceptor atom, score
      P1  H  7989  7998       L1    21  0.01
      P1  H 10752 10765       L1     6  1.00

> <Gold.Chemscore.Hbond.Weighted>
-3.3266

> <Gold.Chemscore.Metal.Weighted>
-0.0000

> <Gold.Chemscore.Lipo.Weighted>
-11.6540

> <Gold.Chemscore.Internal_Hbond.Weighted>
0.0000

> <Gold.Chemscore.DEClash.Weighted>
0.0232

> <Gold.Chemscore.DEInternal.Weighted>
2.4666

> <Gold.Chemscore.Rot.Weighted>
4.7000

> <Gold.Chemscore.Internal.Correction.Weighted>
   9.000000E+99

> <Gold.Protein.RotatedTorsions>
[ 6907 6896 6895 6894 ] final  -97.69 input  -60.11 | X-H torsion
[ 7974 7965 7964 7962 ] final  -40.76 input  175.53 | X-H torsion
[ 8008 7997 7996 7995 ] final  -48.69 input   59.86 | X-H torsion
[ 10167 10162 10161 10158 ] final    2.91 input  -65.29 | X-H torsion
[ 10718 10713 10712 10709 ] final  173.91 input   66.30 | X-H torsion
[ 10763 10752 10751 10750 ] final  162.58 input  -60.55 | X-H torsion
[ 11005 11000 10999 10996 ] final -158.74 input  -57.11 | X-H torsion

> <Gold.Protein.ActiveResidues>
 VAL166  LYS551  ARG553  GLY616  TRP617  ASP618  TYR619  PRO620  LYS621  CYS622 
 ASP623  PHE694  ASN695  SER759  ASP760  ASP761  ALA762  ILE779  LEU786  VAL792 
 PHE793  MET794  SER795  GLU796  ALA797  LYS798  CYS799  TRP800  GLU811  SER814 

> <Gold.Protein.RotatedAtoms>
  150.7024  134.1310  159.4069 H   0  0  0  0  0  0  0  0  0  0  0  0  # atno 6907 bound_to 6896
  151.9295  135.0260  160.0537 H   0  0  0  0  0  0  0  0  0  0  0  0  # atno 6908 bound_to 6896
  152.2187  133.4932  159.5187 H   0  0  0  0  0  0  0  0  0  0  0  0  # atno 6909 bound_to 6896
  146.0275  140.6774  142.9149 H   0  0  0  0  0  0  0  0  0  0  0  0  # atno 7974 bound_to 7965
  154.4032  140.1315  156.4380 H   0  0  0  0  0  0  0  0  0  0  0  0  # atno 8008 bound_to 7997
  155.7487  140.3488  155.5119 H   0  0  0  0  0  0  0  0  0  0  0  0  # atno 8009 bound_to 7997
  155.8970  140.1013  157.1367 H   0  0  0  0  0  0  0  0  0  0  0  0  # atno 8010 bound_to 7997
  140.6612  143.7299  150.7742 H   0  0  0  0  0  0  0  0  0  0  0  0  # atno 10167 bound_to 10162
  156.9574  131.0050  151.2935 H   0  0  0  0  0  0  0  0  0  0  0  0  # atno 10718 bound_to 10713
  154.2806  135.2763  155.2698 H   0  0  0  0  0  0  0  0  0  0  0  0  # atno 10763 bound_to 10752
  154.5221  135.5753  153.6693 H   0  0  0  0  0  0  0  0  0  0  0  0  # atno 10764 bound_to 10752
  152.9930  135.6207  154.2965 H   0  0  0  0  0  0  0  0  0  0  0  0  # atno 10765 bound_to 10752
  140.6502  134.4458  157.5235 H   0  0  0  0  0  0  0  0  0  0  0  0  # atno 11005 bound_to 11000
  144.7016  140.3675  143.7152 LP  0  0  0  0  0  0  0  0  0  0  0  0  # atno 17320 bound_to 7965
  145.7095  139.1681  143.2547 LP  0  0  0  0  0  0  0  0  0  0  0  0  # atno 17321 bound_to 7965
  140.0968  143.4825  152.2447 LP  0  0  0  0  0  0  0  0  0  0  0  0  # atno 17342 bound_to 10162
  139.5846  144.7525  151.3552 LP  0  0  0  0  0  0  0  0  0  0  0  0  # atno 17343 bound_to 10162
  157.5681  130.8291  149.8354 LP  0  0  0  0  0  0  0  0  0  0  0  0  # atno 17370 bound_to 10713
  156.0337  130.3757  150.1619 LP  0  0  0  0  0  0  0  0  0  0  0  0  # atno 17371 bound_to 10713
  139.9048  134.8473  156.1748 LP  0  0  0  0  0  0  0  0  0  0  0  0  # atno 17394 bound_to 11000
  141.0542  133.6873  156.1829 LP  0  0  0  0  0  0  0  0  0  0  0  0  # atno 17395 bound_to 11000

$$$$
