AV-unprocessed.smi:287|AV-procd|sdf|2195|dock10
  -GOLD-   2262022 03D 1   1.00000     0.00000
 Structure written by MMmdl.
 55 58  0  0  0  0  0  0  0  0  1 V2000
  152.4876  141.3399  158.7712 C   0  0  0  0  0  0  0  0  0  0  0  0
  151.8047  140.9180  157.5156 C   0  0  0  0  0  0  0  0  0  0  0  0
  150.6157  141.2458  156.9321 C   0  0  0  0  0  0  0  0  0  0  0  0
  150.5114  140.4921  155.7243 C   0  0  0  0  0  0  0  0  0  0  0  0
  149.3589  140.5286  154.7292 C   0  0  1  0  0  0  0  0  0  0  0  0
  148.3060  141.5465  155.1965 C   0  0  0  0  0  0  0  0  0  0  0  0
  149.7639  140.9638  153.4453 O   0  0  0  0  0  0  0  0  0  0  0  0
  148.7021  139.1445  154.5198 C   0  0  0  0  0  0  0  0  0  0  0  0
  148.2074  138.5579  155.7588 N   0  0  0  0  0  0  0  0  0  0  0  0
  147.7362  137.2939  155.7904 C   0  0  0  0  0  0  0  0  0  0  0  0
  147.9343  136.6314  156.9537 N   0  0  0  0  0  0  0  0  0  0  0  0
  147.5029  135.3763  157.0905 C   0  0  0  0  0  0  0  0  0  0  0  0
  146.8615  134.6167  156.2030 N   0  0  0  0  0  0  0  0  0  0  0  0
  146.6562  135.2677  155.0211 C   0  0  0  0  0  0  0  0  0  0  0  0
  147.0656  136.6046  154.7359 C   0  0  0  0  0  0  0  0  0  0  0  0
  146.7010  136.9284  153.4353 N   0  0  0  0  0  0  0  0  0  0  0  0
  146.1171  135.8530  152.9864 C   0  0  0  0  0  0  0  0  0  0  0  0
  146.0290  134.8046  153.8741 N   0  0  0  0  0  0  0  0  0  0  0  0
  145.4293  133.4556  153.5773 C   0  0  1  0  0  0  0  0  0  0  0  0
  145.0836  133.4155  152.2302 O   0  0  0  0  0  0  0  0  0  0  0  0
  146.1330  132.8175  151.4833 C   0  0  2  0  0  0  0  0  0  0  0  0
  145.5763  132.2596  150.1646 C   0  0  0  0  0  0  0  0  0  0  0  0
  144.9644  133.2925  149.4219 O   0  0  0  0  0  0  0  0  0  0  0  0
  146.6558  131.7293  152.4347 C   0  0  1  0  0  0  0  0  0  0  0  0
  148.0407  131.5277  152.2369 O   0  0  0  0  0  0  0  0  0  0  0  0
  146.3799  132.2744  153.8401 C   0  0  2  0  0  0  0  0  0  0  0  0
  145.7545  131.2832  154.6304 O   0  0  0  0  0  0  0  0  0  0  0  0
  151.6790  139.7713  155.6603 C   0  0  0  0  0  0  0  0  0  0  0  0
  152.2460  138.8087  154.6697 C   0  0  0  0  0  0  0  0  0  0  0  0
  152.4653  140.0174  156.7451 O   0  0  0  0  0  0  0  0  0  0  0  0
  144.5310  133.4308  154.1960 H   0  0  0  0  0  0  0  0  0  0  0  0
  146.9061  133.5601  151.2850 H   0  0  0  0  0  0  0  0  0  0  0  0
  146.1185  130.7939  152.2678 H   0  0  0  0  0  0  0  0  0  0  0  0
  147.2758  132.6061  154.3639 H   0  0  0  0  0  0  0  0  0  0  0  0
  151.8197  141.9325  159.3966 H   0  0  0  0  0  0  0  0  0  0  0  0
  153.3669  141.9440  158.5480 H   0  0  0  0  0  0  0  0  0  0  0  0
  152.8086  140.4726  159.3485 H   0  0  0  0  0  0  0  0  0  0  0  0
  149.8951  141.9441  157.3316 H   0  0  0  0  0  0  0  0  0  0  0  0
  147.9052  141.2779  156.1746 H   0  0  0  0  0  0  0  0  0  0  0  0
  147.4664  141.6018  154.5027 H   0  0  0  0  0  0  0  0  0  0  0  0
  148.7315  142.5475  155.2810 H   0  0  0  0  0  0  0  0  0  0  0  0
  149.5432  140.2926  152.8178 H   0  0  0  0  0  0  0  0  0  0  0  0
  147.8487  139.2667  153.8516 H   0  0  0  0  0  0  0  0  0  0  0  0
  149.3937  138.4581  154.0290 H   0  0  0  0  0  0  0  0  0  0  0  0
  148.1364  139.1923  156.5414 H   0  0  0  0  0  0  0  0  0  0  0  0
  147.6973  134.9153  158.0475 H   0  0  0  0  0  0  0  0  0  0  0  0
  145.7303  135.7946  151.9794 H   0  0  0  0  0  0  0  0  0  0  0  0
  146.3872  131.8566  149.5571 H   0  0  0  0  0  0  0  0  0  0  0  0
  144.8695  131.4486  150.3427 H   0  0  0  0  0  0  0  0  0  0  0  0
  145.5505  133.5530  148.7282 H   0  0  0  0  0  0  0  0  0  0  0  0
  148.1908  131.3588  151.3192 H   0  0  0  0  0  0  0  0  0  0  0  0
  144.9110  131.6082  154.9063 H   0  0  0  0  0  0  0  0  0  0  0  0
  152.1938  139.2171  153.6605 H   0  0  0  0  0  0  0  0  0  0  0  0
  151.6926  137.8697  154.6847 H   0  0  0  0  0  0  0  0  0  0  0  0
  153.2912  138.5869  154.8873 H   0  0  0  0  0  0  0  0  0  0  0  0
  1  2  1  0  0  0  0
  1 35  1  0  0  0  0
  1 36  1  0  0  0  0
  1 37  1  0  0  0  0
  2 30  1  0  0  0  0
  2  3  2  0  0  0  0
  3  4  1  0  0  0  0
  3 38  1  0  0  0  0
  4  5  1  0  0  0  0
  4 28  2  0  0  0  0
  5  6  1  0  0  0  0
  5  7  1  0  0  0  0
  5  8  1  0  0  0  0
  6 39  1  0  0  0  0
  6 40  1  0  0  0  0
  6 41  1  0  0  0  0
  7 42  1  0  0  0  0
  8  9  1  0  0  0  0
  8 43  1  0  0  0  0
  8 44  1  0  0  0  0
  9 10  1  0  0  0  0
  9 45  1  0  0  0  0
 10 15  1  0  0  0  0
 10 11  2  0  0  0  0
 11 12  1  0  0  0  0
 12 13  2  0  0  0  0
 12 46  1  0  0  0  0
 13 14  1  0  0  0  0
 14 18  1  0  0  0  0
 14 15  2  0  0  0  0
 15 16  1  0  0  0  0
 16 17  2  0  0  0  0
 17 18  1  0  0  0  0
 17 47  1  0  0  0  0
 18 19  1  0  0  0  0
 19 31  1  0  0  0  0
 19 26  1  0  0  0  0
 19 20  1  0  0  0  0
 20 21  1  0  0  0  0
 21 32  1  0  0  0  0
 21 22  1  0  0  0  0
 21 24  1  0  0  0  0
 22 23  1  0  0  0  0
 22 48  1  0  0  0  0
 22 49  1  0  0  0  0
 23 50  1  0  0  0  0
 24 33  1  0  0  0  0
 24 25  1  0  0  0  0
 24 26  1  0  0  0  0
 25 51  1  0  0  0  0
 26 34  1  0  0  0  0
 26 27  1  0  0  0  0
 27 52  1  0  0  0  0
 28 29  1  0  0  0  0
 28 30  1  0  0  0  0
 29 53  1  0  0  0  0
 29 54  1  0  0  0  0
 29 55  1  0  0  0  0
M  END
> <s_m_source_file>
AV-unprocessed.smi

> <i_m_source_file_index>
287

> <i_lp_mmshare_version>
43012

> <i_f3d_flags>
0

> <s_epik_input>
W0NIM11jMVtjSF1jKGMobzEpW0NIM10pW0NAQF0oW0NIM10pKFtPSF0pW0NIMl1bTkhdYyhuW2NIXW4yKWMoYzIzKW5bY0hdbjNbQ0BASF00T1tDQEhdKFtDSDJdW09IXSlbQ0BASF0oW09IXSlbQ0BIXTRbT0hd

> <s_epik_cmdline>
J2VwaWtfcHl0aG9uJywgJy1waCcsICc3LjAnLCAnLXRuJywgJzgnLCAnLW1hJywgJzIwMCcsICctbWV0YWxfYmluZGluZycsICctaW1hZScsICc8aW5maWxlLm1hZT4nLCAnLW9tYWUnLCAnPG91dGZpbGUubWFlPic=

> <r_lp_tautomer_probability>
1

> <r_epik_Ionization_Penalty>
0.000992612

> <r_epik_Ionization_Penalty_Charging>
0

> <r_epik_Ionization_Penalty_Neutral>
0.000992612

> <r_epik_State_Penalty>
-0

> <r_epik_Charging_Adjusted_Penalty>
0

> <i_epik_Tot_Q>
0

> <i_epik_Tot_abs_Q>
0

> <r_epik_Metal_State_Penalty>
-0

> <b_epik_Metal_Only>
0

> <s_epik_Chemistry_Notes>
This compound contains an acetal/aminal-like group ( X-CH(R)-Y where X, Y are N, S, or O) that may be acid/base labile, releasing an aldehyde.

> <s_lp_Force_Field>
OPLS_2005

> <r_lp_Energy>
36.8397

> <b_lp_Chiralities_Consistent>
1

> <s_lp_Variant>
AV-unprocessed.smi:287-19

> <Gold.Version>
5.8.1

> <Gold.Id.Protein>
6NUR|6NUR_protein|mol2

> <Gold.PLP.Fitness>
52.2755

> <Gold.PLP.PLP>
-35.6477

> <Gold.PLP.part.hbond>
-6.9167

> <Gold.PLP.part.metal>
0.0000

> <Gold.PLP.part.buried>
-2.3246

> <Gold.PLP.part.nonpolar>
-27.6801

> <Gold.PLP.part.repulsive>
1.5917

> <Gold.PLP.ligand.clash>
0.0000

> <Gold.PLP.ligand.torsion>
0.3468

> <Gold.PLP.Chemscore.Hbond>
5.7486

> <Gold.PLP.Chemscore.CHOScore>
0.0000

> <Gold.PLP.Chemscore.Metal>
0.0000

> <Gold.Chemscore.Hbonds>
donor molecule, donor type, donor heavy atom, donor atom, acceptor molecule, acceptor atom, score
      L1  H     7    42       P1  7957  0.77
      L1  H    23    50       P1  7921  1.00
      L1  H    25    51       P1 10747  0.67
      L1  H    27    52       P1 10957  0.33
      P1  H  7989  7998       L1     7  0.26
      P1  H  7997  8008       L1    30  1.00
      P1  H  8011  8017       L1     7  0.95

> <Gold.PLP.Chemscore.Internal.Correction>
0.0757

> <Gold.Rescore>
     Score         DG    S(hbond)    S(metal)    S(lipo)     H(rot)  DE(clash)    DE(int)     intcor
     13.36     -15.39       3.94        0.00      87.49       5.27       1.70       0.33       ----

> <Gold.Chemscore.Fitness>
13.3606

> <Gold.Chemscore.DG>
-15.3913

> <Gold.Chemscore.ZeroCoef>
-5.4800

> <Gold.Chemscore.Hbond>
3.9399

> <Gold.Chemscore.Metal>
0.0000

> <Gold.Chemscore.Lipo>
87.4869

> <Gold.Chemscore.Internal_Hbond>
0.0000

> <Gold.Chemscore.DEClash>
1.7049

> <Gold.Chemscore.DEInternal>
0.3258

> <Gold.Chemscore.Rot>
5.2672

> <Gold.Chemscore.Internal.Correction>
   9.000000E+99

> <Gold.Chemscore.Hbonds>
donor molecule, donor type, donor heavy atom, donor atom, acceptor molecule, acceptor atom, score
      L1  H     7    42       P1  7957  0.76
      L1  H    23    50       P1  7921  0.24
      L1  H    25    51       P1 10747  0.63
      L1  H    27    52       P1 10957  0.02
      P1  H  7989  7998       L1     7  0.05
      P1  H  7997  8008       L1    30  0.93
      P1  H  8011  8017       L1     7  0.21

> <Gold.Chemscore.Hbond.Weighted>
-13.1592

> <Gold.Chemscore.Metal.Weighted>
-0.0000

> <Gold.Chemscore.Lipo.Weighted>
-10.2360

> <Gold.Chemscore.Internal_Hbond.Weighted>
0.0000

> <Gold.Chemscore.DEClash.Weighted>
1.7049

> <Gold.Chemscore.DEInternal.Weighted>
0.3258

> <Gold.Chemscore.Rot.Weighted>
13.4839

> <Gold.Chemscore.Internal.Correction.Weighted>
   9.000000E+99

> <Gold.Protein.RotatedTorsions>
[ 6907 6896 6895 6894 ] final   81.33 input  -60.11 | X-H torsion
[ 7974 7965 7964 7962 ] final  116.12 input  175.53 | X-H torsion
[ 8008 7997 7996 7995 ] final  -48.27 input   59.86 | X-H torsion
[ 10167 10162 10161 10158 ] final  176.18 input  -65.29 | X-H torsion
[ 10718 10713 10712 10709 ] final   40.25 input   66.30 | X-H torsion
[ 10763 10752 10751 10750 ] final  170.92 input  -60.55 | X-H torsion
[ 11005 11000 10999 10996 ] final -135.77 input  -57.11 | X-H torsion

> <Gold.Protein.ActiveResidues>
 VAL166  LYS551  ARG553  GLY616  TRP617  ASP618  TYR619  PRO620  LYS621  CYS622 
 ASP623  PHE694  ASN695  SER759  ASP760  ASP761  ALA762  ILE779  LEU786  VAL792 
 PHE793  MET794  SER795  GLU796  ALA797  LYS798  CYS799  TRP800  GLU811  SER814 

> <Gold.Protein.RotatedAtoms>
  152.5265  134.3220  159.9151 H   0  0  0  0  0  0  0  0  0  0  0  0  # atno 6907 bound_to 6896
  151.3169  133.4050  159.2659 H   0  0  0  0  0  0  0  0  0  0  0  0  # atno 6908 bound_to 6896
  150.9991  134.9325  159.8001 H   0  0  0  0  0  0  0  0  0  0  0  0  # atno 6909 bound_to 6896
  145.1835  139.3037  143.4405 H   0  0  0  0  0  0  0  0  0  0  0  0  # atno 7974 bound_to 7965
  154.4027  140.1325  156.4311 H   0  0  0  0  0  0  0  0  0  0  0  0  # atno 8008 bound_to 7997
  155.7550  140.3487  155.5149 H   0  0  0  0  0  0  0  0  0  0  0  0  # atno 8009 bound_to 7997
  155.8914  140.1004  157.1406 H   0  0  0  0  0  0  0  0  0  0  0  0  # atno 8010 bound_to 7997
  139.5205  144.2945  152.0434 H   0  0  0  0  0  0  0  0  0  0  0  0  # atno 10167 bound_to 10162
  157.3799  130.7748  149.7185 H   0  0  0  0  0  0  0  0  0  0  0  0  # atno 10718 bound_to 10713
  154.4045  135.2755  155.2076 H   0  0  0  0  0  0  0  0  0  0  0  0  # atno 10763 bound_to 10752
  154.4088  135.6027  153.5943 H   0  0  0  0  0  0  0  0  0  0  0  0  # atno 10764 bound_to 10752
  152.9831  135.5944  154.4317 H   0  0  0  0  0  0  0  0  0  0  0  0  # atno 10765 bound_to 10752
  140.8867  134.1863  157.4555 H   0  0  0  0  0  0  0  0  0  0  0  0  # atno 11005 bound_to 11000
  146.3449  140.2023  142.8589 LP  0  0  0  0  0  0  0  0  0  0  0  0  # atno 17320 bound_to 7965
  145.0112  140.8716  143.5223 LP  0  0  0  0  0  0  0  0  0  0  0  0  # atno 17321 bound_to 7965
  140.2395  144.4284  150.6266 LP  0  0  0  0  0  0  0  0  0  0  0  0  # atno 17342 bound_to 10162
  140.6300  143.2186  151.6515 LP  0  0  0  0  0  0  0  0  0  0  0  0  # atno 17343 bound_to 10162
  155.9773  130.4064  150.3718 LP  0  0  0  0  0  0  0  0  0  0  0  0  # atno 17370 bound_to 10713
  157.1821  131.0394  151.2743 LP  0  0  0  0  0  0  0  0  0  0  0  0  # atno 17371 bound_to 10713
  139.8725  134.9841  156.5224 LP  0  0  0  0  0  0  0  0  0  0  0  0  # atno 17394 bound_to 11000
  140.8396  133.8215  155.9062 LP  0  0  0  0  0  0  0  0  0  0  0  0  # atno 17395 bound_to 11000

$$$$
