AV-unprocessed.smi:2627|AV-procd|sdf|10239|dock3
  -GOLD-   2272014243D 1   1.00000     0.00000
 Structure written by MMmdl.
 39 41  0  0  0  0  0  0  0  0  1 V2000
  153.6411  137.6344  159.8905 C   0  0  0  0  0  0  0  0  0  0  0  0
  153.9258  138.8111  158.9480 C   0  0  2  0  0  0  0  0  0  0  0  0
  155.3034  138.7978  158.6311 O   0  0  0  0  0  0  0  0  0  0  0  0
  153.4869  140.1225  159.5416 C   0  0  0  0  0  0  0  0  0  0  0  0
  153.8124  140.4856  160.7845 N   0  0  0  0  0  0  0  0  0  0  0  0
  153.2087  141.7207  160.9124 C   0  0  0  0  0  0  0  0  0  0  0  0
  153.1917  142.6267  161.9968 C   0  0  0  0  0  0  0  0  0  0  0  0
  152.4993  143.8510  161.8931 C   0  0  0  0  0  0  0  0  0  0  0  0
  151.8153  144.1856  160.7065 C   0  0  0  0  0  0  0  0  0  0  0  0
  151.8183  143.2959  159.6149 C   0  0  0  0  0  0  0  0  0  0  0  0
  152.5109  142.0752  159.7240 C   0  0  0  0  0  0  0  0  0  0  0  0
  152.7075  141.0020  158.8608 N   0  0  0  0  0  0  0  0  0  0  0  0
  152.1788  140.8853  157.5108 C   0  0  0  0  0  0  0  0  0  0  0  0
  150.6456  140.8857  157.5057 C   0  0  0  0  0  0  0  0  0  0  0  0
  150.1979  140.8199  156.1596 O   0  0  0  0  0  0  0  0  0  0  0  0
  148.9056  141.2122  155.8835 C   0  0  0  0  0  0  0  0  0  0  0  0
  148.5555  141.3493  154.5241 C   0  0  0  0  0  0  0  0  0  0  0  0
  147.2573  141.7463  154.1500 C   0  0  0  0  0  0  0  0  0  0  0  0
  146.2907  142.0101  155.1377 C   0  0  0  0  0  0  0  0  0  0  0  0
  146.6253  141.8761  156.4981 C   0  0  0  0  0  0  0  0  0  0  0  0
  147.9244  141.4798  156.8721 C   0  0  0  0  0  0  0  0  0  0  0  0
  152.5783  137.5689  160.1249 H   0  0  0  0  0  0  0  0  0  0  0  0
  154.1827  137.7401  160.8314 H   0  0  0  0  0  0  0  0  0  0  0  0
  153.9380  136.6870  159.4395 H   0  0  0  0  0  0  0  0  0  0  0  0
  153.4021  138.6476  158.0070 H   0  0  0  0  0  0  0  0  0  0  0  0
  155.7875  138.5795  159.4127 H   0  0  0  0  0  0  0  0  0  0  0  0
  153.7140  142.3800  162.9092 H   0  0  0  0  0  0  0  0  0  0  0  0
  152.4940  144.5368  162.7275 H   0  0  0  0  0  0  0  0  0  0  0  0
  151.2885  145.1260  160.6346 H   0  0  0  0  0  0  0  0  0  0  0  0
  151.2959  143.5501  158.7045 H   0  0  0  0  0  0  0  0  0  0  0  0
  152.5699  141.6961  156.8964 H   0  0  0  0  0  0  0  0  0  0  0  0
  152.5536  139.9626  157.0672 H   0  0  0  0  0  0  0  0  0  0  0  0
  150.2773  140.0279  158.0706 H   0  0  0  0  0  0  0  0  0  0  0  0
  150.2709  141.7933  157.9814 H   0  0  0  0  0  0  0  0  0  0  0  0
  149.2911  141.1492  153.7586 H   0  0  0  0  0  0  0  0  0  0  0  0
  147.0041  141.8481  153.1051 H   0  0  0  0  0  0  0  0  0  0  0  0
  145.2946  142.3145  154.8526 H   0  0  0  0  0  0  0  0  0  0  0  0
  145.8840  142.0775  157.2574 H   0  0  0  0  0  0  0  0  0  0  0  0
  148.1422  141.3877  157.9253 H   0  0  0  0  0  0  0  0  0  0  0  0
  1  2  1  0  0  0  0
  1 22  1  0  0  0  0
  1 23  1  0  0  0  0
  1 24  1  0  0  0  0
  2  3  1  0  0  0  0
  2  4  1  0  0  0  0
  2 25  1  0  0  0  0
  3 26  1  0  0  0  0
  4 12  1  0  0  0  0
  4  5  2  0  0  0  0
  5  6  1  0  0  0  0
  6 11  2  0  0  0  0
  6  7  1  0  0  0  0
  7  8  2  0  0  0  0
  7 27  1  0  0  0  0
  8  9  1  0  0  0  0
  8 28  1  0  0  0  0
  9 10  2  0  0  0  0
  9 29  1  0  0  0  0
 10 11  1  0  0  0  0
 10 30  1  0  0  0  0
 11 12  1  0  0  0  0
 12 13  1  0  0  0  0
 13 14  1  0  0  0  0
 13 31  1  0  0  0  0
 13 32  1  0  0  0  0
 14 15  1  0  0  0  0
 14 33  1  0  0  0  0
 14 34  1  0  0  0  0
 15 16  1  0  0  0  0
 16 21  1  0  0  0  0
 16 17  2  0  0  0  0
 17 18  1  0  0  0  0
 17 35  1  0  0  0  0
 18 19  2  0  0  0  0
 18 36  1  0  0  0  0
 19 20  1  0  0  0  0
 19 37  1  0  0  0  0
 20 21  2  0  0  0  0
 20 38  1  0  0  0  0
 21 39  1  0  0  0  0
M  END
> <s_m_source_file>
AV-unprocessed.smi

> <i_m_source_file_index>
2627

> <i_lp_mmshare_version>
43012

> <i_f3d_flags>
0

> <s_epik_input>
W2NIXTFbY0hdW2NIXVtjSF1jKGMxMiluKGMobjIpW0NASF0oW0NIM10pW09IXSlbQ0gyXVtDSDJdT2MzW2NIXVtjSF1bY0hdW2NIXVtjSF0z

> <s_epik_cmdline>
J2VwaWtfcHl0aG9uJywgJy1waCcsICc3LjAnLCAnLXRuJywgJzgnLCAnLW1hJywgJzIwMCcsICctbWV0YWxfYmluZGluZycsICctaW1hZScsICc8aW5maWxlLm1hZT4nLCAnLW9tYWUnLCAnPG91dGZpbGUubWFlPic=

> <r_lp_tautomer_probability>
1

> <r_epik_Ionization_Penalty>
0.0472514

> <r_epik_Ionization_Penalty_Charging>
0

> <r_epik_Ionization_Penalty_Neutral>
0.0472514

> <r_epik_State_Penalty>
0.040225

> <r_epik_Charging_Adjusted_Penalty>
0.040225

> <i_epik_Tot_Q>
0

> <i_epik_Tot_abs_Q>
0

> <r_epik_Metal_State_Penalty>
4.16204e-05

> <b_epik_Metal_Only>
0

> <s_lp_Force_Field>
OPLS_2005

> <r_lp_Energy>
15.0565

> <b_lp_Chiralities_Consistent>
1

> <s_lp_Variant>
AV-unprocessed.smi:2627-1

> <Gold.Version>
5.8.1

> <Gold.Id.Protein>
6NUR|6NUR_protein|mol2

> <Gold.PLP.Fitness>
48.0809

> <Gold.PLP.PLP>
-45.8591

> <Gold.PLP.part.hbond>
-1.0000

> <Gold.PLP.part.metal>
0.0000

> <Gold.PLP.part.buried>
-7.0338

> <Gold.PLP.part.nonpolar>
-37.2052

> <Gold.PLP.part.repulsive>
0.0505

> <Gold.PLP.ligand.clash>
0.0000

> <Gold.PLP.ligand.torsion>
0.4234

> <Gold.PLP.Chemscore.Hbond>
1.0000

> <Gold.PLP.Chemscore.CHOScore>
0.0000

> <Gold.PLP.Chemscore.Metal>
0.0000

> <Gold.Chemscore.Hbonds>
donor molecule, donor type, donor heavy atom, donor atom, acceptor molecule, acceptor atom, score
      P1  H  7997  8010       L1     3  0.95

> <Gold.PLP.Chemscore.Internal.Correction>
0.0687

> <Gold.Rescore>
     Score         DG    S(hbond)    S(metal)    S(lipo)     H(rot)  DE(clash)    DE(int)     intcor
     16.56     -17.27       0.93        0.00     119.35       2.06       0.09       0.62       ----

> <Gold.Chemscore.Fitness>
16.5567

> <Gold.Chemscore.DG>
-17.2675

> <Gold.Chemscore.ZeroCoef>
-5.4800

> <Gold.Chemscore.Hbond>
0.9255

> <Gold.Chemscore.Metal>
0.0000

> <Gold.Chemscore.Lipo>
119.3518

> <Gold.Chemscore.Internal_Hbond>
0.0000

> <Gold.Chemscore.DEClash>
0.0920

> <Gold.Chemscore.DEInternal>
0.6188

> <Gold.Chemscore.Rot>
2.0577

> <Gold.Chemscore.Internal.Correction>
   9.000000E+99

> <Gold.Chemscore.Hbonds>
donor molecule, donor type, donor heavy atom, donor atom, acceptor molecule, acceptor atom, score
      P1  H  7997  8010       L1     3  0.22

> <Gold.Chemscore.Hbond.Weighted>
-3.0912

> <Gold.Chemscore.Metal.Weighted>
-0.0000

> <Gold.Chemscore.Lipo.Weighted>
-13.9642

> <Gold.Chemscore.Internal_Hbond.Weighted>
0.0000

> <Gold.Chemscore.DEClash.Weighted>
0.0920

> <Gold.Chemscore.DEInternal.Weighted>
0.6188

> <Gold.Chemscore.Rot.Weighted>
5.2678

> <Gold.Chemscore.Internal.Correction.Weighted>
   9.000000E+99

> <Gold.Protein.RotatedTorsions>
[ 6907 6896 6895 6894 ] final  125.39 input  -60.11 | X-H torsion
[ 7974 7965 7964 7962 ] final   80.38 input  175.53 | X-H torsion
[ 8008 7997 7996 7995 ] final  -10.84 input   59.86 | X-H torsion
[ 10167 10162 10161 10158 ] final  105.91 input  -65.29 | X-H torsion
[ 10718 10713 10712 10709 ] final    2.41 input   66.30 | X-H torsion
[ 10763 10752 10751 10750 ] final  174.16 input  -60.55 | X-H torsion
[ 11005 11000 10999 10996 ] final -150.41 input  -57.11 | X-H torsion

> <Gold.Protein.ActiveResidues>
 VAL166  LYS551  ARG553  GLY616  TRP617  ASP618  TYR619  PRO620  LYS621  CYS622 
 ASP623  PHE694  ASN695  SER759  ASP760  ASP761  ALA762  ILE779  LEU786  VAL792 
 PHE793  MET794  SER795  GLU796  ALA797  LYS798  CYS799  TRP800  GLU811  SER814 

> <Gold.Protein.RotatedAtoms>
  152.3996  133.6798  159.6304 H   0  0  0  0  0  0  0  0  0  0  0  0  # atno 6907 bound_to 6896
  150.7889  133.8814  159.3296 H   0  0  0  0  0  0  0  0  0  0  0  0  # atno 6908 bound_to 6896
  151.6583  135.0994  160.0226 H   0  0  0  0  0  0  0  0  0  0  0  0  # atno 6909 bound_to 6896
  145.6520  139.2450  143.1971 H   0  0  0  0  0  0  0  0  0  0  0  0  # atno 7974 bound_to 7965
  154.5518  140.2318  155.8472 H   0  0  0  0  0  0  0  0  0  0  0  0  # atno 8008 bound_to 7997
  156.1954  140.3066  155.9376 H   0  0  0  0  0  0  0  0  0  0  0  0  # atno 8009 bound_to 7997
  155.3055  140.0433  157.3022 H   0  0  0  0  0  0  0  0  0  0  0  0  # atno 8010 bound_to 7997
  139.7053  144.7087  151.1116 H   0  0  0  0  0  0  0  0  0  0  0  0  # atno 10167 bound_to 10162
  156.8626  130.5592  149.5662 H   0  0  0  0  0  0  0  0  0  0  0  0  # atno 10718 bound_to 10713
  154.4501  135.2764  155.1787 H   0  0  0  0  0  0  0  0  0  0  0  0  # atno 10763 bound_to 10752
  154.3617  135.6128  153.5698 H   0  0  0  0  0  0  0  0  0  0  0  0  # atno 10764 bound_to 10752
  152.9846  135.5836  154.4844 H   0  0  0  0  0  0  0  0  0  0  0  0  # atno 10765 bound_to 10752
  140.7405  134.3519  157.5148 H   0  0  0  0  0  0  0  0  0  0  0  0  # atno 11005 bound_to 11000
  146.1196  140.7326  142.9464 LP  0  0  0  0  0  0  0  0  0  0  0  0  # atno 17320 bound_to 7965
  144.7119  140.4071  143.7074 LP  0  0  0  0  0  0  0  0  0  0  0  0  # atno 17321 bound_to 7965
  140.7720  143.5367  150.9360 LP  0  0  0  0  0  0  0  0  0  0  0  0  # atno 17342 bound_to 10162
  139.9050  143.6789  152.3125 LP  0  0  0  0  0  0  0  0  0  0  0  0  # atno 17343 bound_to 10162
  156.0769  130.5789  150.9490 LP  0  0  0  0  0  0  0  0  0  0  0  0  # atno 17370 bound_to 10713
  157.6241  131.0927  150.8566 LP  0  0  0  0  0  0  0  0  0  0  0  0  # atno 17371 bound_to 10713
  139.8807  134.9078  156.2953 LP  0  0  0  0  0  0  0  0  0  0  0  0  # atno 17394 bound_to 11000
  140.9841  133.7249  156.0715 LP  0  0  0  0  0  0  0  0  0  0  0  0  # atno 17395 bound_to 11000

$$$$
