AV-unprocessed.smi:2524|AV-procd|sdf|9922|dock1
  -GOLD-   2272013563D 1   1.00000     0.00000
 Structure written by MMmdl.
 36 37  0  0  0  0  0  0  0  0  1 V2000
  154.0886  136.6140  164.3498 C   0  0  0  0  0  0  0  0  0  0  0  0
  154.5818  137.1926  163.2446 C   0  0  0  0  0  0  0  0  0  0  0  0
  153.9237  137.1395  161.8819 C   0  0  0  0  0  0  0  0  0  0  0  0
  154.7524  137.8720  160.8204 C   0  0  0  0  0  0  0  0  0  0  0  0
  154.0700  137.5838  159.1359 S   0  0  0  0  0  0  0  0  0  0  0  0
  155.1657  137.1405  158.2602 O   0  0  0  0  0  0  0  0  0  0  0  0
  152.8436  136.7792  159.2428 O   0  0  0  0  0  0  0  0  0  0  0  0
  153.6130  139.1714  158.6493 N   0  0  0  0  0  0  0  0  0  0  0  0
  152.3056  139.6852  159.0606 C   0  0  0  0  0  0  0  0  0  0  0  0
  151.6772  140.5286  157.9603 C   0  0  0  0  0  0  0  0  0  0  0  0
  151.9251  141.9957  158.1827 C   0  0  0  0  0  0  0  0  0  0  0  0
  151.2292  142.9777  157.4448 C   0  0  0  0  0  0  0  0  0  0  0  0
  151.4909  144.3374  157.7054 C   0  0  0  0  0  0  0  0  0  0  0  0
  152.3797  144.7571  158.6305 N   0  0  0  0  0  0  0  0  0  0  0  0
  153.0437  143.8171  159.3357 C   0  0  0  0  0  0  0  0  0  0  0  0
  152.8541  142.4331  159.1506 C   0  0  0  0  0  0  0  0  0  0  0  0
  151.6955  140.0064  156.5388 C   0  0  0  0  0  0  0  0  0  0  0  0
  150.3941  140.0726  157.2961 C   0  0  0  0  0  0  0  0  0  0  0  0
  153.1622  136.0587  164.3281 H   0  0  0  0  0  0  0  0  0  0  0  0
  154.6081  136.6890  165.2936 H   0  0  0  0  0  0  0  0  0  0  0  0
  155.5113  137.7399  163.3065 H   0  0  0  0  0  0  0  0  0  0  0  0
  153.7753  136.1001  161.5866 H   0  0  0  0  0  0  0  0  0  0  0  0
  152.9338  137.5899  161.9587 H   0  0  0  0  0  0  0  0  0  0  0  0
  154.7642  138.9464  161.0046 H   0  0  0  0  0  0  0  0  0  0  0  0
  155.7847  137.5207  160.8294 H   0  0  0  0  0  0  0  0  0  0  0  0
  154.3525  139.8463  158.8430 H   0  0  0  0  0  0  0  0  0  0  0  0
  151.6358  138.8579  159.2971 H   0  0  0  0  0  0  0  0  0  0  0  0
  152.4250  140.2748  159.9701 H   0  0  0  0  0  0  0  0  0  0  0  0
  150.5029  142.6962  156.6969 H   0  0  0  0  0  0  0  0  0  0  0  0
  150.9701  145.1081  157.1567 H   0  0  0  0  0  0  0  0  0  0  0  0
  153.7472  144.1779  160.0713 H   0  0  0  0  0  0  0  0  0  0  0  0
  153.4087  141.7217  159.7447 H   0  0  0  0  0  0  0  0  0  0  0  0
  151.8386  140.7229  155.7323 H   0  0  0  0  0  0  0  0  0  0  0  0
  152.1067  139.0149  156.3597 H   0  0  0  0  0  0  0  0  0  0  0  0
  149.9631  139.1241  157.6101 H   0  0  0  0  0  0  0  0  0  0  0  0
  149.6770  140.8317  156.9903 H   0  0  0  0  0  0  0  0  0  0  0  0
  1  2  2  0  0  0  0
  1 19  1  0  0  0  0
  1 20  1  0  0  0  0
  2  3  1  0  0  0  0
  2 21  1  0  0  0  0
  3  4  1  0  0  0  0
  3 22  1  0  0  0  0
  3 23  1  0  0  0  0
  4  5  1  0  0  0  0
  4 24  1  0  0  0  0
  4 25  1  0  0  0  0
  5  6  2  0  0  0  0
  5  7  2  0  0  0  0
  5  8  1  0  0  0  0
  8  9  1  0  0  0  0
  8 26  1  0  0  0  0
  9 10  1  0  0  0  0
  9 27  1  0  0  0  0
  9 28  1  0  0  0  0
 10 18  1  0  0  0  0
 10 11  1  0  0  0  0
 10 17  1  0  0  0  0
 11 16  1  0  0  0  0
 11 12  2  0  0  0  0
 12 13  1  0  0  0  0
 12 29  1  0  0  0  0
 13 14  2  0  0  0  0
 13 30  1  0  0  0  0
 14 15  1  0  0  0  0
 15 16  2  0  0  0  0
 15 31  1  0  0  0  0
 16 32  1  0  0  0  0
 17 18  1  0  0  0  0
 17 33  1  0  0  0  0
 17 34  1  0  0  0  0
 18 35  1  0  0  0  0
 18 36  1  0  0  0  0
M  END
> <s_m_source_file>
AV-unprocessed.smi

> <i_m_source_file_index>
2524

> <i_lp_mmshare_version>
43012

> <i_f3d_flags>
0

> <s_epik_input>
W0NIMl09W0NIXVtDSDJdW0NIMl1TKD1PKSg9TylbTkhdW0NIMl1DMShbQ0gyXVtDSDJdMSljMltjSF1bY0hdbltjSF1bY0hdMg==

> <s_epik_cmdline>
J2VwaWtfcHl0aG9uJywgJy1waCcsICc3LjAnLCAnLXRuJywgJzgnLCAnLW1hJywgJzIwMCcsICctbWV0YWxfYmluZGluZycsICctaW1hZScsICc8aW5maWxlLm1hZT4nLCAnLW9tYWUnLCAnPG91dGZpbGUubWFlPic=

> <r_epik_Ionization_Penalty>
0.0344299

> <r_epik_Ionization_Penalty_Charging>
0

> <r_epik_Ionization_Penalty_Neutral>
0.0344299

> <r_epik_State_Penalty>
0.0286381

> <r_epik_Charging_Adjusted_Penalty>
0.0286381

> <i_epik_Tot_Q>
0

> <i_epik_Tot_abs_Q>
0

> <r_epik_Metal_State_Penalty>
0.0327794

> <b_epik_Metal_Only>
0

> <s_lp_Force_Field>
OPLS_2005

> <r_lp_Energy>
10.3721

> <b_lp_Chiralities_Consistent>
1

> <s_lp_Variant>
AV-unprocessed.smi:2524-1

> <Gold.Version>
5.8.1

> <Gold.Id.Protein>
6NUR|6NUR_protein|mol2

> <Gold.PLP.Fitness>
41.1844

> <Gold.PLP.PLP>
-37.8502

> <Gold.PLP.part.hbond>
-1.6012

> <Gold.PLP.part.metal>
0.0000

> <Gold.PLP.part.buried>
-5.0332

> <Gold.PLP.part.nonpolar>
-32.6428

> <Gold.PLP.part.repulsive>
0.0323

> <Gold.PLP.ligand.clash>
0.0000

> <Gold.PLP.ligand.torsion>
2.0140

> <Gold.PLP.Chemscore.Hbond>
1.0000

> <Gold.PLP.Chemscore.CHOScore>
0.9240

> <Gold.PLP.Chemscore.Metal>
0.0000

> <Gold.Chemscore.Hbonds>
donor molecule, donor type, donor heavy atom, donor atom, acceptor molecule, acceptor atom, score
      P1  H  6896  6908       L1     7  0.89
      L1  C    13    30       P1  8028  0.90

> <Gold.PLP.Chemscore.Internal.Correction>
1.5902

> <Gold.Rescore>
     Score         DG    S(hbond)    S(metal)    S(lipo)     H(rot)  DE(clash)    DE(int)     intcor
     15.07     -16.91       0.99        0.00     109.84       1.85       0.08       1.76       ----

> <Gold.Chemscore.Fitness>
15.0722

> <Gold.Chemscore.DG>
-16.9122

> <Gold.Chemscore.ZeroCoef>
-5.4800

> <Gold.Chemscore.Hbond>
0.9903

> <Gold.Chemscore.Metal>
0.0000

> <Gold.Chemscore.Lipo>
109.8429

> <Gold.Chemscore.Internal_Hbond>
0.0000

> <Gold.Chemscore.DEClash>
0.0802

> <Gold.Chemscore.DEInternal>
1.7598

> <Gold.Chemscore.Rot>
1.8465

> <Gold.Chemscore.Internal.Correction>
   9.000000E+99

> <Gold.Chemscore.Hbonds>
donor molecule, donor type, donor heavy atom, donor atom, acceptor molecule, acceptor atom, score
      P1  H  6896  6908       L1     7  0.83

> <Gold.Chemscore.Hbond.Weighted>
-3.3077

> <Gold.Chemscore.Metal.Weighted>
-0.0000

> <Gold.Chemscore.Lipo.Weighted>
-12.8516

> <Gold.Chemscore.Internal_Hbond.Weighted>
0.0000

> <Gold.Chemscore.DEClash.Weighted>
0.0802

> <Gold.Chemscore.DEInternal.Weighted>
1.7598

> <Gold.Chemscore.Rot.Weighted>
4.7272

> <Gold.Chemscore.Internal.Correction.Weighted>
   9.000000E+99

> <Gold.Protein.RotatedTorsions>
[ 6907 6896 6895 6894 ] final -101.64 input  -60.11 | X-H torsion
[ 7974 7965 7964 7962 ] final  135.81 input  175.53 | X-H torsion
[ 8008 7997 7996 7995 ] final  130.18 input   59.86 | X-H torsion
[ 10167 10162 10161 10158 ] final  -33.09 input  -65.29 | X-H torsion
[ 10718 10713 10712 10709 ] final  -67.43 input   66.30 | X-H torsion
[ 10763 10752 10751 10750 ] final    3.42 input  -60.55 | X-H torsion
[ 11005 11000 10999 10996 ] final  -88.42 input  -57.11 | X-H torsion

> <Gold.Protein.ActiveResidues>
 VAL166  LYS551  ARG553  GLY616  TRP617  ASP618  TYR619  PRO620  LYS621  CYS622 
 ASP623  PHE694  ASN695  SER759  ASP760  ASP761  ALA762  ILE779  LEU786  VAL792 
 PHE793  MET794  SER795  GLU796  ALA797  LYS798  CYS799  TRP800  GLU811  SER814 

> <Gold.Protein.RotatedAtoms>
  150.7163  134.0704  159.3861 H   0  0  0  0  0  0  0  0  0  0  0  0  # atno 6907 bound_to 6896
  151.8686  135.0496  160.0486 H   0  0  0  0  0  0  0  0  0  0  0  0  # atno 6908 bound_to 6896
  152.2661  133.5305  159.5447 H   0  0  0  0  0  0  0  0  0  0  0  0  # atno 6909 bound_to 6896
  144.9626  139.4693  143.5472 H   0  0  0  0  0  0  0  0  0  0  0  0  # atno 7974 bound_to 7965
  156.2950  140.2602  156.2719 H   0  0  0  0  0  0  0  0  0  0  0  0  # atno 8008 bound_to 7997
  154.9686  140.0391  157.2242 H   0  0  0  0  0  0  0  0  0  0  0  0  # atno 8009 bound_to 7997
  154.7879  140.2806  155.6018 H   0  0  0  0  0  0  0  0  0  0  0  0  # atno 8010 bound_to 7997
  140.7210  143.3646  151.1897 H   0  0  0  0  0  0  0  0  0  0  0  0  # atno 10167 bound_to 10162
  156.0558  130.4278  150.1853 H   0  0  0  0  0  0  0  0  0  0  0  0  # atno 10718 bound_to 10713
  153.2835  135.6942  153.7362 H   0  0  0  0  0  0  0  0  0  0  0  0  # atno 10763 bound_to 10752
  153.6340  135.3405  155.3051 H   0  0  0  0  0  0  0  0  0  0  0  0  # atno 10764 bound_to 10752
  154.8502  135.4416  154.1896 H   0  0  0  0  0  0  0  0  0  0  0  0  # atno 10765 bound_to 10752
  141.1602  133.7569  156.9448 H   0  0  0  0  0  0  0  0  0  0  0  0  # atno 11005 bound_to 11000
  146.3358  139.8786  142.8828 LP  0  0  0  0  0  0  0  0  0  0  0  0  # atno 17320 bound_to 7965
  145.2677  141.0098  143.3790 LP  0  0  0  0  0  0  0  0  0  0  0  0  # atno 17321 bound_to 7965
  139.7204  143.9232  152.2983 LP  0  0  0  0  0  0  0  0  0  0  0  0  # atno 17342 bound_to 10162
  139.8987  144.6924  150.8689 LP  0  0  0  0  0  0  0  0  0  0  0  0  # atno 17343 bound_to 10162
  156.9929  130.9899  151.3410 LP  0  0  0  0  0  0  0  0  0  0  0  0  # atno 17370 bound_to 10713
  157.5526  130.8192  149.8165 LP  0  0  0  0  0  0  0  0  0  0  0  0  # atno 17371 bound_to 10713
  140.1297  134.9364  157.2320 LP  0  0  0  0  0  0  0  0  0  0  0  0  # atno 17394 bound_to 11000
  140.2968  134.3177  155.7300 LP  0  0  0  0  0  0  0  0  0  0  0  0  # atno 17395 bound_to 11000

$$$$
