AV-unprocessed.smi:609|AV-procd|sdf|3048|dock2
  -GOLD-   2262023563D 1   1.00000     0.00000
 Structure written by MMmdl.
 42 44  0  0  0  0  0  0  0  0  1 V2000
  153.7306  142.7624  163.0760 C   0  0  0  0  0  0  0  0  0  0  0  0
  153.1941  142.6481  161.6599 C   0  0  0  0  0  0  0  0  0  0  0  0
  152.2369  143.5851  161.2096 C   0  0  0  0  0  0  0  0  0  0  0  0
  151.7133  143.5134  159.9001 C   0  0  0  0  0  0  0  0  0  0  0  0
  150.7840  144.3143  159.2585 N   0  0  0  0  0  0  0  0  0  0  0  0
  150.7167  143.7401  158.0610 C   0  0  0  0  0  0  0  0  0  0  0  0
  151.4937  142.6606  157.8504 N   0  0  0  0  0  0  0  0  0  0  0  0
  151.5863  141.8782  156.6307 C   0  0  0  0  0  0  0  0  0  0  0  0
  151.4485  140.3669  156.8910 C   0  0  1  0  0  0  0  0  0  0  0  0
  150.0794  140.0105  156.9085 O   0  0  0  0  0  0  0  0  0  0  0  0
  152.1762  139.5326  155.8198 C   0  0  0  0  0  0  0  0  0  0  0  0
  151.0457  138.8193  154.5828 S   0  0  0  0  0  0  0  0  0  0  0  0
  150.7183  137.2498  155.3265 C   0  0  0  0  0  0  0  0  0  0  0  0
  151.6484  136.3901  155.7351 N   0  0  0  0  0  0  0  0  0  0  0  0
  150.9402  135.3058  156.2412 C   0  0  0  0  0  0  0  0  0  0  0  0
  149.5937  135.5455  156.1174 C   0  0  0  0  0  0  0  0  0  0  0  0
  149.4671  136.7953  155.5259 N   0  0  0  0  0  0  0  0  0  0  0  0
  148.2228  137.4635  155.1992 C   0  0  0  0  0  0  0  0  0  0  0  0
  152.1765  142.4696  159.0468 C   0  0  0  0  0  0  0  0  0  0  0  0
  153.1289  141.5316  159.4830 C   0  0  0  0  0  0  0  0  0  0  0  0
  153.6423  141.6181  160.7941 C   0  0  0  0  0  0  0  0  0  0  0  0
  154.6714  140.6014  161.2552 C   0  0  0  0  0  0  0  0  0  0  0  0
  153.2812  143.6027  163.6059 H   0  0  0  0  0  0  0  0  0  0  0  0
  154.8102  142.9128  163.0654 H   0  0  0  0  0  0  0  0  0  0  0  0
  153.5125  141.8561  163.6413 H   0  0  0  0  0  0  0  0  0  0  0  0
  151.8958  144.3700  161.8685 H   0  0  0  0  0  0  0  0  0  0  0  0
  150.0660  144.1265  157.2901 H   0  0  0  0  0  0  0  0  0  0  0  0
  150.8200  142.2206  155.9339 H   0  0  0  0  0  0  0  0  0  0  0  0
  152.5486  142.0918  156.1636 H   0  0  0  0  0  0  0  0  0  0  0  0
  151.8618  140.1456  157.8750 H   0  0  0  0  0  0  0  0  0  0  0  0
  149.5984  140.6437  156.3977 H   0  0  0  0  0  0  0  0  0  0  0  0
  152.9032  140.1549  155.2969 H   0  0  0  0  0  0  0  0  0  0  0  0
  152.7450  138.7262  156.2831 H   0  0  0  0  0  0  0  0  0  0  0  0
  151.4493  134.4458  156.6504 H   0  0  0  0  0  0  0  0  0  0  0  0
  148.7384  134.9459  156.3923 H   0  0  0  0  0  0  0  0  0  0  0  0
  147.3743  136.8407  155.4843 H   0  0  0  0  0  0  0  0  0  0  0  0
  148.1766  137.6534  154.1268 H   0  0  0  0  0  0  0  0  0  0  0  0
  148.1617  138.4110  155.7353 H   0  0  0  0  0  0  0  0  0  0  0  0
  153.4632  140.7540  158.8122 H   0  0  0  0  0  0  0  0  0  0  0  0
  154.9033  139.8843  160.4672 H   0  0  0  0  0  0  0  0  0  0  0  0
  154.2999  140.0443  162.1156 H   0  0  0  0  0  0  0  0  0  0  0  0
  155.5993  141.0988  161.5381 H   0  0  0  0  0  0  0  0  0  0  0  0
  1  2  1  0  0  0  0
  1 23  1  0  0  0  0
  1 24  1  0  0  0  0
  1 25  1  0  0  0  0
  2 21  1  0  0  0  0
  2  3  2  0  0  0  0
  3  4  1  0  0  0  0
  3 26  1  0  0  0  0
  4 19  2  0  0  0  0
  4  5  1  0  0  0  0
  5  6  2  0  0  0  0
  6  7  1  0  0  0  0
  6 27  1  0  0  0  0
  7  8  1  0  0  0  0
  7 19  1  0  0  0  0
  8  9  1  0  0  0  0
  8 28  1  0  0  0  0
  8 29  1  0  0  0  0
  9 10  1  0  0  0  0
  9 11  1  0  0  0  0
  9 30  1  0  0  0  0
 10 31  1  0  0  0  0
 11 12  1  0  0  0  0
 11 32  1  0  0  0  0
 11 33  1  0  0  0  0
 12 13  1  0  0  0  0
 13 17  1  0  0  0  0
 13 14  2  0  0  0  0
 14 15  1  0  0  0  0
 15 16  2  0  0  0  0
 15 34  1  0  0  0  0
 16 17  1  0  0  0  0
 16 35  1  0  0  0  0
 17 18  1  0  0  0  0
 18 36  1  0  0  0  0
 18 37  1  0  0  0  0
 18 38  1  0  0  0  0
 19 20  1  0  0  0  0
 20 21  2  0  0  0  0
 20 39  1  0  0  0  0
 21 22  1  0  0  0  0
 22 40  1  0  0  0  0
 22 41  1  0  0  0  0
 22 42  1  0  0  0  0
M  END
> <s_m_source_file>
AV-unprocessed.smi

> <i_m_source_file_index>
609

> <i_lp_mmshare_version>
43012

> <i_f3d_flags>
0

> <s_epik_input>
W0NIM11jKFtjSF0xKWMoW0NIM10pW2NIXWMoYzEyKW4oW2NIXW4yKVtDSDJdW0NASF0oW09IXSlbQ0gyXVNjM25bY0hdW2NIXW4zW0NIM10=

> <s_epik_cmdline>
J2VwaWtfcHl0aG9uJywgJy1waCcsICc3LjAnLCAnLXRuJywgJzgnLCAnLW1hJywgJzIwMCcsICctbWV0YWxfYmluZGluZycsICctaW1hZScsICc8aW5maWxlLm1hZT4nLCAnLW9tYWUnLCAnPG91dGZpbGUubWFlPic=

> <r_lp_tautomer_probability>
1

> <r_epik_Ionization_Penalty>
1.15618

> <r_epik_Ionization_Penalty_Charging>
1.04908

> <r_epik_Ionization_Penalty_Neutral>
0.107097

> <r_epik_State_Penalty>
1.19446

> <r_epik_Charging_Adjusted_Penalty>
2.24354

> <i_epik_Tot_Q>
0

> <i_epik_Tot_abs_Q>
0

> <r_epik_Metal_State_Penalty>
0.487262

> <b_epik_Metal_Only>
0

> <s_lp_Force_Field>
OPLS_2005

> <r_lp_Energy>
7.62781

> <b_lp_Chiralities_Consistent>
1

> <s_lp_Variant>
AV-unprocessed.smi:609-4

> <Gold.Version>
5.8.1

> <Gold.Id.Protein>
6NUR|6NUR_protein|mol2

> <Gold.PLP.Fitness>
48.7169

> <Gold.PLP.PLP>
-45.1505

> <Gold.PLP.part.hbond>
-1.0000

> <Gold.PLP.part.metal>
0.0000

> <Gold.PLP.part.buried>
-5.2023

> <Gold.PLP.part.nonpolar>
-38.6212

> <Gold.PLP.part.repulsive>
0.1900

> <Gold.PLP.ligand.clash>
0.0000

> <Gold.PLP.ligand.torsion>
1.2547

> <Gold.PLP.Chemscore.Hbond>
1.0000

> <Gold.PLP.Chemscore.CHOScore>
1.0000

> <Gold.PLP.Chemscore.Metal>
0.0000

> <Gold.Chemscore.Hbonds>
donor molecule, donor type, donor heavy atom, donor atom, acceptor molecule, acceptor atom, score
      P1  H 10752 10765       L1    14  1.00
      L1  C     6    27       P1  8028  1.00

> <Gold.PLP.Chemscore.Internal.Correction>
0.0759

> <Gold.Rescore>
     Score         DG    S(hbond)    S(metal)    S(lipo)     H(rot)  DE(clash)    DE(int)     intcor
     14.29     -16.92       0.97        0.00     122.93       2.41       1.47       1.16       ----

> <Gold.Chemscore.Fitness>
14.2928

> <Gold.Chemscore.DG>
-16.9243

> <Gold.Chemscore.ZeroCoef>
-5.4800

> <Gold.Chemscore.Hbond>
0.9655

> <Gold.Chemscore.Metal>
0.0000

> <Gold.Chemscore.Lipo>
122.9274

> <Gold.Chemscore.Internal_Hbond>
0.0000

> <Gold.Chemscore.DEClash>
1.4725

> <Gold.Chemscore.DEInternal>
1.1590

> <Gold.Chemscore.Rot>
2.4074

> <Gold.Chemscore.Internal.Correction>
   9.000000E+99

> <Gold.Chemscore.Hbonds>
donor molecule, donor type, donor heavy atom, donor atom, acceptor molecule, acceptor atom, score
      P1  H 10752 10765       L1    14  0.30

> <Gold.Chemscore.Hbond.Weighted>
-3.2248

> <Gold.Chemscore.Metal.Weighted>
-0.0000

> <Gold.Chemscore.Lipo.Weighted>
-14.3825

> <Gold.Chemscore.Internal_Hbond.Weighted>
0.0000

> <Gold.Chemscore.DEClash.Weighted>
1.4725

> <Gold.Chemscore.DEInternal.Weighted>
1.1590

> <Gold.Chemscore.Rot.Weighted>
6.1630

> <Gold.Chemscore.Internal.Correction.Weighted>
   9.000000E+99

> <Gold.Protein.RotatedTorsions>
[ 6907 6896 6895 6894 ] final -125.36 input  -60.11 | X-H torsion
[ 7974 7965 7964 7962 ] final -129.59 input  175.53 | X-H torsion
[ 8008 7997 7996 7995 ] final  175.44 input   59.86 | X-H torsion
[ 10167 10162 10161 10158 ] final  -36.45 input  -65.29 | X-H torsion
[ 10718 10713 10712 10709 ] final   48.53 input   66.30 | X-H torsion
[ 10763 10752 10751 10750 ] final -161.38 input  -60.55 | X-H torsion
[ 11005 11000 10999 10996 ] final -143.06 input  -57.11 | X-H torsion

> <Gold.Protein.ActiveResidues>
 VAL166  LYS551  ARG553  GLY616  TRP617  ASP618  TYR619  PRO620  LYS621  CYS622 
 ASP623  PHE694  ASN695  SER759  ASP760  ASP761  ALA762  ILE779  LEU786  VAL792 
 PHE793  MET794  SER795  GLU796  ALA797  LYS798  CYS799  TRP800  GLU811  SER814 

> <Gold.Protein.RotatedAtoms>
  150.8860  133.7307  159.2918 H   0  0  0  0  0  0  0  0  0  0  0  0  # atno 6907 bound_to 6896
  151.4873  135.1054  159.9803 H   0  0  0  0  0  0  0  0  0  0  0  0  # atno 6908 bound_to 6896
  152.4790  133.8162  159.7085 H   0  0  0  0  0  0  0  0  0  0  0  0  # atno 6909 bound_to 6896
  144.9557  140.7393  143.4760 H   0  0  0  0  0  0  0  0  0  0  0  0  # atno 7974 bound_to 7965
  156.0870  140.1409  156.9641 H   0  0  0  0  0  0  0  0  0  0  0  0  # atno 8008 bound_to 7997
  154.4619  140.0940  156.6963 H   0  0  0  0  0  0  0  0  0  0  0  0  # atno 8009 bound_to 7997
  155.4983  140.3450  155.4369 H   0  0  0  0  0  0  0  0  0  0  0  0  # atno 8010 bound_to 7997
  140.7142  143.3408  151.2362 H   0  0  0  0  0  0  0  0  0  0  0  0  # atno 10167 bound_to 10162
  157.4696  130.8247  149.7973 H   0  0  0  0  0  0  0  0  0  0  0  0  # atno 10718 bound_to 10713
  154.7309  135.3046  154.8893 H   0  0  0  0  0  0  0  0  0  0  0  0  # atno 10763 bound_to 10752
  153.9737  135.6738  153.4752 H   0  0  0  0  0  0  0  0  0  0  0  0  # atno 10764 bound_to 10752
  153.0917  135.4956  154.8623 H   0  0  0  0  0  0  0  0  0  0  0  0  # atno 10765 bound_to 10752
  140.8163  134.2685  157.4920 H   0  0  0  0  0  0  0  0  0  0  0  0  # atno 11005 bound_to 11000
  145.2776  139.1930  143.4808 LP  0  0  0  0  0  0  0  0  0  0  0  0  # atno 17320 bound_to 7965
  146.3336  140.2733  142.8607 LP  0  0  0  0  0  0  0  0  0  0  0  0  # atno 17321 bound_to 7965
  139.6915  143.9685  152.2861 LP  0  0  0  0  0  0  0  0  0  0  0  0  # atno 17342 bound_to 10162
  139.9348  144.6719  150.8326 LP  0  0  0  0  0  0  0  0  0  0  0  0  # atno 17343 bound_to 10162
  156.0067  130.3852  150.2407 LP  0  0  0  0  0  0  0  0  0  0  0  0  # atno 17370 bound_to 10713
  157.0589  131.0084  151.3229 LP  0  0  0  0  0  0  0  0  0  0  0  0  # atno 17371 bound_to 10713
  139.8711  134.9510  156.4074 LP  0  0  0  0  0  0  0  0  0  0  0  0  # atno 17394 bound_to 11000
  140.9146  133.7687  155.9832 LP  0  0  0  0  0  0  0  0  0  0  0  0  # atno 17395 bound_to 11000

$$$$
