AV-unprocessed.smi:209|AV-procd|sdf|1608|dock7
  -GOLD-   2262019523D 1   1.00000     0.00000
 Structure written by MMmdl.
 48 52  0  0  0  0  0  0  0  0  1 V2000
  151.6774  139.9197  155.2947 O   0  0  0  0  0  0  0  0  0  0  0  0
  150.6923  139.3145  154.8779 C   0  0  0  0  0  0  0  0  0  0  0  0
  150.4753  137.9954  154.9445 N   0  0  0  0  0  0  0  0  0  0  0  0
  149.1607  137.6182  154.4344 C   0  0  0  0  0  0  0  0  0  0  0  0
  148.4145  138.9609  154.4716 C   0  0  1  0  0  0  0  0  0  0  0  0
  149.5185  139.9627  154.1670 C   0  0  1  0  0  0  0  0  0  0  0  0
  149.0464  141.3679  154.5440 C   0  0  0  0  0  0  0  0  0  0  0  0
  147.7916  141.6547  153.6854 C   0  0  0  0  0  0  0  0  0  0  0  0
  146.7252  140.5291  153.7787 C   0  0  0  0  0  0  0  0  0  0  0  0
  147.2951  139.1899  153.5646 N   0  0  0  0  0  0  0  0  0  0  0  0
  146.3760  138.1992  153.5734 C   0  0  0  0  0  0  0  0  0  0  0  0
  145.7396  137.8635  154.7265 N   0  0  0  0  0  0  0  0  0  0  0  0
  144.8422  136.8727  154.7280 C   0  0  0  0  0  0  0  0  0  0  0  0
  144.4451  136.1038  153.7109 N   0  0  0  0  0  0  0  0  0  0  0  0
  145.0881  136.4383  152.5550 C   0  0  0  0  0  0  0  0  0  0  0  0
  146.0608  137.4647  152.4013 C   0  0  0  0  0  0  0  0  0  0  0  0
  146.5000  137.5148  151.0854 N   0  0  0  0  0  0  0  0  0  0  0  0
  145.8200  136.5726  150.4905 C   0  0  0  0  0  0  0  0  0  0  0  0
  144.9545  135.8698  151.2996 N   0  0  0  0  0  0  0  0  0  0  0  0
  144.0797  134.7775  150.9011 C   0  0  0  0  0  0  0  0  0  0  0  0
  144.6793  133.3792  151.1402 C   0  0  0  0  0  0  0  0  0  0  0  0
  143.6041  132.3211  150.8186 C   0  0  0  0  0  0  0  0  0  0  0  0
  143.1637  132.3875  149.4767 O   0  0  0  0  0  0  0  0  0  0  0  0
  146.0634  133.1546  150.5142 C   0  0  0  0  0  0  0  0  0  0  0  0
  146.6313  132.7321  151.7734 O   0  0  0  0  0  0  0  0  0  0  0  0
  145.4428  133.1854  152.4585 C   0  0  0  0  0  0  0  0  0  0  0  0
  148.0604  139.1210  155.4929 H   0  0  0  0  0  0  0  0  0  0  0  0
  149.7602  139.9421  153.1021 H   0  0  0  0  0  0  0  0  0  0  0  0
  151.1096  137.3344  155.3694 H   0  0  0  0  0  0  0  0  0  0  0  0
  149.2620  137.2360  153.4173 H   0  0  0  0  0  0  0  0  0  0  0  0
  148.6825  136.8580  155.0528 H   0  0  0  0  0  0  0  0  0  0  0  0
  148.8071  141.4247  155.6067 H   0  0  0  0  0  0  0  0  0  0  0  0
  149.8235  142.1068  154.3463 H   0  0  0  0  0  0  0  0  0  0  0  0
  147.3512  142.6093  153.9739 H   0  0  0  0  0  0  0  0  0  0  0  0
  148.0952  141.7632  152.6433 H   0  0  0  0  0  0  0  0  0  0  0  0
  146.2550  140.5705  154.7623 H   0  0  0  0  0  0  0  0  0  0  0  0
  145.9365  140.7097  153.0473 H   0  0  0  0  0  0  0  0  0  0  0  0
  144.3765  136.6663  155.6804 H   0  0  0  0  0  0  0  0  0  0  0  0
  145.9335  136.3652  149.4368 H   0  0  0  0  0  0  0  0  0  0  0  0
  143.1320  134.8820  151.4310 H   0  0  0  0  0  0  0  0  0  0  0  0
  143.8420  134.9162  149.8455 H   0  0  0  0  0  0  0  0  0  0  0  0
  143.9829  131.3122  150.9827 H   0  0  0  0  0  0  0  0  0  0  0  0
  142.7348  132.4421  151.4658 H   0  0  0  0  0  0  0  0  0  0  0  0
  142.4243  132.9740  149.4312 H   0  0  0  0  0  0  0  0  0  0  0  0
  146.0948  132.3719  149.7555 H   0  0  0  0  0  0  0  0  0  0  0  0
  146.5365  134.0658  150.1451 H   0  0  0  0  0  0  0  0  0  0  0  0
  145.6280  134.1090  153.0080 H   0  0  0  0  0  0  0  0  0  0  0  0
  145.0192  132.4233  153.1137 H   0  0  0  0  0  0  0  0  0  0  0  0
  1  2  2  0  0  0  0
  2  6  1  0  0  0  0
  2  3  1  0  0  0  0
  3  4  1  0  0  0  0
  3 29  1  0  0  0  0
  4  5  1  0  0  0  0
  4 30  1  0  0  0  0
  4 31  1  0  0  0  0
  5 27  1  0  0  0  0
  5 10  1  0  0  0  0
  5  6  1  0  0  0  0
  6 28  1  0  0  0  0
  6  7  1  0  0  0  0
  7  8  1  0  0  0  0
  7 32  1  0  0  0  0
  7 33  1  0  0  0  0
  8  9  1  0  0  0  0
  8 34  1  0  0  0  0
  8 35  1  0  0  0  0
  9 10  1  0  0  0  0
  9 36  1  0  0  0  0
  9 37  1  0  0  0  0
 10 11  1  0  0  0  0
 11 16  1  0  0  0  0
 11 12  2  0  0  0  0
 12 13  1  0  0  0  0
 13 14  2  0  0  0  0
 13 38  1  0  0  0  0
 14 15  1  0  0  0  0
 15 19  1  0  0  0  0
 15 16  2  0  0  0  0
 16 17  1  0  0  0  0
 17 18  2  0  0  0  0
 18 19  1  0  0  0  0
 18 39  1  0  0  0  0
 19 20  1  0  0  0  0
 20 21  1  0  0  0  0
 20 40  1  0  0  0  0
 20 41  1  0  0  0  0
 21 26  1  0  0  0  0
 21 22  1  0  0  0  0
 21 24  1  0  0  0  0
 22 23  1  0  0  0  0
 22 42  1  0  0  0  0
 22 43  1  0  0  0  0
 23 44  1  0  0  0  0
 24 25  1  0  0  0  0
 24 45  1  0  0  0  0
 24 46  1  0  0  0  0
 25 26  1  0  0  0  0
 26 47  1  0  0  0  0
 26 48  1  0  0  0  0
M  END
> <s_m_source_file>
AV-unprocessed.smi

> <i_m_source_file_index>
209

> <i_lp_mmshare_version>
43012

> <i_f3d_flags>
0

> <s_epik_input>
W0NIMl0xW05IXUMoPU8pW0NAQEhdKFtDQEBIXTEyKVtDSDJdW0NIMl1bQ0gyXU4yYyhuW2NIXW4zKWMoYzM0KW5bY0hdbjRbQ0gyXUM1KFtDSDJdW09IXSlbQ0gyXU9bQ0gyXTU=

> <s_epik_cmdline>
J2VwaWtfcHl0aG9uJywgJy1waCcsICc3LjAnLCAnLXRuJywgJzgnLCAnLW1hJywgJzIwMCcsICctbWV0YWxfYmluZGluZycsICctaW1hZScsICc8aW5maWxlLm1hZT4nLCAnLW9tYWUnLCAnPG91dGZpbGUubWFlPic=

> <r_lp_tautomer_probability>
1

> <r_epik_Ionization_Penalty>
0.00113306

> <r_epik_Ionization_Penalty_Charging>
0

> <r_epik_Ionization_Penalty_Neutral>
0.00113306

> <r_epik_State_Penalty>
0.000624042

> <r_epik_Charging_Adjusted_Penalty>
0.000624042

> <i_epik_Tot_Q>
0

> <i_epik_Tot_abs_Q>
0

> <r_epik_Metal_State_Penalty>
-0

> <b_epik_Metal_Only>
0

> <s_lp_Force_Field>
OPLS_2005

> <r_lp_Energy>
56.9818

> <b_lp_Chiralities_Consistent>
1

> <s_lp_Variant>
AV-unprocessed.smi:209-2

> <Gold.Version>
5.8.1

> <Gold.Id.Protein>
6NUR|6NUR_protein|mol2

> <Gold.PLP.Fitness>
45.2252

> <Gold.PLP.PLP>
-35.7527

> <Gold.PLP.part.hbond>
-3.7496

> <Gold.PLP.part.metal>
0.0000

> <Gold.PLP.part.buried>
-1.1619

> <Gold.PLP.part.nonpolar>
-34.2115

> <Gold.PLP.part.repulsive>
2.8911

> <Gold.PLP.ligand.clash>
0.0000

> <Gold.PLP.ligand.torsion>
0.5985

> <Gold.PLP.Chemscore.Hbond>
2.4264

> <Gold.PLP.Chemscore.CHOScore>
1.0000

> <Gold.PLP.Chemscore.Metal>
0.0000

> <Gold.Chemscore.Hbonds>
donor molecule, donor type, donor heavy atom, donor atom, acceptor molecule, acceptor atom, score
      L1  H    23    44       P1 10186  1.00
      P1  H  7954  7966       L1    17  0.89
      P1  H  7989  7998       L1     1  0.30
      P1  H 10785 10796       L1    23  0.16
      L1  C    18    39       P1  7921  1.00

> <Gold.PLP.Chemscore.Internal.Correction>
0.3904

> <Gold.Rescore>
     Score         DG    S(hbond)    S(metal)    S(lipo)     H(rot)  DE(clash)    DE(int)     intcor
     10.91     -13.51       1.85        0.00      74.24       2.66       1.93       0.68       ----

> <Gold.Chemscore.Fitness>
10.9072

> <Gold.Chemscore.DG>
-13.5137

> <Gold.Chemscore.ZeroCoef>
-5.4800

> <Gold.Chemscore.Hbond>
1.8452

> <Gold.Chemscore.Metal>
0.0000

> <Gold.Chemscore.Lipo>
74.2359

> <Gold.Chemscore.Internal_Hbond>
0.0000

> <Gold.Chemscore.DEClash>
1.9254

> <Gold.Chemscore.DEInternal>
0.6810

> <Gold.Chemscore.Rot>
2.6620

> <Gold.Chemscore.Internal.Correction>
   9.000000E+99

> <Gold.Chemscore.Hbonds>
donor molecule, donor type, donor heavy atom, donor atom, acceptor molecule, acceptor atom, score
      L1  H    23    44       P1 10186  0.93
      P1  H  7954  7966       L1    17  0.47
      P1  H 10785 10796       L1    23  0.08

> <Gold.Chemscore.Hbond.Weighted>
-6.1629

> <Gold.Chemscore.Metal.Weighted>
-0.0000

> <Gold.Chemscore.Lipo.Weighted>
-8.6856

> <Gold.Chemscore.Internal_Hbond.Weighted>
0.0000

> <Gold.Chemscore.DEClash.Weighted>
1.9254

> <Gold.Chemscore.DEInternal.Weighted>
0.6810

> <Gold.Chemscore.Rot.Weighted>
6.8148

> <Gold.Chemscore.Internal.Correction.Weighted>
   9.000000E+99

> <Gold.Protein.RotatedTorsions>
[ 6907 6896 6895 6894 ] final  125.64 input  -60.11 | X-H torsion
[ 7974 7965 7964 7962 ] final  162.23 input  175.53 | X-H torsion
[ 8008 7997 7996 7995 ] final  -73.92 input   59.86 | X-H torsion
[ 10167 10162 10161 10158 ] final  155.15 input  -65.29 | X-H torsion
[ 10718 10713 10712 10709 ] final  -13.73 input   66.30 | X-H torsion
[ 10763 10752 10751 10750 ] final -125.11 input  -60.55 | X-H torsion
[ 11005 11000 10999 10996 ] final -118.54 input  -57.11 | X-H torsion

> <Gold.Protein.ActiveResidues>
 VAL166  LYS551  ARG553  GLY616  TRP617  ASP618  TYR619  PRO620  LYS621  CYS622 
 ASP623  PHE694  ASN695  SER759  ASP760  ASP761  ALA762  ILE779  LEU786  VAL792 
 PHE793  MET794  SER795  GLU796  ALA797  LYS798  CYS799  TRP800  GLU811  SER814 

> <Gold.Protein.RotatedAtoms>
  152.3974  133.6767  159.6287 H   0  0  0  0  0  0  0  0  0  0  0  0  # atno 6907 bound_to 6896
  150.7871  133.8850  159.3305 H   0  0  0  0  0  0  0  0  0  0  0  0  # atno 6908 bound_to 6896
  151.6624  135.0989  160.0233 H   0  0  0  0  0  0  0  0  0  0  0  0  # atno 6909 bound_to 6896
  144.7647  139.8010  143.6319 H   0  0  0  0  0  0  0  0  0  0  0  0  # atno 7974 bound_to 7965
  154.5287  140.0770  156.8305 H   0  0  0  0  0  0  0  0  0  0  0  0  # atno 8008 bound_to 7997
  155.3421  140.3408  155.4221 H   0  0  0  0  0  0  0  0  0  0  0  0  # atno 8009 bound_to 7997
  156.1758  140.1635  156.8351 H   0  0  0  0  0  0  0  0  0  0  0  0  # atno 8010 bound_to 7997
  139.4822  144.5124  151.8004 H   0  0  0  0  0  0  0  0  0  0  0  0  # atno 10167 bound_to 10162
  156.6261  130.4888  149.6146 H   0  0  0  0  0  0  0  0  0  0  0  0  # atno 10718 bound_to 10713
  154.8732  135.4041  154.3214 H   0  0  0  0  0  0  0  0  0  0  0  0  # atno 10763 bound_to 10752
  153.4042  135.7019  153.6410 H   0  0  0  0  0  0  0  0  0  0  0  0  # atno 10764 bound_to 10752
  153.5139  135.3701  155.2571 H   0  0  0  0  0  0  0  0  0  0  0  0  # atno 10765 bound_to 10752
  141.0279  134.0026  157.3187 H   0  0  0  0  0  0  0  0  0  0  0  0  # atno 11005 bound_to 11000
  146.1743  139.4907  142.9907 LP  0  0  0  0  0  0  0  0  0  0  0  0  # atno 17320 bound_to 7965
  145.6508  141.0263  143.1761 LP  0  0  0  0  0  0  0  0  0  0  0  0  # atno 17321 bound_to 7965
  140.4629  144.1697  150.5908 LP  0  0  0  0  0  0  0  0  0  0  0  0  # atno 17342 bound_to 10162
  140.4466  143.2504  151.9404 LP  0  0  0  0  0  0  0  0  0  0  0  0  # atno 17343 bound_to 10162
  156.2272  130.6773  151.1428 LP  0  0  0  0  0  0  0  0  0  0  0  0  # atno 17370 bound_to 10713
  157.7214  131.0679  150.6121 LP  0  0  0  0  0  0  0  0  0  0  0  0  # atno 17371 bound_to 10713
  139.9188  135.0199  156.7984 LP  0  0  0  0  0  0  0  0  0  0  0  0  # atno 17394 bound_to 11000
  140.6459  133.9775  155.7731 LP  0  0  0  0  0  0  0  0  0  0  0  0  # atno 17395 bound_to 11000

$$$$
