AV-unprocessed.smi:1738|AV-procd|sdf|7002|dock9
  -GOLD-   22720 8213D 1   1.00000     0.00000
 Structure written by MMmdl.
 46 48  0  0  0  0  0  0  0  0  2 V2000
  154.4098  136.1481  157.8185 C   0  0  0  0  0  0  0  0  0  0  0  0
  153.0955  137.3462  158.2863 S   0  0  0  0  0  0  0  0  0  0  0  0
  152.6669  137.0477  159.6617 O   0  0  0  0  0  0  0  0  0  0  0  0
  153.5757  138.6961  157.9520 O   0  0  0  0  0  0  0  0  0  0  0  0
  151.7420  136.9428  157.1877 C   0  0  0  0  0  0  0  0  0  0  0  0
  150.4451  136.7361  157.6988 C   0  0  0  0  0  0  0  0  0  0  0  0
  149.4087  136.4563  156.7878 C   0  0  0  0  0  0  0  0  0  0  0  0
  149.7067  136.4120  155.4029 C   0  0  0  0  0  0  0  0  0  0  0  0
  148.7614  136.1253  154.3796 N   0  0  0  0  0  0  0  0  0  0  0  0
  147.5156  135.6321  154.4885 C   0  0  0  0  0  0  0  0  0  0  0  0
  146.9442  135.3561  155.5425 O   0  0  0  0  0  0  0  0  0  0  0  0
  146.9492  135.4800  153.2831 N   0  0  0  0  0  0  0  0  0  0  0  0
  145.6045  134.9627  153.0454 C   0  0  1  0  0  0  0  0  0  0  0  0
  144.6661  136.0018  152.4068 C   0  0  0  0  0  0  0  0  0  0  0  0
  143.7923  135.2088  151.4147 C   0  0  0  0  0  0  0  0  0  0  0  0
  144.1863  133.7975  151.5870 N   0  3  1  0  0  0  0  0  0  0  0  0
  143.9556  132.8883  150.4433 C   0  0  0  0  0  0  0  0  0  0  0  0
  144.3480  131.4532  150.8476 C   0  0  0  0  0  0  0  0  0  0  0  0
  145.7833  131.3887  151.4076 C   0  0  0  0  0  0  0  0  0  0  0  0
  145.9898  132.4225  152.5314 C   0  0  0  0  0  0  0  0  0  0  0  0
  145.5893  133.8196  152.0273 C   0  0  2  0  0  0  0  0  0  0  0  0
  151.0430  136.6417  155.0098 C   0  0  0  0  0  0  0  0  0  0  0  0
  152.0443  136.9120  155.8728 N   0  0  0  0  0  0  0  0  0  0  0  0
  155.2901  136.3157  158.4382 H   0  0  0  0  0  0  0  0  0  0  0  0
  154.6716  136.2864  156.7697 H   0  0  0  0  0  0  0  0  0  0  0  0
  154.0465  135.1320  157.9713 H   0  0  0  0  0  0  0  0  0  0  0  0
  150.2448  136.7830  158.7589 H   0  0  0  0  0  0  0  0  0  0  0  0
  148.4187  136.2746  157.1742 H   0  0  0  0  0  0  0  0  0  0  0  0
  149.0637  136.3552  153.4441 H   0  0  0  0  0  0  0  0  0  0  0  0
  147.4891  135.7382  152.4698 H   0  0  0  0  0  0  0  0  0  0  0  0
  145.1523  134.6240  153.9802 H   0  0  0  0  0  0  0  0  0  0  0  0
  144.0650  136.5054  153.1643 H   0  0  0  0  0  0  0  0  0  0  0  0
  145.2267  136.7691  151.8705 H   0  0  0  0  0  0  0  0  0  0  0  0
  142.7265  135.3371  151.6051 H   0  0  0  0  0  0  0  0  0  0  0  0
  143.9960  135.5350  150.3934 H   0  0  0  0  0  0  0  0  0  0  0  0
  142.9051  132.9237  150.1529 H   0  0  0  0  0  0  0  0  0  0  0  0
  144.5406  133.2169  149.5829 H   0  0  0  0  0  0  0  0  0  0  0  0
  143.6517  131.0893  151.6045 H   0  0  0  0  0  0  0  0  0  0  0  0
  144.2498  130.7833  149.9929 H   0  0  0  0  0  0  0  0  0  0  0  0
  145.9979  130.3852  151.7762 H   0  0  0  0  0  0  0  0  0  0  0  0
  146.4940  131.5812  150.6030 H   0  0  0  0  0  0  0  0  0  0  0  0
  145.3924  132.1509  153.4028 H   0  0  0  0  0  0  0  0  0  0  0  0
  147.0318  132.4173  152.8510 H   0  0  0  0  0  0  0  0  0  0  0  0
  146.2167  134.0912  151.1748 H   0  0  0  0  0  0  0  0  0  0  0  0
  151.3191  136.6116  153.9658 H   0  0  0  0  0  0  0  0  0  0  0  0
  143.6493  133.4431  152.3658 H   0  0  0  0  0  0  0  0  0  0  0  0
  1  2  1  0  0  0  0
  1 24  1  0  0  0  0
  1 25  1  0  0  0  0
  1 26  1  0  0  0  0
  2  3  2  0  0  0  0
  2  4  2  0  0  0  0
  2  5  1  0  0  0  0
  5 23  1  0  0  0  0
  5  6  2  0  0  0  0
  6  7  1  0  0  0  0
  6 27  1  0  0  0  0
  7  8  2  0  0  0  0
  7 28  1  0  0  0  0
  8  9  1  0  0  0  0
  8 22  1  0  0  0  0
  9 10  1  0  0  0  0
  9 29  1  0  0  0  0
 10 11  2  0  0  0  0
 10 12  1  0  0  0  0
 12 13  1  0  0  0  0
 12 30  1  0  0  0  0
 13 21  1  0  0  0  0
 13 14  1  0  0  0  0
 13 31  1  0  0  0  0
 14 15  1  0  0  0  0
 14 32  1  0  0  0  0
 14 33  1  0  0  0  0
 15 16  1  0  0  0  0
 15 34  1  0  0  0  0
 15 35  1  0  0  0  0
 16 21  1  0  0  0  0
 16 17  1  0  0  0  0
 16 46  1  0  0  0  0
 17 18  1  0  0  0  0
 17 36  1  0  0  0  0
 17 37  1  0  0  0  0
 18 19  1  0  0  0  0
 18 38  1  0  0  0  0
 18 39  1  0  0  0  0
 19 20  1  0  0  0  0
 19 40  1  0  0  0  0
 19 41  1  0  0  0  0
 20 21  1  0  0  0  0
 20 42  1  0  0  0  0
 20 43  1  0  0  0  0
 21 44  1  0  0  0  0
 22 23  2  0  0  0  0
 22 45  1  0  0  0  0
M  CHG  1  16   1
M  END
> <s_m_source_file>
AV-unprocessed.smi

> <i_m_source_file_index>
1738

> <i_lp_mmshare_version>
43012

> <i_f3d_flags>
0

> <s_epik_input>
W0NIM11TKD1PKSg9TyljMVtjSF1bY0hdYyhbY0hdbjEpW05IXUMoPU8pW05IXVtDQEhdKFtDSDJdW0NIMl0yKVtDQEBIXShOMjMpW0NIMl1bQ0gyXVtDSDJdW0NIMl0z

> <s_epik_cmdline>
J2VwaWtfcHl0aG9uJywgJy1waCcsICc3LjAnLCAnLXRuJywgJzgnLCAnLW1hJywgJzIwMCcsICctbWV0YWxfYmluZGluZycsICctaW1hZScsICc8aW5maWxlLm1hZT4nLCAnLW9tYWUnLCAnPG91dGZpbGUubWFlPic=

> <r_epik_Ionization_Penalty>
0.00100042

> <r_epik_Ionization_Penalty_Charging>
0.000974069

> <r_epik_Ionization_Penalty_Neutral>
2.63543e-05

> <r_epik_State_Penalty>
0.000633842

> <r_epik_Charging_Adjusted_Penalty>
0.00160791

> <i_epik_Tot_Q>
1

> <i_epik_Tot_abs_Q>
1

> <r_epik_Metal_State_Penalty>
-0

> <b_epik_Metal_Only>
0

> <s_lp_Force_Field>
OPLS_2005

> <r_lp_Energy>
37.3337

> <b_lp_Chiralities_Consistent>
1

> <s_lp_Variant>
AV-unprocessed.smi:1738-6

> <Gold.Version>
5.8.1

> <Gold.Id.Protein>
6NUR|6NUR_protein|mol2

> <Gold.PLP.Fitness>
43.3892

> <Gold.PLP.PLP>
-26.6860

> <Gold.PLP.part.hbond>
-4.9355

> <Gold.PLP.part.metal>
0.0000

> <Gold.PLP.part.buried>
-4.0038

> <Gold.PLP.part.nonpolar>
-17.9673

> <Gold.PLP.part.repulsive>
0.0584

> <Gold.PLP.ligand.clash>
0.0000

> <Gold.PLP.ligand.torsion>
1.1755

> <Gold.PLP.Chemscore.Hbond>
4.6816

> <Gold.PLP.Chemscore.CHOScore>
0.9933

> <Gold.PLP.Chemscore.Metal>
0.0000

> <Gold.Chemscore.Hbonds>
donor molecule, donor type, donor heavy atom, donor atom, acceptor molecule, acceptor atom, score
      L1  H     9    29       P1  7948  1.00
      L1  H    12    30       P1  7948  0.98
      P1  H  6896  6908       L1     3  0.76
      P1  H  7997  8010       L1     4  1.00
      P1  H 10752 10764       L1    23  0.59
      L1  C    22    45       P1  7949  0.94

> <Gold.PLP.Chemscore.Internal.Correction>
2.0293

> <Gold.Rescore>
     Score         DG    S(hbond)    S(metal)    S(lipo)     H(rot)  DE(clash)    DE(int)     intcor
     21.70     -24.10       4.20        0.00      61.25       1.00       0.06       2.34       ----

> <Gold.Chemscore.Fitness>
21.7022

> <Gold.Chemscore.DG>
-24.0993

> <Gold.Chemscore.ZeroCoef>
-5.4800

> <Gold.Chemscore.Hbond>
4.1957

> <Gold.Chemscore.Metal>
0.0000

> <Gold.Chemscore.Lipo>
61.2453

> <Gold.Chemscore.Internal_Hbond>
0.0000

> <Gold.Chemscore.DEClash>
0.0563

> <Gold.Chemscore.DEInternal>
2.3407

> <Gold.Chemscore.Rot>
1.0000

> <Gold.Chemscore.Internal.Correction>
   9.000000E+99

> <Gold.Chemscore.Hbonds>
donor molecule, donor type, donor heavy atom, donor atom, acceptor molecule, acceptor atom, score
      L1  H     9    29       P1  7948  0.93
      L1  H    12    30       P1  7948  0.92
      P1  H  6896  6908       L1     3  0.70
      P1  H  7997  8010       L1     4  0.99
      P1  H 10752 10764       L1    23  0.09

> <Gold.Chemscore.Hbond.Weighted>
-14.0136

> <Gold.Chemscore.Metal.Weighted>
-0.0000

> <Gold.Chemscore.Lipo.Weighted>
-7.1657

> <Gold.Chemscore.Internal_Hbond.Weighted>
0.0000

> <Gold.Chemscore.DEClash.Weighted>
0.0563

> <Gold.Chemscore.DEInternal.Weighted>
2.3407

> <Gold.Chemscore.Rot.Weighted>
2.5600

> <Gold.Chemscore.Internal.Correction.Weighted>
   9.000000E+99

> <Gold.Protein.RotatedTorsions>
[ 6907 6896 6895 6894 ] final -108.41 input  -60.11 | X-H torsion
[ 7974 7965 7964 7962 ] final  -61.24 input  175.53 | X-H torsion
[ 8008 7997 7996 7995 ] final   39.92 input   59.86 | X-H torsion
[ 10167 10162 10161 10158 ] final  -46.84 input  -65.29 | X-H torsion
[ 10718 10713 10712 10709 ] final  -42.64 input   66.30 | X-H torsion
[ 10763 10752 10751 10750 ] final  -14.10 input  -60.55 | X-H torsion
[ 11005 11000 10999 10996 ] final -102.37 input  -57.11 | X-H torsion

> <Gold.Protein.ActiveResidues>
 VAL166  LYS551  ARG553  GLY616  TRP617  ASP618  TYR619  PRO620  LYS621  CYS622 
 ASP623  PHE694  ASN695  SER759  ASP760  ASP761  ALA762  ILE779  LEU786  VAL792 
 PHE793  MET794  SER795  GLU796  ALA797  LYS798  CYS799  TRP800  GLU811  SER814 

> <Gold.Protein.RotatedAtoms>
  150.7500  133.9681  159.3536 H   0  0  0  0  0  0  0  0  0  0  0  0  # atno 6907 bound_to 6896
  151.7613  135.0807  160.0355 H   0  0  0  0  0  0  0  0  0  0  0  0  # atno 6908 bound_to 6896
  152.3401  133.6020  159.5906 H   0  0  0  0  0  0  0  0  0  0  0  0  # atno 6909 bound_to 6896
  145.8058  140.8628  143.0207 H   0  0  0  0  0  0  0  0  0  0  0  0  # atno 7974 bound_to 7965
  155.2446  140.3348  155.4288 H   0  0  0  0  0  0  0  0  0  0  0  0  # atno 8008 bound_to 7997
  156.2241  140.1822  156.7449 H   0  0  0  0  0  0  0  0  0  0  0  0  # atno 8009 bound_to 7997
  154.5872  140.0644  156.9172 H   0  0  0  0  0  0  0  0  0  0  0  0  # atno 8010 bound_to 7997
  140.6800  143.2812  151.3841 H   0  0  0  0  0  0  0  0  0  0  0  0  # atno 10167 bound_to 10162
  156.2574  130.4193  149.8581 H   0  0  0  0  0  0  0  0  0  0  0  0  # atno 10718 bound_to 10713
  153.5232  135.7015  153.5721 H   0  0  0  0  0  0  0  0  0  0  0  0  # atno 10763 bound_to 10752
  153.3761  135.3932  155.1823 H   0  0  0  0  0  0  0  0  0  0  0  0  # atno 10764 bound_to 10752
  154.8692  135.3823  154.4722 H   0  0  0  0  0  0  0  0  0  0  0  0  # atno 10765 bound_to 10752
  141.1192  133.8553  157.1351 H   0  0  0  0  0  0  0  0  0  0  0  0  # atno 11005 bound_to 11000
  144.6763  140.0325  143.7482 LP  0  0  0  0  0  0  0  0  0  0  0  0  # atno 17320 bound_to 7965
  145.9829  139.2955  143.1031 LP  0  0  0  0  0  0  0  0  0  0  0  0  # atno 17321 bound_to 7965
  139.6117  144.1085  152.2305 LP  0  0  0  0  0  0  0  0  0  0  0  0  # atno 17342 bound_to 10162
  140.0501  144.5939  150.7342 LP  0  0  0  0  0  0  0  0  0  0  0  0  # atno 17343 bound_to 10162
  156.6108  130.8586  151.3454 LP  0  0  0  0  0  0  0  0  0  0  0  0  # atno 17370 bound_to 10713
  157.7238  130.9594  150.1547 LP  0  0  0  0  0  0  0  0  0  0  0  0  # atno 17371 bound_to 10713
  140.0136  134.9977  157.0446 LP  0  0  0  0  0  0  0  0  0  0  0  0  # atno 17394 bound_to 11000
  140.4558  134.1535  155.7186 LP  0  0  0  0  0  0  0  0  0  0  0  0  # atno 17395 bound_to 11000

$$$$
