AV-unprocessed.smi:3287|AV-procd|sdf|12598|dock1
  -GOLD-   2272018523D 1   1.00000     0.00000
 Structure written by MMmdl.
 43 44  0  0  0  0  0  0  0  0  2 V2000
  144.9329  131.4999  150.6209 C   0  0  0  0  0  0  0  0  0  0  0  0
  145.5786  132.8083  151.1057 C   0  0  2  0  0  0  0  0  0  0  0  0
  146.2251  132.6483  152.4956 C   0  0  0  0  0  0  0  0  0  0  0  0
  146.9441  133.9334  152.9363 C   0  0  0  0  0  0  0  0  0  0  0  0
  146.0004  135.1534  152.9107 C   0  0  1  0  0  0  0  0  0  0  0  0
  146.7153  136.4011  153.2591 N   0  3  0  0  0  0  0  0  0  0  0  0
  145.9004  137.6347  153.2153 C   0  0  0  0  0  0  0  0  0  0  0  0
  146.5840  138.7281  152.3757 C   0  0  2  0  0  0  0  0  0  0  0  0
  147.3656  138.1088  151.3725 O   0  0  0  0  0  0  0  0  0  0  0  0
  147.4195  139.6513  153.2485 C   0  0  0  0  0  0  0  0  0  0  0  0
  147.1102  141.0246  153.3390 C   0  0  0  0  0  0  0  0  0  0  0  0
  147.9084  141.8426  154.1637 C   0  0  0  0  0  0  0  0  0  0  0  0
  148.9558  141.3782  154.8776 N   0  0  0  0  0  0  0  0  0  0  0  0
  149.2467  140.0628  154.7897 C   0  0  0  0  0  0  0  0  0  0  0  0
  148.5134  139.1601  153.9938 C   0  0  0  0  0  0  0  0  0  0  0  0
  145.3546  135.2997  151.5181 C   0  0  0  0  0  0  0  0  0  0  0  0
  144.6165  134.0229  151.0624 C   0  0  2  0  0  0  0  0  0  0  0  0
  143.3003  133.8159  151.8391 C   0  0  0  0  0  0  0  0  0  0  0  0
  144.1634  131.1483  151.3084 H   0  0  0  0  0  0  0  0  0  0  0  0
  145.6776  130.7081  150.5346 H   0  0  0  0  0  0  0  0  0  0  0  0
  144.4751  131.6265  149.6394 H   0  0  0  0  0  0  0  0  0  0  0  0
  146.3868  133.0242  150.4047 H   0  0  0  0  0  0  0  0  0  0  0  0
  145.4700  132.3770  153.2338 H   0  0  0  0  0  0  0  0  0  0  0  0
  146.9398  131.8245  152.4777 H   0  0  0  0  0  0  0  0  0  0  0  0
  147.3525  133.7824  153.9353 H   0  0  0  0  0  0  0  0  0  0  0  0
  147.7962  134.1131  152.2791 H   0  0  0  0  0  0  0  0  0  0  0  0
  145.2065  135.0074  153.6443 H   0  0  0  0  0  0  0  0  0  0  0  0
  147.1127  136.3043  154.1830 H   0  0  0  0  0  0  0  0  0  0  0  0
  144.9299  137.3940  152.7790 H   0  0  0  0  0  0  0  0  0  0  0  0
  145.7152  138.0011  154.2252 H   0  0  0  0  0  0  0  0  0  0  0  0
  145.8219  139.3248  151.8722 H   0  0  0  0  0  0  0  0  0  0  0  0
  147.7475  137.3224  151.7331 H   0  0  0  0  0  0  0  0  0  0  0  0
  146.2814  141.4484  152.7913 H   0  0  0  0  0  0  0  0  0  0  0  0
  147.6989  142.8983  154.2525 H   0  0  0  0  0  0  0  0  0  0  0  0
  150.0883  139.7182  155.3722 H   0  0  0  0  0  0  0  0  0  0  0  0
  148.7883  138.1158  153.9609 H   0  0  0  0  0  0  0  0  0  0  0  0
  144.6673  136.1467  151.5109 H   0  0  0  0  0  0  0  0  0  0  0  0
  146.1290  135.5374  150.7869 H   0  0  0  0  0  0  0  0  0  0  0  0
  144.3335  134.1769  150.0201 H   0  0  0  0  0  0  0  0  0  0  0  0
  143.4721  133.5867  152.8903 H   0  0  0  0  0  0  0  0  0  0  0  0
  142.7113  133.0023  151.4163 H   0  0  0  0  0  0  0  0  0  0  0  0
  142.6787  134.7106  151.7959 H   0  0  0  0  0  0  0  0  0  0  0  0
  147.4705  136.5170  152.5988 H   0  0  0  0  0  0  0  0  0  0  0  0
  1  2  1  0  0  0  0
  1 19  1  0  0  0  0
  1 20  1  0  0  0  0
  1 21  1  0  0  0  0
  2 17  1  0  0  0  0
  2  3  1  0  0  0  0
  2 22  1  0  0  0  0
  3  4  1  0  0  0  0
  3 23  1  0  0  0  0
  3 24  1  0  0  0  0
  4  5  1  0  0  0  0
  4 25  1  0  0  0  0
  4 26  1  0  0  0  0
  5  6  1  0  0  0  0
  5 16  1  0  0  0  0
  5 27  1  0  0  0  0
  6  7  1  0  0  0  0
  6 28  1  0  0  0  0
  6 43  1  0  0  0  0
  7  8  1  0  0  0  0
  7 29  1  0  0  0  0
  7 30  1  0  0  0  0
  8  9  1  0  0  0  0
  8 10  1  0  0  0  0
  8 31  1  0  0  0  0
  9 32  1  0  0  0  0
 10 15  1  0  0  0  0
 10 11  2  0  0  0  0
 11 12  1  0  0  0  0
 11 33  1  0  0  0  0
 12 13  2  0  0  0  0
 12 34  1  0  0  0  0
 13 14  1  0  0  0  0
 14 15  2  0  0  0  0
 14 35  1  0  0  0  0
 15 36  1  0  0  0  0
 16 17  1  0  0  0  0
 16 37  1  0  0  0  0
 16 38  1  0  0  0  0
 17 18  1  0  0  0  0
 17 39  1  0  0  0  0
 18 40  1  0  0  0  0
 18 41  1  0  0  0  0
 18 42  1  0  0  0  0
M  CHG  1   6   1
M  END
> <s_m_source_file>
AV-unprocessed.smi

> <i_m_source_file_index>
3287

> <i_lp_mmshare_version>
43012

> <i_f3d_flags>
0

> <s_epik_input>
W0NIM11bQ0BASF0xW0NIMl1bQ0gyXVtDQEhdKFtDSDJdW0NASF0xW0NIM10pW05IXVtDSDJdW0NASF0oW09IXSljMltjSF1bY0hdbltjSF1bY0hdMg==

> <s_epik_cmdline>
J2VwaWtfcHl0aG9uJywgJy1waCcsICc3LjAnLCAnLXRuJywgJzgnLCAnLW1hJywgJzIwMCcsICctbWV0YWxfYmluZGluZycsICctaW1hZScsICc8aW5maWxlLm1hZT4nLCAnLW9tYWUnLCAnPG91dGZpbGUubWFlPic=

> <r_lp_tautomer_probability>
1

> <r_epik_Ionization_Penalty>
0.00537262

> <r_epik_Ionization_Penalty_Charging>
0.00321624

> <r_epik_Ionization_Penalty_Neutral>
0.00215638

> <r_epik_State_Penalty>
-0

> <r_epik_Charging_Adjusted_Penalty>
0.00321624

> <i_epik_Tot_Q>
1

> <i_epik_Tot_abs_Q>
1

> <r_epik_Metal_State_Penalty>
-0

> <b_epik_Metal_Only>
0

> <s_lp_Force_Field>
OPLS_2005

> <r_lp_Energy>
18.5341

> <b_lp_Chiralities_Consistent>
1

> <s_lp_Variant>
AV-unprocessed.smi:3287-9

> <Gold.Version>
5.8.1

> <Gold.Id.Protein>
6NUR|6NUR_protein|mol2

> <Gold.PLP.Fitness>
48.2081

> <Gold.PLP.PLP>
-35.7659

> <Gold.PLP.part.hbond>
-3.6542

> <Gold.PLP.part.metal>
0.0000

> <Gold.PLP.part.buried>
-3.5437

> <Gold.PLP.part.nonpolar>
-29.4734

> <Gold.PLP.part.repulsive>
0.1362

> <Gold.PLP.ligand.clash>
0.0000

> <Gold.PLP.ligand.torsion>
0.7771

> <Gold.PLP.Chemscore.Hbond>
3.6500

> <Gold.PLP.Chemscore.CHOScore>
1.0000

> <Gold.PLP.Chemscore.Metal>
0.0000

> <Gold.Chemscore.Hbonds>
donor molecule, donor type, donor heavy atom, donor atom, acceptor molecule, acceptor atom, score
      L1  H     6    43       P1  7948  2.00
      L1  H     9    32       P1  7948  1.00
      P1  H  7954  7966       L1     9  0.55
      L1  C    12    34       P1  8028  0.96

> <Gold.PLP.Chemscore.Internal.Correction>
0.0465

> <Gold.Rescore>
     Score         DG    S(hbond)    S(metal)    S(lipo)     H(rot)  DE(clash)    DE(int)     intcor
     17.16     -17.93       1.95        0.00      92.43       1.90       0.04       0.73       ----

> <Gold.Chemscore.Fitness>
17.1640

> <Gold.Chemscore.DG>
-17.9340

> <Gold.Chemscore.ZeroCoef>
-5.4800

> <Gold.Chemscore.Hbond>
1.9499

> <Gold.Chemscore.Metal>
0.0000

> <Gold.Chemscore.Lipo>
92.4297

> <Gold.Chemscore.Internal_Hbond>
0.0000

> <Gold.Chemscore.DEClash>
0.0361

> <Gold.Chemscore.DEInternal>
0.7340

> <Gold.Chemscore.Rot>
1.9035

> <Gold.Chemscore.Internal.Correction>
   9.000000E+99

> <Gold.Chemscore.Hbonds>
donor molecule, donor type, donor heavy atom, donor atom, acceptor molecule, acceptor atom, score
      L1  H     6    43       P1  7948  0.99
      L1  H     9    32       P1  7948  0.93
      P1  H  7954  7966       L1     9  0.03

> <Gold.Chemscore.Hbond.Weighted>
-6.5126

> <Gold.Chemscore.Metal.Weighted>
-0.0000

> <Gold.Chemscore.Lipo.Weighted>
-10.8143

> <Gold.Chemscore.Internal_Hbond.Weighted>
0.0000

> <Gold.Chemscore.DEClash.Weighted>
0.0361

> <Gold.Chemscore.DEInternal.Weighted>
0.7340

> <Gold.Chemscore.Rot.Weighted>
4.8729

> <Gold.Chemscore.Internal.Correction.Weighted>
   9.000000E+99

> <Gold.Protein.RotatedTorsions>
[ 6907 6896 6895 6894 ] final   21.74 input  -60.11 | X-H torsion
[ 7974 7965 7964 7962 ] final -133.34 input  175.53 | X-H torsion
[ 8008 7997 7996 7995 ] final  -96.05 input   59.86 | X-H torsion
[ 10167 10162 10161 10158 ] final  -44.78 input  -65.29 | X-H torsion
[ 10718 10713 10712 10709 ] final   15.13 input   66.30 | X-H torsion
[ 10763 10752 10751 10750 ] final  114.91 input  -60.55 | X-H torsion
[ 11005 11000 10999 10996 ] final  121.45 input  -57.11 | X-H torsion

> <Gold.Protein.ActiveResidues>
 VAL166  LYS551  ARG553  GLY616  TRP617  ASP618  TYR619  PRO620  LYS621  CYS622 
 ASP623  PHE694  ASN695  SER759  ASP760  ASP761  ALA762  ILE779  LEU786  VAL792 
 PHE793  MET794  SER795  GLU796  ALA797  LYS798  CYS799  TRP800  GLU811  SER814 

> <Gold.Protein.RotatedAtoms>
  151.9165  135.0317  160.0518 H   0  0  0  0  0  0  0  0  0  0  0  0  # atno 6907 bound_to 6896
  152.2236  133.4998  159.5184 H   0  0  0  0  0  0  0  0  0  0  0  0  # atno 6908 bound_to 6896
  150.7006  134.1227  159.4083 H   0  0  0  0  0  0  0  0  0  0  0  0  # atno 6909 bound_to 6896
  144.9202  140.7004  143.4970 H   0  0  0  0  0  0  0  0  0  0  0  0  # atno 7974 bound_to 7965
  154.7693  140.0475  157.1038 H   0  0  0  0  0  0  0  0  0  0  0  0  # atno 8008 bound_to 7997
  154.9840  140.3105  155.4915 H   0  0  0  0  0  0  0  0  0  0  0  0  # atno 8009 bound_to 7997
  156.2918  140.2231  156.4941 H   0  0  0  0  0  0  0  0  0  0  0  0  # atno 8010 bound_to 7997
  140.6883  143.2912  151.3545 H   0  0  0  0  0  0  0  0  0  0  0  0  # atno 10167 bound_to 10162
  157.0490  130.6262  149.5764 H   0  0  0  0  0  0  0  0  0  0  0  0  # atno 10718 bound_to 10713
  153.5143  135.3611  155.2601 H   0  0  0  0  0  0  0  0  0  0  0  0  # atno 10763 bound_to 10752
  154.8740  135.4030  154.3333 H   0  0  0  0  0  0  0  0  0  0  0  0  # atno 10764 bound_to 10752
  153.3992  135.7074  153.6505 H   0  0  0  0  0  0  0  0  0  0  0  0  # atno 10765 bound_to 10752
  139.9226  134.9639  156.7960 H   0  0  0  0  0  0  0  0  0  0  0  0  # atno 11005 bound_to 11000
  145.3309  139.1760  143.4537 LP  0  0  0  0  0  0  0  0  0  0  0  0  # atno 17320 bound_to 7965
  146.3201  140.3338  142.8642 LP  0  0  0  0  0  0  0  0  0  0  0  0  # atno 17321 bound_to 7965
  139.6262  144.0809  152.2436 LP  0  0  0  0  0  0  0  0  0  0  0  0  # atno 17342 bound_to 10162
  140.0269  144.6110  150.7519 LP  0  0  0  0  0  0  0  0  0  0  0  0  # atno 17343 bound_to 10162
  156.0013  130.5093  150.7674 LP  0  0  0  0  0  0  0  0  0  0  0  0  # atno 17370 bound_to 10713
  157.5045  131.0921  151.0274 LP  0  0  0  0  0  0  0  0  0  0  0  0  # atno 17371 bound_to 10713
  140.6428  133.9802  155.7716 LP  0  0  0  0  0  0  0  0  0  0  0  0  # atno 17394 bound_to 11000
  141.0760  134.0134  157.3457 LP  0  0  0  0  0  0  0  0  0  0  0  0  # atno 17395 bound_to 11000

$$$$
