AV-unprocessed.smi:2576|AV-procd|sdf|10118|dock3
  -GOLD-   2272014133D 1   1.00000     0.00000
 Structure written by MMmdl.
 27 28  0  0  0  0  0  0  0  0  1 V2000
  149.0332  141.9983  156.5638 O   0  0  0  0  0  0  0  0  0  0  0  0
  149.7173  140.9414  155.9174 C   0  0  2  0  0  0  0  0  0  0  0  0
  151.2257  141.2591  155.8910 C   0  0  0  0  0  0  0  0  0  0  0  0
  151.8858  140.9488  157.1475 N   0  0  0  0  0  0  0  0  0  0  0  0
  152.4765  139.7310  157.3092 N   0  0  0  0  0  0  0  0  0  0  0  0
  152.9987  139.6762  158.4980 N   0  0  0  0  0  0  0  0  0  0  0  0
  152.7454  140.8807  159.1331 C   0  0  0  0  0  0  0  0  0  0  0  0
  153.0798  141.3555  160.4210 C   0  0  0  0  0  0  0  0  0  0  0  0
  152.6895  142.6503  160.8284 C   0  0  0  0  0  0  0  0  0  0  0  0
  153.1166  143.1954  162.4116 Cl  0  0  0  0  0  0  0  0  0  0  0  0
  151.9589  143.4860  159.9493 C   0  0  0  0  0  0  0  0  0  0  0  0
  151.4714  145.0715  160.4323 Cl  0  0  0  0  0  0  0  0  0  0  0  0
  151.6203  143.0259  158.6612 C   0  0  0  0  0  0  0  0  0  0  0  0
  152.0188  141.7348  158.2756 C   0  0  0  0  0  0  0  0  0  0  0  0
  149.1496  140.7468  154.4968 C   0  0  0  0  0  0  0  0  0  0  0  0
  147.6145  140.8129  154.4030 C   0  0  0  0  0  0  0  0  0  0  0  0
  147.2189  142.0639  154.6351 F   0  0  0  0  0  0  0  0  0  0  0  0
  147.2088  140.4590  153.1837 F   0  0  0  0  0  0  0  0  0  0  0  0
  147.0425  140.0156  155.3049 F   0  0  0  0  0  0  0  0  0  0  0  0
  149.3019  142.8159  156.1722 H   0  0  0  0  0  0  0  0  0  0  0  0
  149.5591  140.0309  156.4963 H   0  0  0  0  0  0  0  0  0  0  0  0
  151.7174  140.6938  155.0978 H   0  0  0  0  0  0  0  0  0  0  0  0
  151.3888  142.3136  155.6646 H   0  0  0  0  0  0  0  0  0  0  0  0
  153.6366  140.7226  161.0964 H   0  0  0  0  0  0  0  0  0  0  0  0
  151.0624  143.6530  157.9814 H   0  0  0  0  0  0  0  0  0  0  0  0
  149.5917  141.4790  153.8197 H   0  0  0  0  0  0  0  0  0  0  0  0
  149.4650  139.7703  154.1265 H   0  0  0  0  0  0  0  0  0  0  0  0
  1  2  1  0  0  0  0
  1 20  1  0  0  0  0
  2  3  1  0  0  0  0
  2 15  1  0  0  0  0
  2 21  1  0  0  0  0
  3  4  1  0  0  0  0
  3 22  1  0  0  0  0
  3 23  1  0  0  0  0
  4 14  1  0  0  0  0
  4  5  1  0  0  0  0
  5  6  2  0  0  0  0
  6  7  1  0  0  0  0
  7 14  2  0  0  0  0
  7  8  1  0  0  0  0
  8  9  2  0  0  0  0
  8 24  1  0  0  0  0
  9 10  1  0  0  0  0
  9 11  1  0  0  0  0
 11 12  1  0  0  0  0
 11 13  2  0  0  0  0
 13 14  1  0  0  0  0
 13 25  1  0  0  0  0
 15 16  1  0  0  0  0
 15 26  1  0  0  0  0
 15 27  1  0  0  0  0
 16 17  1  0  0  0  0
 16 18  1  0  0  0  0
 16 19  1  0  0  0  0
M  END
> <s_m_source_file>
AV-unprocessed.smi

> <i_m_source_file_index>
2576

> <i_lp_mmshare_version>
43012

> <i_f3d_flags>
0

> <s_epik_input>
RkMoRikoRilbQ0gyXVtDQEhdKFtPSF0pW0NIMl1uKG5uMSljKGMxMilbY0hdYyhDbCljKENsKVtjSF0y

> <s_epik_cmdline>
J2VwaWtfcHl0aG9uJywgJy1waCcsICc3LjAnLCAnLXRuJywgJzgnLCAnLW1hJywgJzIwMCcsICctbWV0YWxfYmluZGluZycsICctaW1hZScsICc8aW5maWxlLm1hZT4nLCAnLW9tYWUnLCAnPG91dGZpbGUubWFlPic=

> <r_lp_tautomer_probability>
1

> <r_epik_Ionization_Penalty>
1.57739e-05

> <r_epik_Ionization_Penalty_Charging>
0

> <r_epik_Ionization_Penalty_Neutral>
1.57739e-05

> <r_epik_State_Penalty>
-0

> <r_epik_Charging_Adjusted_Penalty>
0

> <i_epik_Tot_Q>
0

> <i_epik_Tot_abs_Q>
0

> <r_epik_Metal_State_Penalty>
-0

> <b_epik_Metal_Only>
0

> <s_lp_Force_Field>
OPLS_2005

> <r_lp_Energy>
8.87224

> <b_lp_Chiralities_Consistent>
1

> <s_lp_Variant>
AV-unprocessed.smi:2576-1

> <Gold.Version>
5.8.1

> <Gold.Id.Protein>
6NUR|6NUR_protein|mol2

> <Gold.PLP.Fitness>
44.7435

> <Gold.PLP.PLP>
-41.6374

> <Gold.PLP.part.hbond>
-2.5448

> <Gold.PLP.part.metal>
0.0000

> <Gold.PLP.part.buried>
-4.4039

> <Gold.PLP.part.nonpolar>
-33.6631

> <Gold.PLP.part.repulsive>
0.0000

> <Gold.PLP.ligand.clash>
0.0000

> <Gold.PLP.ligand.torsion>
0.7704

> <Gold.PLP.Chemscore.Hbond>
1.5387

> <Gold.PLP.Chemscore.CHOScore>
0.0000

> <Gold.PLP.Chemscore.Metal>
0.0000

> <Gold.Chemscore.Hbonds>
donor molecule, donor type, donor heavy atom, donor atom, acceptor molecule, acceptor atom, score
      L1  H     1    20       P1  8028  0.99
      P1  H  7997  8009       L1     5  0.50

> <Gold.PLP.Chemscore.Internal.Correction>
0.0308

> <Gold.Rescore>
     Score         DG    S(hbond)    S(metal)    S(lipo)     H(rot)  DE(clash)    DE(int)     intcor
     13.33     -15.74       0.95        0.00     108.25       2.18       0.04       2.37       ----

> <Gold.Chemscore.Fitness>
13.3270

> <Gold.Chemscore.DG>
-15.7380

> <Gold.Chemscore.ZeroCoef>
-5.4800

> <Gold.Chemscore.Hbond>
0.9507

> <Gold.Chemscore.Metal>
0.0000

> <Gold.Chemscore.Lipo>
108.2496

> <Gold.Chemscore.Internal_Hbond>
0.0000

> <Gold.Chemscore.DEClash>
0.0413

> <Gold.Chemscore.DEInternal>
2.3697

> <Gold.Chemscore.Rot>
2.1807

> <Gold.Chemscore.Internal.Correction>
   9.000000E+99

> <Gold.Chemscore.Hbonds>
donor molecule, donor type, donor heavy atom, donor atom, acceptor molecule, acceptor atom, score
      L1  H     1    20       P1  8028  0.89
      P1  H  7997  8009       L1     5  0.01

> <Gold.Chemscore.Hbond.Weighted>
-3.1754

> <Gold.Chemscore.Metal.Weighted>
-0.0000

> <Gold.Chemscore.Lipo.Weighted>
-12.6652

> <Gold.Chemscore.Internal_Hbond.Weighted>
0.0000

> <Gold.Chemscore.DEClash.Weighted>
0.0413

> <Gold.Chemscore.DEInternal.Weighted>
2.3697

> <Gold.Chemscore.Rot.Weighted>
5.5826

> <Gold.Chemscore.Internal.Correction.Weighted>
   9.000000E+99

> <Gold.Protein.RotatedTorsions>
[ 6907 6896 6895 6894 ] final   75.90 input  -60.11 | X-H torsion
[ 7974 7965 7964 7962 ] final  133.36 input  175.53 | X-H torsion
[ 8008 7997 7996 7995 ] final -164.76 input   59.86 | X-H torsion
[ 10167 10162 10161 10158 ] final  -86.54 input  -65.29 | X-H torsion
[ 10718 10713 10712 10709 ] final -169.40 input   66.30 | X-H torsion
[ 10763 10752 10751 10750 ] final   15.24 input  -60.55 | X-H torsion
[ 11005 11000 10999 10996 ] final -141.85 input  -57.11 | X-H torsion

> <Gold.Protein.ActiveResidues>
 VAL166  LYS551  ARG553  GLY616  TRP617  ASP618  TYR619  PRO620  LYS621  CYS622 
 ASP623  PHE694  ASN695  SER759  ASP760  ASP761  ALA762  ILE779  LEU786  VAL792 
 PHE793  MET794  SER795  GLU796  ALA797  LYS798  CYS799  TRP800  GLU811  SER814 

> <Gold.Protein.RotatedAtoms>
  152.5048  134.4050  159.9429 H   0  0  0  0  0  0  0  0  0  0  0  0  # atno 6907 bound_to 6896
  151.4016  133.3749  159.2740 H   0  0  0  0  0  0  0  0  0  0  0  0  # atno 6908 bound_to 6896
  150.9357  134.8791  159.7639 H   0  0  0  0  0  0  0  0  0  0  0  0  # atno 6909 bound_to 6896
  144.9873  139.4442  143.5356 H   0  0  0  0  0  0  0  0  0  0  0  0  # atno 7974 bound_to 7965
  155.8402  140.0947  157.1739 H   0  0  0  0  0  0  0  0  0  0  0  0  # atno 8008 bound_to 7997
  154.3982  140.1402  156.3781 H   0  0  0  0  0  0  0  0  0  0  0  0  # atno 8009 bound_to 7997
  155.8072  140.3451  155.5439 H   0  0  0  0  0  0  0  0  0  0  0  0  # atno 8010 bound_to 7997
  140.3932  143.2695  151.9238 H   0  0  0  0  0  0  0  0  0  0  0  0  # atno 10167 bound_to 10162
  156.7110  130.9233  151.3089 H   0  0  0  0  0  0  0  0  0  0  0  0  # atno 10718 bound_to 10713
  153.1545  135.6784  153.8833 H   0  0  0  0  0  0  0  0  0  0  0  0  # atno 10763 bound_to 10752
  153.8249  135.3125  155.3415 H   0  0  0  0  0  0  0  0  0  0  0  0  # atno 10764 bound_to 10752
  154.7887  135.4847  154.0090 H   0  0  0  0  0  0  0  0  0  0  0  0  # atno 10765 bound_to 10752
  140.8283  134.2548  157.4868 H   0  0  0  0  0  0  0  0  0  0  0  0  # atno 11005 bound_to 11000
  146.3423  139.9183  142.8770 LP  0  0  0  0  0  0  0  0  0  0  0  0  # atno 17320 bound_to 7965
  145.2335  140.9982  143.3977 LP  0  0  0  0  0  0  0  0  0  0  0  0  # atno 17321 bound_to 7965
  139.4788  144.5707  151.8092 LP  0  0  0  0  0  0  0  0  0  0  0  0  # atno 17342 bound_to 10162
  140.4818  144.1438  150.5934 LP  0  0  0  0  0  0  0  0  0  0  0  0  # atno 17343 bound_to 10162
  157.6936  130.9259  150.0582 LP  0  0  0  0  0  0  0  0  0  0  0  0  # atno 17370 bound_to 10713
  156.1661  130.3645  149.9230 LP  0  0  0  0  0  0  0  0  0  0  0  0  # atno 17371 bound_to 10713
  139.8706  134.9572  156.4263 LP  0  0  0  0  0  0  0  0  0  0  0  0  # atno 17394 bound_to 11000
  140.9025  133.7769  155.9697 LP  0  0  0  0  0  0  0  0  0  0  0  0  # atno 17395 bound_to 11000

$$$$
