AV-unprocessed.smi:1936|AV-procd|sdf|7829|dock6
  -GOLD-   22720 9573D 1   1.00000     0.00000
 Structure written by MMmdl.
 38 39  0  0  0  0  0  0  0  0  1 V2000
  145.3268  137.7196  154.7727 C   0  0  0  0  0  0  0  0  0  0  0  0
  146.3986  137.7727  153.6761 C   0  0  2  0  0  0  0  0  0  0  0  0
  146.9078  139.2111  153.4409 C   0  0  0  0  0  0  0  0  0  0  0  0
  148.0550  139.6119  154.2588 N   0  0  0  0  0  0  0  0  0  0  0  0
  148.4603  140.9970  154.0319 C   0  0  0  0  0  0  0  0  0  0  0  0
  149.6642  141.3893  154.9057 C   0  0  0  0  0  0  0  0  0  0  0  0
  150.7441  140.4922  154.6665 O   0  0  0  0  0  0  0  0  0  0  0  0
  150.3978  139.1340  154.9174 C   0  0  0  0  0  0  0  0  0  0  0  0
  149.1999  138.7373  154.0376 C   0  0  0  0  0  0  0  0  0  0  0  0
  145.8565  137.2384  152.4293 N   0  0  0  0  0  0  0  0  0  0  0  0
  145.5786  135.9486  152.1838 C   0  0  0  0  0  0  0  0  0  0  0  0
  145.5967  135.0680  153.0433 O   0  0  0  0  0  0  0  0  0  0  0  0
  145.2751  135.5926  150.7291 C   0  0  0  0  0  0  0  0  0  0  0  0
  145.2025  134.1505  150.5636 N   0  0  0  0  0  0  0  0  0  0  0  0
  144.1114  133.3795  150.2169 C   0  0  0  0  0  0  0  0  0  0  0  0
  144.5291  132.0807  150.1671 C   0  0  0  0  0  0  0  0  0  0  0  0
  145.9100  132.1575  150.5018 C   0  0  0  0  0  0  0  0  0  0  0  0
  146.3098  133.3964  150.7389 N   0  0  0  0  0  0  0  0  0  0  0  0
  145.7131  138.1075  155.7156 H   0  0  0  0  0  0  0  0  0  0  0  0
  144.9963  136.6955  154.9487 H   0  0  0  0  0  0  0  0  0  0  0  0
  144.4510  138.3110  154.5031 H   0  0  0  0  0  0  0  0  0  0  0  0
  147.2374  137.1634  154.0153 H   0  0  0  0  0  0  0  0  0  0  0  0
  147.1875  139.2953  152.3898 H   0  0  0  0  0  0  0  0  0  0  0  0
  146.0874  139.9156  153.5864 H   0  0  0  0  0  0  0  0  0  0  0  0
  148.7124  141.1420  152.9803 H   0  0  0  0  0  0  0  0  0  0  0  0
  147.6366  141.6752  154.2533 H   0  0  0  0  0  0  0  0  0  0  0  0
  149.9857  142.4048  154.6742 H   0  0  0  0  0  0  0  0  0  0  0  0
  149.3945  141.3724  155.9626 H   0  0  0  0  0  0  0  0  0  0  0  0
  151.2570  138.5000  154.6983 H   0  0  0  0  0  0  0  0  0  0  0  0
  150.1617  139.0008  155.9743 H   0  0  0  0  0  0  0  0  0  0  0  0
  148.9242  137.7040  154.2514 H   0  0  0  0  0  0  0  0  0  0  0  0
  149.4948  138.7712  152.9875 H   0  0  0  0  0  0  0  0  0  0  0  0
  145.8007  137.8827  151.6541 H   0  0  0  0  0  0  0  0  0  0  0  0
  144.3315  136.0454  150.4198 H   0  0  0  0  0  0  0  0  0  0  0  0
  146.0528  135.9856  150.0728 H   0  0  0  0  0  0  0  0  0  0  0  0
  143.1408  133.8154  150.0299 H   0  0  0  0  0  0  0  0  0  0  0  0
  143.9397  131.2094  149.9239 H   0  0  0  0  0  0  0  0  0  0  0  0
  146.6295  131.3553  150.5770 H   0  0  0  0  0  0  0  0  0  0  0  0
  1  2  1  0  0  0  0
  1 19  1  0  0  0  0
  1 20  1  0  0  0  0
  1 21  1  0  0  0  0
  2  3  1  0  0  0  0
  2 10  1  0  0  0  0
  2 22  1  0  0  0  0
  3  4  1  0  0  0  0
  3 23  1  0  0  0  0
  3 24  1  0  0  0  0
  4  9  1  0  0  0  0
  4  5  1  0  0  0  0
  5  6  1  0  0  0  0
  5 25  1  0  0  0  0
  5 26  1  0  0  0  0
  6  7  1  0  0  0  0
  6 27  1  0  0  0  0
  6 28  1  0  0  0  0
  7  8  1  0  0  0  0
  8  9  1  0  0  0  0
  8 29  1  0  0  0  0
  8 30  1  0  0  0  0
  9 31  1  0  0  0  0
  9 32  1  0  0  0  0
 10 11  1  0  0  0  0
 10 33  1  0  0  0  0
 11 12  2  0  0  0  0
 11 13  1  0  0  0  0
 13 14  1  0  0  0  0
 13 34  1  0  0  0  0
 13 35  1  0  0  0  0
 14 18  1  0  0  0  0
 14 15  1  0  0  0  0
 15 16  2  0  0  0  0
 15 36  1  0  0  0  0
 16 17  1  0  0  0  0
 16 37  1  0  0  0  0
 17 18  2  0  0  0  0
 17 38  1  0  0  0  0
M  END
> <s_m_source_file>
AV-unprocessed.smi

> <i_m_source_file_index>
1936

> <i_lp_mmshare_version>
43012

> <i_f3d_flags>
0

> <s_epik_input>
W0NIMl0xW0NIMl1PW0NIMl1bQ0gyXU4xW0NIMl1bQ0BASF0oW0NIM10pW05IXUMoPU8pW0NIMl1uMltjSF1bY0hdW2NIXW4y

> <s_epik_cmdline>
J2VwaWtfcHl0aG9uJywgJy1waCcsICc3LjAnLCAnLXRuJywgJzgnLCAnLW1hJywgJzIwMCcsICctbWV0YWxfYmluZGluZycsICctaW1hZScsICc8aW5maWxlLm1hZT4nLCAnLW9tYWUnLCAnPG91dGZpbGUubWFlPic=

> <r_lp_tautomer_probability>
1

> <r_epik_Ionization_Penalty>
0.196927

> <r_epik_Ionization_Penalty_Charging>
0

> <r_epik_Ionization_Penalty_Neutral>
0.196927

> <r_epik_State_Penalty>
0.186684

> <r_epik_Charging_Adjusted_Penalty>
0.186684

> <i_epik_Tot_Q>
0

> <i_epik_Tot_abs_Q>
0

> <r_epik_Metal_State_Penalty>
0.186682

> <b_epik_Metal_Only>
0

> <s_lp_Force_Field>
OPLS_2005

> <r_lp_Energy>
24.3888

> <b_lp_Chiralities_Consistent>
1

> <s_lp_Variant>
AV-unprocessed.smi:1936-1

> <Gold.Version>
5.8.1

> <Gold.Id.Protein>
6NUR|6NUR_protein|mol2

> <Gold.PLP.Fitness>
38.3874

> <Gold.PLP.PLP>
-30.6204

> <Gold.PLP.part.hbond>
-1.0000

> <Gold.PLP.part.metal>
0.0000

> <Gold.PLP.part.buried>
-3.9975

> <Gold.PLP.part.nonpolar>
-26.3534

> <Gold.PLP.part.repulsive>
0.5171

> <Gold.PLP.ligand.clash>
0.0000

> <Gold.PLP.ligand.torsion>
0.6349

> <Gold.PLP.Chemscore.Hbond>
1.0000

> <Gold.PLP.Chemscore.CHOScore>
2.0000

> <Gold.PLP.Chemscore.Metal>
0.0000

> <Gold.Chemscore.Hbonds>
donor molecule, donor type, donor heavy atom, donor atom, acceptor molecule, acceptor atom, score
      P1  H  7989  7998       L1     7  0.96
      L1  C    15    36       P1 10186  1.00
      L1  C    17    38       P1 10747  1.00

> <Gold.PLP.Chemscore.Internal.Correction>
0.0368

> <Gold.Rescore>
     Score         DG    S(hbond)    S(metal)    S(lipo)     H(rot)  DE(clash)    DE(int)     intcor
     12.35     -13.92       1.29        0.00      75.81       1.85       0.73       0.84       ----

> <Gold.Chemscore.Fitness>
12.3533

> <Gold.Chemscore.DG>
-13.9222

> <Gold.Chemscore.ZeroCoef>
-5.4800

> <Gold.Chemscore.Hbond>
1.2937

> <Gold.Chemscore.Metal>
0.0000

> <Gold.Chemscore.Lipo>
75.8104

> <Gold.Chemscore.Internal_Hbond>
0.0000

> <Gold.Chemscore.DEClash>
0.7287

> <Gold.Chemscore.DEInternal>
0.8402

> <Gold.Chemscore.Rot>
1.8549

> <Gold.Chemscore.Internal.Correction>
   9.000000E+99

> <Gold.Chemscore.Hbonds>
donor molecule, donor type, donor heavy atom, donor atom, acceptor molecule, acceptor atom, score
      P1  H  7989  7998       L1     7  0.77

> <Gold.Chemscore.Hbond.Weighted>
-4.3209

> <Gold.Chemscore.Metal.Weighted>
-0.0000

> <Gold.Chemscore.Lipo.Weighted>
-8.8698

> <Gold.Chemscore.Internal_Hbond.Weighted>
0.0000

> <Gold.Chemscore.DEClash.Weighted>
0.7287

> <Gold.Chemscore.DEInternal.Weighted>
0.8402

> <Gold.Chemscore.Rot.Weighted>
4.7485

> <Gold.Chemscore.Internal.Correction.Weighted>
   9.000000E+99

> <Gold.Protein.RotatedTorsions>
[ 6907 6896 6895 6894 ] final   45.40 input  -60.11 | X-H torsion
[ 7974 7965 7964 7962 ] final -142.10 input  175.53 | X-H torsion
[ 8008 7997 7996 7995 ] final   88.43 input   59.86 | X-H torsion
[ 10167 10162 10161 10158 ] final -155.48 input  -65.29 | X-H torsion
[ 10718 10713 10712 10709 ] final   60.86 input   66.30 | X-H torsion
[ 10763 10752 10751 10750 ] final  -41.90 input  -60.55 | X-H torsion
[ 11005 11000 10999 10996 ] final -162.12 input  -57.11 | X-H torsion

> <Gold.Protein.ActiveResidues>
 VAL166  LYS551  ARG553  GLY616  TRP617  ASP618  TYR619  PRO620  LYS621  CYS622 
 ASP623  PHE694  ASN695  SER759  ASP760  ASP761  ALA762  ILE779  LEU786  VAL792 
 PHE793  MET794  SER795  GLU796  ALA797  LYS798  CYS799  TRP800  GLU811  SER814 

> <Gold.Protein.RotatedAtoms>
  152.2440  134.8200  160.0455 H   0  0  0  0  0  0  0  0  0  0  0  0  # atno 6907 bound_to 6896
  151.8904  133.3509  159.3804 H   0  0  0  0  0  0  0  0  0  0  0  0  # atno 6908 bound_to 6896
  150.7062  134.4856  159.5535 H   0  0  0  0  0  0  0  0  0  0  0  0  # atno 6909 bound_to 6896
  144.8469  140.6000  143.5415 H   0  0  0  0  0  0  0  0  0  0  0  0  # atno 7974 bound_to 7965
  155.9876  140.3371  155.6722 H   0  0  0  0  0  0  0  0  0  0  0  0  # atno 8008 bound_to 7997
  155.6464  140.0701  157.2619 H   0  0  0  0  0  0  0  0  0  0  0  0  # atno 8009 bound_to 7997
  154.4210  140.1733  156.1615 H   0  0  0  0  0  0  0  0  0  0  0  0  # atno 8010 bound_to 7997
  139.6927  143.9393  152.2393 H   0  0  0  0  0  0  0  0  0  0  0  0  # atno 10167 bound_to 10162
  157.5785  130.8962  149.9389 H   0  0  0  0  0  0  0  0  0  0  0  0  # atno 10718 bound_to 10713
  153.9701  135.6729  153.4747 H   0  0  0  0  0  0  0  0  0  0  0  0  # atno 10763 bound_to 10752
  153.0797  135.4930  154.8473 H   0  0  0  0  0  0  0  0  0  0  0  0  # atno 10764 bound_to 10752
  154.7224  135.3120  154.8987 H   0  0  0  0  0  0  0  0  0  0  0  0  # atno 10765 bound_to 10752
  140.6128  134.4831  157.5217 H   0  0  0  0  0  0  0  0  0  0  0  0  # atno 11005 bound_to 11000
  145.4578  139.1516  143.3883 LP  0  0  0  0  0  0  0  0  0  0  0  0  # atno 17320 bound_to 7965
  146.2752  140.4707  142.8798 LP  0  0  0  0  0  0  0  0  0  0  0  0  # atno 17321 bound_to 7965
  139.9214  144.6797  150.8458 LP  0  0  0  0  0  0  0  0  0  0  0  0  # atno 17342 bound_to 10162
  140.7687  143.3372  151.2283 LP  0  0  0  0  0  0  0  0  0  0  0  0  # atno 17343 bound_to 10162
  156.0830  130.3671  150.0543 LP  0  0  0  0  0  0  0  0  0  0  0  0  # atno 17370 bound_to 10713
  156.8686  130.9516  151.3611 LP  0  0  0  0  0  0  0  0  0  0  0  0  # atno 17371 bound_to 10713
  139.9185  134.8197  156.1287 LP  0  0  0  0  0  0  0  0  0  0  0  0  # atno 17394 bound_to 11000
  141.0796  133.6760  156.2309 LP  0  0  0  0  0  0  0  0  0  0  0  0  # atno 17395 bound_to 11000

$$$$
