AV-unprocessed.smi:109|AV-procd|sdf|1035|dock8
  -GOLD-   2262018 53D 1   1.00000     0.00000
 Structure written by MMmdl.
 58 61  0  0  0  0  0  0  0  0  1 V2000
  149.8077  140.9888  153.4650 O   0  0  0  0  0  0  0  0  0  0  0  0
  149.1117  140.9295  154.6915 C   0  0  0  0  0  0  0  0  0  0  0  0
  150.0987  141.0937  155.8596 C   0  0  0  0  0  0  0  0  0  0  0  0
  149.4418  141.5129  157.1983 C   0  0  2  0  0  0  0  0  0  0  0  0
  148.3921  142.5012  156.9406 N   0  0  0  0  0  0  0  0  0  0  0  0
  147.1204  142.3329  157.3679 C   0  0  0  0  0  0  0  0  0  0  0  0
  146.8443  141.8229  158.5956 N   0  0  0  0  0  0  0  0  0  0  0  0
  145.5762  141.6665  158.9845 C   0  0  0  0  0  0  0  0  0  0  0  0
  144.4579  141.9493  158.3135 N   0  0  0  0  0  0  0  0  0  0  0  0
  144.7249  142.4595  157.0749 C   0  0  0  0  0  0  0  0  0  0  0  0
  146.0242  142.6846  156.5385 C   0  0  0  0  0  0  0  0  0  0  0  0
  145.9216  143.2339  155.2689 N   0  0  0  0  0  0  0  0  0  0  0  0
  144.6352  143.3368  155.0742 C   0  0  0  0  0  0  0  0  0  0  0  0
  143.8353  142.8602  156.0927 N   0  0  0  0  0  0  0  0  0  0  0  0
  142.3307  142.8769  156.1635 C   0  0  2  0  0  0  0  0  0  0  0  0
  141.8328  143.5726  155.0625 O   0  0  0  0  0  0  0  0  0  0  0  0
  141.7000  144.9461  155.4021 C   0  0  1  0  0  0  0  0  0  0  0  0
  140.8622  145.7028  154.3579 C   0  0  0  0  0  0  0  0  0  0  0  0
  141.2363  145.2939  153.0598 O   0  0  0  0  0  0  0  0  0  0  0  0
  141.0939  144.8463  156.8070 C   0  0  1  0  0  0  0  0  0  0  0  0
  139.6927  144.6315  156.7369 O   0  0  0  0  0  0  0  0  0  0  0  0
  141.8484  143.6566  157.4077 C   0  0  1  0  0  0  0  0  0  0  0  0
  141.0506  142.8753  158.2768 O   0  0  0  0  0  0  0  0  0  0  0  0
  150.4531  142.0963  158.2280 C   0  0  0  0  0  0  0  0  0  0  0  0
  151.0708  143.4472  157.7856 C   0  0  0  0  0  0  0  0  0  0  0  0
  152.0887  143.9887  158.8034 C   0  0  0  0  0  0  0  0  0  0  0  0
  153.2017  142.9719  159.0826 C   0  0  0  0  0  0  0  0  0  0  0  0
  152.6082  141.6360  159.5444 C   0  0  0  0  0  0  0  0  0  0  0  0
  151.5990  141.0933  158.5208 C   0  0  0  0  0  0  0  0  0  0  0  0
  142.0455  141.8243  156.1399 H   0  0  0  0  0  0  0  0  0  0  0  0
  142.6920  145.3965  155.4825 H   0  0  0  0  0  0  0  0  0  0  0  0
  141.2654  145.7585  157.3794 H   0  0  0  0  0  0  0  0  0  0  0  0
  142.7016  144.0360  157.9700 H   0  0  0  0  0  0  0  0  0  0  0  0
  149.5931  140.2191  152.9606 H   0  0  0  0  0  0  0  0  0  0  0  0
  148.3552  141.7141  154.6979 H   0  0  0  0  0  0  0  0  0  0  0  0
  148.5942  139.9722  154.7575 H   0  0  0  0  0  0  0  0  0  0  0  0
  150.6003  140.1350  155.9776 H   0  0  0  0  0  0  0  0  0  0  0  0
  150.8721  141.8141  155.5894 H   0  0  0  0  0  0  0  0  0  0  0  0
  149.0179  140.6184  157.6550 H   0  0  0  0  0  0  0  0  0  0  0  0
  148.7077  143.3620  156.5173 H   0  0  0  0  0  0  0  0  0  0  0  0
  145.4374  141.2544  159.9730 H   0  0  0  0  0  0  0  0  0  0  0  0
  144.2327  143.7665  154.1682 H   0  0  0  0  0  0  0  0  0  0  0  0
  139.7941  145.5453  154.5107 H   0  0  0  0  0  0  0  0  0  0  0  0
  141.0492  146.7746  154.4303 H   0  0  0  0  0  0  0  0  0  0  0  0
  140.4962  144.8646  152.6575 H   0  0  0  0  0  0  0  0  0  0  0  0
  139.3715  145.0176  155.9360 H   0  0  0  0  0  0  0  0  0  0  0  0
  141.2489  141.9642  158.1215 H   0  0  0  0  0  0  0  0  0  0  0  0
  149.9156  142.2714  159.1616 H   0  0  0  0  0  0  0  0  0  0  0  0
  151.5513  143.3321  156.8130 H   0  0  0  0  0  0  0  0  0  0  0  0
  150.3010  144.2072  157.6645 H   0  0  0  0  0  0  0  0  0  0  0  0
  152.5215  144.9195  158.4355 H   0  0  0  0  0  0  0  0  0  0  0  0
  151.5765  144.2338  159.7348 H   0  0  0  0  0  0  0  0  0  0  0  0
  153.7955  142.8193  158.1805 H   0  0  0  0  0  0  0  0  0  0  0  0
  153.8815  143.3608  159.8412 H   0  0  0  0  0  0  0  0  0  0  0  0
  153.4068  140.9099  159.6992 H   0  0  0  0  0  0  0  0  0  0  0  0
  152.1160  141.7662  160.5092 H   0  0  0  0  0  0  0  0  0  0  0  0
  151.2034  140.1515  158.9013 H   0  0  0  0  0  0  0  0  0  0  0  0
  152.1193  140.8514  157.5931 H   0  0  0  0  0  0  0  0  0  0  0  0
  1  2  1  0  0  0  0
  1 34  1  0  0  0  0
  2  3  1  0  0  0  0
  2 35  1  0  0  0  0
  2 36  1  0  0  0  0
  3  4  1  0  0  0  0
  3 37  1  0  0  0  0
  3 38  1  0  0  0  0
  4  5  1  0  0  0  0
  4 24  1  0  0  0  0
  4 39  1  0  0  0  0
  5  6  1  0  0  0  0
  5 40  1  0  0  0  0
  6 11  1  0  0  0  0
  6  7  2  0  0  0  0
  7  8  1  0  0  0  0
  8  9  2  0  0  0  0
  8 41  1  0  0  0  0
  9 10  1  0  0  0  0
 10 14  1  0  0  0  0
 10 11  2  0  0  0  0
 11 12  1  0  0  0  0
 12 13  2  0  0  0  0
 13 14  1  0  0  0  0
 13 42  1  0  0  0  0
 14 15  1  0  0  0  0
 15 30  1  0  0  0  0
 15 22  1  0  0  0  0
 15 16  1  0  0  0  0
 16 17  1  0  0  0  0
 17 31  1  0  0  0  0
 17 18  1  0  0  0  0
 17 20  1  0  0  0  0
 18 19  1  0  0  0  0
 18 43  1  0  0  0  0
 18 44  1  0  0  0  0
 19 45  1  0  0  0  0
 20 32  1  0  0  0  0
 20 21  1  0  0  0  0
 20 22  1  0  0  0  0
 21 46  1  0  0  0  0
 22 33  1  0  0  0  0
 22 23  1  0  0  0  0
 23 47  1  0  0  0  0
 24 29  1  0  0  0  0
 24 25  1  0  0  0  0
 24 48  1  0  0  0  0
 25 26  1  0  0  0  0
 25 49  1  0  0  0  0
 25 50  1  0  0  0  0
 26 27  1  0  0  0  0
 26 51  1  0  0  0  0
 26 52  1  0  0  0  0
 27 28  1  0  0  0  0
 27 53  1  0  0  0  0
 27 54  1  0  0  0  0
 28 29  1  0  0  0  0
 28 55  1  0  0  0  0
 28 56  1  0  0  0  0
 29 57  1  0  0  0  0
 29 58  1  0  0  0  0
M  END
> <s_m_source_file>
AV-unprocessed.smi

> <i_m_source_file_index>
109

> <i_lp_mmshare_version>
43012

> <i_f3d_flags>
0

> <s_epik_input>
W0NIMl0xW0NIMl1bQ0gyXVtDSDJdW0NIMl1bQ0hdMVtDQEhdKFtDSDJdW0NIMl1bT0hdKVtOSF1jKG5bY0hdbjIpYyhjMjMpbltjSF1uM1tDQEBIXTRPW0NASF0oW0NIMl1bT0hdKVtDQEBIXShbT0hdKVtDQEhdNFtPSF0=

> <s_epik_cmdline>
J2VwaWtfcHl0aG9uJywgJy1waCcsICc3LjAnLCAnLXRuJywgJzgnLCAnLW1hJywgJzIwMCcsICctbWV0YWxfYmluZGluZycsICctaW1hZScsICc8aW5maWxlLm1hZT4nLCAnLW9tYWUnLCAnPG91dGZpbGUubWFlPic=

> <r_lp_tautomer_probability>
1

> <r_epik_Ionization_Penalty>
0.000793976

> <r_epik_Ionization_Penalty_Charging>
0

> <r_epik_Ionization_Penalty_Neutral>
0.000793976

> <r_epik_State_Penalty>
-0

> <r_epik_Charging_Adjusted_Penalty>
0

> <i_epik_Tot_Q>
0

> <i_epik_Tot_abs_Q>
0

> <r_epik_Metal_State_Penalty>
-0

> <b_epik_Metal_Only>
0

> <s_epik_Chemistry_Notes>
This compound contains an acetal/aminal-like group ( X-CH(R)-Y where X, Y are N, S, or O) that may be acid/base labile, releasing an aldehyde.

> <s_lp_Force_Field>
OPLS_2005

> <r_lp_Energy>
57.9127

> <b_lp_Chiralities_Consistent>
1

> <s_lp_Variant>
AV-unprocessed.smi:109-5

> <Gold.Version>
5.8.1

> <Gold.Id.Protein>
6NUR|6NUR_protein|mol2

> <Gold.PLP.Fitness>
50.2046

> <Gold.PLP.PLP>
-39.5661

> <Gold.PLP.part.hbond>
-6.3369

> <Gold.PLP.part.metal>
0.0000

> <Gold.PLP.part.buried>
-4.8551

> <Gold.PLP.part.nonpolar>
-29.5555

> <Gold.PLP.part.repulsive>
0.3936

> <Gold.PLP.ligand.clash>
0.0000

> <Gold.PLP.ligand.torsion>
0.9400

> <Gold.PLP.Chemscore.Hbond>
3.7440

> <Gold.PLP.Chemscore.CHOScore>
0.3949

> <Gold.PLP.Chemscore.Metal>
0.0000

> <Gold.Chemscore.Hbonds>
donor molecule, donor type, donor heavy atom, donor atom, acceptor molecule, acceptor atom, score
      L1  H     1    34       P1  7957  0.54
      L1  H     5    40       P1  8028  1.00
      L1  H    19    45       P1 10162  0.94
      P1  H  7989  7998       L1     1  0.26
      P1  H  8011  8017       L1     1  1.00
      L1  C    13    42       P1 10174  0.17

> <Gold.PLP.Chemscore.Internal.Correction>
0.1016

> <Gold.Rescore>
     Score         DG    S(hbond)    S(metal)    S(lipo)     H(rot)  DE(clash)    DE(int)     intcor
      8.64     -11.44       2.67        0.00      94.35       5.47       1.63       1.17       ----

> <Gold.Chemscore.Fitness>
8.6393

> <Gold.Chemscore.DG>
-11.4391

> <Gold.Chemscore.ZeroCoef>
-5.4800

> <Gold.Chemscore.Hbond>
2.6686

> <Gold.Chemscore.Metal>
0.0000

> <Gold.Chemscore.Lipo>
94.3531

> <Gold.Chemscore.Internal_Hbond>
0.0000

> <Gold.Chemscore.DEClash>
1.6303

> <Gold.Chemscore.DEInternal>
1.1695

> <Gold.Chemscore.Rot>
5.4662

> <Gold.Chemscore.Internal.Correction>
   9.000000E+99

> <Gold.Chemscore.Hbonds>
donor molecule, donor type, donor heavy atom, donor atom, acceptor molecule, acceptor atom, score
      L1  H     1    34       P1  7957  0.54
      L1  H     5    40       P1  8028  0.81
      L1  H    19    45       P1 10162  0.27
      P1  H  7989  7998       L1     1  0.08
      P1  H  8011  8017       L1     1  0.63

> <Gold.Chemscore.Hbond.Weighted>
-8.9133

> <Gold.Chemscore.Metal.Weighted>
-0.0000

> <Gold.Chemscore.Lipo.Weighted>
-11.0393

> <Gold.Chemscore.Internal_Hbond.Weighted>
0.0000

> <Gold.Chemscore.DEClash.Weighted>
1.6303

> <Gold.Chemscore.DEInternal.Weighted>
1.1695

> <Gold.Chemscore.Rot.Weighted>
13.9935

> <Gold.Chemscore.Internal.Correction.Weighted>
   9.000000E+99

> <Gold.Protein.RotatedTorsions>
[ 6907 6896 6895 6894 ] final -155.86 input  -60.11 | X-H torsion
[ 7974 7965 7964 7962 ] final  -36.83 input  175.53 | X-H torsion
[ 8008 7997 7996 7995 ] final   45.50 input   59.86 | X-H torsion
[ 10167 10162 10161 10158 ] final   16.14 input  -65.29 | X-H torsion
[ 10718 10713 10712 10709 ] final  -39.76 input   66.30 | X-H torsion
[ 10763 10752 10751 10750 ] final   23.84 input  -60.55 | X-H torsion
[ 11005 11000 10999 10996 ] final  -29.70 input  -57.11 | X-H torsion

> <Gold.Protein.ActiveResidues>
 VAL166  LYS551  ARG553  GLY616  TRP617  ASP618  TYR619  PRO620  LYS621  CYS622 
 ASP623  PHE694  ASN695  SER759  ASP760  ASP761  ALA762  ILE779  LEU786  VAL792 
 PHE793  MET794  SER795  GLU796  ALA797  LYS798  CYS799  TRP800  GLU811  SER814 

> <Gold.Protein.RotatedAtoms>
  151.2789  133.4219  159.2625 H   0  0  0  0  0  0  0  0  0  0  0  0  # atno 6907 bound_to 6896
  151.0379  134.9586  159.8156 H   0  0  0  0  0  0  0  0  0  0  0  0  # atno 6908 bound_to 6896
  152.5359  134.2748  159.9037 H   0  0  0  0  0  0  0  0  0  0  0  0  # atno 6909 bound_to 6896
  146.0628  140.6325  142.8989 H   0  0  0  0  0  0  0  0  0  0  0  0  # atno 7974 bound_to 7965
  155.3370  140.3406  155.4239 H   0  0  0  0  0  0  0  0  0  0  0  0  # atno 8008 bound_to 7997
  156.1833  140.1671  156.8270 H   0  0  0  0  0  0  0  0  0  0  0  0  # atno 8009 bound_to 7997
  154.5357  140.0735  156.8407 H   0  0  0  0  0  0  0  0  0  0  0  0  # atno 8010 bound_to 7997
  140.5818  143.8966  150.6796 H   0  0  0  0  0  0  0  0  0  0  0  0  # atno 10167 bound_to 10162
  156.2889  130.4226  149.8259 H   0  0  0  0  0  0  0  0  0  0  0  0  # atno 10718 bound_to 10713
  153.0808  135.6618  154.0049 H   0  0  0  0  0  0  0  0  0  0  0  0  # atno 10763 bound_to 10752
  153.9671  135.2968  155.3431 H   0  0  0  0  0  0  0  0  0  0  0  0  # atno 10764 bound_to 10752
  154.7207  135.5166  153.8879 H   0  0  0  0  0  0  0  0  0  0  0  0  # atno 10765 bound_to 10752
  140.9319  133.7333  156.0948 H   0  0  0  0  0  0  0  0  0  0  0  0  # atno 11005 bound_to 11000
  144.7184  140.4291  143.7026 LP  0  0  0  0  0  0  0  0  0  0  0  0  # atno 17320 bound_to 7965
  145.6531  139.1568  143.2851 LP  0  0  0  0  0  0  0  0  0  0  0  0  # atno 17321 bound_to 7965
  140.2467  143.3623  152.1440 LP  0  0  0  0  0  0  0  0  0  0  0  0  # atno 17342 bound_to 10162
  139.5174  144.6991  151.5545 LP  0  0  0  0  0  0  0  0  0  0  0  0  # atno 17343 bound_to 10162
  156.5679  130.8412  151.3348 LP  0  0  0  0  0  0  0  0  0  0  0  0  # atno 17370 bound_to 10713
  157.7337  130.9734  150.1989 LP  0  0  0  0  0  0  0  0  0  0  0  0  # atno 17371 bound_to 10713
  140.7851  134.3681  157.5478 LP  0  0  0  0  0  0  0  0  0  0  0  0  # atno 17394 bound_to 11000
  139.8798  134.9106  156.3017 LP  0  0  0  0  0  0  0  0  0  0  0  0  # atno 17395 bound_to 11000

$$$$
