AV-unprocessed.smi:1047|AV-procd|sdf|4581|dock3
  -GOLD-   22720 3 43D 1   1.00000     0.00000
 Structure written by MMmdl.
 58 60  0  0  0  0  0  0  0  0  4 V2000
  145.7819  131.9137  151.4567 C   0  0  0  0  0  0  0  0  0  0  0  0
  146.8277  132.8469  152.0825 C   0  0  0  0  0  0  0  0  0  0  0  0
  147.8670  132.1040  152.8440 N   0  3  2  0  0  0  0  0  0  0  0  0
  147.3313  131.3692  154.0156 C   0  0  0  0  0  0  0  0  0  0  0  0
  147.0757  132.3200  155.1983 C   0  0  0  0  0  0  0  0  0  0  0  0
  148.2801  133.0047  155.5234 O   0  0  0  0  0  0  0  0  0  0  0  0
  148.7544  133.8166  154.4535 C   0  0  1  0  0  0  0  0  0  0  0  0
  150.0154  134.5507  154.9361 C   0  0  0  0  0  0  0  0  0  0  0  0
  149.8576  136.0161  154.8374 N   0  3  0  0  0  0  0  0  0  0  0  0
  150.9509  136.7839  155.4671 C   0  0  0  0  0  0  0  0  0  0  0  0
  150.6706  138.2979  155.4210 C   0  0  2  0  0  0  0  0  0  0  0  0
  151.1886  138.8214  154.2150 O   0  0  0  0  0  0  0  0  0  0  0  0
  151.3022  139.0935  156.5814 C   0  0  0  0  0  0  0  0  0  0  0  0
  150.9089  140.5097  156.5940 N   0  0  0  0  0  0  0  0  0  0  0  0
  150.1369  141.2006  155.7110 C   0  0  0  0  0  0  0  0  0  0  0  0
  150.0687  142.4894  156.1444 N   0  3  0  0  0  0  0  0  0  0  0  0
  150.8120  142.6266  157.3183 C   0  0  0  0  0  0  0  0  0  0  0  0
  151.0420  143.7351  158.1240 C   0  0  0  0  0  0  0  0  0  0  0  0
  151.8530  143.5461  159.2654 C   0  0  0  0  0  0  0  0  0  0  0  0
  152.1254  144.7386  160.1669 C   0  0  0  0  0  0  0  0  0  0  0  0
  152.4049  142.2740  159.5661 C   0  0  0  0  0  0  0  0  0  0  0  0
  153.2753  142.0819  160.7965 C   0  0  0  0  0  0  0  0  0  0  0  0
  152.1605  141.1588  158.7328 C   0  0  0  0  0  0  0  0  0  0  0  0
  151.3578  141.3613  157.6118 C   0  0  0  0  0  0  0  0  0  0  0  0
  149.0515  132.9111  153.2364 C   0  0  0  0  0  0  0  0  0  0  0  0
  144.9879  132.4921  150.9842 H   0  0  0  0  0  0  0  0  0  0  0  0
  145.3199  131.2770  152.2120 H   0  0  0  0  0  0  0  0  0  0  0  0
  146.2107  131.2697  150.6897 H   0  0  0  0  0  0  0  0  0  0  0  0
  147.2791  133.4799  151.3188 H   0  0  0  0  0  0  0  0  0  0  0  0
  146.3021  133.5188  152.7622 H   0  0  0  0  0  0  0  0  0  0  0  0
  146.4238  130.8254  153.7502 H   0  0  0  0  0  0  0  0  0  0  0  0
  148.0624  130.6158  154.3118 H   0  0  0  0  0  0  0  0  0  0  0  0
  146.2827  133.0340  154.9704 H   0  0  0  0  0  0  0  0  0  0  0  0
  146.7486  131.7521  156.0693 H   0  0  0  0  0  0  0  0  0  0  0  0
  147.9968  134.5572  154.1925 H   0  0  0  0  0  0  0  0  0  0  0  0
  150.2446  134.2743  155.9663 H   0  0  0  0  0  0  0  0  0  0  0  0
  150.8694  134.2531  154.3261 H   0  0  0  0  0  0  0  0  0  0  0  0
  149.8132  136.2752  153.8617 H   0  0  0  0  0  0  0  0  0  0  0  0
  151.0401  136.4487  156.5007 H   0  0  0  0  0  0  0  0  0  0  0  0
  151.8964  136.5560  154.9725 H   0  0  0  0  0  0  0  0  0  0  0  0
  149.5923  138.4646  155.4241 H   0  0  0  0  0  0  0  0  0  0  0  0
  151.9405  138.3093  153.9573 H   0  0  0  0  0  0  0  0  0  0  0  0
  151.0669  138.6434  157.5459 H   0  0  0  0  0  0  0  0  0  0  0  0
  152.3897  139.0706  156.4957 H   0  0  0  0  0  0  0  0  0  0  0  0
  149.6656  140.8005  154.8245 H   0  0  0  0  0  0  0  0  0  0  0  0
  150.6200  144.7014  157.8880 H   0  0  0  0  0  0  0  0  0  0  0  0
  153.1922  144.9629  160.1907 H   0  0  0  0  0  0  0  0  0  0  0  0
  151.7905  144.5365  161.1848 H   0  0  0  0  0  0  0  0  0  0  0  0
  151.6051  145.6307  159.8166 H   0  0  0  0  0  0  0  0  0  0  0  0
  153.6334  141.0551  160.8769 H   0  0  0  0  0  0  0  0  0  0  0  0
  152.7131  142.3096  161.7025 H   0  0  0  0  0  0  0  0  0  0  0  0
  154.1466  142.7356  160.7556 H   0  0  0  0  0  0  0  0  0  0  0  0
  152.5834  140.1932  158.9659 H   0  0  0  0  0  0  0  0  0  0  0  0
  149.8560  132.2193  153.4907 H   0  0  0  0  0  0  0  0  0  0  0  0
  149.4176  133.5005  152.3968 H   0  0  0  0  0  0  0  0  0  0  0  0
  148.9870  136.2775  155.2780 H   0  0  0  0  0  0  0  0  0  0  0  0
  148.1996  131.3950  152.2053 H   0  0  0  0  0  0  0  0  0  0  0  0
  149.5560  143.2213  155.6688 H   0  0  0  0  0  0  0  0  0  0  0  0
  1  2  1  0  0  0  0
  1 26  1  0  0  0  0
  1 27  1  0  0  0  0
  1 28  1  0  0  0  0
  2  3  1  0  0  0  0
  2 29  1  0  0  0  0
  2 30  1  0  0  0  0
  3 25  1  0  0  0  0
  3  4  1  0  0  0  0
  3 57  1  0  0  0  0
  4  5  1  0  0  0  0
  4 31  1  0  0  0  0
  4 32  1  0  0  0  0
  5  6  1  0  0  0  0
  5 33  1  0  0  0  0
  5 34  1  0  0  0  0
  6  7  1  0  0  0  0
  7  8  1  0  0  0  0
  7 25  1  0  0  0  0
  7 35  1  0  0  0  0
  8  9  1  0  0  0  0
  8 36  1  0  0  0  0
  8 37  1  0  0  0  0
  9 10  1  0  0  0  0
  9 38  1  0  0  0  0
  9 56  1  0  0  0  0
 10 11  1  0  0  0  0
 10 39  1  0  0  0  0
 10 40  1  0  0  0  0
 11 12  1  0  0  0  0
 11 13  1  0  0  0  0
 11 41  1  0  0  0  0
 12 42  1  0  0  0  0
 13 14  1  0  0  0  0
 13 43  1  0  0  0  0
 13 44  1  0  0  0  0
 14 24  1  0  0  0  0
 14 15  1  0  0  0  0
 15 16  2  0  0  0  0
 15 45  1  0  0  0  0
 16 17  1  0  0  0  0
 16 58  1  0  0  0  0
 17 24  2  0  0  0  0
 17 18  1  0  0  0  0
 18 19  2  0  0  0  0
 18 46  1  0  0  0  0
 19 20  1  0  0  0  0
 19 21  1  0  0  0  0
 20 47  1  0  0  0  0
 20 48  1  0  0  0  0
 20 49  1  0  0  0  0
 21 22  1  0  0  0  0
 21 23  2  0  0  0  0
 22 50  1  0  0  0  0
 22 51  1  0  0  0  0
 22 52  1  0  0  0  0
 23 24  1  0  0  0  0
 23 53  1  0  0  0  0
 25 54  1  0  0  0  0
 25 55  1  0  0  0  0
M  CHG  1   3   1
M  CHG  1   9   1
M  CHG  1  16   1
M  END
> <s_m_source_file>
AV-unprocessed.smi

> <i_m_source_file_index>
1047

> <i_lp_mmshare_version>
43012

> <i_f3d_flags>
0

> <s_epik_input>
W0NIM11bQ0gyXU4xW0NIMl1bQ0gyXU9bQ0BIXShbQ0gyXTEpW0NIMl1bTkhdW0NIMl1bQ0BIXShbT0hdKVtDSDJdbihbY0hdbjIpYyhjMjMpW2NIXWMoW0NIM10pYyhbY0hdMylbQ0gzXQ==

> <s_epik_cmdline>
J2VwaWtfcHl0aG9uJywgJy1waCcsICc3LjAnLCAnLXRuJywgJzgnLCAnLW1hJywgJzIwMCcsICctbWV0YWxfYmluZGluZycsICctaW1hZScsICc8aW5maWxlLm1hZT4nLCAnLW9tYWUnLCAnPG91dGZpbGUubWFlPic=

> <r_epik_Ionization_Penalty>
1.6114

> <r_epik_Ionization_Penalty_Charging>
1.61139

> <r_epik_Ionization_Penalty_Neutral>
5.04732e-06

> <r_epik_State_Penalty>
1.63724

> <r_epik_Charging_Adjusted_Penalty>
3.24864

> <i_epik_Tot_Q>
3

> <i_epik_Tot_abs_Q>
3

> <r_epik_Metal_State_Penalty>
5.64594

> <b_epik_Metal_Only>
0

> <s_lp_Force_Field>
OPLS_2005

> <r_lp_Energy>
44.3097

> <b_lp_Chiralities_Consistent>
1

> <s_lp_Variant>
AV-unprocessed.smi:1047-22

> <Gold.Version>
5.8.1

> <Gold.Id.Protein>
6NUR|6NUR_protein|mol2

> <Gold.PLP.Fitness>
65.7763

> <Gold.PLP.PLP>
-49.8759

> <Gold.PLP.part.hbond>
-3.9107

> <Gold.PLP.part.metal>
0.0000

> <Gold.PLP.part.buried>
-5.2511

> <Gold.PLP.part.nonpolar>
-41.6370

> <Gold.PLP.part.repulsive>
0.1904

> <Gold.PLP.ligand.clash>
0.0000

> <Gold.PLP.ligand.torsion>
1.1878

> <Gold.PLP.Chemscore.Hbond>
6.0000

> <Gold.PLP.Chemscore.CHOScore>
0.0000

> <Gold.PLP.Chemscore.Metal>
0.0000

> <Gold.Chemscore.Hbonds>
donor molecule, donor type, donor heavy atom, donor atom, acceptor molecule, acceptor atom, score
      L1  H     3    57       P1 10747  0.73
      L1  H     9    38       P1  7948  1.46
      L1  H    16    58       P1  8028  2.00
      P1  H  7989  7998       L1    12  0.57

> <Gold.PLP.Chemscore.Internal.Correction>
0.2760

> <Gold.Rescore>
     Score         DG    S(hbond)    S(metal)    S(lipo)     H(rot)  DE(clash)    DE(int)     intcor
     22.36     -24.22       3.13        0.00     131.69       2.78       0.70       1.17       ----

> <Gold.Chemscore.Fitness>
22.3552

> <Gold.Chemscore.DG>
-24.2236

> <Gold.Chemscore.ZeroCoef>
-5.4800

> <Gold.Chemscore.Hbond>
3.1334

> <Gold.Chemscore.Metal>
0.0000

> <Gold.Chemscore.Lipo>
131.6852

> <Gold.Chemscore.Internal_Hbond>
0.0000

> <Gold.Chemscore.DEClash>
0.7034

> <Gold.Chemscore.DEInternal>
1.1651

> <Gold.Chemscore.Rot>
2.7848

> <Gold.Chemscore.Internal.Correction>
   9.000000E+99

> <Gold.Chemscore.Hbonds>
donor molecule, donor type, donor heavy atom, donor atom, acceptor molecule, acceptor atom, score
      L1  H     3    57       P1 10747  0.69
      L1  H     9    38       P1  7948  0.25
      L1  H    16    58       P1  8028  0.95
      P1  H  7989  7998       L1    12  0.26

> <Gold.Chemscore.Hbond.Weighted>
-10.4656

> <Gold.Chemscore.Metal.Weighted>
-0.0000

> <Gold.Chemscore.Lipo.Weighted>
-15.4072

> <Gold.Chemscore.Internal_Hbond.Weighted>
0.0000

> <Gold.Chemscore.DEClash.Weighted>
0.7034

> <Gold.Chemscore.DEInternal.Weighted>
1.1651

> <Gold.Chemscore.Rot.Weighted>
7.1291

> <Gold.Chemscore.Internal.Correction.Weighted>
   9.000000E+99

> <Gold.Protein.RotatedTorsions>
[ 6907 6896 6895 6894 ] final -128.28 input  -60.11 | X-H torsion
[ 7974 7965 7964 7962 ] final   -9.05 input  175.53 | X-H torsion
[ 8008 7997 7996 7995 ] final  176.57 input   59.86 | X-H torsion
[ 10167 10162 10161 10158 ] final  -68.86 input  -65.29 | X-H torsion
[ 10718 10713 10712 10709 ] final  -12.59 input   66.30 | X-H torsion
[ 10763 10752 10751 10750 ] final   81.92 input  -60.55 | X-H torsion
[ 11005 11000 10999 10996 ] final  177.97 input  -57.11 | X-H torsion

> <Gold.Protein.ActiveResidues>
 VAL166  LYS551  ARG553  GLY616  TRP617  ASP618  TYR619  PRO620  LYS621  CYS622 
 ASP623  PHE694  ASN695  SER759  ASP760  ASP761  ALA762  ILE779  LEU786  VAL792 
 PHE793  MET794  SER795  GLU796  ALA797  LYS798  CYS799  TRP800  GLU811  SER814 

> <Gold.Protein.RotatedAtoms>
  150.9162  133.6936  159.2842 H   0  0  0  0  0  0  0  0  0  0  0  0  # atno 6907 bound_to 6896
  151.4407  135.1018  159.9679 H   0  0  0  0  0  0  0  0  0  0  0  0  # atno 6908 bound_to 6896
  152.4956  133.8571  159.7286 H   0  0  0  0  0  0  0  0  0  0  0  0  # atno 6909 bound_to 6896
  146.2263  140.2558  142.8349 H   0  0  0  0  0  0  0  0  0  0  0  0  # atno 7974 bound_to 7965
  156.0750  140.1380  156.9782 H   0  0  0  0  0  0  0  0  0  0  0  0  # atno 8008 bound_to 7997
  154.4553  140.0964  156.6788 H   0  0  0  0  0  0  0  0  0  0  0  0  # atno 8009 bound_to 7997
  155.5167  140.3455  155.4401 H   0  0  0  0  0  0  0  0  0  0  0  0  # atno 8010 bound_to 7997
  140.5475  143.2312  151.6973 H   0  0  0  0  0  0  0  0  0  0  0  0  # atno 10167 bound_to 10162
  156.6424  130.4932  149.6090 H   0  0  0  0  0  0  0  0  0  0  0  0  # atno 10718 bound_to 10713
  153.1158  135.4747  154.9112 H   0  0  0  0  0  0  0  0  0  0  0  0  # atno 10763 bound_to 10752
  154.7526  135.3110  154.8531 H   0  0  0  0  0  0  0  0  0  0  0  0  # atno 10764 bound_to 10752
  153.9108  135.6865  153.4804 H   0  0  0  0  0  0  0  0  0  0  0  0  # atno 10765 bound_to 10752
  140.3900  134.6870  157.4502 H   0  0  0  0  0  0  0  0  0  0  0  0  # atno 11005 bound_to 11000
  144.9377  140.8044  143.5650 LP  0  0  0  0  0  0  0  0  0  0  0  0  # atno 17320 bound_to 7965
  145.2507  139.2033  143.4944 LP  0  0  0  0  0  0  0  0  0  0  0  0  # atno 17321 bound_to 7965
  139.5013  144.3871  152.0318 LP  0  0  0  0  0  0  0  0  0  0  0  0  # atno 17342 bound_to 10162
  140.2985  144.3674  150.6067 LP  0  0  0  0  0  0  0  0  0  0  0  0  # atno 17343 bound_to 10162
  156.2148  130.6701  151.1308 LP  0  0  0  0  0  0  0  0  0  0  0  0  # atno 17370 bound_to 10713
  157.7167  131.0706  150.6300 LP  0  0  0  0  0  0  0  0  0  0  0  0  # atno 17371 bound_to 10713
  140.0414  134.6262  155.8976 LP  0  0  0  0  0  0  0  0  0  0  0  0  # atno 17394 bound_to 11000
  141.1894  133.6565  156.5366 LP  0  0  0  0  0  0  0  0  0  0  0  0  # atno 17395 bound_to 11000

$$$$
