AV-unprocessed.smi:663|AV-procd|sdf|3249|dock9
  -GOLD-   22720 0203D 1   1.00000     0.00000
 Structure written by MMmdl.
 29 30  0  0  0  0  0  0  0  0  2 V2000
  150.1318  139.5018  156.2604 N   0  0  0  0  0  0  0  0  0  0  0  0
  150.7709  140.4415  155.5596 C   0  0  0  0  0  0  0  0  0  0  0  0
  151.2841  140.2065  154.4674 O   0  0  0  0  0  0  0  0  0  0  0  0
  150.8506  141.8401  156.1820 C   0  0  0  0  0  0  0  0  0  0  0  0
  151.5892  141.8898  157.5424 C   0  0  2  0  0  0  0  0  0  0  0  0
  151.1683  140.7538  158.3603 N   0  0  0  0  0  0  0  0  0  0  0  0
  151.9104  139.6856  158.6882 C   0  0  0  0  0  0  0  0  0  0  0  0
  153.0722  139.5930  158.2851 O   0  0  0  0  0  0  0  0  0  0  0  0
  151.2572  138.7890  159.4623 N   0  5  0  0  0  0  0  0  0  0  0  0
  151.9428  138.0111  160.3161 C   0  0  0  0  0  0  0  0  0  0  0  0
  151.9280  136.6706  160.2363 N   0  0  0  0  0  0  0  0  0  0  0  0
  152.6949  136.0566  161.2173 N   0  0  0  0  0  0  0  0  0  0  0  0
  153.2649  136.9541  162.0209 C   0  0  0  0  0  0  0  0  0  0  0  0
  152.9150  138.6301  161.6540 S   0  0  0  0  0  0  0  0  0  0  0  0
  151.3717  143.2105  158.2659 C   0  0  0  0  0  0  0  0  0  0  0  0
  152.1940  144.4409  157.9570 C   0  0  0  0  0  0  0  0  0  0  0  0
  152.3796  143.7161  159.2702 C   0  0  0  0  0  0  0  0  0  0  0  0
  150.0550  138.5660  155.8893 H   0  0  0  0  0  0  0  0  0  0  0  0
  149.7285  139.7298  157.1574 H   0  0  0  0  0  0  0  0  0  0  0  0
  151.3210  142.5327  155.4821 H   0  0  0  0  0  0  0  0  0  0  0  0
  149.8239  142.1872  156.3052 H   0  0  0  0  0  0  0  0  0  0  0  0
  152.6626  141.7948  157.3653 H   0  0  0  0  0  0  0  0  0  0  0  0
  150.2242  140.7804  158.7161 H   0  0  0  0  0  0  0  0  0  0  0  0
  153.8929  136.6271  162.8362 H   0  0  0  0  0  0  0  0  0  0  0  0
  150.3294  143.3936  158.5216 H   0  0  0  0  0  0  0  0  0  0  0  0
  152.9933  144.3531  157.2239 H   0  0  0  0  0  0  0  0  0  0  0  0
  151.6843  145.4019  157.9781 H   0  0  0  0  0  0  0  0  0  0  0  0
  151.9952  144.1940  160.1690 H   0  0  0  0  0  0  0  0  0  0  0  0
  153.2943  143.1415  159.4016 H   0  0  0  0  0  0  0  0  0  0  0  0
  1  2  1  0  0  0  0
  1 18  1  0  0  0  0
  1 19  1  0  0  0  0
  2  3  2  0  0  0  0
  2  4  1  0  0  0  0
  4  5  1  0  0  0  0
  4 20  1  0  0  0  0
  4 21  1  0  0  0  0
  5  6  1  0  0  0  0
  5 15  1  0  0  0  0
  5 22  1  0  0  0  0
  6  7  1  0  0  0  0
  6 23  1  0  0  0  0
  7  8  2  0  0  0  0
  7  9  1  0  0  0  0
  9 10  1  0  0  0  0
 10 14  1  0  0  0  0
 10 11  2  0  0  0  0
 11 12  1  0  0  0  0
 12 13  2  0  0  0  0
 13 14  1  0  0  0  0
 13 24  1  0  0  0  0
 15 17  1  0  0  0  0
 15 16  1  0  0  0  0
 15 25  1  0  0  0  0
 16 17  1  0  0  0  0
 16 26  1  0  0  0  0
 16 27  1  0  0  0  0
 17 28  1  0  0  0  0
 17 29  1  0  0  0  0
M  CHG  1   9  -1
M  END
> <s_m_source_file>
AV-unprocessed.smi

> <i_m_source_file_index>
663

> <i_lp_mmshare_version>
43012

> <i_f3d_flags>
0

> <s_epik_input>
W05IMl1DKD1PKVtDSDJdW0NAQEhdKFtDSF0xW0NIMl1bQ0gyXTEpW05IXUMoPU8pW05IXWMybm5bY0hdczI=

> <s_epik_cmdline>
J2VwaWtfcHl0aG9uJywgJy1waCcsICc3LjAnLCAnLXRuJywgJzgnLCAnLW1hJywgJzIwMCcsICctbWV0YWxfYmluZGluZycsICctaW1hZScsICc8aW5maWxlLm1hZT4nLCAnLW9tYWUnLCAnPG91dGZpbGUubWFlPic=

> <r_lp_tautomer_probability>
1

> <r_epik_Ionization_Penalty>
4.41895

> <r_epik_Ionization_Penalty_Charging>
4.37725

> <r_epik_Ionization_Penalty_Neutral>
0.0416999

> <r_epik_State_Penalty>
4.37688

> <r_epik_Charging_Adjusted_Penalty>
8.75413

> <i_epik_Tot_Q>
-1

> <i_epik_Tot_abs_Q>
1

> <r_epik_Metal_State_Penalty>
0.761195

> <b_epik_Metal_Only>
1

> <s_lp_Force_Field>
OPLS_2005

> <r_lp_Energy>
9.70165

> <b_lp_Chiralities_Consistent>
1

> <s_lp_Variant>
AV-unprocessed.smi:663-3

> <Gold.Version>
5.8.1

> <Gold.Id.Protein>
6NUR|6NUR_protein|mol2

> <Gold.PLP.Fitness>
36.3864

> <Gold.PLP.PLP>
-29.3214

> <Gold.PLP.part.hbond>
-3.5349

> <Gold.PLP.part.metal>
0.0000

> <Gold.PLP.part.buried>
-4.0808

> <Gold.PLP.part.nonpolar>
-22.2464

> <Gold.PLP.part.repulsive>
0.2303

> <Gold.PLP.ligand.clash>
0.0000

> <Gold.PLP.ligand.torsion>
1.4417

> <Gold.PLP.Chemscore.Hbond>
2.9424

> <Gold.PLP.Chemscore.CHOScore>
0.0000

> <Gold.PLP.Chemscore.Metal>
0.0000

> <Gold.Chemscore.Hbonds>
donor molecule, donor type, donor heavy atom, donor atom, acceptor molecule, acceptor atom, score
      P1  H  7989  7998       L1     3  0.23
      P1  H  7997  8010       L1     8  0.91

> <Gold.PLP.Chemscore.Internal.Correction>
1.1212

> <Gold.Rescore>
     Score         DG    S(hbond)    S(metal)    S(lipo)     H(rot)  DE(clash)    DE(int)     intcor
     13.04     -15.58       2.93        0.00      57.12       2.49       0.02       2.51       ----

> <Gold.Chemscore.Fitness>
13.0431

> <Gold.Chemscore.DG>
-15.5767

> <Gold.Chemscore.ZeroCoef>
-5.4800

> <Gold.Chemscore.Hbond>
2.9278

> <Gold.Chemscore.Metal>
0.0000

> <Gold.Chemscore.Lipo>
57.1168

> <Gold.Chemscore.Internal_Hbond>
0.0000

> <Gold.Chemscore.DEClash>
0.0232

> <Gold.Chemscore.DEInternal>
2.5104

> <Gold.Chemscore.Rot>
2.4863

> <Gold.Chemscore.Internal.Correction>
   9.000000E+99

> <Gold.Chemscore.Hbonds>
donor molecule, donor type, donor heavy atom, donor atom, acceptor molecule, acceptor atom, score
      P1  H  7989  7998       L1     3  0.23
      P1  H  7997  8010       L1     8  0.87

> <Gold.Chemscore.Hbond.Weighted>
-9.7789

> <Gold.Chemscore.Metal.Weighted>
-0.0000

> <Gold.Chemscore.Lipo.Weighted>
-6.6827

> <Gold.Chemscore.Internal_Hbond.Weighted>
0.0000

> <Gold.Chemscore.DEClash.Weighted>
0.0232

> <Gold.Chemscore.DEInternal.Weighted>
2.5104

> <Gold.Chemscore.Rot.Weighted>
6.3648

> <Gold.Chemscore.Internal.Correction.Weighted>
   9.000000E+99

> <Gold.Protein.RotatedTorsions>
[ 6907 6896 6895 6894 ] final -110.31 input  -60.11 | X-H torsion
[ 7974 7965 7964 7962 ] final -124.26 input  175.53 | X-H torsion
[ 8008 7997 7996 7995 ] final   20.94 input   59.86 | X-H torsion
[ 10167 10162 10161 10158 ] final  -86.64 input  -65.29 | X-H torsion
[ 10718 10713 10712 10709 ] final   25.38 input   66.30 | X-H torsion
[ 10763 10752 10751 10750 ] final  -57.36 input  -60.55 | X-H torsion
[ 11005 11000 10999 10996 ] final -145.61 input  -57.11 | X-H torsion

> <Gold.Protein.ActiveResidues>
 VAL166  LYS551  ARG553  GLY616  TRP617  ASP618  TYR619  PRO620  LYS621  CYS622 
 ASP623  PHE694  ASN695  SER759  ASP760  ASP761  ALA762  ILE779  LEU786  VAL792 
 PHE793  MET794  SER795  GLU796  ALA797  LYS798  CYS799  TRP800  GLU811  SER814 

> <Gold.Protein.RotatedAtoms>
  150.7617  133.9401  159.3453 H   0  0  0  0  0  0  0  0  0  0  0  0  # atno 6907 bound_to 6896
  151.7308  135.0873  160.0309 H   0  0  0  0  0  0  0  0  0  0  0  0  # atno 6908 bound_to 6896
  152.3591  133.6236  159.6037 H   0  0  0  0  0  0  0  0  0  0  0  0  # atno 6909 bound_to 6896
  145.0100  140.7897  143.4444 H   0  0  0  0  0  0  0  0  0  0  0  0  # atno 7974 bound_to 7965
  154.9431  140.3055  155.5111 H   0  0  0  0  0  0  0  0  0  0  0  0  # atno 8008 bound_to 7997
  156.2994  140.2332  156.4439 H   0  0  0  0  0  0  0  0  0  0  0  0  # atno 8009 bound_to 7997
  154.8126  140.0427  157.1342 H   0  0  0  0  0  0  0  0  0  0  0  0  # atno 8010 bound_to 7997
  140.3922  143.2699  151.9250 H   0  0  0  0  0  0  0  0  0  0  0  0  # atno 10167 bound_to 10162
  157.1926  130.6853  149.6156 H   0  0  0  0  0  0  0  0  0  0  0  0  # atno 10718 bound_to 10713
  154.2212  135.6377  153.5145 H   0  0  0  0  0  0  0  0  0  0  0  0  # atno 10763 bound_to 10752
  152.9968  135.5497  154.6112 H   0  0  0  0  0  0  0  0  0  0  0  0  # atno 10764 bound_to 10752
  154.5572  135.2906  155.0927 H   0  0  0  0  0  0  0  0  0  0  0  0  # atno 10765 bound_to 10752
  140.7905  134.2974  157.5015 H   0  0  0  0  0  0  0  0  0  0  0  0  # atno 11005 bound_to 11000
  145.2036  139.2239  143.5180 LP  0  0  0  0  0  0  0  0  0  0  0  0  # atno 17320 bound_to 7965
  146.3468  140.1859  142.8589 LP  0  0  0  0  0  0  0  0  0  0  0  0  # atno 17321 bound_to 7965
  139.4788  144.5716  151.8079 LP  0  0  0  0  0  0  0  0  0  0  0  0  # atno 17342 bound_to 10162
  140.4828  144.1425  150.5935 LP  0  0  0  0  0  0  0  0  0  0  0  0  # atno 17343 bound_to 10162
  155.9710  130.4609  150.6091 LP  0  0  0  0  0  0  0  0  0  0  0  0  # atno 17370 bound_to 10713
  157.3845  131.0786  151.1448 LP  0  0  0  0  0  0  0  0  0  0  0  0  # atno 17371 bound_to 10713
  139.8732  134.9371  156.3679 LP  0  0  0  0  0  0  0  0  0  0  0  0  # atno 17394 bound_to 11000
  140.9394  133.7524  156.0127 LP  0  0  0  0  0  0  0  0  0  0  0  0  # atno 17395 bound_to 11000

$$$$
