AV-unprocessed.smi:2764|AV-procd|sdf|10641|dock3
  -GOLD-   2272015 93D 1   1.00000     0.00000
 Structure written by MMmdl.
 47 49  0  0  0  0  0  0  0  0  2 V2000
  149.2625  139.6409  156.8088 O   0  0  0  0  0  0  0  0  0  0  0  0
  148.8771  140.6767  156.2660 C   0  0  0  0  0  0  0  0  0  0  0  0
  149.3072  141.9165  156.5598 N   0  0  0  0  0  0  0  0  0  0  0  0
  150.2481  142.3063  157.5502 C   0  0  0  0  0  0  0  0  0  0  0  0
  151.1360  141.2882  157.9666 C   0  0  0  0  0  0  0  0  0  0  0  0
  152.1110  141.5750  158.9418 C   0  0  0  0  0  0  0  0  0  0  0  0
  152.1702  142.8742  159.4766 C   0  0  0  0  0  0  0  0  0  0  0  0
  153.0900  143.1967  160.4165 F   0  0  0  0  0  0  0  0  0  0  0  0
  151.2491  143.8299  159.0094 C   0  0  0  0  0  0  0  0  0  0  0  0
  150.3150  143.5565  158.0738 N   0  0  0  0  0  0  0  0  0  0  0  0
  147.9564  140.6975  155.2905 N   0  0  0  0  0  0  0  0  0  0  0  0
  147.2696  139.5210  154.7649 C   0  0  2  0  0  0  0  0  0  0  0  0
  147.0717  139.6274  153.2423 C   0  0  0  0  0  0  0  0  0  0  0  0
  146.2744  138.4277  152.7026 C   0  0  0  0  0  0  0  0  0  0  0  0
  144.9647  138.2936  153.3929 N   0  3  1  0  0  0  0  0  0  0  0  0
  144.1144  137.2239  152.8076 C   0  0  0  0  0  0  0  0  0  0  0  0
  142.9535  136.8262  153.7397 C   0  0  1  0  0  0  0  0  0  0  0  0
  141.6062  137.3413  153.2728 C   0  0  0  0  0  0  0  0  0  0  0  0
  140.6368  136.4634  154.0576 C   0  0  0  0  0  0  0  0  0  0  0  0
  141.3009  135.2159  154.2324 O   0  0  0  0  0  0  0  0  0  0  0  0
  142.6625  135.3269  153.8311 C   0  0  0  0  0  0  0  0  0  0  0  0
  145.1362  138.1607  154.8641 C   0  0  0  0  0  0  0  0  0  0  0  0
  145.9022  139.3600  155.4464 C   0  0  0  0  0  0  0  0  0  0  0  0
  148.9030  142.6715  156.0256 H   0  0  0  0  0  0  0  0  0  0  0  0
  151.0762  140.2954  157.5445 H   0  0  0  0  0  0  0  0  0  0  0  0
  152.7999  140.8117  159.2724 H   0  0  0  0  0  0  0  0  0  0  0  0
  151.2615  144.8385  159.3951 H   0  0  0  0  0  0  0  0  0  0  0  0
  147.6997  141.5913  154.8974 H   0  0  0  0  0  0  0  0  0  0  0  0
  147.8666  138.6338  154.9853 H   0  0  0  0  0  0  0  0  0  0  0  0
  146.5462  140.5522  152.9990 H   0  0  0  0  0  0  0  0  0  0  0  0
  148.0373  139.6796  152.7377 H   0  0  0  0  0  0  0  0  0  0  0  0
  146.1139  138.5625  151.6321 H   0  0  0  0  0  0  0  0  0  0  0  0
  146.8483  137.5077  152.8258 H   0  0  0  0  0  0  0  0  0  0  0  0
  143.6735  137.5838  151.8766 H   0  0  0  0  0  0  0  0  0  0  0  0
  144.7160  136.3571  152.5299 H   0  0  0  0  0  0  0  0  0  0  0  0
  143.1384  137.2161  154.7422 H   0  0  0  0  0  0  0  0  0  0  0  0
  141.4625  138.4050  153.4643 H   0  0  0  0  0  0  0  0  0  0  0  0
  141.4812  137.1678  152.2029 H   0  0  0  0  0  0  0  0  0  0  0  0
  140.4430  136.8937  155.0407 H   0  0  0  0  0  0  0  0  0  0  0  0
  139.6815  136.3392  153.5471 H   0  0  0  0  0  0  0  0  0  0  0  0
  142.7703  134.8508  152.8554 H   0  0  0  0  0  0  0  0  0  0  0  0
  143.3199  134.8153  154.5343 H   0  0  0  0  0  0  0  0  0  0  0  0
  144.1661  138.0866  155.3531 H   0  0  0  0  0  0  0  0  0  0  0  0
  145.6701  137.2351  155.0863 H   0  0  0  0  0  0  0  0  0  0  0  0
  146.0331  139.2260  156.5208 H   0  0  0  0  0  0  0  0  0  0  0  0
  145.3097  140.2673  155.3172 H   0  0  0  0  0  0  0  0  0  0  0  0
  144.4774  139.1632  153.2300 H   0  0  0  0  0  0  0  0  0  0  0  0
  1  2  2  0  0  0  0
  2  3  1  0  0  0  0
  2 11  1  0  0  0  0
  3  4  1  0  0  0  0
  3 24  1  0  0  0  0
  4 10  1  0  0  0  0
  4  5  2  0  0  0  0
  5  6  1  0  0  0  0
  5 25  1  0  0  0  0
  6  7  2  0  0  0  0
  6 26  1  0  0  0  0
  7  8  1  0  0  0  0
  7  9  1  0  0  0  0
  9 10  2  0  0  0  0
  9 27  1  0  0  0  0
 11 12  1  0  0  0  0
 11 28  1  0  0  0  0
 12 23  1  0  0  0  0
 12 13  1  0  0  0  0
 12 29  1  0  0  0  0
 13 14  1  0  0  0  0
 13 30  1  0  0  0  0
 13 31  1  0  0  0  0
 14 15  1  0  0  0  0
 14 32  1  0  0  0  0
 14 33  1  0  0  0  0
 15 16  1  0  0  0  0
 15 22  1  0  0  0  0
 15 47  1  0  0  0  0
 16 17  1  0  0  0  0
 16 34  1  0  0  0  0
 16 35  1  0  0  0  0
 17 21  1  0  0  0  0
 17 18  1  0  0  0  0
 17 36  1  0  0  0  0
 18 19  1  0  0  0  0
 18 37  1  0  0  0  0
 18 38  1  0  0  0  0
 19 20  1  0  0  0  0
 19 39  1  0  0  0  0
 19 40  1  0  0  0  0
 20 21  1  0  0  0  0
 21 41  1  0  0  0  0
 21 42  1  0  0  0  0
 22 23  1  0  0  0  0
 22 43  1  0  0  0  0
 22 44  1  0  0  0  0
 23 45  1  0  0  0  0
 23 46  1  0  0  0  0
M  CHG  1  15   1
M  END
> <s_m_source_file>
AV-unprocessed.smi

> <i_m_source_file_index>
2764

> <i_lp_mmshare_version>
43012

> <i_f3d_flags>
0

> <s_epik_input>
bjFbY0hdYyhGKVtjSF1bY0hdYzFbTkhdQyg9TylbTkhdW0NIXTJbQ0gyXVtDSDJdTihbQ0gyXVtDSDJdMilbQ0gyXVtDQEBIXTNbQ0gyXVtDSDJdT1tDSDJdMw==

> <s_epik_cmdline>
J2VwaWtfcHl0aG9uJywgJy1waCcsICc3LjAnLCAnLXRuJywgJzgnLCAnLW1hJywgJzIwMCcsICctbWV0YWxfYmluZGluZycsICctaW1hZScsICc8aW5maWxlLm1hZT4nLCAnLW9tYWUnLCAnPG91dGZpbGUubWFlPic=

> <r_epik_Ionization_Penalty>
0.0075076

> <r_epik_Ionization_Penalty_Charging>
0.00747775

> <r_epik_Ionization_Penalty_Neutral>
2.98483e-05

> <r_epik_State_Penalty>
0.00558817

> <r_epik_Charging_Adjusted_Penalty>
0.0130659

> <i_epik_Tot_Q>
1

> <i_epik_Tot_abs_Q>
1

> <r_epik_Metal_State_Penalty>
-0

> <b_epik_Metal_Only>
0

> <s_lp_Force_Field>
OPLS_2005

> <r_lp_Energy>
37.3143

> <b_lp_Chiralities_Consistent>
1

> <s_lp_Variant>
AV-unprocessed.smi:2764-2

> <Gold.Version>
5.8.1

> <Gold.Id.Protein>
6NUR|6NUR_protein|mol2

> <Gold.PLP.Fitness>
43.6881

> <Gold.PLP.PLP>
-34.9470

> <Gold.PLP.part.hbond>
-3.0000

> <Gold.PLP.part.metal>
0.0000

> <Gold.PLP.part.buried>
-6.3255

> <Gold.PLP.part.nonpolar>
-27.1945

> <Gold.PLP.part.repulsive>
1.3277

> <Gold.PLP.ligand.clash>
0.0000

> <Gold.PLP.ligand.torsion>
1.2276

> <Gold.PLP.Chemscore.Hbond>
3.7176

> <Gold.PLP.Chemscore.CHOScore>
0.0000

> <Gold.PLP.Chemscore.Metal>
0.0000

> <Gold.Chemscore.Hbonds>
donor molecule, donor type, donor heavy atom, donor atom, acceptor molecule, acceptor atom, score
      L1  H     3    24       P1  8028  0.83
      L1  H    15    47       P1 10175  2.00
      P1  H 11000 11005       L1    20  0.88

> <Gold.PLP.Chemscore.Internal.Correction>
0.0436

> <Gold.Rescore>
     Score         DG    S(hbond)    S(metal)    S(lipo)     H(rot)  DE(clash)    DE(int)     intcor
     16.37     -19.37       2.63        0.00      76.23       1.49       0.34       2.67       ----

> <Gold.Chemscore.Fitness>
16.3684

> <Gold.Chemscore.DG>
-19.3709

> <Gold.Chemscore.ZeroCoef>
-5.4800

> <Gold.Chemscore.Hbond>
2.6298

> <Gold.Chemscore.Metal>
0.0000

> <Gold.Chemscore.Lipo>
76.2343

> <Gold.Chemscore.Internal_Hbond>
0.0000

> <Gold.Chemscore.DEClash>
0.3355

> <Gold.Chemscore.DEInternal>
2.6670

> <Gold.Chemscore.Rot>
1.4891

> <Gold.Chemscore.Internal.Correction>
   9.000000E+99

> <Gold.Chemscore.Hbonds>
donor molecule, donor type, donor heavy atom, donor atom, acceptor molecule, acceptor atom, score
      L1  H     3    24       P1  8028  0.78
      L1  H    15    47       P1 10175  1.00
      P1  H 11000 11005       L1    20  0.42

> <Gold.Chemscore.Hbond.Weighted>
-8.7836

> <Gold.Chemscore.Metal.Weighted>
-0.0000

> <Gold.Chemscore.Lipo.Weighted>
-8.9194

> <Gold.Chemscore.Internal_Hbond.Weighted>
0.0000

> <Gold.Chemscore.DEClash.Weighted>
0.3355

> <Gold.Chemscore.DEInternal.Weighted>
2.6670

> <Gold.Chemscore.Rot.Weighted>
3.8121

> <Gold.Chemscore.Internal.Correction.Weighted>
   9.000000E+99

> <Gold.Protein.RotatedTorsions>
[ 6907 6896 6895 6894 ] final -133.69 input  -60.11 | X-H torsion
[ 7974 7965 7964 7962 ] final   -0.31 input  175.53 | X-H torsion
[ 8008 7997 7996 7995 ] final   66.04 input   59.86 | X-H torsion
[ 10167 10162 10161 10158 ] final  171.45 input  -65.29 | X-H torsion
[ 10718 10713 10712 10709 ] final  134.77 input   66.30 | X-H torsion
[ 10763 10752 10751 10750 ] final  174.11 input  -60.55 | X-H torsion
[ 11005 11000 10999 10996 ] final   31.32 input  -57.11 | X-H torsion

> <Gold.Protein.ActiveResidues>
 VAL166  LYS551  ARG553  GLY616  TRP617  ASP618  TYR619  PRO620  LYS621  CYS622 
 ASP623  PHE694  ASN695  SER759  ASP760  ASP761  ALA762  ILE779  LEU786  VAL792 
 PHE793  MET794  SER795  GLU796  ALA797  LYS798  CYS799  TRP800  GLU811  SER814 

> <Gold.Protein.RotatedAtoms>
  150.9770  133.6285  159.2728 H   0  0  0  0  0  0  0  0  0  0  0  0  # atno 6907 bound_to 6896
  151.3554  135.0892  159.9426 H   0  0  0  0  0  0  0  0  0  0  0  0  # atno 6908 bound_to 6896
  152.5202  133.9354  159.7655 H   0  0  0  0  0  0  0  0  0  0  0  0  # atno 6909 bound_to 6896
  146.2428  140.1250  142.8339 H   0  0  0  0  0  0  0  0  0  0  0  0  # atno 7974 bound_to 7965
  155.6711  140.3497  155.4819 H   0  0  0  0  0  0  0  0  0  0  0  0  # atno 8008 bound_to 7997
  155.9687  140.1151  157.0854 H   0  0  0  0  0  0  0  0  0  0  0  0  # atno 8009 bound_to 7997
  154.4161  140.1161  156.5263 H   0  0  0  0  0  0  0  0  0  0  0  0  # atno 8010 bound_to 7997
  139.5047  144.3484  151.9948 H   0  0  0  0  0  0  0  0  0  0  0  0  # atno 10167 bound_to 10162
  157.4638  131.1075  150.9887 H   0  0  0  0  0  0  0  0  0  0  0  0  # atno 10718 bound_to 10713
  154.4494  135.2764  155.1792 H   0  0  0  0  0  0  0  0  0  0  0  0  # atno 10763 bound_to 10752
  154.3625  135.6126  153.5701 H   0  0  0  0  0  0  0  0  0  0  0  0  # atno 10764 bound_to 10752
  152.9846  135.5838  154.4836 H   0  0  0  0  0  0  0  0  0  0  0  0  # atno 10765 bound_to 10752
  140.2851  134.2928  155.7790 H   0  0  0  0  0  0  0  0  0  0  0  0  # atno 11005 bound_to 11000
  145.0374  140.8919  143.5073 LP  0  0  0  0  0  0  0  0  0  0  0  0  # atno 17320 bound_to 7965
  145.1325  139.2623  143.5532 LP  0  0  0  0  0  0  0  0  0  0  0  0  # atno 17321 bound_to 7965
  140.2921  144.3742  150.6085 LP  0  0  0  0  0  0  0  0  0  0  0  0  # atno 17342 bound_to 10162
  140.5938  143.2167  151.7202 LP  0  0  0  0  0  0  0  0  0  0  0  0  # atno 17343 bound_to 10162
  157.0675  130.5850  149.5396 LP  0  0  0  0  0  0  0  0  0  0  0  0  # atno 17370 bound_to 10713
  156.0041  130.5125  150.7768 LP  0  0  0  0  0  0  0  0  0  0  0  0  # atno 17371 bound_to 10713
  141.2156  133.7550  156.9540 LP  0  0  0  0  0  0  0  0  0  0  0  0  # atno 17394 bound_to 11000
  140.1247  134.9394  157.2253 LP  0  0  0  0  0  0  0  0  0  0  0  0  # atno 17395 bound_to 11000

$$$$
