AV-unprocessed.smi:1802|AV-procd|sdf|7272|dock1
  -GOLD-   22720 8533D 1   1.00000     0.00000
 Structure written by MMmdl.
 41 42  0  0  0  0  0  0  0  0  2 V2000
  145.9352  132.1473  149.6120 C   0  0  0  0  0  0  0  0  0  0  0  0
  145.5144  132.3759  151.0744 C   0  0  1  0  0  0  0  0  0  0  0  0
  144.9994  131.0945  151.7564 C   0  0  0  0  0  0  0  0  0  0  0  0
  146.1528  130.1360  152.0866 C   0  0  0  0  0  0  0  0  0  0  0  0
  147.2490  130.8476  152.8954 C   0  0  0  0  0  0  0  0  0  0  0  0
  147.7423  132.0530  152.1811 N   0  3  2  0  0  0  0  0  0  0  0  0
  148.9092  132.6750  152.8559 C   0  0  0  0  0  0  0  0  0  0  0  0
  148.7035  132.7928  154.3753 C   0  0  0  0  0  0  0  0  0  0  0  0
  149.8594  133.5361  155.0657 C   0  0  0  0  0  0  0  0  0  0  0  0
  149.3705  134.5249  156.0201 N   0  0  0  0  0  0  0  0  0  0  0  0
  149.3047  134.3398  157.3469 C   0  0  0  0  0  0  0  0  0  0  0  0
  149.6648  133.3014  157.9026 O   0  0  0  0  0  0  0  0  0  0  0  0
  148.8069  135.4233  157.9687 N   0  0  0  0  0  0  0  0  0  0  0  0
  148.5886  135.6161  159.3588 C   0  0  0  0  0  0  0  0  0  0  0  0
  148.7551  136.7933  159.9819 N   0  0  0  0  0  0  0  0  0  0  0  0
  148.4738  136.7073  161.3393 N   0  0  0  0  0  0  0  0  0  0  0  0
  148.1064  135.4705  161.6861 C   0  0  0  0  0  0  0  0  0  0  0  0
  148.0712  134.2888  160.3889 S   0  0  0  0  0  0  0  0  0  0  0  0
  146.6417  133.0170  151.9092 C   0  0  0  0  0  0  0  0  0  0  0  0
  146.7816  131.4653  149.5325 H   0  0  0  0  0  0  0  0  0  0  0  0
  146.2248  133.0859  149.1387 H   0  0  0  0  0  0  0  0  0  0  0  0
  145.1152  131.7271  149.0290 H   0  0  0  0  0  0  0  0  0  0  0  0
  144.6848  133.0837  151.0473 H   0  0  0  0  0  0  0  0  0  0  0  0
  144.4849  131.3620  152.6803 H   0  0  0  0  0  0  0  0  0  0  0  0
  144.2594  130.5963  151.1290 H   0  0  0  0  0  0  0  0  0  0  0  0
  145.7739  129.2808  152.6474 H   0  0  0  0  0  0  0  0  0  0  0  0
  146.5772  129.7325  151.1666 H   0  0  0  0  0  0  0  0  0  0  0  0
  146.8705  131.1333  153.8783 H   0  0  0  0  0  0  0  0  0  0  0  0
  148.0729  130.1523  153.0617 H   0  0  0  0  0  0  0  0  0  0  0  0
  149.8181  132.1171  152.6252 H   0  0  0  0  0  0  0  0  0  0  0  0
  149.0578  133.6811  152.4610 H   0  0  0  0  0  0  0  0  0  0  0  0
  147.7660  133.3171  154.5650 H   0  0  0  0  0  0  0  0  0  0  0  0
  148.6003  131.8053  154.8245 H   0  0  0  0  0  0  0  0  0  0  0  0
  150.4890  132.8266  155.6034 H   0  0  0  0  0  0  0  0  0  0  0  0
  150.5001  134.0204  154.3266 H   0  0  0  0  0  0  0  0  0  0  0  0
  149.0527  135.4063  155.6435 H   0  0  0  0  0  0  0  0  0  0  0  0
  148.5579  136.2045  157.3801 H   0  0  0  0  0  0  0  0  0  0  0  0
  147.8552  135.2526  162.7133 H   0  0  0  0  0  0  0  0  0  0  0  0
  147.0209  133.8959  151.3881 H   0  0  0  0  0  0  0  0  0  0  0  0
  146.2394  133.3726  152.8593 H   0  0  0  0  0  0  0  0  0  0  0  0
  148.0755  131.7270  151.2849 H   0  0  0  0  0  0  0  0  0  0  0  0
  1  2  1  0  0  0  0
  1 20  1  0  0  0  0
  1 21  1  0  0  0  0
  1 22  1  0  0  0  0
  2 19  1  0  0  0  0
  2  3  1  0  0  0  0
  2 23  1  0  0  0  0
  3  4  1  0  0  0  0
  3 24  1  0  0  0  0
  3 25  1  0  0  0  0
  4  5  1  0  0  0  0
  4 26  1  0  0  0  0
  4 27  1  0  0  0  0
  5  6  1  0  0  0  0
  5 28  1  0  0  0  0
  5 29  1  0  0  0  0
  6  7  1  0  0  0  0
  6 19  1  0  0  0  0
  6 41  1  0  0  0  0
  7  8  1  0  0  0  0
  7 30  1  0  0  0  0
  7 31  1  0  0  0  0
  8  9  1  0  0  0  0
  8 32  1  0  0  0  0
  8 33  1  0  0  0  0
  9 10  1  0  0  0  0
  9 34  1  0  0  0  0
  9 35  1  0  0  0  0
 10 11  1  0  0  0  0
 10 36  1  0  0  0  0
 11 12  2  0  0  0  0
 11 13  1  0  0  0  0
 13 14  1  0  0  0  0
 13 37  1  0  0  0  0
 14 18  1  0  0  0  0
 14 15  2  0  0  0  0
 15 16  1  0  0  0  0
 16 17  2  0  0  0  0
 17 18  1  0  0  0  0
 17 38  1  0  0  0  0
 19 39  1  0  0  0  0
 19 40  1  0  0  0  0
M  CHG  1   6   1
M  END
> <s_m_source_file>
AV-unprocessed.smi

> <i_m_source_file_index>
1802

> <i_lp_mmshare_version>
43012

> <i_f3d_flags>
0

> <s_epik_input>
W0NIM11bQ0BASF0xW0NIMl1bQ0gyXVtDSDJdTihbQ0gyXTEpW0NIMl1bQ0gyXVtDSDJdW05IXUMoPU8pW05IXWMybm5bY0hdczI=

> <s_epik_cmdline>
J2VwaWtfcHl0aG9uJywgJy1waCcsICc3LjAnLCAnLXRuJywgJzgnLCAnLW1hJywgJzIwMCcsICctbWV0YWxfYmluZGluZycsICctaW1hZScsICc8aW5maWxlLm1hZT4nLCAnLW9tYWUnLCAnPG91dGZpbGUubWFlPic=

> <r_lp_tautomer_probability>
1

> <r_epik_Ionization_Penalty>
0.00272894

> <r_epik_Ionization_Penalty_Charging>
0.000288442

> <r_epik_Ionization_Penalty_Neutral>
0.0024405

> <r_epik_State_Penalty>
-0

> <r_epik_Charging_Adjusted_Penalty>
0.000288442

> <i_epik_Tot_Q>
1

> <i_epik_Tot_abs_Q>
1

> <r_epik_Metal_State_Penalty>
0.350525

> <b_epik_Metal_Only>
0

> <s_lp_Force_Field>
OPLS_2005

> <r_lp_Energy>
17.5372

> <b_lp_Chiralities_Consistent>
1

> <s_lp_Variant>
AV-unprocessed.smi:1802-2

> <Gold.Version>
5.8.1

> <Gold.Id.Protein>
6NUR|6NUR_protein|mol2

> <Gold.PLP.Fitness>
42.2920

> <Gold.PLP.PLP>
-34.2840

> <Gold.PLP.part.hbond>
-5.5949

> <Gold.PLP.part.metal>
0.0000

> <Gold.PLP.part.buried>
-3.4974

> <Gold.PLP.part.nonpolar>
-25.0982

> <Gold.PLP.part.repulsive>
0.0687

> <Gold.PLP.ligand.clash>
0.0000

> <Gold.PLP.ligand.torsion>
0.8889

> <Gold.PLP.Chemscore.Hbond>
3.2464

> <Gold.PLP.Chemscore.CHOScore>
0.0000

> <Gold.PLP.Chemscore.Metal>
0.0000

> <Gold.Chemscore.Hbonds>
donor molecule, donor type, donor heavy atom, donor atom, acceptor molecule, acceptor atom, score
      L1  H     6    41       P1 10747  1.00
      P1  H  6896  6909       L1    12  1.00
      P1  H  6931  6943       L1    16  1.00

> <Gold.PLP.Chemscore.Internal.Correction>
0.0466

> <Gold.Rescore>
     Score         DG    S(hbond)    S(metal)    S(lipo)     H(rot)  DE(clash)    DE(int)     intcor
     18.07     -19.04       2.80        0.00      79.32       1.98       0.08       0.90       ----

> <Gold.Chemscore.Fitness>
18.0685

> <Gold.Chemscore.DG>
-19.0432

> <Gold.Chemscore.ZeroCoef>
-5.4800

> <Gold.Chemscore.Hbond>
2.7994

> <Gold.Chemscore.Metal>
0.0000

> <Gold.Chemscore.Lipo>
79.3171

> <Gold.Chemscore.Internal_Hbond>
0.0000

> <Gold.Chemscore.DEClash>
0.0779

> <Gold.Chemscore.DEInternal>
0.8969

> <Gold.Chemscore.Rot>
1.9793

> <Gold.Chemscore.Internal.Correction>
   9.000000E+99

> <Gold.Chemscore.Hbonds>
donor molecule, donor type, donor heavy atom, donor atom, acceptor molecule, acceptor atom, score
      L1  H     6    41       P1 10747  0.97
      P1  H  6896  6909       L1    12  0.74
      P1  H  6931  6943       L1    16  0.30

> <Gold.Chemscore.Hbond.Weighted>
-9.3501

> <Gold.Chemscore.Metal.Weighted>
-0.0000

> <Gold.Chemscore.Lipo.Weighted>
-9.2801

> <Gold.Chemscore.Internal_Hbond.Weighted>
0.0000

> <Gold.Chemscore.DEClash.Weighted>
0.0779

> <Gold.Chemscore.DEInternal.Weighted>
0.8969

> <Gold.Chemscore.Rot.Weighted>
5.0670

> <Gold.Chemscore.Internal.Correction.Weighted>
   9.000000E+99

> <Gold.Protein.RotatedTorsions>
[ 6907 6896 6895 6894 ] final   -7.19 input  -60.11 | X-H torsion
[ 7974 7965 7964 7962 ] final  122.81 input  175.53 | X-H torsion
[ 8008 7997 7996 7995 ] final  -26.77 input   59.86 | X-H torsion
[ 10167 10162 10161 10158 ] final -122.91 input  -65.29 | X-H torsion
[ 10718 10713 10712 10709 ] final   62.16 input   66.30 | X-H torsion
[ 10763 10752 10751 10750 ] final   16.09 input  -60.55 | X-H torsion
[ 11005 11000 10999 10996 ] final   96.59 input  -57.11 | X-H torsion

> <Gold.Protein.ActiveResidues>
 VAL166  LYS551  ARG553  GLY616  TRP617  ASP618  TYR619  PRO620  LYS621  CYS622 
 ASP623  PHE694  ASN695  SER759  ASP760  ASP761  ALA762  ILE779  LEU786  VAL792 
 PHE793  MET794  SER795  GLU796  ALA797  LYS798  CYS799  TRP800  GLU811  SER814 

> <Gold.Protein.RotatedAtoms>
  151.4535  135.1032  159.9704 H   0  0  0  0  0  0  0  0  0  0  0  0  # atno 6907 bound_to 6896
  152.4879  133.8418  159.7167 H   0  0  0  0  0  0  0  0  0  0  0  0  # atno 6908 bound_to 6896
  150.9005  133.7064  159.2907 H   0  0  0  0  0  0  0  0  0  0  0  0  # atno 6909 bound_to 6896
  145.1032  139.3504  143.4801 H   0  0  0  0  0  0  0  0  0  0  0  0  # atno 7974 bound_to 7965
  154.4409  140.1890  156.0828 H   0  0  0  0  0  0  0  0  0  0  0  0  # atno 8008 bound_to 7997
  156.0426  140.3318  155.7234 H   0  0  0  0  0  0  0  0  0  0  0  0  # atno 8009 bound_to 7997
  155.5677  140.0609  157.2805 H   0  0  0  0  0  0  0  0  0  0  0  0  # atno 8010 bound_to 7997
  140.0091  143.5460  152.2271 H   0  0  0  0  0  0  0  0  0  0  0  0  # atno 10167 bound_to 10162
  157.5880  130.9034  149.9552 H   0  0  0  0  0  0  0  0  0  0  0  0  # atno 10718 bound_to 10713
  153.1463  135.6770  153.8949 H   0  0  0  0  0  0  0  0  0  0  0  0  # atno 10763 bound_to 10752
  153.8390  135.3108  155.3426 H   0  0  0  0  0  0  0  0  0  0  0  0  # atno 10764 bound_to 10752
  154.7828  135.4879  153.9965 H   0  0  0  0  0  0  0  0  0  0  0  0  # atno 10765 bound_to 10752
  139.8780  134.8958  156.4182 H   0  0  0  0  0  0  0  0  0  0  0  0  # atno 11005 bound_to 11000
  146.3529  140.0918  142.8612 LP  0  0  0  0  0  0  0  0  0  0  0  0  # atno 17320 bound_to 7965
  145.0932  140.9298  143.4757 LP  0  0  0  0  0  0  0  0  0  0  0  0  # atno 17321 bound_to 7965
  139.6217  144.7630  151.2725 LP  0  0  0  0  0  0  0  0  0  0  0  0  # atno 17342 bound_to 10162
  140.7388  143.6636  150.8143 LP  0  0  0  0  0  0  0  0  0  0  0  0  # atno 17343 bound_to 10162
  156.0931  130.3661  150.0356 LP  0  0  0  0  0  0  0  0  0  0  0  0  # atno 17370 bound_to 10713
  156.8484  130.9450  151.3627 LP  0  0  0  0  0  0  0  0  0  0  0  0  # atno 17371 bound_to 10713
  140.9152  133.7683  155.9840 LP  0  0  0  0  0  0  0  0  0  0  0  0  # atno 17394 bound_to 11000
  140.8501  134.2964  157.5279 LP  0  0  0  0  0  0  0  0  0  0  0  0  # atno 17395 bound_to 11000

$$$$
