AV-unprocessed.smi:1430|AV-procd|sdf|5826|dock3
  -GOLD-   22720 5483D 1   1.00000     0.00000
 Structure written by MMmdl.
 47 48  0  0  0  0  0  0  0  0  2 V2000
  152.4390  140.7163  158.7187 C   0  0  0  0  0  0  0  0  0  0  0  0
  152.9728  139.8628  157.7122 O   0  0  0  0  0  0  0  0  0  0  0  0
  152.1575  139.5028  156.6589 C   0  0  0  0  0  0  0  0  0  0  0  0
  152.6518  138.5922  155.7043 C   0  0  0  0  0  0  0  0  0  0  0  0
  151.8268  138.2199  154.6257 C   0  0  0  0  0  0  0  0  0  0  0  0
  150.5237  138.7665  154.5400 C   0  0  0  0  0  0  0  0  0  0  0  0
  149.6018  138.4884  153.4941 N   0  0  0  0  0  0  0  0  0  0  0  0
  148.4093  139.0587  153.2534 C   0  0  0  0  0  0  0  0  0  0  0  0
  147.9240  139.9929  153.8895 O   0  0  0  0  0  0  0  0  0  0  0  0
  147.7953  138.4793  152.2115 N   0  0  0  0  0  0  0  0  0  0  0  0
  146.4812  138.8525  151.6891 C   0  0  0  0  0  0  0  0  0  0  0  0
  145.7545  137.6968  150.9653 C   0  0  0  0  0  0  0  0  0  0  0  0
  145.9629  136.3827  151.6230 N   0  3  1  0  0  0  0  0  0  0  0  0
  145.3155  136.2895  152.9512 C   0  0  0  0  0  0  0  0  0  0  0  0
  145.6590  134.9505  153.6316 C   0  0  2  0  0  0  0  0  0  0  0  0
  147.1097  134.8793  154.1424 C   0  0  0  0  0  0  0  0  0  0  0  0
  145.3365  133.8623  152.7644 O   0  0  0  0  0  0  0  0  0  0  0  0
  145.9549  133.9109  151.4804 C   0  0  1  0  0  0  0  0  0  0  0  0
  145.4912  132.6852  150.6860 C   0  0  0  0  0  0  0  0  0  0  0  0
  145.5808  135.2285  150.7779 C   0  0  0  0  0  0  0  0  0  0  0  0
  150.1298  139.6792  155.5404 C   0  0  0  0  0  0  0  0  0  0  0  0
  150.9158  140.0408  156.5759 N   0  0  0  0  0  0  0  0  0  0  0  0
  153.2027  140.9057  159.4727 H   0  0  0  0  0  0  0  0  0  0  0  0
  151.5855  140.2576  159.2199 H   0  0  0  0  0  0  0  0  0  0  0  0
  152.1366  141.6796  158.3054 H   0  0  0  0  0  0  0  0  0  0  0  0
  153.6499  138.1893  155.7948 H   0  0  0  0  0  0  0  0  0  0  0  0
  152.2162  137.5387  153.8856 H   0  0  0  0  0  0  0  0  0  0  0  0
  149.9048  137.7923  152.8287 H   0  0  0  0  0  0  0  0  0  0  0  0
  148.2759  137.7287  151.7365 H   0  0  0  0  0  0  0  0  0  0  0  0
  145.8598  139.2394  152.4980 H   0  0  0  0  0  0  0  0  0  0  0  0
  146.6287  139.6829  150.9987 H   0  0  0  0  0  0  0  0  0  0  0  0
  144.6870  137.9203  150.9605 H   0  0  0  0  0  0  0  0  0  0  0  0
  146.0538  137.6486  149.9174 H   0  0  0  0  0  0  0  0  0  0  0  0
  145.6325  137.1190  153.5849 H   0  0  0  0  0  0  0  0  0  0  0  0
  144.2345  136.3784  152.8292 H   0  0  0  0  0  0  0  0  0  0  0  0
  145.0120  134.8441  154.5029 H   0  0  0  0  0  0  0  0  0  0  0  0
  147.2886  135.6389  154.9040 H   0  0  0  0  0  0  0  0  0  0  0  0
  147.8386  135.0423  153.3488 H   0  0  0  0  0  0  0  0  0  0  0  0
  147.3158  133.9081  154.5926 H   0  0  0  0  0  0  0  0  0  0  0  0
  147.0377  133.8512  151.5916 H   0  0  0  0  0  0  0  0  0  0  0  0
  145.9380  132.6690  149.6916 H   0  0  0  0  0  0  0  0  0  0  0  0
  144.4073  132.6787  150.5659 H   0  0  0  0  0  0  0  0  0  0  0  0
  145.7750  131.7621  151.1921 H   0  0  0  0  0  0  0  0  0  0  0  0
  144.5087  135.2623  150.5766 H   0  0  0  0  0  0  0  0  0  0  0  0
  146.0892  135.2843  149.8152 H   0  0  0  0  0  0  0  0  0  0  0  0
  149.1505  140.1345  155.5116 H   0  0  0  0  0  0  0  0  0  0  0  0
  146.9560  136.3092  151.7919 H   0  0  0  0  0  0  0  0  0  0  0  0
  1  2  1  0  0  0  0
  1 23  1  0  0  0  0
  1 24  1  0  0  0  0
  1 25  1  0  0  0  0
  2  3  1  0  0  0  0
  3 22  1  0  0  0  0
  3  4  2  0  0  0  0
  4  5  1  0  0  0  0
  4 26  1  0  0  0  0
  5  6  2  0  0  0  0
  5 27  1  0  0  0  0
  6  7  1  0  0  0  0
  6 21  1  0  0  0  0
  7  8  1  0  0  0  0
  7 28  1  0  0  0  0
  8  9  2  0  0  0  0
  8 10  1  0  0  0  0
 10 11  1  0  0  0  0
 10 29  1  0  0  0  0
 11 12  1  0  0  0  0
 11 30  1  0  0  0  0
 11 31  1  0  0  0  0
 12 13  1  0  0  0  0
 12 32  1  0  0  0  0
 12 33  1  0  0  0  0
 13 20  1  0  0  0  0
 13 14  1  0  0  0  0
 13 47  1  0  0  0  0
 14 15  1  0  0  0  0
 14 34  1  0  0  0  0
 14 35  1  0  0  0  0
 15 16  1  0  0  0  0
 15 17  1  0  0  0  0
 15 36  1  0  0  0  0
 16 37  1  0  0  0  0
 16 38  1  0  0  0  0
 16 39  1  0  0  0  0
 17 18  1  0  0  0  0
 18 19  1  0  0  0  0
 18 20  1  0  0  0  0
 18 40  1  0  0  0  0
 19 41  1  0  0  0  0
 19 42  1  0  0  0  0
 19 43  1  0  0  0  0
 20 44  1  0  0  0  0
 20 45  1  0  0  0  0
 21 22  2  0  0  0  0
 21 46  1  0  0  0  0
M  CHG  1  13   1
M  END
> <s_m_source_file>
AV-unprocessed.smi

> <i_m_source_file_index>
1430

> <i_lp_mmshare_version>
43012

> <i_f3d_flags>
0

> <s_epik_input>
W0NIM11PYzFbY0hdW2NIXWMoW2NIXW4xKVtOSF1DKD1PKVtOSF1bQ0gyXVtDSDJdTjJbQ0gyXVtDQEBIXShbQ0gzXSlPW0NAQEhdKFtDSDNdKVtDSDJdMg==

> <s_epik_cmdline>
J2VwaWtfcHl0aG9uJywgJy1waCcsICc3LjAnLCAnLXRuJywgJzgnLCAnLW1hJywgJzIwMCcsICctbWV0YWxfYmluZGluZycsICctaW1hZScsICc8aW5maWxlLm1hZT4nLCAnLW9tYWUnLCAnPG91dGZpbGUubWFlPic=

> <r_lp_tautomer_probability>
1

> <r_epik_Ionization_Penalty>
0.602607

> <r_epik_Ionization_Penalty_Charging>
0.602531

> <r_epik_Ionization_Penalty_Neutral>
7.66983e-05

> <r_epik_State_Penalty>
0.617039

> <r_epik_Charging_Adjusted_Penalty>
1.21957

> <i_epik_Tot_Q>
1

> <i_epik_Tot_abs_Q>
1

> <r_epik_Metal_State_Penalty>
0.617043

> <b_epik_Metal_Only>
0

> <s_lp_Force_Field>
OPLS_2005

> <r_lp_Energy>
27.4257

> <b_lp_Chiralities_Consistent>
1

> <s_lp_Variant>
AV-unprocessed.smi:1430-5

> <Gold.Version>
5.8.1

> <Gold.Id.Protein>
6NUR|6NUR_protein|mol2

> <Gold.PLP.Fitness>
45.7349

> <Gold.PLP.PLP>
-32.3453

> <Gold.PLP.part.hbond>
-5.9704

> <Gold.PLP.part.metal>
0.0000

> <Gold.PLP.part.buried>
5.5549

> <Gold.PLP.part.nonpolar>
-33.1280

> <Gold.PLP.part.repulsive>
0.4613

> <Gold.PLP.ligand.clash>
0.0000

> <Gold.PLP.ligand.torsion>
0.3872

> <Gold.PLP.Chemscore.Hbond>
4.7120

> <Gold.PLP.Chemscore.CHOScore>
0.0000

> <Gold.PLP.Chemscore.Metal>
0.0000

> <Gold.Chemscore.Hbonds>
donor molecule, donor type, donor heavy atom, donor atom, acceptor molecule, acceptor atom, score
      L1  H     7    28       P1  7948  0.70
      L1  H    10    29       P1  7948  0.98
      L1  H    13    47       P1  7948  2.00
      P1  H  7997  8010       L1     2  1.00

> <Gold.PLP.Chemscore.Internal.Correction>
0.0279

> <Gold.Rescore>
     Score         DG    S(hbond)    S(metal)    S(lipo)     H(rot)  DE(clash)    DE(int)     intcor
     14.54     -20.41       2.78        0.00      86.65       1.76       3.95       1.91       ----

> <Gold.Chemscore.Fitness>
14.5386

> <Gold.Chemscore.DG>
-20.4071

> <Gold.Chemscore.ZeroCoef>
-5.4800

> <Gold.Chemscore.Hbond>
2.7831

> <Gold.Chemscore.Metal>
0.0000

> <Gold.Chemscore.Lipo>
86.6548

> <Gold.Chemscore.Internal_Hbond>
0.0000

> <Gold.Chemscore.DEClash>
3.9544

> <Gold.Chemscore.DEInternal>
1.9141

> <Gold.Chemscore.Rot>
1.7606

> <Gold.Chemscore.Internal.Correction>
   9.000000E+99

> <Gold.Chemscore.Hbonds>
donor molecule, donor type, donor heavy atom, donor atom, acceptor molecule, acceptor atom, score
      L1  H     7    28       P1  7948  0.20
      L1  H    10    29       P1  7948  0.92
      L1  H    13    47       P1  7948  0.98
      P1  H  7997  8010       L1     2  0.39

> <Gold.Chemscore.Hbond.Weighted>
-9.2957

> <Gold.Chemscore.Metal.Weighted>
-0.0000

> <Gold.Chemscore.Lipo.Weighted>
-10.1386

> <Gold.Chemscore.Internal_Hbond.Weighted>
0.0000

> <Gold.Chemscore.DEClash.Weighted>
3.9544

> <Gold.Chemscore.DEInternal.Weighted>
1.9141

> <Gold.Chemscore.Rot.Weighted>
4.5072

> <Gold.Chemscore.Internal.Correction.Weighted>
   9.000000E+99

> <Gold.Protein.RotatedTorsions>
[ 6907 6896 6895 6894 ] final   47.67 input  -60.11 | X-H torsion
[ 7974 7965 7964 7962 ] final  116.84 input  175.53 | X-H torsion
[ 8008 7997 7996 7995 ] final   39.40 input   59.86 | X-H torsion
[ 10167 10162 10161 10158 ] final   63.52 input  -65.29 | X-H torsion
[ 10718 10713 10712 10709 ] final -116.80 input   66.30 | X-H torsion
[ 10763 10752 10751 10750 ] final -128.64 input  -60.55 | X-H torsion
[ 11005 11000 10999 10996 ] final  110.74 input  -57.11 | X-H torsion

> <Gold.Protein.ActiveResidues>
 VAL166  LYS551  ARG553  GLY616  TRP617  ASP618  TYR619  PRO620  LYS621  CYS622 
 ASP623  PHE694  ASN695  SER759  ASP760  ASP761  ALA762  ILE779  LEU786  VAL792 
 PHE793  MET794  SER795  GLU796  ALA797  LYS798  CYS799  TRP800  GLU811  SER814 

> <Gold.Protein.RotatedAtoms>
  152.2708  134.7935  160.0414 H   0  0  0  0  0  0  0  0  0  0  0  0  # atno 6907 bound_to 6896
  151.8548  133.3441  159.3693 H   0  0  0  0  0  0  0  0  0  0  0  0  # atno 6908 bound_to 6896
  150.7151  134.5191  159.5689 H   0  0  0  0  0  0  0  0  0  0  0  0  # atno 6909 bound_to 6896
  145.1746  139.3082  143.4449 H   0  0  0  0  0  0  0  0  0  0  0  0  # atno 7974 bound_to 7965
  155.2359  140.3342  155.4298 H   0  0  0  0  0  0  0  0  0  0  0  0  # atno 8008 bound_to 7997
  156.2276  140.1836  156.7370 H   0  0  0  0  0  0  0  0  0  0  0  0  # atno 8009 bound_to 7997
  154.5924  140.0636  156.9242 H   0  0  0  0  0  0  0  0  0  0  0  0  # atno 8010 bound_to 7997
  140.1321  144.4633  150.6858 H   0  0  0  0  0  0  0  0  0  0  0  0  # atno 10167 bound_to 10162
  156.0989  130.6155  150.9082 H   0  0  0  0  0  0  0  0  0  0  0  0  # atno 10718 bound_to 10713
  154.8756  135.3922  154.3789 H   0  0  0  0  0  0  0  0  0  0  0  0  # atno 10763 bound_to 10752
  153.4539  135.7028  153.6097 H   0  0  0  0  0  0  0  0  0  0  0  0  # atno 10764 bound_to 10752
  153.4624  135.3809  155.2314 H   0  0  0  0  0  0  0  0  0  0  0  0  # atno 10765 bound_to 10752
  139.8888  134.9491  156.6325 H   0  0  0  0  0  0  0  0  0  0  0  0  # atno 11005 bound_to 11000
  146.3463  140.1904  142.8589 LP  0  0  0  0  0  0  0  0  0  0  0  0  # atno 17320 bound_to 7965
  145.0197  140.8784  143.5174 LP  0  0  0  0  0  0  0  0  0  0  0  0  # atno 17321 bound_to 7965
  140.6810  143.2327  151.5383 LP  0  0  0  0  0  0  0  0  0  0  0  0  # atno 17342 bound_to 10162
  139.5514  144.2386  152.1537 LP  0  0  0  0  0  0  0  0  0  0  0  0  # atno 17343 bound_to 10162
  157.6155  131.0933  150.8718 LP  0  0  0  0  0  0  0  0  0  0  0  0  # atno 17370 bound_to 10713
  156.8850  130.5193  149.5289 LP  0  0  0  0  0  0  0  0  0  0  0  0  # atno 17371 bound_to 10713
  140.7655  133.8781  155.8451 LP  0  0  0  0  0  0  0  0  0  0  0  0  # atno 17394 bound_to 11000
  140.9886  134.1309  157.4429 LP  0  0  0  0  0  0  0  0  0  0  0  0  # atno 17395 bound_to 11000

$$$$
