AV-unprocessed.smi:1969|AV-procd|sdf|7959|dock5
  -GOLD-   2272010133D 1   1.00000     0.00000
 Structure written by MMmdl.
 44 45  0  0  0  0  0  0  0  0  1 V2000
  152.2842  144.9554  158.2616 C   0  0  0  0  0  0  0  0  0  0  0  0
  152.1482  143.6927  159.1188 C   0  0  1  0  0  0  0  0  0  0  0  0
  151.8009  142.4563  158.2699 C   0  0  0  0  0  0  0  0  0  0  0  0
  151.7863  141.2659  159.1081 N   0  0  0  0  0  0  0  0  0  0  0  0
  151.3219  140.1210  158.4457 C   0  0  0  0  0  0  0  0  0  0  0  0
  152.0255  139.6523  157.3176 C   0  0  0  0  0  0  0  0  0  0  0  0
  151.5553  138.5015  156.6575 C   0  0  0  0  0  0  0  0  0  0  0  0
  150.4060  137.8489  157.1465 C   0  0  0  0  0  0  0  0  0  0  0  0
  149.9430  136.7013  156.4489 N   0  0  0  0  0  0  0  0  0  0  0  0
  150.4647  136.1148  155.3548 C   0  0  0  0  0  0  0  0  0  0  0  0
  151.4689  136.5072  154.7623 O   0  0  0  0  0  0  0  0  0  0  0  0
  149.7298  134.8771  154.8369 C   0  0  0  0  0  0  0  0  0  0  0  0
  149.8295  133.8309  155.7917 O   0  0  0  0  0  0  0  0  0  0  0  0
  150.5370  132.7044  155.2992 C   0  0  0  0  0  0  0  0  0  0  0  0
  149.5479  131.7211  154.6620 C   0  0  0  0  0  0  0  0  0  0  0  0
  148.5113  131.5473  155.4808 F   0  0  0  0  0  0  0  0  0  0  0  0
  149.1019  132.2038  153.5025 F   0  0  0  0  0  0  0  0  0  0  0  0
  150.1364  130.5426  154.4597 F   0  0  0  0  0  0  0  0  0  0  0  0
  149.7632  138.4059  158.2789 C   0  0  0  0  0  0  0  0  0  0  0  0
  150.2084  139.5104  158.9154 N   0  0  0  0  0  0  0  0  0  0  0  0
  153.0510  141.0630  159.8032 C   0  0  0  0  0  0  0  0  0  0  0  0
  153.4305  142.3130  160.6216 C   0  0  2  0  0  0  0  0  0  0  0  0
  152.5935  142.4872  161.9015 C   0  0  0  0  0  0  0  0  0  0  0  0
  153.3906  143.4761  159.7895 O   0  0  0  0  0  0  0  0  0  0  0  0
  151.3553  145.1724  157.7337 H   0  0  0  0  0  0  0  0  0  0  0  0
  153.0744  144.8449  157.5183 H   0  0  0  0  0  0  0  0  0  0  0  0
  152.5254  145.8211  158.8787 H   0  0  0  0  0  0  0  0  0  0  0  0
  151.3607  143.8653  159.8525 H   0  0  0  0  0  0  0  0  0  0  0  0
  150.8261  142.5859  157.7976 H   0  0  0  0  0  0  0  0  0  0  0  0
  152.5336  142.3335  157.4705 H   0  0  0  0  0  0  0  0  0  0  0  0
  152.9087  140.1638  156.9635 H   0  0  0  0  0  0  0  0  0  0  0  0
  152.0763  138.1242  155.7895 H   0  0  0  0  0  0  0  0  0  0  0  0
  149.0684  136.3170  156.7764 H   0  0  0  0  0  0  0  0  0  0  0  0
  148.6823  135.1229  154.6540 H   0  0  0  0  0  0  0  0  0  0  0  0
  150.1738  134.5725  153.8881 H   0  0  0  0  0  0  0  0  0  0  0  0
  151.2758  133.0212  154.5612 H   0  0  0  0  0  0  0  0  0  0  0  0
  151.0756  132.2154  156.1125 H   0  0  0  0  0  0  0  0  0  0  0  0
  148.8583  137.9842  158.6875 H   0  0  0  0  0  0  0  0  0  0  0  0
  152.9872  140.1881  160.4514 H   0  0  0  0  0  0  0  0  0  0  0  0
  153.8334  140.8600  159.0705 H   0  0  0  0  0  0  0  0  0  0  0  0
  154.4680  142.1999  160.9370 H   0  0  0  0  0  0  0  0  0  0  0  0
  152.7414  141.6440  162.5763 H   0  0  0  0  0  0  0  0  0  0  0  0
  151.5258  142.5504  161.6929 H   0  0  0  0  0  0  0  0  0  0  0  0
  152.8848  143.3914  162.4361 H   0  0  0  0  0  0  0  0  0  0  0  0
  1  2  1  0  0  0  0
  1 25  1  0  0  0  0
  1 26  1  0  0  0  0
  1 27  1  0  0  0  0
  2 24  1  0  0  0  0
  2  3  1  0  0  0  0
  2 28  1  0  0  0  0
  3  4  1  0  0  0  0
  3 29  1  0  0  0  0
  3 30  1  0  0  0  0
  4  5  1  0  0  0  0
  4 21  1  0  0  0  0
  5 20  1  0  0  0  0
  5  6  2  0  0  0  0
  6  7  1  0  0  0  0
  6 31  1  0  0  0  0
  7  8  2  0  0  0  0
  7 32  1  0  0  0  0
  8  9  1  0  0  0  0
  8 19  1  0  0  0  0
  9 10  1  0  0  0  0
  9 33  1  0  0  0  0
 10 11  2  0  0  0  0
 10 12  1  0  0  0  0
 12 13  1  0  0  0  0
 12 34  1  0  0  0  0
 12 35  1  0  0  0  0
 13 14  1  0  0  0  0
 14 15  1  0  0  0  0
 14 36  1  0  0  0  0
 14 37  1  0  0  0  0
 15 16  1  0  0  0  0
 15 17  1  0  0  0  0
 15 18  1  0  0  0  0
 19 20  2  0  0  0  0
 19 38  1  0  0  0  0
 21 22  1  0  0  0  0
 21 39  1  0  0  0  0
 21 40  1  0  0  0  0
 22 23  1  0  0  0  0
 22 24  1  0  0  0  0
 22 41  1  0  0  0  0
 23 42  1  0  0  0  0
 23 43  1  0  0  0  0
 23 44  1  0  0  0  0
M  END
> <s_m_source_file>
AV-unprocessed.smi

> <i_m_source_file_index>
1969

> <i_lp_mmshare_version>
43012

> <i_f3d_flags>
0

> <s_epik_input>
W0NIM11bQ0BASF0xW0NIMl1OKFtDSDJdW0NASF0oTzEpW0NIM10pYzJbY0hdW2NIXWMoW2NIXW4yKVtOSF1DKD1PKVtDSDJdT1tDSDJdQyhGKShGKUY=

> <s_epik_cmdline>
J2VwaWtfcHl0aG9uJywgJy1waCcsICc3LjAnLCAnLXRuJywgJzgnLCAnLW1hJywgJzIwMCcsICctbWV0YWxfYmluZGluZycsICctaW1hZScsICc8aW5maWxlLm1hZT4nLCAnLW9tYWUnLCAnPG91dGZpbGUubWFlPic=

> <r_lp_tautomer_probability>
1

> <r_epik_Ionization_Penalty>
0.000531129

> <r_epik_Ionization_Penalty_Charging>
0

> <r_epik_Ionization_Penalty_Neutral>
0.000531129

> <r_epik_State_Penalty>
0.000331002

> <r_epik_Charging_Adjusted_Penalty>
0.000331002

> <i_epik_Tot_Q>
0

> <i_epik_Tot_abs_Q>
0

> <r_epik_Metal_State_Penalty>
-0

> <b_epik_Metal_Only>
0

> <s_lp_Force_Field>
OPLS_2005

> <r_lp_Energy>
27.2534

> <b_lp_Chiralities_Consistent>
1

> <s_lp_Variant>
AV-unprocessed.smi:1969-3

> <Gold.Version>
5.8.1

> <Gold.Id.Protein>
6NUR|6NUR_protein|mol2

> <Gold.PLP.Fitness>
43.3489

> <Gold.PLP.PLP>
-41.7633

> <Gold.PLP.part.hbond>
-1.5965

> <Gold.PLP.part.metal>
0.0000

> <Gold.PLP.part.buried>
-4.6081

> <Gold.PLP.part.nonpolar>
-34.7883

> <Gold.PLP.part.repulsive>
0.2008

> <Gold.PLP.ligand.clash>
0.0000

> <Gold.PLP.ligand.torsion>
0.8035

> <Gold.PLP.Chemscore.Hbond>
1.0000

> <Gold.PLP.Chemscore.CHOScore>
0.0000

> <Gold.PLP.Chemscore.Metal>
0.0000

> <Gold.Chemscore.Hbonds>
donor molecule, donor type, donor heavy atom, donor atom, acceptor molecule, acceptor atom, score
      P1  H 10752 10765       L1    11  1.00

> <Gold.PLP.Chemscore.Internal.Correction>
0.1926

> <Gold.Rescore>
     Score         DG    S(hbond)    S(metal)    S(lipo)     H(rot)  DE(clash)    DE(int)     intcor
     13.34     -15.73       1.00        0.00     101.60       1.94       0.08       2.31       ----

> <Gold.Chemscore.Fitness>
13.3393

> <Gold.Chemscore.DG>
-15.7310

> <Gold.Chemscore.ZeroCoef>
-5.4800

> <Gold.Chemscore.Hbond>
0.9999

> <Gold.Chemscore.Metal>
0.0000

> <Gold.Chemscore.Lipo>
101.6011

> <Gold.Chemscore.Internal_Hbond>
0.0000

> <Gold.Chemscore.DEClash>
0.0803

> <Gold.Chemscore.DEInternal>
2.3114

> <Gold.Chemscore.Rot>
1.9438

> <Gold.Chemscore.Internal.Correction>
   9.000000E+99

> <Gold.Chemscore.Hbonds>
donor molecule, donor type, donor heavy atom, donor atom, acceptor molecule, acceptor atom, score
      P1  H 10752 10765       L1    11  1.00

> <Gold.Chemscore.Hbond.Weighted>
-3.3397

> <Gold.Chemscore.Metal.Weighted>
-0.0000

> <Gold.Chemscore.Lipo.Weighted>
-11.8873

> <Gold.Chemscore.Internal_Hbond.Weighted>
0.0000

> <Gold.Chemscore.DEClash.Weighted>
0.0803

> <Gold.Chemscore.DEInternal.Weighted>
2.3114

> <Gold.Chemscore.Rot.Weighted>
4.9761

> <Gold.Chemscore.Internal.Correction.Weighted>
   9.000000E+99

> <Gold.Protein.RotatedTorsions>
[ 6907 6896 6895 6894 ] final -172.30 input  -60.11 | X-H torsion
[ 7974 7965 7964 7962 ] final  -97.11 input  175.53 | X-H torsion
[ 8008 7997 7996 7995 ] final   83.47 input   59.86 | X-H torsion
[ 10167 10162 10161 10158 ] final -151.94 input  -65.29 | X-H torsion
[ 10718 10713 10712 10709 ] final  -56.32 input   66.30 | X-H torsion
[ 10763 10752 10751 10750 ] final  175.35 input  -60.55 | X-H torsion
[ 11005 11000 10999 10996 ] final   75.13 input  -57.11 | X-H torsion

> <Gold.Protein.ActiveResidues>
 VAL166  LYS551  ARG553  GLY616  TRP617  ASP618  TYR619  PRO620  LYS621  CYS622 
 ASP623  PHE694  ASN695  SER759  ASP760  ASP761  ALA762  ILE779  LEU786  VAL792 
 PHE793  MET794  SER795  GLU796  ALA797  LYS798  CYS799  TRP800  GLU811  SER814 

> <Gold.Protein.RotatedAtoms>
  151.5377  133.3438  159.2929 H   0  0  0  0  0  0  0  0  0  0  0  0  # atno 6907 bound_to 6896
  150.8554  134.7894  159.7053 H   0  0  0  0  0  0  0  0  0  0  0  0  # atno 6908 bound_to 6896
  152.4589  134.5237  159.9842 H   0  0  0  0  0  0  0  0  0  0  0  0  # atno 6909 bound_to 6896
  145.3380  140.9454  143.2624 H   0  0  0  0  0  0  0  0  0  0  0  0  # atno 7974 bound_to 7965
  155.9243  140.3419  155.6198 H   0  0  0  0  0  0  0  0  0  0  0  0  # atno 8008 bound_to 7997
  155.7235  140.0786  157.2339 H   0  0  0  0  0  0  0  0  0  0  0  0  # atno 8009 bound_to 7997
  154.4074  140.1601  156.2416 H   0  0  0  0  0  0  0  0  0  0  0  0  # atno 8010 bound_to 7997
  139.7224  143.8936  152.2508 H   0  0  0  0  0  0  0  0  0  0  0  0  # atno 10167 bound_to 10162
  156.1298  130.4160  150.0289 H   0  0  0  0  0  0  0  0  0  0  0  0  # atno 10718 bound_to 10713
  154.4664  135.2769  155.1675 H   0  0  0  0  0  0  0  0  0  0  0  0  # atno 10763 bound_to 10752
  154.3442  135.6164  153.5614 H   0  0  0  0  0  0  0  0  0  0  0  0  # atno 10764 bound_to 10752
  152.9860  135.5796  154.5037 H   0  0  0  0  0  0  0  0  0  0  0  0  # atno 10765 bound_to 10752
  139.9358  134.7492  156.1233 H   0  0  0  0  0  0  0  0  0  0  0  0  # atno 11005 bound_to 11000
  144.8812  139.4901  143.6722 LP  0  0  0  0  0  0  0  0  0  0  0  0  # atno 17320 bound_to 7965
  146.3019  139.7454  142.9085 LP  0  0  0  0  0  0  0  0  0  0  0  0  # atno 17321 bound_to 7965
  139.8835  144.7004  150.8850 LP  0  0  0  0  0  0  0  0  0  0  0  0  # atno 17342 bound_to 10162
  140.7756  143.3642  151.1771 LP  0  0  0  0  0  0  0  0  0  0  0  0  # atno 17343 bound_to 10162
  156.8205  130.9357  151.3641 LP  0  0  0  0  0  0  0  0  0  0  0  0  # atno 17370 bound_to 10713
  157.6477  130.8858  149.9570 LP  0  0  0  0  0  0  0  0  0  0  0  0  # atno 17371 bound_to 10713
  141.0971  133.6691  156.2669 LP  0  0  0  0  0  0  0  0  0  0  0  0  # atno 17394 bound_to 11000
  140.6080  134.5487  157.5529 LP  0  0  0  0  0  0  0  0  0  0  0  0  # atno 17395 bound_to 11000

$$$$
