AV-unprocessed.smi:179|AV-procd|sdf|1449|dock7
  -GOLD-   2262019243D 1   1.00000     0.00000
 Structure written by MMmdl.
 44 47  0  0  0  0  0  0  0  0  1 V2000
  152.7864  139.5754  155.0038 O   0  0  0  0  0  0  0  0  0  0  0  0
  151.6823  138.8981  155.5702 C   0  0  0  0  0  0  0  0  0  0  0  0
  150.3499  139.6381  155.3376 C   0  0  0  0  0  0  0  0  0  0  0  0
  150.4641  141.0100  156.0285 C   0  0  0  0  0  0  0  0  0  0  0  0
  150.7200  140.8760  157.4122 O   0  0  0  0  0  0  0  0  0  0  0  0
  149.8010  139.6698  153.8911 C   0  0  0  0  0  0  0  0  0  0  0  0
  148.3902  139.4271  154.4338 C   0  0  0  0  0  0  0  0  0  0  0  0
  147.4245  138.6677  153.6888 N   0  0  0  0  0  0  0  0  0  0  0  0
  146.9249  138.9789  152.4434 C   0  0  0  0  0  0  0  0  0  0  0  0
  146.0576  138.1316  151.9608 N   0  0  0  0  0  0  0  0  0  0  0  0
  145.9503  137.1593  152.9462 C   0  0  0  0  0  0  0  0  0  0  0  0
  145.1902  135.9637  153.0580 C   0  0  0  0  0  0  0  0  0  0  0  0
  144.3042  135.5379  152.0296 N   0  0  0  0  0  0  0  0  0  0  0  0
  144.9365  135.1310  150.7784 C   0  0  0  0  0  0  0  0  0  0  0  0
  144.3413  133.7329  150.9683 C   0  0  0  0  0  0  0  0  0  0  0  0
  143.4110  133.3356  149.9813 O   0  0  0  0  0  0  0  0  0  0  0  0
  145.3005  132.5391  151.0535 C   0  0  0  0  0  0  0  0  0  0  0  0
  144.6400  131.4332  151.3994 F   0  0  0  0  0  0  0  0  0  0  0  0
  145.9150  132.3179  149.8926 F   0  0  0  0  0  0  0  0  0  0  0  0
  143.6980  134.2326  152.2663 C   0  0  0  0  0  0  0  0  0  0  0  0
  145.3474  135.2471  154.2036 N   0  0  0  0  0  0  0  0  0  0  0  0
  146.1812  135.6609  155.1620 C   0  0  0  0  0  0  0  0  0  0  0  0
  146.9489  136.7505  155.1837 N   0  0  0  0  0  0  0  0  0  0  0  0
  146.8012  137.4807  154.0420 C   0  0  0  0  0  0  0  0  0  0  0  0
  149.0591  138.8611  155.6898 C   0  0  0  0  0  0  0  0  0  0  0  0
  152.4814  140.3879  154.6298 H   0  0  0  0  0  0  0  0  0  0  0  0
  151.6493  137.8963  155.1406 H   0  0  0  0  0  0  0  0  0  0  0  0
  151.8841  138.7777  156.6349 H   0  0  0  0  0  0  0  0  0  0  0  0
  151.2702  141.6041  155.5975 H   0  0  0  0  0  0  0  0  0  0  0  0
  149.5521  141.5930  155.8960 H   0  0  0  0  0  0  0  0  0  0  0  0
  151.4388  141.4452  157.6421 H   0  0  0  0  0  0  0  0  0  0  0  0
  149.9206  140.6220  153.3734 H   0  0  0  0  0  0  0  0  0  0  0  0
  150.1626  138.8495  153.2703 H   0  0  0  0  0  0  0  0  0  0  0  0
  147.9174  140.3827  154.6672 H   0  0  0  0  0  0  0  0  0  0  0  0
  147.2265  139.8602  151.8961 H   0  0  0  0  0  0  0  0  0  0  0  0
  144.5281  135.6661  149.9207 H   0  0  0  0  0  0  0  0  0  0  0  0
  146.0269  135.1532  150.7816 H   0  0  0  0  0  0  0  0  0  0  0  0
  142.6621  133.9060  150.0643 H   0  0  0  0  0  0  0  0  0  0  0  0
  146.0860  132.6953  151.7942 H   0  0  0  0  0  0  0  0  0  0  0  0
  144.0528  133.7259  153.1648 H   0  0  0  0  0  0  0  0  0  0  0  0
  142.6087  134.2738  152.2307 H   0  0  0  0  0  0  0  0  0  0  0  0
  146.2410  135.0292  156.0361 H   0  0  0  0  0  0  0  0  0  0  0  0
  149.1743  137.7774  155.6554 H   0  0  0  0  0  0  0  0  0  0  0  0
  148.5845  139.1641  156.6236 H   0  0  0  0  0  0  0  0  0  0  0  0
  1  2  1  0  0  0  0
  1 26  1  0  0  0  0
  2  3  1  0  0  0  0
  2 27  1  0  0  0  0
  2 28  1  0  0  0  0
  3 25  1  0  0  0  0
  3  4  1  0  0  0  0
  3  6  1  0  0  0  0
  4  5  1  0  0  0  0
  4 29  1  0  0  0  0
  4 30  1  0  0  0  0
  5 31  1  0  0  0  0
  6  7  1  0  0  0  0
  6 32  1  0  0  0  0
  6 33  1  0  0  0  0
  7  8  1  0  0  0  0
  7 25  1  0  0  0  0
  7 34  1  0  0  0  0
  8 24  1  0  0  0  0
  8  9  1  0  0  0  0
  9 10  2  0  0  0  0
  9 35  1  0  0  0  0
 10 11  1  0  0  0  0
 11 24  2  0  0  0  0
 11 12  1  0  0  0  0
 12 13  1  0  0  0  0
 12 21  2  0  0  0  0
 13 20  1  0  0  0  0
 13 14  1  0  0  0  0
 14 15  1  0  0  0  0
 14 36  1  0  0  0  0
 14 37  1  0  0  0  0
 15 16  1  0  0  0  0
 15 17  1  0  0  0  0
 15 20  1  0  0  0  0
 16 38  1  0  0  0  0
 17 18  1  0  0  0  0
 17 19  1  0  0  0  0
 17 39  1  0  0  0  0
 20 40  1  0  0  0  0
 20 41  1  0  0  0  0
 21 22  1  0  0  0  0
 22 23  2  0  0  0  0
 22 42  1  0  0  0  0
 23 24  1  0  0  0  0
 25 43  1  0  0  0  0
 25 44  1  0  0  0  0
M  END
> <s_m_source_file>
AV-unprocessed.smi

> <i_m_source_file_index>
179

> <i_lp_mmshare_version>
43012

> <i_f3d_flags>
0

> <s_epik_input>
W09IXVtDSDJdQzEoW0NIMl1bT0hdKVtDSDJdW0NIXShbQ0gyXTEpbihbY0hdbjIpYyhjMjMpbltjSF1uYzNOKFtDSDJdNClbQ0gyXUM0KFtPSF0pW0NIXShGKUY=

> <s_epik_cmdline>
J2VwaWtfcHl0aG9uJywgJy1waCcsICc3LjAnLCAnLXRuJywgJzgnLCAnLW1hJywgJzIwMCcsICctbWV0YWxfYmluZGluZycsICctaW1hZScsICc8aW5maWxlLm1hZT4nLCAnLW9tYWUnLCAnPG91dGZpbGUubWFlPic=

> <r_lp_tautomer_probability>
1

> <r_epik_Ionization_Penalty>
0.00851647

> <r_epik_Ionization_Penalty_Charging>
0

> <r_epik_Ionization_Penalty_Neutral>
0.00851647

> <r_epik_State_Penalty>
0.00617896

> <r_epik_Charging_Adjusted_Penalty>
0.00617896

> <i_epik_Tot_Q>
0

> <i_epik_Tot_abs_Q>
0

> <r_epik_Metal_State_Penalty>
0.00609441

> <b_epik_Metal_Only>
0

> <s_lp_Force_Field>
OPLS_2005

> <r_lp_Energy>
53.402

> <b_lp_Chiralities_Consistent>
1

> <s_lp_Variant>
AV-unprocessed.smi:179-1

> <Gold.Version>
5.8.1

> <Gold.Id.Protein>
6NUR|6NUR_protein|mol2

> <Gold.PLP.Fitness>
43.1198

> <Gold.PLP.PLP>
-34.9246

> <Gold.PLP.part.hbond>
-3.0000

> <Gold.PLP.part.metal>
0.0000

> <Gold.PLP.part.buried>
-2.4133

> <Gold.PLP.part.nonpolar>
-31.5143

> <Gold.PLP.part.repulsive>
0.8661

> <Gold.PLP.ligand.clash>
0.0000

> <Gold.PLP.ligand.torsion>
0.3762

> <Gold.PLP.Chemscore.Hbond>
2.0000

> <Gold.PLP.Chemscore.CHOScore>
0.7566

> <Gold.PLP.Chemscore.Metal>
0.0000

> <Gold.Chemscore.Hbonds>
donor molecule, donor type, donor heavy atom, donor atom, acceptor molecule, acceptor atom, score
      L1  H    16    38       P1 10186  1.00
      P1  H  7997  8009       L1     1  1.00
      L1  C     9    35       P1  7957  0.78

> <Gold.PLP.Chemscore.Internal.Correction>
0.6778

> <Gold.Rescore>
     Score         DG    S(hbond)    S(metal)    S(lipo)     H(rot)  DE(clash)    DE(int)     intcor
      6.08      -7.86       1.86        0.00      59.77       4.22       0.40       1.38       ----

> <Gold.Chemscore.Fitness>
6.0775

> <Gold.Chemscore.DG>
-7.8587

> <Gold.Chemscore.ZeroCoef>
-5.4800

> <Gold.Chemscore.Hbond>
1.8554

> <Gold.Chemscore.Metal>
0.0000

> <Gold.Chemscore.Lipo>
59.7659

> <Gold.Chemscore.Internal_Hbond>
0.0000

> <Gold.Chemscore.DEClash>
0.4040

> <Gold.Chemscore.DEInternal>
1.3771

> <Gold.Chemscore.Rot>
4.2230

> <Gold.Chemscore.Internal.Correction>
   9.000000E+99

> <Gold.Chemscore.Hbonds>
donor molecule, donor type, donor heavy atom, donor atom, acceptor molecule, acceptor atom, score
      L1  H    16    38       P1 10186  0.95
      P1  H  7997  8009       L1     1  0.29

> <Gold.Chemscore.Hbond.Weighted>
-6.1970

> <Gold.Chemscore.Metal.Weighted>
-0.0000

> <Gold.Chemscore.Lipo.Weighted>
-6.9926

> <Gold.Chemscore.Internal_Hbond.Weighted>
0.0000

> <Gold.Chemscore.DEClash.Weighted>
0.4040

> <Gold.Chemscore.DEInternal.Weighted>
1.3771

> <Gold.Chemscore.Rot.Weighted>
10.8110

> <Gold.Chemscore.Internal.Correction.Weighted>
   9.000000E+99

> <Gold.Protein.RotatedTorsions>
[ 6907 6896 6895 6894 ] final  -21.48 input  -60.11 | X-H torsion
[ 7974 7965 7964 7962 ] final   41.97 input  175.53 | X-H torsion
[ 8008 7997 7996 7995 ] final -137.76 input   59.86 | X-H torsion
[ 10167 10162 10161 10158 ] final   71.06 input  -65.29 | X-H torsion
[ 10718 10713 10712 10709 ] final  104.54 input   66.30 | X-H torsion
[ 10763 10752 10751 10750 ] final  141.31 input  -60.55 | X-H torsion
[ 11005 11000 10999 10996 ] final  162.21 input  -57.11 | X-H torsion

> <Gold.Protein.ActiveResidues>
 VAL166  LYS551  ARG553  GLY616  TRP617  ASP618  TYR619  PRO620  LYS621  CYS622 
 ASP623  PHE694  ASN695  SER759  ASP760  ASP761  ALA762  ILE779  LEU786  VAL792 
 PHE793  MET794  SER795  GLU796  ALA797  LYS798  CYS799  TRP800  GLU811  SER814 

> <Gold.Protein.RotatedAtoms>
  151.2326  135.0560  159.8993 H   0  0  0  0  0  0  0  0  0  0  0  0  # atno 6907 bound_to 6896
  152.5403  134.0520  159.8124 H   0  0  0  0  0  0  0  0  0  0  0  0  # atno 6908 bound_to 6896
  151.0702  133.5424  159.2659 H   0  0  0  0  0  0  0  0  0  0  0  0  # atno 6909 bound_to 6896
  146.0779  139.5354  142.9555 H   0  0  0  0  0  0  0  0  0  0  0  0  # atno 7974 bound_to 7965
  155.4171  140.0516  157.3028 H   0  0  0  0  0  0  0  0  0  0  0  0  # atno 8008 bound_to 7997
  154.4919  140.2123  155.9488 H   0  0  0  0  0  0  0  0  0  0  0  0  # atno 8009 bound_to 7997
  156.1354  140.3164  155.8418 H   0  0  0  0  0  0  0  0  0  0  0  0  # atno 8010 bound_to 7997
  140.0502  144.5318  150.7369 H   0  0  0  0  0  0  0  0  0  0  0  0  # atno 10167 bound_to 10162
  157.6736  131.0806  150.5722 H   0  0  0  0  0  0  0  0  0  0  0  0  # atno 10718 bound_to 10713
  153.9371  135.2984  155.3444 H   0  0  0  0  0  0  0  0  0  0  0  0  # atno 10763 bound_to 10752
  154.7496  135.4986  153.9269 H   0  0  0  0  0  0  0  0  0  0  0  0  # atno 10764 bound_to 10752
  153.1061  135.6747  153.9690 H   0  0  0  0  0  0  0  0  0  0  0  0  # atno 10765 bound_to 10752
  140.2235  134.8178  157.3245 H   0  0  0  0  0  0  0  0  0  0  0  0  # atno 11005 bound_to 11000
  145.6271  141.0311  143.1883 LP  0  0  0  0  0  0  0  0  0  0  0  0  # atno 17320 bound_to 7965
  144.7274  139.7833  143.7360 LP  0  0  0  0  0  0  0  0  0  0  0  0  # atno 17321 bound_to 7965
  140.7220  143.2598  151.4246 LP  0  0  0  0  0  0  0  0  0  0  0  0  # atno 17342 bound_to 10162
  139.5958  144.1400  152.2142 LP  0  0  0  0  0  0  0  0  0  0  0  0  # atno 17343 bound_to 10162
  156.6023  130.4358  149.5892 LP  0  0  0  0  0  0  0  0  0  0  0  0  # atno 17370 bound_to 10713
  156.2496  130.6899  151.1632 LP  0  0  0  0  0  0  0  0  0  0  0  0  # atno 17371 bound_to 10713
  140.1825  134.4472  155.7764 LP  0  0  0  0  0  0  0  0  0  0  0  0  # atno 17394 bound_to 11000
  141.2222  133.6990  156.7892 LP  0  0  0  0  0  0  0  0  0  0  0  0  # atno 17395 bound_to 11000

$$$$
