AV-unprocessed.smi:3186|AV-procd|sdf|12173|dock5
  -GOLD-   2272018 13D 1   1.00000     0.00000
 Structure written by MMmdl.
 37 38  0  0  0  0  0  0  0  0  2 V2000
  148.7189  138.8404  154.1157 C   0  0  0  0  0  0  0  0  0  0  0  0
  150.1640  138.8570  154.5817 C   0  0  0  0  0  0  0  0  0  0  0  0
  151.0101  137.7688  154.2745 C   0  0  0  0  0  0  0  0  0  0  0  0
  152.3054  137.7012  154.6464 N   0  0  0  0  0  0  0  0  0  0  0  0
  152.8150  138.7340  155.3483 C   0  0  0  0  0  0  0  0  0  0  0  0
  152.0623  139.8686  155.7090 C   0  0  0  0  0  0  0  0  0  0  0  0
  150.7081  139.9379  155.3196 C   0  0  0  0  0  0  0  0  0  0  0  0
  149.8826  141.1544  155.7079 C   0  0  0  0  0  0  0  0  0  0  0  0
  150.3643  141.7852  157.0219 C   0  0  0  0  0  0  0  0  0  0  0  0
  151.1271  143.0249  156.7655 N   0  3  0  0  0  0  0  0  0  0  0  0
  151.7363  143.6496  157.9612 C   0  0  2  0  0  0  0  0  0  0  0  0
  152.3209  142.5779  158.9084 C   0  0  0  0  0  0  0  0  0  0  0  0
  153.0124  143.1827  160.1416 C   0  0  0  0  0  0  0  0  0  0  0  0
  152.0552  144.0158  161.0045 C   0  0  0  0  0  0  0  0  0  0  0  0
  151.3961  145.4235  160.0727 S   0  0  0  0  0  0  0  0  0  0  0  0
  150.6807  144.5108  158.6785 C   0  0  0  0  0  0  0  0  0  0  0  0
  148.4615  137.8811  153.6651 H   0  0  0  0  0  0  0  0  0  0  0  0
  148.5522  139.6166  153.3687 H   0  0  0  0  0  0  0  0  0  0  0  0
  148.0380  139.0080  154.9497 H   0  0  0  0  0  0  0  0  0  0  0  0
  150.6382  136.9244  153.7126 H   0  0  0  0  0  0  0  0  0  0  0  0
  153.8536  138.6541  155.6333 H   0  0  0  0  0  0  0  0  0  0  0  0
  152.5205  140.6670  156.2740 H   0  0  0  0  0  0  0  0  0  0  0  0
  149.9424  141.8888  154.9033 H   0  0  0  0  0  0  0  0  0  0  0  0
  148.8298  140.8809  155.7808 H   0  0  0  0  0  0  0  0  0  0  0  0
  149.5094  142.0000  157.6617 H   0  0  0  0  0  0  0  0  0  0  0  0
  150.9982  141.0802  157.5616 H   0  0  0  0  0  0  0  0  0  0  0  0
  151.8744  142.7879  156.1286 H   0  0  0  0  0  0  0  0  0  0  0  0
  152.5371  144.3108  157.6254 H   0  0  0  0  0  0  0  0  0  0  0  0
  151.5306  141.8989  159.2315 H   0  0  0  0  0  0  0  0  0  0  0  0
  153.0494  141.9637  158.3800 H   0  0  0  0  0  0  0  0  0  0  0  0
  153.4317  142.3789  160.7476 H   0  0  0  0  0  0  0  0  0  0  0  0
  153.8561  143.7986  159.8277 H   0  0  0  0  0  0  0  0  0  0  0  0
  151.2263  143.4010  161.3570 H   0  0  0  0  0  0  0  0  0  0  0  0
  152.5726  144.3922  161.8873 H   0  0  0  0  0  0  0  0  0  0  0  0
  150.2476  145.2354  157.9879 H   0  0  0  0  0  0  0  0  0  0  0  0
  149.8614  143.8913  159.0456 H   0  0  0  0  0  0  0  0  0  0  0  0
  150.5270  143.7016  156.3161 H   0  0  0  0  0  0  0  0  0  0  0  0
  1  2  1  0  0  0  0
  1 17  1  0  0  0  0
  1 18  1  0  0  0  0
  1 19  1  0  0  0  0
  2  7  1  0  0  0  0
  2  3  2  0  0  0  0
  3  4  1  0  0  0  0
  3 20  1  0  0  0  0
  4  5  2  0  0  0  0
  5  6  1  0  0  0  0
  5 21  1  0  0  0  0
  6  7  2  0  0  0  0
  6 22  1  0  0  0  0
  7  8  1  0  0  0  0
  8  9  1  0  0  0  0
  8 23  1  0  0  0  0
  8 24  1  0  0  0  0
  9 10  1  0  0  0  0
  9 25  1  0  0  0  0
  9 26  1  0  0  0  0
 10 11  1  0  0  0  0
 10 27  1  0  0  0  0
 10 37  1  0  0  0  0
 11 16  1  0  0  0  0
 11 12  1  0  0  0  0
 11 28  1  0  0  0  0
 12 13  1  0  0  0  0
 12 29  1  0  0  0  0
 12 30  1  0  0  0  0
 13 14  1  0  0  0  0
 13 31  1  0  0  0  0
 13 32  1  0  0  0  0
 14 15  1  0  0  0  0
 14 33  1  0  0  0  0
 14 34  1  0  0  0  0
 15 16  1  0  0  0  0
 16 35  1  0  0  0  0
 16 36  1  0  0  0  0
M  CHG  1  10   1
M  END
> <s_m_source_file>
AV-unprocessed.smi

> <i_m_source_file_index>
3186

> <i_lp_mmshare_version>
43012

> <i_f3d_flags>
0

> <s_epik_input>
W0NIM11jMVtjSF1uW2NIXVtjSF1jMVtDSDJdW0NIMl1bTkhdW0NAQEhdMltDSDJdW0NIMl1bQ0gyXVNbQ0gyXTI=

> <s_epik_cmdline>
J2VwaWtfcHl0aG9uJywgJy1waCcsICc3LjAnLCAnLXRuJywgJzgnLCAnLW1hJywgJzIwMCcsICctbWV0YWxfYmluZGluZycsICctaW1hZScsICc8aW5maWxlLm1hZT4nLCAnLW9tYWUnLCAnPG91dGZpbGUubWFlPic=

> <r_epik_Ionization_Penalty>
0.00563987

> <r_epik_Ionization_Penalty_Charging>
0.00306352

> <r_epik_Ionization_Penalty_Neutral>
0.00257635

> <r_epik_State_Penalty>
0.00506628

> <r_epik_Charging_Adjusted_Penalty>
0.0081298

> <i_epik_Tot_Q>
1

> <i_epik_Tot_abs_Q>
1

> <r_epik_Metal_State_Penalty>
-0

> <b_epik_Metal_Only>
0

> <s_lp_Force_Field>
OPLS_2005

> <r_lp_Energy>
10.8163

> <b_lp_Chiralities_Consistent>
1

> <s_lp_Variant>
AV-unprocessed.smi:3186-1

> <Gold.Version>
5.8.1

> <Gold.Id.Protein>
6NUR|6NUR_protein|mol2

> <Gold.PLP.Fitness>
52.6239

> <Gold.PLP.PLP>
-43.8405

> <Gold.PLP.part.hbond>
-2.0000

> <Gold.PLP.part.metal>
0.0000

> <Gold.PLP.part.buried>
-3.5532

> <Gold.PLP.part.nonpolar>
-39.6597

> <Gold.PLP.part.repulsive>
0.1498

> <Gold.PLP.ligand.clash>
0.0000

> <Gold.PLP.ligand.torsion>
0.9076

> <Gold.PLP.Chemscore.Hbond>
2.4462

> <Gold.PLP.Chemscore.CHOScore>
1.0812

> <Gold.PLP.Chemscore.Metal>
0.0000

> <Gold.Chemscore.Hbonds>
donor molecule, donor type, donor heavy atom, donor atom, acceptor molecule, acceptor atom, score
      L1  H    10    37       P1  8028  2.00
      P1  H 10752 10765       L1     4  0.47
      L1  C     3    20       P1  7948  0.46
      L1  C     3    20       P1  7949  0.65

> <Gold.PLP.Chemscore.Internal.Correction>
0.0166

> <Gold.Rescore>
     Score         DG    S(hbond)    S(metal)    S(lipo)     H(rot)  DE(clash)    DE(int)     intcor
     21.65     -22.24       1.77        0.00     121.25       1.30       0.05       0.53       ----

> <Gold.Chemscore.Fitness>
21.6504

> <Gold.Chemscore.DG>
-22.2350

> <Gold.Chemscore.ZeroCoef>
-5.4800

> <Gold.Chemscore.Hbond>
1.7680

> <Gold.Chemscore.Metal>
0.0000

> <Gold.Chemscore.Lipo>
121.2463

> <Gold.Chemscore.Internal_Hbond>
0.0000

> <Gold.Chemscore.DEClash>
0.0508

> <Gold.Chemscore.DEInternal>
0.5338

> <Gold.Chemscore.Rot>
1.3031

> <Gold.Chemscore.Internal.Correction>
   9.000000E+99

> <Gold.Chemscore.Hbonds>
donor molecule, donor type, donor heavy atom, donor atom, acceptor molecule, acceptor atom, score
      L1  H    10    37       P1  8028  0.93
      P1  H 10752 10765       L1     4  0.31

> <Gold.Chemscore.Hbond.Weighted>
-5.9052

> <Gold.Chemscore.Metal.Weighted>
-0.0000

> <Gold.Chemscore.Lipo.Weighted>
-14.1858

> <Gold.Chemscore.Internal_Hbond.Weighted>
0.0000

> <Gold.Chemscore.DEClash.Weighted>
0.0508

> <Gold.Chemscore.DEInternal.Weighted>
0.5338

> <Gold.Chemscore.Rot.Weighted>
3.3361

> <Gold.Chemscore.Internal.Correction.Weighted>
   9.000000E+99

> <Gold.Protein.RotatedTorsions>
[ 6907 6896 6895 6894 ] final   52.54 input  -60.11 | X-H torsion
[ 7974 7965 7964 7962 ] final  -11.19 input  175.53 | X-H torsion
[ 8008 7997 7996 7995 ] final  -10.37 input   59.86 | X-H torsion
[ 10167 10162 10161 10158 ] final -159.63 input  -65.29 | X-H torsion
[ 10718 10713 10712 10709 ] final -142.95 input   66.30 | X-H torsion
[ 10763 10752 10751 10750 ] final  164.72 input  -60.55 | X-H torsion
[ 11005 11000 10999 10996 ] final  117.28 input  -57.11 | X-H torsion

> <Gold.Protein.ActiveResidues>
 VAL166  LYS551  ARG553  GLY616  TRP617  ASP618  TYR619  PRO620  LYS621  CYS622 
 ASP623  PHE694  ASN695  SER759  ASP760  ASP761  ALA762  ILE779  LEU786  VAL792 
 PHE793  MET794  SER795  GLU796  ALA797  LYS798  CYS799  TRP800  GLU811  SER814 

> <Gold.Protein.RotatedAtoms>
  152.3243  134.7340  160.0305 H   0  0  0  0  0  0  0  0  0  0  0  0  # atno 6907 bound_to 6896
  151.7778  133.3341  159.3471 H   0  0  0  0  0  0  0  0  0  0  0  0  # atno 6908 bound_to 6896
  150.7387  134.5890  159.6022 H   0  0  0  0  0  0  0  0  0  0  0  0  # atno 6909 bound_to 6896
  146.2196  140.2875  142.8366 H   0  0  0  0  0  0  0  0  0  0  0  0  # atno 7974 bound_to 7965
  154.5561  140.2330  155.8408 H   0  0  0  0  0  0  0  0  0  0  0  0  # atno 8008 bound_to 7997
  156.1989  140.3057  155.9446 H   0  0  0  0  0  0  0  0  0  0  0  0  # atno 8009 bound_to 7997
  155.2977  140.0429  157.3018 H   0  0  0  0  0  0  0  0  0  0  0  0  # atno 8010 bound_to 7997
  139.6600  143.9929  152.2219 H   0  0  0  0  0  0  0  0  0  0  0  0  # atno 10167 bound_to 10162
  156.3521  130.7693  151.1848 H   0  0  0  0  0  0  0  0  0  0  0  0  # atno 10718 bound_to 10713
  154.3132  135.2757  155.2556 H   0  0  0  0  0  0  0  0  0  0  0  0  # atno 10763 bound_to 10752
  154.4941  135.5825  153.6485 H   0  0  0  0  0  0  0  0  0  0  0  0  # atno 10764 bound_to 10752
  152.9885  135.6142  154.3311 H   0  0  0  0  0  0  0  0  0  0  0  0  # atno 10765 bound_to 10752
  139.9069  134.9608  156.7327 H   0  0  0  0  0  0  0  0  0  0  0  0  # atno 11005 bound_to 11000
  144.9151  140.7803  143.5783 LP  0  0  0  0  0  0  0  0  0  0  0  0  # atno 17320 bound_to 7965
  145.2808  139.1919  143.4792 LP  0  0  0  0  0  0  0  0  0  0  0  0  # atno 17321 bound_to 7965
  139.9666  144.6522  150.8029 LP  0  0  0  0  0  0  0  0  0  0  0  0  # atno 17342 bound_to 10162
  140.7576  143.3089  151.2893 LP  0  0  0  0  0  0  0  0  0  0  0  0  # atno 17343 bound_to 10162
  157.7462  131.0424  150.4695 LP  0  0  0  0  0  0  0  0  0  0  0  0  # atno 17370 bound_to 10713
  156.4892  130.4091  149.6416 LP  0  0  0  0  0  0  0  0  0  0  0  0  # atno 17371 bound_to 10713
  140.6912  133.9388  155.7967 LP  0  0  0  0  0  0  0  0  0  0  0  0  # atno 17394 bound_to 11000
  141.0440  134.0581  157.3867 LP  0  0  0  0  0  0  0  0  0  0  0  0  # atno 17395 bound_to 11000

$$$$
