AV-unprocessed.smi:1988|AV-procd|sdf|8059|dock4
  -GOLD-   2272010263D 1   1.00000     0.00000
 Structure written by MMmdl.
 37 38  0  0  0  0  0  0  0  0  1 V2000
  138.2751  137.0634  154.4431 C   0  0  0  0  0  0  0  0  0  0  0  0
  139.6879  136.7318  154.0564 C   0  0  0  0  0  0  0  0  0  0  0  0
  140.1037  135.4780  154.1174 N   0  0  0  0  0  0  0  0  0  0  0  0
  141.4374  135.4960  153.6985 O   0  0  0  0  0  0  0  0  0  0  0  0
  141.7765  136.7752  153.3978 C   0  0  0  0  0  0  0  0  0  0  0  0
  143.1739  136.9999  152.9278 C   0  0  0  0  0  0  0  0  0  0  0  0
  140.7129  137.6114  153.6027 C   0  0  0  0  0  0  0  0  0  0  0  0
  140.6311  139.1032  153.3997 C   0  0  0  0  0  0  0  0  0  0  0  0
  140.9225  139.8276  154.7146 C   0  0  0  0  0  0  0  0  0  0  0  0
  140.1199  139.7598  155.6448 O   0  0  0  0  0  0  0  0  0  0  0  0
  142.0695  140.5225  154.7744 N   0  0  0  0  0  0  0  0  0  0  0  0
  142.5501  141.2734  155.9298 C   0  0  0  0  0  0  0  0  0  0  0  0
  144.0342  140.9885  156.2325 C   0  0  1  0  0  0  0  0  0  0  0  0
  144.9820  142.1559  155.8826 C   0  0  0  0  0  0  0  0  0  0  0  0
  146.3587  141.8730  156.4922 C   0  0  0  0  0  0  0  0  0  0  0  0
  146.0338  140.9696  158.0508 S   0  0  0  0  0  0  0  0  0  0  0  0
  146.7870  139.7063  158.0370 O   0  0  0  0  0  0  0  0  0  0  0  0
  146.1324  141.8978  159.1873 O   0  0  0  0  0  0  0  0  0  0  0  0
  144.2649  140.6322  157.7097 C   0  0  0  0  0  0  0  0  0  0  0  0
  138.2313  137.9933  155.0097 H   0  0  0  0  0  0  0  0  0  0  0  0
  137.8319  136.2815  155.0611 H   0  0  0  0  0  0  0  0  0  0  0  0
  137.6490  137.1834  153.5590 H   0  0  0  0  0  0  0  0  0  0  0  0
  143.4721  138.0391  153.0668 H   0  0  0  0  0  0  0  0  0  0  0  0
  143.2666  136.7602  151.8686 H   0  0  0  0  0  0  0  0  0  0  0  0
  143.8746  136.3732  153.4797 H   0  0  0  0  0  0  0  0  0  0  0  0
  141.3392  139.4448  152.6439 H   0  0  0  0  0  0  0  0  0  0  0  0
  139.6441  139.3978  153.0410 H   0  0  0  0  0  0  0  0  0  0  0  0
  142.6646  140.5169  153.9588 H   0  0  0  0  0  0  0  0  0  0  0  0
  142.3840  142.3439  155.7976 H   0  0  0  0  0  0  0  0  0  0  0  0
  141.9424  140.9773  156.7852 H   0  0  0  0  0  0  0  0  0  0  0  0
  144.3475  140.1274  155.6403 H   0  0  0  0  0  0  0  0  0  0  0  0
  145.0571  142.3137  154.8065 H   0  0  0  0  0  0  0  0  0  0  0  0
  144.5880  143.0777  156.3127 H   0  0  0  0  0  0  0  0  0  0  0  0
  146.9445  141.2234  155.8415 H   0  0  0  0  0  0  0  0  0  0  0  0
  146.9322  142.7785  156.6913 H   0  0  0  0  0  0  0  0  0  0  0  0
  143.6744  141.2734  158.3650 H   0  0  0  0  0  0  0  0  0  0  0  0
  144.0288  139.5931  157.9391 H   0  0  0  0  0  0  0  0  0  0  0  0
  1  2  1  0  0  0  0
  1 20  1  0  0  0  0
  1 21  1  0  0  0  0
  1 22  1  0  0  0  0
  2  7  1  0  0  0  0
  2  3  2  0  0  0  0
  3  4  1  0  0  0  0
  4  5  1  0  0  0  0
  5  6  1  0  0  0  0
  5  7  2  0  0  0  0
  6 23  1  0  0  0  0
  6 24  1  0  0  0  0
  6 25  1  0  0  0  0
  7  8  1  0  0  0  0
  8  9  1  0  0  0  0
  8 26  1  0  0  0  0
  8 27  1  0  0  0  0
  9 10  2  0  0  0  0
  9 11  1  0  0  0  0
 11 12  1  0  0  0  0
 11 28  1  0  0  0  0
 12 13  1  0  0  0  0
 12 29  1  0  0  0  0
 12 30  1  0  0  0  0
 13 19  1  0  0  0  0
 13 14  1  0  0  0  0
 13 31  1  0  0  0  0
 14 15  1  0  0  0  0
 14 32  1  0  0  0  0
 14 33  1  0  0  0  0
 15 16  1  0  0  0  0
 15 34  1  0  0  0  0
 15 35  1  0  0  0  0
 16 17  2  0  0  0  0
 16 18  2  0  0  0  0
 16 19  1  0  0  0  0
 19 36  1  0  0  0  0
 19 37  1  0  0  0  0
M  END
> <s_m_source_file>
AV-unprocessed.smi

> <i_m_source_file_index>
1988

> <i_lp_mmshare_version>
43012

> <i_f3d_flags>
0

> <s_epik_input>
W0NIM11jMW5vYyhbQ0gzXSljMVtDSDJdQyg9TylbTkhdW0NIMl1bQ0BASF0oW0NIMl0yKVtDSDJdW0NIMl1TMig9Tyk9Tw==

> <s_epik_cmdline>
J2VwaWtfcHl0aG9uJywgJy1waCcsICc3LjAnLCAnLXRuJywgJzgnLCAnLW1hJywgJzIwMCcsICctbWV0YWxfYmluZGluZycsICctaW1hZScsICc8aW5maWxlLm1hZT4nLCAnLW9tYWUnLCAnPG91dGZpbGUubWFlPic=

> <r_lp_tautomer_probability>
1

> <r_epik_Ionization_Penalty>
2.7503e-08

> <r_epik_Ionization_Penalty_Charging>
0

> <r_epik_Ionization_Penalty_Neutral>
2.7503e-08

> <r_epik_State_Penalty>
-0

> <r_epik_Charging_Adjusted_Penalty>
0

> <i_epik_Tot_Q>
0

> <i_epik_Tot_abs_Q>
0

> <r_epik_Metal_State_Penalty>
-0

> <b_epik_Metal_Only>
0

> <s_lp_Force_Field>
OPLS_2005

> <r_lp_Energy>
-1.59396

> <b_lp_Chiralities_Consistent>
1

> <s_lp_Variant>
AV-unprocessed.smi:1988-2

> <Gold.Version>
5.8.1

> <Gold.Id.Protein>
6NUR|6NUR_protein|mol2

> <Gold.PLP.Fitness>
30.5853

> <Gold.PLP.PLP>
-23.9621

> <Gold.PLP.part.hbond>
-4.7290

> <Gold.PLP.part.metal>
0.0000

> <Gold.PLP.part.buried>
-3.9142

> <Gold.PLP.part.nonpolar>
-16.2125

> <Gold.PLP.part.repulsive>
0.3418

> <Gold.PLP.ligand.clash>
0.0000

> <Gold.PLP.ligand.torsion>
1.1948

> <Gold.PLP.Chemscore.Hbond>
3.0000

> <Gold.PLP.Chemscore.CHOScore>
0.0000

> <Gold.PLP.Chemscore.Metal>
0.0000

> <Gold.Chemscore.Hbonds>
donor molecule, donor type, donor heavy atom, donor atom, acceptor molecule, acceptor atom, score
      L1  H    11    28       P1 10175  1.00
      P1  H  6934  6946       L1    18  0.99
      P1  H 11000 11005       L1     3  1.00

> <Gold.PLP.Chemscore.Internal.Correction>
0.0128

> <Gold.Rescore>
     Score         DG    S(hbond)    S(metal)    S(lipo)     H(rot)  DE(clash)    DE(int)     intcor
     13.09     -14.45       2.67        0.00      37.64       1.70       0.08       1.28       ----

> <Gold.Chemscore.Fitness>
13.0891

> <Gold.Chemscore.DG>
-14.4461

> <Gold.Chemscore.ZeroCoef>
-5.4800

> <Gold.Chemscore.Hbond>
2.6658

> <Gold.Chemscore.Metal>
0.0000

> <Gold.Chemscore.Lipo>
37.6380

> <Gold.Chemscore.Internal_Hbond>
0.0000

> <Gold.Chemscore.DEClash>
0.0811

> <Gold.Chemscore.DEInternal>
1.2759

> <Gold.Chemscore.Rot>
1.6958

> <Gold.Chemscore.Internal.Correction>
   9.000000E+99

> <Gold.Chemscore.Hbonds>
donor molecule, donor type, donor heavy atom, donor atom, acceptor molecule, acceptor atom, score
      L1  H    11    28       P1 10175  0.78
      P1  H  6934  6946       L1    18  0.50
      P1  H 11000 11005       L1     3  0.57

> <Gold.Chemscore.Hbond.Weighted>
-8.9037

> <Gold.Chemscore.Metal.Weighted>
-0.0000

> <Gold.Chemscore.Lipo.Weighted>
-4.4036

> <Gold.Chemscore.Internal_Hbond.Weighted>
0.0000

> <Gold.Chemscore.DEClash.Weighted>
0.0811

> <Gold.Chemscore.DEInternal.Weighted>
1.2759

> <Gold.Chemscore.Rot.Weighted>
4.3413

> <Gold.Chemscore.Internal.Correction.Weighted>
   9.000000E+99

> <Gold.Protein.RotatedTorsions>
[ 6907 6896 6895 6894 ] final  167.43 input  -60.11 | X-H torsion
[ 7974 7965 7964 7962 ] final -151.62 input  175.53 | X-H torsion
[ 8008 7997 7996 7995 ] final    0.75 input   59.86 | X-H torsion
[ 10167 10162 10161 10158 ] final -160.16 input  -65.29 | X-H torsion
[ 10718 10713 10712 10709 ] final -100.88 input   66.30 | X-H torsion
[ 10763 10752 10751 10750 ] final  165.82 input  -60.55 | X-H torsion
[ 11005 11000 10999 10996 ] final   53.79 input  -57.11 | X-H torsion

> <Gold.Protein.ActiveResidues>
 VAL166  LYS551  ARG553  GLY616  TRP617  ASP618  TYR619  PRO620  LYS621  CYS622 
 ASP623  PHE694  ASN695  SER759  ASP760  ASP761  ALA762  ILE779  LEU786  VAL792 
 PHE793  MET794  SER795  GLU796  ALA797  LYS798  CYS799  TRP800  GLU811  SER814 

> <Gold.Protein.RotatedAtoms>
  151.8634  133.3461  159.3710 H   0  0  0  0  0  0  0  0  0  0  0  0  # atno 6907 bound_to 6896
  150.7173  134.5184  159.5651 H   0  0  0  0  0  0  0  0  0  0  0  0  # atno 6908 bound_to 6896
  152.2702  134.7941  160.0466 H   0  0  0  0  0  0  0  0  0  0  0  0  # atno 6909 bound_to 6896
  144.7839  140.4773  143.5819 H   0  0  0  0  0  0  0  0  0  0  0  0  # atno 7974 bound_to 7965
  154.6717  140.2613  155.7000 H   0  0  0  0  0  0  0  0  0  0  0  0  # atno 8008 bound_to 7997
  156.2661  140.2828  156.1151 H   0  0  0  0  0  0  0  0  0  0  0  0  # atno 8009 bound_to 7997
  155.1159  140.0376  157.2727 H   0  0  0  0  0  0  0  0  0  0  0  0  # atno 8010 bound_to 7997
  139.6560  143.9998  152.2194 H   0  0  0  0  0  0  0  0  0  0  0  0  # atno 10167 bound_to 10162
  156.0177  130.5348  150.6882 H   0  0  0  0  0  0  0  0  0  0  0  0  # atno 10718 bound_to 10713
  154.3297  135.2755  155.2478 H   0  0  0  0  0  0  0  0  0  0  0  0  # atno 10763 bound_to 10752
  154.4795  135.5862  153.6383 H   0  0  0  0  0  0  0  0  0  0  0  0  # atno 10764 bound_to 10752
  152.9868  135.6108  154.3488 H   0  0  0  0  0  0  0  0  0  0  0  0  # atno 10765 bound_to 10752
  140.0738  134.5432  155.9018 H   0  0  0  0  0  0  0  0  0  0  0  0  # atno 11005 bound_to 11000
  145.5974  139.1500  143.3148 LP  0  0  0  0  0  0  0  0  0  0  0  0  # atno 17320 bound_to 7965
  146.2062  140.6097  142.9080 LP  0  0  0  0  0  0  0  0  0  0  0  0  # atno 17321 bound_to 7965
  139.9724  144.6484  150.7976 LP  0  0  0  0  0  0  0  0  0  0  0  0  # atno 17342 bound_to 10162
  140.7559  143.3056  151.2972 LP  0  0  0  0  0  0  0  0  0  0  0  0  # atno 17343 bound_to 10162
  157.4569  131.0879  151.0787 LP  0  0  0  0  0  0  0  0  0  0  0  0  # atno 17370 bound_to 10713
  157.1286  130.6092  149.5523 LP  0  0  0  0  0  0  0  0  0  0  0  0  # atno 17371 bound_to 10713
  141.2022  133.6623  156.5992 LP  0  0  0  0  0  0  0  0  0  0  0  0  # atno 17394 bound_to 11000
  140.3587  134.7706  157.4519 LP  0  0  0  0  0  0  0  0  0  0  0  0  # atno 17395 bound_to 11000

$$$$
