AV-unprocessed.smi:3201|AV-procd|sdf|12237|dock1
  -GOLD-   2272018 73D 1   1.00000     0.00000
 Structure written by MMmdl.
 41 43  0  0  0  0  0  0  0  0  2 V2000
  152.0552  144.7801  160.1646 C   0  0  0  0  0  0  0  0  0  0  0  0
  152.2704  143.3551  159.7680 C   0  0  0  0  0  0  0  0  0  0  0  0
  151.9863  142.6984  158.6006 C   0  0  0  0  0  0  0  0  0  0  0  0
  151.3547  143.2281  157.3424 C   0  0  0  0  0  0  0  0  0  0  0  0
  150.7432  142.0977  156.5051 C   0  0  0  0  0  0  0  0  0  0  0  0
  149.2680  142.1654  156.5175 N   0  3  0  0  0  0  0  0  0  0  0  0
  148.5996  141.1311  155.6980 C   0  0  2  0  0  0  0  0  0  0  0  0
  148.7858  141.3124  154.1754 C   0  0  0  0  0  0  0  0  0  0  0  0
  147.3381  141.2583  153.6490 C   0  0  2  0  0  0  0  0  0  0  0  0
  146.6382  142.5880  153.9796 C   0  0  0  0  0  0  0  0  0  0  0  0
  146.4490  142.4973  155.5047 C   0  0  0  0  0  0  0  0  0  0  0  0
  147.0631  141.1227  155.8505 C   0  0  1  0  0  0  0  0  0  0  0  0
  146.6640  140.3014  154.6283 C   0  0  0  0  0  0  0  0  0  0  0  0
  152.4271  141.3674  158.8470 C   0  0  0  0  0  0  0  0  0  0  0  0
  152.9371  141.2109  160.0552 N   0  0  0  0  0  0  0  0  0  0  0  0
  152.8425  142.4310  160.6224 N   0  0  0  0  0  0  0  0  0  0  0  0
  153.3226  142.6243  161.9774 C   0  0  0  0  0  0  0  0  0  0  0  0
  151.4957  145.3229  159.4030 H   0  0  0  0  0  0  0  0  0  0  0  0
  153.0084  145.2891  160.3083 H   0  0  0  0  0  0  0  0  0  0  0  0
  151.4936  144.8441  161.0966 H   0  0  0  0  0  0  0  0  0  0  0  0
  150.5847  143.9634  157.5787 H   0  0  0  0  0  0  0  0  0  0  0  0
  152.0943  143.7595  156.7423 H   0  0  0  0  0  0  0  0  0  0  0  0
  151.1026  142.1634  155.4773 H   0  0  0  0  0  0  0  0  0  0  0  0
  151.0609  141.1303  156.8964 H   0  0  0  0  0  0  0  0  0  0  0  0
  148.9615  142.0545  157.4735 H   0  0  0  0  0  0  0  0  0  0  0  0
  148.9815  140.1539  155.9989 H   0  0  0  0  0  0  0  0  0  0  0  0
  149.2768  142.2492  153.9081 H   0  0  0  0  0  0  0  0  0  0  0  0
  149.3825  140.4967  153.7653 H   0  0  0  0  0  0  0  0  0  0  0  0
  147.2632  140.9750  152.5987 H   0  0  0  0  0  0  0  0  0  0  0  0
  147.2288  143.4553  153.6820 H   0  0  0  0  0  0  0  0  0  0  0  0
  145.6723  142.6540  153.4770 H   0  0  0  0  0  0  0  0  0  0  0  0
  146.9219  143.3245  156.0342 H   0  0  0  0  0  0  0  0  0  0  0  0
  145.3872  142.5152  155.7545 H   0  0  0  0  0  0  0  0  0  0  0  0
  146.7207  140.7176  156.8033 H   0  0  0  0  0  0  0  0  0  0  0  0
  145.5840  140.2287  154.4878 H   0  0  0  0  0  0  0  0  0  0  0  0
  147.0932  139.2977  154.6175 H   0  0  0  0  0  0  0  0  0  0  0  0
  152.3889  140.5140  158.1859 H   0  0  0  0  0  0  0  0  0  0  0  0
  154.1646  143.3168  161.9714 H   0  0  0  0  0  0  0  0  0  0  0  0
  153.6471  141.6773  162.4111 H   0  0  0  0  0  0  0  0  0  0  0  0
  152.5246  143.0370  162.5947 H   0  0  0  0  0  0  0  0  0  0  0  0
  148.9764  143.0751  156.1897 H   0  0  0  0  0  0  0  0  0  0  0  0
  1  2  1  0  0  0  0
  1 18  1  0  0  0  0
  1 19  1  0  0  0  0
  1 20  1  0  0  0  0
  2 16  1  0  0  0  0
  2  3  2  0  0  0  0
  3  4  1  0  0  0  0
  3 14  1  0  0  0  0
  4  5  1  0  0  0  0
  4 21  1  0  0  0  0
  4 22  1  0  0  0  0
  5  6  1  0  0  0  0
  5 23  1  0  0  0  0
  5 24  1  0  0  0  0
  6  7  1  0  0  0  0
  6 25  1  0  0  0  0
  6 41  1  0  0  0  0
  7 12  1  0  0  0  0
  7  8  1  0  0  0  0
  7 26  1  0  0  0  0
  8  9  1  0  0  0  0
  8 27  1  0  0  0  0
  8 28  1  0  0  0  0
  9 13  1  0  0  0  0
  9 10  1  0  0  0  0
  9 29  1  0  0  0  0
 10 11  1  0  0  0  0
 10 30  1  0  0  0  0
 10 31  1  0  0  0  0
 11 12  1  0  0  0  0
 11 32  1  0  0  0  0
 11 33  1  0  0  0  0
 12 13  1  0  0  0  0
 12 34  1  0  0  0  0
 13 35  1  0  0  0  0
 13 36  1  0  0  0  0
 14 15  2  0  0  0  0
 14 37  1  0  0  0  0
 15 16  1  0  0  0  0
 16 17  1  0  0  0  0
 17 38  1  0  0  0  0
 17 39  1  0  0  0  0
 17 40  1  0  0  0  0
M  CHG  1   6   1
M  END
> <s_m_source_file>
AV-unprocessed.smi

> <i_m_source_file_index>
3201

> <i_lp_mmshare_version>
43012

> <i_f3d_flags>
0

> <s_epik_input>
W0NIM11uMW5bY0hdYyhjMVtDSDNdKVtDSDJdW0NIMl1bTkhdW0NASF0oW0NIMl1bQ0BIXTIzKVtDQEhdKFtDSDJdMylbQ0gyXVtDSDJdMg==

> <s_epik_cmdline>
J2VwaWtfcHl0aG9uJywgJy1waCcsICc3LjAnLCAnLXRuJywgJzgnLCAnLW1hJywgJzIwMCcsICctbWV0YWxfYmluZGluZycsICctaW1hZScsICc8aW5maWxlLm1hZT4nLCAnLW9tYWUnLCAnPG91dGZpbGUubWFlPic=

> <r_lp_tautomer_probability>
1

> <r_epik_Ionization_Penalty>
0.000331174

> <r_epik_Ionization_Penalty_Charging>
0.000242709

> <r_epik_Ionization_Penalty_Neutral>
8.84659e-05

> <r_epik_State_Penalty>
-0

> <r_epik_Charging_Adjusted_Penalty>
0.000242709

> <i_epik_Tot_Q>
1

> <i_epik_Tot_abs_Q>
1

> <r_epik_Metal_State_Penalty>
-0

> <b_epik_Metal_Only>
0

> <s_lp_Force_Field>
OPLS_2005

> <r_lp_Energy>
50.9619

> <b_lp_Chiralities_Consistent>
1

> <s_lp_Variant>
AV-unprocessed.smi:3201-1

> <Gold.Version>
5.8.1

> <Gold.Id.Protein>
6NUR|6NUR_protein|mol2

> <Gold.PLP.Fitness>
46.6386

> <Gold.PLP.PLP>
-41.9843

> <Gold.PLP.part.hbond>
-1.0000

> <Gold.PLP.part.metal>
0.0000

> <Gold.PLP.part.buried>
-4.6937

> <Gold.PLP.part.nonpolar>
-36.1864

> <Gold.PLP.part.repulsive>
0.0356

> <Gold.PLP.ligand.clash>
0.0000

> <Gold.PLP.ligand.torsion>
0.6893

> <Gold.PLP.Chemscore.Hbond>
2.0000

> <Gold.PLP.Chemscore.CHOScore>
0.0000

> <Gold.PLP.Chemscore.Metal>
0.0000

> <Gold.Chemscore.Hbonds>
donor molecule, donor type, donor heavy atom, donor atom, acceptor molecule, acceptor atom, score
      L1  H     6    41       P1  8028  2.00

> <Gold.PLP.Chemscore.Internal.Correction>
0.0328

> <Gold.Rescore>
     Score         DG    S(hbond)    S(metal)    S(lipo)     H(rot)  DE(clash)    DE(int)     intcor
     17.64     -18.37       0.99        0.00     111.59       1.36       0.11       0.63       ----

> <Gold.Chemscore.Fitness>
17.6356

> <Gold.Chemscore.DG>
-18.3680

> <Gold.Chemscore.ZeroCoef>
-5.4800

> <Gold.Chemscore.Hbond>
0.9913

> <Gold.Chemscore.Metal>
0.0000

> <Gold.Chemscore.Lipo>
111.5866

> <Gold.Chemscore.Internal_Hbond>
0.0000

> <Gold.Chemscore.DEClash>
0.1066

> <Gold.Chemscore.DEInternal>
0.6258

> <Gold.Chemscore.Rot>
1.3588

> <Gold.Chemscore.Internal.Correction>
   9.000000E+99

> <Gold.Chemscore.Hbonds>
donor molecule, donor type, donor heavy atom, donor atom, acceptor molecule, acceptor atom, score
      L1  H     6    41       P1  8028  1.00

> <Gold.Chemscore.Hbond.Weighted>
-3.3109

> <Gold.Chemscore.Metal.Weighted>
-0.0000

> <Gold.Chemscore.Lipo.Weighted>
-13.0556

> <Gold.Chemscore.Internal_Hbond.Weighted>
0.0000

> <Gold.Chemscore.DEClash.Weighted>
0.1066

> <Gold.Chemscore.DEInternal.Weighted>
0.6258

> <Gold.Chemscore.Rot.Weighted>
3.4786

> <Gold.Chemscore.Internal.Correction.Weighted>
   9.000000E+99

> <Gold.Protein.RotatedTorsions>
[ 6907 6896 6895 6894 ] final   53.23 input  -60.11 | X-H torsion
[ 7974 7965 7964 7962 ] final  135.13 input  175.53 | X-H torsion
[ 8008 7997 7996 7995 ] final  -95.65 input   59.86 | X-H torsion
[ 10167 10162 10161 10158 ] final  164.37 input  -65.29 | X-H torsion
[ 10718 10713 10712 10709 ] final  -33.56 input   66.30 | X-H torsion
[ 10763 10752 10751 10750 ] final   -8.40 input  -60.55 | X-H torsion
[ 11005 11000 10999 10996 ] final  175.90 input  -57.11 | X-H torsion

> <Gold.Protein.ActiveResidues>
 VAL166  LYS551  ARG553  GLY616  TRP617  ASP618  TYR619  PRO620  LYS621  CYS622 
 ASP623  PHE694  ASN695  SER759  ASP760  ASP761  ALA762  ILE779  LEU786  VAL792 
 PHE793  MET794  SER795  GLU796  ALA797  LYS798  CYS799  TRP800  GLU811  SER814 

> <Gold.Protein.RotatedAtoms>
  152.3316  134.7252  160.0287 H   0  0  0  0  0  0  0  0  0  0  0  0  # atno 6907 bound_to 6896
  151.7667  133.3332  159.3441 H   0  0  0  0  0  0  0  0  0  0  0  0  # atno 6908 bound_to 6896
  150.7426  134.5988  159.6070 H   0  0  0  0  0  0  0  0  0  0  0  0  # atno 6909 bound_to 6896
  144.9694  139.4622  143.5440 H   0  0  0  0  0  0  0  0  0  0  0  0  # atno 7974 bound_to 7965
  154.7642  140.0478  157.0998 H   0  0  0  0  0  0  0  0  0  0  0  0  # atno 8008 bound_to 7997
  154.9901  140.3112  155.4890 H   0  0  0  0  0  0  0  0  0  0  0  0  # atno 8009 bound_to 7997
  156.2909  140.2220  156.5005 H   0  0  0  0  0  0  0  0  0  0  0  0  # atno 8010 bound_to 7997
  139.4888  144.4242  151.9149 H   0  0  0  0  0  0  0  0  0  0  0  0  # atno 10167 bound_to 10162
  156.3612  130.4324  149.7622 H   0  0  0  0  0  0  0  0  0  0  0  0  # atno 10718 bound_to 10713
  153.4399  135.7013  153.6175 H   0  0  0  0  0  0  0  0  0  0  0  0  # atno 10763 bound_to 10752
  153.4554  135.3748  155.2308 H   0  0  0  0  0  0  0  0  0  0  0  0  # atno 10764 bound_to 10752
  154.8727  135.4007  154.3796 H   0  0  0  0  0  0  0  0  0  0  0  0  # atno 10765 bound_to 10752
  140.3672  134.7061  157.4369 H   0  0  0  0  0  0  0  0  0  0  0  0  # atno 11005 bound_to 11000
  146.3377  139.8896  142.8811 LP  0  0  0  0  0  0  0  0  0  0  0  0  # atno 17320 bound_to 7965
  145.2581  141.0067  143.3842 LP  0  0  0  0  0  0  0  0  0  0  0  0  # atno 17321 bound_to 7965
  140.3688  144.2882  150.5923 LP  0  0  0  0  0  0  0  0  0  0  0  0  # atno 17342 bound_to 10162
  140.5338  143.2237  151.8196 LP  0  0  0  0  0  0  0  0  0  0  0  0  # atno 17343 bound_to 10162
  156.4785  130.8030  151.3045 LP  0  0  0  0  0  0  0  0  0  0  0  0  # atno 17370 bound_to 10713
  157.7473  131.0013  150.2958 LP  0  0  0  0  0  0  0  0  0  0  0  0  # atno 17371 bound_to 10713
  140.0580  134.6036  155.8782 LP  0  0  0  0  0  0  0  0  0  0  0  0  # atno 17394 bound_to 11000
  141.1966  133.6592  156.5699 LP  0  0  0  0  0  0  0  0  0  0  0  0  # atno 17395 bound_to 11000

$$$$
