AV-unprocessed.smi:1940|AV-procd|sdf|7841|dock3
  -GOLD-   22720 9583D 1   1.00000     0.00000
 Structure written by MMmdl.
 50 52  0  0  0  0  0  0  0  0  2 V2000
  144.5356  137.4219  153.1992 C   0  0  0  0  0  0  0  0  0  0  0  0
  145.6037  136.3286  153.0427 C   0  0  2  0  0  0  0  0  0  0  0  0
  146.9216  136.9370  153.2107 N   0  0  0  0  0  0  0  0  0  0  0  0
  147.3220  137.6685  154.2607 C   0  0  0  0  0  0  0  0  0  0  0  0
  146.6036  137.9356  155.2236 O   0  0  0  0  0  0  0  0  0  0  0  0
  148.6054  138.0433  154.1247 N   0  0  0  0  0  0  0  0  0  0  0  0
  149.3851  138.8600  154.9868 C   0  0  0  0  0  0  0  0  0  0  0  0
  150.7551  139.0138  154.6838 C   0  0  0  0  0  0  0  0  0  0  0  0
  151.5636  139.8356  155.4948 C   0  0  0  0  0  0  0  0  0  0  0  0
  150.9841  140.5044  156.5970 C   0  0  0  0  0  0  0  0  0  0  0  0
  151.7053  141.3490  157.4509 N   0  0  0  0  0  0  0  0  0  0  0  0
  151.2061  142.7217  157.4343 C   0  0  0  0  0  0  0  0  0  0  0  0
  152.1295  143.6509  158.2409 C   0  0  0  0  0  0  0  0  0  0  0  0
  152.3338  143.1179  159.6682 C   0  0  0  0  0  0  0  0  0  0  0  0
  152.8362  141.6660  159.6247 C   0  0  0  0  0  0  0  0  0  0  0  0
  151.8946  140.7854  158.7858 C   0  0  0  0  0  0  0  0  0  0  0  0
  149.6685  140.3371  156.8526 N   0  3  0  0  0  0  0  0  0  0  0  0
  148.8597  139.5574  156.1022 C   0  0  0  0  0  0  0  0  0  0  0  0
  145.5332  135.6283  151.6711 C   0  0  2  0  0  0  0  0  0  0  0  0
  144.1303  135.1902  151.2482 C   0  0  0  0  0  0  0  0  0  0  0  0
  144.4389  134.0838  150.2666 C   0  0  0  0  0  0  0  0  0  0  0  0
  145.6349  133.4067  150.9283 C   0  0  0  0  0  0  0  0  0  0  0  0
  146.2928  134.4205  151.6839 O   0  0  0  0  0  0  0  0  0  0  0  0
  143.5293  137.0084  153.1345 H   0  0  0  0  0  0  0  0  0  0  0  0
  144.6324  138.1855  152.4268 H   0  0  0  0  0  0  0  0  0  0  0  0
  144.6204  137.9151  154.1682 H   0  0  0  0  0  0  0  0  0  0  0  0
  145.4310  135.5828  153.8207 H   0  0  0  0  0  0  0  0  0  0  0  0
  147.5880  136.7693  152.4714 H   0  0  0  0  0  0  0  0  0  0  0  0
  149.0922  137.6694  153.3233 H   0  0  0  0  0  0  0  0  0  0  0  0
  151.1887  138.5039  153.8359 H   0  0  0  0  0  0  0  0  0  0  0  0
  152.6136  139.9494  155.2679 H   0  0  0  0  0  0  0  0  0  0  0  0
  151.1339  143.0747  156.4048 H   0  0  0  0  0  0  0  0  0  0  0  0
  150.1988  142.7482  157.8525 H   0  0  0  0  0  0  0  0  0  0  0  0
  153.0954  143.7308  157.7399 H   0  0  0  0  0  0  0  0  0  0  0  0
  151.7119  144.6575  158.2721 H   0  0  0  0  0  0  0  0  0  0  0  0
  153.0417  143.7466  160.2088 H   0  0  0  0  0  0  0  0  0  0  0  0
  151.3920  143.1648  160.2163 H   0  0  0  0  0  0  0  0  0  0  0  0
  153.8395  141.6393  159.1974 H   0  0  0  0  0  0  0  0  0  0  0  0
  152.9190  141.2669  160.6361 H   0  0  0  0  0  0  0  0  0  0  0  0
  150.9304  140.6976  159.2887 H   0  0  0  0  0  0  0  0  0  0  0  0
  152.3055  139.7782  158.7040 H   0  0  0  0  0  0  0  0  0  0  0  0
  147.8275  139.5400  156.4178 H   0  0  0  0  0  0  0  0  0  0  0  0
  145.9528  136.2724  150.8964 H   0  0  0  0  0  0  0  0  0  0  0  0
  143.5770  134.7896  152.0989 H   0  0  0  0  0  0  0  0  0  0  0  0
  143.5455  135.9981  150.8077 H   0  0  0  0  0  0  0  0  0  0  0  0
  143.6010  133.4057  150.1023 H   0  0  0  0  0  0  0  0  0  0  0  0
  144.7305  134.5079  149.3048 H   0  0  0  0  0  0  0  0  0  0  0  0
  145.3008  132.6276  151.6144 H   0  0  0  0  0  0  0  0  0  0  0  0
  146.3079  132.9520  150.2014 H   0  0  0  0  0  0  0  0  0  0  0  0
  149.2625  140.8295  157.6488 H   0  0  0  0  0  0  0  0  0  0  0  0
  1  2  1  0  0  0  0
  1 24  1  0  0  0  0
  1 25  1  0  0  0  0
  1 26  1  0  0  0  0
  2  3  1  0  0  0  0
  2 19  1  0  0  0  0
  2 27  1  0  0  0  0
  3  4  1  0  0  0  0
  3 28  1  0  0  0  0
  4  5  2  0  0  0  0
  4  6  1  0  0  0  0
  6  7  1  0  0  0  0
  6 29  1  0  0  0  0
  7 18  1  0  0  0  0
  7  8  2  0  0  0  0
  8  9  1  0  0  0  0
  8 30  1  0  0  0  0
  9 10  2  0  0  0  0
  9 31  1  0  0  0  0
 10 11  1  0  0  0  0
 10 17  1  0  0  0  0
 11 16  1  0  0  0  0
 11 12  1  0  0  0  0
 12 13  1  0  0  0  0
 12 32  1  0  0  0  0
 12 33  1  0  0  0  0
 13 14  1  0  0  0  0
 13 34  1  0  0  0  0
 13 35  1  0  0  0  0
 14 15  1  0  0  0  0
 14 36  1  0  0  0  0
 14 37  1  0  0  0  0
 15 16  1  0  0  0  0
 15 38  1  0  0  0  0
 15 39  1  0  0  0  0
 16 40  1  0  0  0  0
 16 41  1  0  0  0  0
 17 18  2  0  0  0  0
 17 50  1  0  0  0  0
 18 42  1  0  0  0  0
 19 23  1  0  0  0  0
 19 20  1  0  0  0  0
 19 43  1  0  0  0  0
 20 21  1  0  0  0  0
 20 44  1  0  0  0  0
 20 45  1  0  0  0  0
 21 22  1  0  0  0  0
 21 46  1  0  0  0  0
 21 47  1  0  0  0  0
 22 23  1  0  0  0  0
 22 48  1  0  0  0  0
 22 49  1  0  0  0  0
M  CHG  1  17   1
M  END
> <s_m_source_file>
AV-unprocessed.smi

> <i_m_source_file_index>
1940

> <i_lp_mmshare_version>
43012

> <i_f3d_flags>
0

> <s_epik_input>
TzFbQ0gyXVtDSDJdW0NIMl1bQ0BIXTFbQ0BIXShbQ0gzXSlbTkhdQyg9TylbTkhdYzJbY0hdW2NIXWMobltjSF0yKU4zW0NIMl1bQ0gyXVtDSDJdW0NIMl1bQ0gyXTM=

> <s_epik_cmdline>
J2VwaWtfcHl0aG9uJywgJy1waCcsICc3LjAnLCAnLXRuJywgJzgnLCAnLW1hJywgJzIwMCcsICctbWV0YWxfYmluZGluZycsICctaW1hZScsICc8aW5maWxlLm1hZT4nLCAnLW9tYWUnLCAnPG91dGZpbGUubWFlPic=

> <r_lp_tautomer_probability>
0.999994

> <r_epik_Ionization_Penalty>
1.10603

> <r_epik_Ionization_Penalty_Charging>
1.10601

> <r_epik_Ionization_Penalty_Neutral>
1.929e-05

> <r_epik_State_Penalty>
1.16358

> <r_epik_Charging_Adjusted_Penalty>
2.26959

> <i_epik_Tot_Q>
1

> <i_epik_Tot_abs_Q>
1

> <r_epik_Metal_State_Penalty>
1.25013

> <b_epik_Metal_Only>
0

> <s_lp_Force_Field>
OPLS_2005

> <r_lp_Energy>
41.0283

> <b_lp_Chiralities_Consistent>
1

> <s_lp_Variant>
AV-unprocessed.smi:1940-5

> <Gold.Version>
5.8.1

> <Gold.Id.Protein>
6NUR|6NUR_protein|mol2

> <Gold.PLP.Fitness>
43.4230

> <Gold.PLP.PLP>
-38.2726

> <Gold.PLP.part.hbond>
-1.9560

> <Gold.PLP.part.metal>
0.0000

> <Gold.PLP.part.buried>
-2.8056

> <Gold.PLP.part.nonpolar>
-33.8520

> <Gold.PLP.part.repulsive>
0.2574

> <Gold.PLP.ligand.clash>
0.0000

> <Gold.PLP.ligand.torsion>
0.2970

> <Gold.PLP.Chemscore.Hbond>
1.8640

> <Gold.PLP.Chemscore.CHOScore>
0.0000

> <Gold.PLP.Chemscore.Metal>
0.0000

> <Gold.Chemscore.Hbonds>
donor molecule, donor type, donor heavy atom, donor atom, acceptor molecule, acceptor atom, score
      L1  H     3    28       P1  7948  1.00
      L1  H     6    29       P1  7948  0.87

> <Gold.PLP.Chemscore.Internal.Correction>
0.1524

> <Gold.Rescore>
     Score         DG    S(hbond)    S(metal)    S(lipo)     H(rot)  DE(clash)    DE(int)     intcor
     18.47     -20.16       1.90        0.00     100.93       1.36       0.02       1.66       ----

> <Gold.Chemscore.Fitness>
18.4747

> <Gold.Chemscore.DG>
-20.1598

> <Gold.Chemscore.ZeroCoef>
-5.4800

> <Gold.Chemscore.Hbond>
1.8997

> <Gold.Chemscore.Metal>
0.0000

> <Gold.Chemscore.Lipo>
100.9299

> <Gold.Chemscore.Internal_Hbond>
0.0000

> <Gold.Chemscore.DEClash>
0.0241

> <Gold.Chemscore.DEInternal>
1.6611

> <Gold.Chemscore.Rot>
1.3571

> <Gold.Chemscore.Internal.Correction>
   9.000000E+99

> <Gold.Chemscore.Hbonds>
donor molecule, donor type, donor heavy atom, donor atom, acceptor molecule, acceptor atom, score
      L1  H     3    28       P1  7948  0.96
      L1  H     6    29       P1  7948  0.80

> <Gold.Chemscore.Hbond.Weighted>
-6.3451

> <Gold.Chemscore.Metal.Weighted>
-0.0000

> <Gold.Chemscore.Lipo.Weighted>
-11.8088

> <Gold.Chemscore.Internal_Hbond.Weighted>
0.0000

> <Gold.Chemscore.DEClash.Weighted>
0.0241

> <Gold.Chemscore.DEInternal.Weighted>
1.6611

> <Gold.Chemscore.Rot.Weighted>
3.4741

> <Gold.Chemscore.Internal.Correction.Weighted>
   9.000000E+99

> <Gold.Protein.RotatedTorsions>
[ 6907 6896 6895 6894 ] final  179.72 input  -60.11 | X-H torsion
[ 7974 7965 7964 7962 ] final   -1.40 input  175.53 | X-H torsion
[ 8008 7997 7996 7995 ] final   -2.20 input   59.86 | X-H torsion
[ 10167 10162 10161 10158 ] final   17.71 input  -65.29 | X-H torsion
[ 10718 10713 10712 10709 ] final  163.88 input   66.30 | X-H torsion
[ 10763 10752 10751 10750 ] final   33.38 input  -60.55 | X-H torsion
[ 11005 11000 10999 10996 ] final   56.11 input  -57.11 | X-H torsion

> <Gold.Protein.ActiveResidues>
 VAL166  LYS551  ARG553  GLY616  TRP617  ASP618  TYR619  PRO620  LYS621  CYS622 
 ASP623  PHE694  ASN695  SER759  ASP760  ASP761  ALA762  ILE779  LEU786  VAL792 
 PHE793  MET794  SER795  GLU796  ALA797  LYS798  CYS799  TRP800  GLU811  SER814 

> <Gold.Protein.RotatedAtoms>
  151.6671  133.3315  159.3187 H   0  0  0  0  0  0  0  0  0  0  0  0  # atno 6907 bound_to 6896
  150.7885  134.6894  159.6498 H   0  0  0  0  0  0  0  0  0  0  0  0  # atno 6908 bound_to 6896
  152.3960  134.6368  160.0141 H   0  0  0  0  0  0  0  0  0  0  0  0  # atno 6909 bound_to 6896
  146.2417  140.1415  142.8335 H   0  0  0  0  0  0  0  0  0  0  0  0  # atno 7974 bound_to 7965
  154.6383  140.2540  155.7352 H   0  0  0  0  0  0  0  0  0  0  0  0  # atno 8008 bound_to 7997
  156.2515  140.2892  156.0686 H   0  0  0  0  0  0  0  0  0  0  0  0  # atno 8009 bound_to 7997
  155.1636  140.0385  157.2838 H   0  0  0  0  0  0  0  0  0  0  0  0  # atno 8010 bound_to 7997
  140.5706  143.9168  150.6710 H   0  0  0  0  0  0  0  0  0  0  0  0  # atno 10167 bound_to 10162
  157.1023  131.0446  151.2492 H   0  0  0  0  0  0  0  0  0  0  0  0  # atno 10718 bound_to 10713
  153.0214  135.6388  154.1503 H   0  0  0  0  0  0  0  0  0  0  0  0  # atno 10763 bound_to 10752
  154.1237  135.2845  155.3204 H   0  0  0  0  0  0  0  0  0  0  0  0  # atno 10764 bound_to 10752
  154.6245  135.5513  153.7673 H   0  0  0  0  0  0  0  0  0  0  0  0  # atno 10765 bound_to 10752
  140.0555  134.5677  155.9213 H   0  0  0  0  0  0  0  0  0  0  0  0  # atno 11005 bound_to 11000
  145.0242  140.8819  143.5148 LP  0  0  0  0  0  0  0  0  0  0  0  0  # atno 17320 bound_to 7965
  145.1469  139.2538  143.5461 LP  0  0  0  0  0  0  0  0  0  0  0  0  # atno 17321 bound_to 7965
  140.2642  143.3502  152.1296 LP  0  0  0  0  0  0  0  0  0  0  0  0  # atno 17342 bound_to 10162
  139.5116  144.6903  151.5779 LP  0  0  0  0  0  0  0  0  0  0  0  0  # atno 17343 bound_to 10162
  157.4630  130.7664  149.7253 LP  0  0  0  0  0  0  0  0  0  0  0  0  # atno 17370 bound_to 10713
  155.9870  130.3970  150.3183 LP  0  0  0  0  0  0  0  0  0  0  0  0  # atno 17371 bound_to 10713
  141.1950  133.6585  156.5621 LP  0  0  0  0  0  0  0  0  0  0  0  0  # atno 17394 bound_to 11000
  140.3851  134.7489  157.4686 LP  0  0  0  0  0  0  0  0  0  0  0  0  # atno 17395 bound_to 11000

$$$$
