AV-unprocessed.smi:3292|AV-procd|sdf|12623|dock2
  -GOLD-   2272018553D 1   1.00000     0.00000
 Structure written by MMmdl.
 39 40  0  0  0  0  0  0  0  0  2 V2000
  146.1363  133.8675  154.5236 C   0  0  0  0  0  0  0  0  0  0  0  0
  146.0389  134.4690  153.1154 C   0  0  2  0  0  0  0  0  0  0  0  0
  146.5784  133.4891  152.0489 C   0  0  0  0  0  0  0  0  0  0  0  0
  145.6000  133.1898  150.9963 N   0  0  0  0  0  0  0  0  0  0  0  0
  145.7604  132.3448  149.9282 C   0  0  0  0  0  0  0  0  0  0  0  0
  144.5772  132.3619  149.2353 C   0  0  0  0  0  0  0  0  0  0  0  0
  143.7480  133.2220  149.9039 N   0  3  0  0  0  0  0  0  0  0  0  0
  144.3747  133.7311  150.9693 C   0  0  0  0  0  0  0  0  0  0  0  0
  146.7747  135.7331  153.0856 N   0  0  0  0  0  0  0  0  0  0  0  0
  146.4866  136.8143  153.8249 C   0  0  0  0  0  0  0  0  0  0  0  0
  145.6019  136.8499  154.6806 O   0  0  0  0  0  0  0  0  0  0  0  0
  147.2337  137.8704  153.4772 N   0  0  0  0  0  0  0  0  0  0  0  0
  147.0375  139.2264  153.9797 C   0  0  0  0  0  0  0  0  0  0  0  0
  148.3389  140.0535  153.9282 C   0  0  1  0  0  0  0  0  0  0  0  0
  148.3138  141.3133  154.7808 C   0  0  0  0  0  0  0  0  0  0  0  0
  149.7677  141.4839  155.2370 C   0  0  0  0  0  0  0  0  0  0  0  0
  150.4879  140.3991  154.6630 O   0  0  0  0  0  0  0  0  0  0  0  0
  149.5771  139.3339  154.4563 C   0  0  0  0  0  0  0  0  0  0  0  0
  145.5708  132.9378  154.5926 H   0  0  0  0  0  0  0  0  0  0  0  0
  145.7350  134.5514  155.2722 H   0  0  0  0  0  0  0  0  0  0  0  0
  147.1704  133.6478  154.7923 H   0  0  0  0  0  0  0  0  0  0  0  0
  144.9816  134.6566  152.9179 H   0  0  0  0  0  0  0  0  0  0  0  0
  147.4834  133.8824  151.5825 H   0  0  0  0  0  0  0  0  0  0  0  0
  146.8501  132.5395  152.5117 H   0  0  0  0  0  0  0  0  0  0  0  0
  146.6759  131.7988  149.7525 H   0  0  0  0  0  0  0  0  0  0  0  0
  144.2704  131.8382  148.3419 H   0  0  0  0  0  0  0  0  0  0  0  0
  143.9643  134.4286  151.6774 H   0  0  0  0  0  0  0  0  0  0  0  0
  147.5258  135.8047  152.4146 H   0  0  0  0  0  0  0  0  0  0  0  0
  147.9439  137.7439  152.7709 H   0  0  0  0  0  0  0  0  0  0  0  0
  146.2502  139.7218  153.4089 H   0  0  0  0  0  0  0  0  0  0  0  0
  146.6780  139.1560  155.0067 H   0  0  0  0  0  0  0  0  0  0  0  0
  148.5402  140.3545  152.8988 H   0  0  0  0  0  0  0  0  0  0  0  0
  147.9543  142.1738  154.2154 H   0  0  0  0  0  0  0  0  0  0  0  0
  147.6657  141.1911  155.6497 H   0  0  0  0  0  0  0  0  0  0  0  0
  150.1936  142.4344  154.9148 H   0  0  0  0  0  0  0  0  0  0  0  0
  149.8369  141.4322  156.3243 H   0  0  0  0  0  0  0  0  0  0  0  0
  149.3732  138.8333  155.4045 H   0  0  0  0  0  0  0  0  0  0  0  0
  149.9734  138.6001  153.7546 H   0  0  0  0  0  0  0  0  0  0  0  0
  142.7971  133.4416  149.6341 H   0  0  0  0  0  0  0  0  0  0  0  0
  1  2  1  0  0  0  0
  1 19  1  0  0  0  0
  1 20  1  0  0  0  0
  1 21  1  0  0  0  0
  2  3  1  0  0  0  0
  2  9  1  0  0  0  0
  2 22  1  0  0  0  0
  3  4  1  0  0  0  0
  3 23  1  0  0  0  0
  3 24  1  0  0  0  0
  4  8  1  0  0  0  0
  4  5  1  0  0  0  0
  5  6  2  0  0  0  0
  5 25  1  0  0  0  0
  6  7  1  0  0  0  0
  6 26  1  0  0  0  0
  7  8  2  0  0  0  0
  7 39  1  0  0  0  0
  8 27  1  0  0  0  0
  9 10  1  0  0  0  0
  9 28  1  0  0  0  0
 10 11  2  0  0  0  0
 10 12  1  0  0  0  0
 12 13  1  0  0  0  0
 12 29  1  0  0  0  0
 13 14  1  0  0  0  0
 13 30  1  0  0  0  0
 13 31  1  0  0  0  0
 14 18  1  0  0  0  0
 14 15  1  0  0  0  0
 14 32  1  0  0  0  0
 15 16  1  0  0  0  0
 15 33  1  0  0  0  0
 15 34  1  0  0  0  0
 16 17  1  0  0  0  0
 16 35  1  0  0  0  0
 16 36  1  0  0  0  0
 17 18  1  0  0  0  0
 18 37  1  0  0  0  0
 18 38  1  0  0  0  0
M  CHG  1   7   1
M  END
> <s_m_source_file>
AV-unprocessed.smi

> <i_m_source_file_index>
3292

> <i_lp_mmshare_version>
43012

> <i_f3d_flags>
0

> <s_epik_input>
W2NIXTFuW2NIXVtjSF1uMVtDSDJdW0NAQEhdKFtDSDNdKVtOSF1DKD1PKVtOSF1bQ0gyXVtDQEBIXTJbQ0gyXVtDSDJdT1tDSDJdMg==

> <s_epik_cmdline>
J2VwaWtfcHl0aG9uJywgJy1waCcsICc3LjAnLCAnLXRuJywgJzgnLCAnLW1hJywgJzIwMCcsICctbWV0YWxfYmluZGluZycsICctaW1hZScsICc8aW5maWxlLm1hZT4nLCAnLW9tYWUnLCAnPG91dGZpbGUubWFlPic=

> <r_lp_tautomer_probability>
1

> <r_epik_Ionization_Penalty>
0.255703

> <r_epik_Ionization_Penalty_Charging>
0

> <r_epik_Ionization_Penalty_Neutral>
0.255703

> <r_epik_State_Penalty>
0.247169

> <r_epik_Charging_Adjusted_Penalty>
0.247169

> <i_epik_Tot_Q>
1

> <i_epik_Tot_abs_Q>
1

> <r_epik_Metal_State_Penalty>
0.536791

> <b_epik_Metal_Only>
0

> <s_lp_Force_Field>
OPLS_2005

> <r_lp_Energy>
18.6884

> <b_lp_Chiralities_Consistent>
1

> <s_lp_Variant>
AV-unprocessed.smi:3292-3

> <Gold.Version>
5.8.1

> <Gold.Id.Protein>
6NUR|6NUR_protein|mol2

> <Gold.PLP.Fitness>
46.2618

> <Gold.PLP.PLP>
-30.8661

> <Gold.PLP.part.hbond>
-4.0000

> <Gold.PLP.part.metal>
0.0000

> <Gold.PLP.part.buried>
-4.0467

> <Gold.PLP.part.nonpolar>
-23.1178

> <Gold.PLP.part.repulsive>
0.2124

> <Gold.PLP.ligand.clash>
0.0000

> <Gold.PLP.ligand.torsion>
1.0416

> <Gold.PLP.Chemscore.Hbond>
4.8160

> <Gold.PLP.Chemscore.CHOScore>
0.9925

> <Gold.PLP.Chemscore.Metal>
0.0000

> <Gold.Chemscore.Hbonds>
donor molecule, donor type, donor heavy atom, donor atom, acceptor molecule, acceptor atom, score
      L1  H     7    39       P1 10186  1.95
      L1  H     9    28       P1  7948  1.00
      L1  H    12    29       P1  7948  0.80
      P1  H  7989  7998       L1    17  1.00
      L1  C     5    25       P1 10747  1.00

> <Gold.PLP.Chemscore.Internal.Correction>
0.0534

> <Gold.Rescore>
     Score         DG    S(hbond)    S(metal)    S(lipo)     H(rot)  DE(clash)    DE(int)     intcor
     18.23     -19.32       3.58        0.00      65.06       2.24       0.02       1.06       ----

> <Gold.Chemscore.Fitness>
18.2320

> <Gold.Chemscore.DG>
-19.3169

> <Gold.Chemscore.ZeroCoef>
-5.4800

> <Gold.Chemscore.Hbond>
3.5782

> <Gold.Chemscore.Metal>
0.0000

> <Gold.Chemscore.Lipo>
65.0560

> <Gold.Chemscore.Internal_Hbond>
0.0000

> <Gold.Chemscore.DEClash>
0.0234

> <Gold.Chemscore.DEInternal>
1.0615

> <Gold.Chemscore.Rot>
2.2367

> <Gold.Chemscore.Internal.Correction>
   9.000000E+99

> <Gold.Chemscore.Hbonds>
donor molecule, donor type, donor heavy atom, donor atom, acceptor molecule, acceptor atom, score
      L1  H     7    39       P1 10186  0.91
      L1  H     9    28       P1  7948  0.97
      L1  H    12    29       P1  7948  0.75
      P1  H  7989  7998       L1    17  0.83

> <Gold.Chemscore.Hbond.Weighted>
-11.9512

> <Gold.Chemscore.Metal.Weighted>
-0.0000

> <Gold.Chemscore.Lipo.Weighted>
-7.6116

> <Gold.Chemscore.Internal_Hbond.Weighted>
0.0000

> <Gold.Chemscore.DEClash.Weighted>
0.0234

> <Gold.Chemscore.DEInternal.Weighted>
1.0615

> <Gold.Chemscore.Rot.Weighted>
5.7259

> <Gold.Chemscore.Internal.Correction.Weighted>
   9.000000E+99

> <Gold.Protein.RotatedTorsions>
[ 6907 6896 6895 6894 ] final -179.93 input  -60.11 | X-H torsion
[ 7974 7965 7964 7962 ] final -150.66 input  175.53 | X-H torsion
[ 8008 7997 7996 7995 ] final  134.01 input   59.86 | X-H torsion
[ 10167 10162 10161 10158 ] final  -15.38 input  -65.29 | X-H torsion
[ 10718 10713 10712 10709 ] final   93.45 input   66.30 | X-H torsion
[ 10763 10752 10751 10750 ] final  -26.52 input  -60.55 | X-H torsion
[ 11005 11000 10999 10996 ] final  -51.34 input  -57.11 | X-H torsion

> <Gold.Protein.ActiveResidues>
 VAL166  LYS551  ARG553  GLY616  TRP617  ASP618  TYR619  PRO620  LYS621  CYS622 
 ASP623  PHE694  ASN695  SER759  ASP760  ASP761  ALA762  ILE779  LEU786  VAL792 
 PHE793  MET794  SER795  GLU796  ALA797  LYS798  CYS799  TRP800  GLU811  SER814 

> <Gold.Protein.RotatedAtoms>
  151.6614  133.3317  159.3174 H   0  0  0  0  0  0  0  0  0  0  0  0  # atno 6907 bound_to 6896
  150.7911  134.6940  159.6522 H   0  0  0  0  0  0  0  0  0  0  0  0  # atno 6908 bound_to 6896
  152.3991  134.6320  160.0129 H   0  0  0  0  0  0  0  0  0  0  0  0  # atno 6909 bound_to 6896
  144.7895  140.4902  143.5783 H   0  0  0  0  0  0  0  0  0  0  0  0  # atno 7974 bound_to 7965
  156.2996  140.2507  156.3347 H   0  0  0  0  0  0  0  0  0  0  0  0  # atno 8008 bound_to 7997
  154.9112  140.0403  157.1966 H   0  0  0  0  0  0  0  0  0  0  0  0  # atno 8009 bound_to 7997
  154.8403  140.2890  155.5668 H   0  0  0  0  0  0  0  0  0  0  0  0  # atno 8010 bound_to 7997
  140.7217  143.5224  150.9618 H   0  0  0  0  0  0  0  0  0  0  0  0  # atno 10167 bound_to 10162
  157.6954  131.0479  150.4036 H   0  0  0  0  0  0  0  0  0  0  0  0  # atno 10718 bound_to 10713
  153.7173  135.6947  153.5022 H   0  0  0  0  0  0  0  0  0  0  0  0  # atno 10763 bound_to 10752
  153.2229  135.4363  155.0508 H   0  0  0  0  0  0  0  0  0  0  0  0  # atno 10764 bound_to 10752
  154.8296  135.3465  154.6708 H   0  0  0  0  0  0  0  0  0  0  0  0  # atno 10765 bound_to 10752
  141.0865  133.6641  156.3862 H   0  0  0  0  0  0  0  0  0  0  0  0  # atno 11005 bound_to 11000
  145.5833  139.1490  143.3223 LP  0  0  0  0  0  0  0  0  0  0  0  0  # atno 17320 bound_to 7965
  146.2141  140.5962  142.9046 LP  0  0  0  0  0  0  0  0  0  0  0  0  # atno 17321 bound_to 7965
  139.8941  143.6916  152.3141 LP  0  0  0  0  0  0  0  0  0  0  0  0  # atno 17342 bound_to 10162
  139.7243  144.7596  151.0905 LP  0  0  0  0  0  0  0  0  0  0  0  0  # atno 17343 bound_to 10162
  156.4427  130.3995  149.6686 LP  0  0  0  0  0  0  0  0  0  0  0  0  # atno 17370 bound_to 10713
  156.3864  130.7605  151.2602 LP  0  0  0  0  0  0  0  0  0  0  0  0  # atno 17371 bound_to 10713
  140.5350  134.6176  157.5362 LP  0  0  0  0  0  0  0  0  0  0  0  0  # atno 17394 bound_to 11000
  139.9684  134.7333  156.0090 LP  0  0  0  0  0  0  0  0  0  0  0  0  # atno 17395 bound_to 11000

$$$$
