AV-unprocessed.smi:1150|AV-procd|sdf|4893|dock2
  -GOLD-   22720 3463D 1   1.00000     0.00000
 Structure written by MMmdl.
 50 51  0  0  0  0  0  0  0  0  1 V2000
  146.8373  142.1107  156.1762 C   0  0  0  0  0  0  0  0  0  0  0  0
  148.0278  141.7003  155.2975 C   0  0  0  0  0  0  0  0  0  0  0  0
  149.2307  141.1652  156.1019 C   0  0  2  0  0  0  0  0  0  0  0  0
  149.9396  142.2732  156.7404 N   0  0  0  0  0  0  0  0  0  0  0  0
  150.6776  142.2090  157.8596 C   0  0  0  0  0  0  0  0  0  0  0  0
  150.7089  141.2303  158.6045 O   0  0  0  0  0  0  0  0  0  0  0  0
  151.5606  143.4236  158.1485 C   0  0  0  0  0  0  0  0  0  0  0  0
  151.8005  143.5151  159.6371 C   0  0  0  0  0  0  0  0  0  0  0  0
  151.4486  144.5876  160.5085 C   0  0  0  0  0  0  0  0  0  0  0  0
  150.7398  145.8664  160.1659 C   0  0  0  0  0  0  0  0  0  0  0  0
  151.8433  144.3776  161.7534 N   0  0  0  0  0  0  0  0  0  0  0  0
  152.4549  143.1770  161.7222 N   0  0  0  0  0  0  0  0  0  0  0  0
  153.0277  142.6382  162.9402 C   0  0  0  0  0  0  0  0  0  0  0  0
  152.4399  142.6239  160.4572 C   0  0  0  0  0  0  0  0  0  0  0  0
  153.0646  141.2991  160.1602 C   0  0  0  0  0  0  0  0  0  0  0  0
  150.2102  140.3208  155.2403 C   0  0  0  0  0  0  0  0  0  0  0  0
  149.5494  139.0187  154.7300 C   0  0  0  0  0  0  0  0  0  0  0  0
  150.4976  138.1980  153.8425 C   0  0  0  0  0  0  0  0  0  0  0  0
  151.8037  137.8758  154.5821 C   0  0  0  0  0  0  0  0  0  0  0  0
  152.4846  139.1616  155.0717 C   0  0  0  0  0  0  0  0  0  0  0  0
  151.5410  139.9867  155.9609 C   0  0  0  0  0  0  0  0  0  0  0  0
  145.9996  142.4416  155.5623 H   0  0  0  0  0  0  0  0  0  0  0  0
  147.0971  142.9297  156.8472 H   0  0  0  0  0  0  0  0  0  0  0  0
  146.4920  141.2753  156.7861 H   0  0  0  0  0  0  0  0  0  0  0  0
  147.6927  140.9334  154.5983 H   0  0  0  0  0  0  0  0  0  0  0  0
  148.3280  142.5547  154.6907 H   0  0  0  0  0  0  0  0  0  0  0  0
  148.8200  140.5044  156.8674 H   0  0  0  0  0  0  0  0  0  0  0  0
  149.9790  143.1339  156.2143 H   0  0  0  0  0  0  0  0  0  0  0  0
  152.4934  143.3212  157.5937 H   0  0  0  0  0  0  0  0  0  0  0  0
  151.0759  144.3234  157.7684 H   0  0  0  0  0  0  0  0  0  0  0  0
  151.2941  146.4289  159.4147 H   0  0  0  0  0  0  0  0  0  0  0  0
  150.6203  146.5100  161.0381 H   0  0  0  0  0  0  0  0  0  0  0  0
  149.7466  145.6652  159.7649 H   0  0  0  0  0  0  0  0  0  0  0  0
  152.4663  141.7561  163.2488 H   0  0  0  0  0  0  0  0  0  0  0  0
  152.9957  143.3774  163.7417 H   0  0  0  0  0  0  0  0  0  0  0  0
  154.0663  142.3572  162.7640 H   0  0  0  0  0  0  0  0  0  0  0  0
  152.8286  140.9685  159.1489 H   0  0  0  0  0  0  0  0  0  0  0  0
  152.7085  140.5359  160.8523 H   0  0  0  0  0  0  0  0  0  0  0  0
  154.1494  141.3572  160.2482 H   0  0  0  0  0  0  0  0  0  0  0  0
  150.4555  140.9139  154.3579 H   0  0  0  0  0  0  0  0  0  0  0  0
  149.2404  138.3998  155.5715 H   0  0  0  0  0  0  0  0  0  0  0  0
  148.6419  139.2536  154.1730 H   0  0  0  0  0  0  0  0  0  0  0  0
  150.0086  137.2738  153.5335 H   0  0  0  0  0  0  0  0  0  0  0  0
  150.7189  138.7527  152.9298 H   0  0  0  0  0  0  0  0  0  0  0  0
  151.5937  137.2258  155.4326 H   0  0  0  0  0  0  0  0  0  0  0  0
  152.4768  137.3228  153.9269 H   0  0  0  0  0  0  0  0  0  0  0  0
  153.3913  138.9134  155.6242 H   0  0  0  0  0  0  0  0  0  0  0  0
  152.7976  139.7602  154.2154 H   0  0  0  0  0  0  0  0  0  0  0  0
  152.0507  140.9009  156.2630 H   0  0  0  0  0  0  0  0  0  0  0  0
  151.3470  139.4260  156.8755 H   0  0  0  0  0  0  0  0  0  0  0  0
  1  2  1  0  0  0  0
  1 22  1  0  0  0  0
  1 23  1  0  0  0  0
  1 24  1  0  0  0  0
  2  3  1  0  0  0  0
  2 25  1  0  0  0  0
  2 26  1  0  0  0  0
  3  4  1  0  0  0  0
  3 16  1  0  0  0  0
  3 27  1  0  0  0  0
  4  5  1  0  0  0  0
  4 28  1  0  0  0  0
  5  6  2  0  0  0  0
  5  7  1  0  0  0  0
  7  8  1  0  0  0  0
  7 29  1  0  0  0  0
  7 30  1  0  0  0  0
  8 14  2  0  0  0  0
  8  9  1  0  0  0  0
  9 10  1  0  0  0  0
  9 11  2  0  0  0  0
 10 31  1  0  0  0  0
 10 32  1  0  0  0  0
 10 33  1  0  0  0  0
 11 12  1  0  0  0  0
 12 13  1  0  0  0  0
 12 14  1  0  0  0  0
 13 34  1  0  0  0  0
 13 35  1  0  0  0  0
 13 36  1  0  0  0  0
 14 15  1  0  0  0  0
 15 37  1  0  0  0  0
 15 38  1  0  0  0  0
 15 39  1  0  0  0  0
 16 21  1  0  0  0  0
 16 17  1  0  0  0  0
 16 40  1  0  0  0  0
 17 18  1  0  0  0  0
 17 41  1  0  0  0  0
 17 42  1  0  0  0  0
 18 19  1  0  0  0  0
 18 43  1  0  0  0  0
 18 44  1  0  0  0  0
 19 20  1  0  0  0  0
 19 45  1  0  0  0  0
 19 46  1  0  0  0  0
 20 21  1  0  0  0  0
 20 47  1  0  0  0  0
 20 48  1  0  0  0  0
 21 49  1  0  0  0  0
 21 50  1  0  0  0  0
M  END
> <s_m_source_file>
AV-unprocessed.smi

> <i_m_source_file_index>
1150

> <i_lp_mmshare_version>
43012

> <i_f3d_flags>
0

> <s_epik_input>
W0NIMl0xW0NIMl1bQ0gyXVtDSDJdW0NIMl1bQ0hdMVtDQEhdKFtDSDJdW0NIM10pW05IXUMoPU8pW0NIMl1jMmMoW0NIM10pbm4oW0NIM10pYzJbQ0gzXQ==

> <s_epik_cmdline>
J2VwaWtfcHl0aG9uJywgJy1waCcsICc3LjAnLCAnLXRuJywgJzgnLCAnLW1hJywgJzIwMCcsICctbWV0YWxfYmluZGluZycsICctaW1hZScsICc8aW5maWxlLm1hZT4nLCAnLW9tYWUnLCAnPG91dGZpbGUubWFlPic=

> <r_lp_tautomer_probability>
1

> <r_epik_Ionization_Penalty>
0.00328092

> <r_epik_Ionization_Penalty_Charging>
0

> <r_epik_Ionization_Penalty_Neutral>
0.00328092

> <r_epik_State_Penalty>
0.00231765

> <r_epik_Charging_Adjusted_Penalty>
0.00231765

> <i_epik_Tot_Q>
0

> <i_epik_Tot_abs_Q>
0

> <r_epik_Metal_State_Penalty>
-0

> <b_epik_Metal_Only>
0

> <s_lp_Force_Field>
OPLS_2005

> <r_lp_Energy>
6.65813

> <b_lp_Chiralities_Consistent>
1

> <s_lp_Variant>
AV-unprocessed.smi:1150-1

> <Gold.Version>
5.8.1

> <Gold.Id.Protein>
6NUR|6NUR_protein|mol2

> <Gold.PLP.Fitness>
49.6386

> <Gold.PLP.PLP>
-48.9415

> <Gold.PLP.part.hbond>
-1.0000

> <Gold.PLP.part.metal>
0.0000

> <Gold.PLP.part.buried>
0.0898

> <Gold.PLP.part.nonpolar>
-48.4517

> <Gold.PLP.part.repulsive>
0.2300

> <Gold.PLP.ligand.clash>
0.0000

> <Gold.PLP.ligand.torsion>
0.9507

> <Gold.PLP.Chemscore.Hbond>
0.8406

> <Gold.PLP.Chemscore.CHOScore>
0.0000

> <Gold.PLP.Chemscore.Metal>
0.0000

> <Gold.Chemscore.Hbonds>
donor molecule, donor type, donor heavy atom, donor atom, acceptor molecule, acceptor atom, score
      L1  H     4    28       P1  8028  0.86

> <Gold.PLP.Chemscore.Internal.Correction>
0.0768

> <Gold.Rescore>
     Score         DG    S(hbond)    S(metal)    S(lipo)     H(rot)  DE(clash)    DE(int)     intcor
     15.85     -20.08       0.92        0.00     129.59       1.42       2.27       1.96       ----

> <Gold.Chemscore.Fitness>
15.8500

> <Gold.Chemscore.DG>
-20.0787

> <Gold.Chemscore.ZeroCoef>
-5.4800

> <Gold.Chemscore.Hbond>
0.9176

> <Gold.Chemscore.Metal>
0.0000

> <Gold.Chemscore.Lipo>
129.5938

> <Gold.Chemscore.Internal_Hbond>
0.0000

> <Gold.Chemscore.DEClash>
2.2687

> <Gold.Chemscore.DEInternal>
1.9599

> <Gold.Chemscore.Rot>
1.4174

> <Gold.Chemscore.Internal.Correction>
   9.000000E+99

> <Gold.Chemscore.Hbonds>
donor molecule, donor type, donor heavy atom, donor atom, acceptor molecule, acceptor atom, score
      L1  H     4    28       P1  8028  0.82

> <Gold.Chemscore.Hbond.Weighted>
-3.0648

> <Gold.Chemscore.Metal.Weighted>
-0.0000

> <Gold.Chemscore.Lipo.Weighted>
-15.1625

> <Gold.Chemscore.Internal_Hbond.Weighted>
0.0000

> <Gold.Chemscore.DEClash.Weighted>
2.2687

> <Gold.Chemscore.DEInternal.Weighted>
1.9599

> <Gold.Chemscore.Rot.Weighted>
3.6286

> <Gold.Chemscore.Internal.Correction.Weighted>
   9.000000E+99

> <Gold.Protein.RotatedTorsions>
[ 6907 6896 6895 6894 ] final   54.48 input  -60.11 | X-H torsion
[ 7974 7965 7964 7962 ] final  178.76 input  175.53 | X-H torsion
[ 8008 7997 7996 7995 ] final  132.96 input   59.86 | X-H torsion
[ 10167 10162 10161 10158 ] final  -59.68 input  -65.29 | X-H torsion
[ 10718 10713 10712 10709 ] final  -39.96 input   66.30 | X-H torsion
[ 10763 10752 10751 10750 ] final   91.57 input  -60.55 | X-H torsion
[ 11005 11000 10999 10996 ] final -128.53 input  -57.11 | X-H torsion

> <Gold.Protein.ActiveResidues>
 VAL166  LYS551  ARG553  GLY616  TRP617  ASP618  TYR619  PRO620  LYS621  CYS622 
 ASP623  PHE694  ASN695  SER759  ASP760  ASP761  ALA762  ILE779  LEU786  VAL792 
 PHE793  MET794  SER795  GLU796  ALA797  LYS798  CYS799  TRP800  GLU811  SER814 

> <Gold.Protein.RotatedAtoms>
  152.3443  134.7092  160.0254 H   0  0  0  0  0  0  0  0  0  0  0  0  # atno 6907 bound_to 6896
  151.7467  133.3319  159.3388 H   0  0  0  0  0  0  0  0  0  0  0  0  # atno 6908 bound_to 6896
  150.7499  134.6162  159.6156 H   0  0  0  0  0  0  0  0  0  0  0  0  # atno 6909 bound_to 6896
  144.7152  140.0446  143.6436 H   0  0  0  0  0  0  0  0  0  0  0  0  # atno 7974 bound_to 7965
  156.2988  140.2533  156.3175 H   0  0  0  0  0  0  0  0  0  0  0  0  # atno 8008 bound_to 7997
  154.9267  140.0399  157.2046 H   0  0  0  0  0  0  0  0  0  0  0  0  # atno 8009 bound_to 7997
  154.8258  140.2867  155.5760 H   0  0  0  0  0  0  0  0  0  0  0  0  # atno 8010 bound_to 7997
  140.6120  143.2390  151.5687 H   0  0  0  0  0  0  0  0  0  0  0  0  # atno 10167 bound_to 10162
  156.2866  130.4223  149.8281 H   0  0  0  0  0  0  0  0  0  0  0  0  # atno 10718 bound_to 10713
  153.2097  135.4393  155.0364 H   0  0  0  0  0  0  0  0  0  0  0  0  # atno 10763 bound_to 10752
  154.8193  135.3330  154.7088 H   0  0  0  0  0  0  0  0  0  0  0  0  # atno 10764 bound_to 10752
  153.7527  135.6997  153.4998 H   0  0  0  0  0  0  0  0  0  0  0  0  # atno 10765 bound_to 10752
  140.9508  134.1067  157.4063 H   0  0  0  0  0  0  0  0  0  0  0  0  # atno 11005 bound_to 11000
  145.9995  139.3079  143.0936 LP  0  0  0  0  0  0  0  0  0  0  0  0  # atno 17320 bound_to 7965
  145.8810  140.9363  143.0601 LP  0  0  0  0  0  0  0  0  0  0  0  0  # atno 17321 bound_to 7965
  139.5368  144.2757  152.1269 LP  0  0  0  0  0  0  0  0  0  0  0  0  # atno 17342 bound_to 10162
  140.1959  144.4706  150.6455 LP  0  0  0  0  0  0  0  0  0  0  0  0  # atno 17343 bound_to 10162
  156.5709  130.8424  151.3356 LP  0  0  0  0  0  0  0  0  0  0  0  0  # atno 17370 bound_to 10713
  157.7330  130.9724  150.1957 LP  0  0  0  0  0  0  0  0  0  0  0  0  # atno 17371 bound_to 10713
  139.8847  135.0065  156.6386 LP  0  0  0  0  0  0  0  0  0  0  0  0  # atno 17394 bound_to 11000
  140.7605  133.8822  155.8414 LP  0  0  0  0  0  0  0  0  0  0  0  0  # atno 17395 bound_to 11000

$$$$
