AV-unprocessed.smi:311|AV-procd|sdf|2300|dock10
  -GOLD-   2262022203D 1   1.00000     0.00000
 Structure written by MMmdl.
 44 46  0  0  0  0  0  0  0  0  2 V2000
  150.8004  131.4236  156.2640 C   0  0  0  0  0  0  0  0  0  0  0  0
  150.4293  132.8787  156.2946 C   0  0  0  0  0  0  0  0  0  0  0  0
  150.6246  133.5812  157.3978 N   0  0  0  0  0  0  0  0  0  0  0  0
  150.1810  134.8759  157.1116 O   0  0  0  0  0  0  0  0  0  0  0  0
  149.7330  134.9031  155.8310 C   0  0  0  0  0  0  0  0  0  0  0  0
  149.2041  136.2070  155.3360 C   0  0  0  0  0  0  0  0  0  0  0  0
  149.8614  133.6690  155.2544 C   0  0  0  0  0  0  0  0  0  0  0  0
  149.4909  133.2336  153.8593 C   0  0  0  0  0  0  0  0  0  0  0  0
  147.9772  133.3276  153.6663 C   0  0  0  0  0  0  0  0  0  0  0  0
  147.2380  132.4827  154.1701 O   0  0  0  0  0  0  0  0  0  0  0  0
  147.5300  134.3537  152.9248 N   0  0  0  0  0  0  0  0  0  0  0  0
  146.1274  134.6425  152.6351 C   0  0  1  0  0  0  0  0  0  0  0  0
  145.9353  135.9606  151.8608 C   0  0  0  0  0  0  0  0  0  0  0  0
  144.8481  135.6476  150.8275 C   0  0  0  0  0  0  0  0  0  0  0  0
  145.0965  134.2372  150.5077 N   0  3  2  0  0  0  0  0  0  0  0  0
  144.0880  133.5033  149.7165 C   0  0  0  0  0  0  0  0  0  0  0  0
  144.6604  132.1129  149.3645 C   0  0  0  0  0  0  0  0  0  0  0  0
  145.1734  131.3559  150.6109 C   0  0  0  0  0  0  0  0  0  0  0  0
  146.1245  132.2268  151.4605 C   0  0  0  0  0  0  0  0  0  0  0  0
  145.4290  133.5632  151.7749 C   0  0  1  0  0  0  0  0  0  0  0  0
  149.9945  130.8245  155.8394 H   0  0  0  0  0  0  0  0  0  0  0  0
  151.0065  131.0378  157.2631 H   0  0  0  0  0  0  0  0  0  0  0  0
  151.6901  131.2618  155.6554 H   0  0  0  0  0  0  0  0  0  0  0  0
  149.3934  136.3249  154.2691 H   0  0  0  0  0  0  0  0  0  0  0  0
  149.6753  137.0423  155.8546 H   0  0  0  0  0  0  0  0  0  0  0  0
  148.1281  136.2712  155.4975 H   0  0  0  0  0  0  0  0  0  0  0  0
  149.9802  133.8484  153.1032 H   0  0  0  0  0  0  0  0  0  0  0  0
  149.8129  132.2090  153.6683 H   0  0  0  0  0  0  0  0  0  0  0  0
  148.2150  134.9963  152.5536 H   0  0  0  0  0  0  0  0  0  0  0  0
  145.5837  134.7309  153.5780 H   0  0  0  0  0  0  0  0  0  0  0  0
  145.6648  136.7937  152.5104 H   0  0  0  0  0  0  0  0  0  0  0  0
  146.8558  136.2341  151.3424 H   0  0  0  0  0  0  0  0  0  0  0  0
  143.8558  135.7569  151.2683 H   0  0  0  0  0  0  0  0  0  0  0  0
  144.9088  136.2847  149.9445 H   0  0  0  0  0  0  0  0  0  0  0  0
  143.1591  133.4116  150.2815 H   0  0  0  0  0  0  0  0  0  0  0  0
  143.8604  134.0579  148.8053 H   0  0  0  0  0  0  0  0  0  0  0  0
  143.9059  131.5171  148.8497 H   0  0  0  0  0  0  0  0  0  0  0  0
  145.4849  132.2352  148.6610 H   0  0  0  0  0  0  0  0  0  0  0  0
  144.3217  131.0538  151.2216 H   0  0  0  0  0  0  0  0  0  0  0  0
  145.6758  130.4361  150.3098 H   0  0  0  0  0  0  0  0  0  0  0  0
  146.3812  131.7014  152.3808 H   0  0  0  0  0  0  0  0  0  0  0  0
  147.0565  132.3998  150.9207 H   0  0  0  0  0  0  0  0  0  0  0  0
  144.4876  133.3364  152.2803 H   0  0  0  0  0  0  0  0  0  0  0  0
  145.9455  134.2334  149.9605 H   0  0  0  0  0  0  0  0  0  0  0  0
  1  2  1  0  0  0  0
  1 21  1  0  0  0  0
  1 22  1  0  0  0  0
  1 23  1  0  0  0  0
  2  7  1  0  0  0  0
  2  3  2  0  0  0  0
  3  4  1  0  0  0  0
  4  5  1  0  0  0  0
  5  6  1  0  0  0  0
  5  7  2  0  0  0  0
  6 24  1  0  0  0  0
  6 25  1  0  0  0  0
  6 26  1  0  0  0  0
  7  8  1  0  0  0  0
  8  9  1  0  0  0  0
  8 27  1  0  0  0  0
  8 28  1  0  0  0  0
  9 10  2  0  0  0  0
  9 11  1  0  0  0  0
 11 12  1  0  0  0  0
 11 29  1  0  0  0  0
 12 20  1  0  0  0  0
 12 13  1  0  0  0  0
 12 30  1  0  0  0  0
 13 14  1  0  0  0  0
 13 31  1  0  0  0  0
 13 32  1  0  0  0  0
 14 15  1  0  0  0  0
 14 33  1  0  0  0  0
 14 34  1  0  0  0  0
 15 20  1  0  0  0  0
 15 16  1  0  0  0  0
 15 44  1  0  0  0  0
 16 17  1  0  0  0  0
 16 35  1  0  0  0  0
 16 36  1  0  0  0  0
 17 18  1  0  0  0  0
 17 37  1  0  0  0  0
 17 38  1  0  0  0  0
 18 19  1  0  0  0  0
 18 39  1  0  0  0  0
 18 40  1  0  0  0  0
 19 20  1  0  0  0  0
 19 41  1  0  0  0  0
 19 42  1  0  0  0  0
 20 43  1  0  0  0  0
M  CHG  1  15   1
M  END
> <s_m_source_file>
AV-unprocessed.smi

> <i_m_source_file_index>
311

> <i_lp_mmshare_version>
43012

> <i_f3d_flags>
0

> <s_epik_input>
W0NIM11jMW5vYyhbQ0gzXSljMVtDSDJdQyg9TylbTkhdW0NASF0oW0NIMl1bQ0gyXTIpW0NAQEhdKE4yMylbQ0gyXVtDSDJdW0NIMl1bQ0gyXTM=

> <s_epik_cmdline>
J2VwaWtfcHl0aG9uJywgJy1waCcsICc3LjAnLCAnLXRuJywgJzgnLCAnLW1hJywgJzIwMCcsICctbWV0YWxfYmluZGluZycsICctaW1hZScsICc8aW5maWxlLm1hZT4nLCAnLW9tYWUnLCAnPG91dGZpbGUubWFlPic=

> <r_epik_Ionization_Penalty>
0.00173669

> <r_epik_Ionization_Penalty_Charging>
0.0017366

> <r_epik_Ionization_Penalty_Neutral>
9.2145e-08

> <r_epik_State_Penalty>
0.00117499

> <r_epik_Charging_Adjusted_Penalty>
0.00291159

> <i_epik_Tot_Q>
1

> <i_epik_Tot_abs_Q>
1

> <r_epik_Metal_State_Penalty>
-0

> <b_epik_Metal_Only>
0

> <s_lp_Force_Field>
OPLS_2005

> <r_lp_Energy>
35.4626

> <b_lp_Chiralities_Consistent>
1

> <s_lp_Variant>
AV-unprocessed.smi:311-4

> <Gold.Version>
5.8.1

> <Gold.Id.Protein>
6NUR|6NUR_protein|mol2

> <Gold.PLP.Fitness>
38.7634

> <Gold.PLP.PLP>
-33.3127

> <Gold.PLP.part.hbond>
-3.4059

> <Gold.PLP.part.metal>
0.0000

> <Gold.PLP.part.buried>
-0.9750

> <Gold.PLP.part.nonpolar>
-28.8555

> <Gold.PLP.part.repulsive>
0.1001

> <Gold.PLP.ligand.clash>
0.0000

> <Gold.PLP.ligand.torsion>
0.2432

> <Gold.PLP.Chemscore.Hbond>
1.9789

> <Gold.PLP.Chemscore.CHOScore>
0.0000

> <Gold.PLP.Chemscore.Metal>
0.0000

> <Gold.Chemscore.Hbonds>
donor molecule, donor type, donor heavy atom, donor atom, acceptor molecule, acceptor atom, score
      L1  H    11    29       P1  7948  1.00
      L1  H    15    44       P1  7921  0.04
      P1  H  6896  6907       L1     3  0.78

> <Gold.PLP.Chemscore.Internal.Correction>
0.0004

> <Gold.Rescore>
     Score         DG    S(hbond)    S(metal)    S(lipo)     H(rot)  DE(clash)    DE(int)     intcor
     16.26     -18.45       1.72        0.00      91.45       1.36       0.78       1.41       ----

> <Gold.Chemscore.Fitness>
16.2565

> <Gold.Chemscore.DG>
-18.4500

> <Gold.Chemscore.ZeroCoef>
-5.4800

> <Gold.Chemscore.Hbond>
1.7194

> <Gold.Chemscore.Metal>
0.0000

> <Gold.Chemscore.Lipo>
91.4542

> <Gold.Chemscore.Internal_Hbond>
0.0000

> <Gold.Chemscore.DEClash>
0.7847

> <Gold.Chemscore.DEInternal>
1.4087

> <Gold.Chemscore.Rot>
1.3567

> <Gold.Chemscore.Internal.Correction>
   9.000000E+99

> <Gold.Chemscore.Hbonds>
donor molecule, donor type, donor heavy atom, donor atom, acceptor molecule, acceptor atom, score
      L1  H    11    29       P1  7948  0.71
      L1  H    15    44       P1  7921  0.02
      P1  H  6896  6907       L1     3  0.51

> <Gold.Chemscore.Hbond.Weighted>
-5.7429

> <Gold.Chemscore.Metal.Weighted>
-0.0000

> <Gold.Chemscore.Lipo.Weighted>
-10.7001

> <Gold.Chemscore.Internal_Hbond.Weighted>
0.0000

> <Gold.Chemscore.DEClash.Weighted>
0.7847

> <Gold.Chemscore.DEInternal.Weighted>
1.4087

> <Gold.Chemscore.Rot.Weighted>
3.4731

> <Gold.Chemscore.Internal.Correction.Weighted>
   9.000000E+99

> <Gold.Protein.RotatedTorsions>
[ 6907 6896 6895 6894 ] final -145.11 input  -60.11 | X-H torsion
[ 7974 7965 7964 7962 ] final -136.20 input  175.53 | X-H torsion
[ 8008 7997 7996 7995 ] final   93.90 input   59.86 | X-H torsion
[ 10167 10162 10161 10158 ] final  -72.59 input  -65.29 | X-H torsion
[ 10718 10713 10712 10709 ] final   -8.19 input   66.30 | X-H torsion
[ 10763 10752 10751 10750 ] final  103.20 input  -60.55 | X-H torsion
[ 11005 11000 10999 10996 ] final  132.07 input  -57.11 | X-H torsion

> <Gold.Protein.ActiveResidues>
 VAL166  LYS551  ARG553  GLY616  TRP617  ASP618  TYR619  PRO620  LYS621  CYS622 
 ASP623  PHE694  ASN695  SER759  ASP760  ASP761  ALA762  ILE779  LEU786  VAL792 
 PHE793  MET794  SER795  GLU796  ALA797  LYS798  CYS799  TRP800  GLU811  SER814 

> <Gold.Protein.RotatedAtoms>
  151.1233  133.5089  159.2601 H   0  0  0  0  0  0  0  0  0  0  0  0  # atno 6907 bound_to 6896
  151.1838  135.0372  159.8813 H   0  0  0  0  0  0  0  0  0  0  0  0  # atno 6908 bound_to 6896
  152.5457  134.1082  159.8400 H   0  0  0  0  0  0  0  0  0  0  0  0  # atno 6909 bound_to 6896
  144.8947  140.6691  143.5123 H   0  0  0  0  0  0  0  0  0  0  0  0  # atno 7974 bound_to 7965
  156.0520  140.3307  155.7362 H   0  0  0  0  0  0  0  0  0  0  0  0  # atno 8008 bound_to 7997
  155.5587  140.0617  157.2851 H   0  0  0  0  0  0  0  0  0  0  0  0  # atno 8009 bound_to 7997
  154.4440  140.1881  156.0748 H   0  0  0  0  0  0  0  0  0  0  0  0  # atno 8010 bound_to 7997
  140.5180  143.2335  151.7479 H   0  0  0  0  0  0  0  0  0  0  0  0  # atno 10167 bound_to 10162
  156.7062  130.5108  149.5904 H   0  0  0  0  0  0  0  0  0  0  0  0  # atno 10718 bound_to 10713
  153.3496  135.3984  155.1636 H   0  0  0  0  0  0  0  0  0  0  0  0  # atno 10763 bound_to 10752
  154.8660  135.3653  154.5239 H   0  0  0  0  0  0  0  0  0  0  0  0  # atno 10764 bound_to 10752
  153.5690  135.7079  153.5573 H   0  0  0  0  0  0  0  0  0  0  0  0  # atno 10765 bound_to 10752
  139.9768  134.9561  156.9529 H   0  0  0  0  0  0  0  0  0  0  0  0  # atno 11005 bound_to 11000
  145.3720  139.1656  143.4327 LP  0  0  0  0  0  0  0  0  0  0  0  0  # atno 17320 bound_to 7965
  146.3074  140.3793  142.8682 LP  0  0  0  0  0  0  0  0  0  0  0  0  # atno 17321 bound_to 7965
  139.4915  144.4296  151.9887 LP  0  0  0  0  0  0  0  0  0  0  0  0  # atno 17342 bound_to 10162
  140.3391  144.3225  150.5971 LP  0  0  0  0  0  0  0  0  0  0  0  0  # atno 17343 bound_to 10162
  156.1693  130.6426  151.0818 LP  0  0  0  0  0  0  0  0  0  0  0  0  # atno 17370 bound_to 10713
  157.6954  131.0796  150.6985 LP  0  0  0  0  0  0  0  0  0  0  0  0  # atno 17371 bound_to 10713
  140.5178  134.0937  155.7285 LP  0  0  0  0  0  0  0  0  0  0  0  0  # atno 17394 bound_to 11000
  141.1444  133.9081  157.2250 LP  0  0  0  0  0  0  0  0  0  0  0  0  # atno 17395 bound_to 11000

$$$$
