AV-unprocessed.smi:657|AV-procd|sdf|3222|dock2
  -GOLD-   22720 0163D 1   1.00000     0.00000
 Structure written by MMmdl.
 47 48  0  0  0  0  0  0  0  0  2 V2000
  145.9403  137.6218  153.7416 C   0  0  0  0  0  0  0  0  0  0  0  0
  147.0983  138.6163  153.9652 C   0  0  0  0  0  0  0  0  0  0  0  0
  147.0906  139.6338  152.8043 C   0  0  0  0  0  0  0  0  0  0  0  0
  148.4317  137.9376  154.1155 N   0  3  2  0  0  0  0  0  0  0  0  0
  148.4730  136.8815  155.1745 C   0  0  0  0  0  0  0  0  0  0  0  0
  149.7974  136.1001  155.1646 C   0  0  0  0  0  0  0  0  0  0  0  0
  151.0031  137.0319  155.2932 C   0  0  0  0  0  0  0  0  0  0  0  0
  150.9470  138.0855  154.1813 C   0  0  0  0  0  0  0  0  0  0  0  0
  149.6137  138.8677  154.1647 C   0  0  2  0  0  0  0  0  0  0  0  0
  149.5601  139.9249  155.2902 C   0  0  0  0  0  0  0  0  0  0  0  0
  148.5186  140.1394  155.9092 O   0  0  0  0  0  0  0  0  0  0  0  0
  150.7066  140.5732  155.5482 N   0  0  0  0  0  0  0  0  0  0  0  0
  150.8967  141.6017  156.5690 C   0  0  0  0  0  0  0  0  0  0  0  0
  151.8756  141.1997  157.6936 C   0  0  0  0  0  0  0  0  0  0  0  0
  152.0851  142.2766  158.7270 C   0  0  0  0  0  0  0  0  0  0  0  0
  152.7977  142.1947  159.9577 C   0  0  0  0  0  0  0  0  0  0  0  0
  152.8025  143.3364  160.6261 N   0  0  0  0  0  0  0  0  0  0  0  0
  152.0860  144.1802  159.8557 N   0  0  0  0  0  0  0  0  0  0  0  0
  151.8788  145.5451  160.2896 C   0  0  0  0  0  0  0  0  0  0  0  0
  151.6362  143.5669  158.7071 C   0  0  0  0  0  0  0  0  0  0  0  0
  145.0120  138.1476  153.5156 H   0  0  0  0  0  0  0  0  0  0  0  0
  145.7330  137.0220  154.6274 H   0  0  0  0  0  0  0  0  0  0  0  0
  146.1466  136.9481  152.9091 H   0  0  0  0  0  0  0  0  0  0  0  0
  146.8785  139.1539  154.8877 H   0  0  0  0  0  0  0  0  0  0  0  0
  146.0882  140.0230  152.6271 H   0  0  0  0  0  0  0  0  0  0  0  0
  147.4320  139.1790  151.8738 H   0  0  0  0  0  0  0  0  0  0  0  0
  147.7165  140.5014  153.0092 H   0  0  0  0  0  0  0  0  0  0  0  0
  148.2910  137.3163  156.1568 H   0  0  0  0  0  0  0  0  0  0  0  0
  147.6864  136.1466  155.0158 H   0  0  0  0  0  0  0  0  0  0  0  0
  149.8042  135.3712  155.9757 H   0  0  0  0  0  0  0  0  0  0  0  0
  149.8760  135.5295  154.2382 H   0  0  0  0  0  0  0  0  0  0  0  0
  151.0103  137.5059  156.2750 H   0  0  0  0  0  0  0  0  0  0  0  0
  151.9280  136.4594  155.2205 H   0  0  0  0  0  0  0  0  0  0  0  0
  151.7899  138.7713  154.2805 H   0  0  0  0  0  0  0  0  0  0  0  0
  151.0806  137.5907  153.2182 H   0  0  0  0  0  0  0  0  0  0  0  0
  149.6327  139.4109  153.2202 H   0  0  0  0  0  0  0  0  0  0  0  0
  151.5180  140.3334  154.9967 H   0  0  0  0  0  0  0  0  0  0  0  0
  151.2145  142.5356  156.1033 H   0  0  0  0  0  0  0  0  0  0  0  0
  149.9160  141.7957  157.0043 H   0  0  0  0  0  0  0  0  0  0  0  0
  151.5074  140.2909  158.1709 H   0  0  0  0  0  0  0  0  0  0  0  0
  152.8270  140.9156  157.2432 H   0  0  0  0  0  0  0  0  0  0  0  0
  153.3171  141.3458  160.3772 H   0  0  0  0  0  0  0  0  0  0  0  0
  151.5488  146.1567  159.4495 H   0  0  0  0  0  0  0  0  0  0  0  0
  152.8084  145.9584  160.6826 H   0  0  0  0  0  0  0  0  0  0  0  0
  151.1177  145.5701  161.0698 H   0  0  0  0  0  0  0  0  0  0  0  0
  151.0458  144.0958  157.9732 H   0  0  0  0  0  0  0  0  0  0  0  0
  148.5537  137.4259  153.2535 H   0  0  0  0  0  0  0  0  0  0  0  0
  1  2  1  0  0  0  0
  1 21  1  0  0  0  0
  1 22  1  0  0  0  0
  1 23  1  0  0  0  0
  2  3  1  0  0  0  0
  2  4  1  0  0  0  0
  2 24  1  0  0  0  0
  3 25  1  0  0  0  0
  3 26  1  0  0  0  0
  3 27  1  0  0  0  0
  4  9  1  0  0  0  0
  4  5  1  0  0  0  0
  4 47  1  0  0  0  0
  5  6  1  0  0  0  0
  5 28  1  0  0  0  0
  5 29  1  0  0  0  0
  6  7  1  0  0  0  0
  6 30  1  0  0  0  0
  6 31  1  0  0  0  0
  7  8  1  0  0  0  0
  7 32  1  0  0  0  0
  7 33  1  0  0  0  0
  8  9  1  0  0  0  0
  8 34  1  0  0  0  0
  8 35  1  0  0  0  0
  9 10  1  0  0  0  0
  9 36  1  0  0  0  0
 10 11  2  0  0  0  0
 10 12  1  0  0  0  0
 12 13  1  0  0  0  0
 12 37  1  0  0  0  0
 13 14  1  0  0  0  0
 13 38  1  0  0  0  0
 13 39  1  0  0  0  0
 14 15  1  0  0  0  0
 14 40  1  0  0  0  0
 14 41  1  0  0  0  0
 15 20  2  0  0  0  0
 15 16  1  0  0  0  0
 16 17  2  0  0  0  0
 16 42  1  0  0  0  0
 17 18  1  0  0  0  0
 18 19  1  0  0  0  0
 18 20  1  0  0  0  0
 19 43  1  0  0  0  0
 19 44  1  0  0  0  0
 19 45  1  0  0  0  0
 20 46  1  0  0  0  0
M  CHG  1   4   1
M  END
> <s_m_source_file>
AV-unprocessed.smi

> <i_m_source_file_index>
657

> <i_lp_mmshare_version>
43012

> <i_f3d_flags>
0

> <s_epik_input>
W0NIM11bQ0hdKFtDSDNdKU4xW0NIMl1bQ0gyXVtDSDJdW0NIMl1bQ0BIXTFDKD1PKVtOSF1bQ0gyXVtDSDJdYzJbY0hdbm4oW0NIM10pW2NIXTI=

> <s_epik_cmdline>
J2VwaWtfcHl0aG9uJywgJy1waCcsICc3LjAnLCAnLXRuJywgJzgnLCAnLW1hJywgJzIwMCcsICctbWV0YWxfYmluZGluZycsICctaW1hZScsICc8aW5maWxlLm1hZT4nLCAnLW9tYWUnLCAnPG91dGZpbGUubWFlPic=

> <r_lp_tautomer_probability>
1

> <r_epik_Ionization_Penalty>
0.0244317

> <r_epik_Ionization_Penalty_Charging>
0.0240236

> <r_epik_Ionization_Penalty_Neutral>
0.00040815

> <r_epik_State_Penalty>
0.0194773

> <r_epik_Charging_Adjusted_Penalty>
0.0435009

> <i_epik_Tot_Q>
1

> <i_epik_Tot_abs_Q>
1

> <r_epik_Metal_State_Penalty>
0.0361957

> <b_epik_Metal_Only>
0

> <s_lp_Force_Field>
OPLS_2005

> <r_lp_Energy>
17.7945

> <b_lp_Chiralities_Consistent>
1

> <s_lp_Variant>
AV-unprocessed.smi:657-3

> <Gold.Version>
5.8.1

> <Gold.Id.Protein>
6NUR|6NUR_protein|mol2

> <Gold.PLP.Fitness>
43.5177

> <Gold.PLP.PLP>
-38.4823

> <Gold.PLP.part.hbond>
-1.0000

> <Gold.PLP.part.metal>
0.0000

> <Gold.PLP.part.buried>
-4.2952

> <Gold.PLP.part.nonpolar>
-33.0814

> <Gold.PLP.part.repulsive>
0.6583

> <Gold.PLP.ligand.clash>
0.0000

> <Gold.PLP.ligand.torsion>
0.5881

> <Gold.PLP.Chemscore.Hbond>
2.0000

> <Gold.PLP.Chemscore.CHOScore>
0.0000

> <Gold.PLP.Chemscore.Metal>
0.0000

> <Gold.Chemscore.Hbonds>
donor molecule, donor type, donor heavy atom, donor atom, acceptor molecule, acceptor atom, score
      L1  H     4    47       P1  7948  2.00

> <Gold.PLP.Chemscore.Internal.Correction>
0.2115

> <Gold.Rescore>
     Score         DG    S(hbond)    S(metal)    S(lipo)     H(rot)  DE(clash)    DE(int)     intcor
     14.50     -16.56       1.00        0.00     101.76       1.63       0.03       2.03       ----

> <Gold.Chemscore.Fitness>
14.5026

> <Gold.Chemscore.DG>
-16.5565

> <Gold.Chemscore.ZeroCoef>
-5.4800

> <Gold.Chemscore.Hbond>
0.9992

> <Gold.Chemscore.Metal>
0.0000

> <Gold.Chemscore.Lipo>
101.7644

> <Gold.Chemscore.Internal_Hbond>
0.0000

> <Gold.Chemscore.DEClash>
0.0260

> <Gold.Chemscore.DEInternal>
2.0279

> <Gold.Chemscore.Rot>
1.6279

> <Gold.Chemscore.Internal.Correction>
   9.000000E+99

> <Gold.Chemscore.Hbonds>
donor molecule, donor type, donor heavy atom, donor atom, acceptor molecule, acceptor atom, score
      L1  H     4    47       P1  7948  1.00

> <Gold.Chemscore.Hbond.Weighted>
-3.3374

> <Gold.Chemscore.Metal.Weighted>
-0.0000

> <Gold.Chemscore.Lipo.Weighted>
-11.9064

> <Gold.Chemscore.Internal_Hbond.Weighted>
0.0000

> <Gold.Chemscore.DEClash.Weighted>
0.0260

> <Gold.Chemscore.DEInternal.Weighted>
2.0279

> <Gold.Chemscore.Rot.Weighted>
4.1673

> <Gold.Chemscore.Internal.Correction.Weighted>
   9.000000E+99

> <Gold.Protein.RotatedTorsions>
[ 6907 6896 6895 6894 ] final  -37.08 input  -60.11 | X-H torsion
[ 7974 7965 7964 7962 ] final  -61.81 input  175.53 | X-H torsion
[ 8008 7997 7996 7995 ] final    0.74 input   59.86 | X-H torsion
[ 10167 10162 10161 10158 ] final  -72.54 input  -65.29 | X-H torsion
[ 10718 10713 10712 10709 ] final   61.63 input   66.30 | X-H torsion
[ 10763 10752 10751 10750 ] final    1.22 input  -60.55 | X-H torsion
[ 11005 11000 10999 10996 ] final  158.13 input  -57.11 | X-H torsion

> <Gold.Protein.ActiveResidues>
 VAL166  LYS551  ARG553  GLY616  TRP617  ASP618  TYR619  PRO620  LYS621  CYS622 
 ASP623  PHE694  ASN695  SER759  ASP760  ASP761  ALA762  ILE779  LEU786  VAL792 
 PHE793  MET794  SER795  GLU796  ALA797  LYS798  CYS799  TRP800  GLU811  SER814 

> <Gold.Protein.RotatedAtoms>
  151.0191  134.9455  159.8049 H   0  0  0  0  0  0  0  0  0  0  0  0  # atno 6907 bound_to 6896
  152.5321  134.2927  159.9059 H   0  0  0  0  0  0  0  0  0  0  0  0  # atno 6908 bound_to 6896
  151.2934  133.4113  159.2669 H   0  0  0  0  0  0  0  0  0  0  0  0  # atno 6909 bound_to 6896
  145.7989  140.8666  143.0242 H   0  0  0  0  0  0  0  0  0  0  0  0  # atno 7974 bound_to 7965
  154.6716  140.2613  155.7001 H   0  0  0  0  0  0  0  0  0  0  0  0  # atno 8008 bound_to 7997
  156.2661  140.2828  156.1149 H   0  0  0  0  0  0  0  0  0  0  0  0  # atno 8009 bound_to 7997
  155.1160  140.0376  157.2727 H   0  0  0  0  0  0  0  0  0  0  0  0  # atno 8010 bound_to 7997
  140.5183  143.2335  151.7474 H   0  0  0  0  0  0  0  0  0  0  0  0  # atno 10167 bound_to 10162
  157.5842  130.9005  149.9485 H   0  0  0  0  0  0  0  0  0  0  0  0  # atno 10718 bound_to 10713
  153.3108  135.6962  153.7117 H   0  0  0  0  0  0  0  0  0  0  0  0  # atno 10763 bound_to 10752
  153.5996  135.3464  155.2941 H   0  0  0  0  0  0  0  0  0  0  0  0  # atno 10764 bound_to 10752
  154.8574  135.4337  154.2245 H   0  0  0  0  0  0  0  0  0  0  0  0  # atno 10765 bound_to 10752
  140.1835  134.8458  157.2830 H   0  0  0  0  0  0  0  0  0  0  0  0  # atno 11005 bound_to 11000
  144.6771  140.0230  143.7483 LP  0  0  0  0  0  0  0  0  0  0  0  0  # atno 17320 bound_to 7965
  145.9899  139.3006  143.0991 LP  0  0  0  0  0  0  0  0  0  0  0  0  # atno 17321 bound_to 7965
  139.4916  144.4291  151.9892 LP  0  0  0  0  0  0  0  0  0  0  0  0  # atno 17342 bound_to 10162
  140.3386  144.3230  150.5972 LP  0  0  0  0  0  0  0  0  0  0  0  0  # atno 17343 bound_to 10162
  156.0890  130.3665  150.0432 LP  0  0  0  0  0  0  0  0  0  0  0  0  # atno 17370 bound_to 10713
  156.8566  130.9477  151.3621 LP  0  0  0  0  0  0  0  0  0  0  0  0  # atno 17371 bound_to 10713
  140.2240  134.3989  155.7552 LP  0  0  0  0  0  0  0  0  0  0  0  0  # atno 17394 bound_to 11000
  141.2224  133.7180  156.8536 LP  0  0  0  0  0  0  0  0  0  0  0  0  # atno 17395 bound_to 11000

$$$$
