AV-unprocessed.smi:438|AV-procd|sdf|2574|dock4
  -GOLD-   2262022553D 1   1.00000     0.00000
 Structure written by MMmdl.
 47 48  0  0  0  0  0  0  0  0  2 V2000
  148.0779  132.8918  158.7153 C   0  0  0  0  0  0  0  0  0  0  0  0
  148.3135  134.3308  159.1383 C   0  0  0  0  0  0  0  0  0  0  0  0
  149.3963  134.9802  158.5222 N   0  0  0  0  0  0  0  0  0  0  0  0
  149.6647  136.1913  158.8326 C   0  0  0  0  0  0  0  0  0  0  0  0
  151.0579  137.0248  158.0520 S   0  0  0  0  0  0  0  0  0  0  0  0
  150.3363  138.5649  157.4087 C   0  0  0  0  0  0  0  0  0  0  0  0
  151.2742  139.7638  157.5400 C   0  0  0  0  0  0  0  0  0  0  0  0
  152.3771  139.7549  156.9921 O   0  0  0  0  0  0  0  0  0  0  0  0
  150.8238  140.7930  158.2742 N   0  0  0  0  0  0  0  0  0  0  0  0
  151.5472  142.0385  158.5216 C   0  0  1  0  0  0  0  0  0  0  0  0
  150.5887  143.2348  158.3471 C   0  0  0  0  0  0  0  0  0  0  0  0
  151.2845  144.5684  158.6543 C   0  0  0  0  0  0  0  0  0  0  0  0
  151.8944  144.5581  160.0625 C   0  0  0  0  0  0  0  0  0  0  0  0
  152.8620  143.3779  160.2360 C   0  0  0  0  0  0  0  0  0  0  0  0
  152.1817  142.0267  159.9350 C   0  0  2  0  0  0  0  0  0  0  0  0
  153.1773  140.8680  160.1244 C   0  0  0  0  0  0  0  0  0  0  0  0
  148.9474  136.9254  159.7483 N   0  5  0  0  0  0  0  0  0  0  0  0
  147.8804  136.3671  160.3880 C   0  0  0  0  0  0  0  0  0  0  0  0
  147.2140  136.9889  161.2146 O   0  0  0  0  0  0  0  0  0  0  0  0
  147.5420  134.9702  160.0630 C   0  0  0  0  0  0  0  0  0  0  0  0
  146.3482  134.3210  160.7590 C   0  0  0  0  0  0  0  0  0  0  0  0
  146.7829  133.2653  161.7856 C   0  0  0  0  0  0  0  0  0  0  0  0
  147.3616  133.8955  162.9079 O   0  0  0  0  0  0  0  0  0  0  0  0
  148.0204  132.2396  159.5869 H   0  0  0  0  0  0  0  0  0  0  0  0
  148.8870  132.5293  158.0798 H   0  0  0  0  0  0  0  0  0  0  0  0
  147.1465  132.8087  158.1550 H   0  0  0  0  0  0  0  0  0  0  0  0
  149.4155  138.7817  157.9509 H   0  0  0  0  0  0  0  0  0  0  0  0
  150.0697  138.4174  156.3610 H   0  0  0  0  0  0  0  0  0  0  0  0
  149.9064  140.7106  158.6879 H   0  0  0  0  0  0  0  0  0  0  0  0
  152.3551  142.1343  157.7934 H   0  0  0  0  0  0  0  0  0  0  0  0
  150.1963  143.2564  157.3295 H   0  0  0  0  0  0  0  0  0  0  0  0
  149.7274  143.1173  159.0066 H   0  0  0  0  0  0  0  0  0  0  0  0
  152.0665  144.7518  157.9164 H   0  0  0  0  0  0  0  0  0  0  0  0
  150.5730  145.3893  158.5625 H   0  0  0  0  0  0  0  0  0  0  0  0
  152.4165  145.4971  160.2480 H   0  0  0  0  0  0  0  0  0  0  0  0
  151.0994  144.4932  160.8065 H   0  0  0  0  0  0  0  0  0  0  0  0
  153.7197  143.5132  159.5756 H   0  0  0  0  0  0  0  0  0  0  0  0
  153.2554  143.3789  161.2531 H   0  0  0  0  0  0  0  0  0  0  0  0
  151.3809  141.8920  160.6642 H   0  0  0  0  0  0  0  0  0  0  0  0
  153.9876  140.9213  159.3965 H   0  0  0  0  0  0  0  0  0  0  0  0
  152.6937  139.8974  160.0135 H   0  0  0  0  0  0  0  0  0  0  0  0
  153.6237  140.8940  161.1187 H   0  0  0  0  0  0  0  0  0  0  0  0
  145.6878  133.8639  160.0225 H   0  0  0  0  0  0  0  0  0  0  0  0
  145.7456  135.0911  161.2430 H   0  0  0  0  0  0  0  0  0  0  0  0
  145.9287  132.6716  162.1128 H   0  0  0  0  0  0  0  0  0  0  0  0
  147.5106  132.5787  161.3517 H   0  0  0  0  0  0  0  0  0  0  0  0
  146.6669  134.1809  163.4815 H   0  0  0  0  0  0  0  0  0  0  0  0
  1 24  1  0  0  0  0
  1 25  1  0  0  0  0
  1 26  1  0  0  0  0
  1  2  1  0  0  0  0
  2 20  2  0  0  0  0
  2  3  1  0  0  0  0
  3  4  2  0  0  0  0
  4  5  1  0  0  0  0
  4 17  1  0  0  0  0
  5  6  1  0  0  0  0
  6  7  1  0  0  0  0
  6 27  1  0  0  0  0
  6 28  1  0  0  0  0
  7  8  2  0  0  0  0
  7  9  1  0  0  0  0
  9 10  1  0  0  0  0
  9 29  1  0  0  0  0
 10 15  1  0  0  0  0
 10 11  1  0  0  0  0
 10 30  1  0  0  0  0
 11 12  1  0  0  0  0
 11 31  1  0  0  0  0
 11 32  1  0  0  0  0
 12 13  1  0  0  0  0
 12 33  1  0  0  0  0
 12 34  1  0  0  0  0
 13 14  1  0  0  0  0
 13 35  1  0  0  0  0
 13 36  1  0  0  0  0
 14 15  1  0  0  0  0
 14 37  1  0  0  0  0
 14 38  1  0  0  0  0
 15 16  1  0  0  0  0
 15 39  1  0  0  0  0
 16 40  1  0  0  0  0
 16 41  1  0  0  0  0
 16 42  1  0  0  0  0
 17 18  1  0  0  0  0
 18 19  2  0  0  0  0
 18 20  1  0  0  0  0
 20 21  1  0  0  0  0
 21 22  1  0  0  0  0
 21 43  1  0  0  0  0
 21 44  1  0  0  0  0
 22 23  1  0  0  0  0
 22 45  1  0  0  0  0
 22 46  1  0  0  0  0
 23 47  1  0  0  0  0
M  CHG  1  17  -1
M  END
> <s_m_source_file>
AV-unprocessed.smi

> <i_m_source_file_index>
438

> <i_lp_mmshare_version>
43012

> <i_f3d_flags>
0

> <s_epik_input>
W09IXVtDSDJdW0NIMl1jMWMoW09IXSluYyhuYzFbQ0gzXSlTW0NIMl1DKD1PKVtOSF1bQ0BASF0yW0NIMl1bQ0gyXVtDSDJdW0NIMl1bQ0BIXTJbQ0gzXQ==

> <s_epik_cmdline>
J2VwaWtfcHl0aG9uJywgJy1waCcsICc3LjAnLCAnLXRuJywgJzgnLCAnLW1hJywgJzIwMCcsICctbWV0YWxfYmluZGluZycsICctaW1hZScsICc8aW5maWxlLm1hZT4nLCAnLW9tYWUnLCAnPG91dGZpbGUubWFlPic=

> <r_lp_tautomer_probability>
1

> <r_epik_Ionization_Penalty>
3.69231

> <r_epik_Ionization_Penalty_Charging>
0.00434774

> <r_epik_Ionization_Penalty_Neutral>
3.68796

> <r_epik_State_Penalty>
2.13826

> <r_epik_Charging_Adjusted_Penalty>
2.14261

> <i_epik_Tot_Q>
-1

> <i_epik_Tot_abs_Q>
1

> <r_epik_Metal_State_Penalty>
0.260979

> <b_epik_Metal_Only>
0

> <s_lp_Force_Field>
OPLS_2005

> <r_lp_Energy>
18.4405

> <b_lp_Chiralities_Consistent>
1

> <s_lp_Variant>
AV-unprocessed.smi:438-12

> <Gold.Version>
5.8.1

> <Gold.Id.Protein>
6NUR|6NUR_protein|mol2

> <Gold.PLP.Fitness>
50.4957

> <Gold.PLP.PLP>
-42.5036

> <Gold.PLP.part.hbond>
-6.6949

> <Gold.PLP.part.metal>
0.0000

> <Gold.PLP.part.buried>
-2.7410

> <Gold.PLP.part.nonpolar>
-32.9964

> <Gold.PLP.part.repulsive>
0.1286

> <Gold.PLP.ligand.clash>
0.0000

> <Gold.PLP.ligand.torsion>
0.6987

> <Gold.PLP.Chemscore.Hbond>
3.0909

> <Gold.PLP.Chemscore.CHOScore>
0.0000

> <Gold.PLP.Chemscore.Metal>
0.0000

> <Gold.Chemscore.Hbonds>
donor molecule, donor type, donor heavy atom, donor atom, acceptor molecule, acceptor atom, score
      P1  H  6896  6907       L1     3  0.71
      P1  H  6931  6943       L1    19  0.17
      P1  H  6934  6947       L1    19  0.94
      P1  H  7997  8008       L1     8  0.94

> <Gold.PLP.Chemscore.Internal.Correction>
0.1167

> <Gold.Rescore>
     Score         DG    S(hbond)    S(metal)    S(lipo)     H(rot)  DE(clash)    DE(int)     intcor
     16.65     -17.43       2.00        0.00     106.14       2.79       0.01       0.77       ----

> <Gold.Chemscore.Fitness>
16.6480

> <Gold.Chemscore.DG>
-17.4276

> <Gold.Chemscore.ZeroCoef>
-5.4800

> <Gold.Chemscore.Hbond>
1.9997

> <Gold.Chemscore.Metal>
0.0000

> <Gold.Chemscore.Lipo>
106.1357

> <Gold.Chemscore.Internal_Hbond>
0.0000

> <Gold.Chemscore.DEClash>
0.0120

> <Gold.Chemscore.DEInternal>
0.7676

> <Gold.Chemscore.Rot>
2.7927

> <Gold.Chemscore.Internal.Correction>
   9.000000E+99

> <Gold.Chemscore.Hbonds>
donor molecule, donor type, donor heavy atom, donor atom, acceptor molecule, acceptor atom, score
      P1  H  6896  6907       L1     3  0.02
      P1  H  6931  6943       L1    19  0.01
      P1  H  6934  6947       L1    19  0.80
      P1  H  7997  8008       L1     8  0.90

> <Gold.Chemscore.Hbond.Weighted>
-6.6790

> <Gold.Chemscore.Metal.Weighted>
-0.0000

> <Gold.Chemscore.Lipo.Weighted>
-12.4179

> <Gold.Chemscore.Internal_Hbond.Weighted>
0.0000

> <Gold.Chemscore.DEClash.Weighted>
0.0120

> <Gold.Chemscore.DEInternal.Weighted>
0.7676

> <Gold.Chemscore.Rot.Weighted>
7.1492

> <Gold.Chemscore.Internal.Correction.Weighted>
   9.000000E+99

> <Gold.Protein.RotatedTorsions>
[ 6907 6896 6895 6894 ] final  -87.93 input  -60.11 | X-H torsion
[ 7974 7965 7964 7962 ] final  -47.31 input  175.53 | X-H torsion
[ 8008 7997 7996 7995 ] final  -56.41 input   59.86 | X-H torsion
[ 10167 10162 10161 10158 ] final  -94.46 input  -65.29 | X-H torsion
[ 10718 10713 10712 10709 ] final  167.03 input   66.30 | X-H torsion
[ 10763 10752 10751 10750 ] final  -61.14 input  -60.55 | X-H torsion
[ 11005 11000 10999 10996 ] final  171.69 input  -57.11 | X-H torsion

> <Gold.Protein.ActiveResidues>
 VAL166  LYS551  ARG553  GLY616  TRP617  ASP618  TYR619  PRO620  LYS621  CYS622 
 ASP623  PHE694  ASN695  SER759  ASP760  ASP761  ALA762  ILE779  LEU786  VAL792 
 PHE793  MET794  SER795  GLU796  ALA797  LYS798  CYS799  TRP800  GLU811  SER814 

> <Gold.Protein.RotatedAtoms>
  150.6867  134.2820  159.4631 H   0  0  0  0  0  0  0  0  0  0  0  0  # atno 6907 bound_to 6896
  152.0733  134.9516  160.0583 H   0  0  0  0  0  0  0  0  0  0  0  0  # atno 6908 bound_to 6896
  152.0898  133.4160  159.4575 H   0  0  0  0  0  0  0  0  0  0  0  0  # atno 6909 bound_to 6896
  145.9629  140.7461  142.9448 H   0  0  0  0  0  0  0  0  0  0  0  0  # atno 7974 bound_to 7965
  154.4229  140.1130  156.5632 H   0  0  0  0  0  0  0  0  0  0  0  0  # atno 8008 bound_to 7997
  155.6289  140.3495  155.4657 H   0  0  0  0  0  0  0  0  0  0  0  0  # atno 8009 bound_to 7997
  155.9964  140.1190  157.0579 H   0  0  0  0  0  0  0  0  0  0  0  0  # atno 8010 bound_to 7997
  140.3142  143.3087  152.0115 H   0  0  0  0  0  0  0  0  0  0  0  0  # atno 10167 bound_to 10162
  157.0574  131.0330  151.2659 H   0  0  0  0  0  0  0  0  0  0  0  0  # atno 10718 bound_to 10713
  154.2800  135.6273  153.5343 H   0  0  0  0  0  0  0  0  0  0  0  0  # atno 10763 bound_to 10752
  152.9867  135.5631  154.5505 H   0  0  0  0  0  0  0  0  0  0  0  0  # atno 10764 bound_to 10752
  154.5094  135.2876  155.1331 H   0  0  0  0  0  0  0  0  0  0  0  0  # atno 10765 bound_to 10752
  140.3217  134.7431  157.4069 H   0  0  0  0  0  0  0  0  0  0  0  0  # atno 11005 bound_to 11000
  144.6819  140.2621  143.7317 LP  0  0  0  0  0  0  0  0  0  0  0  0  # atno 17320 bound_to 7965
  145.8014  139.1966  143.2046 LP  0  0  0  0  0  0  0  0  0  0  0  0  # atno 17321 bound_to 7965
  139.4887  144.6361  151.6973 LP  0  0  0  0  0  0  0  0  0  0  0  0  # atno 17342 bound_to 10162
  140.5541  144.0377  150.6140 LP  0  0  0  0  0  0  0  0  0  0  0  0  # atno 17343 bound_to 10162
  157.4982  130.7863  149.7577 LP  0  0  0  0  0  0  0  0  0  0  0  0  # atno 17370 bound_to 10713
  155.9989  130.3892  150.2685 LP  0  0  0  0  0  0  0  0  0  0  0  0  # atno 17371 bound_to 10713
  140.0936  134.5568  155.8420 LP  0  0  0  0  0  0  0  0  0  0  0  0  # atno 17394 bound_to 11000
  141.2085  133.6674  156.6374 LP  0  0  0  0  0  0  0  0  0  0  0  0  # atno 17395 bound_to 11000

$$$$
