AV-unprocessed.smi:54|AV-procd|sdf|533|dock9
  -GOLD-   2262016413D 1   1.00000     0.00000
 Structure written by MMmdl.
 44 46  0  0  0  0  0  0  0  0  1 V2000
  147.3405  134.4339  162.7755 C   0  0  0  0  0  0  0  0  0  0  0  0
  146.9294  135.8202  162.2535 C   0  0  0  0  0  0  0  0  0  0  0  0
  145.4182  135.8883  161.9794 C   0  0  0  0  0  0  0  0  0  0  0  0
  147.7231  136.1791  160.9925 C   0  0  0  0  0  0  0  0  0  0  0  0
  148.4341  137.1817  160.9325 O   0  0  0  0  0  0  0  0  0  0  0  0
  147.5900  135.2504  159.8866 N   0  0  0  0  0  0  0  0  0  0  0  0
  148.1766  135.3376  158.6710 C   0  0  0  0  0  0  0  0  0  0  0  0
  149.0445  136.2870  158.3490 N   0  0  0  0  0  0  0  0  0  0  0  0
  149.5074  136.2242  157.0626 C   0  0  0  0  0  0  0  0  0  0  0  0
  149.1596  135.2835  156.1137 C   0  0  0  0  0  0  0  0  0  0  0  0
  149.8312  135.5283  154.9219 N   0  0  0  0  0  0  0  0  0  0  0  0
  150.5432  136.5898  155.1743 C   0  0  0  0  0  0  0  0  0  0  0  0
  150.3992  137.0828  156.4485 N   0  0  0  0  0  0  0  0  0  0  0  0
  151.0663  138.2829  157.0362 C   0  0  2  0  0  0  0  0  0  0  0  0
  150.0829  139.1650  157.4704 O   0  0  0  0  0  0  0  0  0  0  0  0
  150.6047  140.4822  157.3785 C   0  0  2  0  0  0  0  0  0  0  0  0
  149.4908  141.5385  157.4815 C   0  0  0  0  0  0  0  0  0  0  0  0
  150.0399  142.8339  157.3654 O   0  0  0  0  0  0  0  0  0  0  0  0
  151.3830  140.4482  156.0533 C   0  0  2  0  0  0  0  0  0  0  0  0
  150.5399  140.7033  154.9459 O   0  0  0  0  0  0  0  0  0  0  0  0
  151.9276  139.0206  155.9950 C   0  0  1  0  0  0  0  0  0  0  0  0
  153.2893  139.0266  156.3763 O   0  0  0  0  0  0  0  0  0  0  0  0
  148.2209  134.2518  156.4479 C   0  0  0  0  0  0  0  0  0  0  0  0
  147.8016  133.3428  155.7347 O   0  0  0  0  0  0  0  0  0  0  0  0
  147.7663  134.3589  157.7672 N   0  0  0  0  0  0  0  0  0  0  0  0
  151.6358  137.9055  157.8872 H   0  0  0  0  0  0  0  0  0  0  0  0
  151.3252  140.6233  158.1872 H   0  0  0  0  0  0  0  0  0  0  0  0
  152.1725  141.2011  156.0404 H   0  0  0  0  0  0  0  0  0  0  0  0
  151.8275  138.5744  155.0040 H   0  0  0  0  0  0  0  0  0  0  0  0
  148.4139  134.3821  162.9617 H   0  0  0  0  0  0  0  0  0  0  0  0
  147.0871  133.6456  162.0653 H   0  0  0  0  0  0  0  0  0  0  0  0
  146.8351  134.2065  163.7144 H   0  0  0  0  0  0  0  0  0  0  0  0
  147.1660  136.5543  163.0251 H   0  0  0  0  0  0  0  0  0  0  0  0
  145.1269  136.8707  161.6060 H   0  0  0  0  0  0  0  0  0  0  0  0
  144.8489  135.7039  162.8908 H   0  0  0  0  0  0  0  0  0  0  0  0
  145.1089  135.1461  161.2422 H   0  0  0  0  0  0  0  0  0  0  0  0
  147.0313  134.4289  160.0634 H   0  0  0  0  0  0  0  0  0  0  0  0
  151.1863  137.0455  154.4355 H   0  0  0  0  0  0  0  0  0  0  0  0
  148.7750  141.4144  156.6684 H   0  0  0  0  0  0  0  0  0  0  0  0
  148.9428  141.4488  158.4184 H   0  0  0  0  0  0  0  0  0  0  0  0
  149.3948  143.3993  156.9687 H   0  0  0  0  0  0  0  0  0  0  0  0
  149.6852  140.3435  155.1265 H   0  0  0  0  0  0  0  0  0  0  0  0
  153.7165  138.2855  155.9750 H   0  0  0  0  0  0  0  0  0  0  0  0
  147.0971  133.6672  158.0709 H   0  0  0  0  0  0  0  0  0  0  0  0
  1  2  1  0  0  0  0
  1 30  1  0  0  0  0
  1 31  1  0  0  0  0
  1 32  1  0  0  0  0
  2  3  1  0  0  0  0
  2  4  1  0  0  0  0
  2 33  1  0  0  0  0
  3 34  1  0  0  0  0
  3 35  1  0  0  0  0
  3 36  1  0  0  0  0
  4  5  2  0  0  0  0
  4  6  1  0  0  0  0
  6 37  1  0  0  0  0
  6  7  1  0  0  0  0
  7 25  1  0  0  0  0
  7  8  2  0  0  0  0
  8  9  1  0  0  0  0
  9 13  1  0  0  0  0
  9 10  2  0  0  0  0
 10 11  1  0  0  0  0
 10 23  1  0  0  0  0
 11 12  2  0  0  0  0
 12 13  1  0  0  0  0
 12 38  1  0  0  0  0
 13 14  1  0  0  0  0
 14 26  1  0  0  0  0
 14 21  1  0  0  0  0
 14 15  1  0  0  0  0
 15 16  1  0  0  0  0
 16 27  1  0  0  0  0
 16 17  1  0  0  0  0
 16 19  1  0  0  0  0
 17 18  1  0  0  0  0
 17 39  1  0  0  0  0
 17 40  1  0  0  0  0
 18 41  1  0  0  0  0
 19 28  1  0  0  0  0
 19 20  1  0  0  0  0
 19 21  1  0  0  0  0
 20 42  1  0  0  0  0
 21 29  1  0  0  0  0
 21 22  1  0  0  0  0
 22 43  1  0  0  0  0
 23 24  2  0  0  0  0
 23 25  1  0  0  0  0
 25 44  1  0  0  0  0
M  END
> <s_m_source_file>
AV-unprocessed.smi

> <i_m_source_file_index>
54

> <i_lp_mmshare_version>
43012

> <i_f3d_flags>
0

> <s_epik_input>
W0NIM11bQ0hdKFtDSDNdKUMoPU8pW05IXWMobjEpW25IXWMoPU8pYyhjMTIpbltjSF1uMltDQEBIXTNPW0NASF0oW0NIMl1bT0hdKVtDQEBIXShbT0hdKVtDQEhdM1tPSF0=

> <s_epik_cmdline>
J2VwaWtfcHl0aG9uJywgJy1waCcsICc3LjAnLCAnLXRuJywgJzgnLCAnLW1hJywgJzIwMCcsICctbWV0YWxfYmluZGluZycsICctaW1hZScsICc8aW5maWxlLm1hZT4nLCAnLW9tYWUnLCAnPG91dGZpbGUubWFlPic=

> <r_lp_tautomer_probability>
0.85571

> <r_epik_Ionization_Penalty>
0.0316551

> <r_epik_Ionization_Penalty_Charging>
0.0316043

> <r_epik_Ionization_Penalty_Neutral>
5.07097e-05

> <r_epik_State_Penalty>
3.15494e-07

> <r_epik_Charging_Adjusted_Penalty>
0.0316047

> <i_epik_Tot_Q>
0

> <i_epik_Tot_abs_Q>
0

> <r_epik_Metal_State_Penalty>
0.421206

> <b_epik_Metal_Only>
0

> <s_epik_Chemistry_Notes>
This compound contains an acetal/aminal-like group ( X-CH(R)-Y where X, Y are N, S, or O) that may be acid/base labile, releasing an aldehyde.

> <s_lp_Force_Field>
OPLS_2005

> <r_lp_Energy>
38.1022

> <b_lp_Chiralities_Consistent>
1

> <s_lp_Variant>
AV-unprocessed.smi:54-5

> <Gold.Version>
5.8.1

> <Gold.Id.Protein>
6NUR|6NUR_protein|mol2

> <Gold.PLP.Fitness>
43.0439

> <Gold.PLP.PLP>
-30.4981

> <Gold.PLP.part.hbond>
-4.6433

> <Gold.PLP.part.metal>
0.0000

> <Gold.PLP.part.buried>
-5.2451

> <Gold.PLP.part.nonpolar>
-20.5269

> <Gold.PLP.part.repulsive>
0.2577

> <Gold.PLP.ligand.clash>
0.0000

> <Gold.PLP.ligand.torsion>
0.0509

> <Gold.PLP.Chemscore.Hbond>
4.2054

> <Gold.PLP.Chemscore.CHOScore>
0.0000

> <Gold.PLP.Chemscore.Metal>
0.0000

> <Gold.Chemscore.Hbonds>
donor molecule, donor type, donor heavy atom, donor atom, acceptor molecule, acceptor atom, score
      L1  H    18    41       P1  8028  1.00
      P1  H  6931  6943       L1     5  0.94
      P1  H  6934  6947       L1     5  0.29
      P1  H  7989  7998       L1    20  0.90
      P1  H  7997  8009       L1    22  0.93

> <Gold.PLP.Chemscore.Internal.Correction>
0.0313

> <Gold.Rescore>
     Score         DG    S(hbond)    S(metal)    S(lipo)     H(rot)  DE(clash)    DE(int)     intcor
     13.57     -14.99       4.36        0.00      45.34       4.05       0.01       1.41       ----

> <Gold.Chemscore.Fitness>
13.5691

> <Gold.Chemscore.DG>
-14.9949

> <Gold.Chemscore.ZeroCoef>
-5.4800

> <Gold.Chemscore.Hbond>
4.3644

> <Gold.Chemscore.Metal>
0.0000

> <Gold.Chemscore.Lipo>
45.3352

> <Gold.Chemscore.Internal_Hbond>
0.0000

> <Gold.Chemscore.DEClash>
0.0149

> <Gold.Chemscore.DEInternal>
1.4110

> <Gold.Chemscore.Rot>
4.0493

> <Gold.Chemscore.Internal.Correction>
   9.000000E+99

> <Gold.Chemscore.Hbonds>
donor molecule, donor type, donor heavy atom, donor atom, acceptor molecule, acceptor atom, score
      L1  H    18    41       P1  8028  0.90
      P1  H  6931  6943       L1     5  0.87
      P1  H  6934  6947       L1     5  0.23
      P1  H  7989  7998       L1    20  0.53
      P1  H  7997  8009       L1    22  0.39

> <Gold.Chemscore.Hbond.Weighted>
-14.5769

> <Gold.Chemscore.Metal.Weighted>
-0.0000

> <Gold.Chemscore.Lipo.Weighted>
-5.3042

> <Gold.Chemscore.Internal_Hbond.Weighted>
0.0000

> <Gold.Chemscore.DEClash.Weighted>
0.0149

> <Gold.Chemscore.DEInternal.Weighted>
1.4110

> <Gold.Chemscore.Rot.Weighted>
10.3662

> <Gold.Chemscore.Internal.Correction.Weighted>
   9.000000E+99

> <Gold.Protein.RotatedTorsions>
[ 6907 6896 6895 6894 ] final  104.80 input  -60.11 | X-H torsion
[ 7974 7965 7964 7962 ] final  -63.39 input  175.53 | X-H torsion
[ 8008 7997 7996 7995 ] final -168.19 input   59.86 | X-H torsion
[ 10167 10162 10161 10158 ] final  175.50 input  -65.29 | X-H torsion
[ 10718 10713 10712 10709 ] final -177.64 input   66.30 | X-H torsion
[ 10763 10752 10751 10750 ] final   94.88 input  -60.55 | X-H torsion
[ 11005 11000 10999 10996 ] final   30.87 input  -57.11 | X-H torsion

> <Gold.Protein.ActiveResidues>
 VAL166  LYS551  ARG553  GLY616  TRP617  ASP618  TYR619  PRO620  LYS621  CYS622 
 ASP623  PHE694  ASN695  SER759  ASP760  ASP761  ALA762  ILE779  LEU786  VAL792 
 PHE793  MET794  SER795  GLU796  ALA797  LYS798  CYS799  TRP800  GLU811  SER814 

> <Gold.Protein.RotatedAtoms>
  152.5252  133.9623  159.7722 H   0  0  0  0  0  0  0  0  0  0  0  0  # atno 6907 bound_to 6896
  150.9912  133.6140  159.2715 H   0  0  0  0  0  0  0  0  0  0  0  0  # atno 6908 bound_to 6896
  151.3283  135.0841  159.9383 H   0  0  0  0  0  0  0  0  0  0  0  0  # atno 6909 bound_to 6896
  145.7797  140.8769  143.0337 H   0  0  0  0  0  0  0  0  0  0  0  0  # atno 7974 bound_to 7965
  155.8880  140.1020  157.1438 H   0  0  0  0  0  0  0  0  0  0  0  0  # atno 8008 bound_to 7997
  154.4012  140.1316  156.4344 H   0  0  0  0  0  0  0  0  0  0  0  0  # atno 8009 bound_to 7997
  155.7566  140.3464  155.5179 H   0  0  0  0  0  0  0  0  0  0  0  0  # atno 8010 bound_to 7997
  139.5180  144.3024  152.0367 H   0  0  0  0  0  0  0  0  0  0  0  0  # atno 10167 bound_to 10162
  156.8325  130.9658  151.3105 H   0  0  0  0  0  0  0  0  0  0  0  0  # atno 10718 bound_to 10713
  153.2467  135.4274  155.0755 H   0  0  0  0  0  0  0  0  0  0  0  0  # atno 10763 bound_to 10752
  154.8364  135.3416  154.6571 H   0  0  0  0  0  0  0  0  0  0  0  0  # atno 10764 bound_to 10752
  153.6993  135.7029  153.5124 H   0  0  0  0  0  0  0  0  0  0  0  0  # atno 10765 bound_to 10752
  140.2898  134.2877  155.7779 H   0  0  0  0  0  0  0  0  0  0  0  0  # atno 11005 bound_to 11000
  144.6798  139.9971  143.7484 LP  0  0  0  0  0  0  0  0  0  0  0  0  # atno 17320 bound_to 7965
  146.0087  139.3151  143.0884 LP  0  0  0  0  0  0  0  0  0  0  0  0  # atno 17321 bound_to 7965
  140.2471  144.4208  150.6236 LP  0  0  0  0  0  0  0  0  0  0  0  0  # atno 17342 bound_to 10162
  140.6251  143.2180  151.6614 LP  0  0  0  0  0  0  0  0  0  0  0  0  # atno 17343 bound_to 10162
  157.6399  130.8797  149.9429 LP  0  0  0  0  0  0  0  0  0  0  0  0  # atno 17370 bound_to 10713
  156.0926  130.3662  150.0366 LP  0  0  0  0  0  0  0  0  0  0  0  0  # atno 17371 bound_to 10713
  141.2148  133.7578  156.9607 LP  0  0  0  0  0  0  0  0  0  0  0  0  # atno 17394 bound_to 11000
  140.1206  134.9419  157.2197 LP  0  0  0  0  0  0  0  0  0  0  0  0  # atno 17395 bound_to 11000

$$$$
