AV-unprocessed.smi:703|AV-procd|sdf|3440|dock5
  -GOLD-   22720 0423D 1   1.00000     0.00000
 Structure written by MMmdl.
 37 38  0  0  0  0  0  0  0  0  3 V2000
  145.2543  136.7710  152.0633 C   0  0  0  0  0  0  0  0  0  0  0  0
  145.7741  136.8858  153.5025 C   0  0  0  0  0  0  0  0  0  0  0  0
  147.0061  137.7048  153.5875 N   0  3  1  0  0  0  0  0  0  0  0  0
  146.8292  139.1259  153.2024 C   0  0  0  0  0  0  0  0  0  0  0  0
  147.5337  139.9617  154.2845 C   0  0  2  0  0  0  0  0  0  0  0  0
  148.1004  141.3109  153.7945 C   0  0  0  0  0  0  0  0  0  0  0  0
  148.5075  138.9782  154.9612 C   0  0  2  0  0  0  0  0  0  0  0  0
  149.7413  138.8426  154.1905 N   0  5  0  0  0  0  0  0  0  0  0  0
  151.1006  138.3478  154.9249 S   0  0  0  0  0  0  0  0  0  0  0  0
  151.4304  136.9462  154.6193 O   0  0  0  0  0  0  0  0  0  0  0  0
  152.1915  139.3292  154.8114 O   0  0  0  0  0  0  0  0  0  0  0  0
  150.5677  138.3747  156.6896 C   0  0  0  0  0  0  0  0  0  0  0  0
  151.6103  139.0580  157.5292 C   0  0  0  0  0  0  0  0  0  0  0  0
  151.4688  140.2087  158.3535 C   0  0  0  0  0  0  0  0  0  0  0  0
  152.7175  140.3828  158.8761 C   0  0  0  0  0  0  0  0  0  0  0  0
  153.5644  139.4306  158.4104 O   0  0  0  0  0  0  0  0  0  0  0  0
  152.8494  138.5914  157.5483 N   0  0  0  0  0  0  0  0  0  0  0  0
  147.6929  137.6799  154.8994 C   0  0  0  0  0  0  0  0  0  0  0  0
  144.3150  136.2184  152.0358 H   0  0  0  0  0  0  0  0  0  0  0  0
  145.9613  136.2456  151.4208 H   0  0  0  0  0  0  0  0  0  0  0  0
  145.0727  137.7551  151.6299 H   0  0  0  0  0  0  0  0  0  0  0  0
  145.0025  137.3530  154.1159 H   0  0  0  0  0  0  0  0  0  0  0  0
  145.9550  135.8957  153.9236 H   0  0  0  0  0  0  0  0  0  0  0  0
  147.2796  139.2757  152.2192 H   0  0  0  0  0  0  0  0  0  0  0  0
  145.7774  139.4062  153.1251 H   0  0  0  0  0  0  0  0  0  0  0  0
  146.7776  140.1995  155.0349 H   0  0  0  0  0  0  0  0  0  0  0  0
  148.8311  141.1883  152.9935 H   0  0  0  0  0  0  0  0  0  0  0  0
  148.5785  141.8676  154.6023 H   0  0  0  0  0  0  0  0  0  0  0  0
  147.2996  141.9386  153.4024 H   0  0  0  0  0  0  0  0  0  0  0  0
  148.6971  139.2755  155.9928 H   0  0  0  0  0  0  0  0  0  0  0  0
  149.6092  138.8904  156.7502 H   0  0  0  0  0  0  0  0  0  0  0  0
  150.4138  137.3470  157.0173 H   0  0  0  0  0  0  0  0  0  0  0  0
  150.5874  140.8050  158.5375 H   0  0  0  0  0  0  0  0  0  0  0  0
  153.1423  141.1034  159.5590 H   0  0  0  0  0  0  0  0  0  0  0  0
  146.9489  137.6886  155.6978 H   0  0  0  0  0  0  0  0  0  0  0  0
  148.2893  136.7770  155.0263 H   0  0  0  0  0  0  0  0  0  0  0  0
  147.6667  137.3266  152.9236 H   0  0  0  0  0  0  0  0  0  0  0  0
  1  2  1  0  0  0  0
  1 19  1  0  0  0  0
  1 20  1  0  0  0  0
  1 21  1  0  0  0  0
  2  3  1  0  0  0  0
  2 22  1  0  0  0  0
  2 23  1  0  0  0  0
  3 18  1  0  0  0  0
  3  4  1  0  0  0  0
  3 37  1  0  0  0  0
  4  5  1  0  0  0  0
  4 24  1  0  0  0  0
  4 25  1  0  0  0  0
  5  6  1  0  0  0  0
  5  7  1  0  0  0  0
  5 26  1  0  0  0  0
  6 27  1  0  0  0  0
  6 28  1  0  0  0  0
  6 29  1  0  0  0  0
  7  8  1  0  0  0  0
  7 18  1  0  0  0  0
  7 30  1  0  0  0  0
  8  9  1  0  0  0  0
  9 10  2  0  0  0  0
  9 11  2  0  0  0  0
  9 12  1  0  0  0  0
 12 13  1  0  0  0  0
 12 31  1  0  0  0  0
 12 32  1  0  0  0  0
 13 17  2  0  0  0  0
 13 14  1  0  0  0  0
 14 15  2  0  0  0  0
 14 33  1  0  0  0  0
 15 16  1  0  0  0  0
 15 34  1  0  0  0  0
 16 17  1  0  0  0  0
 18 35  1  0  0  0  0
 18 36  1  0  0  0  0
M  CHG  1   3   1
M  CHG  1   8  -1
M  END
> <s_m_source_file>
AV-unprocessed.smi

> <i_m_source_file_index>
703

> <i_lp_mmshare_version>
43012

> <i_f3d_flags>
0

> <s_epik_input>
W0NIM11bQ0gyXU4xW0NIMl1bQ0BASF0oW0NIM10pW0NASF0oW0NIMl0xKVtOSF1TKD1PKSg9TylbQ0gyXWMyW2NIXVtjSF1vbjI=

> <s_epik_cmdline>
J2VwaWtfcHl0aG9uJywgJy1waCcsICc3LjAnLCAnLXRuJywgJzgnLCAnLW1hJywgJzIwMCcsICctbWV0YWxfYmluZGluZycsICctaW1hZScsICc8aW5maWxlLm1hZT4nLCAnLW9tYWUnLCAnPG91dGZpbGUubWFlPic=

> <r_epik_Ionization_Penalty>
3.62494

> <r_epik_Ionization_Penalty_Charging>
3.62494

> <r_epik_Ionization_Penalty_Neutral>
2.0321e-10

> <r_epik_State_Penalty>
3.62558

> <r_epik_Charging_Adjusted_Penalty>
7.25052

> <i_epik_Tot_Q>
0

> <i_epik_Tot_abs_Q>
2

> <r_epik_Metal_State_Penalty>
0.530836

> <b_epik_Metal_Only>
1

> <s_lp_Force_Field>
OPLS_2005

> <r_lp_Energy>
16.9152

> <b_lp_Chiralities_Consistent>
1

> <s_lp_Variant>
AV-unprocessed.smi:703-15

> <Gold.Version>
5.8.1

> <Gold.Id.Protein>
6NUR|6NUR_protein|mol2

> <Gold.PLP.Fitness>
36.8379

> <Gold.PLP.PLP>
-23.9348

> <Gold.PLP.part.hbond>
-4.8443

> <Gold.PLP.part.metal>
0.0000

> <Gold.PLP.part.buried>
-5.2782

> <Gold.PLP.part.nonpolar>
-15.2920

> <Gold.PLP.part.repulsive>
0.4548

> <Gold.PLP.ligand.clash>
0.0000

> <Gold.PLP.ligand.torsion>
1.2458

> <Gold.PLP.Chemscore.Hbond>
4.7760

> <Gold.PLP.Chemscore.CHOScore>
0.0000

> <Gold.PLP.Chemscore.Metal>
0.0000

> <Gold.Chemscore.Hbonds>
donor molecule, donor type, donor heavy atom, donor atom, acceptor molecule, acceptor atom, score
      L1  H     3    37       P1  7948  2.00
      P1  H  7989  7998       L1    11  0.73
      P1  H  7997  8009       L1    16  1.00
      P1  H 10752 10765       L1    10  0.93

> <Gold.PLP.Chemscore.Internal.Correction>
1.0666

> <Gold.Rescore>
     Score         DG    S(hbond)    S(metal)    S(lipo)     H(rot)  DE(clash)    DE(int)     intcor
     16.26     -17.86       3.20        0.00      50.30       1.63       0.23       1.38       ----

> <Gold.Chemscore.Fitness>
16.2557

> <Gold.Chemscore.DG>
-17.8646

> <Gold.Chemscore.ZeroCoef>
-5.4800

> <Gold.Chemscore.Hbond>
3.1980

> <Gold.Chemscore.Metal>
0.0000

> <Gold.Chemscore.Lipo>
50.3049

> <Gold.Chemscore.Internal_Hbond>
0.0000

> <Gold.Chemscore.DEClash>
0.2271

> <Gold.Chemscore.DEInternal>
1.3818

> <Gold.Chemscore.Rot>
1.6338

> <Gold.Chemscore.Internal.Correction>
   9.000000E+99

> <Gold.Chemscore.Hbonds>
donor molecule, donor type, donor heavy atom, donor atom, acceptor molecule, acceptor atom, score
      L1  H     3    37       P1  7948  0.97
      P1  H  7989  7998       L1    11  0.56
      P1  H  7997  8009       L1    16  0.27
      P1  H 10752 10765       L1    10  0.84

> <Gold.Chemscore.Hbond.Weighted>
-10.6814

> <Gold.Chemscore.Metal.Weighted>
-0.0000

> <Gold.Chemscore.Lipo.Weighted>
-5.8857

> <Gold.Chemscore.Internal_Hbond.Weighted>
0.0000

> <Gold.Chemscore.DEClash.Weighted>
0.2271

> <Gold.Chemscore.DEInternal.Weighted>
1.3818

> <Gold.Chemscore.Rot.Weighted>
4.1825

> <Gold.Chemscore.Internal.Correction.Weighted>
   9.000000E+99

> <Gold.Protein.RotatedTorsions>
[ 6907 6896 6895 6894 ] final  -54.08 input  -60.11 | X-H torsion
[ 7974 7965 7964 7962 ] final   61.08 input  175.53 | X-H torsion
[ 8008 7997 7996 7995 ] final  127.96 input   59.86 | X-H torsion
[ 10167 10162 10161 10158 ] final  -64.95 input  -65.29 | X-H torsion
[ 10718 10713 10712 10709 ] final  149.20 input   66.30 | X-H torsion
[ 10763 10752 10751 10750 ] final  150.37 input  -60.55 | X-H torsion
[ 11005 11000 10999 10996 ] final  -76.20 input  -57.11 | X-H torsion

> <Gold.Protein.ActiveResidues>
 VAL166  LYS551  ARG553  GLY616  TRP617  ASP618  TYR619  PRO620  LYS621  CYS622 
 ASP623  PHE694  ASN695  SER759  ASP760  ASP761  ALA762  ILE779  LEU786  VAL792 
 PHE793  MET794  SER795  GLU796  ALA797  LYS798  CYS799  TRP800  GLU811  SER814 

> <Gold.Protein.RotatedAtoms>
  150.8369  134.7646  159.6900 H   0  0  0  0  0  0  0  0  0  0  0  0  # atno 6907 bound_to 6896
  152.4464  134.5482  159.9869 H   0  0  0  0  0  0  0  0  0  0  0  0  # atno 6908 bound_to 6896
  151.5630  133.3363  159.3010 H   0  0  0  0  0  0  0  0  0  0  0  0  # atno 6909 bound_to 6896
  145.8888  139.3496  143.0662 H   0  0  0  0  0  0  0  0  0  0  0  0  # atno 7974 bound_to 7965
  156.2904  140.2656  156.2359 H   0  0  0  0  0  0  0  0  0  0  0  0  # atno 8008 bound_to 7997
  155.0026  140.0387  157.2384 H   0  0  0  0  0  0  0  0  0  0  0  0  # atno 8009 bound_to 7997
  154.7588  140.2757  155.6236 H   0  0  0  0  0  0  0  0  0  0  0  0  # atno 8010 bound_to 7997
  140.5764  143.2322  151.6433 H   0  0  0  0  0  0  0  0  0  0  0  0  # atno 10167 bound_to 10162
  157.2991  131.0867  151.1404 H   0  0  0  0  0  0  0  0  0  0  0  0  # atno 10718 bound_to 10713
  154.0864  135.2855  155.3280 H   0  0  0  0  0  0  0  0  0  0  0  0  # atno 10763 bound_to 10752
  154.6649  135.5321  153.8068 H   0  0  0  0  0  0  0  0  0  0  0  0  # atno 10764 bound_to 10752
  153.0429  135.6543  154.1036 H   0  0  0  0  0  0  0  0  0  0  0  0  # atno 10765 bound_to 10752
  141.1652  133.6975  156.7632 H   0  0  0  0  0  0  0  0  0  0  0  0  # atno 11005 bound_to 11000
  145.8933  140.9289  143.0540 LP  0  0  0  0  0  0  0  0  0  0  0  0  # atno 17320 bound_to 7965
  144.6729  140.0935  143.7464 LP  0  0  0  0  0  0  0  0  0  0  0  0  # atno 17321 bound_to 7965
  139.5145  144.3408  152.0742 LP  0  0  0  0  0  0  0  0  0  0  0  0  # atno 17342 bound_to 10162
  140.2552  144.4126  150.6206 LP  0  0  0  0  0  0  0  0  0  0  0  0  # atno 17343 bound_to 10162
  157.2770  130.6731  149.6047 LP  0  0  0  0  0  0  0  0  0  0  0  0  # atno 17370 bound_to 10713
  155.9670  130.4461  150.5529 LP  0  0  0  0  0  0  0  0  0  0  0  0  # atno 17371 bound_to 10713
  140.2518  134.8534  157.3675 LP  0  0  0  0  0  0  0  0  0  0  0  0  # atno 17394 bound_to 11000
  140.1695  134.4626  155.7841 LP  0  0  0  0  0  0  0  0  0  0  0  0  # atno 17395 bound_to 11000

$$$$
