AV-unprocessed.smi:507|AV-procd|sdf|2753|dock3
  -GOLD-   2262023223D 1   1.00000     0.00000
 Structure written by MMmdl.
 34 35  0  0  0  0  0  0  0  0  2 V2000
  152.7006  143.2277  161.4229 C   0  0  0  0  0  0  0  0  0  0  0  0
  152.2760  142.7365  160.0501 C   0  0  0  0  0  0  0  0  0  0  0  0
  152.2023  141.3457  159.8105 C   0  0  0  0  0  0  0  0  0  0  0  0
  151.8124  140.8483  158.5479 C   0  0  0  0  0  0  0  0  0  0  0  0
  151.6718  139.5466  158.0980 N   0  0  0  0  0  0  0  0  0  0  0  0
  151.2880  139.7375  156.8392 C   0  0  0  0  0  0  0  0  0  0  0  0
  151.1668  141.0116  156.4183 N   0  0  0  0  0  0  0  0  0  0  0  0
  150.7753  141.4690  155.0972 C   0  0  0  0  0  0  0  0  0  0  0  0
  149.5653  140.6912  154.5442 C   0  0  1  0  0  0  0  0  0  0  0  0
  149.0989  141.3246  153.3678 O   0  0  0  0  0  0  0  0  0  0  0  0
  149.9155  139.2305  154.2162 C   0  0  0  0  0  0  0  0  0  0  0  0
  149.0578  138.6985  153.1425 N   0  3  0  0  0  0  0  0  0  0  0  0
  151.4991  141.7880  157.5229 C   0  0  0  0  0  0  0  0  0  0  0  0
  151.5665  143.1741  157.7494 C   0  0  0  0  0  0  0  0  0  0  0  0
  151.9555  143.6540  159.0174 C   0  0  0  0  0  0  0  0  0  0  0  0
  152.0238  145.1524  159.2541 C   0  0  0  0  0  0  0  0  0  0  0  0
  152.9055  142.3962  162.0977 H   0  0  0  0  0  0  0  0  0  0  0  0
  151.9147  143.8359  161.8711 H   0  0  0  0  0  0  0  0  0  0  0  0
  153.6065  143.8297  161.3498 H   0  0  0  0  0  0  0  0  0  0  0  0
  152.4454  140.6466  160.5971 H   0  0  0  0  0  0  0  0  0  0  0  0
  151.0889  138.9026  156.1832 H   0  0  0  0  0  0  0  0  0  0  0  0
  150.5582  142.5373  155.1446 H   0  0  0  0  0  0  0  0  0  0  0  0
  151.6330  141.3542  154.4332 H   0  0  0  0  0  0  0  0  0  0  0  0
  148.7632  140.7108  155.2837 H   0  0  0  0  0  0  0  0  0  0  0  0
  148.9667  140.6681  152.7005 H   0  0  0  0  0  0  0  0  0  0  0  0
  150.9628  139.1365  153.9263 H   0  0  0  0  0  0  0  0  0  0  0  0
  149.7711  138.6043  155.0974 H   0  0  0  0  0  0  0  0  0  0  0  0
  149.0737  139.3261  152.3515 H   0  0  0  0  0  0  0  0  0  0  0  0
  148.1115  138.6106  153.4849 H   0  0  0  0  0  0  0  0  0  0  0  0
  151.3199  143.8619  156.9543 H   0  0  0  0  0  0  0  0  0  0  0  0
  151.7483  145.7101  158.3586 H   0  0  0  0  0  0  0  0  0  0  0  0
  153.0343  145.4494  159.5352 H   0  0  0  0  0  0  0  0  0  0  0  0
  151.3415  145.4444  160.0526 H   0  0  0  0  0  0  0  0  0  0  0  0
  149.3961  137.7900  152.8598 H   0  0  0  0  0  0  0  0  0  0  0  0
  1  2  1  0  0  0  0
  1 17  1  0  0  0  0
  1 18  1  0  0  0  0
  1 19  1  0  0  0  0
  2 15  1  0  0  0  0
  2  3  2  0  0  0  0
  3  4  1  0  0  0  0
  3 20  1  0  0  0  0
  4 13  2  0  0  0  0
  4  5  1  0  0  0  0
  5  6  2  0  0  0  0
  6  7  1  0  0  0  0
  6 21  1  0  0  0  0
  7  8  1  0  0  0  0
  7 13  1  0  0  0  0
  8  9  1  0  0  0  0
  8 22  1  0  0  0  0
  8 23  1  0  0  0  0
  9 10  1  0  0  0  0
  9 11  1  0  0  0  0
  9 24  1  0  0  0  0
 10 25  1  0  0  0  0
 11 12  1  0  0  0  0
 11 26  1  0  0  0  0
 11 27  1  0  0  0  0
 12 28  1  0  0  0  0
 12 29  1  0  0  0  0
 12 34  1  0  0  0  0
 13 14  1  0  0  0  0
 14 15  2  0  0  0  0
 14 30  1  0  0  0  0
 15 16  1  0  0  0  0
 16 31  1  0  0  0  0
 16 32  1  0  0  0  0
 16 33  1  0  0  0  0
M  CHG  1  12   1
M  END
> <s_m_source_file>
AV-unprocessed.smi

> <i_m_source_file_index>
507

> <i_lp_mmshare_version>
43012

> <i_f3d_flags>
0

> <s_epik_input>
W0NIM11jKFtjSF0xKWMoW0NIM10pW2NIXWMoYzEyKW4oW2NIXW4yKVtDSDJdW0NASF0oW09IXSlbQ0gyXVtOSDJd

> <s_epik_cmdline>
J2VwaWtfcHl0aG9uJywgJy1waCcsICc3LjAnLCAnLXRuJywgJzgnLCAnLW1hJywgJzIwMCcsICctbWV0YWxfYmluZGluZycsICctaW1hZScsICc8aW5maWxlLm1hZT4nLCAnLW9tYWUnLCAnPG91dGZpbGUubWFlPic=

> <r_epik_Ionization_Penalty>
0.102893

> <r_epik_Ionization_Penalty_Charging>
0.0134096

> <r_epik_Ionization_Penalty_Neutral>
0.0894835

> <r_epik_State_Penalty>
0.093868

> <r_epik_Charging_Adjusted_Penalty>
0.107278

> <i_epik_Tot_Q>
1

> <i_epik_Tot_abs_Q>
1

> <r_epik_Metal_State_Penalty>
0.010477

> <b_epik_Metal_Only>
0

> <s_lp_Force_Field>
OPLS_2005

> <r_lp_Energy>
7.44215

> <b_lp_Chiralities_Consistent>
1

> <s_lp_Variant>
AV-unprocessed.smi:507-2

> <Gold.Version>
5.8.1

> <Gold.Id.Protein>
6NUR|6NUR_protein|mol2

> <Gold.PLP.Fitness>
49.8453

> <Gold.PLP.PLP>
-37.7527

> <Gold.PLP.part.hbond>
-4.2034

> <Gold.PLP.part.metal>
0.0000

> <Gold.PLP.part.buried>
-2.8676

> <Gold.PLP.part.nonpolar>
-30.8233

> <Gold.PLP.part.repulsive>
0.0654

> <Gold.PLP.ligand.clash>
0.0000

> <Gold.PLP.ligand.torsion>
0.5832

> <Gold.PLP.Chemscore.Hbond>
4.4144

> <Gold.PLP.Chemscore.CHOScore>
0.0000

> <Gold.PLP.Chemscore.Metal>
0.0000

> <Gold.Chemscore.Hbonds>
donor molecule, donor type, donor heavy atom, donor atom, acceptor molecule, acceptor atom, score
      L1  H    10    25       P1  7957  0.86
      L1  H    12    28       P1  7957  0.88
      L1  H    12    34       P1  7948  1.79
      P1  H  8011  8017       L1    10  0.69

> <Gold.PLP.Chemscore.Internal.Correction>
0.0158

> <Gold.Rescore>
     Score         DG    S(hbond)    S(metal)    S(lipo)     H(rot)  DE(clash)    DE(int)     intcor
     19.58     -21.54       2.91        0.00     103.79       2.27       1.22       0.74       ----

> <Gold.Chemscore.Fitness>
19.5815

> <Gold.Chemscore.DG>
-21.5436

> <Gold.Chemscore.ZeroCoef>
-5.4800

> <Gold.Chemscore.Hbond>
2.9149

> <Gold.Chemscore.Metal>
0.0000

> <Gold.Chemscore.Lipo>
103.7941

> <Gold.Chemscore.Internal_Hbond>
0.0000

> <Gold.Chemscore.DEClash>
1.2245

> <Gold.Chemscore.DEInternal>
0.7376

> <Gold.Chemscore.Rot>
2.2718

> <Gold.Chemscore.Internal.Correction>
   9.000000E+99

> <Gold.Chemscore.Hbonds>
donor molecule, donor type, donor heavy atom, donor atom, acceptor molecule, acceptor atom, score
      L1  H    10    25       P1  7957  0.85
      L1  H    12    28       P1  7957  0.85
      L1  H    12    34       P1  7948  0.80
      P1  H  8011  8017       L1    10  0.07

> <Gold.Chemscore.Hbond.Weighted>
-9.7357

> <Gold.Chemscore.Metal.Weighted>
-0.0000

> <Gold.Chemscore.Lipo.Weighted>
-12.1439

> <Gold.Chemscore.Internal_Hbond.Weighted>
0.0000

> <Gold.Chemscore.DEClash.Weighted>
1.2245

> <Gold.Chemscore.DEInternal.Weighted>
0.7376

> <Gold.Chemscore.Rot.Weighted>
5.8159

> <Gold.Chemscore.Internal.Correction.Weighted>
   9.000000E+99

> <Gold.Protein.RotatedTorsions>
[ 6907 6896 6895 6894 ] final -172.75 input  -60.11 | X-H torsion
[ 7974 7965 7964 7962 ] final -150.55 input  175.53 | X-H torsion
[ 8008 7997 7996 7995 ] final   -6.96 input   59.86 | X-H torsion
[ 10167 10162 10161 10158 ] final -172.10 input  -65.29 | X-H torsion
[ 10718 10713 10712 10709 ] final  -66.37 input   66.30 | X-H torsion
[ 10763 10752 10751 10750 ] final   67.27 input  -60.55 | X-H torsion
[ 11005 11000 10999 10996 ] final   96.69 input  -57.11 | X-H torsion

> <Gold.Protein.ActiveResidues>
 VAL166  LYS551  ARG553  GLY616  TRP617  ASP618  TYR619  PRO620  LYS621  CYS622 
 ASP623  PHE694  ASN695  SER759  ASP760  ASP761  ALA762  ILE779  LEU786  VAL792 
 PHE793  MET794  SER795  GLU796  ALA797  LYS798  CYS799  TRP800  GLU811  SER814 

> <Gold.Protein.RotatedAtoms>
  151.5451  133.3426  159.2942 H   0  0  0  0  0  0  0  0  0  0  0  0  # atno 6907 bound_to 6896
  150.8512  134.7840  159.7021 H   0  0  0  0  0  0  0  0  0  0  0  0  # atno 6908 bound_to 6896
  152.4558  134.5303  159.9861 H   0  0  0  0  0  0  0  0  0  0  0  0  # atno 6909 bound_to 6896
  144.7901  140.4916  143.5779 H   0  0  0  0  0  0  0  0  0  0  0  0  # atno 7974 bound_to 7965
  154.5885  140.2419  155.7953 H   0  0  0  0  0  0  0  0  0  0  0  0  # atno 8008 bound_to 7997
  156.2230  140.2991  155.9954 H   0  0  0  0  0  0  0  0  0  0  0  0  # atno 8009 bound_to 7997
  155.2415  140.0407  157.2966 H   0  0  0  0  0  0  0  0  0  0  0  0  # atno 8010 bound_to 7997
  139.5764  144.1524  152.1455 H   0  0  0  0  0  0  0  0  0  0  0  0  # atno 10167 bound_to 10162
  156.0616  130.4261  150.1699 H   0  0  0  0  0  0  0  0  0  0  0  0  # atno 10718 bound_to 10713
  153.0178  135.5290  154.6953 H   0  0  0  0  0  0  0  0  0  0  0  0  # atno 10763 bound_to 10752
  154.6077  135.2875  155.0469 H   0  0  0  0  0  0  0  0  0  0  0  0  # atno 10764 bound_to 10752
  154.1502  135.6564  153.5014 H   0  0  0  0  0  0  0  0  0  0  0  0  # atno 10765 bound_to 10752
  139.8780  134.8963  156.4195 H   0  0  0  0  0  0  0  0  0  0  0  0  # atno 11005 bound_to 11000
  145.5818  139.1489  143.3231 LP  0  0  0  0  0  0  0  0  0  0  0  0  # atno 17320 bound_to 7965
  146.2149  140.5947  142.9043 LP  0  0  0  0  0  0  0  0  0  0  0  0  # atno 17321 bound_to 7965
  140.1067  144.5492  150.6952 LP  0  0  0  0  0  0  0  0  0  0  0  0  # atno 17342 bound_to 10162
  140.7046  143.2458  151.4765 LP  0  0  0  0  0  0  0  0  0  0  0  0  # atno 17343 bound_to 10162
  156.9766  130.9851  151.3447 LP  0  0  0  0  0  0  0  0  0  0  0  0  # atno 17370 bound_to 10713
  157.5629  130.8258  149.8289 LP  0  0  0  0  0  0  0  0  0  0  0  0  # atno 17371 bound_to 10713
  140.9143  133.7689  155.9829 LP  0  0  0  0  0  0  0  0  0  0  0  0  # atno 17394 bound_to 11000
  140.8511  134.2953  157.5275 LP  0  0  0  0  0  0  0  0  0  0  0  0  # atno 17395 bound_to 11000

$$$$
