AV-unprocessed.smi:1490|AV-procd|sdf|6030|dock9
  -GOLD-   22720 6133D 1   1.00000     0.00000
 Structure written by MMmdl.
 38 39  0  0  0  0  0  0  0  0  2 V2000
  151.4616  129.6656  154.6564 C   0  0  0  0  0  0  0  0  0  0  0  0
  150.2970  130.4348  154.4157 O   0  0  0  0  0  0  0  0  0  0  0  0
  149.2057  129.6476  153.9673 C   0  0  0  0  0  0  0  0  0  0  0  0
  147.8882  130.3622  154.2995 C   0  0  0  0  0  0  0  0  0  0  0  0
  147.6771  131.5541  153.4655 N   0  0  0  0  0  0  0  0  0  0  0  0
  148.3368  132.7459  153.4443 C   0  0  0  0  0  0  0  0  0  0  0  0
  149.6964  133.2026  154.4720 S   0  0  0  0  0  0  0  0  0  0  0  0
  149.3386  134.8861  155.0481 C   0  0  0  0  0  0  0  0  0  0  0  0
  150.5882  135.7582  155.1508 C   0  0  0  0  0  0  0  0  0  0  0  0
  151.4599  135.4897  155.9763 O   0  0  0  0  0  0  0  0  0  0  0  0
  150.6768  136.7922  154.3016 N   0  0  0  0  0  0  0  0  0  0  0  0
  151.8011  137.7151  154.2463 C   0  0  0  0  0  0  0  0  0  0  0  0
  151.4119  139.0963  154.5722 C   0  0  0  0  0  0  0  0  0  0  0  0
  151.1053  140.1823  154.8274 N   0  0  0  0  0  0  0  0  0  0  0  0
  147.7629  133.5181  152.4804 N   0  3  0  0  0  0  0  0  0  0  0  0
  146.7255  132.8089  151.8716 C   0  0  0  0  0  0  0  0  0  0  0  0
  145.8566  133.1665  150.8454 C   0  0  0  0  0  0  0  0  0  0  0  0
  144.9076  132.1999  150.4513 C   0  0  0  0  0  0  0  0  0  0  0  0
  143.7975  132.5731  149.1846 Cl  0  0  0  0  0  0  0  0  0  0  0  0
  144.8505  130.9346  151.0720 C   0  0  0  0  0  0  0  0  0  0  0  0
  145.7357  130.5822  152.1121 C   0  0  0  0  0  0  0  0  0  0  0  0
  146.6679  131.5453  152.4967 C   0  0  0  0  0  0  0  0  0  0  0  0
  152.2684  130.3181  154.9905 H   0  0  0  0  0  0  0  0  0  0  0  0
  151.7934  129.1572  153.7504 H   0  0  0  0  0  0  0  0  0  0  0  0
  151.2878  128.9205  155.4338 H   0  0  0  0  0  0  0  0  0  0  0  0
  149.2829  129.4840  152.8913 H   0  0  0  0  0  0  0  0  0  0  0  0
  149.2254  128.6686  154.4485 H   0  0  0  0  0  0  0  0  0  0  0  0
  147.0369  129.6906  154.1857 H   0  0  0  0  0  0  0  0  0  0  0  0
  147.8900  130.6818  155.3419 H   0  0  0  0  0  0  0  0  0  0  0  0
  148.6312  135.3496  154.3595 H   0  0  0  0  0  0  0  0  0  0  0  0
  148.8534  134.8370  156.0234 H   0  0  0  0  0  0  0  0  0  0  0  0
  149.9199  136.9476  153.6516 H   0  0  0  0  0  0  0  0  0  0  0  0
  152.5583  137.3983  154.9636 H   0  0  0  0  0  0  0  0  0  0  0  0
  152.2637  137.7043  153.2583 H   0  0  0  0  0  0  0  0  0  0  0  0
  145.9012  134.1345  150.3679 H   0  0  0  0  0  0  0  0  0  0  0  0
  144.1121  130.2173  150.7440 H   0  0  0  0  0  0  0  0  0  0  0  0
  145.6832  129.6093  152.5780 H   0  0  0  0  0  0  0  0  0  0  0  0
  148.0637  134.4573  152.2540 H   0  0  0  0  0  0  0  0  0  0  0  0
  1  2  1  0  0  0  0
  1 23  1  0  0  0  0
  1 24  1  0  0  0  0
  1 25  1  0  0  0  0
  2  3  1  0  0  0  0
  3  4  1  0  0  0  0
  3 26  1  0  0  0  0
  3 27  1  0  0  0  0
  4  5  1  0  0  0  0
  4 28  1  0  0  0  0
  4 29  1  0  0  0  0
  5 22  1  0  0  0  0
  5  6  1  0  0  0  0
  6  7  1  0  0  0  0
  6 15  2  0  0  0  0
  7  8  1  0  0  0  0
  8  9  1  0  0  0  0
  8 30  1  0  0  0  0
  8 31  1  0  0  0  0
  9 10  2  0  0  0  0
  9 11  1  0  0  0  0
 11 12  1  0  0  0  0
 11 32  1  0  0  0  0
 12 13  1  0  0  0  0
 12 33  1  0  0  0  0
 12 34  1  0  0  0  0
 13 14  3  0  0  0  0
 15 16  1  0  0  0  0
 15 38  1  0  0  0  0
 16 22  2  0  0  0  0
 16 17  1  0  0  0  0
 17 18  2  0  0  0  0
 17 35  1  0  0  0  0
 18 19  1  0  0  0  0
 18 20  1  0  0  0  0
 20 21  2  0  0  0  0
 20 36  1  0  0  0  0
 21 22  1  0  0  0  0
 21 37  1  0  0  0  0
M  CHG  1  15   1
M  END
> <s_m_source_file>
AV-unprocessed.smi

> <i_m_source_file_index>
1490

> <i_lp_mmshare_version>
43012

> <i_f3d_flags>
0

> <s_epik_input>
W2NIXTFjKENsKVtjSF1bY0hdYyhjMTIpbihbQ0gyXVtDSDJdT1tDSDNdKWMobjIpU1tDSDJdQyg9TylbTkhdW0NIMl1DI04=

> <s_epik_cmdline>
J2VwaWtfcHl0aG9uJywgJy1waCcsICc3LjAnLCAnLXRuJywgJzgnLCAnLW1hJywgJzIwMCcsICctbWV0YWxfYmluZGluZycsICctaW1hZScsICc8aW5maWxlLm1hZT4nLCAnLW9tYWUnLCAnPG91dGZpbGUubWFlPic=

> <r_epik_Ionization_Penalty>
2.45232

> <r_epik_Ionization_Penalty_Charging>
2.45231

> <r_epik_Ionization_Penalty_Neutral>
6.97855e-06

> <r_epik_State_Penalty>
2.61389

> <r_epik_Charging_Adjusted_Penalty>
5.0662

> <i_epik_Tot_Q>
1

> <i_epik_Tot_abs_Q>
1

> <r_epik_Metal_State_Penalty>
2.62983

> <b_epik_Metal_Only>
0

> <s_lp_Force_Field>
OPLS_2005

> <r_lp_Energy>
5.53111

> <b_lp_Chiralities_Consistent>
1

> <s_lp_Variant>
AV-unprocessed.smi:1490-2

> <Gold.Version>
5.8.1

> <Gold.Id.Protein>
6NUR|6NUR_protein|mol2

> <Gold.PLP.Fitness>
57.8653

> <Gold.PLP.PLP>
-45.9381

> <Gold.PLP.part.hbond>
-4.9420

> <Gold.PLP.part.metal>
0.0000

> <Gold.PLP.part.buried>
-6.8391

> <Gold.PLP.part.nonpolar>
-37.1448

> <Gold.PLP.part.repulsive>
0.2380

> <Gold.PLP.ligand.clash>
0.0000

> <Gold.PLP.ligand.torsion>
0.7211

> <Gold.PLP.Chemscore.Hbond>
4.4363

> <Gold.PLP.Chemscore.CHOScore>
0.0000

> <Gold.PLP.Chemscore.Metal>
0.0000

> <Gold.Chemscore.Hbonds>
donor molecule, donor type, donor heavy atom, donor atom, acceptor molecule, acceptor atom, score
      L1  H    11    32       P1  7948  0.69
      L1  H    15    38       P1  7948  1.90
      P1  H  7989  7998       L1    14  0.90
      P1  H 10752 10763       L1    10  1.00

> <Gold.PLP.Chemscore.Internal.Correction>
0.0604

> <Gold.Rescore>
     Score         DG    S(hbond)    S(metal)    S(lipo)     H(rot)  DE(clash)    DE(int)     intcor
     12.97     -15.24       1.73        0.00      96.22       2.84       0.26       2.01       ----

> <Gold.Chemscore.Fitness>
12.9718

> <Gold.Chemscore.DG>
-15.2442

> <Gold.Chemscore.ZeroCoef>
-5.4800

> <Gold.Chemscore.Hbond>
1.7278

> <Gold.Chemscore.Metal>
0.0000

> <Gold.Chemscore.Lipo>
96.2247

> <Gold.Chemscore.Internal_Hbond>
0.0000

> <Gold.Chemscore.DEClash>
0.2585

> <Gold.Chemscore.DEInternal>
2.0140

> <Gold.Chemscore.Rot>
2.8378

> <Gold.Chemscore.Internal.Correction>
   9.000000E+99

> <Gold.Chemscore.Hbonds>
donor molecule, donor type, donor heavy atom, donor atom, acceptor molecule, acceptor atom, score
      L1  H    11    32       P1  7948  0.26
      L1  H    15    38       P1  7948  0.21
      P1  H  7989  7998       L1    14  0.17
      P1  H 10752 10763       L1    10  0.35

> <Gold.Chemscore.Hbond.Weighted>
-5.7708

> <Gold.Chemscore.Metal.Weighted>
-0.0000

> <Gold.Chemscore.Lipo.Weighted>
-11.2583

> <Gold.Chemscore.Internal_Hbond.Weighted>
0.0000

> <Gold.Chemscore.DEClash.Weighted>
0.2585

> <Gold.Chemscore.DEInternal.Weighted>
2.0140

> <Gold.Chemscore.Rot.Weighted>
7.2649

> <Gold.Chemscore.Internal.Correction.Weighted>
   9.000000E+99

> <Gold.Protein.RotatedTorsions>
[ 6907 6896 6895 6894 ] final   33.37 input  -60.11 | X-H torsion
[ 7974 7965 7964 7962 ] final   21.54 input  175.53 | X-H torsion
[ 8008 7997 7996 7995 ] final  -39.55 input   59.86 | X-H torsion
[ 10167 10162 10161 10158 ] final -159.48 input  -65.29 | X-H torsion
[ 10718 10713 10712 10709 ] final   34.53 input   66.30 | X-H torsion
[ 10763 10752 10751 10750 ] final   78.59 input  -60.55 | X-H torsion
[ 11005 11000 10999 10996 ] final  -53.27 input  -57.11 | X-H torsion

> <Gold.Protein.ActiveResidues>
 VAL166  LYS551  ARG553  GLY616  TRP617  ASP618  TYR619  PRO620  LYS621  CYS622 
 ASP623  PHE694  ASN695  SER759  ASP760  ASP761  ALA762  ILE779  LEU786  VAL792 
 PHE793  MET794  SER795  GLU796  ALA797  LYS798  CYS799  TRP800  GLU811  SER814 

> <Gold.Protein.RotatedAtoms>
  152.0876  134.9429  160.0572 H   0  0  0  0  0  0  0  0  0  0  0  0  # atno 6907 bound_to 6896
  152.0693  133.4094  159.4460 H   0  0  0  0  0  0  0  0  0  0  0  0  # atno 6908 bound_to 6896
  150.6836  134.3030  159.4757 H   0  0  0  0  0  0  0  0  0  0  0  0  # atno 6909 bound_to 6896
  146.2067  139.8012  142.8720 H   0  0  0  0  0  0  0  0  0  0  0  0  # atno 7974 bound_to 7965
  154.4022  140.1548  156.2882 H   0  0  0  0  0  0  0  0  0  0  0  0  # atno 8008 bound_to 7997
  155.8809  140.3444  155.5865 H   0  0  0  0  0  0  0  0  0  0  0  0  # atno 8009 bound_to 7997
  155.7668  140.0825  157.2118 H   0  0  0  0  0  0  0  0  0  0  0  0  # atno 8010 bound_to 7997
  139.6612  143.9909  152.2226 H   0  0  0  0  0  0  0  0  0  0  0  0  # atno 10167 bound_to 10162
  157.3114  130.7401  149.6727 H   0  0  0  0  0  0  0  0  0  0  0  0  # atno 10718 bound_to 10713
  153.0886  135.4871  154.8646 H   0  0  0  0  0  0  0  0  0  0  0  0  # atno 10763 bound_to 10752
  154.7242  135.3046  154.9000 H   0  0  0  0  0  0  0  0  0  0  0  0  # atno 10764 bound_to 10752
  153.9656  135.6807  153.4799 H   0  0  0  0  0  0  0  0  0  0  0  0  # atno 10765 bound_to 10752
  141.0967  133.6623  156.4147 H   0  0  0  0  0  0  0  0  0  0  0  0  # atno 11005 bound_to 11000
  145.3294  141.0263  143.3455 LP  0  0  0  0  0  0  0  0  0  0  0  0  # atno 17320 bound_to 7965
  144.8809  139.4905  143.6723 LP  0  0  0  0  0  0  0  0  0  0  0  0  # atno 17321 bound_to 7965
  139.9649  144.6533  150.8044 LP  0  0  0  0  0  0  0  0  0  0  0  0  # atno 17342 bound_to 10162
  140.7581  143.3099  151.2870 LP  0  0  0  0  0  0  0  0  0  0  0  0  # atno 17343 bound_to 10162
  155.9678  130.4250  150.4634 LP  0  0  0  0  0  0  0  0  0  0  0  0  # atno 17370 bound_to 10713
  157.2633  131.0571  151.2306 LP  0  0  0  0  0  0  0  0  0  0  0  0  # atno 17371 bound_to 10713
  140.5122  134.6384  157.5288 LP  0  0  0  0  0  0  0  0  0  0  0  0  # atno 17394 bound_to 11000
  139.9806  134.7144  155.9867 LP  0  0  0  0  0  0  0  0  0  0  0  0  # atno 17395 bound_to 11000

$$$$
