AV-unprocessed.smi:1378|AV-procd|sdf|5596|dock2
  -GOLD-   22720 5203D 1   1.00000     0.00000
 Structure written by MMmdl.
 46 48  0  0  0  0  0  0  0  0  1 V2000
  152.5108  138.3883  154.4758 C   0  0  0  0  0  0  0  0  0  0  0  0
  152.7050  139.6508  155.0873 O   0  0  0  0  0  0  0  0  0  0  0  0
  151.5004  140.2028  155.5936 C   0  0  0  0  0  0  0  0  0  0  0  0
  151.2604  139.6909  157.0201 C   0  0  0  0  0  0  0  0  0  0  0  0
  152.0337  140.4351  158.0024 N   0  0  0  0  0  0  0  0  0  0  0  0
  152.9537  139.9555  158.8740 C   0  0  0  0  0  0  0  0  0  0  0  0
  153.3938  138.2483  158.9221 S   0  0  0  0  0  0  0  0  0  0  0  0
  153.1729  137.9659  160.7060 C   0  0  0  0  0  0  0  0  0  0  0  0
  154.1190  136.9004  161.2607 C   0  0  0  0  0  0  0  0  0  0  0  0
  154.9595  136.3793  160.5285 O   0  0  0  0  0  0  0  0  0  0  0  0
  153.9876  136.6121  162.5645 N   0  0  0  0  0  0  0  0  0  0  0  0
  154.8539  135.7238  163.3319 C   0  0  0  0  0  0  0  0  0  0  0  0
  155.1184  134.4107  162.5721 C   0  0  0  0  0  0  0  0  0  0  0  0
  154.3075  133.3373  163.2985 C   0  0  0  0  0  0  0  0  0  0  0  0
  154.2910  133.8030  164.7511 C   0  0  0  0  0  0  0  0  0  0  0  0
  154.1782  135.3253  164.6586 C   0  0  0  0  0  0  0  0  0  0  0  0
  153.5301  140.8610  159.6644 N   0  0  0  0  0  0  0  0  0  0  0  0
  152.9292  142.0388  159.2654 C   0  0  0  0  0  0  0  0  0  0  0  0
  153.1191  143.3649  159.7152 C   0  0  0  0  0  0  0  0  0  0  0  0
  152.3848  144.4244  159.1431 C   0  0  0  0  0  0  0  0  0  0  0  0
  151.4516  144.1738  158.1164 C   0  0  0  0  0  0  0  0  0  0  0  0
  151.2472  142.8599  157.6537 C   0  0  0  0  0  0  0  0  0  0  0  0
  151.9847  141.8066  158.2262 C   0  0  0  0  0  0  0  0  0  0  0  0
  153.4650  138.0081  154.1115 H   0  0  0  0  0  0  0  0  0  0  0  0
  151.8316  138.4627  153.6257 H   0  0  0  0  0  0  0  0  0  0  0  0
  152.1079  137.6638  155.1847 H   0  0  0  0  0  0  0  0  0  0  0  0
  151.5592  141.2925  155.5929 H   0  0  0  0  0  0  0  0  0  0  0  0
  150.6631  139.9207  154.9540 H   0  0  0  0  0  0  0  0  0  0  0  0
  150.2019  139.7482  157.2749 H   0  0  0  0  0  0  0  0  0  0  0  0
  151.5307  138.6369  157.0895 H   0  0  0  0  0  0  0  0  0  0  0  0
  153.3087  138.9060  161.2420 H   0  0  0  0  0  0  0  0  0  0  0  0
  152.1436  137.6519  160.8815 H   0  0  0  0  0  0  0  0  0  0  0  0
  153.2617  137.0895  163.0792 H   0  0  0  0  0  0  0  0  0  0  0  0
  155.8032  136.2182  163.5461 H   0  0  0  0  0  0  0  0  0  0  0  0
  154.8705  134.4651  161.5112 H   0  0  0  0  0  0  0  0  0  0  0  0
  156.1792  134.1658  162.6397 H   0  0  0  0  0  0  0  0  0  0  0  0
  153.2895  133.3177  162.9072 H   0  0  0  0  0  0  0  0  0  0  0  0
  154.7303  132.3392  163.1814 H   0  0  0  0  0  0  0  0  0  0  0  0
  153.4801  133.3563  165.3275 H   0  0  0  0  0  0  0  0  0  0  0  0
  155.2313  133.5324  165.2329 H   0  0  0  0  0  0  0  0  0  0  0  0
  154.6313  135.8216  165.5174 H   0  0  0  0  0  0  0  0  0  0  0  0
  153.1221  135.5999  164.6521 H   0  0  0  0  0  0  0  0  0  0  0  0
  153.8318  143.5677  160.5009 H   0  0  0  0  0  0  0  0  0  0  0  0
  152.5375  145.4342  159.4946 H   0  0  0  0  0  0  0  0  0  0  0  0
  150.8926  144.9910  157.6846 H   0  0  0  0  0  0  0  0  0  0  0  0
  150.5325  142.6637  156.8682 H   0  0  0  0  0  0  0  0  0  0  0  0
  1  2  1  0  0  0  0
  1 24  1  0  0  0  0
  1 25  1  0  0  0  0
  1 26  1  0  0  0  0
  2  3  1  0  0  0  0
  3  4  1  0  0  0  0
  3 27  1  0  0  0  0
  3 28  1  0  0  0  0
  4  5  1  0  0  0  0
  4 29  1  0  0  0  0
  4 30  1  0  0  0  0
  5 23  1  0  0  0  0
  5  6  1  0  0  0  0
  6  7  1  0  0  0  0
  6 17  2  0  0  0  0
  7  8  1  0  0  0  0
  8  9  1  0  0  0  0
  8 31  1  0  0  0  0
  8 32  1  0  0  0  0
  9 10  2  0  0  0  0
  9 11  1  0  0  0  0
 11 12  1  0  0  0  0
 11 33  1  0  0  0  0
 12 16  1  0  0  0  0
 12 13  1  0  0  0  0
 12 34  1  0  0  0  0
 13 14  1  0  0  0  0
 13 35  1  0  0  0  0
 13 36  1  0  0  0  0
 14 15  1  0  0  0  0
 14 37  1  0  0  0  0
 14 38  1  0  0  0  0
 15 16  1  0  0  0  0
 15 39  1  0  0  0  0
 15 40  1  0  0  0  0
 16 41  1  0  0  0  0
 16 42  1  0  0  0  0
 17 18  1  0  0  0  0
 18 23  2  0  0  0  0
 18 19  1  0  0  0  0
 19 20  2  0  0  0  0
 19 43  1  0  0  0  0
 20 21  1  0  0  0  0
 20 44  1  0  0  0  0
 21 22  2  0  0  0  0
 21 45  1  0  0  0  0
 22 23  1  0  0  0  0
 22 46  1  0  0  0  0
M  END
> <s_m_source_file>
AV-unprocessed.smi

> <i_m_source_file_index>
1378

> <i_lp_mmshare_version>
43012

> <i_f3d_flags>
0

> <s_epik_input>
W2NIXTFbY0hdW2NIXVtjSF1jKGMxMiluKFtDSDJdW0NIMl1PW0NIM10pYyhuMilTW0NIMl1DKD1PKVtOSF1bQ0hdM1tDSDJdW0NIMl1bQ0gyXVtDSDJdMw==

> <s_epik_cmdline>
J2VwaWtfcHl0aG9uJywgJy1waCcsICc3LjAnLCAnLXRuJywgJzgnLCAnLW1hJywgJzIwMCcsICctbWV0YWxfYmluZGluZycsICctaW1hZScsICc8aW5maWxlLm1hZT4nLCAnLW9tYWUnLCAnPG91dGZpbGUubWFlPic=

> <r_epik_Ionization_Penalty>
0.0369383

> <r_epik_Ionization_Penalty_Charging>
0

> <r_epik_Ionization_Penalty_Neutral>
0.0369383

> <r_epik_State_Penalty>
0.0308874

> <r_epik_Charging_Adjusted_Penalty>
0.0308874

> <i_epik_Tot_Q>
0

> <i_epik_Tot_abs_Q>
0

> <r_epik_Metal_State_Penalty>
0.0290628

> <b_epik_Metal_Only>
0

> <s_lp_Force_Field>
OPLS_2005

> <r_lp_Energy>
18.5214

> <b_lp_Chiralities_Consistent>
1

> <s_lp_Variant>
AV-unprocessed.smi:1378-1

> <Gold.Version>
5.8.1

> <Gold.Id.Protein>
6NUR|6NUR_protein|mol2

> <Gold.PLP.Fitness>
50.1008

> <Gold.PLP.PLP>
-48.2770

> <Gold.PLP.part.hbond>
-2.0000

> <Gold.PLP.part.metal>
0.0000

> <Gold.PLP.part.buried>
-3.8645

> <Gold.PLP.part.nonpolar>
-43.0192

> <Gold.PLP.part.repulsive>
0.0438

> <Gold.PLP.ligand.clash>
0.0000

> <Gold.PLP.ligand.torsion>
0.7113

> <Gold.PLP.Chemscore.Hbond>
1.0000

> <Gold.PLP.Chemscore.CHOScore>
0.0000

> <Gold.PLP.Chemscore.Metal>
0.0000

> <Gold.Chemscore.Hbonds>
donor molecule, donor type, donor heavy atom, donor atom, acceptor molecule, acceptor atom, score
      P1  H  7997  8008       L1     2  1.00

> <Gold.PLP.Chemscore.Internal.Correction>
0.2465

> <Gold.Rescore>
     Score         DG    S(hbond)    S(metal)    S(lipo)     H(rot)  DE(clash)    DE(int)     intcor
     17.41     -18.64       0.94        0.00     128.77       1.98       0.20       1.02       ----

> <Gold.Chemscore.Fitness>
17.4144

> <Gold.Chemscore.DG>
-18.6357

> <Gold.Chemscore.ZeroCoef>
-5.4800

> <Gold.Chemscore.Hbond>
0.9450

> <Gold.Chemscore.Metal>
0.0000

> <Gold.Chemscore.Lipo>
128.7725

> <Gold.Chemscore.Internal_Hbond>
0.0000

> <Gold.Chemscore.DEClash>
0.1975

> <Gold.Chemscore.DEInternal>
1.0237

> <Gold.Chemscore.Rot>
1.9792

> <Gold.Chemscore.Internal.Correction>
   9.000000E+99

> <Gold.Chemscore.Hbonds>
donor molecule, donor type, donor heavy atom, donor atom, acceptor molecule, acceptor atom, score
      P1  H  7997  8008       L1     2  0.82

> <Gold.Chemscore.Hbond.Weighted>
-3.1561

> <Gold.Chemscore.Metal.Weighted>
-0.0000

> <Gold.Chemscore.Lipo.Weighted>
-15.0664

> <Gold.Chemscore.Internal_Hbond.Weighted>
0.0000

> <Gold.Chemscore.DEClash.Weighted>
0.1975

> <Gold.Chemscore.DEInternal.Weighted>
1.0237

> <Gold.Chemscore.Rot.Weighted>
5.0669

> <Gold.Chemscore.Internal.Correction.Weighted>
   9.000000E+99

> <Gold.Protein.RotatedTorsions>
[ 6907 6896 6895 6894 ] final   34.06 input  -60.11 | X-H torsion
[ 7974 7965 7964 7962 ] final  -23.50 input  175.53 | X-H torsion
[ 8008 7997 7996 7995 ] final  -32.66 input   59.86 | X-H torsion
[ 10167 10162 10161 10158 ] final  142.35 input  -65.29 | X-H torsion
[ 10718 10713 10712 10709 ] final  -43.16 input   66.30 | X-H torsion
[ 10763 10752 10751 10750 ] final  -33.17 input  -60.55 | X-H torsion
[ 11005 11000 10999 10996 ] final -157.75 input  -57.11 | X-H torsion

> <Gold.Protein.ActiveResidues>
 VAL166  LYS551  ARG553  GLY616  TRP617  ASP618  TYR619  PRO620  LYS621  CYS622 
 ASP623  PHE694  ASN695  SER759  ASP760  ASP761  ALA762  ILE779  LEU786  VAL792 
 PHE793  MET794  SER795  GLU796  ALA797  LYS798  CYS799  TRP800  GLU811  SER814 

> <Gold.Protein.RotatedAtoms>
  152.0972  134.9367  160.0570 H   0  0  0  0  0  0  0  0  0  0  0  0  # atno 6907 bound_to 6896
  152.0595  133.4051  159.4420 H   0  0  0  0  0  0  0  0  0  0  0  0  # atno 6908 bound_to 6896
  150.6838  134.3136  159.4800 H   0  0  0  0  0  0  0  0  0  0  0  0  # atno 6909 bound_to 6896
  146.1612  140.4624  142.8570 H   0  0  0  0  0  0  0  0  0  0  0  0  # atno 7974 bound_to 7965
  154.4173  140.1731  156.1762 H   0  0  0  0  0  0  0  0  0  0  0  0  # atno 8008 bound_to 7997
  155.9719  140.3385  155.6560 H   0  0  0  0  0  0  0  0  0  0  0  0  # atno 8009 bound_to 7997
  155.6613  140.0701  157.2543 H   0  0  0  0  0  0  0  0  0  0  0  0  # atno 8010 bound_to 7997
  139.4996  144.6112  151.6266 H   0  0  0  0  0  0  0  0  0  0  0  0  # atno 10167 bound_to 10162
  156.2520  130.4189  149.8639 H   0  0  0  0  0  0  0  0  0  0  0  0  # atno 10718 bound_to 10713
  153.8258  135.6870  153.4821 H   0  0  0  0  0  0  0  0  0  0  0  0  # atno 10763 bound_to 10752
  153.1541  135.4606  154.9677 H   0  0  0  0  0  0  0  0  0  0  0  0  # atno 10764 bound_to 10752
  154.7908  135.3301  154.7726 H   0  0  0  0  0  0  0  0  0  0  0  0  # atno 10765 bound_to 10752
  140.6612  134.4347  157.5234 H   0  0  0  0  0  0  0  0  0  0  0  0  # atno 11005 bound_to 11000
  144.8030  140.6248  143.6465 LP  0  0  0  0  0  0  0  0  0  0  0  0  # atno 17320 bound_to 7965
  145.4582  139.1515  143.3880 LP  0  0  0  0  0  0  0  0  0  0  0  0  # atno 17321 bound_to 7965
  140.5788  143.9982  150.6256 LP  0  0  0  0  0  0  0  0  0  0  0  0  # atno 17342 bound_to 10162
  140.3124  143.3189  152.0865 LP  0  0  0  0  0  0  0  0  0  0  0  0  # atno 17343 bound_to 10162
  156.6185  130.8616  151.3470 LP  0  0  0  0  0  0  0  0  0  0  0  0  # atno 17370 bound_to 10713
  157.7218  130.9568  150.1469 LP  0  0  0  0  0  0  0  0  0  0  0  0  # atno 17371 bound_to 10713
  139.9012  134.8551  156.1887 LP  0  0  0  0  0  0  0  0  0  0  0  0  # atno 17394 bound_to 11000
  141.0464  133.6911  156.1690 LP  0  0  0  0  0  0  0  0  0  0  0  0  # atno 17395 bound_to 11000

$$$$
