AV-unprocessed.smi:1738|AV-procd|sdf|7003|dock1
  -GOLD-   22720 8213D 1   1.00000     0.00000
 Structure written by MMmdl.
 46 48  0  0  0  0  0  0  0  0  2 V2000
  151.5495  130.0244  159.0888 C   0  0  0  0  0  0  0  0  0  0  0  0
  152.5188  130.8064  157.7358 S   0  0  0  0  0  0  0  0  0  0  0  0
  152.9222  132.1518  158.1736 O   0  0  0  0  0  0  0  0  0  0  0  0
  153.5451  129.8455  157.3019 O   0  0  0  0  0  0  0  0  0  0  0  0
  151.3267  130.9904  156.4145 C   0  0  0  0  0  0  0  0  0  0  0  0
  150.4152  132.0652  156.4222 C   0  0  0  0  0  0  0  0  0  0  0  0
  149.5315  132.1938  155.3338 C   0  0  0  0  0  0  0  0  0  0  0  0
  149.6073  131.2555  154.2751 C   0  0  0  0  0  0  0  0  0  0  0  0
  148.7586  131.2680  153.1354 N   0  0  0  0  0  0  0  0  0  0  0  0
  147.4758  131.6603  153.0555 C   0  0  0  0  0  0  0  0  0  0  0  0
  146.8146  132.1291  153.9815 O   0  0  0  0  0  0  0  0  0  0  0  0
  146.9939  131.5052  151.8140 N   0  0  0  0  0  0  0  0  0  0  0  0
  145.6325  131.8446  151.4074 C   0  0  2  0  0  0  0  0  0  0  0  0
  145.4104  131.7752  149.9021 C   0  0  0  0  0  0  0  0  0  0  0  0
  144.1284  132.5920  149.7067 C   0  0  0  0  0  0  0  0  0  0  0  0
  144.0625  133.5638  150.8265 N   0  3  2  0  0  0  0  0  0  0  0  0
  143.9350  134.9809  150.3919 C   0  0  0  0  0  0  0  0  0  0  0  0
  144.2823  135.9415  151.5390 C   0  0  0  0  0  0  0  0  0  0  0  0
  145.7411  135.7638  152.0009 C   0  0  0  0  0  0  0  0  0  0  0  0
  146.2936  134.3614  151.6822 C   0  0  0  0  0  0  0  0  0  0  0  0
  145.1901  133.2777  151.7589 C   0  0  2  0  0  0  0  0  0  0  0  0
  150.5617  130.2204  154.3775 C   0  0  0  0  0  0  0  0  0  0  0  0
  151.4172  130.0898  155.4129 N   0  0  0  0  0  0  0  0  0  0  0  0
  152.1906  129.8785  159.9578 H   0  0  0  0  0  0  0  0  0  0  0  0
  151.1687  129.0604  158.7525 H   0  0  0  0  0  0  0  0  0  0  0  0
  150.7143  130.6707  159.3583 H   0  0  0  0  0  0  0  0  0  0  0  0
  150.3866  132.7718  157.2383 H   0  0  0  0  0  0  0  0  0  0  0  0
  148.8118  132.9974  155.3389 H   0  0  0  0  0  0  0  0  0  0  0  0
  149.1961  130.9924  152.2682 H   0  0  0  0  0  0  0  0  0  0  0  0
  147.6037  131.1196  151.1077 H   0  0  0  0  0  0  0  0  0  0  0  0
  144.9409  131.1403  151.8752 H   0  0  0  0  0  0  0  0  0  0  0  0
  146.2370  132.2534  149.3744 H   0  0  0  0  0  0  0  0  0  0  0  0
  145.3204  130.7537  149.5313 H   0  0  0  0  0  0  0  0  0  0  0  0
  144.1009  133.0649  148.7241 H   0  0  0  0  0  0  0  0  0  0  0  0
  143.2558  131.9417  149.7773 H   0  0  0  0  0  0  0  0  0  0  0  0
  144.5985  135.1782  149.5480 H   0  0  0  0  0  0  0  0  0  0  0  0
  142.9177  135.1542  150.0400 H   0  0  0  0  0  0  0  0  0  0  0  0
  144.1095  136.9755  151.2389 H   0  0  0  0  0  0  0  0  0  0  0  0
  143.6088  135.7514  152.3759 H   0  0  0  0  0  0  0  0  0  0  0  0
  146.3784  136.5106  151.5261 H   0  0  0  0  0  0  0  0  0  0  0  0
  145.7992  135.9544  153.0732 H   0  0  0  0  0  0  0  0  0  0  0  0
  146.7269  134.3644  150.6809 H   0  0  0  0  0  0  0  0  0  0  0  0
  147.1137  134.1404  152.3657 H   0  0  0  0  0  0  0  0  0  0  0  0
  144.7957  133.2836  152.7762 H   0  0  0  0  0  0  0  0  0  0  0  0
  150.6491  129.4769  153.5987 H   0  0  0  0  0  0  0  0  0  0  0  0
  143.2212  133.3438  151.3408 H   0  0  0  0  0  0  0  0  0  0  0  0
  1  2  1  0  0  0  0
  1 24  1  0  0  0  0
  1 25  1  0  0  0  0
  1 26  1  0  0  0  0
  2  3  2  0  0  0  0
  2  4  2  0  0  0  0
  2  5  1  0  0  0  0
  5 23  1  0  0  0  0
  5  6  2  0  0  0  0
  6  7  1  0  0  0  0
  6 27  1  0  0  0  0
  7  8  2  0  0  0  0
  7 28  1  0  0  0  0
  8  9  1  0  0  0  0
  8 22  1  0  0  0  0
  9 10  1  0  0  0  0
  9 29  1  0  0  0  0
 10 11  2  0  0  0  0
 10 12  1  0  0  0  0
 12 13  1  0  0  0  0
 12 30  1  0  0  0  0
 13 21  1  0  0  0  0
 13 14  1  0  0  0  0
 13 31  1  0  0  0  0
 14 15  1  0  0  0  0
 14 32  1  0  0  0  0
 14 33  1  0  0  0  0
 15 16  1  0  0  0  0
 15 34  1  0  0  0  0
 15 35  1  0  0  0  0
 16 21  1  0  0  0  0
 16 17  1  0  0  0  0
 16 46  1  0  0  0  0
 17 18  1  0  0  0  0
 17 36  1  0  0  0  0
 17 37  1  0  0  0  0
 18 19  1  0  0  0  0
 18 38  1  0  0  0  0
 18 39  1  0  0  0  0
 19 20  1  0  0  0  0
 19 40  1  0  0  0  0
 19 41  1  0  0  0  0
 20 21  1  0  0  0  0
 20 42  1  0  0  0  0
 20 43  1  0  0  0  0
 21 44  1  0  0  0  0
 22 23  2  0  0  0  0
 22 45  1  0  0  0  0
M  CHG  1  16   1
M  END
> <s_m_source_file>
AV-unprocessed.smi

> <i_m_source_file_index>
1738

> <i_lp_mmshare_version>
43012

> <i_f3d_flags>
0

> <s_epik_input>
W0NIM11TKD1PKSg9TyljMVtjSF1bY0hdYyhbY0hdbjEpW05IXUMoPU8pW05IXVtDQEhdKFtDSDJdW0NIMl0yKVtDQEBIXShOMjMpW0NIMl1bQ0gyXVtDSDJdW0NIMl0z

> <s_epik_cmdline>
J2VwaWtfcHl0aG9uJywgJy1waCcsICc3LjAnLCAnLXRuJywgJzgnLCAnLW1hJywgJzIwMCcsICctbWV0YWxfYmluZGluZycsICctaW1hZScsICc8aW5maWxlLm1hZT4nLCAnLW9tYWUnLCAnPG91dGZpbGUubWFlPic=

> <r_epik_Ionization_Penalty>
0.00100042

> <r_epik_Ionization_Penalty_Charging>
0.000974069

> <r_epik_Ionization_Penalty_Neutral>
2.63543e-05

> <r_epik_State_Penalty>
0.000633842

> <r_epik_Charging_Adjusted_Penalty>
0.00160791

> <i_epik_Tot_Q>
1

> <i_epik_Tot_abs_Q>
1

> <r_epik_Metal_State_Penalty>
-0

> <b_epik_Metal_Only>
0

> <s_lp_Force_Field>
OPLS_2005

> <r_lp_Energy>
44.1137

> <b_lp_Chiralities_Consistent>
1

> <s_lp_Variant>
AV-unprocessed.smi:1738-7

> <Gold.Version>
5.8.1

> <Gold.Id.Protein>
6NUR|6NUR_protein|mol2

> <Gold.PLP.Fitness>
41.5482

> <Gold.PLP.PLP>
-32.7021

> <Gold.PLP.part.hbond>
-3.0000

> <Gold.PLP.part.metal>
0.0000

> <Gold.PLP.part.buried>
-4.3434

> <Gold.PLP.part.nonpolar>
-27.0410

> <Gold.PLP.part.repulsive>
0.1625

> <Gold.PLP.ligand.clash>
0.0000

> <Gold.PLP.ligand.torsion>
1.3110

> <Gold.PLP.Chemscore.Hbond>
2.9600

> <Gold.PLP.Chemscore.CHOScore>
0.1880

> <Gold.PLP.Chemscore.Metal>
0.0000

> <Gold.Chemscore.Hbonds>
donor molecule, donor type, donor heavy atom, donor atom, acceptor molecule, acceptor atom, score
      L1  H     9    29       P1 10747  0.90
      L1  H    12    30       P1 10747  1.00
      P1  H  6896  6909       L1     3  1.00
      L1  C    22    45       P1 10737  0.05

> <Gold.PLP.Chemscore.Internal.Correction>
2.0241

> <Gold.Rescore>
     Score         DG    S(hbond)    S(metal)    S(lipo)     H(rot)  DE(clash)    DE(int)     intcor
     17.30     -19.83       2.33        0.00      77.98       1.00       0.34       2.19       ----

> <Gold.Chemscore.Fitness>
17.3039

> <Gold.Chemscore.DG>
-19.8347

> <Gold.Chemscore.ZeroCoef>
-5.4800

> <Gold.Chemscore.Hbond>
2.3325

> <Gold.Chemscore.Metal>
0.0000

> <Gold.Chemscore.Lipo>
77.9842

> <Gold.Chemscore.Internal_Hbond>
0.0000

> <Gold.Chemscore.DEClash>
0.3435

> <Gold.Chemscore.DEInternal>
2.1873

> <Gold.Chemscore.Rot>
1.0000

> <Gold.Chemscore.Internal.Correction>
   9.000000E+99

> <Gold.Chemscore.Hbonds>
donor molecule, donor type, donor heavy atom, donor atom, acceptor molecule, acceptor atom, score
      L1  H     9    29       P1 10747  0.19
      L1  H    12    30       P1 10747  0.99
      P1  H  6896  6909       L1     3  1.00

> <Gold.Chemscore.Hbond.Weighted>
-7.7905

> <Gold.Chemscore.Metal.Weighted>
-0.0000

> <Gold.Chemscore.Lipo.Weighted>
-9.1242

> <Gold.Chemscore.Internal_Hbond.Weighted>
0.0000

> <Gold.Chemscore.DEClash.Weighted>
0.3435

> <Gold.Chemscore.DEInternal.Weighted>
2.1873

> <Gold.Chemscore.Rot.Weighted>
2.5600

> <Gold.Chemscore.Internal.Correction.Weighted>
   9.000000E+99

> <Gold.Protein.RotatedTorsions>
[ 6907 6896 6895 6894 ] final  -80.77 input  -60.11 | X-H torsion
[ 7974 7965 7964 7962 ] final   18.40 input  175.53 | X-H torsion
[ 8008 7997 7996 7995 ] final  122.51 input   59.86 | X-H torsion
[ 10167 10162 10161 10158 ] final  -40.82 input  -65.29 | X-H torsion
[ 10718 10713 10712 10709 ] final  177.34 input   66.30 | X-H torsion
[ 10763 10752 10751 10750 ] final -160.02 input  -60.55 | X-H torsion
[ 11005 11000 10999 10996 ] final   71.55 input  -57.11 | X-H torsion

> <Gold.Protein.ActiveResidues>
 VAL166  LYS551  ARG553  GLY616  TRP617  ASP618  TYR619  PRO620  LYS621  CYS622 
 ASP623  PHE694  ASN695  SER759  ASP760  ASP761  ALA762  ILE779  LEU786  VAL792 
 PHE793  MET794  SER795  GLU796  ALA797  LYS798  CYS799  TRP800  GLU811  SER814 

> <Gold.Protein.RotatedAtoms>
  150.6923  134.3919  159.5079 H   0  0  0  0  0  0  0  0  0  0  0  0  # atno 6907 bound_to 6896
  152.1706  134.8835  160.0544 H   0  0  0  0  0  0  0  0  0  0  0  0  # atno 6908 bound_to 6896
  151.9862  133.3740  159.4163 H   0  0  0  0  0  0  0  0  0  0  0  0  # atno 6909 bound_to 6896
  146.2186  139.8463  142.8631 H   0  0  0  0  0  0  0  0  0  0  0  0  # atno 7974 bound_to 7965
  156.2730  140.2784  156.1478 H   0  0  0  0  0  0  0  0  0  0  0  0  # atno 8008 bound_to 7997
  155.0885  140.0388  157.2679 H   0  0  0  0  0  0  0  0  0  0  0  0  # atno 8009 bound_to 7997
  154.6908  140.2628  155.6820 H   0  0  0  0  0  0  0  0  0  0  0  0  # atno 8010 bound_to 7997
  140.7022  143.3130  151.2979 H   0  0  0  0  0  0  0  0  0  0  0  0  # atno 10167 bound_to 10162
  156.9068  130.9897  151.3027 H   0  0  0  0  0  0  0  0  0  0  0  0  # atno 10718 bound_to 10713
  154.7426  135.3072  154.8701 H   0  0  0  0  0  0  0  0  0  0  0  0  # atno 10763 bound_to 10752
  153.9511  135.6764  153.4748 H   0  0  0  0  0  0  0  0  0  0  0  0  # atno 10764 bound_to 10752
  153.1024  135.4905  154.8816 H   0  0  0  0  0  0  0  0  0  0  0  0  # atno 10765 bound_to 10752
  139.9537  134.7181  156.0802 H   0  0  0  0  0  0  0  0  0  0  0  0  # atno 11005 bound_to 11000
  145.2847  141.0149  143.3697 LP  0  0  0  0  0  0  0  0  0  0  0  0  # atno 17320 bound_to 7965
  144.9123  139.4513  143.6581 LP  0  0  0  0  0  0  0  0  0  0  0  0  # atno 17321 bound_to 7965
  139.6560  144.0276  152.2660 LP  0  0  0  0  0  0  0  0  0  0  0  0  # atno 17342 bound_to 10162
  139.9827  144.6417  150.7885 LP  0  0  0  0  0  0  0  0  0  0  0  0  # atno 17343 bound_to 10162
  157.5992  130.8500  149.8776 LP  0  0  0  0  0  0  0  0  0  0  0  0  # atno 17370 bound_to 10713
  156.0555  130.3709  150.1101 LP  0  0  0  0  0  0  0  0  0  0  0  0  # atno 17371 bound_to 10713
  141.1205  133.6614  156.3203 LP  0  0  0  0  0  0  0  0  0  0  0  0  # atno 17394 bound_to 11000
  140.5658  134.5889  157.5445 LP  0  0  0  0  0  0  0  0  0  0  0  0  # atno 17395 bound_to 11000

$$$$
