AV-unprocessed.smi:250|AV-procd|sdf|1930|dock3
  -GOLD-   2262021 53D 1   1.00000     0.00000
 Structure written by MMmdl.
 56 60  0  0  0  0  0  0  0  0  1 V2000
  152.3431  144.0630  161.4056 C   0  0  0  0  0  0  0  0  0  0  0  0
  151.7561  144.0351  160.0719 N   0  0  0  0  0  0  0  0  0  0  0  0
  150.5473  144.5174  159.7384 C   0  0  0  0  0  0  0  0  0  0  0  0
  149.7346  145.0367  160.5008 O   0  0  0  0  0  0  0  0  0  0  0  0
  150.3761  144.3488  158.4236 N   0  0  0  0  0  0  0  0  0  0  0  0
  151.5597  143.8228  157.7787 C   0  0  2  0  0  0  0  0  0  0  0  0
  151.2884  142.8316  156.6239 C   0  0  0  0  0  0  0  0  0  0  0  0
  151.3604  141.4278  157.0230 N   0  0  0  0  0  0  0  0  0  0  0  0
  150.9844  140.5521  156.0573 C   0  0  0  0  0  0  0  0  0  0  0  0
  150.0697  140.9250  155.1220 N   0  0  0  0  0  0  0  0  0  0  0  0
  149.6832  140.0648  154.1754 C   0  0  0  0  0  0  0  0  0  0  0  0
  150.0789  138.8057  153.9805 N   0  0  0  0  0  0  0  0  0  0  0  0
  151.0030  138.4279  154.9095 C   0  0  0  0  0  0  0  0  0  0  0  0
  151.5038  139.2291  155.9742 C   0  0  0  0  0  0  0  0  0  0  0  0
  152.4318  138.5049  156.7131 N   0  0  0  0  0  0  0  0  0  0  0  0
  152.4694  137.3405  156.1253 C   0  0  0  0  0  0  0  0  0  0  0  0
  151.6557  137.2119  155.0220 N   0  0  0  0  0  0  0  0  0  0  0  0
  151.4978  136.0303  154.1850 C   0  0  0  0  0  0  0  0  0  0  0  0
  150.7137  134.8440  154.8275 C   0  0  0  0  0  0  0  0  0  0  0  0
  149.3482  135.3999  155.3235 C   0  0  0  0  0  0  0  0  0  0  0  0
  148.6235  136.0492  154.2974 O   0  0  0  0  0  0  0  0  0  0  0  0
  150.4669  133.7202  153.7867 C   0  0  0  0  0  0  0  0  0  0  0  0
  149.8677  132.4451  154.4095 C   0  0  0  0  0  0  0  0  0  0  0  0
  150.7077  131.9733  155.4557 O   0  0  0  0  0  0  0  0  0  0  0  0
  150.8571  132.9094  156.5161 C   0  0  0  0  0  0  0  0  0  0  0  0
  151.5144  134.1978  155.9883 C   0  0  0  0  0  0  0  0  0  0  0  0
  152.4868  141.0617  157.8754 C   0  0  0  0  0  0  0  0  0  0  0  0
  152.3820  141.8291  159.1922 C   0  0  0  0  0  0  0  0  0  0  0  0
  152.4172  143.3543  158.9657 C   0  0  2  0  0  0  0  0  0  0  0  0
  152.0375  144.6993  157.3372 H   0  0  0  0  0  0  0  0  0  0  0  0
  153.4457  143.6979  158.8471 H   0  0  0  0  0  0  0  0  0  0  0  0
  152.2762  145.0626  161.8372 H   0  0  0  0  0  0  0  0  0  0  0  0
  153.3957  143.7791  161.3761 H   0  0  0  0  0  0  0  0  0  0  0  0
  151.8211  143.3675  162.0638 H   0  0  0  0  0  0  0  0  0  0  0  0
  149.5512  144.6308  157.9143 H   0  0  0  0  0  0  0  0  0  0  0  0
  150.3359  143.0697  156.1516 H   0  0  0  0  0  0  0  0  0  0  0  0
  152.0488  142.9794  155.8557 H   0  0  0  0  0  0  0  0  0  0  0  0
  148.9534  140.4395  153.4728 H   0  0  0  0  0  0  0  0  0  0  0  0
  153.1023  136.5392  156.4783 H   0  0  0  0  0  0  0  0  0  0  0  0
  151.0104  136.3502  153.2632 H   0  0  0  0  0  0  0  0  0  0  0  0
  152.4946  135.6983  153.8918 H   0  0  0  0  0  0  0  0  0  0  0  0
  148.7315  134.5907  155.7160 H   0  0  0  0  0  0  0  0  0  0  0  0
  149.4647  136.1127  156.1376 H   0  0  0  0  0  0  0  0  0  0  0  0
  149.0877  135.9337  153.4823 H   0  0  0  0  0  0  0  0  0  0  0  0
  149.8256  134.0807  152.9815 H   0  0  0  0  0  0  0  0  0  0  0  0
  151.4058  133.4276  153.3182 H   0  0  0  0  0  0  0  0  0  0  0  0
  148.8563  132.6094  154.7813 H   0  0  0  0  0  0  0  0  0  0  0  0
  149.7927  131.6660  153.6507 H   0  0  0  0  0  0  0  0  0  0  0  0
  149.8937  133.1094  156.9853 H   0  0  0  0  0  0  0  0  0  0  0  0
  151.4883  132.4618  157.2839 H   0  0  0  0  0  0  0  0  0  0  0  0
  152.5137  133.9296  155.6482 H   0  0  0  0  0  0  0  0  0  0  0  0
  151.6561  134.9065  156.8045 H   0  0  0  0  0  0  0  0  0  0  0  0
  152.4773  139.9907  158.0832 H   0  0  0  0  0  0  0  0  0  0  0  0
  153.4261  141.2904  157.3699 H   0  0  0  0  0  0  0  0  0  0  0  0
  151.4516  141.5394  159.6844 H   0  0  0  0  0  0  0  0  0  0  0  0
  153.1874  141.5341  159.8651 H   0  0  0  0  0  0  0  0  0  0  0  0
  1  2  1  0  0  0  0
  1 32  1  0  0  0  0
  1 33  1  0  0  0  0
  1 34  1  0  0  0  0
  2 29  1  0  0  0  0
  2  3  1  0  0  0  0
  3  4  2  0  0  0  0
  3  5  1  0  0  0  0
  5  6  1  0  0  0  0
  5 35  1  0  0  0  0
  6 30  1  0  0  0  0
  6 29  1  0  0  0  0
  6  7  1  0  0  0  0
  7  8  1  0  0  0  0
  7 36  1  0  0  0  0
  7 37  1  0  0  0  0
  8  9  1  0  0  0  0
  8 27  1  0  0  0  0
  9 14  1  0  0  0  0
  9 10  2  0  0  0  0
 10 11  1  0  0  0  0
 11 12  2  0  0  0  0
 11 38  1  0  0  0  0
 12 13  1  0  0  0  0
 13 17  1  0  0  0  0
 13 14  2  0  0  0  0
 14 15  1  0  0  0  0
 15 16  2  0  0  0  0
 16 17  1  0  0  0  0
 16 39  1  0  0  0  0
 17 18  1  0  0  0  0
 18 19  1  0  0  0  0
 18 40  1  0  0  0  0
 18 41  1  0  0  0  0
 19 26  1  0  0  0  0
 19 20  1  0  0  0  0
 19 22  1  0  0  0  0
 20 21  1  0  0  0  0
 20 42  1  0  0  0  0
 20 43  1  0  0  0  0
 21 44  1  0  0  0  0
 22 23  1  0  0  0  0
 22 45  1  0  0  0  0
 22 46  1  0  0  0  0
 23 24  1  0  0  0  0
 23 47  1  0  0  0  0
 23 48  1  0  0  0  0
 24 25  1  0  0  0  0
 25 26  1  0  0  0  0
 25 49  1  0  0  0  0
 25 50  1  0  0  0  0
 26 51  1  0  0  0  0
 26 52  1  0  0  0  0
 27 28  1  0  0  0  0
 27 53  1  0  0  0  0
 27 54  1  0  0  0  0
 28 29  1  0  0  0  0
 28 55  1  0  0  0  0
 28 56  1  0  0  0  0
 29 31  1  0  0  0  0
M  END
> <s_m_source_file>
AV-unprocessed.smi

> <i_m_source_file_index>
250

> <i_lp_mmshare_version>
43012

> <i_f3d_flags>
0

> <s_epik_input>
Tz1DKFtOSF0xKU4oW0NIM10pW0NASF0oW0NASF0xMilbQ0gyXVtDSDJdTihbQ0gyXTIpYyhuW2NIXW4zKWMoYzM0KW5bY0hdbjRbQ0gyXUM1KFtDSDJdW09IXSlbQ0gyXVtDSDJdT1tDSDJdW0NIMl01

> <s_epik_cmdline>
J2VwaWtfcHl0aG9uJywgJy1waCcsICc3LjAnLCAnLXRuJywgJzgnLCAnLW1hJywgJzIwMCcsICctbWV0YWxfYmluZGluZycsICctaW1hZScsICc8aW5maWxlLm1hZT4nLCAnLW9tYWUnLCAnPG91dGZpbGUubWFlPic=

> <r_lp_tautomer_probability>
1

> <r_epik_Ionization_Penalty>
0.00229024

> <r_epik_Ionization_Penalty_Charging>
0

> <r_epik_Ionization_Penalty_Neutral>
0.00229024

> <r_epik_State_Penalty>
0.0013961

> <r_epik_Charging_Adjusted_Penalty>
0.0013961

> <i_epik_Tot_Q>
0

> <i_epik_Tot_abs_Q>
0

> <r_epik_Metal_State_Penalty>
-0

> <b_epik_Metal_Only>
0

> <s_lp_Force_Field>
OPLS_2005

> <r_lp_Energy>
69.2322

> <b_lp_Chiralities_Consistent>
1

> <s_lp_Variant>
AV-unprocessed.smi:250-1

> <Gold.Version>
5.8.1

> <Gold.Id.Protein>
6NUR|6NUR_protein|mol2

> <Gold.PLP.Fitness>
50.4971

> <Gold.PLP.PLP>
-44.0986

> <Gold.PLP.part.hbond>
-4.4996

> <Gold.PLP.part.metal>
0.0000

> <Gold.PLP.part.buried>
-4.0064

> <Gold.PLP.part.nonpolar>
-36.1082

> <Gold.PLP.part.repulsive>
0.7019

> <Gold.PLP.ligand.clash>
0.0000

> <Gold.PLP.ligand.torsion>
0.6624

> <Gold.PLP.Chemscore.Hbond>
1.5753

> <Gold.PLP.Chemscore.CHOScore>
0.8525

> <Gold.PLP.Chemscore.Metal>
0.0000

> <Gold.Chemscore.Hbonds>
donor molecule, donor type, donor heavy atom, donor atom, acceptor molecule, acceptor atom, score
      L1  H     5    35       P1  8029  0.32
      L1  H    21    44       P1  7948  0.86
      L1  C    11    38       P1  7957  0.65

> <Gold.PLP.Chemscore.Internal.Correction>
0.4401

> <Gold.Rescore>
     Score         DG    S(hbond)    S(metal)    S(lipo)     H(rot)  DE(clash)    DE(int)     intcor
     11.22     -14.11       1.04        0.00     100.20       2.56       0.84       2.05       ----

> <Gold.Chemscore.Fitness>
11.2173

> <Gold.Chemscore.DG>
-14.1088

> <Gold.Chemscore.ZeroCoef>
-5.4800

> <Gold.Chemscore.Hbond>
1.0356

> <Gold.Chemscore.Metal>
0.0000

> <Gold.Chemscore.Lipo>
100.2047

> <Gold.Chemscore.Internal_Hbond>
0.0000

> <Gold.Chemscore.DEClash>
0.8402

> <Gold.Chemscore.DEInternal>
2.0513

> <Gold.Chemscore.Rot>
2.5601

> <Gold.Chemscore.Internal.Correction>
   9.000000E+99

> <Gold.Chemscore.Hbonds>
donor molecule, donor type, donor heavy atom, donor atom, acceptor molecule, acceptor atom, score
      L1  H     5    35       P1  8029  0.02
      L1  H    21    44       P1  7948  0.74

> <Gold.Chemscore.Hbond.Weighted>
-3.4587

> <Gold.Chemscore.Metal.Weighted>
-0.0000

> <Gold.Chemscore.Lipo.Weighted>
-11.7239

> <Gold.Chemscore.Internal_Hbond.Weighted>
0.0000

> <Gold.Chemscore.DEClash.Weighted>
0.8402

> <Gold.Chemscore.DEInternal.Weighted>
2.0513

> <Gold.Chemscore.Rot.Weighted>
6.5538

> <Gold.Chemscore.Internal.Correction.Weighted>
   9.000000E+99

> <Gold.Protein.RotatedTorsions>
[ 6907 6896 6895 6894 ] final -118.88 input  -60.11 | X-H torsion
[ 7974 7965 7964 7962 ] final  127.10 input  175.53 | X-H torsion
[ 8008 7997 7996 7995 ] final   13.51 input   59.86 | X-H torsion
[ 10167 10162 10161 10158 ] final  -93.32 input  -65.29 | X-H torsion
[ 10718 10713 10712 10709 ] final -166.09 input   66.30 | X-H torsion
[ 10763 10752 10751 10750 ] final   69.67 input  -60.55 | X-H torsion
[ 11005 11000 10999 10996 ] final -116.66 input  -57.11 | X-H torsion

> <Gold.Protein.ActiveResidues>
 VAL166  LYS551  ARG553  GLY616  TRP617  ASP618  TYR619  PRO620  LYS621  CYS622 
 ASP623  PHE694  ASN695  SER759  ASP760  ASP761  ALA762  ILE779  LEU786  VAL792 
 PHE793  MET794  SER795  GLU796  ALA797  LYS798  CYS799  TRP800  GLU811  SER814 

> <Gold.Protein.RotatedAtoms>
  150.8258  133.8175  159.3119 H   0  0  0  0  0  0  0  0  0  0  0  0  # atno 6907 bound_to 6896
  151.5920  135.1051  160.0050 H   0  0  0  0  0  0  0  0  0  0  0  0  # atno 6908 bound_to 6896
  152.4343  133.7291  159.6633 H   0  0  0  0  0  0  0  0  0  0  0  0  # atno 6909 bound_to 6896
  145.0543  139.3857  143.5038 H   0  0  0  0  0  0  0  0  0  0  0  0  # atno 7974 bound_to 7965
  154.8355  140.2906  155.5693 H   0  0  0  0  0  0  0  0  0  0  0  0  # atno 8008 bound_to 7997
  156.3008  140.2524  156.3220 H   0  0  0  0  0  0  0  0  0  0  0  0  # atno 8009 bound_to 7997
  154.9183  140.0386  157.1973 H   0  0  0  0  0  0  0  0  0  0  0  0  # atno 8010 bound_to 7997
  140.3259  143.3022  151.9995 H   0  0  0  0  0  0  0  0  0  0  0  0  # atno 10167 bound_to 10162
  156.6628  130.9053  151.3032 H   0  0  0  0  0  0  0  0  0  0  0  0  # atno 10718 bound_to 10713
  153.0299  135.5202  154.7323 H   0  0  0  0  0  0  0  0  0  0  0  0  # atno 10763 bound_to 10752
  154.6347  135.2904  155.0177 H   0  0  0  0  0  0  0  0  0  0  0  0  # atno 10764 bound_to 10752
  154.1116  135.6621  153.4938 H   0  0  0  0  0  0  0  0  0  0  0  0  # atno 10765 bound_to 10752
  141.0407  133.9840  157.2998 H   0  0  0  0  0  0  0  0  0  0  0  0  # atno 11005 bound_to 11000
  146.3520  140.0209  142.8658 LP  0  0  0  0  0  0  0  0  0  0  0  0  # atno 17320 bound_to 7965
  145.1488  140.9612  143.4445 LP  0  0  0  0  0  0  0  0  0  0  0  0  # atno 17321 bound_to 7965
  139.4865  144.6274  151.7137 LP  0  0  0  0  0  0  0  0  0  0  0  0  # atno 17342 bound_to 10162
  140.5441  144.0531  150.6100 LP  0  0  0  0  0  0  0  0  0  0  0  0  # atno 17343 bound_to 10162
  157.7104  130.9433  150.1069 LP  0  0  0  0  0  0  0  0  0  0  0  0  # atno 17370 bound_to 10713
  156.1997  130.3659  149.8803 LP  0  0  0  0  0  0  0  0  0  0  0  0  # atno 17371 bound_to 10713
  139.9274  135.0201  156.8282 LP  0  0  0  0  0  0  0  0  0  0  0  0  # atno 17394 bound_to 11000
  140.6239  133.9968  155.7631 LP  0  0  0  0  0  0  0  0  0  0  0  0  # atno 17395 bound_to 11000

$$$$
