AV-unprocessed.smi:1254|AV-procd|sdf|5274|dock1
  -GOLD-   22720 4393D 1   1.00000     0.00000
 Structure written by MMmdl.
 45 46  0  0  0  0  0  0  0  0  1 V2000
  144.3729  131.5057  150.8056 C   0  0  0  0  0  0  0  0  0  0  0  0
  145.5409  131.9797  151.6011 C   0  0  0  0  0  0  0  0  0  0  0  0
  146.1008  133.2124  151.7870 C   0  0  0  0  0  0  0  0  0  0  0  0
  147.1821  132.9430  152.6676 C   0  0  0  0  0  0  0  0  0  0  0  0
  148.0315  133.9860  153.1165 N   0  0  0  0  0  0  0  0  0  0  0  0
  148.6809  134.0658  154.2903 C   0  0  0  0  0  0  0  0  0  0  0  0
  148.6453  133.2161  155.1809 O   0  0  0  0  0  0  0  0  0  0  0  0
  149.3810  135.2053  154.3824 N   0  0  0  0  0  0  0  0  0  0  0  0
  150.1624  135.6157  155.5440 C   0  0  0  0  0  0  0  0  0  0  0  0
  150.6661  137.0624  155.4050 C   0  0  1  0  0  0  0  0  0  0  0  0
  150.9172  137.7215  156.7750 C   0  0  0  0  0  0  0  0  0  0  0  0
  151.4531  139.0724  156.6442 N   0  0  0  0  0  0  0  0  0  0  0  0
  151.6654  139.6804  157.9587 C   0  0  0  0  0  0  0  0  0  0  0  0
  152.1788  141.1366  157.9507 C   0  0  0  0  0  0  0  0  0  0  0  0
  152.5210  141.5917  159.3770 C   0  0  0  0  0  0  0  0  0  0  0  0
  151.1618  142.0952  157.3099 C   0  0  0  0  0  0  0  0  0  0  0  0
  152.6721  139.0228  155.8400 C   0  0  0  0  0  0  0  0  0  0  0  0
  152.4331  138.3497  154.4779 C   0  0  0  0  0  0  0  0  0  0  0  0
  151.8919  137.0484  154.6767 O   0  0  0  0  0  0  0  0  0  0  0  0
  147.2755  131.6614  152.9880 N   0  0  0  0  0  0  0  0  0  0  0  0
  146.2234  131.0376  152.3070 O   0  0  0  0  0  0  0  0  0  0  0  0
  144.0800  132.2488  150.0635 H   0  0  0  0  0  0  0  0  0  0  0  0
  143.5163  131.3180  151.4531 H   0  0  0  0  0  0  0  0  0  0  0  0
  144.6103  130.5801  150.2807 H   0  0  0  0  0  0  0  0  0  0  0  0
  145.7838  134.1534  151.3621 H   0  0  0  0  0  0  0  0  0  0  0  0
  148.1487  134.7603  152.4800 H   0  0  0  0  0  0  0  0  0  0  0  0
  149.3517  135.8489  153.6055 H   0  0  0  0  0  0  0  0  0  0  0  0
  149.5624  135.5076  156.4492 H   0  0  0  0  0  0  0  0  0  0  0  0
  151.0065  134.9336  155.6494 H   0  0  0  0  0  0  0  0  0  0  0  0
  149.9293  137.6515  154.8554 H   0  0  0  0  0  0  0  0  0  0  0  0
  149.9814  137.7511  157.3346 H   0  0  0  0  0  0  0  0  0  0  0  0
  151.6069  137.1056  157.3546 H   0  0  0  0  0  0  0  0  0  0  0  0
  150.7251  139.6648  158.5119 H   0  0  0  0  0  0  0  0  0  0  0  0
  152.3538  139.0581  158.5329 H   0  0  0  0  0  0  0  0  0  0  0  0
  153.1033  141.1909  157.3765 H   0  0  0  0  0  0  0  0  0  0  0  0
  151.6416  141.5717  160.0216 H   0  0  0  0  0  0  0  0  0  0  0  0
  152.9140  142.6088  159.3817 H   0  0  0  0  0  0  0  0  0  0  0  0
  153.2774  140.9464  159.8247 H   0  0  0  0  0  0  0  0  0  0  0  0
  150.2132  142.0840  157.8478 H   0  0  0  0  0  0  0  0  0  0  0  0
  150.9594  141.8239  156.2732 H   0  0  0  0  0  0  0  0  0  0  0  0
  151.5330  143.1203  157.3106 H   0  0  0  0  0  0  0  0  0  0  0  0
  153.0547  140.0273  155.6650 H   0  0  0  0  0  0  0  0  0  0  0  0
  153.4495  138.4796  156.3791 H   0  0  0  0  0  0  0  0  0  0  0  0
  151.7526  138.9445  153.8666 H   0  0  0  0  0  0  0  0  0  0  0  0
  153.3696  138.2661  153.9264 H   0  0  0  0  0  0  0  0  0  0  0  0
  1  2  1  0  0  0  0
  1 22  1  0  0  0  0
  1 23  1  0  0  0  0
  1 24  1  0  0  0  0
  2 21  1  0  0  0  0
  2  3  2  0  0  0  0
  3  4  1  0  0  0  0
  3 25  1  0  0  0  0
  4  5  1  0  0  0  0
  4 20  2  0  0  0  0
  5  6  1  0  0  0  0
  5 26  1  0  0  0  0
  6  7  2  0  0  0  0
  6  8  1  0  0  0  0
  8  9  1  0  0  0  0
  8 27  1  0  0  0  0
  9 10  1  0  0  0  0
  9 28  1  0  0  0  0
  9 29  1  0  0  0  0
 10 19  1  0  0  0  0
 10 11  1  0  0  0  0
 10 30  1  0  0  0  0
 11 12  1  0  0  0  0
 11 31  1  0  0  0  0
 11 32  1  0  0  0  0
 12 13  1  0  0  0  0
 12 17  1  0  0  0  0
 13 14  1  0  0  0  0
 13 33  1  0  0  0  0
 13 34  1  0  0  0  0
 14 15  1  0  0  0  0
 14 16  1  0  0  0  0
 14 35  1  0  0  0  0
 15 36  1  0  0  0  0
 15 37  1  0  0  0  0
 15 38  1  0  0  0  0
 16 39  1  0  0  0  0
 16 40  1  0  0  0  0
 16 41  1  0  0  0  0
 17 18  1  0  0  0  0
 17 42  1  0  0  0  0
 17 43  1  0  0  0  0
 18 19  1  0  0  0  0
 18 44  1  0  0  0  0
 18 45  1  0  0  0  0
 20 21  1  0  0  0  0
M  END
> <s_m_source_file>
AV-unprocessed.smi

> <i_m_source_file_index>
1254

> <i_lp_mmshare_version>
43012

> <i_f3d_flags>
0

> <s_epik_input>
W0NIM11jMVtjSF1jKG5vMSlbTkhdQyg9TylbTkhdW0NIMl1bQ0BASF0yW0NIMl1OKFtDSDJdW0NIMl1PMilbQ0gyXVtDSF0oW0NIM10pW0NIM10=

> <s_epik_cmdline>
J2VwaWtfcHl0aG9uJywgJy1waCcsICc3LjAnLCAnLXRuJywgJzgnLCAnLW1hJywgJzIwMCcsICctbWV0YWxfYmluZGluZycsICctaW1hZScsICc8aW5maWxlLm1hZT4nLCAnLW9tYWUnLCAnPG91dGZpbGUubWFlPic=

> <r_epik_Ionization_Penalty>
1.11086

> <r_epik_Ionization_Penalty_Charging>
0

> <r_epik_Ionization_Penalty_Neutral>
1.11086

> <r_epik_State_Penalty>
1.16881

> <r_epik_Charging_Adjusted_Penalty>
1.16881

> <i_epik_Tot_Q>
0

> <i_epik_Tot_abs_Q>
0

> <r_epik_Metal_State_Penalty>
1.1835

> <b_epik_Metal_Only>
0

> <s_lp_Force_Field>
OPLS_2005

> <r_lp_Energy>
20.9556

> <b_lp_Chiralities_Consistent>
1

> <s_lp_Variant>
AV-unprocessed.smi:1254-6

> <Gold.Version>
5.8.1

> <Gold.Id.Protein>
6NUR|6NUR_protein|mol2

> <Gold.PLP.Fitness>
41.1813

> <Gold.PLP.PLP>
-33.1837

> <Gold.PLP.part.hbond>
-3.0000

> <Gold.PLP.part.metal>
0.0000

> <Gold.PLP.part.buried>
-4.7681

> <Gold.PLP.part.nonpolar>
-25.3403

> <Gold.PLP.part.repulsive>
0.4362

> <Gold.PLP.ligand.clash>
0.0000

> <Gold.PLP.ligand.torsion>
0.5343

> <Gold.PLP.Chemscore.Hbond>
3.0000

> <Gold.PLP.Chemscore.CHOScore>
0.0000

> <Gold.PLP.Chemscore.Metal>
0.0000

> <Gold.Chemscore.Hbonds>
donor molecule, donor type, donor heavy atom, donor atom, acceptor molecule, acceptor atom, score
      L1  H     5    26       P1  7948  1.00
      L1  H     8    27       P1  7948  1.00
      P1  H 10752 10765       L1    19  1.00

> <Gold.PLP.Chemscore.Internal.Correction>
0.0663

> <Gold.Rescore>
     Score         DG    S(hbond)    S(metal)    S(lipo)     H(rot)  DE(clash)    DE(int)     intcor
     17.38     -18.83       2.60        0.00      76.83       1.69       0.06       1.39       ----

> <Gold.Chemscore.Fitness>
17.3817

> <Gold.Chemscore.DG>
-18.8304

> <Gold.Chemscore.ZeroCoef>
-5.4800

> <Gold.Chemscore.Hbond>
2.6011

> <Gold.Chemscore.Metal>
0.0000

> <Gold.Chemscore.Lipo>
76.8308

> <Gold.Chemscore.Internal_Hbond>
0.0000

> <Gold.Chemscore.DEClash>
0.0553

> <Gold.Chemscore.DEInternal>
1.3934

> <Gold.Chemscore.Rot>
1.6900

> <Gold.Chemscore.Internal.Correction>
   9.000000E+99

> <Gold.Chemscore.Hbonds>
donor molecule, donor type, donor heavy atom, donor atom, acceptor molecule, acceptor atom, score
      L1  H     5    26       P1  7948  0.49
      L1  H     8    27       P1  7948  0.53
      P1  H 10752 10765       L1    19  0.92

> <Gold.Chemscore.Hbond.Weighted>
-8.6877

> <Gold.Chemscore.Metal.Weighted>
-0.0000

> <Gold.Chemscore.Lipo.Weighted>
-8.9892

> <Gold.Chemscore.Internal_Hbond.Weighted>
0.0000

> <Gold.Chemscore.DEClash.Weighted>
0.0553

> <Gold.Chemscore.DEInternal.Weighted>
1.3934

> <Gold.Chemscore.Rot.Weighted>
4.3265

> <Gold.Chemscore.Internal.Correction.Weighted>
   9.000000E+99

> <Gold.Protein.RotatedTorsions>
[ 6907 6896 6895 6894 ] final -136.38 input  -60.11 | X-H torsion
[ 7974 7965 7964 7962 ] final  -68.90 input  175.53 | X-H torsion
[ 8008 7997 7996 7995 ] final  -66.81 input   59.86 | X-H torsion
[ 10167 10162 10161 10158 ] final -146.61 input  -65.29 | X-H torsion
[ 10718 10713 10712 10709 ] final   90.23 input   66.30 | X-H torsion
[ 10763 10752 10751 10750 ] final  169.59 input  -60.55 | X-H torsion
[ 11005 11000 10999 10996 ] final   57.69 input  -57.11 | X-H torsion

> <Gold.Protein.ActiveResidues>
 VAL166  LYS551  ARG553  GLY616  TRP617  ASP618  TYR619  PRO620  LYS621  CYS622 
 ASP623  PHE694  ASN695  SER759  ASP760  ASP761  ALA762  ILE779  LEU786  VAL792 
 PHE793  MET794  SER795  GLU796  ALA797  LYS798  CYS799  TRP800  GLU811  SER814 

> <Gold.Protein.RotatedAtoms>
  151.0094  133.5980  159.2684 H   0  0  0  0  0  0  0  0  0  0  0  0  # atno 6907 bound_to 6896
  151.3137  135.0800  159.9291 H   0  0  0  0  0  0  0  0  0  0  0  0  # atno 6908 bound_to 6896
  152.5295  133.9754  159.7836 H   0  0  0  0  0  0  0  0  0  0  0  0  # atno 6909 bound_to 6896
  145.7106  140.9080  143.0682 H   0  0  0  0  0  0  0  0  0  0  0  0  # atno 7974 bound_to 7965
  154.4758  140.0905  156.7259 H   0  0  0  0  0  0  0  0  0  0  0  0  # atno 8008 bound_to 7997
  155.4600  140.3460  155.4293 H   0  0  0  0  0  0  0  0  0  0  0  0  # atno 8009 bound_to 7997
  156.1114  140.1449  156.9321 H   0  0  0  0  0  0  0  0  0  0  0  0  # atno 8010 bound_to 7997
  139.7698  143.8255  152.2622 H   0  0  0  0  0  0  0  0  0  0  0  0  # atno 10167 bound_to 10162
  157.6958  131.0363  150.3546 H   0  0  0  0  0  0  0  0  0  0  0  0  # atno 10718 bound_to 10713
  154.3853  135.2753  155.2187 H   0  0  0  0  0  0  0  0  0  0  0  0  # atno 10763 bound_to 10752
  154.4276  135.5985  153.6052 H   0  0  0  0  0  0  0  0  0  0  0  0  # atno 10764 bound_to 10752
  152.9833  135.5988  154.4101 H   0  0  0  0  0  0  0  0  0  0  0  0  # atno 10765 bound_to 10752
  140.0433  134.5841  155.9354 H   0  0  0  0  0  0  0  0  0  0  0  0  # atno 11005 bound_to 11000
  144.6943  139.9069  143.7461 LP  0  0  0  0  0  0  0  0  0  0  0  0  # atno 17320 bound_to 7965
  146.0716  139.3705  143.0519 LP  0  0  0  0  0  0  0  0  0  0  0  0  # atno 17321 bound_to 7965
  139.8285  144.7264  150.9480 LP  0  0  0  0  0  0  0  0  0  0  0  0  # atno 17342 bound_to 10162
  140.7813  143.4092  151.1021 LP  0  0  0  0  0  0  0  0  0  0  0  0  # atno 17343 bound_to 10162
  156.3990  130.3912  149.6974 LP  0  0  0  0  0  0  0  0  0  0  0  0  # atno 17370 bound_to 10713
  156.4297  130.7809  151.2829 LP  0  0  0  0  0  0  0  0  0  0  0  0  # atno 17371 bound_to 10713
  141.1894  133.6565  156.5367 LP  0  0  0  0  0  0  0  0  0  0  0  0  # atno 17394 bound_to 11000
  140.4033  134.7337  157.4793 LP  0  0  0  0  0  0  0  0  0  0  0  0  # atno 17395 bound_to 11000

$$$$
