AV-unprocessed.smi:195|AV-procd|sdf|1525|dock2
  -GOLD-   2262019373D 1   1.00000     0.00000
 Structure written by MMmdl.
 45 48  0  0  0  0  0  0  0  0  1 V2000
  151.8330  137.2520  155.6643 N   0  0  0  0  0  0  0  0  0  0  0  0
  151.2573  138.0168  155.0143 C   0  0  0  0  0  0  0  0  0  0  0  0
  150.5245  138.9897  154.1880 C   0  0  0  0  0  0  0  0  0  0  0  0
  150.0053  140.1920  154.9816 C   0  0  0  0  0  0  0  0  0  0  0  0
  149.3985  141.0096  154.0025 O   0  0  0  0  0  0  0  0  0  0  0  0
  149.1393  139.9095  156.2125 C   0  0  0  0  0  0  0  0  0  0  0  0
  150.2090  140.4359  157.0537 N   0  0  0  0  0  0  0  0  0  0  0  0
  150.8453  139.4464  157.8563 C   0  0  0  0  0  0  0  0  0  0  0  0
  150.5499  138.1241  157.7298 N   0  0  0  0  0  0  0  0  0  0  0  0
  151.1544  137.2088  158.4933 C   0  0  0  0  0  0  0  0  0  0  0  0
  152.0785  137.3905  159.4374 N   0  0  0  0  0  0  0  0  0  0  0  0
  152.3844  138.7116  159.5738 C   0  0  0  0  0  0  0  0  0  0  0  0
  151.8178  139.7884  158.8347 C   0  0  0  0  0  0  0  0  0  0  0  0
  152.3700  140.9925  159.2538 N   0  0  0  0  0  0  0  0  0  0  0  0
  153.2187  140.6476  160.1838 C   0  0  0  0  0  0  0  0  0  0  0  0
  153.2906  139.2973  160.4398 N   0  0  0  0  0  0  0  0  0  0  0  0
  154.1475  138.6452  161.4148 C   0  0  0  0  0  0  0  0  0  0  0  0
  153.9153  137.1233  161.4799 C   0  0  1  0  0  0  0  0  0  0  0  0
  154.7736  136.4799  160.5573 O   0  0  0  0  0  0  0  0  0  0  0  0
  154.1824  136.5561  162.8859 C   0  0  2  0  0  0  0  0  0  0  0  0
  154.0176  135.0386  163.0026 C   0  0  0  0  0  0  0  0  0  0  0  0
  153.6375  134.8220  164.4601 C   0  0  0  0  0  0  0  0  0  0  0  0
  153.3192  136.2269  164.9767 C   0  0  0  0  0  0  0  0  0  0  0  0
  153.2121  137.0271  163.8088 O   0  0  0  0  0  0  0  0  0  0  0  0
  150.9806  140.9202  155.9125 C   0  0  0  0  0  0  0  0  0  0  0  0
  151.1850  139.3063  153.3798 H   0  0  0  0  0  0  0  0  0  0  0  0
  149.7076  138.4484  153.7138 H   0  0  0  0  0  0  0  0  0  0  0  0
  149.2932  141.8673  154.3856 H   0  0  0  0  0  0  0  0  0  0  0  0
  148.2416  140.5266  156.2659 H   0  0  0  0  0  0  0  0  0  0  0  0
  148.9139  138.8535  156.3704 H   0  0  0  0  0  0  0  0  0  0  0  0
  150.8541  136.1853  158.3230 H   0  0  0  0  0  0  0  0  0  0  0  0
  153.8194  141.3728  160.7136 H   0  0  0  0  0  0  0  0  0  0  0  0
  155.1885  138.8635  161.1725 H   0  0  0  0  0  0  0  0  0  0  0  0
  153.9547  139.0985  162.3877 H   0  0  0  0  0  0  0  0  0  0  0  0
  152.8864  136.9039  161.1914 H   0  0  0  0  0  0  0  0  0  0  0  0
  155.6556  136.5158  160.8942 H   0  0  0  0  0  0  0  0  0  0  0  0
  155.1739  136.8513  163.2363 H   0  0  0  0  0  0  0  0  0  0  0  0
  153.2054  134.6948  162.3608 H   0  0  0  0  0  0  0  0  0  0  0  0
  154.9205  134.4985  162.7163 H   0  0  0  0  0  0  0  0  0  0  0  0
  152.7719  134.1632  164.5371 H   0  0  0  0  0  0  0  0  0  0  0  0
  154.4526  134.3746  165.0299 H   0  0  0  0  0  0  0  0  0  0  0  0
  152.4023  136.2612  165.5656 H   0  0  0  0  0  0  0  0  0  0  0  0
  154.1359  136.6026  165.5948 H   0  0  0  0  0  0  0  0  0  0  0  0
  152.0112  140.5661  155.8644 H   0  0  0  0  0  0  0  0  0  0  0  0
  150.9295  142.0062  155.8267 H   0  0  0  0  0  0  0  0  0  0  0  0
  1  2  3  0  0  0  0
  2  3  1  0  0  0  0
  3  4  1  0  0  0  0
  3 26  1  0  0  0  0
  3 27  1  0  0  0  0
  4 25  1  0  0  0  0
  4  5  1  0  0  0  0
  4  6  1  0  0  0  0
  5 28  1  0  0  0  0
  6  7  1  0  0  0  0
  6 29  1  0  0  0  0
  6 30  1  0  0  0  0
  7  8  1  0  0  0  0
  7 25  1  0  0  0  0
  8 13  1  0  0  0  0
  8  9  2  0  0  0  0
  9 10  1  0  0  0  0
 10 11  2  0  0  0  0
 10 31  1  0  0  0  0
 11 12  1  0  0  0  0
 12 16  1  0  0  0  0
 12 13  2  0  0  0  0
 13 14  1  0  0  0  0
 14 15  2  0  0  0  0
 15 16  1  0  0  0  0
 15 32  1  0  0  0  0
 16 17  1  0  0  0  0
 17 18  1  0  0  0  0
 17 33  1  0  0  0  0
 17 34  1  0  0  0  0
 18 19  1  0  0  0  0
 18 20  1  0  0  0  0
 18 35  1  0  0  0  0
 19 36  1  0  0  0  0
 20 24  1  0  0  0  0
 20 21  1  0  0  0  0
 20 37  1  0  0  0  0
 21 22  1  0  0  0  0
 21 38  1  0  0  0  0
 21 39  1  0  0  0  0
 22 23  1  0  0  0  0
 22 40  1  0  0  0  0
 22 41  1  0  0  0  0
 23 24  1  0  0  0  0
 23 42  1  0  0  0  0
 23 43  1  0  0  0  0
 25 44  1  0  0  0  0
 25 45  1  0  0  0  0
M  END
> <s_m_source_file>
AV-unprocessed.smi

> <i_m_source_file_index>
195

> <i_lp_mmshare_version>
43012

> <i_f3d_flags>
0

> <s_epik_input>
TiNDW0NIMl1DMShbT0hdKVtDSDJdTihbQ0gyXTEpYyhuW2NIXW4yKWMoYzIzKW5bY0hdbjNbQ0gyXVtDQEhdKFtPSF0pW0NAQEhdNFtDSDJdW0NIMl1bQ0gyXU80

> <s_epik_cmdline>
J2VwaWtfcHl0aG9uJywgJy1waCcsICc3LjAnLCAnLXRuJywgJzgnLCAnLW1hJywgJzIwMCcsICctbWV0YWxfYmluZGluZycsICctaW1hZScsICc8aW5maWxlLm1hZT4nLCAnLW9tYWUnLCAnPG91dGZpbGUubWFlPic=

> <r_lp_tautomer_probability>
1

> <r_epik_Ionization_Penalty>
0.00307146

> <r_epik_Ionization_Penalty_Charging>
0

> <r_epik_Ionization_Penalty_Neutral>
0.00307146

> <r_epik_State_Penalty>
0.0020279

> <r_epik_Charging_Adjusted_Penalty>
0.0020279

> <i_epik_Tot_Q>
0

> <i_epik_Tot_abs_Q>
0

> <r_epik_Metal_State_Penalty>
-0

> <b_epik_Metal_Only>
0

> <s_lp_Force_Field>
OPLS_2005

> <r_lp_Energy>
44.0633

> <b_lp_Chiralities_Consistent>
1

> <s_lp_Variant>
AV-unprocessed.smi:195-2

> <Gold.Version>
5.8.1

> <Gold.Id.Protein>
6NUR|6NUR_protein|mol2

> <Gold.PLP.Fitness>
40.3015

> <Gold.PLP.PLP>
-38.6589

> <Gold.PLP.part.hbond>
-3.5785

> <Gold.PLP.part.metal>
0.0000

> <Gold.PLP.part.buried>
-3.2011

> <Gold.PLP.part.nonpolar>
-31.5509

> <Gold.PLP.part.repulsive>
0.0782

> <Gold.PLP.ligand.clash>
0.0000

> <Gold.PLP.ligand.torsion>
0.7832

> <Gold.PLP.Chemscore.Hbond>
0.9723

> <Gold.PLP.Chemscore.CHOScore>
0.0000

> <Gold.PLP.Chemscore.Metal>
0.0000

> <Gold.Chemscore.Hbonds>
donor molecule, donor type, donor heavy atom, donor atom, acceptor molecule, acceptor atom, score
      P1  H  6896  6908       L1    11  0.07
      P1  H 10752 10765       L1     1  0.50

> <Gold.PLP.Chemscore.Internal.Correction>
0.2920

> <Gold.Rescore>
     Score         DG    S(hbond)    S(metal)    S(lipo)     H(rot)  DE(clash)    DE(int)     intcor
      2.59      -7.38       0.87        0.00      72.92       3.72       0.04       4.75       ----

> <Gold.Chemscore.Fitness>
2.5851

> <Gold.Chemscore.DG>
-7.3756

> <Gold.Chemscore.ZeroCoef>
-5.4800

> <Gold.Chemscore.Hbond>
0.8650

> <Gold.Chemscore.Metal>
0.0000

> <Gold.Chemscore.Lipo>
72.9246

> <Gold.Chemscore.Internal_Hbond>
0.0000

> <Gold.Chemscore.DEClash>
0.0421

> <Gold.Chemscore.DEInternal>
4.7484

> <Gold.Chemscore.Rot>
3.7210

> <Gold.Chemscore.Internal.Correction>
   9.000000E+99

> <Gold.Chemscore.Hbonds>
donor molecule, donor type, donor heavy atom, donor atom, acceptor molecule, acceptor atom, score
      P1  H 10752 10765       L1     1  0.46

> <Gold.Chemscore.Hbond.Weighted>
-2.8891

> <Gold.Chemscore.Metal.Weighted>
-0.0000

> <Gold.Chemscore.Lipo.Weighted>
-8.5322

> <Gold.Chemscore.Internal_Hbond.Weighted>
0.0000

> <Gold.Chemscore.DEClash.Weighted>
0.0421

> <Gold.Chemscore.DEInternal.Weighted>
4.7484

> <Gold.Chemscore.Rot.Weighted>
9.5256

> <Gold.Chemscore.Internal.Correction.Weighted>
   9.000000E+99

> <Gold.Protein.RotatedTorsions>
[ 6907 6896 6895 6894 ] final  -98.79 input  -60.11 | X-H torsion
[ 7974 7965 7964 7962 ] final   69.36 input  175.53 | X-H torsion
[ 8008 7997 7996 7995 ] final   92.09 input   59.86 | X-H torsion
[ 10167 10162 10161 10158 ] final   91.45 input  -65.29 | X-H torsion
[ 10718 10713 10712 10709 ] final  -44.13 input   66.30 | X-H torsion
[ 10763 10752 10751 10750 ] final -171.39 input  -60.55 | X-H torsion
[ 11005 11000 10999 10996 ] final  -48.84 input  -57.11 | X-H torsion

> <Gold.Protein.ActiveResidues>
 VAL166  LYS551  ARG553  GLY616  TRP617  ASP618  TYR619  PRO620  LYS621  CYS622 
 ASP623  PHE694  ASN695  SER759  ASP760  ASP761  ALA762  ILE779  LEU786  VAL792 
 PHE793  MET794  SER795  GLU796  ALA797  LYS798  CYS799  TRP800  GLU811  SER814 

> <Gold.Protein.RotatedAtoms>
  150.7058  134.1141  159.4010 H   0  0  0  0  0  0  0  0  0  0  0  0  # atno 6907 bound_to 6896
  151.9127  135.0329  160.0525 H   0  0  0  0  0  0  0  0  0  0  0  0  # atno 6908 bound_to 6896
  152.2322  133.5032  159.5259 H   0  0  0  0  0  0  0  0  0  0  0  0  # atno 6909 bound_to 6896
  145.7914  139.2936  143.1208 H   0  0  0  0  0  0  0  0  0  0  0  0  # atno 7974 bound_to 7965
  156.0314  140.3329  155.7143 H   0  0  0  0  0  0  0  0  0  0  0  0  # atno 8008 bound_to 7997
  155.5880  140.0643  157.2784 H   0  0  0  0  0  0  0  0  0  0  0  0  # atno 8009 bound_to 7997
  154.4354  140.1832  156.1033 H   0  0  0  0  0  0  0  0  0  0  0  0  # atno 8010 bound_to 7997
  139.8373  144.6658  150.9326 H   0  0  0  0  0  0  0  0  0  0  0  0  # atno 10167 bound_to 10162
  156.2418  130.4180  149.8752 H   0  0  0  0  0  0  0  0  0  0  0  0  # atno 10718 bound_to 10713
  154.6310  135.2886  155.0216 H   0  0  0  0  0  0  0  0  0  0  0  0  # atno 10763 bound_to 10752
  154.1376  135.6523  153.4939 H   0  0  0  0  0  0  0  0  0  0  0  0  # atno 10764 bound_to 10752
  153.0280  135.5325  154.7138 H   0  0  0  0  0  0  0  0  0  0  0  0  # atno 10765 bound_to 10752
  141.0724  133.6675  156.3499 H   0  0  0  0  0  0  0  0  0  0  0  0  # atno 11005 bound_to 11000
  145.9973  140.8551  143.0036 LP  0  0  0  0  0  0  0  0  0  0  0  0  # atno 17320 bound_to 7965
  144.6781  140.2301  143.7356 LP  0  0  0  0  0  0  0  0  0  0  0  0  # atno 17321 bound_to 7965
  140.7801  143.3945  151.1253 LP  0  0  0  0  0  0  0  0  0  0  0  0  # atno 17342 bound_to 10162
  139.7594  143.8658  152.3096 LP  0  0  0  0  0  0  0  0  0  0  0  0  # atno 17343 bound_to 10162
  156.6331  130.8674  151.3499 LP  0  0  0  0  0  0  0  0  0  0  0  0  # atno 17370 bound_to 10713
  157.7178  130.9519  150.1322 LP  0  0  0  0  0  0  0  0  0  0  0  0  # atno 17371 bound_to 10713
  140.5645  134.5901  157.5442 LP  0  0  0  0  0  0  0  0  0  0  0  0  # atno 17394 bound_to 11000
  139.9537  134.7572  156.0390 LP  0  0  0  0  0  0  0  0  0  0  0  0  # atno 17395 bound_to 11000

$$$$
