AV-unprocessed.smi:67|AV-procd|sdf|632|dock1
  -GOLD-   2262016523D 1   1.00000     0.00000
 Structure written by MMmdl.
 49 51  0  0  0  0  0  0  0  0  3 V2000
  147.5790  138.5127  152.8040 O   0  0  0  0  0  0  0  0  0  0  0  0
  146.9606  137.9360  153.9406 C   0  0  2  0  0  0  0  0  0  0  0  0
  148.0210  137.7163  155.0436 C   0  0  0  0  0  0  0  0  0  0  0  0
  149.1628  138.6633  154.9276 N   0  3  2  0  0  0  0  0  0  0  0  0
  150.4843  137.9853  154.9447 C   0  0  0  0  0  0  0  0  0  0  0  0
  151.6253  138.9816  154.6737 C   0  0  0  0  0  0  0  0  0  0  0  0
  151.6079  140.1549  155.6660 C   0  0  2  0  0  0  0  0  0  0  0  0
  151.9290  139.6344  156.9547 O   0  0  0  0  0  0  0  0  0  0  0  0
  152.2798  140.4907  157.9787 C   0  0  0  0  0  0  0  0  0  0  0  0
  153.0285  139.9356  159.0361 C   0  0  0  0  0  0  0  0  0  0  0  0
  153.4366  140.7286  160.1246 C   0  0  0  0  0  0  0  0  0  0  0  0
  153.0980  142.0932  160.1684 C   0  0  0  0  0  0  0  0  0  0  0  0
  152.3484  142.6698  159.1210 C   0  0  0  0  0  0  0  0  0  0  0  0
  151.9705  144.1434  159.1426 C   0  0  0  0  0  0  0  0  0  0  0  0
  150.6551  144.2719  158.9682 F   0  0  0  0  0  0  0  0  0  0  0  0
  152.3011  144.7267  160.2952 F   0  0  0  0  0  0  0  0  0  0  0  0
  152.5985  144.7741  158.1507 F   0  0  0  0  0  0  0  0  0  0  0  0
  151.9471  141.8680  158.0309 C   0  0  0  0  0  0  0  0  0  0  0  0
  150.2103  140.8077  155.6566 C   0  0  0  0  0  0  0  0  0  0  0  0
  149.1023  139.7727  155.9147 C   0  0  0  0  0  0  0  0  0  0  0  0
  146.2058  136.6669  153.5311 C   0  0  0  0  0  0  0  0  0  0  0  0
  144.8946  137.1884  152.9391 C   0  0  0  0  0  0  0  0  0  0  0  0
  144.6205  138.4720  153.6130 N   0  3  0  0  0  0  0  0  0  0  0  0
  145.8198  138.8711  154.3780 C   0  0  0  0  0  0  0  0  0  0  0  0
  147.9257  137.8218  152.2592 H   0  0  0  0  0  0  0  0  0  0  0  0
  147.5670  137.7833  156.0338 H   0  0  0  0  0  0  0  0  0  0  0  0
  148.3881  136.6917  154.9656 H   0  0  0  0  0  0  0  0  0  0  0  0
  150.6306  137.4925  155.9073 H   0  0  0  0  0  0  0  0  0  0  0  0
  150.5051  137.2061  154.1817 H   0  0  0  0  0  0  0  0  0  0  0  0
  152.5871  138.4692  154.7191 H   0  0  0  0  0  0  0  0  0  0  0  0
  151.5324  139.3666  153.6572 H   0  0  0  0  0  0  0  0  0  0  0  0
  152.3697  140.8647  155.3423 H   0  0  0  0  0  0  0  0  0  0  0  0
  153.2944  138.8888  159.0126 H   0  0  0  0  0  0  0  0  0  0  0  0
  154.0112  140.2896  160.9268 H   0  0  0  0  0  0  0  0  0  0  0  0
  153.4197  142.6892  161.0093 H   0  0  0  0  0  0  0  0  0  0  0  0
  151.3787  142.3405  157.2451 H   0  0  0  0  0  0  0  0  0  0  0  0
  150.1446  141.6059  156.3952 H   0  0  0  0  0  0  0  0  0  0  0  0
  150.0411  141.2802  154.6881 H   0  0  0  0  0  0  0  0  0  0  0  0
  148.1322  140.2665  155.8614 H   0  0  0  0  0  0  0  0  0  0  0  0
  149.1944  139.3701  156.9249 H   0  0  0  0  0  0  0  0  0  0  0  0
  146.7620  136.0364  152.8359 H   0  0  0  0  0  0  0  0  0  0  0  0
  145.9852  136.0659  154.4147 H   0  0  0  0  0  0  0  0  0  0  0  0
  145.0141  137.3801  151.8719 H   0  0  0  0  0  0  0  0  0  0  0  0
  144.0703  136.4858  153.0644 H   0  0  0  0  0  0  0  0  0  0  0  0
  144.4073  139.1719  152.9162 H   0  0  0  0  0  0  0  0  0  0  0  0
  145.5915  138.7224  155.4340 H   0  0  0  0  0  0  0  0  0  0  0  0
  146.0509  139.9286  154.2419 H   0  0  0  0  0  0  0  0  0  0  0  0
  143.8369  138.3739  154.2431 H   0  0  0  0  0  0  0  0  0  0  0  0
  149.0813  139.0871  154.0142 H   0  0  0  0  0  0  0  0  0  0  0  0
  1  2  1  0  0  0  0
  1 25  1  0  0  0  0
  2 24  1  0  0  0  0
  2  3  1  0  0  0  0
  2 21  1  0  0  0  0
  3  4  1  0  0  0  0
  3 26  1  0  0  0  0
  3 27  1  0  0  0  0
  4 20  1  0  0  0  0
  4  5  1  0  0  0  0
  4 49  1  0  0  0  0
  5  6  1  0  0  0  0
  5 28  1  0  0  0  0
  5 29  1  0  0  0  0
  6  7  1  0  0  0  0
  6 30  1  0  0  0  0
  6 31  1  0  0  0  0
  7  8  1  0  0  0  0
  7 19  1  0  0  0  0
  7 32  1  0  0  0  0
  8  9  1  0  0  0  0
  9 18  1  0  0  0  0
  9 10  2  0  0  0  0
 10 11  1  0  0  0  0
 10 33  1  0  0  0  0
 11 12  2  0  0  0  0
 11 34  1  0  0  0  0
 12 13  1  0  0  0  0
 12 35  1  0  0  0  0
 13 14  1  0  0  0  0
 13 18  2  0  0  0  0
 14 15  1  0  0  0  0
 14 16  1  0  0  0  0
 14 17  1  0  0  0  0
 18 36  1  0  0  0  0
 19 20  1  0  0  0  0
 19 37  1  0  0  0  0
 19 38  1  0  0  0  0
 20 39  1  0  0  0  0
 20 40  1  0  0  0  0
 21 22  1  0  0  0  0
 21 41  1  0  0  0  0
 21 42  1  0  0  0  0
 22 23  1  0  0  0  0
 22 43  1  0  0  0  0
 22 44  1  0  0  0  0
 23 24  1  0  0  0  0
 23 45  1  0  0  0  0
 23 48  1  0  0  0  0
 24 46  1  0  0  0  0
 24 47  1  0  0  0  0
M  CHG  1   4   1
M  CHG  1  23   1
M  END
> <s_m_source_file>
AV-unprocessed.smi

> <i_m_source_file_index>
67

> <i_lp_mmshare_version>
43012

> <i_f3d_flags>
0

> <s_epik_input>
W0NIMl0xW05IXVtDSDJdW0NIMl1bQ0BAXTEoW09IXSlbQ0gyXU4yW0NIMl1bQ0gyXVtDSF0oW0NIMl1bQ0gyXTIpT2MzW2NIXVtjSF1bY0hdYyhDKEYpKEYpRilbY0hdMw==

> <s_epik_cmdline>
J2VwaWtfcHl0aG9uJywgJy1waCcsICc3LjAnLCAnLXRuJywgJzgnLCAnLW1hJywgJzIwMCcsICctbWV0YWxfYmluZGluZycsICctaW1hZScsICc8aW5maWxlLm1hZT4nLCAnLW9tYWUnLCAnPG91dGZpbGUubWFlPic=

> <r_lp_tautomer_probability>
1

> <r_epik_Ionization_Penalty>
0.0989853

> <r_epik_Ionization_Penalty_Charging>
0.0989662

> <r_epik_Ionization_Penalty_Neutral>
1.91014e-05

> <r_epik_State_Penalty>
0.0852826

> <r_epik_Charging_Adjusted_Penalty>
0.184249

> <i_epik_Tot_Q>
2

> <i_epik_Tot_abs_Q>
2

> <r_epik_Metal_State_Penalty>
0.0849414

> <b_epik_Metal_Only>
0

> <s_lp_Force_Field>
OPLS_2005

> <r_lp_Energy>
57.0803

> <b_lp_Chiralities_Consistent>
1

> <s_lp_Variant>
AV-unprocessed.smi:67-4

> <Gold.Version>
5.8.1

> <Gold.Id.Protein>
6NUR|6NUR_protein|mol2

> <Gold.PLP.Fitness>
53.7567

> <Gold.PLP.PLP>
-47.8726

> <Gold.PLP.part.hbond>
-2.8246

> <Gold.PLP.part.metal>
0.0000

> <Gold.PLP.part.buried>
-5.3812

> <Gold.PLP.part.nonpolar>
-39.9143

> <Gold.PLP.part.repulsive>
0.0195

> <Gold.PLP.ligand.clash>
0.0000

> <Gold.PLP.ligand.torsion>
1.8479

> <Gold.PLP.Chemscore.Hbond>
3.0000

> <Gold.PLP.Chemscore.CHOScore>
0.0000

> <Gold.PLP.Chemscore.Metal>
0.0000

> <Gold.Chemscore.Hbonds>
donor molecule, donor type, donor heavy atom, donor atom, acceptor molecule, acceptor atom, score
      L1  H     1    25       P1  7948  1.00
      L1  H    23    45       P1 10175  2.00

> <Gold.PLP.Chemscore.Internal.Correction>
0.5799

> <Gold.Rescore>
     Score         DG    S(hbond)    S(metal)    S(lipo)     H(rot)  DE(clash)    DE(int)     intcor
     17.03     -18.83       1.98        0.00     106.48       2.24       0.08       1.73       ----

> <Gold.Chemscore.Fitness>
17.0279

> <Gold.Chemscore.DG>
-18.8320

> <Gold.Chemscore.ZeroCoef>
-5.4800

> <Gold.Chemscore.Hbond>
1.9807

> <Gold.Chemscore.Metal>
0.0000

> <Gold.Chemscore.Lipo>
106.4845

> <Gold.Chemscore.Internal_Hbond>
0.0000

> <Gold.Chemscore.DEClash>
0.0752

> <Gold.Chemscore.DEInternal>
1.7289

> <Gold.Chemscore.Rot>
2.2352

> <Gold.Chemscore.Internal.Correction>
   9.000000E+99

> <Gold.Chemscore.Hbonds>
donor molecule, donor type, donor heavy atom, donor atom, acceptor molecule, acceptor atom, score
      L1  H     1    25       P1  7948  0.99
      L1  H    23    45       P1 10175  0.90

> <Gold.Chemscore.Hbond.Weighted>
-6.6155

> <Gold.Chemscore.Metal.Weighted>
-0.0000

> <Gold.Chemscore.Lipo.Weighted>
-12.4587

> <Gold.Chemscore.Internal_Hbond.Weighted>
0.0000

> <Gold.Chemscore.DEClash.Weighted>
0.0752

> <Gold.Chemscore.DEInternal.Weighted>
1.7289

> <Gold.Chemscore.Rot.Weighted>
5.7221

> <Gold.Chemscore.Internal.Correction.Weighted>
   9.000000E+99

> <Gold.Protein.RotatedTorsions>
[ 6907 6896 6895 6894 ] final   64.46 input  -60.11 | X-H torsion
[ 7974 7965 7964 7962 ] final  -84.71 input  175.53 | X-H torsion
[ 8008 7997 7996 7995 ] final  -92.35 input   59.86 | X-H torsion
[ 10167 10162 10161 10158 ] final -111.49 input  -65.29 | X-H torsion
[ 10718 10713 10712 10709 ] final  -28.17 input   66.30 | X-H torsion
[ 10763 10752 10751 10750 ] final   34.76 input  -60.55 | X-H torsion
[ 11005 11000 10999 10996 ] final -154.44 input  -57.11 | X-H torsion

> <Gold.Protein.ActiveResidues>
 VAL166  LYS551  ARG553  GLY616  TRP617  ASP618  TYR619  PRO620  LYS621  CYS622 
 ASP623  PHE694  ASN695  SER759  ASP760  ASP761  ALA762  ILE779  LEU786  VAL792 
 PHE793  MET794  SER795  GLU796  ALA797  LYS798  CYS799  TRP800  GLU811  SER814 

> <Gold.Protein.RotatedAtoms>
  152.4333  134.5736  159.9927 H   0  0  0  0  0  0  0  0  0  0  0  0  # atno 6907 bound_to 6896
  151.5853  133.3367  159.3024 H   0  0  0  0  0  0  0  0  0  0  0  0  # atno 6908 bound_to 6896
  150.8228  134.7479  159.6851 H   0  0  0  0  0  0  0  0  0  0  0  0  # atno 6909 bound_to 6896
  145.5029  140.9546  143.1749 H   0  0  0  0  0  0  0  0  0  0  0  0  # atno 7974 bound_to 7965
  154.7220  140.0510  157.0648 H   0  0  0  0  0  0  0  0  0  0  0  0  # atno 8008 bound_to 7997
  155.0414  140.3169  155.4704 H   0  0  0  0  0  0  0  0  0  0  0  0  # atno 8009 bound_to 7997
  156.2819  140.2132  156.5538 H   0  0  0  0  0  0  0  0  0  0  0  0  # atno 8010 bound_to 7997
  140.1330  143.4344  152.1614 H   0  0  0  0  0  0  0  0  0  0  0  0  # atno 10167 bound_to 10162
  156.4287  130.4441  149.7132 H   0  0  0  0  0  0  0  0  0  0  0  0  # atno 10718 bound_to 10713
  153.0149  135.6352  154.1719 H   0  0  0  0  0  0  0  0  0  0  0  0  # atno 10763 bound_to 10752
  154.1459  135.2832  155.3150 H   0  0  0  0  0  0  0  0  0  0  0  0  # atno 10764 bound_to 10752
  154.6090  135.5563  153.7514 H   0  0  0  0  0  0  0  0  0  0  0  0  # atno 10765 bound_to 10752
  140.6973  134.3976  157.5213 H   0  0  0  0  0  0  0  0  0  0  0  0  # atno 11005 bound_to 11000
  144.7770  139.6609  143.7171 LP  0  0  0  0  0  0  0  0  0  0  0  0  # atno 17320 bound_to 7965
  146.2214  139.5643  142.9616 LP  0  0  0  0  0  0  0  0  0  0  0  0  # atno 17321 bound_to 7965
  139.5510  144.7337  151.4436 LP  0  0  0  0  0  0  0  0  0  0  0  0  # atno 17342 bound_to 10162
  140.6805  143.8091  150.7116 LP  0  0  0  0  0  0  0  0  0  0  0  0  # atno 17343 bound_to 10162
  156.4044  130.7691  151.2700 LP  0  0  0  0  0  0  0  0  0  0  0  0  # atno 17370 bound_to 10713
  157.7508  131.0230  150.3816 LP  0  0  0  0  0  0  0  0  0  0  0  0  # atno 17371 bound_to 10713
  139.8906  134.8799  156.2359 LP  0  0  0  0  0  0  0  0  0  0  0  0  # atno 17394 bound_to 11000
  141.0193  133.7051  156.1240 LP  0  0  0  0  0  0  0  0  0  0  0  0  # atno 17395 bound_to 11000

$$$$
