AV-unprocessed.smi:2881|AV-procd|sdf|11063|dock8
  -GOLD-   2272015533D 1   1.00000     0.00000
 Structure written by MMmdl.
 40 42  0  0  0  0  0  0  0  0  1 V2000
  143.8600  133.1895  151.4443 C   0  0  0  0  0  0  0  0  0  0  0  0
  144.7963  134.3489  151.6194 C   0  0  0  0  0  0  0  0  0  0  0  0
  144.4960  135.7410  151.5486 C   0  0  0  0  0  0  0  0  0  0  0  0
  145.6935  136.3577  151.7817 C   0  0  0  0  0  0  0  0  0  0  0  0
  146.0635  137.8044  151.8469 C   0  0  0  0  0  0  0  0  0  0  0  0
  146.5743  138.1701  153.2400 C   0  0  0  0  0  0  0  0  0  0  0  0
  145.7798  138.5250  154.1103 O   0  0  0  0  0  0  0  0  0  0  0  0
  147.8999  138.0888  153.4307 N   0  0  0  0  0  0  0  0  0  0  0  0
  148.5983  138.4076  154.6740 C   0  0  2  0  0  0  0  0  0  0  0  0
  148.1474  139.7875  155.2022 C   0  0  1  0  0  0  0  0  0  0  0  0
  148.5792  139.9190  156.6736 C   0  0  0  0  0  0  0  0  0  0  0  0
  150.1051  140.0936  156.5569 C   0  0  0  0  0  0  0  0  0  0  0  0
  150.3462  140.0308  155.0327 C   0  0  2  0  0  0  0  0  0  0  0  0
  149.1091  140.7504  154.5116 C   0  0  0  0  0  0  0  0  0  0  0  0
  150.1235  138.6062  154.4701 C   0  0  1  0  0  0  0  0  0  0  0  0
  151.0128  137.5171  155.1017 C   0  0  0  0  0  0  0  0  0  0  0  0
  151.1385  136.4181  154.2257 O   0  0  0  0  0  0  0  0  0  0  0  0
  146.6128  135.3500  151.9682 N   0  0  0  0  0  0  0  0  0  0  0  0
  146.0765  134.1194  151.8714 N   0  0  0  0  0  0  0  0  0  0  0  0
  147.5942  135.4867  152.1657 H   0  0  0  0  0  0  0  0  0  0  0  0
  142.8218  133.5020  151.5590 H   0  0  0  0  0  0  0  0  0  0  0  0
  144.0530  132.4088  152.1810 H   0  0  0  0  0  0  0  0  0  0  0  0
  143.9667  132.7478  150.4534 H   0  0  0  0  0  0  0  0  0  0  0  0
  143.5440  136.2141  151.3583 H   0  0  0  0  0  0  0  0  0  0  0  0
  145.2024  138.4243  151.5930 H   0  0  0  0  0  0  0  0  0  0  0  0
  146.8353  138.0294  151.1097 H   0  0  0  0  0  0  0  0  0  0  0  0
  148.4716  137.7914  152.6535 H   0  0  0  0  0  0  0  0  0  0  0  0
  148.3864  137.6391  155.4200 H   0  0  0  0  0  0  0  0  0  0  0  0
  147.0890  140.0001  155.0462 H   0  0  0  0  0  0  0  0  0  0  0  0
  148.1273  140.7983  157.1343 H   0  0  0  0  0  0  0  0  0  0  0  0
  148.3011  139.0498  157.2709 H   0  0  0  0  0  0  0  0  0  0  0  0
  150.4026  141.0673  156.9486 H   0  0  0  0  0  0  0  0  0  0  0  0
  150.6594  139.3397  157.1147 H   0  0  0  0  0  0  0  0  0  0  0  0
  151.2926  140.4756  154.7236 H   0  0  0  0  0  0  0  0  0  0  0  0
  149.0267  140.7422  153.4232 H   0  0  0  0  0  0  0  0  0  0  0  0
  149.0222  141.7789  154.8671 H   0  0  0  0  0  0  0  0  0  0  0  0
  150.3512  138.6480  153.4027 H   0  0  0  0  0  0  0  0  0  0  0  0
  152.0101  137.9106  155.2999 H   0  0  0  0  0  0  0  0  0  0  0  0
  150.6060  137.1660  156.0499 H   0  0  0  0  0  0  0  0  0  0  0  0
  151.0554  136.7295  153.3374 H   0  0  0  0  0  0  0  0  0  0  0  0
  1 21  1  0  0  0  0
  1 22  1  0  0  0  0
  1 23  1  0  0  0  0
  1  2  1  0  0  0  0
  2 19  2  0  0  0  0
  2  3  1  0  0  0  0
  3  4  2  0  0  0  0
  3 24  1  0  0  0  0
  4 18  1  0  0  0  0
  4  5  1  0  0  0  0
  5  6  1  0  0  0  0
  5 25  1  0  0  0  0
  5 26  1  0  0  0  0
  6  7  2  0  0  0  0
  6  8  1  0  0  0  0
  8  9  1  0  0  0  0
  8 27  1  0  0  0  0
  9 15  1  0  0  0  0
  9 10  1  0  0  0  0
  9 28  1  0  0  0  0
 10 14  1  0  0  0  0
 10 11  1  0  0  0  0
 10 29  1  0  0  0  0
 11 12  1  0  0  0  0
 11 30  1  0  0  0  0
 11 31  1  0  0  0  0
 12 13  1  0  0  0  0
 12 32  1  0  0  0  0
 12 33  1  0  0  0  0
 13 14  1  0  0  0  0
 13 15  1  0  0  0  0
 13 34  1  0  0  0  0
 14 35  1  0  0  0  0
 14 36  1  0  0  0  0
 15 16  1  0  0  0  0
 15 37  1  0  0  0  0
 16 17  1  0  0  0  0
 16 38  1  0  0  0  0
 16 39  1  0  0  0  0
 17 40  1  0  0  0  0
 18 19  1  0  0  0  0
 18 20  1  0  0  0  0
M  END
> <s_m_source_file>
AV-unprocessed.smi

> <i_m_source_file_index>
2881

> <i_lp_mmshare_version>
43012

> <i_f3d_flags>
0

> <s_epik_input>
W0NIM11jMVtjSF1jKG5bbkhdMSlbQ0gyXUMoPU8pW05IXVtDQEhdKFtDQEBIXTIzKVtDQEhdKFtDSDJdW09IXSlbQ0BASF0oW0NIMl0zKVtDSDJdW0NIMl0y

> <s_epik_cmdline>
J2VwaWtfcHl0aG9uJywgJy1waCcsICc3LjAnLCAnLXRuJywgJzgnLCAnLW1hJywgJzIwMCcsICctbWV0YWxfYmluZGluZycsICctaW1hZScsICc8aW5maWxlLm1hZT4nLCAnLW9tYWUnLCAnPG91dGZpbGUubWFlPic=

> <r_lp_tautomer_probability>
0.5

> <r_epik_Ionization_Penalty>
0.00013396

> <r_epik_Ionization_Penalty_Charging>
0

> <r_epik_Ionization_Penalty_Neutral>
0.00013396

> <r_epik_State_Penalty>
0.41068

> <r_epik_Charging_Adjusted_Penalty>
0.41068

> <i_epik_Tot_Q>
0

> <i_epik_Tot_abs_Q>
0

> <r_epik_Metal_State_Penalty>
0.41066

> <b_epik_Metal_Only>
0

> <s_lp_Force_Field>
OPLS_2005

> <r_lp_Energy>
47.2043

> <b_lp_Chiralities_Consistent>
1

> <s_lp_Variant>
AV-unprocessed.smi:2881-9

> <Gold.Version>
5.8.1

> <Gold.Id.Protein>
6NUR|6NUR_protein|mol2

> <Gold.PLP.Fitness>
39.0296

> <Gold.PLP.PLP>
-29.6364

> <Gold.PLP.part.hbond>
-4.8574

> <Gold.PLP.part.metal>
0.0000

> <Gold.PLP.part.buried>
-2.6181

> <Gold.PLP.part.nonpolar>
-24.5303

> <Gold.PLP.part.repulsive>
0.3205

> <Gold.PLP.ligand.clash>
0.0000

> <Gold.PLP.ligand.torsion>
0.7899

> <Gold.PLP.Chemscore.Hbond>
3.6480

> <Gold.PLP.Chemscore.CHOScore>
0.0000

> <Gold.PLP.Chemscore.Metal>
0.0000

> <Gold.Chemscore.Hbonds>
donor molecule, donor type, donor heavy atom, donor atom, acceptor molecule, acceptor atom, score
      L1  H     8    27       P1  7948  0.78
      L1  H    17    40       P1  7949  0.75
      L1  H    18    20       P1  7948  0.98
      P1  H 10752 10764       L1    17  0.95

> <Gold.PLP.Chemscore.Internal.Correction>
0.0290

> <Gold.Rescore>
     Score         DG    S(hbond)    S(metal)    S(lipo)     H(rot)  DE(clash)    DE(int)     intcor
     13.67     -16.03       2.46        0.00      69.67       2.28       0.23       2.13       ----

> <Gold.Chemscore.Fitness>
13.6676

> <Gold.Chemscore.DG>
-16.0277

> <Gold.Chemscore.ZeroCoef>
-5.4800

> <Gold.Chemscore.Hbond>
2.4616

> <Gold.Chemscore.Metal>
0.0000

> <Gold.Chemscore.Lipo>
69.6669

> <Gold.Chemscore.Internal_Hbond>
0.0000

> <Gold.Chemscore.DEClash>
0.2273

> <Gold.Chemscore.DEInternal>
2.1328

> <Gold.Chemscore.Rot>
2.2755

> <Gold.Chemscore.Internal.Correction>
   9.000000E+99

> <Gold.Chemscore.Hbonds>
donor molecule, donor type, donor heavy atom, donor atom, acceptor molecule, acceptor atom, score
      L1  H     8    27       P1  7948  0.78
      L1  H    17    40       P1  7949  0.25
      L1  H    18    20       P1  7948  0.89
      P1  H 10752 10764       L1    17  0.19

> <Gold.Chemscore.Hbond.Weighted>
-8.2219

> <Gold.Chemscore.Metal.Weighted>
-0.0000

> <Gold.Chemscore.Lipo.Weighted>
-8.1510

> <Gold.Chemscore.Internal_Hbond.Weighted>
0.0000

> <Gold.Chemscore.DEClash.Weighted>
0.2273

> <Gold.Chemscore.DEInternal.Weighted>
2.1328

> <Gold.Chemscore.Rot.Weighted>
5.8252

> <Gold.Chemscore.Internal.Correction.Weighted>
   9.000000E+99

> <Gold.Protein.RotatedTorsions>
[ 6907 6896 6895 6894 ] final   -1.99 input  -60.11 | X-H torsion
[ 7974 7965 7964 7962 ] final   22.28 input  175.53 | X-H torsion
[ 8008 7997 7996 7995 ] final -159.41 input   59.86 | X-H torsion
[ 10167 10162 10161 10158 ] final  -76.28 input  -65.29 | X-H torsion
[ 10718 10713 10712 10709 ] final -159.18 input   66.30 | X-H torsion
[ 10763 10752 10751 10750 ] final  -87.77 input  -60.55 | X-H torsion
[ 11005 11000 10999 10996 ] final -177.63 input  -57.11 | X-H torsion

> <Gold.Protein.ActiveResidues>
 VAL166  LYS551  ARG553  GLY616  TRP617  ASP618  TYR619  PRO620  LYS621  CYS622 
 ASP623  PHE694  ASN695  SER759  ASP760  ASP761  ALA762  ILE779  LEU786  VAL792 
 PHE793  MET794  SER795  GLU796  ALA797  LYS798  CYS799  TRP800  GLU811  SER814 

> <Gold.Protein.RotatedAtoms>
  151.5371  135.1068  159.9916 H   0  0  0  0  0  0  0  0  0  0  0  0  # atno 6907 bound_to 6896
  152.4552  133.7705  159.6807 H   0  0  0  0  0  0  0  0  0  0  0  0  # atno 6908 bound_to 6896
  150.8493  133.7745  159.3056 H   0  0  0  0  0  0  0  0  0  0  0  0  # atno 6909 bound_to 6896
  146.2035  139.7907  142.8743 H   0  0  0  0  0  0  0  0  0  0  0  0  # atno 7974 bound_to 7965
  155.7621  140.0840  157.2150 H   0  0  0  0  0  0  0  0  0  0  0  0  # atno 8008 bound_to 7997
  154.4003  140.1541  156.2901 H   0  0  0  0  0  0  0  0  0  0  0  0  # atno 8009 bound_to 7997
  155.8829  140.3419  155.5903 H   0  0  0  0  0  0  0  0  0  0  0  0  # atno 8010 bound_to 7997
  140.4870  143.2389  151.7967 H   0  0  0  0  0  0  0  0  0  0  0  0  # atno 10167 bound_to 10162
  156.5645  130.8661  151.2819 H   0  0  0  0  0  0  0  0  0  0  0  0  # atno 10718 bound_to 10713
  154.6372  135.5401  153.7748 H   0  0  0  0  0  0  0  0  0  0  0  0  # atno 10763 bound_to 10752
  153.0315  135.6450  154.1213 H   0  0  0  0  0  0  0  0  0  0  0  0  # atno 10764 bound_to 10752
  154.1140  135.2925  155.3204 H   0  0  0  0  0  0  0  0  0  0  0  0  # atno 10765 bound_to 10752
  140.4388  134.6451  157.4747 H   0  0  0  0  0  0  0  0  0  0  0  0  # atno 11005 bound_to 11000
  145.3400  141.0285  143.3398 LP  0  0  0  0  0  0  0  0  0  0  0  0  # atno 17320 bound_to 7965
  144.8739  139.4999  143.6755 LP  0  0  0  0  0  0  0  0  0  0  0  0  # atno 17321 bound_to 7965
  139.4844  144.4699  151.9438 LP  0  0  0  0  0  0  0  0  0  0  0  0  # atno 17342 bound_to 10162
  140.3785  144.2766  150.5911 LP  0  0  0  0  0  0  0  0  0  0  0  0  # atno 17343 bound_to 10162
  157.7361  130.9774  150.2121 LP  0  0  0  0  0  0  0  0  0  0  0  0  # atno 17370 bound_to 10713
  156.2770  130.3728  149.7974 LP  0  0  0  0  0  0  0  0  0  0  0  0  # atno 17371 bound_to 10713
  140.0084  134.6728  155.9419 LP  0  0  0  0  0  0  0  0  0  0  0  0  # atno 17394 bound_to 11000
  141.1714  133.6537  156.4667 LP  0  0  0  0  0  0  0  0  0  0  0  0  # atno 17395 bound_to 11000

$$$$
