AV-unprocessed.smi:295|AV-procd|sdf|2254|dock10
  -GOLD-   2262022143D 1   1.00000     0.00000
 Structure written by MMmdl.
 35 36  0  0  0  0  0  0  0  0  1 V2000
  151.9372  140.0918  158.5242 C   0  0  0  0  0  0  0  0  0  0  0  0
  152.1338  141.6124  158.3802 C   0  0  2  0  0  0  0  0  0  0  0  0
  152.6864  142.2170  159.6864 C   0  0  0  0  0  0  0  0  0  0  0  0
  152.9057  143.7327  159.5652 C   0  0  0  0  0  0  0  0  0  0  0  0
  151.6113  144.4464  159.1516 C   0  0  0  0  0  0  0  0  0  0  0  0
  151.0544  143.8637  157.8447 C   0  0  0  0  0  0  0  0  0  0  0  0
  150.8363  142.3411  157.9508 C   0  0  1  0  0  0  0  0  0  0  0  0
  150.3734  141.8196  156.6688 N   0  0  0  0  0  0  0  0  0  0  0  0
  149.2494  141.1158  156.4640 C   0  0  0  0  0  0  0  0  0  0  0  0
  148.4133  140.8954  157.3393 O   0  0  0  0  0  0  0  0  0  0  0  0
  149.0476  140.5617  155.0526 C   0  0  0  0  0  0  0  0  0  0  0  0
  150.0884  139.6048  154.7190 N   0  0  0  0  0  0  0  0  0  0  0  0
  150.0013  138.3519  154.2594 C   0  0  0  0  0  0  0  0  0  0  0  0
  151.1752  137.7532  154.0998 N   0  0  0  0  0  0  0  0  0  0  0  0
  151.9887  138.7697  154.5085 C   0  0  0  0  0  0  0  0  0  0  0  0
  153.4336  138.6204  154.5406 C   0  0  0  0  0  0  0  0  0  0  0  0
  154.5844  138.5018  154.5669 N   0  0  0  0  0  0  0  0  0  0  0  0
  151.4006  139.9021  154.8875 N   0  0  0  0  0  0  0  0  0  0  0  0
  151.1693  139.8611  159.2631 H   0  0  0  0  0  0  0  0  0  0  0  0
  152.8603  139.6064  158.8418 H   0  0  0  0  0  0  0  0  0  0  0  0
  151.6406  139.6303  157.5817 H   0  0  0  0  0  0  0  0  0  0  0  0
  152.8834  141.7704  157.6028 H   0  0  0  0  0  0  0  0  0  0  0  0
  151.9959  142.0148  160.5064 H   0  0  0  0  0  0  0  0  0  0  0  0
  153.6279  141.7347  159.9516 H   0  0  0  0  0  0  0  0  0  0  0  0
  153.2646  144.1336  160.5136 H   0  0  0  0  0  0  0  0  0  0  0  0
  153.6860  143.9323  158.8295 H   0  0  0  0  0  0  0  0  0  0  0  0
  150.8676  144.3460  159.9433 H   0  0  0  0  0  0  0  0  0  0  0  0
  151.7965  145.5144  159.0338 H   0  0  0  0  0  0  0  0  0  0  0  0
  150.1161  144.3606  157.5947 H   0  0  0  0  0  0  0  0  0  0  0  0
  151.7457  144.0826  157.0296 H   0  0  0  0  0  0  0  0  0  0  0  0
  150.0777  142.1533  158.7135 H   0  0  0  0  0  0  0  0  0  0  0  0
  150.9899  141.9533  155.8801 H   0  0  0  0  0  0  0  0  0  0  0  0
  148.0785  140.0669  154.9764 H   0  0  0  0  0  0  0  0  0  0  0  0
  149.0541  141.3774  154.3280 H   0  0  0  0  0  0  0  0  0  0  0  0
  149.0602  137.8653  154.0486 H   0  0  0  0  0  0  0  0  0  0  0  0
  1  2  1  0  0  0  0
  1 19  1  0  0  0  0
  1 20  1  0  0  0  0
  1 21  1  0  0  0  0
  2  7  1  0  0  0  0
  2  3  1  0  0  0  0
  2 22  1  0  0  0  0
  3  4  1  0  0  0  0
  3 23  1  0  0  0  0
  3 24  1  0  0  0  0
  4  5  1  0  0  0  0
  4 25  1  0  0  0  0
  4 26  1  0  0  0  0
  5  6  1  0  0  0  0
  5 27  1  0  0  0  0
  5 28  1  0  0  0  0
  6  7  1  0  0  0  0
  6 29  1  0  0  0  0
  6 30  1  0  0  0  0
  7  8  1  0  0  0  0
  7 31  1  0  0  0  0
  8  9  1  0  0  0  0
  8 32  1  0  0  0  0
  9 10  2  0  0  0  0
  9 11  1  0  0  0  0
 11 12  1  0  0  0  0
 11 33  1  0  0  0  0
 11 34  1  0  0  0  0
 12 18  1  0  0  0  0
 12 13  1  0  0  0  0
 13 14  2  0  0  0  0
 13 35  1  0  0  0  0
 14 15  1  0  0  0  0
 15 16  1  0  0  0  0
 15 18  2  0  0  0  0
 16 17  3  0  0  0  0
M  END
> <s_m_source_file>
AV-unprocessed.smi

> <i_m_source_file_index>
295

> <i_lp_mmshare_version>
43012

> <i_f3d_flags>
0

> <s_epik_input>
W0NIM11bQ0BASF0xW0NIMl1bQ0gyXVtDSDJdW0NIMl1bQ0BIXTFbTkhdQyg9TylbQ0gyXW4yW2NIXW5jKG4yKUMjTg==

> <s_epik_cmdline>
J2VwaWtfcHl0aG9uJywgJy1waCcsICc3LjAnLCAnLXRuJywgJzgnLCAnLW1hJywgJzIwMCcsICctbWV0YWxfYmluZGluZycsICctaW1hZScsICc8aW5maWxlLm1hZT4nLCAnLW9tYWUnLCAnPG91dGZpbGUubWFlPic=

> <r_lp_tautomer_probability>
1

> <r_epik_Ionization_Penalty>
5.31112e-08

> <r_epik_Ionization_Penalty_Charging>
0

> <r_epik_Ionization_Penalty_Neutral>
5.31112e-08

> <r_epik_State_Penalty>
-0

> <r_epik_Charging_Adjusted_Penalty>
0

> <i_epik_Tot_Q>
0

> <i_epik_Tot_abs_Q>
0

> <r_epik_Metal_State_Penalty>
-0

> <b_epik_Metal_Only>
0

> <s_lp_Force_Field>
OPLS_2005

> <r_lp_Energy>
13.1712

> <b_lp_Chiralities_Consistent>
1

> <s_lp_Variant>
AV-unprocessed.smi:295-1

> <Gold.Version>
5.8.1

> <Gold.Id.Protein>
6NUR|6NUR_protein|mol2

> <Gold.PLP.Fitness>
43.2466

> <Gold.PLP.PLP>
-37.5028

> <Gold.PLP.part.hbond>
-2.0000

> <Gold.PLP.part.metal>
0.0000

> <Gold.PLP.part.buried>
-5.4225

> <Gold.PLP.part.nonpolar>
-31.1002

> <Gold.PLP.part.repulsive>
0.3757

> <Gold.PLP.ligand.clash>
0.0000

> <Gold.PLP.ligand.torsion>
0.1164

> <Gold.PLP.Chemscore.Hbond>
1.5920

> <Gold.PLP.Chemscore.CHOScore>
0.3979

> <Gold.PLP.Chemscore.Metal>
0.0000

> <Gold.Chemscore.Hbonds>
donor molecule, donor type, donor heavy atom, donor atom, acceptor molecule, acceptor atom, score
      P1  H  7989  7998       L1    18  1.00
      P1  H  7997  8010       L1    17  0.59
      L1  C    13    35       P1  7948  0.40

> <Gold.PLP.Chemscore.Internal.Correction>
0.0070

> <Gold.Rescore>
     Score         DG    S(hbond)    S(metal)    S(lipo)     H(rot)  DE(clash)    DE(int)     intcor
     11.18     -12.40       0.83        0.00      77.96       1.95       0.01       1.21       ----

> <Gold.Chemscore.Fitness>
11.1845

> <Gold.Chemscore.DG>
-12.3966

> <Gold.Chemscore.ZeroCoef>
-5.4800

> <Gold.Chemscore.Hbond>
0.8325

> <Gold.Chemscore.Metal>
0.0000

> <Gold.Chemscore.Lipo>
77.9596

> <Gold.Chemscore.Internal_Hbond>
0.0000

> <Gold.Chemscore.DEClash>
0.0067

> <Gold.Chemscore.DEInternal>
1.2055

> <Gold.Chemscore.Rot>
1.9474

> <Gold.Chemscore.Internal.Correction>
   9.000000E+99

> <Gold.Chemscore.Hbonds>
donor molecule, donor type, donor heavy atom, donor atom, acceptor molecule, acceptor atom, score
      P1  H  7989  7998       L1    18  0.08
      P1  H  7997  8010       L1    17  0.14

> <Gold.Chemscore.Hbond.Weighted>
-2.7806

> <Gold.Chemscore.Metal.Weighted>
-0.0000

> <Gold.Chemscore.Lipo.Weighted>
-9.1213

> <Gold.Chemscore.Internal_Hbond.Weighted>
0.0000

> <Gold.Chemscore.DEClash.Weighted>
0.0067

> <Gold.Chemscore.DEInternal.Weighted>
1.2055

> <Gold.Chemscore.Rot.Weighted>
4.9852

> <Gold.Chemscore.Internal.Correction.Weighted>
   9.000000E+99

> <Gold.Protein.RotatedTorsions>
[ 6907 6896 6895 6894 ] final  131.77 input  -60.11 | X-H torsion
[ 7974 7965 7964 7962 ] final -108.20 input  175.53 | X-H torsion
[ 8008 7997 7996 7995 ] final  151.68 input   59.86 | X-H torsion
[ 10167 10162 10161 10158 ] final -107.94 input  -65.29 | X-H torsion
[ 10718 10713 10712 10709 ] final -152.39 input   66.30 | X-H torsion
[ 10763 10752 10751 10750 ] final  133.14 input  -60.55 | X-H torsion
[ 11005 11000 10999 10996 ] final -172.86 input  -57.11 | X-H torsion

> <Gold.Protein.ActiveResidues>
 VAL166  LYS551  ARG553  GLY616  TRP617  ASP618  TYR619  PRO620  LYS621  CYS622 
 ASP623  PHE694  ASN695  SER759  ASP760  ASP761  ALA762  ILE779  LEU786  VAL792 
 PHE793  MET794  SER795  GLU796  ALA797  LYS798  CYS799  TRP800  GLU811  SER814 

> <Gold.Protein.RotatedAtoms>
  152.3392  133.6047  159.5864 H   0  0  0  0  0  0  0  0  0  0  0  0  # atno 6907 bound_to 6896
  150.7468  133.9748  159.3566 H   0  0  0  0  0  0  0  0  0  0  0  0  # atno 6908 bound_to 6896
  151.7614  135.0810  160.0397 H   0  0  0  0  0  0  0  0  0  0  0  0  # atno 6909 bound_to 6896
  145.1958  140.9035  143.3398 H   0  0  0  0  0  0  0  0  0  0  0  0  # atno 7974 bound_to 7965
  156.2663  140.2041  156.6214 H   0  0  0  0  0  0  0  0  0  0  0  0  # atno 8008 bound_to 7997
  154.6754  140.0545  157.0234 H   0  0  0  0  0  0  0  0  0  0  0  0  # atno 8009 bound_to 7997
  155.1076  140.3212  155.4533 H   0  0  0  0  0  0  0  0  0  0  0  0  # atno 8010 bound_to 7997
  140.1715  143.4039  152.1351 H   0  0  0  0  0  0  0  0  0  0  0  0  # atno 10167 bound_to 10162
  156.4718  130.8262  151.2491 H   0  0  0  0  0  0  0  0  0  0  0  0  # atno 10718 bound_to 10713
  153.8023  135.3140  155.3391 H   0  0  0  0  0  0  0  0  0  0  0  0  # atno 10763 bound_to 10752
  154.8084  135.4683  154.0455 H   0  0  0  0  0  0  0  0  0  0  0  0  # atno 10764 bound_to 10752
  153.1807  135.6893  153.8570 H   0  0  0  0  0  0  0  0  0  0  0  0  # atno 10765 bound_to 10752
  140.4922  134.5974  157.4958 H   0  0  0  0  0  0  0  0  0  0  0  0  # atno 11005 bound_to 11000
  144.9996  139.3611  143.6174 LP  0  0  0  0  0  0  0  0  0  0  0  0  # atno 17320 bound_to 7965
  146.3427  139.9213  142.8766 LP  0  0  0  0  0  0  0  0  0  0  0  0  # atno 17321 bound_to 7965
  139.5336  144.7185  151.4971 LP  0  0  0  0  0  0  0  0  0  0  0  0  # atno 17342 bound_to 10162
  140.6579  143.8561  150.6855 LP  0  0  0  0  0  0  0  0  0  0  0  0  # atno 17343 bound_to 10162
  157.7490  131.0074  150.3187 LP  0  0  0  0  0  0  0  0  0  0  0  0  # atno 17370 bound_to 10713
  156.3611  130.3847  149.7251 LP  0  0  0  0  0  0  0  0  0  0  0  0  # atno 17371 bound_to 10713
  139.9762  134.7211  155.9945 LP  0  0  0  0  0  0  0  0  0  0  0  0  # atno 17394 bound_to 11000
  141.1478  133.6553  156.3921 LP  0  0  0  0  0  0  0  0  0  0  0  0  # atno 17395 bound_to 11000

$$$$
