AV-unprocessed.smi:1831|AV-procd|sdf|7457|dock8
  -GOLD-   22720 9143D 1   1.00000     0.00000
 Structure written by MMmdl.
 41 42  0  0  0  0  0  0  0  0  2 V2000
  151.2409  141.6536  156.5556 C   0  0  0  0  0  0  0  0  0  0  0  0
  150.7476  140.4774  155.7844 C   0  0  0  0  0  0  0  0  0  0  0  0
  150.1359  140.5915  154.5987 N   0  0  0  0  0  0  0  0  0  0  0  0
  149.7681  139.3601  154.0727 N   0  0  0  0  0  0  0  0  0  0  0  0
  150.1170  138.3505  154.8749 C   0  0  0  0  0  0  0  0  0  0  0  0
  149.8042  137.0312  154.4619 N   0  0  0  0  0  0  0  0  0  0  0  0
  149.8626  135.9038  155.1887 C   0  0  0  0  0  0  0  0  0  0  0  0
  150.2051  135.8341  156.3689 O   0  0  0  0  0  0  0  0  0  0  0  0
  149.4920  134.8379  154.4640 N   0  0  0  0  0  0  0  0  0  0  0  0
  149.4740  133.4570  154.9374 C   0  0  0  0  0  0  0  0  0  0  0  0
  149.2070  132.4496  153.8016 C   0  0  1  0  0  0  0  0  0  0  0  0
  149.2720  130.9915  154.2500 C   0  0  0  0  0  0  0  0  0  0  0  0
  148.4222  130.2279  153.2259 C   0  0  0  0  0  0  0  0  0  0  0  0
  147.6248  131.2342  152.4798 N   0  3  1  0  0  0  0  0  0  0  0  0
  146.2095  130.8520  152.2111 C   0  0  0  0  0  0  0  0  0  0  0  0
  146.1163  129.4154  151.6630 C   0  0  0  0  0  0  0  0  0  0  0  0
  145.5333  131.8234  151.2243 C   0  0  0  0  0  0  0  0  0  0  0  0
  147.8135  132.5256  153.1757 C   0  0  0  0  0  0  0  0  0  0  0  0
  150.9317  138.8273  156.3648 S   0  0  0  0  0  0  0  0  0  0  0  0
  150.8324  142.5793  156.1488 H   0  0  0  0  0  0  0  0  0  0  0  0
  152.3289  141.6996  156.5073 H   0  0  0  0  0  0  0  0  0  0  0  0
  150.9393  141.5694  157.5997 H   0  0  0  0  0  0  0  0  0  0  0  0
  149.5104  136.9368  153.5008 H   0  0  0  0  0  0  0  0  0  0  0  0
  149.2272  134.9896  153.5014 H   0  0  0  0  0  0  0  0  0  0  0  0
  150.4484  133.2511  155.3813 H   0  0  0  0  0  0  0  0  0  0  0  0
  148.7446  133.3365  155.7402 H   0  0  0  0  0  0  0  0  0  0  0  0
  149.9475  132.5955  153.0128 H   0  0  0  0  0  0  0  0  0  0  0  0
  150.2945  130.6171  154.3082 H   0  0  0  0  0  0  0  0  0  0  0  0
  148.8258  130.8852  155.2399 H   0  0  0  0  0  0  0  0  0  0  0  0
  149.0504  129.6833  152.5205 H   0  0  0  0  0  0  0  0  0  0  0  0
  147.7920  129.5006  153.7396 H   0  0  0  0  0  0  0  0  0  0  0  0
  145.6620  130.8957  153.1539 H   0  0  0  0  0  0  0  0  0  0  0  0
  145.0809  129.1451  151.4532 H   0  0  0  0  0  0  0  0  0  0  0  0
  146.4973  128.6786  152.3698 H   0  0  0  0  0  0  0  0  0  0  0  0
  146.6789  129.3085  150.7349 H   0  0  0  0  0  0  0  0  0  0  0  0
  144.5146  131.5051  151.0007 H   0  0  0  0  0  0  0  0  0  0  0  0
  146.0771  131.8737  150.2803 H   0  0  0  0  0  0  0  0  0  0  0  0
  145.4643  132.8342  151.6262 H   0  0  0  0  0  0  0  0  0  0  0  0
  147.0595  132.6322  153.9577 H   0  0  0  0  0  0  0  0  0  0  0  0
  147.7164  133.3678  152.4900 H   0  0  0  0  0  0  0  0  0  0  0  0
  148.0778  131.3374  151.5830 H   0  0  0  0  0  0  0  0  0  0  0  0
  1  2  1  0  0  0  0
  1 20  1  0  0  0  0
  1 21  1  0  0  0  0
  1 22  1  0  0  0  0
  2 19  1  0  0  0  0
  2  3  2  0  0  0  0
  3  4  1  0  0  0  0
  4  5  2  0  0  0  0
  5  6  1  0  0  0  0
  5 19  1  0  0  0  0
  6  7  1  0  0  0  0
  6 23  1  0  0  0  0
  7  8  2  0  0  0  0
  7  9  1  0  0  0  0
  9 10  1  0  0  0  0
  9 24  1  0  0  0  0
 10 11  1  0  0  0  0
 10 25  1  0  0  0  0
 10 26  1  0  0  0  0
 11 18  1  0  0  0  0
 11 12  1  0  0  0  0
 11 27  1  0  0  0  0
 12 13  1  0  0  0  0
 12 28  1  0  0  0  0
 12 29  1  0  0  0  0
 13 14  1  0  0  0  0
 13 30  1  0  0  0  0
 13 31  1  0  0  0  0
 14 15  1  0  0  0  0
 14 18  1  0  0  0  0
 14 41  1  0  0  0  0
 15 16  1  0  0  0  0
 15 17  1  0  0  0  0
 15 32  1  0  0  0  0
 16 33  1  0  0  0  0
 16 34  1  0  0  0  0
 16 35  1  0  0  0  0
 17 36  1  0  0  0  0
 17 37  1  0  0  0  0
 17 38  1  0  0  0  0
 18 39  1  0  0  0  0
 18 40  1  0  0  0  0
M  CHG  1  14   1
M  END
> <s_m_source_file>
AV-unprocessed.smi

> <i_m_source_file_index>
1831

> <i_lp_mmshare_version>
43012

> <i_f3d_flags>
0

> <s_epik_input>
W0NIM11jMW5uYyhzMSlbTkhdQyg9TylbTkhdW0NIMl1bQ0BASF0yW0NIMl1bQ0gyXU4oW0NIMl0yKVtDSF0oW0NIM10pW0NIM10=

> <s_epik_cmdline>
J2VwaWtfcHl0aG9uJywgJy1waCcsICc3LjAnLCAnLXRuJywgJzgnLCAnLW1hJywgJzIwMCcsICctbWV0YWxfYmluZGluZycsICctaW1hZScsICc8aW5maWxlLm1hZT4nLCAnLW9tYWUnLCAnPG91dGZpbGUubWFlPic=

> <r_lp_tautomer_probability>
1

> <r_epik_Ionization_Penalty>
0.00080807

> <r_epik_Ionization_Penalty_Charging>
0.000218981

> <r_epik_Ionization_Penalty_Neutral>
0.00058909

> <r_epik_State_Penalty>
-0

> <r_epik_Charging_Adjusted_Penalty>
0.000218981

> <i_epik_Tot_Q>
1

> <i_epik_Tot_abs_Q>
1

> <r_epik_Metal_State_Penalty>
0.236062

> <b_epik_Metal_Only>
0

> <s_lp_Force_Field>
OPLS_2005

> <r_lp_Energy>
27.4223

> <b_lp_Chiralities_Consistent>
1

> <s_lp_Variant>
AV-unprocessed.smi:1831-2

> <Gold.Version>
5.8.1

> <Gold.Id.Protein>
6NUR|6NUR_protein|mol2

> <Gold.PLP.Fitness>
43.8052

> <Gold.PLP.PLP>
-33.2426

> <Gold.PLP.part.hbond>
-4.0000

> <Gold.PLP.part.metal>
0.0000

> <Gold.PLP.part.buried>
-5.2221

> <Gold.PLP.part.nonpolar>
-25.3289

> <Gold.PLP.part.repulsive>
1.3581

> <Gold.PLP.ligand.clash>
0.0000

> <Gold.PLP.ligand.torsion>
0.1710

> <Gold.PLP.Chemscore.Hbond>
3.6276

> <Gold.PLP.Chemscore.CHOScore>
0.0000

> <Gold.PLP.Chemscore.Metal>
0.0000

> <Gold.Chemscore.Hbonds>
donor molecule, donor type, donor heavy atom, donor atom, acceptor molecule, acceptor atom, score
      L1  H     6    23       P1  7948  1.00
      L1  H     9    24       P1  7948  0.84
      L1  H    14    41       P1 10747  1.00
      P1  H  7989  7998       L1     3  0.73

> <Gold.PLP.Chemscore.Internal.Correction>
0.0219

> <Gold.Rescore>
     Score         DG    S(hbond)    S(metal)    S(lipo)     H(rot)  DE(clash)    DE(int)     intcor
     18.21     -18.42       2.59        0.00      70.30       1.54       0.02       0.18       ----

> <Gold.Chemscore.Fitness>
18.2121

> <Gold.Chemscore.DG>
-18.4197

> <Gold.Chemscore.ZeroCoef>
-5.4800

> <Gold.Chemscore.Hbond>
2.5917

> <Gold.Chemscore.Metal>
0.0000

> <Gold.Chemscore.Lipo>
70.2959

> <Gold.Chemscore.Internal_Hbond>
0.0000

> <Gold.Chemscore.DEClash>
0.0238

> <Gold.Chemscore.DEInternal>
0.1838

> <Gold.Chemscore.Rot>
1.5396

> <Gold.Chemscore.Internal.Correction>
   9.000000E+99

> <Gold.Chemscore.Hbonds>
donor molecule, donor type, donor heavy atom, donor atom, acceptor molecule, acceptor atom, score
      L1  H     6    23       P1  7948  0.85
      L1  H     9    24       P1  7948  0.13
      L1  H    14    41       P1 10747  0.98
      P1  H  7989  7998       L1     3  0.03

> <Gold.Chemscore.Hbond.Weighted>
-8.6564

> <Gold.Chemscore.Metal.Weighted>
-0.0000

> <Gold.Chemscore.Lipo.Weighted>
-8.2246

> <Gold.Chemscore.Internal_Hbond.Weighted>
0.0000

> <Gold.Chemscore.DEClash.Weighted>
0.0238

> <Gold.Chemscore.DEInternal.Weighted>
0.1838

> <Gold.Chemscore.Rot.Weighted>
3.9413

> <Gold.Chemscore.Internal.Correction.Weighted>
   9.000000E+99

> <Gold.Protein.RotatedTorsions>
[ 6907 6896 6895 6894 ] final -124.77 input  -60.11 | X-H torsion
[ 7974 7965 7964 7962 ] final  136.66 input  175.53 | X-H torsion
[ 8008 7997 7996 7995 ] final -159.39 input   59.86 | X-H torsion
[ 10167 10162 10161 10158 ] final -140.69 input  -65.29 | X-H torsion
[ 10718 10713 10712 10709 ] final  -49.75 input   66.30 | X-H torsion
[ 10763 10752 10751 10750 ] final  114.24 input  -60.55 | X-H torsion
[ 11005 11000 10999 10996 ] final -113.86 input  -57.11 | X-H torsion

> <Gold.Protein.ActiveResidues>
 VAL166  LYS551  ARG553  GLY616  TRP617  ASP618  TYR619  PRO620  LYS621  CYS622 
 ASP623  PHE694  ASN695  SER759  ASP760  ASP761  ALA762  ILE779  LEU786  VAL792 
 PHE793  MET794  SER795  GLU796  ALA797  LYS798  CYS799  TRP800  GLU811  SER814 

> <Gold.Protein.RotatedAtoms>
  150.8801  133.7383  159.2934 H   0  0  0  0  0  0  0  0  0  0  0  0  # atno 6907 bound_to 6896
  151.4967  135.1058  159.9828 H   0  0  0  0  0  0  0  0  0  0  0  0  # atno 6908 bound_to 6896
  152.4754  133.8080  159.7044 H   0  0  0  0  0  0  0  0  0  0  0  0  # atno 6909 bound_to 6896
  144.9543  139.4782  143.5510 H   0  0  0  0  0  0  0  0  0  0  0  0  # atno 7974 bound_to 7965
  155.7618  140.0840  157.2151 H   0  0  0  0  0  0  0  0  0  0  0  0  # atno 8008 bound_to 7997
  154.4003  140.1541  156.2898 H   0  0  0  0  0  0  0  0  0  0  0  0  # atno 8009 bound_to 7997
  155.8832  140.3419  155.5905 H   0  0  0  0  0  0  0  0  0  0  0  0  # atno 8010 bound_to 7997
  139.8257  143.7514  152.2666 H   0  0  0  0  0  0  0  0  0  0  0  0  # atno 10167 bound_to 10162
  156.1864  130.4151  149.9433 H   0  0  0  0  0  0  0  0  0  0  0  0  # atno 10718 bound_to 10713
  153.5043  135.3631  155.2555 H   0  0  0  0  0  0  0  0  0  0  0  0  # atno 10763 bound_to 10752
  154.8746  135.4007  154.3442 H   0  0  0  0  0  0  0  0  0  0  0  0  # atno 10764 bound_to 10752
  153.4084  135.7077  153.6443 H   0  0  0  0  0  0  0  0  0  0  0  0  # atno 10765 bound_to 10752
  141.0588  133.9569  157.2705 H   0  0  0  0  0  0  0  0  0  0  0  0  # atno 11005 bound_to 11000
  146.3332  139.8650  142.8850 LP  0  0  0  0  0  0  0  0  0  0  0  0  # atno 17320 bound_to 7965
  145.2796  141.0134  143.3725 LP  0  0  0  0  0  0  0  0  0  0  0  0  # atno 17321 bound_to 7965
  139.7706  144.7477  151.0230 LP  0  0  0  0  0  0  0  0  0  0  0  0  # atno 17342 bound_to 10162
  140.7810  143.4649  151.0226 LP  0  0  0  0  0  0  0  0  0  0  0  0  # atno 17343 bound_to 10162
  156.7187  130.8998  151.3616 LP  0  0  0  0  0  0  0  0  0  0  0  0  # atno 17370 bound_to 10713
  157.6901  130.9225  150.0492 LP  0  0  0  0  0  0  0  0  0  0  0  0  # atno 17371 bound_to 10713
  139.9414  135.0190  156.8719 LP  0  0  0  0  0  0  0  0  0  0  0  0  # atno 17394 bound_to 11000
  140.5910  134.0262  155.7500 LP  0  0  0  0  0  0  0  0  0  0  0  0  # atno 17395 bound_to 11000

$$$$
