AV-unprocessed.smi:2618|AV-procd|sdf|10219|dock3
  -GOLD-   2272014223D 1   1.00000     0.00000
 Structure written by MMmdl.
 39 40  0  0  0  0  0  0  0  0  1 V2000
  153.2612  142.2792  161.2581 C   0  0  0  0  0  0  0  0  0  0  0  0
  153.0301  142.7385  159.9381 O   0  0  0  0  0  0  0  0  0  0  0  0
  151.9432  142.0745  159.3117 C   0  0  0  0  0  0  0  0  0  0  0  0
  151.7015  142.6755  157.9139 C   0  0  0  0  0  0  0  0  0  0  0  0
  151.0495  141.7256  156.9381 C   0  0  0  0  0  0  0  0  0  0  0  0
  149.9390  141.9483  156.3372 N   0  0  0  0  0  0  0  0  0  0  0  0
  149.6163  140.9342  155.5351 N   0  0  0  0  0  0  0  0  0  0  0  0
  148.4901  140.9483  154.7038 C   0  0  0  0  0  0  0  0  0  0  0  0
  148.2229  139.8503  153.9853 N   0  0  0  0  0  0  0  0  0  0  0  0
  147.1381  139.8720  153.1818 C   0  0  0  0  0  0  0  0  0  0  0  0
  146.8583  138.6156  152.3852 C   0  0  0  0  0  0  0  0  0  0  0  0
  146.3090  141.0073  153.0849 C   0  0  0  0  0  0  0  0  0  0  0  0
  146.6806  142.1118  153.8775 C   0  0  0  0  0  0  0  0  0  0  0  0
  145.8831  143.3983  153.8703 C   0  0  0  0  0  0  0  0  0  0  0  0
  147.7654  142.0772  154.6810 N   0  0  0  0  0  0  0  0  0  0  0  0
  150.5705  139.8219  155.6582 C   0  0  2  0  0  0  0  0  0  0  0  0
  151.2037  139.4177  154.4550 O   0  0  0  0  0  0  0  0  0  0  0  0
  149.9454  138.5688  156.3348 C   0  0  0  0  0  0  0  0  0  0  0  0
  150.8795  137.6363  156.5301 F   0  0  0  0  0  0  0  0  0  0  0  0
  149.3958  138.8520  157.5148 F   0  0  0  0  0  0  0  0  0  0  0  0
  149.0022  138.0469  155.5487 F   0  0  0  0  0  0  0  0  0  0  0  0
  151.6655  140.4324  156.5433 C   0  0  0  0  0  0  0  0  0  0  0  0
  154.0963  142.8267  161.6948 H   0  0  0  0  0  0  0  0  0  0  0  0
  153.5138  141.2180  161.2665 H   0  0  0  0  0  0  0  0  0  0  0  0
  152.3865  142.4372  161.8902 H   0  0  0  0  0  0  0  0  0  0  0  0
  152.1277  141.0007  159.2456 H   0  0  0  0  0  0  0  0  0  0  0  0
  151.0475  142.2051  159.9211 H   0  0  0  0  0  0  0  0  0  0  0  0
  151.0753  143.5629  158.0088 H   0  0  0  0  0  0  0  0  0  0  0  0
  152.6525  143.0168  157.5041 H   0  0  0  0  0  0  0  0  0  0  0  0
  145.8594  138.6417  151.9489 H   0  0  0  0  0  0  0  0  0  0  0  0
  146.9271  137.7341  153.0236 H   0  0  0  0  0  0  0  0  0  0  0  0
  147.5829  138.5127  151.5771 H   0  0  0  0  0  0  0  0  0  0  0  0
  145.4421  141.0298  152.4408 H   0  0  0  0  0  0  0  0  0  0  0  0
  145.0470  143.3404  153.1729 H   0  0  0  0  0  0  0  0  0  0  0  0
  146.5158  144.2354  153.5746 H   0  0  0  0  0  0  0  0  0  0  0  0
  145.4848  143.6021  154.8647 H   0  0  0  0  0  0  0  0  0  0  0  0
  150.5758  138.9440  153.9315 H   0  0  0  0  0  0  0  0  0  0  0  0
  152.5971  140.6165  156.0056 H   0  0  0  0  0  0  0  0  0  0  0  0
  151.8939  139.8238  157.4186 H   0  0  0  0  0  0  0  0  0  0  0  0
  1  2  1  0  0  0  0
  1 23  1  0  0  0  0
  1 24  1  0  0  0  0
  1 25  1  0  0  0  0
  2  3  1  0  0  0  0
  3  4  1  0  0  0  0
  3 26  1  0  0  0  0
  3 27  1  0  0  0  0
  4  5  1  0  0  0  0
  4 28  1  0  0  0  0
  4 29  1  0  0  0  0
  5 22  1  0  0  0  0
  5  6  2  0  0  0  0
  6  7  1  0  0  0  0
  7  8  1  0  0  0  0
  7 16  1  0  0  0  0
  8 15  1  0  0  0  0
  8  9  2  0  0  0  0
  9 10  1  0  0  0  0
 10 11  1  0  0  0  0
 10 12  2  0  0  0  0
 11 30  1  0  0  0  0
 11 31  1  0  0  0  0
 11 32  1  0  0  0  0
 12 13  1  0  0  0  0
 12 33  1  0  0  0  0
 13 14  1  0  0  0  0
 13 15  2  0  0  0  0
 14 34  1  0  0  0  0
 14 35  1  0  0  0  0
 14 36  1  0  0  0  0
 16 17  1  0  0  0  0
 16 18  1  0  0  0  0
 16 22  1  0  0  0  0
 17 37  1  0  0  0  0
 18 19  1  0  0  0  0
 18 20  1  0  0  0  0
 18 21  1  0  0  0  0
 22 38  1  0  0  0  0
 22 39  1  0  0  0  0
M  END
> <s_m_source_file>
AV-unprocessed.smi

> <i_m_source_file_index>
2618

> <i_lp_mmshare_version>
43012

> <i_f3d_flags>
0

> <s_epik_input>
W0NIM11PW0NIMl1bQ0gyXUMoW0NIMl0xKT1OTihbQ0BAXTEoW09IXSlDKEYpKEYpRiljMm5jKFtDSDNdKVtjSF1jKG4yKVtDSDNd

> <s_epik_cmdline>
J2VwaWtfcHl0aG9uJywgJy1waCcsICc3LjAnLCAnLXRuJywgJzgnLCAnLW1hJywgJzIwMCcsICctbWV0YWxfYmluZGluZycsICctaW1hZScsICc8aW5maWxlLm1hZT4nLCAnLW9tYWUnLCAnPG91dGZpbGUubWFlPic=

> <r_lp_tautomer_probability>
1

> <r_epik_Ionization_Penalty>
0.0648608

> <r_epik_Ionization_Penalty_Charging>
0

> <r_epik_Ionization_Penalty_Neutral>
0.0648608

> <r_epik_State_Penalty>
0.0551477

> <r_epik_Charging_Adjusted_Penalty>
0.0551477

> <i_epik_Tot_Q>
0

> <i_epik_Tot_abs_Q>
0

> <r_epik_Metal_State_Penalty>
0.0550619

> <b_epik_Metal_Only>
0

> <s_epik_Chemistry_Notes>
This compound has an imine and may undergo hydrolysis.

> <s_lp_Force_Field>
OPLS_2005

> <r_lp_Energy>
16.3005

> <b_lp_Chiralities_Consistent>
1

> <s_lp_Variant>
AV-unprocessed.smi:2618-2

> <Gold.Version>
5.8.1

> <Gold.Id.Protein>
6NUR|6NUR_protein|mol2

> <Gold.PLP.Fitness>
35.6518

> <Gold.PLP.PLP>
-32.9416

> <Gold.PLP.part.hbond>
-1.0000

> <Gold.PLP.part.metal>
0.0000

> <Gold.PLP.part.buried>
-3.5359

> <Gold.PLP.part.nonpolar>
-30.6006

> <Gold.PLP.part.repulsive>
2.4147

> <Gold.PLP.ligand.clash>
0.0000

> <Gold.PLP.ligand.torsion>
0.1941

> <Gold.PLP.Chemscore.Hbond>
1.0000

> <Gold.PLP.Chemscore.CHOScore>
0.0000

> <Gold.PLP.Chemscore.Metal>
0.0000

> <Gold.Chemscore.Hbonds>
donor molecule, donor type, donor heavy atom, donor atom, acceptor molecule, acceptor atom, score
      P1  H  7989  7998       L1    17  1.00

> <Gold.PLP.Chemscore.Internal.Correction>
0.0984

> <Gold.Rescore>
     Score         DG    S(hbond)    S(metal)    S(lipo)     H(rot)  DE(clash)    DE(int)     intcor
      8.00     -12.33       0.71        0.00      82.72       2.03       2.35       1.97       ----

> <Gold.Chemscore.Fitness>
8.0002

> <Gold.Chemscore.DG>
-12.3260

> <Gold.Chemscore.ZeroCoef>
-5.4800

> <Gold.Chemscore.Hbond>
0.7109

> <Gold.Chemscore.Metal>
0.0000

> <Gold.Chemscore.Lipo>
82.7236

> <Gold.Chemscore.Internal_Hbond>
0.0000

> <Gold.Chemscore.DEClash>
2.3520

> <Gold.Chemscore.DEInternal>
1.9738

> <Gold.Chemscore.Rot>
2.0340

> <Gold.Chemscore.Internal.Correction>
   9.000000E+99

> <Gold.Chemscore.Hbonds>
donor molecule, donor type, donor heavy atom, donor atom, acceptor molecule, acceptor atom, score
      P1  H  7989  7998       L1    17  0.37

> <Gold.Chemscore.Hbond.Weighted>
-2.3745

> <Gold.Chemscore.Metal.Weighted>
-0.0000

> <Gold.Chemscore.Lipo.Weighted>
-9.6787

> <Gold.Chemscore.Internal_Hbond.Weighted>
0.0000

> <Gold.Chemscore.DEClash.Weighted>
2.3520

> <Gold.Chemscore.DEInternal.Weighted>
1.9738

> <Gold.Chemscore.Rot.Weighted>
5.2071

> <Gold.Chemscore.Internal.Correction.Weighted>
   9.000000E+99

> <Gold.Protein.RotatedTorsions>
[ 6907 6896 6895 6894 ] final -123.55 input  -60.11 | X-H torsion
[ 7974 7965 7964 7962 ] final  131.50 input  175.53 | X-H torsion
[ 8008 7997 7996 7995 ] final -150.73 input   59.86 | X-H torsion
[ 10167 10162 10161 10158 ] final  -16.87 input  -65.29 | X-H torsion
[ 10718 10713 10712 10709 ] final    9.49 input   66.30 | X-H torsion
[ 10763 10752 10751 10750 ] final   57.97 input  -60.55 | X-H torsion
[ 11005 11000 10999 10996 ] final   19.25 input  -57.11 | X-H torsion

> <Gold.Protein.ActiveResidues>
 VAL166  LYS551  ARG553  GLY616  TRP617  ASP618  TYR619  PRO620  LYS621  CYS622 
 ASP623  PHE694  ASN695  SER759  ASP760  ASP761  ALA762  ILE779  LEU786  VAL792 
 PHE793  MET794  SER795  GLU796  ALA797  LYS798  CYS799  TRP800  GLU811  SER814 

> <Gold.Protein.RotatedAtoms>
  150.8682  133.7544  159.2969 H   0  0  0  0  0  0  0  0  0  0  0  0  # atno 6907 bound_to 6896
  151.5165  135.1065  159.9877 H   0  0  0  0  0  0  0  0  0  0  0  0  # atno 6908 bound_to 6896
  152.4676  133.7912  159.6959 H   0  0  0  0  0  0  0  0  0  0  0  0  # atno 6909 bound_to 6896
  145.0067  139.4260  143.5265 H   0  0  0  0  0  0  0  0  0  0  0  0  # atno 7974 bound_to 7965
  155.6282  140.0688  157.2657 H   0  0  0  0  0  0  0  0  0  0  0  0  # atno 8008 bound_to 7997
  154.4212  140.1772  156.1493 H   0  0  0  0  0  0  0  0  0  0  0  0  # atno 8009 bound_to 7997
  155.9954  140.3341  155.6797 H   0  0  0  0  0  0  0  0  0  0  0  0  # atno 8010 bound_to 7997
  140.7239  143.5073  150.9794 H   0  0  0  0  0  0  0  0  0  0  0  0  # atno 10167 bound_to 10162
  156.9671  130.5955  149.5666 H   0  0  0  0  0  0  0  0  0  0  0  0  # atno 10718 bound_to 10713
  152.9861  135.5623  154.5477 H   0  0  0  0  0  0  0  0  0  0  0  0  # atno 10763 bound_to 10752
  154.4919  135.2793  155.1491 H   0  0  0  0  0  0  0  0  0  0  0  0  # atno 10764 bound_to 10752
  154.2957  135.6317  153.5457 H   0  0  0  0  0  0  0  0  0  0  0  0  # atno 10765 bound_to 10752
  140.4158  134.1570  155.7670 H   0  0  0  0  0  0  0  0  0  0  0  0  # atno 11005 bound_to 11000
  146.3462  139.9487  142.8731 LP  0  0  0  0  0  0  0  0  0  0  0  0  # atno 17320 bound_to 7965
  145.2079  140.9883  143.4117 LP  0  0  0  0  0  0  0  0  0  0  0  0  # atno 17321 bound_to 7965
  139.8785  143.7102  152.3159 LP  0  0  0  0  0  0  0  0  0  0  0  0  # atno 17342 bound_to 10162
  139.7376  144.7567  151.0703 LP  0  0  0  0  0  0  0  0  0  0  0  0  # atno 17343 bound_to 10162
  156.0298  130.5390  150.8504 LP  0  0  0  0  0  0  0  0  0  0  0  0  # atno 17370 bound_to 10713
  157.5618  131.0946  150.9548 LP  0  0  0  0  0  0  0  0  0  0  0  0  # atno 17371 bound_to 10713
  141.1803  133.8427  157.1280 LP  0  0  0  0  0  0  0  0  0  0  0  0  # atno 17394 bound_to 11000
  140.0235  134.9935  157.0639 LP  0  0  0  0  0  0  0  0  0  0  0  0  # atno 17395 bound_to 11000

$$$$
