AV-unprocessed.smi:3283|AV-procd|sdf|12570|dock9
  -GOLD-   2272018493D 1   1.00000     0.00000
 Structure written by MMmdl.
 44 45  0  0  0  0  0  0  0  0  2 V2000
  151.1988  144.9116  159.2266 C   0  0  0  0  0  0  0  0  0  0  0  0
  151.9255  143.5777  159.2671 C   0  0  0  0  0  0  0  0  0  0  0  0
  153.0163  143.4352  160.0441 C   0  0  0  0  0  0  0  0  0  0  0  0
  153.7715  142.1387  160.2227 C   0  0  0  0  0  0  0  0  0  0  0  0
  152.8972  140.9387  159.8519 C   0  0  0  0  0  0  0  0  0  0  0  0
  152.2312  141.1319  158.4797 C   0  0  1  0  0  0  0  0  0  0  0  0
  151.4387  139.8617  158.1130 C   0  0  0  0  0  0  0  0  0  0  0  0
  151.3535  142.4207  158.4219 C   0  0  2  0  0  0  0  0  0  0  0  0
  151.0989  142.8247  156.9454 C   0  0  0  0  0  0  0  0  0  0  0  0
  149.7172  142.5453  156.5049 N   0  3  0  0  0  0  0  0  0  0  0  0
  149.6232  141.8099  155.2284 C   0  0  0  0  0  0  0  0  0  0  0  0
  148.2942  141.0487  155.1086 C   0  0  0  0  0  0  0  0  0  0  0  0
  147.1111  141.9378  154.8726 C   0  0  0  0  0  0  0  0  0  0  0  0
  146.7667  142.6473  153.7560 C   0  0  0  0  0  0  0  0  0  0  0  0
  145.5455  143.2835  154.1099 C   0  0  0  0  0  0  0  0  0  0  0  0
  145.1622  142.9924  155.3404 N   0  0  0  0  0  0  0  0  0  0  0  0
  146.1230  142.1718  155.8154 N   0  0  0  0  0  0  0  0  0  0  0  0
  146.0018  141.6639  157.1696 C   0  0  0  0  0  0  0  0  0  0  0  0
  150.1358  144.7722  159.4218 H   0  0  0  0  0  0  0  0  0  0  0  0
  151.3233  145.3964  158.2587 H   0  0  0  0  0  0  0  0  0  0  0  0
  151.5843  145.5957  159.9832 H   0  0  0  0  0  0  0  0  0  0  0  0
  153.3954  144.2787  160.6028 H   0  0  0  0  0  0  0  0  0  0  0  0
  154.6712  142.1704  159.6073 H   0  0  0  0  0  0  0  0  0  0  0  0
  154.0946  142.0522  161.2605 H   0  0  0  0  0  0  0  0  0  0  0  0
  153.5053  140.0333  159.8577 H   0  0  0  0  0  0  0  0  0  0  0  0
  152.1291  140.7991  160.6142 H   0  0  0  0  0  0  0  0  0  0  0  0
  153.0376  141.2399  157.7521 H   0  0  0  0  0  0  0  0  0  0  0  0
  150.6084  139.7024  158.8017 H   0  0  0  0  0  0  0  0  0  0  0  0
  152.0761  138.9781  158.1601 H   0  0  0  0  0  0  0  0  0  0  0  0
  151.0290  139.9008  157.1051 H   0  0  0  0  0  0  0  0  0  0  0  0
  150.3937  142.1757  158.8796 H   0  0  0  0  0  0  0  0  0  0  0  0
  151.3211  143.8842  156.8094 H   0  0  0  0  0  0  0  0  0  0  0  0
  151.7608  142.2849  156.2701 H   0  0  0  0  0  0  0  0  0  0  0  0
  149.2557  142.0038  157.2223 H   0  0  0  0  0  0  0  0  0  0  0  0
  149.7137  142.5188  154.4043 H   0  0  0  0  0  0  0  0  0  0  0  0
  150.4598  141.1144  155.1464 H   0  0  0  0  0  0  0  0  0  0  0  0
  148.3714  140.2980  154.3222 H   0  0  0  0  0  0  0  0  0  0  0  0
  148.1300  140.4869  156.0288 H   0  0  0  0  0  0  0  0  0  0  0  0
  147.3067  142.7021  152.8222 H   0  0  0  0  0  0  0  0  0  0  0  0
  144.9300  143.9404  153.5131 H   0  0  0  0  0  0  0  0  0  0  0  0
  146.9529  141.7602  157.6931 H   0  0  0  0  0  0  0  0  0  0  0  0
  145.7079  140.6154  157.1433 H   0  0  0  0  0  0  0  0  0  0  0  0
  145.2468  142.2247  157.7227 H   0  0  0  0  0  0  0  0  0  0  0  0
  149.2324  143.4254  156.4031 H   0  0  0  0  0  0  0  0  0  0  0  0
  1  2  1  0  0  0  0
  1 19  1  0  0  0  0
  1 20  1  0  0  0  0
  1 21  1  0  0  0  0
  2  8  1  0  0  0  0
  2  3  2  0  0  0  0
  3  4  1  0  0  0  0
  3 22  1  0  0  0  0
  4  5  1  0  0  0  0
  4 23  1  0  0  0  0
  4 24  1  0  0  0  0
  5  6  1  0  0  0  0
  5 25  1  0  0  0  0
  5 26  1  0  0  0  0
  6  7  1  0  0  0  0
  6  8  1  0  0  0  0
  6 27  1  0  0  0  0
  7 28  1  0  0  0  0
  7 29  1  0  0  0  0
  7 30  1  0  0  0  0
  8  9  1  0  0  0  0
  8 31  1  0  0  0  0
  9 10  1  0  0  0  0
  9 32  1  0  0  0  0
  9 33  1  0  0  0  0
 10 11  1  0  0  0  0
 10 34  1  0  0  0  0
 10 44  1  0  0  0  0
 11 12  1  0  0  0  0
 11 35  1  0  0  0  0
 11 36  1  0  0  0  0
 12 13  1  0  0  0  0
 12 37  1  0  0  0  0
 12 38  1  0  0  0  0
 13 17  1  0  0  0  0
 13 14  2  0  0  0  0
 14 15  1  0  0  0  0
 14 39  1  0  0  0  0
 15 16  2  0  0  0  0
 15 40  1  0  0  0  0
 16 17  1  0  0  0  0
 17 18  1  0  0  0  0
 18 41  1  0  0  0  0
 18 42  1  0  0  0  0
 18 43  1  0  0  0  0
M  CHG  1  10   1
M  END
> <s_m_source_file>
AV-unprocessed.smi

> <i_m_source_file_index>
3283

> <i_lp_mmshare_version>
43012

> <i_f3d_flags>
0

> <s_epik_input>
W0NIM11DMT1bQ0hdW0NIMl1bQ0gyXVtDQEBIXShbQ0gzXSlbQ0BIXTFbQ0gyXVtOSF1bQ0gyXVtDSDJdYzJbY0hdW2NIXW5uMltDSDNd

> <s_epik_cmdline>
J2VwaWtfcHl0aG9uJywgJy1waCcsICc3LjAnLCAnLXRuJywgJzgnLCAnLW1hJywgJzIwMCcsICctbWV0YWxfYmluZGluZycsICctaW1hZScsICc8aW5maWxlLm1hZT4nLCAnLW9tYWUnLCAnPG91dGZpbGUubWFlPic=

> <r_lp_tautomer_probability>
1

> <r_epik_Ionization_Penalty>
0.000866911

> <r_epik_Ionization_Penalty_Charging>
0.000836385

> <r_epik_Ionization_Penalty_Neutral>
3.05258e-05

> <r_epik_State_Penalty>
-0

> <r_epik_Charging_Adjusted_Penalty>
0.000836385

> <i_epik_Tot_Q>
1

> <i_epik_Tot_abs_Q>
1

> <r_epik_Metal_State_Penalty>
-0

> <b_epik_Metal_Only>
0

> <s_lp_Force_Field>
OPLS_2005

> <r_lp_Energy>
14.6104

> <b_lp_Chiralities_Consistent>
1

> <s_lp_Variant>
AV-unprocessed.smi:3283-3

> <Gold.Version>
5.8.1

> <Gold.Id.Protein>
6NUR|6NUR_protein|mol2

> <Gold.PLP.Fitness>
45.0273

> <Gold.PLP.PLP>
-41.6049

> <Gold.PLP.part.hbond>
-0.9905

> <Gold.PLP.part.metal>
0.0000

> <Gold.PLP.part.buried>
-5.8203

> <Gold.PLP.part.nonpolar>
-35.5049

> <Gold.PLP.part.repulsive>
0.2440

> <Gold.PLP.ligand.clash>
0.0000

> <Gold.PLP.ligand.torsion>
1.3151

> <Gold.PLP.Chemscore.Hbond>
2.0000

> <Gold.PLP.Chemscore.CHOScore>
0.0000

> <Gold.PLP.Chemscore.Metal>
0.0000

> <Gold.Chemscore.Hbonds>
donor molecule, donor type, donor heavy atom, donor atom, acceptor molecule, acceptor atom, score
      L1  H    10    44       P1  8028  2.00

> <Gold.PLP.Chemscore.Internal.Correction>
0.0527

> <Gold.Rescore>
     Score         DG    S(hbond)    S(metal)    S(lipo)     H(rot)  DE(clash)    DE(int)     intcor
     17.66     -19.05       1.00        0.00     120.01       1.48       0.04       1.36       ----

> <Gold.Chemscore.Fitness>
17.6611

> <Gold.Chemscore.DG>
-19.0532

> <Gold.Chemscore.ZeroCoef>
-5.4800

> <Gold.Chemscore.Hbond>
0.9978

> <Gold.Chemscore.Metal>
0.0000

> <Gold.Chemscore.Lipo>
120.0112

> <Gold.Chemscore.Internal_Hbond>
0.0000

> <Gold.Chemscore.DEClash>
0.0360

> <Gold.Chemscore.DEInternal>
1.3561

> <Gold.Chemscore.Rot>
1.4847

> <Gold.Chemscore.Internal.Correction>
   9.000000E+99

> <Gold.Chemscore.Hbonds>
donor molecule, donor type, donor heavy atom, donor atom, acceptor molecule, acceptor atom, score
      L1  H    10    44       P1  8028  0.91

> <Gold.Chemscore.Hbond.Weighted>
-3.3327

> <Gold.Chemscore.Metal.Weighted>
-0.0000

> <Gold.Chemscore.Lipo.Weighted>
-14.0413

> <Gold.Chemscore.Internal_Hbond.Weighted>
0.0000

> <Gold.Chemscore.DEClash.Weighted>
0.0360

> <Gold.Chemscore.DEInternal.Weighted>
1.3561

> <Gold.Chemscore.Rot.Weighted>
3.8008

> <Gold.Chemscore.Internal.Correction.Weighted>
   9.000000E+99

> <Gold.Protein.RotatedTorsions>
[ 6907 6896 6895 6894 ] final  -55.84 input  -60.11 | X-H torsion
[ 7974 7965 7964 7962 ] final -110.40 input  175.53 | X-H torsion
[ 8008 7997 7996 7995 ] final  -22.91 input   59.86 | X-H torsion
[ 10167 10162 10161 10158 ] final   37.63 input  -65.29 | X-H torsion
[ 10718 10713 10712 10709 ] final  163.98 input   66.30 | X-H torsion
[ 10763 10752 10751 10750 ] final  125.12 input  -60.55 | X-H torsion
[ 11005 11000 10999 10996 ] final  -71.29 input  -57.11 | X-H torsion

> <Gold.Protein.ActiveResidues>
 VAL166  LYS551  ARG553  GLY616  TRP617  ASP618  TYR619  PRO620  LYS621  CYS622 
 ASP623  PHE694  ASN695  SER759  ASP760  ASP761  ALA762  ILE779  LEU786  VAL792 
 PHE793  MET794  SER795  GLU796  ALA797  LYS798  CYS799  TRP800  GLU811  SER814 

> <Gold.Protein.RotatedAtoms>
  150.8217  134.7428  159.6777 H   0  0  0  0  0  0  0  0  0  0  0  0  # atno 6907 bound_to 6896
  152.4332  134.5734  159.9937 H   0  0  0  0  0  0  0  0  0  0  0  0  # atno 6908 bound_to 6896
  151.5916  133.3328  159.3065 H   0  0  0  0  0  0  0  0  0  0  0  0  # atno 6909 bound_to 6896
  145.1687  140.8915  143.3548 H   0  0  0  0  0  0  0  0  0  0  0  0  # atno 7974 bound_to 7965
  154.4616  140.1995  156.0229 H   0  0  0  0  0  0  0  0  0  0  0  0  # atno 8008 bound_to 7997
  156.0851  140.3266  155.7714 H   0  0  0  0  0  0  0  0  0  0  0  0  # atno 8009 bound_to 7997
  155.5049  140.0557  157.2924 H   0  0  0  0  0  0  0  0  0  0  0  0  # atno 8010 bound_to 7997
  140.4014  144.1719  150.6134 H   0  0  0  0  0  0  0  0  0  0  0  0  # atno 10167 bound_to 10162
  157.1008  131.0442  151.2498 H   0  0  0  0  0  0  0  0  0  0  0  0  # atno 10718 bound_to 10713
  153.6722  135.3328  155.3156 H   0  0  0  0  0  0  0  0  0  0  0  0  # atno 10763 bound_to 10752
  154.8488  135.4389  154.1693 H   0  0  0  0  0  0  0  0  0  0  0  0  # atno 10764 bound_to 10752
  153.2687  135.6998  153.7579 H   0  0  0  0  0  0  0  0  0  0  0  0  # atno 10765 bound_to 10752
  141.1589  133.6813  156.6883 H   0  0  0  0  0  0  0  0  0  0  0  0  # atno 11005 bound_to 11000
  145.0255  139.3386  143.6051 LP  0  0  0  0  0  0  0  0  0  0  0  0  # atno 17320 bound_to 7965
  146.3472  139.9572  142.8721 LP  0  0  0  0  0  0  0  0  0  0  0  0  # atno 17321 bound_to 7965
  140.4736  143.2404  151.9054 LP  0  0  0  0  0  0  0  0  0  0  0  0  # atno 17342 bound_to 10162
  139.4784  144.5344  151.8620 LP  0  0  0  0  0  0  0  0  0  0  0  0  # atno 17343 bound_to 10162
  157.4642  130.7671  149.7264 LP  0  0  0  0  0  0  0  0  0  0  0  0  # atno 17370 bound_to 10713
  155.9874  130.3967  150.3166 LP  0  0  0  0  0  0  0  0  0  0  0  0  # atno 17371 bound_to 10713
  140.3050  134.8133  157.4129 LP  0  0  0  0  0  0  0  0  0  0  0  0  # atno 17394 bound_to 11000
  140.1228  134.5197  155.8169 LP  0  0  0  0  0  0  0  0  0  0  0  0  # atno 17395 bound_to 11000

$$$$
