AV-unprocessed.smi:906|AV-procd|sdf|4102|dock2
  -GOLD-   22720 1593D 1   1.00000     0.00000
 Structure written by MMmdl.
 48 49  0  0  0  0  0  0  0  0  2 V2000
  143.4644  132.4114  151.0427 C   0  0  0  0  0  0  0  0  0  0  0  0
  144.0975  133.6392  151.6617 C   0  0  0  0  0  0  0  0  0  0  0  0
  144.8595  134.5568  150.9073 C   0  0  0  0  0  0  0  0  0  0  0  0
  145.4247  135.6761  151.5523 C   0  0  0  0  0  0  0  0  0  0  0  0
  145.2176  135.8555  152.9379 C   0  0  0  0  0  0  0  0  0  0  0  0
  145.8427  137.0293  153.6718 C   0  0  0  0  0  0  0  0  0  0  0  0
  147.2256  136.7145  154.2750 C   0  0  0  0  0  0  0  0  0  0  0  0
  148.0299  137.9168  154.4824 N   0  0  0  0  0  0  0  0  0  0  0  0
  149.3330  137.9458  154.8131 C   0  0  0  0  0  0  0  0  0  0  0  0
  149.9943  136.9180  154.9685 O   0  0  0  0  0  0  0  0  0  0  0  0
  149.8687  139.1887  154.8820 N   0  0  0  0  0  0  0  0  0  0  0  0
  149.1735  140.4213  155.2802 C   0  0  0  0  0  0  0  0  0  0  0  0
  149.6688  140.8422  156.6774 C   0  0  0  0  0  0  0  0  0  0  0  0
  151.1232  141.0517  156.6560 N   0  0  0  0  0  0  0  0  0  0  0  0
  151.6977  141.5784  157.9058 C   0  0  2  0  0  0  0  0  0  0  0  0
  151.3951  140.7100  159.1469 C   0  0  0  0  0  0  0  0  0  0  0  0
  151.3358  143.0670  158.1257 C   0  0  0  0  0  0  0  0  0  0  0  0
  151.6016  143.7742  157.0267 F   0  0  0  0  0  0  0  0  0  0  0  0
  150.0533  143.2330  158.4488 F   0  0  0  0  0  0  0  0  0  0  0  0
  152.0800  143.5541  159.1185 F   0  0  0  0  0  0  0  0  0  0  0  0
  151.8186  139.8395  156.2066 C   0  0  0  0  0  0  0  0  0  0  0  0
  151.3124  139.4286  154.8112 C   0  0  0  0  0  0  0  0  0  0  0  0
  144.4401  134.9088  153.6389 C   0  0  0  0  0  0  0  0  0  0  0  0
  143.9176  133.8488  152.9851 N   0  3  0  0  0  0  0  0  0  0  0  0
  143.7240  132.3255  149.9870 H   0  0  0  0  0  0  0  0  0  0  0  0
  142.3782  132.4622  151.1236 H   0  0  0  0  0  0  0  0  0  0  0  0
  143.8068  131.5095  151.5509 H   0  0  0  0  0  0  0  0  0  0  0  0
  145.0151  134.4047  149.8491 H   0  0  0  0  0  0  0  0  0  0  0  0
  146.0203  136.3806  150.9899 H   0  0  0  0  0  0  0  0  0  0  0  0
  145.9246  137.8770  152.9900 H   0  0  0  0  0  0  0  0  0  0  0  0
  145.1625  137.3441  154.4640 H   0  0  0  0  0  0  0  0  0  0  0  0
  147.0966  136.2268  155.2414 H   0  0  0  0  0  0  0  0  0  0  0  0
  147.7588  135.9995  153.6462 H   0  0  0  0  0  0  0  0  0  0  0  0
  147.5613  138.8022  154.3552 H   0  0  0  0  0  0  0  0  0  0  0  0
  149.3873  141.2067  154.5535 H   0  0  0  0  0  0  0  0  0  0  0  0
  148.0880  140.3281  155.2979 H   0  0  0  0  0  0  0  0  0  0  0  0
  149.1546  141.7555  156.9692 H   0  0  0  0  0  0  0  0  0  0  0  0
  149.4040  140.0742  157.4048 H   0  0  0  0  0  0  0  0  0  0  0  0
  152.7794  141.5656  157.7645 H   0  0  0  0  0  0  0  0  0  0  0  0
  151.9367  141.0839  160.0160 H   0  0  0  0  0  0  0  0  0  0  0  0
  151.6986  139.6731  159.0073 H   0  0  0  0  0  0  0  0  0  0  0  0
  150.3358  140.7195  159.4032 H   0  0  0  0  0  0  0  0  0  0  0  0
  152.8922  140.0247  156.1588 H   0  0  0  0  0  0  0  0  0  0  0  0
  151.6628  139.0228  156.9119 H   0  0  0  0  0  0  0  0  0  0  0  0
  151.8650  138.5572  154.4578 H   0  0  0  0  0  0  0  0  0  0  0  0
  151.5146  140.2195  154.0872 H   0  0  0  0  0  0  0  0  0  0  0  0
  144.2349  134.9584  154.6982 H   0  0  0  0  0  0  0  0  0  0  0  0
  143.3665  133.1735  153.5154 H   0  0  0  0  0  0  0  0  0  0  0  0
  1  2  1  0  0  0  0
  1 25  1  0  0  0  0
  1 26  1  0  0  0  0
  1 27  1  0  0  0  0
  2 24  1  0  0  0  0
  2  3  2  0  0  0  0
  3  4  1  0  0  0  0
  3 28  1  0  0  0  0
  4  5  2  0  0  0  0
  4 29  1  0  0  0  0
  5  6  1  0  0  0  0
  5 23  1  0  0  0  0
  6  7  1  0  0  0  0
  6 30  1  0  0  0  0
  6 31  1  0  0  0  0
  7  8  1  0  0  0  0
  7 32  1  0  0  0  0
  7 33  1  0  0  0  0
  8  9  1  0  0  0  0
  8 34  1  0  0  0  0
  9 10  2  0  0  0  0
  9 11  1  0  0  0  0
 11 22  1  0  0  0  0
 11 12  1  0  0  0  0
 12 13  1  0  0  0  0
 12 35  1  0  0  0  0
 12 36  1  0  0  0  0
 13 14  1  0  0  0  0
 13 37  1  0  0  0  0
 13 38  1  0  0  0  0
 14 15  1  0  0  0  0
 14 21  1  0  0  0  0
 15 16  1  0  0  0  0
 15 17  1  0  0  0  0
 15 39  1  0  0  0  0
 16 40  1  0  0  0  0
 16 41  1  0  0  0  0
 16 42  1  0  0  0  0
 17 18  1  0  0  0  0
 17 19  1  0  0  0  0
 17 20  1  0  0  0  0
 21 22  1  0  0  0  0
 21 43  1  0  0  0  0
 21 44  1  0  0  0  0
 22 45  1  0  0  0  0
 22 46  1  0  0  0  0
 23 24  2  0  0  0  0
 23 47  1  0  0  0  0
 24 48  1  0  0  0  0
M  CHG  1  24   1
M  END
> <s_m_source_file>
AV-unprocessed.smi

> <i_m_source_file_index>
906

> <i_lp_mmshare_version>
43012

> <i_f3d_flags>
0

> <s_epik_input>
W0NIM11jMVtjSF1bY0hdYyhbY0hdbjEpW0NIMl1bQ0gyXVtOSF1DKD1PKU4yW0NIMl1bQ0gyXU4oW0NASF0oW0NIM10pQyhGKShGKUYpW0NIMl1bQ0gyXTI=

> <s_epik_cmdline>
J2VwaWtfcHl0aG9uJywgJy1waCcsICc3LjAnLCAnLXRuJywgJzgnLCAnLW1hJywgJzIwMCcsICctbWV0YWxfYmluZGluZycsICctaW1hZScsICc8aW5maWxlLm1hZT4nLCAnLW9tYWUnLCAnPG91dGZpbGUubWFlPic=

> <r_epik_Ionization_Penalty>
1.4413

> <r_epik_Ionization_Penalty_Charging>
1.42075

> <r_epik_Ionization_Penalty_Neutral>
0.0205507

> <r_epik_State_Penalty>
1.52216

> <r_epik_Charging_Adjusted_Penalty>
2.94291

> <i_epik_Tot_Q>
1

> <i_epik_Tot_abs_Q>
1

> <r_epik_Metal_State_Penalty>
1.57308

> <b_epik_Metal_Only>
0

> <s_lp_Force_Field>
OPLS_2005

> <r_lp_Energy>
52.9553

> <b_lp_Chiralities_Consistent>
1

> <s_lp_Variant>
AV-unprocessed.smi:906-3

> <Gold.Version>
5.8.1

> <Gold.Id.Protein>
6NUR|6NUR_protein|mol2

> <Gold.PLP.Fitness>
41.0960

> <Gold.PLP.PLP>
-36.4103

> <Gold.PLP.part.hbond>
-1.3746

> <Gold.PLP.part.metal>
0.0000

> <Gold.PLP.part.buried>
-2.2980

> <Gold.PLP.part.nonpolar>
-33.4726

> <Gold.PLP.part.repulsive>
0.2047

> <Gold.PLP.ligand.clash>
0.0000

> <Gold.PLP.ligand.torsion>
1.0565

> <Gold.PLP.Chemscore.Hbond>
2.0000

> <Gold.PLP.Chemscore.CHOScore>
0.0000

> <Gold.PLP.Chemscore.Metal>
0.0000

> <Gold.Chemscore.Hbonds>
donor molecule, donor type, donor heavy atom, donor atom, acceptor molecule, acceptor atom, score
      L1  H    24    48       P1 10957  2.00

> <Gold.PLP.Chemscore.Internal.Correction>
0.7987

> <Gold.Rescore>
     Score         DG    S(hbond)    S(metal)    S(lipo)     H(rot)  DE(clash)    DE(int)     intcor
     11.87     -13.51       0.99        0.00      76.43       1.66       0.44       1.20       ----

> <Gold.Chemscore.Fitness>
11.8666

> <Gold.Chemscore.DG>
-13.5067

> <Gold.Chemscore.ZeroCoef>
-5.4800

> <Gold.Chemscore.Hbond>
0.9946

> <Gold.Chemscore.Metal>
0.0000

> <Gold.Chemscore.Lipo>
76.4305

> <Gold.Chemscore.Internal_Hbond>
0.0000

> <Gold.Chemscore.DEClash>
0.4429

> <Gold.Chemscore.DEInternal>
1.1972

> <Gold.Chemscore.Rot>
1.6553

> <Gold.Chemscore.Internal.Correction>
   9.000000E+99

> <Gold.Chemscore.Hbonds>
donor molecule, donor type, donor heavy atom, donor atom, acceptor molecule, acceptor atom, score
      L1  H    24    48       P1 10957  0.90

> <Gold.Chemscore.Hbond.Weighted>
-3.3220

> <Gold.Chemscore.Metal.Weighted>
-0.0000

> <Gold.Chemscore.Lipo.Weighted>
-8.9424

> <Gold.Chemscore.Internal_Hbond.Weighted>
0.0000

> <Gold.Chemscore.DEClash.Weighted>
0.4429

> <Gold.Chemscore.DEInternal.Weighted>
1.1972

> <Gold.Chemscore.Rot.Weighted>
4.2376

> <Gold.Chemscore.Internal.Correction.Weighted>
   9.000000E+99

> <Gold.Protein.RotatedTorsions>
[ 6907 6896 6895 6894 ] final -177.70 input  -60.11 | X-H torsion
[ 7974 7965 7964 7962 ] final  -54.62 input  175.53 | X-H torsion
[ 8008 7997 7996 7995 ] final -171.97 input   59.86 | X-H torsion
[ 10167 10162 10161 10158 ] final -107.34 input  -65.29 | X-H torsion
[ 10718 10713 10712 10709 ] final -150.51 input   66.30 | X-H torsion
[ 10763 10752 10751 10750 ] final  165.67 input  -60.55 | X-H torsion
[ 11005 11000 10999 10996 ] final  -24.70 input  -57.11 | X-H torsion

> <Gold.Protein.ActiveResidues>
 VAL166  LYS551  ARG553  GLY616  TRP617  ASP618  TYR619  PRO620  LYS621  CYS622 
 ASP623  PHE694  ASN695  SER759  ASP760  ASP761  ALA762  ILE779  LEU786  VAL792 
 PHE793  MET794  SER795  GLU796  ALA797  LYS798  CYS799  TRP800  GLU811  SER814 

> <Gold.Protein.RotatedAtoms>
  151.6252  133.3336  159.3096 H   0  0  0  0  0  0  0  0  0  0  0  0  # atno 6907 bound_to 6896
  150.8085  134.7229  159.6678 H   0  0  0  0  0  0  0  0  0  0  0  0  # atno 6908 bound_to 6896
  152.4181  134.6009  160.0051 H   0  0  0  0  0  0  0  0  0  0  0  0  # atno 6909 bound_to 6896
  145.8835  140.8126  142.9828 H   0  0  0  0  0  0  0  0  0  0  0  0  # atno 7974 bound_to 7965
  155.9385  140.1104  157.1074 H   0  0  0  0  0  0  0  0  0  0  0  0  # atno 8008 bound_to 7997
  154.4084  140.1223  156.4962 H   0  0  0  0  0  0  0  0  0  0  0  0  # atno 8009 bound_to 7997
  155.6991  140.3472  155.4928 H   0  0  0  0  0  0  0  0  0  0  0  0  # atno 8010 bound_to 7997
  140.1780  143.3989  152.1303 H   0  0  0  0  0  0  0  0  0  0  0  0  # atno 10167 bound_to 10162
  156.4470  130.8149  151.2380 H   0  0  0  0  0  0  0  0  0  0  0  0  # atno 10718 bound_to 10713
  154.3275  135.2755  155.2488 H   0  0  0  0  0  0  0  0  0  0  0  0  # atno 10763 bound_to 10752
  154.4814  135.5857  153.6396 H   0  0  0  0  0  0  0  0  0  0  0  0  # atno 10764 bound_to 10752
  152.9870  135.6112  154.3465 H   0  0  0  0  0  0  0  0  0  0  0  0  # atno 10765 bound_to 10752
  140.8870  133.7615  156.0372 H   0  0  0  0  0  0  0  0  0  0  0  0  # atno 11005 bound_to 11000
  144.6728  140.1420  143.7436 LP  0  0  0  0  0  0  0  0  0  0  0  0  # atno 17320 bound_to 7965
  145.8995  139.2422  143.1502 LP  0  0  0  0  0  0  0  0  0  0  0  0  # atno 17321 bound_to 7965
  139.5308  144.7157  151.5062 LP  0  0  0  0  0  0  0  0  0  0  0  0  # atno 17342 bound_to 10162
  140.6538  143.8641  150.6814 LP  0  0  0  0  0  0  0  0  0  0  0  0  # atno 17343 bound_to 10162
  157.7504  131.0150  150.3486 LP  0  0  0  0  0  0  0  0  0  0  0  0  # atno 17370 bound_to 10713
  156.3856  130.3888  149.7068 LP  0  0  0  0  0  0  0  0  0  0  0  0  # atno 17371 bound_to 10713
  140.8393  134.3085  157.5319 LP  0  0  0  0  0  0  0  0  0  0  0  0  # atno 17394 bound_to 11000
  139.8725  134.9407  156.3777 LP  0  0  0  0  0  0  0  0  0  0  0  0  # atno 17395 bound_to 11000

$$$$
