AV-unprocessed.smi:3250|AV-procd|sdf|12432|dock5
  -GOLD-   2272018323D 1   1.00000     0.00000
 Structure written by MMmdl.
 40 41  0  0  0  0  0  0  0  0  3 V2000
  146.4409  138.4397  152.0045 C   0  0  0  0  0  0  0  0  0  0  0  0
  147.4494  139.2948  152.7842 C   0  0  0  0  0  0  0  0  0  0  0  0
  148.2132  138.5013  153.7838 N   0  3  2  0  0  0  0  0  0  0  0  0
  147.4315  138.0849  154.9762 C   0  0  0  0  0  0  0  0  0  0  0  0
  147.2624  139.2463  155.9741 C   0  0  0  0  0  0  0  0  0  0  0  0
  148.5383  139.7723  156.3195 O   0  0  0  0  0  0  0  0  0  0  0  0
  149.2367  140.2935  155.1932 C   0  0  1  0  0  0  0  0  0  0  0  0
  150.5553  140.9116  155.6892 C   0  0  0  0  0  0  0  0  0  0  0  0
  150.3644  142.2312  156.2771 N   0  0  0  0  0  0  0  0  0  0  0  0
  150.9437  142.6483  157.4628 C   0  0  0  0  0  0  0  0  0  0  0  0
  150.6832  143.8969  157.8767 N   0  3  0  0  0  0  0  0  0  0  0  0
  151.2350  144.3539  159.0281 C   0  0  0  0  0  0  0  0  0  0  0  0
  152.0811  143.5263  159.7884 C   0  0  0  0  0  0  0  0  0  0  0  0
  152.3124  142.2310  159.2983 C   0  0  0  0  0  0  0  0  0  0  0  0
  153.1389  141.3742  159.9958 O   0  0  0  0  0  0  0  0  0  0  0  0
  153.5393  141.7434  161.3114 C   0  0  0  0  0  0  0  0  0  0  0  0
  151.7394  141.8123  158.1454 N   0  0  0  0  0  0  0  0  0  0  0  0
  149.4864  139.1404  154.1989 C   0  0  0  0  0  0  0  0  0  0  0  0
  145.9693  139.0278  151.2170 H   0  0  0  0  0  0  0  0  0  0  0  0
  145.6441  138.0608  152.6437 H   0  0  0  0  0  0  0  0  0  0  0  0
  146.9285  137.5871  151.5311 H   0  0  0  0  0  0  0  0  0  0  0  0
  148.1467  139.7212  152.0620 H   0  0  0  0  0  0  0  0  0  0  0  0
  146.9457  140.1383  153.2561 H   0  0  0  0  0  0  0  0  0  0  0  0
  146.4621  137.6765  154.6936 H   0  0  0  0  0  0  0  0  0  0  0  0
  147.9703  137.2723  155.4656 H   0  0  0  0  0  0  0  0  0  0  0  0
  146.6277  140.0345  155.5673 H   0  0  0  0  0  0  0  0  0  0  0  0
  146.7740  138.8892  156.8809 H   0  0  0  0  0  0  0  0  0  0  0  0
  148.6320  141.0628  154.7111 H   0  0  0  0  0  0  0  0  0  0  0  0
  151.0196  140.2604  156.4303 H   0  0  0  0  0  0  0  0  0  0  0  0
  151.2648  140.9948  154.8651 H   0  0  0  0  0  0  0  0  0  0  0  0
  149.8375  142.9132  155.7507 H   0  0  0  0  0  0  0  0  0  0  0  0
  150.9826  145.3680  159.3017 H   0  0  0  0  0  0  0  0  0  0  0  0
  152.5326  143.8717  160.7069 H   0  0  0  0  0  0  0  0  0  0  0  0
  154.1786  140.9641  161.7259 H   0  0  0  0  0  0  0  0  0  0  0  0
  152.6804  141.8548  161.9750 H   0  0  0  0  0  0  0  0  0  0  0  0
  154.1110  142.6726  161.3077 H   0  0  0  0  0  0  0  0  0  0  0  0
  150.1131  138.3811  154.6693 H   0  0  0  0  0  0  0  0  0  0  0  0
  150.0374  139.4919  153.3257 H   0  0  0  0  0  0  0  0  0  0  0  0
  148.4746  137.6534  153.3003 H   0  0  0  0  0  0  0  0  0  0  0  0
  150.0732  144.5115  157.3369 H   0  0  0  0  0  0  0  0  0  0  0  0
  1  2  1  0  0  0  0
  1 19  1  0  0  0  0
  1 20  1  0  0  0  0
  1 21  1  0  0  0  0
  2  3  1  0  0  0  0
  2 22  1  0  0  0  0
  2 23  1  0  0  0  0
  3 18  1  0  0  0  0
  3  4  1  0  0  0  0
  3 39  1  0  0  0  0
  4  5  1  0  0  0  0
  4 24  1  0  0  0  0
  4 25  1  0  0  0  0
  5  6  1  0  0  0  0
  5 26  1  0  0  0  0
  5 27  1  0  0  0  0
  6  7  1  0  0  0  0
  7  8  1  0  0  0  0
  7 18  1  0  0  0  0
  7 28  1  0  0  0  0
  8  9  1  0  0  0  0
  8 29  1  0  0  0  0
  8 30  1  0  0  0  0
  9 10  1  0  0  0  0
  9 31  1  0  0  0  0
 10 17  1  0  0  0  0
 10 11  2  0  0  0  0
 11 12  1  0  0  0  0
 11 40  1  0  0  0  0
 12 13  2  0  0  0  0
 12 32  1  0  0  0  0
 13 14  1  0  0  0  0
 13 33  1  0  0  0  0
 14 15  1  0  0  0  0
 14 17  2  0  0  0  0
 15 16  1  0  0  0  0
 16 34  1  0  0  0  0
 16 35  1  0  0  0  0
 16 36  1  0  0  0  0
 18 37  1  0  0  0  0
 18 38  1  0  0  0  0
M  CHG  1   3   1
M  CHG  1  11   1
M  END
> <s_m_source_file>
AV-unprocessed.smi

> <i_m_source_file_index>
3250

> <i_lp_mmshare_version>
43012

> <i_f3d_flags>
0

> <s_epik_input>
W0NIM11bQ0gyXU4xW0NIMl1bQ0gyXU9bQ0BIXShbQ0gyXTEpW0NIMl1bTkhdYzJuW2NIXVtjSF1jKG4yKU9bQ0gzXQ==

> <s_epik_cmdline>
J2VwaWtfcHl0aG9uJywgJy1waCcsICc3LjAnLCAnLXRuJywgJzgnLCAnLW1hJywgJzIwMCcsICctbWV0YWxfYmluZGluZycsICctaW1hZScsICc8aW5maWxlLm1hZT4nLCAnLW9tYWUnLCAnPG91dGZpbGUubWFlPic=

> <r_lp_tautomer_probability>
0.999985

> <r_epik_Ionization_Penalty>
2.24691

> <r_epik_Ionization_Penalty_Charging>
2.24686

> <r_epik_Ionization_Penalty_Neutral>
4.52111e-05

> <r_epik_State_Penalty>
2.24709

> <r_epik_Charging_Adjusted_Penalty>
4.49395

> <i_epik_Tot_Q>
2

> <i_epik_Tot_abs_Q>
2

> <r_epik_Metal_State_Penalty>
2.26327

> <b_epik_Metal_Only>
0

> <s_lp_Force_Field>
OPLS_2005

> <r_lp_Energy>
19.5656

> <b_lp_Chiralities_Consistent>
1

> <s_lp_Variant>
AV-unprocessed.smi:3250-8

> <Gold.Version>
5.8.1

> <Gold.Id.Protein>
6NUR|6NUR_protein|mol2

> <Gold.PLP.Fitness>
50.1271

> <Gold.PLP.PLP>
-33.3998

> <Gold.PLP.part.hbond>
-3.2397

> <Gold.PLP.part.metal>
0.0000

> <Gold.PLP.part.buried>
0.0590

> <Gold.PLP.part.nonpolar>
-30.1154

> <Gold.PLP.part.repulsive>
0.1522

> <Gold.PLP.ligand.clash>
0.0000

> <Gold.PLP.ligand.torsion>
0.5029

> <Gold.PLP.Chemscore.Hbond>
5.9040

> <Gold.PLP.Chemscore.CHOScore>
0.0000

> <Gold.PLP.Chemscore.Metal>
0.0000

> <Gold.Chemscore.Hbonds>
donor molecule, donor type, donor heavy atom, donor atom, acceptor molecule, acceptor atom, score
      L1  H     3    39       P1  7948  1.82
      L1  H     9    31       P1  8028  1.93
      L1  H    11    40       P1  8028  1.92

> <Gold.PLP.Chemscore.Internal.Correction>
0.0211

> <Gold.Rescore>
     Score         DG    S(hbond)    S(metal)    S(lipo)     H(rot)  DE(clash)    DE(int)     intcor
     16.26     -16.82       2.27        0.00      70.52       1.75       0.10       0.46       ----

> <Gold.Chemscore.Fitness>
16.2581

> <Gold.Chemscore.DG>
-16.8176

> <Gold.Chemscore.ZeroCoef>
-5.4800

> <Gold.Chemscore.Hbond>
2.2678

> <Gold.Chemscore.Metal>
0.0000

> <Gold.Chemscore.Lipo>
70.5187

> <Gold.Chemscore.Internal_Hbond>
0.0000

> <Gold.Chemscore.DEClash>
0.1031

> <Gold.Chemscore.DEInternal>
0.4563

> <Gold.Chemscore.Rot>
1.7530

> <Gold.Chemscore.Internal.Correction>
   9.000000E+99

> <Gold.Chemscore.Hbonds>
donor molecule, donor type, donor heavy atom, donor atom, acceptor molecule, acceptor atom, score
      L1  H     3    39       P1  7948  0.87
      L1  H     9    31       P1  8028  0.86
      L1  H    11    40       P1  8028  0.30

> <Gold.Chemscore.Hbond.Weighted>
-7.5745

> <Gold.Chemscore.Metal.Weighted>
-0.0000

> <Gold.Chemscore.Lipo.Weighted>
-8.2507

> <Gold.Chemscore.Internal_Hbond.Weighted>
0.0000

> <Gold.Chemscore.DEClash.Weighted>
0.1031

> <Gold.Chemscore.DEInternal.Weighted>
0.4563

> <Gold.Chemscore.Rot.Weighted>
4.4876

> <Gold.Chemscore.Internal.Correction.Weighted>
   9.000000E+99

> <Gold.Protein.RotatedTorsions>
[ 6907 6896 6895 6894 ] final  -99.30 input  -60.11 | X-H torsion
[ 7974 7965 7964 7962 ] final -109.96 input  175.53 | X-H torsion
[ 8008 7997 7996 7995 ] final  118.71 input   59.86 | X-H torsion
[ 10167 10162 10161 10158 ] final -127.61 input  -65.29 | X-H torsion
[ 10718 10713 10712 10709 ] final   83.52 input   66.30 | X-H torsion
[ 10763 10752 10751 10750 ] final  140.46 input  -60.55 | X-H torsion
[ 11005 11000 10999 10996 ] final   79.88 input  -57.11 | X-H torsion

> <Gold.Protein.ActiveResidues>
 VAL166  LYS551  ARG553  GLY616  TRP617  ASP618  TYR619  PRO620  LYS621  CYS622 
 ASP623  PHE694  ASN695  SER759  ASP760  ASP761  ALA762  ILE779  LEU786  VAL792 
 PHE793  MET794  SER795  GLU796  ALA797  LYS798  CYS799  TRP800  GLU811  SER814 

> <Gold.Protein.RotatedAtoms>
  150.7075  134.1062  159.3983 H   0  0  0  0  0  0  0  0  0  0  0  0  # atno 6907 bound_to 6896
  151.9049  135.0361  160.0519 H   0  0  0  0  0  0  0  0  0  0  0  0  # atno 6908 bound_to 6896
  152.2384  133.5079  159.5292 H   0  0  0  0  0  0  0  0  0  0  0  0  # atno 6909 bound_to 6896
  145.1741  140.8940  143.3518 H   0  0  0  0  0  0  0  0  0  0  0  0  # atno 7974 bound_to 7965
  156.2560  140.2868  156.0878 H   0  0  0  0  0  0  0  0  0  0  0  0  # atno 8008 bound_to 7997
  155.1496  140.0397  157.2835 H   0  0  0  0  0  0  0  0  0  0  0  0  # atno 8009 bound_to 7997
  154.6470  140.2536  155.7263 H   0  0  0  0  0  0  0  0  0  0  0  0  # atno 8010 bound_to 7997
  139.9591  143.5970  152.2451 H   0  0  0  0  0  0  0  0  0  0  0  0  # atno 10167 bound_to 10162
  157.6880  131.0094  150.2535 H   0  0  0  0  0  0  0  0  0  0  0  0  # atno 10718 bound_to 10713
  153.9230  135.2998  155.3447 H   0  0  0  0  0  0  0  0  0  0  0  0  # atno 10763 bound_to 10752
  154.7565  135.4955  153.9388 H   0  0  0  0  0  0  0  0  0  0  0  0  # atno 10764 bound_to 10752
  153.1131  135.6764  153.9568 H   0  0  0  0  0  0  0  0  0  0  0  0  # atno 10765 bound_to 10752
  139.9155  134.7877  156.1836 H   0  0  0  0  0  0  0  0  0  0  0  0  # atno 11005 bound_to 11000
  145.0202  139.3431  143.6076 LP  0  0  0  0  0  0  0  0  0  0  0  0  # atno 17320 bound_to 7965
  146.3464  139.9500  142.8730 LP  0  0  0  0  0  0  0  0  0  0  0  0  # atno 17321 bound_to 7965
  139.6568  144.7662  151.2039 LP  0  0  0  0  0  0  0  0  0  0  0  0  # atno 17342 bound_to 10162
  140.7559  143.6072  150.8641 LP  0  0  0  0  0  0  0  0  0  0  0  0  # atno 17343 bound_to 10162
  156.3128  130.3774  149.7646 LP  0  0  0  0  0  0  0  0  0  0  0  0  # atno 17370 bound_to 10713
  156.5241  130.8228  151.3214 LP  0  0  0  0  0  0  0  0  0  0  0  0  # atno 17371 bound_to 10713
  141.0627  133.6834  156.1984 LP  0  0  0  0  0  0  0  0  0  0  0  0  # atno 17394 bound_to 11000
  140.6635  134.4943  157.5584 LP  0  0  0  0  0  0  0  0  0  0  0  0  # atno 17395 bound_to 11000

$$$$
