AV-unprocessed.smi:170|AV-procd|sdf|1409|dock1
  -GOLD-   2262019163D 1   1.00000     0.00000
 Structure written by MMmdl.
 57 61  0  0  0  0  0  0  0  0  1 V2000
  146.2717  139.0061  151.0619 O   0  0  0  0  0  0  0  0  0  0  0  0
  146.6509  138.5556  152.3490 C   0  0  1  0  0  0  0  0  0  0  0  0
  146.7346  139.7357  153.3362 C   0  0  0  0  0  0  0  0  0  0  0  0
  147.8562  139.6144  154.2500 N   0  0  0  0  0  0  0  0  0  0  0  0
  149.0695  139.0188  153.9938 C   0  0  0  0  0  0  0  0  0  0  0  0
  149.9168  139.0387  154.9860 N   0  0  0  0  0  0  0  0  0  0  0  0
  149.2403  139.7054  156.0016 C   0  0  0  0  0  0  0  0  0  0  0  0
  149.5620  140.0875  157.3372 C   0  0  0  0  0  0  0  0  0  0  0  0
  150.7416  139.8521  157.9597 N   0  0  0  0  0  0  0  0  0  0  0  0
  151.4141  138.7034  157.3634 C   0  0  0  0  0  0  0  0  0  0  0  0
  152.6338  138.3027  158.2038 C   0  0  0  0  0  0  0  0  0  0  0  0
  153.4985  139.4233  158.3276 O   0  0  0  0  0  0  0  0  0  0  0  0
  152.8693  140.5078  159.0007 C   0  0  0  0  0  0  0  0  0  0  0  0
  151.6315  140.9939  158.2103 C   0  0  2  0  0  0  0  0  0  0  0  0
  150.9160  142.1560  158.9480 C   0  0  0  0  0  0  0  0  0  0  0  0
  151.8275  143.3384  159.2690 C   0  0  0  0  0  0  0  0  0  0  0  0
  151.3321  144.4478  160.2089 C   0  0  0  0  0  0  0  0  0  0  0  0
  152.1131  145.4537  159.3585 C   0  0  0  0  0  0  0  0  0  0  0  0
  152.0518  144.4358  158.2171 C   0  0  0  0  0  0  0  0  0  0  0  0
  148.6078  140.7257  158.0597 N   0  0  0  0  0  0  0  0  0  0  0  0
  147.4196  140.9965  157.5111 C   0  0  0  0  0  0  0  0  0  0  0  0
  146.9852  140.7196  156.2798 N   0  0  0  0  0  0  0  0  0  0  0  0
  147.9373  140.0655  155.5548 C   0  0  0  0  0  0  0  0  0  0  0  0
  145.6965  137.4441  152.8288 C   0  0  2  0  0  0  0  0  0  0  0  0
  145.4119  136.3104  151.8288 C   0  0  0  0  0  0  0  0  0  0  0  0
  143.8957  136.1918  151.8328 C   0  0  0  0  0  0  0  0  0  0  0  0
  143.4882  136.9157  153.1108 C   0  0  0  0  0  0  0  0  0  0  0  0
  144.4262  137.9754  153.1881 O   0  0  0  0  0  0  0  0  0  0  0  0
  145.3278  139.0172  151.0177 H   0  0  0  0  0  0  0  0  0  0  0  0
  147.6458  138.1205  152.2457 H   0  0  0  0  0  0  0  0  0  0  0  0
  146.8245  140.6815  152.8004 H   0  0  0  0  0  0  0  0  0  0  0  0
  145.8197  139.7982  153.9266 H   0  0  0  0  0  0  0  0  0  0  0  0
  149.3064  138.5625  153.0436 H   0  0  0  0  0  0  0  0  0  0  0  0
  150.7286  137.8579  157.2892 H   0  0  0  0  0  0  0  0  0  0  0  0
  151.7268  138.9536  156.3484 H   0  0  0  0  0  0  0  0  0  0  0  0
  152.3314  137.9463  159.1898 H   0  0  0  0  0  0  0  0  0  0  0  0
  153.1731  137.4885  157.7202 H   0  0  0  0  0  0  0  0  0  0  0  0
  152.5948  140.2072  160.0132 H   0  0  0  0  0  0  0  0  0  0  0  0
  153.6049  141.3059  159.0955 H   0  0  0  0  0  0  0  0  0  0  0  0
  151.9897  141.3560  157.2472 H   0  0  0  0  0  0  0  0  0  0  0  0
  150.0829  142.5261  158.3514 H   0  0  0  0  0  0  0  0  0  0  0  0
  150.4656  141.7774  159.8663 H   0  0  0  0  0  0  0  0  0  0  0  0
  152.7991  142.9974  159.6312 H   0  0  0  0  0  0  0  0  0  0  0  0
  150.2530  144.6018  160.1560 H   0  0  0  0  0  0  0  0  0  0  0  0
  151.6748  144.3583  161.2402 H   0  0  0  0  0  0  0  0  0  0  0  0
  151.5915  146.3912  159.1640 H   0  0  0  0  0  0  0  0  0  0  0  0
  153.1282  145.6199  159.7229 H   0  0  0  0  0  0  0  0  0  0  0  0
  152.9730  144.3348  157.6425 H   0  0  0  0  0  0  0  0  0  0  0  0
  151.1869  144.5827  157.5677 H   0  0  0  0  0  0  0  0  0  0  0  0
  146.7161  141.5095  158.1503 H   0  0  0  0  0  0  0  0  0  0  0  0
  146.1130  136.9984  153.7340 H   0  0  0  0  0  0  0  0  0  0  0  0
  145.7854  136.5119  150.8246 H   0  0  0  0  0  0  0  0  0  0  0  0
  145.8764  135.3845  152.1698 H   0  0  0  0  0  0  0  0  0  0  0  0
  143.4839  136.7151  150.9689 H   0  0  0  0  0  0  0  0  0  0  0  0
  143.5469  135.1593  151.8011 H   0  0  0  0  0  0  0  0  0  0  0  0
  142.4629  137.2845  153.0798 H   0  0  0  0  0  0  0  0  0  0  0  0
  143.5967  136.2656  153.9805 H   0  0  0  0  0  0  0  0  0  0  0  0
  1  2  1  0  0  0  0
  1 29  1  0  0  0  0
  2  3  1  0  0  0  0
  2 24  1  0  0  0  0
  2 30  1  0  0  0  0
  3  4  1  0  0  0  0
  3 31  1  0  0  0  0
  3 32  1  0  0  0  0
  4 23  1  0  0  0  0
  4  5  1  0  0  0  0
  5  6  2  0  0  0  0
  5 33  1  0  0  0  0
  6  7  1  0  0  0  0
  7 23  2  0  0  0  0
  7  8  1  0  0  0  0
  8  9  1  0  0  0  0
  8 20  2  0  0  0  0
  9 14  1  0  0  0  0
  9 10  1  0  0  0  0
 10 11  1  0  0  0  0
 10 34  1  0  0  0  0
 10 35  1  0  0  0  0
 11 12  1  0  0  0  0
 11 36  1  0  0  0  0
 11 37  1  0  0  0  0
 12 13  1  0  0  0  0
 13 14  1  0  0  0  0
 13 38  1  0  0  0  0
 13 39  1  0  0  0  0
 14 15  1  0  0  0  0
 14 40  1  0  0  0  0
 15 16  1  0  0  0  0
 15 41  1  0  0  0  0
 15 42  1  0  0  0  0
 16 19  1  0  0  0  0
 16 17  1  0  0  0  0
 16 43  1  0  0  0  0
 17 18  1  0  0  0  0
 17 44  1  0  0  0  0
 17 45  1  0  0  0  0
 18 19  1  0  0  0  0
 18 46  1  0  0  0  0
 18 47  1  0  0  0  0
 19 48  1  0  0  0  0
 19 49  1  0  0  0  0
 20 21  1  0  0  0  0
 21 22  2  0  0  0  0
 21 50  1  0  0  0  0
 22 23  1  0  0  0  0
 24 28  1  0  0  0  0
 24 25  1  0  0  0  0
 24 51  1  0  0  0  0
 25 26  1  0  0  0  0
 25 52  1  0  0  0  0
 25 53  1  0  0  0  0
 26 27  1  0  0  0  0
 26 54  1  0  0  0  0
 26 55  1  0  0  0  0
 27 28  1  0  0  0  0
 27 56  1  0  0  0  0
 27 57  1  0  0  0  0
M  END
> <s_m_source_file>
AV-unprocessed.smi

> <i_m_source_file_index>
170

> <i_lp_mmshare_version>
43012

> <i_f3d_flags>
0

> <s_epik_input>
TzFbQ0gyXVtDSDJdW0NIMl1bQ0BIXTFbQ0BIXShbT0hdKVtDSDJdbihbY0hdbjIpYyhjMjMpbltjSF1uYzNONFtDSDJdW0NIMl1PW0NIMl1bQ0BIXTRbQ0gyXVtDSF01W0NIMl1bQ0gyXVtDSDJdNQ==

> <s_epik_cmdline>
J2VwaWtfcHl0aG9uJywgJy1waCcsICc3LjAnLCAnLXRuJywgJzgnLCAnLW1hJywgJzIwMCcsICctbWV0YWxfYmluZGluZycsICctaW1hZScsICc8aW5maWxlLm1hZT4nLCAnLW9tYWUnLCAnPG91dGZpbGUubWFlPic=

> <r_lp_tautomer_probability>
1

> <r_epik_Ionization_Penalty>
4.98275e-05

> <r_epik_Ionization_Penalty_Charging>
0

> <r_epik_Ionization_Penalty_Neutral>
4.98275e-05

> <r_epik_State_Penalty>
-0

> <r_epik_Charging_Adjusted_Penalty>
0

> <i_epik_Tot_Q>
0

> <i_epik_Tot_abs_Q>
0

> <r_epik_Metal_State_Penalty>
-0

> <b_epik_Metal_Only>
0

> <s_lp_Force_Field>
OPLS_2005

> <r_lp_Energy>
52.3548

> <b_lp_Chiralities_Consistent>
1

> <s_lp_Variant>
AV-unprocessed.smi:170-4

> <Gold.Version>
5.8.1

> <Gold.Id.Protein>
6NUR|6NUR_protein|mol2

> <Gold.PLP.Fitness>
53.0858

> <Gold.PLP.PLP>
-42.4826

> <Gold.PLP.part.hbond>
-3.2741

> <Gold.PLP.part.metal>
0.0000

> <Gold.PLP.part.buried>
-4.3731

> <Gold.PLP.part.nonpolar>
-37.0377

> <Gold.PLP.part.repulsive>
2.2583

> <Gold.PLP.ligand.clash>
0.0000

> <Gold.PLP.ligand.torsion>
1.6521

> <Gold.PLP.Chemscore.Hbond>
2.8882

> <Gold.PLP.Chemscore.CHOScore>
1.5751

> <Gold.PLP.Chemscore.Metal>
0.0000

> <Gold.Chemscore.Hbonds>
donor molecule, donor type, donor heavy atom, donor atom, acceptor molecule, acceptor atom, score
      L1  H     1    29       P1 10171  0.82
      P1  H  7997  8009       L1    12  1.00
      L1  C     5    33       P1  7948  0.83
      L1  C     5    33       P1  7957  0.76

> <Gold.PLP.Chemscore.Internal.Correction>
0.5177

> <Gold.Rescore>
     Score         DG    S(hbond)    S(metal)    S(lipo)     H(rot)  DE(clash)    DE(int)     intcor
     13.22     -18.99       2.04        0.00     114.49       2.61       1.87       3.90       ----

> <Gold.Chemscore.Fitness>
13.2174

> <Gold.Chemscore.DG>
-18.9876

> <Gold.Chemscore.ZeroCoef>
-5.4800

> <Gold.Chemscore.Hbond>
2.0375

> <Gold.Chemscore.Metal>
0.0000

> <Gold.Chemscore.Lipo>
114.4892

> <Gold.Chemscore.Internal_Hbond>
0.0000

> <Gold.Chemscore.DEClash>
1.8693

> <Gold.Chemscore.DEInternal>
3.9010

> <Gold.Chemscore.Rot>
2.6144

> <Gold.Chemscore.Internal.Correction>
   9.000000E+99

> <Gold.Chemscore.Hbonds>
donor molecule, donor type, donor heavy atom, donor atom, acceptor molecule, acceptor atom, score
      L1  H     1    29       P1 10171  0.81
      P1  H  7997  8009       L1    12  0.70

> <Gold.Chemscore.Hbond.Weighted>
-6.8054

> <Gold.Chemscore.Metal.Weighted>
-0.0000

> <Gold.Chemscore.Lipo.Weighted>
-13.3952

> <Gold.Chemscore.Internal_Hbond.Weighted>
0.0000

> <Gold.Chemscore.DEClash.Weighted>
1.8693

> <Gold.Chemscore.DEInternal.Weighted>
3.9010

> <Gold.Chemscore.Rot.Weighted>
6.6929

> <Gold.Chemscore.Internal.Correction.Weighted>
   9.000000E+99

> <Gold.Protein.RotatedTorsions>
[ 6907 6896 6895 6894 ] final -127.74 input  -60.11 | X-H torsion
[ 7974 7965 7964 7962 ] final   32.53 input  175.53 | X-H torsion
[ 8008 7997 7996 7995 ] final  167.20 input   59.86 | X-H torsion
[ 10167 10162 10161 10158 ] final  -36.43 input  -65.29 | X-H torsion
[ 10718 10713 10712 10709 ] final   30.90 input   66.30 | X-H torsion
[ 10763 10752 10751 10750 ] final  -43.16 input  -60.55 | X-H torsion
[ 11005 11000 10999 10996 ] final  -31.04 input  -57.11 | X-H torsion

> <Gold.Protein.ActiveResidues>
 VAL166  LYS551  ARG553  GLY616  TRP617  ASP618  TYR619  PRO620  LYS621  CYS622 
 ASP623  PHE694  ASN695  SER759  ASP760  ASP761  ALA762  ILE779  LEU786  VAL792 
 PHE793  MET794  SER795  GLU796  ALA797  LYS798  CYS799  TRP800  GLU811  SER814 

> <Gold.Protein.RotatedAtoms>
  150.9105  133.7004  159.2855 H   0  0  0  0  0  0  0  0  0  0  0  0  # atno 6907 bound_to 6896
  151.4492  135.1027  159.9702 H   0  0  0  0  0  0  0  0  0  0  0  0  # atno 6908 bound_to 6896
  152.4927  133.8495  159.7249 H   0  0  0  0  0  0  0  0  0  0  0  0  # atno 6909 bound_to 6896
  146.1480  139.6514  142.9118 H   0  0  0  0  0  0  0  0  0  0  0  0  # atno 7974 bound_to 7965
  156.1654  140.1623  156.8541 H   0  0  0  0  0  0  0  0  0  0  0  0  # atno 8008 bound_to 7997
  154.5202  140.0780  156.8192 H   0  0  0  0  0  0  0  0  0  0  0  0  # atno 8009 bound_to 7997
  155.3623  140.3396  155.4243 H   0  0  0  0  0  0  0  0  0  0  0  0  # atno 8010 bound_to 7997
  140.7143  143.3409  151.2359 H   0  0  0  0  0  0  0  0  0  0  0  0  # atno 10167 bound_to 10162
  157.2656  130.7182  149.6477 H   0  0  0  0  0  0  0  0  0  0  0  0  # atno 10718 bound_to 10713
  153.9909  135.6705  153.4754 H   0  0  0  0  0  0  0  0  0  0  0  0  # atno 10763 bound_to 10752
  153.0705  135.4977  154.8291 H   0  0  0  0  0  0  0  0  0  0  0  0  # atno 10764 bound_to 10752
  154.7109  135.3097  154.9160 H   0  0  0  0  0  0  0  0  0  0  0  0  # atno 10765 bound_to 10752
  140.9434  133.7265  156.1110 H   0  0  0  0  0  0  0  0  0  0  0  0  # atno 11005 bound_to 11000
  145.4890  141.0438  143.2603 LP  0  0  0  0  0  0  0  0  0  0  0  0  # atno 17320 bound_to 7965
  144.7870  139.6406  143.7130 LP  0  0  0  0  0  0  0  0  0  0  0  0  # atno 17321 bound_to 7965
  139.6917  143.9682  152.2862 LP  0  0  0  0  0  0  0  0  0  0  0  0  # atno 17342 bound_to 10162
  139.9345  144.6720  150.8329 LP  0  0  0  0  0  0  0  0  0  0  0  0  # atno 17343 bound_to 10162
  155.9663  130.4384  150.5214 LP  0  0  0  0  0  0  0  0  0  0  0  0  # atno 17370 bound_to 10713
  157.3128  131.0667  151.1989 LP  0  0  0  0  0  0  0  0  0  0  0  0  # atno 17371 bound_to 10713
  140.7702  134.3841  157.5509 LP  0  0  0  0  0  0  0  0  0  0  0  0  # atno 17394 bound_to 11000
  139.8826  134.9017  156.2817 LP  0  0  0  0  0  0  0  0  0  0  0  0  # atno 17395 bound_to 11000

$$$$
