AV-unprocessed.smi:1762|AV-procd|sdf|7099|dock1
  -GOLD-   22720 8313D 1   1.00000     0.00000
 Structure written by MMmdl.
 52 53  0  0  0  0  0  0  0  0  1 V2000
  145.9294  142.6243  157.0780 C   0  0  0  0  0  0  0  0  0  0  0  0
  146.8860  141.7918  156.2171 C   0  0  2  0  0  0  0  0  0  0  0  0
  148.2009  141.4724  156.9517 C   0  0  0  0  0  0  0  0  0  0  0  0
  149.1580  140.7465  156.1100 N   0  0  0  0  0  0  0  0  0  0  0  0
  150.4006  140.3647  156.8384 C   0  0  2  0  0  0  0  0  0  0  0  0
  150.3596  138.9237  157.4001 C   0  0  0  0  0  0  0  0  0  0  0  0
  151.2317  138.1099  157.0934 O   0  0  0  0  0  0  0  0  0  0  0  0
  149.3575  138.6357  158.2461 N   0  0  0  0  0  0  0  0  0  0  0  0
  149.1697  137.3536  158.9136 C   0  0  0  0  0  0  0  0  0  0  0  0
  147.6785  137.0472  159.1314 C   0  0  0  0  0  0  0  0  0  0  0  0
  147.4094  136.4367  160.4934 C   0  0  0  0  0  0  0  0  0  0  0  0
  147.1913  135.0489  160.6288 C   0  0  0  0  0  0  0  0  0  0  0  0
  146.9407  134.5314  161.9142 C   0  0  0  0  0  0  0  0  0  0  0  0
  146.9163  135.4171  163.0088 C   0  0  0  0  0  0  0  0  0  0  0  0
  147.1440  136.7867  162.7680 C   0  0  0  0  0  0  0  0  0  0  0  0
  147.3854  137.2934  161.5394 N   0  0  0  0  0  0  0  0  0  0  0  0
  150.8573  141.3786  157.9413 C   0  0  0  0  0  0  0  0  0  0  0  0
  151.0284  142.8206  157.4213 C   0  0  0  0  0  0  0  0  0  0  0  0
  152.1147  140.9348  158.7144 C   0  0  0  0  0  0  0  0  0  0  0  0
  149.3856  141.5297  154.8822 C   0  0  0  0  0  0  0  0  0  0  0  0
  148.0855  141.9012  154.1414 C   0  0  1  0  0  0  0  0  0  0  0  0
  147.4463  140.7140  153.3999 C   0  0  0  0  0  0  0  0  0  0  0  0
  147.1675  142.5295  155.0326 O   0  0  0  0  0  0  0  0  0  0  0  0
  145.6651  142.0955  157.9940 H   0  0  0  0  0  0  0  0  0  0  0  0
  145.0057  142.8367  156.5392 H   0  0  0  0  0  0  0  0  0  0  0  0
  146.3783  143.5774  157.3588 H   0  0  0  0  0  0  0  0  0  0  0  0
  146.3820  140.8613  155.9544 H   0  0  0  0  0  0  0  0  0  0  0  0
  148.6536  142.3962  157.3165 H   0  0  0  0  0  0  0  0  0  0  0  0
  147.9339  140.8871  157.8291 H   0  0  0  0  0  0  0  0  0  0  0  0
  151.2033  140.3621  156.0974 H   0  0  0  0  0  0  0  0  0  0  0  0
  148.6855  139.3610  158.4509 H   0  0  0  0  0  0  0  0  0  0  0  0
  149.6241  136.5795  158.2944 H   0  0  0  0  0  0  0  0  0  0  0  0
  149.7058  137.3447  159.8643 H   0  0  0  0  0  0  0  0  0  0  0  0
  147.0873  137.9584  159.0293 H   0  0  0  0  0  0  0  0  0  0  0  0
  147.3203  136.3640  158.3600 H   0  0  0  0  0  0  0  0  0  0  0  0
  147.2140  134.3954  159.7689 H   0  0  0  0  0  0  0  0  0  0  0  0
  146.7694  133.4747  162.0578 H   0  0  0  0  0  0  0  0  0  0  0  0
  146.7269  135.0557  164.0088 H   0  0  0  0  0  0  0  0  0  0  0  0
  147.1309  137.4943  163.5840 H   0  0  0  0  0  0  0  0  0  0  0  0
  150.0516  141.4587  158.6691 H   0  0  0  0  0  0  0  0  0  0  0  0
  151.8905  142.9199  156.7609 H   0  0  0  0  0  0  0  0  0  0  0  0
  151.1755  143.5163  158.2479 H   0  0  0  0  0  0  0  0  0  0  0  0
  150.1453  143.1493  156.8727 H   0  0  0  0  0  0  0  0  0  0  0  0
  152.9974  140.9070  158.0765 H   0  0  0  0  0  0  0  0  0  0  0  0
  151.9889  139.9444  159.1519 H   0  0  0  0  0  0  0  0  0  0  0  0
  152.3279  141.6228  159.5330 H   0  0  0  0  0  0  0  0  0  0  0  0
  149.9216  142.4464  155.1346 H   0  0  0  0  0  0  0  0  0  0  0  0
  150.0142  140.9958  154.1704 H   0  0  0  0  0  0  0  0  0  0  0  0
  148.3334  142.6473  153.3858 H   0  0  0  0  0  0  0  0  0  0  0  0
  148.1193  140.3280  152.6340 H   0  0  0  0  0  0  0  0  0  0  0  0
  146.5224  141.0154  152.9059 H   0  0  0  0  0  0  0  0  0  0  0  0
  147.2131  139.8878  154.0713 H   0  0  0  0  0  0  0  0  0  0  0  0
  1  2  1  0  0  0  0
  1 24  1  0  0  0  0
  1 25  1  0  0  0  0
  1 26  1  0  0  0  0
  2 23  1  0  0  0  0
  2  3  1  0  0  0  0
  2 27  1  0  0  0  0
  3  4  1  0  0  0  0
  3 28  1  0  0  0  0
  3 29  1  0  0  0  0
  4  5  1  0  0  0  0
  4 20  1  0  0  0  0
  5  6  1  0  0  0  0
  5 17  1  0  0  0  0
  5 30  1  0  0  0  0
  6  7  2  0  0  0  0
  6  8  1  0  0  0  0
  8  9  1  0  0  0  0
  8 31  1  0  0  0  0
  9 10  1  0  0  0  0
  9 32  1  0  0  0  0
  9 33  1  0  0  0  0
 10 11  1  0  0  0  0
 10 34  1  0  0  0  0
 10 35  1  0  0  0  0
 11 16  1  0  0  0  0
 11 12  2  0  0  0  0
 12 13  1  0  0  0  0
 12 36  1  0  0  0  0
 13 14  2  0  0  0  0
 13 37  1  0  0  0  0
 14 15  1  0  0  0  0
 14 38  1  0  0  0  0
 15 16  2  0  0  0  0
 15 39  1  0  0  0  0
 17 18  1  0  0  0  0
 17 19  1  0  0  0  0
 17 40  1  0  0  0  0
 18 41  1  0  0  0  0
 18 42  1  0  0  0  0
 18 43  1  0  0  0  0
 19 44  1  0  0  0  0
 19 45  1  0  0  0  0
 19 46  1  0  0  0  0
 20 21  1  0  0  0  0
 20 47  1  0  0  0  0
 20 48  1  0  0  0  0
 21 22  1  0  0  0  0
 21 23  1  0  0  0  0
 21 49  1  0  0  0  0
 22 50  1  0  0  0  0
 22 51  1  0  0  0  0
 22 52  1  0  0  0  0
M  END
> <s_m_source_file>
AV-unprocessed.smi

> <i_m_source_file_index>
1762

> <i_lp_mmshare_version>
43012

> <i_f3d_flags>
0

> <s_epik_input>
W0NIM11bQ0BASF0xW0NIMl1OKFtDSDJdW0NASF0oTzEpW0NIM10pW0NAQEhdKFtDSF0oW0NIM10pW0NIM10pQyg9TylbTkhdW0NIMl1bQ0gyXWMyW2NIXVtjSF1bY0hdW2NIXW4y

> <s_epik_cmdline>
J2VwaWtfcHl0aG9uJywgJy1waCcsICc3LjAnLCAnLXRuJywgJzgnLCAnLW1hJywgJzIwMCcsICctbWV0YWxfYmluZGluZycsICctaW1hZScsICc8aW5maWxlLm1hZT4nLCAnLW9tYWUnLCAnPG91dGZpbGUubWFlPic=

> <r_epik_Ionization_Penalty>
0.0399736

> <r_epik_Ionization_Penalty_Charging>
0

> <r_epik_Ionization_Penalty_Neutral>
0.0399736

> <r_epik_State_Penalty>
0.0317634

> <r_epik_Charging_Adjusted_Penalty>
0.0317634

> <i_epik_Tot_Q>
0

> <i_epik_Tot_abs_Q>
0

> <r_epik_Metal_State_Penalty>
0.0307795

> <b_epik_Metal_Only>
0

> <s_lp_Force_Field>
OPLS_2005

> <r_lp_Energy>
28.4472

> <b_lp_Chiralities_Consistent>
1

> <s_lp_Variant>
AV-unprocessed.smi:1762-1

> <Gold.Version>
5.8.1

> <Gold.Id.Protein>
6NUR|6NUR_protein|mol2

> <Gold.PLP.Fitness>
44.4397

> <Gold.PLP.PLP>
-42.2770

> <Gold.PLP.part.hbond>
-2.0000

> <Gold.PLP.part.metal>
0.0000

> <Gold.PLP.part.buried>
-4.8776

> <Gold.PLP.part.nonpolar>
-35.8377

> <Gold.PLP.part.repulsive>
0.9299

> <Gold.PLP.ligand.clash>
0.0000

> <Gold.PLP.ligand.torsion>
1.8261

> <Gold.PLP.Chemscore.Hbond>
1.7454

> <Gold.PLP.Chemscore.CHOScore>
0.0000

> <Gold.PLP.Chemscore.Metal>
0.0000

> <Gold.Chemscore.Hbonds>
donor molecule, donor type, donor heavy atom, donor atom, acceptor molecule, acceptor atom, score
      P1  H  6931  6943       L1    16  0.82
      P1  H  6934  6947       L1    16  0.88

> <Gold.PLP.Chemscore.Internal.Correction>
0.5786

> <Gold.Rescore>
     Score         DG    S(hbond)    S(metal)    S(lipo)     H(rot)  DE(clash)    DE(int)     intcor
     15.25     -16.94       1.20        0.00      98.67       1.60       0.03       1.66       ----

> <Gold.Chemscore.Fitness>
15.2472

> <Gold.Chemscore.DG>
-16.9372

> <Gold.Chemscore.ZeroCoef>
-5.4800

> <Gold.Chemscore.Hbond>
1.1997

> <Gold.Chemscore.Metal>
0.0000

> <Gold.Chemscore.Lipo>
98.6693

> <Gold.Chemscore.Internal_Hbond>
0.0000

> <Gold.Chemscore.DEClash>
0.0323

> <Gold.Chemscore.DEInternal>
1.6577

> <Gold.Chemscore.Rot>
1.5993

> <Gold.Chemscore.Internal.Correction>
   9.000000E+99

> <Gold.Chemscore.Hbonds>
donor molecule, donor type, donor heavy atom, donor atom, acceptor molecule, acceptor atom, score
      P1  H  6931  6943       L1    16  0.17
      P1  H  6934  6947       L1    16  0.68

> <Gold.Chemscore.Hbond.Weighted>
-4.0070

> <Gold.Chemscore.Metal.Weighted>
-0.0000

> <Gold.Chemscore.Lipo.Weighted>
-11.5443

> <Gold.Chemscore.Internal_Hbond.Weighted>
0.0000

> <Gold.Chemscore.DEClash.Weighted>
0.0323

> <Gold.Chemscore.DEInternal.Weighted>
1.6577

> <Gold.Chemscore.Rot.Weighted>
4.0941

> <Gold.Chemscore.Internal.Correction.Weighted>
   9.000000E+99

> <Gold.Protein.RotatedTorsions>
[ 6907 6896 6895 6894 ] final  110.96 input  -60.11 | X-H torsion
[ 7974 7965 7964 7962 ] final  -47.19 input  175.53 | X-H torsion
[ 8008 7997 7996 7995 ] final   25.64 input   59.86 | X-H torsion
[ 10167 10162 10161 10158 ] final  149.81 input  -65.29 | X-H torsion
[ 10718 10713 10712 10709 ] final   49.06 input   66.30 | X-H torsion
[ 10763 10752 10751 10750 ] final -130.80 input  -60.55 | X-H torsion
[ 11005 11000 10999 10996 ] final -112.31 input  -57.11 | X-H torsion

> <Gold.Protein.ActiveResidues>
 VAL166  LYS551  ARG553  GLY616  TRP617  ASP618  TYR619  PRO620  LYS621  CYS622 
 ASP623  PHE694  ASN695  SER759  ASP760  ASP761  ALA762  ILE779  LEU786  VAL792 
 PHE793  MET794  SER795  GLU796  ALA797  LYS798  CYS799  TRP800  GLU811  SER814 

> <Gold.Protein.RotatedAtoms>
  152.4994  133.8726  159.7305 H   0  0  0  0  0  0  0  0  0  0  0  0  # atno 6907 bound_to 6896
  150.9209  133.6873  159.2839 H   0  0  0  0  0  0  0  0  0  0  0  0  # atno 6908 bound_to 6896
  151.4250  135.1007  159.9678 H   0  0  0  0  0  0  0  0  0  0  0  0  # atno 6909 bound_to 6896
  145.9641  140.7449  142.9443 H   0  0  0  0  0  0  0  0  0  0  0  0  # atno 7974 bound_to 7965
  155.0149  140.3141  155.4815 H   0  0  0  0  0  0  0  0  0  0  0  0  # atno 8008 bound_to 7997
  156.2902  140.2208  156.5206 H   0  0  0  0  0  0  0  0  0  0  0  0  # atno 8009 bound_to 7997
  154.7503  140.0467  157.0875 H   0  0  0  0  0  0  0  0  0  0  0  0  # atno 8010 bound_to 7997
  139.4857  144.5572  151.7297 H   0  0  0  0  0  0  0  0  0  0  0  0  # atno 10167 bound_to 10162
  157.4749  130.8278  149.8028 H   0  0  0  0  0  0  0  0  0  0  0  0  # atno 10718 bound_to 10713
  154.8754  135.3850  154.4143 H   0  0  0  0  0  0  0  0  0  0  0  0  # atno 10763 bound_to 10752
  153.4854  135.7030  153.5919 H   0  0  0  0  0  0  0  0  0  0  0  0  # atno 10764 bound_to 10752
  153.4317  135.3877  155.2142 H   0  0  0  0  0  0  0  0  0  0  0  0  # atno 10765 bound_to 10752
  141.0683  133.9423  157.2536 H   0  0  0  0  0  0  0  0  0  0  0  0  # atno 11005 bound_to 11000
  144.6821  140.2640  143.7315 LP  0  0  0  0  0  0  0  0  0  0  0  0  # atno 17320 bound_to 7965
  145.7998  139.1960  143.2054 LP  0  0  0  0  0  0  0  0  0  0  0  0  # atno 17321 bound_to 7965
  140.5135  144.0988  150.6002 LP  0  0  0  0  0  0  0  0  0  0  0  0  # atno 17342 bound_to 10162
  140.3922  143.2746  152.0047 LP  0  0  0  0  0  0  0  0  0  0  0  0  # atno 17343 bound_to 10162
  156.0092  130.3841  150.2325 LP  0  0  0  0  0  0  0  0  0  0  0  0  # atno 17370 bound_to 10713
  157.0509  131.0062  151.3254 LP  0  0  0  0  0  0  0  0  0  0  0  0  # atno 17371 bound_to 10713
  139.9498  135.0177  156.8959 LP  0  0  0  0  0  0  0  0  0  0  0  0  # atno 17394 bound_to 11000
  140.5728  134.0427  155.7436 LP  0  0  0  0  0  0  0  0  0  0  0  0  # atno 17395 bound_to 11000

$$$$
