AV-unprocessed.smi:38|AV-procd|sdf|345|dock7
  -GOLD-   2262016183D 1   1.00000     0.00000
 Structure written by MMmdl.
 27 28  0  0  0  0  0  0  0  0  2 V2000
  154.5557  140.9184  160.3128 O   0  0  0  0  0  0  0  0  0  0  0  0
  153.5685  140.9825  159.5816 C   0  0  0  0  0  0  0  0  0  0  0  0
  153.3215  140.0745  158.5930 N   0  5  0  0  0  0  0  0  0  0  0  0
  152.2269  140.1488  157.7798 C   0  0  0  0  0  0  0  0  0  0  0  0
  151.9835  139.3204  156.9022 O   0  0  0  0  0  0  0  0  0  0  0  0
  151.3158  141.2254  157.9541 N   0  0  0  0  0  0  0  0  0  0  0  0
  150.0935  141.3167  157.0730 C   0  0  1  0  0  0  0  0  0  0  0  0
  150.4814  141.5364  155.6148 C   0  0  0  0  0  0  0  0  0  0  0  0
  149.3624  140.8168  154.8684 C   0  0  1  0  0  0  0  0  0  0  0  0
  149.9095  139.9706  153.8738 O   0  0  0  0  0  0  0  0  0  0  0  0
  148.5637  140.0708  155.9641 C   0  0  1  0  0  0  0  0  0  0  0  0
  148.1657  138.6172  155.6465 C   0  0  0  0  0  0  0  0  0  0  0  0
  149.3165  137.8447  155.3781 O   0  0  0  0  0  0  0  0  0  0  0  0
  149.4148  140.1057  157.1023 O   0  0  0  0  0  0  0  0  0  0  0  0
  151.5292  142.1504  158.9618 C   0  0  0  0  0  0  0  0  0  0  0  0
  152.6075  142.0684  159.7678 C   0  0  0  0  0  0  0  0  0  0  0  0
  152.7883  142.9799  160.7393 F   0  0  0  0  0  0  0  0  0  0  0  0
  149.4464  142.0951  157.4820 H   0  0  0  0  0  0  0  0  0  0  0  0
  148.7125  141.5391  154.3733 H   0  0  0  0  0  0  0  0  0  0  0  0
  147.6721  140.6596  156.1892 H   0  0  0  0  0  0  0  0  0  0  0  0
  150.5487  142.6011  155.3888 H   0  0  0  0  0  0  0  0  0  0  0  0
  151.4510  141.0716  155.4248 H   0  0  0  0  0  0  0  0  0  0  0  0
  149.4601  140.1346  153.0590 H   0  0  0  0  0  0  0  0  0  0  0  0
  147.6729  138.1607  156.5050 H   0  0  0  0  0  0  0  0  0  0  0  0
  147.4719  138.5708  154.8064 H   0  0  0  0  0  0  0  0  0  0  0  0
  150.0601  138.2627  155.7845 H   0  0  0  0  0  0  0  0  0  0  0  0
  150.8216  142.9514  159.1169 H   0  0  0  0  0  0  0  0  0  0  0  0
  1  2  2  0  0  0  0
  2 16  1  0  0  0  0
  2  3  1  0  0  0  0
  3  4  1  0  0  0  0
  4  5  2  0  0  0  0
  4  6  1  0  0  0  0
  6  7  1  0  0  0  0
  6 15  1  0  0  0  0
  7 18  1  0  0  0  0
  7 14  1  0  0  0  0
  7  8  1  0  0  0  0
  8  9  1  0  0  0  0
  8 21  1  0  0  0  0
  8 22  1  0  0  0  0
  9 19  1  0  0  0  0
  9 10  1  0  0  0  0
  9 11  1  0  0  0  0
 10 23  1  0  0  0  0
 11 20  1  0  0  0  0
 11 12  1  0  0  0  0
 11 14  1  0  0  0  0
 12 13  1  0  0  0  0
 12 24  1  0  0  0  0
 12 25  1  0  0  0  0
 13 26  1  0  0  0  0
 15 16  2  0  0  0  0
 15 27  1  0  0  0  0
 16 17  1  0  0  0  0
M  CHG  1   3  -1
M  END
> <s_m_source_file>
AV-unprocessed.smi

> <i_m_source_file_index>
38

> <i_lp_mmshare_version>
43012

> <i_f3d_flags>
0

> <s_epik_input>
Tz1jMVtuSF1jKD1PKW4oW2NIXWMxRilbQ0BIXTJbQ0gyXVtDQEhdKFtPSF0pW0NASF0oTzIpW0NIMl1bT0hd

> <s_epik_cmdline>
J2VwaWtfcHl0aG9uJywgJy1waCcsICc3LjAnLCAnLXRuJywgJzgnLCAnLW1hJywgJzIwMCcsICctbWV0YWxfYmluZGluZycsICctaW1hZScsICc8aW5maWxlLm1hZT4nLCAnLW9tYWUnLCAnPG91dGZpbGUubWFlPic=

> <r_epik_Ionization_Penalty>
1.68146

> <r_epik_Ionization_Penalty_Charging>
3.4211e-08

> <r_epik_Ionization_Penalty_Neutral>
1.68146

> <r_epik_State_Penalty>
1.78593

> <r_epik_Charging_Adjusted_Penalty>
1.78593

> <i_epik_Tot_Q>
-1

> <i_epik_Tot_abs_Q>
1

> <r_epik_Metal_State_Penalty>
0.0113696

> <b_epik_Metal_Only>
0

> <s_epik_Chemistry_Notes>
This compound contains an acetal/aminal-like group ( X-CH(R)-Y where X, Y are N, S, or O) that may be acid/base labile, releasing an aldehyde.

> <s_lp_Force_Field>
OPLS_2005

> <r_lp_Energy>
42.0277

> <b_lp_Chiralities_Consistent>
1

> <s_lp_Variant>
AV-unprocessed.smi:38-11

> <Gold.Version>
5.8.1

> <Gold.Id.Protein>
6NUR|6NUR_protein|mol2

> <Gold.PLP.Fitness>
38.2419

> <Gold.PLP.PLP>
-27.3514

> <Gold.PLP.part.hbond>
-3.0000

> <Gold.PLP.part.metal>
0.0000

> <Gold.PLP.part.buried>
-4.2902

> <Gold.PLP.part.nonpolar>
-19.4951

> <Gold.PLP.part.repulsive>
0.0052

> <Gold.PLP.ligand.clash>
0.0000

> <Gold.PLP.ligand.torsion>
0.0615

> <Gold.PLP.Chemscore.Hbond>
3.6640

> <Gold.PLP.Chemscore.CHOScore>
0.0000

> <Gold.PLP.Chemscore.Metal>
0.0000

> <Gold.Chemscore.Hbonds>
donor molecule, donor type, donor heavy atom, donor atom, acceptor molecule, acceptor atom, score
      L1  H    10    23       P1  7957  0.88
      P1  H  7989  7998       L1    10  0.79
      P1  H  7997  8009       L1     3  1.80

> <Gold.PLP.Chemscore.Internal.Correction>
0.0215

> <Gold.Rescore>
     Score         DG    S(hbond)    S(metal)    S(lipo)     H(rot)  DE(clash)    DE(int)     intcor
      5.40      -8.09       1.68        0.00      37.42       2.88       0.04       2.65       ----

> <Gold.Chemscore.Fitness>
5.3952

> <Gold.Chemscore.DG>
-8.0896

> <Gold.Chemscore.ZeroCoef>
-5.4800

> <Gold.Chemscore.Hbond>
1.6791

> <Gold.Chemscore.Metal>
0.0000

> <Gold.Chemscore.Lipo>
37.4180

> <Gold.Chemscore.Internal_Hbond>
0.0000

> <Gold.Chemscore.DEClash>
0.0398

> <Gold.Chemscore.DEInternal>
2.6545

> <Gold.Chemscore.Rot>
2.8815

> <Gold.Chemscore.Internal.Correction>
   9.000000E+99

> <Gold.Chemscore.Hbonds>
donor molecule, donor type, donor heavy atom, donor atom, acceptor molecule, acceptor atom, score
      L1  H    10    23       P1  7957  0.86
      P1  H  7989  7998       L1    10  0.06
      P1  H  7997  8009       L1     3  0.14

> <Gold.Chemscore.Hbond.Weighted>
-5.6082

> <Gold.Chemscore.Metal.Weighted>
-0.0000

> <Gold.Chemscore.Lipo.Weighted>
-4.3779

> <Gold.Chemscore.Internal_Hbond.Weighted>
0.0000

> <Gold.Chemscore.DEClash.Weighted>
0.0398

> <Gold.Chemscore.DEInternal.Weighted>
2.6545

> <Gold.Chemscore.Rot.Weighted>
7.3765

> <Gold.Chemscore.Internal.Correction.Weighted>
   9.000000E+99

> <Gold.Protein.RotatedTorsions>
[ 6907 6896 6895 6894 ] final  -68.90 input  -60.11 | X-H torsion
[ 7974 7965 7964 7962 ] final   83.65 input  175.53 | X-H torsion
[ 8008 7997 7996 7995 ] final  142.75 input   59.86 | X-H torsion
[ 10167 10162 10161 10158 ] final   98.53 input  -65.29 | X-H torsion
[ 10718 10713 10712 10709 ] final  -46.06 input   66.30 | X-H torsion
[ 10763 10752 10751 10750 ] final  -41.34 input  -60.55 | X-H torsion
[ 11005 11000 10999 10996 ] final  -17.44 input  -57.11 | X-H torsion

> <Gold.Protein.ActiveResidues>
 VAL166  LYS551  ARG553  GLY616  TRP617  ASP618  TYR619  PRO620  LYS621  CYS622 
 ASP623  PHE694  ASN695  SER759  ASP760  ASP761  ALA762  ILE779  LEU786  VAL792 
 PHE793  MET794  SER795  GLU796  ALA797  LYS798  CYS799  TRP800  GLU811  SER814 

> <Gold.Protein.RotatedAtoms>
  150.7332  134.5673  159.5872 H   0  0  0  0  0  0  0  0  0  0  0  0  # atno 6907 bound_to 6896
  152.3121  134.7482  160.0343 H   0  0  0  0  0  0  0  0  0  0  0  0  # atno 6908 bound_to 6896
  151.8026  133.3336  159.3568 H   0  0  0  0  0  0  0  0  0  0  0  0  # atno 6909 bound_to 6896
  145.6091  139.2365  143.2202 H   0  0  0  0  0  0  0  0  0  0  0  0  # atno 7974 bound_to 7965
  156.2943  140.2280  156.4778 H   0  0  0  0  0  0  0  0  0  0  0  0  # atno 8008 bound_to 7997
  154.7879  140.0456  157.1199 H   0  0  0  0  0  0  0  0  0  0  0  0  # atno 8009 bound_to 7997
  154.9680  140.3063  155.5004 H   0  0  0  0  0  0  0  0  0  0  0  0  # atno 8010 bound_to 7997
  139.7700  144.6925  151.0169 H   0  0  0  0  0  0  0  0  0  0  0  0  # atno 10167 bound_to 10162
  156.2221  130.4167  149.8980 H   0  0  0  0  0  0  0  0  0  0  0  0  # atno 10718 bound_to 10713
  153.9608  135.6740  153.4745 H   0  0  0  0  0  0  0  0  0  0  0  0  # atno 10763 bound_to 10752
  153.0839  135.4909  154.8554 H   0  0  0  0  0  0  0  0  0  0  0  0  # atno 10764 bound_to 10752
  154.7273  135.3130  154.8909 H   0  0  0  0  0  0  0  0  0  0  0  0  # atno 10765 bound_to 10752
  140.8169  133.8098  155.9620 H   0  0  0  0  0  0  0  0  0  0  0  0  # atno 11005 bound_to 11000
  146.1518  140.6915  142.9319 LP  0  0  0  0  0  0  0  0  0  0  0  0  # atno 17320 bound_to 7965
  144.7277  140.4576  143.6961 LP  0  0  0  0  0  0  0  0  0  0  0  0  # atno 17321 bound_to 7965
  140.7813  143.4599  151.0293 LP  0  0  0  0  0  0  0  0  0  0  0  0  # atno 17342 bound_to 10162
  139.8283  143.7726  152.3179 LP  0  0  0  0  0  0  0  0  0  0  0  0  # atno 17343 bound_to 10162
  156.6622  130.8787  151.3549 LP  0  0  0  0  0  0  0  0  0  0  0  0  # atno 17370 bound_to 10713
  157.7093  130.9421  150.1034 LP  0  0  0  0  0  0  0  0  0  0  0  0  # atno 17371 bound_to 10713
  140.9140  134.2225  157.4968 LP  0  0  0  0  0  0  0  0  0  0  0  0  # atno 17394 bound_to 11000
  139.8710  134.9763  156.4914 LP  0  0  0  0  0  0  0  0  0  0  0  0  # atno 17395 bound_to 11000

$$$$
