AV-unprocessed.smi:2079|AV-procd|sdf|8486|dock10
  -GOLD-   2272011193D 1   1.00000     0.00000
 Structure written by MMmdl.
 41 42  0  0  0  0  0  0  0  0  3 V2000
  146.9683  135.3519  162.3922 C   0  0  0  0  0  0  0  0  0  0  0  0
  147.5405  135.6958  161.0600 C   0  0  0  0  0  0  0  0  0  0  0  0
  148.0026  134.9364  160.0225 C   0  0  0  0  0  0  0  0  0  0  0  0
  148.3991  135.9073  159.0648 C   0  0  0  0  0  0  0  0  0  0  0  0
  148.9480  135.5110  157.8166 N   0  0  0  0  0  0  0  0  0  0  0  0
  149.3756  134.2945  157.4324 C   0  0  0  0  0  0  0  0  0  0  0  0
  149.3233  133.3377  158.2148 O   0  0  0  0  0  0  0  0  0  0  0  0
  149.8311  134.2886  156.1488 N   0  5  0  0  0  0  0  0  0  0  0  0
  149.0876  134.7994  154.9981 C   0  0  0  0  0  0  0  0  0  0  0  0
  148.1926  133.6934  154.4028 C   0  0  0  0  0  0  0  0  0  0  0  0
  147.4561  134.1824  153.2023 N   0  3  1  0  0  0  0  0  0  0  0  0
  147.2207  133.0760  152.2310 C   0  0  0  0  0  0  0  0  0  0  0  0
  146.5962  133.5780  150.9234 C   0  0  0  0  0  0  0  0  0  0  0  0
  145.2802  134.3012  151.2099 C   0  0  0  0  0  0  0  0  0  0  0  0
  145.5358  135.4448  152.1950 C   0  0  0  0  0  0  0  0  0  0  0  0
  146.2084  134.9600  153.4996 C   0  0  2  0  0  0  0  0  0  0  0  0
  146.4690  136.1892  154.3964 C   0  0  0  0  0  0  0  0  0  0  0  0
  148.1975  137.1484  159.4824 N   0  0  0  0  0  0  0  0  0  0  0  0
  147.6456  137.0190  160.7623 O   0  0  0  0  0  0  0  0  0  0  0  0
  147.2334  134.3339  162.6781 H   0  0  0  0  0  0  0  0  0  0  0  0
  145.8811  135.4268  162.3749 H   0  0  0  0  0  0  0  0  0  0  0  0
  147.3428  136.0267  163.1620 H   0  0  0  0  0  0  0  0  0  0  0  0
  148.0483  133.8596  159.9596 H   0  0  0  0  0  0  0  0  0  0  0  0
  149.0286  136.2411  157.1247 H   0  0  0  0  0  0  0  0  0  0  0  0
  148.4577  135.6424  155.2831 H   0  0  0  0  0  0  0  0  0  0  0  0
  149.7476  135.1836  154.2190 H   0  0  0  0  0  0  0  0  0  0  0  0
  148.8129  132.8356  154.1366 H   0  0  0  0  0  0  0  0  0  0  0  0
  147.5101  133.3085  155.1598 H   0  0  0  0  0  0  0  0  0  0  0  0
  148.1674  132.5825  152.0053 H   0  0  0  0  0  0  0  0  0  0  0  0
  146.5732  132.3252  152.6870 H   0  0  0  0  0  0  0  0  0  0  0  0
  147.2892  134.2500  150.4152 H   0  0  0  0  0  0  0  0  0  0  0  0
  146.4217  132.7402  150.2477 H   0  0  0  0  0  0  0  0  0  0  0  0
  144.8524  134.6882  150.2844 H   0  0  0  0  0  0  0  0  0  0  0  0
  144.5521  133.6041  151.6268 H   0  0  0  0  0  0  0  0  0  0  0  0
  146.1654  136.1954  151.7144 H   0  0  0  0  0  0  0  0  0  0  0  0
  144.5915  135.9405  152.4238 H   0  0  0  0  0  0  0  0  0  0  0  0
  145.5159  134.2944  154.0178 H   0  0  0  0  0  0  0  0  0  0  0  0
  145.5562  136.7698  154.5330 H   0  0  0  0  0  0  0  0  0  0  0  0
  147.2138  136.8510  153.9533 H   0  0  0  0  0  0  0  0  0  0  0  0
  146.8149  135.9212  155.3938 H   0  0  0  0  0  0  0  0  0  0  0  0
  148.0851  134.8272  152.7455 H   0  0  0  0  0  0  0  0  0  0  0  0
  1  2  1  0  0  0  0
  1 20  1  0  0  0  0
  1 21  1  0  0  0  0
  1 22  1  0  0  0  0
  2 19  1  0  0  0  0
  2  3  2  0  0  0  0
  3  4  1  0  0  0  0
  3 23  1  0  0  0  0
  4  5  1  0  0  0  0
  4 18  2  0  0  0  0
  5  6  1  0  0  0  0
  5 24  1  0  0  0  0
  6  7  2  0  0  0  0
  6  8  1  0  0  0  0
  8  9  1  0  0  0  0
  9 10  1  0  0  0  0
  9 25  1  0  0  0  0
  9 26  1  0  0  0  0
 10 11  1  0  0  0  0
 10 27  1  0  0  0  0
 10 28  1  0  0  0  0
 11 16  1  0  0  0  0
 11 12  1  0  0  0  0
 11 41  1  0  0  0  0
 12 13  1  0  0  0  0
 12 29  1  0  0  0  0
 12 30  1  0  0  0  0
 13 14  1  0  0  0  0
 13 31  1  0  0  0  0
 13 32  1  0  0  0  0
 14 15  1  0  0  0  0
 14 33  1  0  0  0  0
 14 34  1  0  0  0  0
 15 16  1  0  0  0  0
 15 35  1  0  0  0  0
 15 36  1  0  0  0  0
 16 17  1  0  0  0  0
 16 37  1  0  0  0  0
 17 38  1  0  0  0  0
 17 39  1  0  0  0  0
 17 40  1  0  0  0  0
 18 19  1  0  0  0  0
M  CHG  1   8  -1
M  CHG  1  11   1
M  END
> <s_m_source_file>
AV-unprocessed.smi

> <i_m_source_file_index>
2079

> <i_lp_mmshare_version>
43012

> <i_f3d_flags>
0

> <s_epik_input>
W0NIM11jMVtjSF1jKG5vMSlbTkhdQyg9TylbTkhdW0NIMl1bQ0gyXU4yW0NIMl1bQ0gyXVtDSDJdW0NIMl1bQ0BIXTJbQ0gzXQ==

> <s_epik_cmdline>
J2VwaWtfcHl0aG9uJywgJy1waCcsICc3LjAnLCAnLXRuJywgJzgnLCAnLW1hJywgJzIwMCcsICctbWV0YWxfYmluZGluZycsICctaW1hZScsICc8aW5maWxlLm1hZT4nLCAnLW9tYWUnLCAnPG91dGZpbGUubWFlPic=

> <r_epik_Ionization_Penalty>
6.7666

> <r_epik_Ionization_Penalty_Charging>
6.7666

> <r_epik_Ionization_Penalty_Neutral>
5.77131e-06

> <r_epik_State_Penalty>
6.79217

> <r_epik_Charging_Adjusted_Penalty>
13.5588

> <i_epik_Tot_Q>
0

> <i_epik_Tot_abs_Q>
2

> <r_epik_Metal_State_Penalty>
2.72569

> <b_epik_Metal_Only>
1

> <s_lp_Force_Field>
OPLS_2005

> <r_lp_Energy>
14.3166

> <b_lp_Chiralities_Consistent>
1

> <s_lp_Variant>
AV-unprocessed.smi:2079-12

> <Gold.Version>
5.8.1

> <Gold.Id.Protein>
6NUR|6NUR_protein|mol2

> <Gold.PLP.Fitness>
39.5196

> <Gold.PLP.PLP>
-27.4704

> <Gold.PLP.part.hbond>
-4.2717

> <Gold.PLP.part.metal>
0.0000

> <Gold.PLP.part.buried>
-3.7030

> <Gold.PLP.part.nonpolar>
-19.9354

> <Gold.PLP.part.repulsive>
0.0879

> <Gold.PLP.ligand.clash>
0.0000

> <Gold.PLP.ligand.torsion>
0.9940

> <Gold.PLP.Chemscore.Hbond>
4.6640

> <Gold.PLP.Chemscore.CHOScore>
0.0000

> <Gold.PLP.Chemscore.Metal>
0.0000

> <Gold.Chemscore.Hbonds>
donor molecule, donor type, donor heavy atom, donor atom, acceptor molecule, acceptor atom, score
      L1  H    11    41       P1  7948  2.00
      P1  H  6896  6908       L1     7  1.00
      P1  H  6931  6943       L1    19  0.57
      P1  H  6934  6947       L1    19  0.62

> <Gold.PLP.Chemscore.Internal.Correction>
0.0452

> <Gold.Rescore>
     Score         DG    S(hbond)    S(metal)    S(lipo)     H(rot)  DE(clash)    DE(int)     intcor
     13.55     -16.96       2.75        0.00      53.39       1.54       0.00       3.41       ----

> <Gold.Chemscore.Fitness>
13.5477

> <Gold.Chemscore.DG>
-16.9582

> <Gold.Chemscore.ZeroCoef>
-5.4800

> <Gold.Chemscore.Hbond>
2.7475

> <Gold.Chemscore.Metal>
0.0000

> <Gold.Chemscore.Lipo>
53.3851

> <Gold.Chemscore.Internal_Hbond>
0.0000

> <Gold.Chemscore.DEClash>
0.0029

> <Gold.Chemscore.DEInternal>
3.4077

> <Gold.Chemscore.Rot>
1.5409

> <Gold.Chemscore.Internal.Correction>
   9.000000E+99

> <Gold.Chemscore.Hbonds>
donor molecule, donor type, donor heavy atom, donor atom, acceptor molecule, acceptor atom, score
      L1  H    11    41       P1  7948  0.78
      P1  H  6896  6908       L1     7  0.29
      P1  H  6931  6943       L1    19  0.14
      P1  H  6934  6947       L1    19  0.06

> <Gold.Chemscore.Hbond.Weighted>
-9.1768

> <Gold.Chemscore.Metal.Weighted>
-0.0000

> <Gold.Chemscore.Lipo.Weighted>
-6.2461

> <Gold.Chemscore.Internal_Hbond.Weighted>
0.0000

> <Gold.Chemscore.DEClash.Weighted>
0.0029

> <Gold.Chemscore.DEInternal.Weighted>
3.4077

> <Gold.Chemscore.Rot.Weighted>
3.9446

> <Gold.Chemscore.Internal.Correction.Weighted>
   9.000000E+99

> <Gold.Protein.RotatedTorsions>
[ 6907 6896 6895 6894 ] final  105.93 input  -60.11 | X-H torsion
[ 7974 7965 7964 7962 ] final  -19.75 input  175.53 | X-H torsion
[ 8008 7997 7996 7995 ] final   87.42 input   59.86 | X-H torsion
[ 10167 10162 10161 10158 ] final  -19.13 input  -65.29 | X-H torsion
[ 10718 10713 10712 10709 ] final -179.97 input   66.30 | X-H torsion
[ 10763 10752 10751 10750 ] final -136.94 input  -60.55 | X-H torsion
[ 11005 11000 10999 10996 ] final   73.97 input  -57.11 | X-H torsion

> <Gold.Protein.ActiveResidues>
 VAL166  LYS551  ARG553  GLY616  TRP617  ASP618  TYR619  PRO620  LYS621  CYS622 
 ASP623  PHE694  ASN695  SER759  ASP760  ASP761  ALA762  ILE779  LEU786  VAL792 
 PHE793  MET794  SER795  GLU796  ALA797  LYS798  CYS799  TRP800  GLU811  SER814 

> <Gold.Protein.RotatedAtoms>
  152.5212  133.9456  159.7646 H   0  0  0  0  0  0  0  0  0  0  0  0  # atno 6907 bound_to 6896
  150.9777  133.6270  159.2734 H   0  0  0  0  0  0  0  0  0  0  0  0  # atno 6908 bound_to 6896
  151.3459  135.0879  159.9439 H   0  0  0  0  0  0  0  0  0  0  0  0  # atno 6909 bound_to 6896
  146.1825  140.4106  142.8489 H   0  0  0  0  0  0  0  0  0  0  0  0  # atno 7974 bound_to 7965
  155.9752  140.3382  155.6612 H   0  0  0  0  0  0  0  0  0  0  0  0  # atno 8008 bound_to 7997
  155.6622  140.0717  157.2568 H   0  0  0  0  0  0  0  0  0  0  0  0  # atno 8009 bound_to 7997
  154.4177  140.1706  156.1776 H   0  0  0  0  0  0  0  0  0  0  0  0  # atno 8010 bound_to 7997
  140.7265  143.4849  151.0068 H   0  0  0  0  0  0  0  0  0  0  0  0  # atno 10167 bound_to 10162
  156.8670  130.9771  151.3077 H   0  0  0  0  0  0  0  0  0  0  0  0  # atno 10718 bound_to 10713
  154.8673  135.3657  154.5142 H   0  0  0  0  0  0  0  0  0  0  0  0  # atno 10763 bound_to 10752
  153.5776  135.7019  153.5482 H   0  0  0  0  0  0  0  0  0  0  0  0  # atno 10764 bound_to 10752
  153.3486  135.4078  155.1591 H   0  0  0  0  0  0  0  0  0  0  0  0  # atno 10765 bound_to 10752
  139.9414  134.7393  156.1091 H   0  0  0  0  0  0  0  0  0  0  0  0  # atno 11005 bound_to 11000
  144.8339  140.6750  143.6273 LP  0  0  0  0  0  0  0  0  0  0  0  0  # atno 17320 bound_to 7965
  145.4036  139.1593  143.4164 LP  0  0  0  0  0  0  0  0  0  0  0  0  # atno 17321 bound_to 7965
  139.8550  143.7389  152.3176 LP  0  0  0  0  0  0  0  0  0  0  0  0  # atno 17342 bound_to 10162
  139.7584  144.7514  151.0401 LP  0  0  0  0  0  0  0  0  0  0  0  0  # atno 17343 bound_to 10162
  157.6218  130.8660  149.9121 LP  0  0  0  0  0  0  0  0  0  0  0  0  # atno 17370 bound_to 10713
  156.0746  130.3680  150.0704 LP  0  0  0  0  0  0  0  0  0  0  0  0  # atno 17371 bound_to 10713
  141.1049  133.6663  156.2841 LP  0  0  0  0  0  0  0  0  0  0  0  0  # atno 17394 bound_to 11000
  140.5943  134.5619  157.5505 LP  0  0  0  0  0  0  0  0  0  0  0  0  # atno 17395 bound_to 11000

$$$$
