AV-unprocessed.smi:2995|AV-procd|sdf|11406|dock2
  -GOLD-   2272016333D 1   1.00000     0.00000
 Structure written by MMmdl.
 49 51  0  0  0  0  0  0  0  0  2 V2000
  146.6405  133.4904  152.2718 C   0  0  0  0  0  0  0  0  0  0  0  0
  147.4413  132.4650  153.0547 C   0  0  0  0  0  0  0  0  0  0  0  0
  147.0748  131.1040  153.0083 C   0  0  0  0  0  0  0  0  0  0  0  0
  147.8353  130.1736  153.7420 C   0  0  0  0  0  0  0  0  0  0  0  0
  148.9069  130.5165  154.4855 N   0  0  0  0  0  0  0  0  0  0  0  0
  149.2551  131.8199  154.5309 C   0  0  0  0  0  0  0  0  0  0  0  0
  148.5528  132.8431  153.8460 C   0  0  0  0  0  0  0  0  0  0  0  0
  148.9455  134.2098  153.8848 N   0  0  0  0  0  0  0  0  0  0  0  0
  149.5591  134.8641  154.8853 C   0  0  0  0  0  0  0  0  0  0  0  0
  149.8882  134.3673  155.9625 O   0  0  0  0  0  0  0  0  0  0  0  0
  149.7515  136.1553  154.5783 N   0  0  0  0  0  0  0  0  0  0  0  0
  150.3604  137.1432  155.4646 C   0  0  2  0  0  0  0  0  0  0  0  0
  149.3096  138.1431  155.9741 C   0  0  0  0  0  0  0  0  0  0  0  0
  149.9566  139.2352  156.8407 C   0  0  0  0  0  0  0  0  0  0  0  0
  151.0332  139.9562  156.1057 N   0  3  1  0  0  0  0  0  0  0  0  0
  151.6026  141.0931  156.8866 C   0  0  0  0  0  0  0  0  0  0  0  0
  152.1500  140.6835  158.2628 C   0  0  0  0  0  0  0  0  0  0  0  0
  152.1771  141.9690  159.0976 C   0  0  0  0  0  0  0  0  0  0  0  0
  151.2113  142.9461  158.4143 C   0  0  0  0  0  0  0  0  0  0  0  0
  150.5747  142.1723  157.2571 C   0  0  0  0  0  0  0  0  0  0  0  0
  152.0721  139.0073  155.6147 C   0  0  0  0  0  0  0  0  0  0  0  0
  151.4649  137.9097  154.7241 C   0  0  0  0  0  0  0  0  0  0  0  0
  145.8091  133.0247  151.7420 H   0  0  0  0  0  0  0  0  0  0  0  0
  147.2740  133.9869  151.5364 H   0  0  0  0  0  0  0  0  0  0  0  0
  146.2308  134.2459  152.9428 H   0  0  0  0  0  0  0  0  0  0  0  0
  146.2287  130.7741  152.4235 H   0  0  0  0  0  0  0  0  0  0  0  0
  147.5794  129.1245  153.7260 H   0  0  0  0  0  0  0  0  0  0  0  0
  150.1356  132.0320  155.1175 H   0  0  0  0  0  0  0  0  0  0  0  0
  148.6503  134.7692  153.0982 H   0  0  0  0  0  0  0  0  0  0  0  0
  149.4487  136.4786  153.6710 H   0  0  0  0  0  0  0  0  0  0  0  0
  150.8111  136.6301  156.3165 H   0  0  0  0  0  0  0  0  0  0  0  0
  148.7954  138.6058  155.1303 H   0  0  0  0  0  0  0  0  0  0  0  0
  148.5451  137.6247  156.5542 H   0  0  0  0  0  0  0  0  0  0  0  0
  149.1737  139.9263  157.1505 H   0  0  0  0  0  0  0  0  0  0  0  0
  150.3687  138.7959  157.7507 H   0  0  0  0  0  0  0  0  0  0  0  0
  152.4061  141.5559  156.3101 H   0  0  0  0  0  0  0  0  0  0  0  0
  151.4760  139.9651  158.7323 H   0  0  0  0  0  0  0  0  0  0  0  0
  153.1367  140.2228  158.2057 H   0  0  0  0  0  0  0  0  0  0  0  0
  151.8898  141.7715  160.1311 H   0  0  0  0  0  0  0  0  0  0  0  0
  153.1824  142.3918  159.1151 H   0  0  0  0  0  0  0  0  0  0  0  0
  150.4595  143.3325  159.1033 H   0  0  0  0  0  0  0  0  0  0  0  0
  151.7685  143.8004  158.0276 H   0  0  0  0  0  0  0  0  0  0  0  0
  150.3285  142.8311  156.4238 H   0  0  0  0  0  0  0  0  0  0  0  0
  149.6494  141.7058  157.5991 H   0  0  0  0  0  0  0  0  0  0  0  0
  152.8271  139.5329  155.0314 H   0  0  0  0  0  0  0  0  0  0  0  0
  152.5861  138.5584  156.4662 H   0  0  0  0  0  0  0  0  0  0  0  0
  152.2483  137.2207  154.4057 H   0  0  0  0  0  0  0  0  0  0  0  0
  151.0617  138.3614  153.8163 H   0  0  0  0  0  0  0  0  0  0  0  0
  150.6029  140.3608  155.2863 H   0  0  0  0  0  0  0  0  0  0  0  0
  1  2  1  0  0  0  0
  1 23  1  0  0  0  0
  1 24  1  0  0  0  0
  1 25  1  0  0  0  0
  2  7  1  0  0  0  0
  2  3  2  0  0  0  0
  3  4  1  0  0  0  0
  3 26  1  0  0  0  0
  4  5  2  0  0  0  0
  4 27  1  0  0  0  0
  5  6  1  0  0  0  0
  6  7  2  0  0  0  0
  6 28  1  0  0  0  0
  7  8  1  0  0  0  0
  8  9  1  0  0  0  0
  8 29  1  0  0  0  0
  9 10  2  0  0  0  0
  9 11  1  0  0  0  0
 11 12  1  0  0  0  0
 11 30  1  0  0  0  0
 12 22  1  0  0  0  0
 12 13  1  0  0  0  0
 12 31  1  0  0  0  0
 13 14  1  0  0  0  0
 13 32  1  0  0  0  0
 13 33  1  0  0  0  0
 14 15  1  0  0  0  0
 14 34  1  0  0  0  0
 14 35  1  0  0  0  0
 15 16  1  0  0  0  0
 15 21  1  0  0  0  0
 15 49  1  0  0  0  0
 16 20  1  0  0  0  0
 16 17  1  0  0  0  0
 16 36  1  0  0  0  0
 17 18  1  0  0  0  0
 17 37  1  0  0  0  0
 17 38  1  0  0  0  0
 18 19  1  0  0  0  0
 18 39  1  0  0  0  0
 18 40  1  0  0  0  0
 19 20  1  0  0  0  0
 19 41  1  0  0  0  0
 19 42  1  0  0  0  0
 20 43  1  0  0  0  0
 20 44  1  0  0  0  0
 21 22  1  0  0  0  0
 21 45  1  0  0  0  0
 21 46  1  0  0  0  0
 22 47  1  0  0  0  0
 22 48  1  0  0  0  0
M  CHG  1  15   1
M  END
> <s_m_source_file>
AV-unprocessed.smi

> <i_m_source_file_index>
2995

> <i_lp_mmshare_version>
43012

> <i_f3d_flags>
0

> <s_epik_input>
W0NIM11jMVtjSF1bY0hdbltjSF1jMVtOSF1DKD1PKVtOSF1bQ0hdMltDSDJdW0NIMl1OKFtDSDJdW0NIMl0yKVtDSF0zW0NIMl1bQ0gyXVtDSDJdW0NIMl0z

> <s_epik_cmdline>
J2VwaWtfcHl0aG9uJywgJy1waCcsICc3LjAnLCAnLXRuJywgJzgnLCAnLW1hJywgJzIwMCcsICctbWV0YWxfYmluZGluZycsICctaW1hZScsICc8aW5maWxlLm1hZT4nLCAnLW9tYWUnLCAnPG91dGZpbGUubWFlPic=

> <r_epik_Ionization_Penalty>
0.0196897

> <r_epik_Ionization_Penalty_Charging>
0.00179121

> <r_epik_Ionization_Penalty_Neutral>
0.0178985

> <r_epik_State_Penalty>
0.014187

> <r_epik_Charging_Adjusted_Penalty>
0.0159782

> <i_epik_Tot_Q>
1

> <i_epik_Tot_abs_Q>
1

> <r_epik_Metal_State_Penalty>
0.013703

> <b_epik_Metal_Only>
0

> <s_lp_Force_Field>
OPLS_2005

> <r_lp_Energy>
41.253

> <b_lp_Chiralities_Consistent>
1

> <s_lp_Variant>
AV-unprocessed.smi:2995-1

> <Gold.Version>
5.8.1

> <Gold.Id.Protein>
6NUR|6NUR_protein|mol2

> <Gold.PLP.Fitness>
40.6747

> <Gold.PLP.PLP>
-35.3828

> <Gold.PLP.part.hbond>
-2.0975

> <Gold.PLP.part.metal>
0.0000

> <Gold.PLP.part.buried>
-4.1214

> <Gold.PLP.part.nonpolar>
-29.1929

> <Gold.PLP.part.repulsive>
0.2470

> <Gold.PLP.ligand.clash>
0.0000

> <Gold.PLP.ligand.torsion>
0.3340

> <Gold.PLP.Chemscore.Hbond>
1.9760

> <Gold.PLP.Chemscore.CHOScore>
0.0000

> <Gold.PLP.Chemscore.Metal>
0.0000

> <Gold.Chemscore.Hbonds>
donor molecule, donor type, donor heavy atom, donor atom, acceptor molecule, acceptor atom, score
      L1  H     8    29       P1  7948  1.00
      L1  H    11    30       P1  7948  1.00

> <Gold.PLP.Chemscore.Internal.Correction>
0.0320

> <Gold.Rescore>
     Score         DG    S(hbond)    S(metal)    S(lipo)     H(rot)  DE(clash)    DE(int)     intcor
     16.77     -18.30       1.50        0.00      92.34       1.17       0.12       1.41       ----

> <Gold.Chemscore.Fitness>
16.7671

> <Gold.Chemscore.DG>
-18.2997

> <Gold.Chemscore.ZeroCoef>
-5.4800

> <Gold.Chemscore.Hbond>
1.5028

> <Gold.Chemscore.Metal>
0.0000

> <Gold.Chemscore.Lipo>
92.3381

> <Gold.Chemscore.Internal_Hbond>
0.0000

> <Gold.Chemscore.DEClash>
0.1186

> <Gold.Chemscore.DEInternal>
1.4141

> <Gold.Chemscore.Rot>
1.1731

> <Gold.Chemscore.Internal.Correction>
   9.000000E+99

> <Gold.Chemscore.Hbonds>
donor molecule, donor type, donor heavy atom, donor atom, acceptor molecule, acceptor atom, score
      L1  H     8    29       P1  7948  0.33
      L1  H    11    30       P1  7948  0.80

> <Gold.Chemscore.Hbond.Weighted>
-5.0192

> <Gold.Chemscore.Metal.Weighted>
-0.0000

> <Gold.Chemscore.Lipo.Weighted>
-10.8036

> <Gold.Chemscore.Internal_Hbond.Weighted>
0.0000

> <Gold.Chemscore.DEClash.Weighted>
0.1186

> <Gold.Chemscore.DEInternal.Weighted>
1.4141

> <Gold.Chemscore.Rot.Weighted>
3.0030

> <Gold.Chemscore.Internal.Correction.Weighted>
   9.000000E+99

> <Gold.Protein.RotatedTorsions>
[ 6907 6896 6895 6894 ] final -152.42 input  -60.11 | X-H torsion
[ 7974 7965 7964 7962 ] final  141.74 input  175.53 | X-H torsion
[ 8008 7997 7996 7995 ] final   61.34 input   59.86 | X-H torsion
[ 10167 10162 10161 10158 ] final    7.77 input  -65.29 | X-H torsion
[ 10718 10713 10712 10709 ] final  -65.75 input   66.30 | X-H torsion
[ 10763 10752 10751 10750 ] final   22.94 input  -60.55 | X-H torsion
[ 11005 11000 10999 10996 ] final  -79.42 input  -57.11 | X-H torsion

> <Gold.Protein.ActiveResidues>
 VAL166  LYS551  ARG553  GLY616  TRP617  ASP618  TYR619  PRO620  LYS621  CYS622 
 ASP623  PHE694  ASN695  SER759  ASP760  ASP761  ALA762  ILE779  LEU786  VAL792 
 PHE793  MET794  SER795  GLU796  ALA797  LYS798  CYS799  TRP800  GLU811  SER814 

> <Gold.Protein.RotatedAtoms>
  151.2275  133.4469  159.2602 H   0  0  0  0  0  0  0  0  0  0  0  0  # atno 6907 bound_to 6896
  151.0826  134.9868  159.8374 H   0  0  0  0  0  0  0  0  0  0  0  0  # atno 6908 bound_to 6896
  152.5426  134.2213  159.8841 H   0  0  0  0  0  0  0  0  0  0  0  0  # atno 6909 bound_to 6896
  144.9070  139.5345  143.5727 H   0  0  0  0  0  0  0  0  0  0  0  0  # atno 7974 bound_to 7965
  155.5968  140.3493  155.4582 H   0  0  0  0  0  0  0  0  0  0  0  0  # atno 8008 bound_to 7997
  156.0259  140.1264  157.0333 H   0  0  0  0  0  0  0  0  0  0  0  0  # atno 8009 bound_to 7997
  154.4333  140.1053  156.6016 H   0  0  0  0  0  0  0  0  0  0  0  0  # atno 8010 bound_to 7997
  140.6353  143.7901  150.7351 H   0  0  0  0  0  0  0  0  0  0  0  0  # atno 10167 bound_to 10162
  156.0651  130.4252  150.1609 H   0  0  0  0  0  0  0  0  0  0  0  0  # atno 10718 bound_to 10713
  153.0877  135.6637  153.9917 H   0  0  0  0  0  0  0  0  0  0  0  0  # atno 10763 bound_to 10752
  153.9522  135.2982  155.3439 H   0  0  0  0  0  0  0  0  0  0  0  0  # atno 10764 bound_to 10752
  154.7287  135.5132  153.9001 H   0  0  0  0  0  0  0  0  0  0  0  0  # atno 10765 bound_to 10752
  141.1667  133.7105  156.8119 H   0  0  0  0  0  0  0  0  0  0  0  0  # atno 11005 bound_to 11000
  146.3138  139.7845  142.8999 LP  0  0  0  0  0  0  0  0  0  0  0  0  # atno 17320 bound_to 7965
  145.3519  141.0309  143.3333 LP  0  0  0  0  0  0  0  0  0  0  0  0  # atno 17321 bound_to 7965
  140.1521  143.4349  152.2124 LP  0  0  0  0  0  0  0  0  0  0  0  0  # atno 17342 bound_to 10162
  139.5564  144.7375  151.4283 LP  0  0  0  0  0  0  0  0  0  0  0  0  # atno 17343 bound_to 10162
  156.9670  130.9823  151.3467 LP  0  0  0  0  0  0  0  0  0  0  0  0  # atno 17370 bound_to 10713
  157.5688  130.8296  149.8363 LP  0  0  0  0  0  0  0  0  0  0  0  0  # atno 17371 bound_to 10713
  140.2181  134.8777  157.3348 LP  0  0  0  0  0  0  0  0  0  0  0  0  # atno 17394 bound_to 11000
  140.2016  134.4248  155.7660 LP  0  0  0  0  0  0  0  0  0  0  0  0  # atno 17395 bound_to 11000

$$$$
