AV-unprocessed.smi:418|AV-procd|sdf|2529|dock5
  -GOLD-   2262022483D 1   1.00000     0.00000
 Structure written by MMmdl.
 40 42  0  0  0  0  0  0  0  0  1 V2000
  153.9444  140.0733  160.9540 C   0  0  0  0  0  0  0  0  0  0  0  0
  153.2177  140.9718  160.0650 N   0  0  0  0  0  0  0  0  0  0  0  0
  152.9371  140.7714  158.7559 C   0  0  0  0  0  0  0  0  0  0  0  0
  153.2559  139.7872  158.0889 O   0  0  0  0  0  0  0  0  0  0  0  0
  152.2479  141.8467  158.3063 N   0  0  0  0  0  0  0  0  0  0  0  0
  151.7624  142.0604  156.9447 C   0  0  0  0  0  0  0  0  0  0  0  0
  150.2821  141.6545  156.7974 C   0  0  1  0  0  0  0  0  0  0  0  0
  149.4363  142.6902  157.2537 O   0  0  0  0  0  0  0  0  0  0  0  0
  149.8877  141.3301  155.3470 C   0  0  0  0  0  0  0  0  0  0  0  0
  150.8081  140.3962  154.7952 O   0  0  0  0  0  0  0  0  0  0  0  0
  150.4842  139.0566  154.8289 C   0  0  0  0  0  0  0  0  0  0  0  0
  149.1789  138.5592  155.0749 C   0  0  0  0  0  0  0  0  0  0  0  0
  148.9361  137.1718  155.0936 C   0  0  0  0  0  0  0  0  0  0  0  0
  149.9892  136.2666  154.8672 C   0  0  0  0  0  0  0  0  0  0  0  0
  151.2871  136.7508  154.6212 C   0  0  0  0  0  0  0  0  0  0  0  0
  151.5313  138.1378  154.6025 C   0  0  0  0  0  0  0  0  0  0  0  0
  152.7857  138.5906  154.3651 F   0  0  0  0  0  0  0  0  0  0  0  0
  152.0964  142.7666  159.3540 C   0  0  0  0  0  0  0  0  0  0  0  0
  151.4769  144.0278  159.3970 C   0  0  0  0  0  0  0  0  0  0  0  0
  151.5024  144.7180  160.6318 C   0  0  0  0  0  0  0  0  0  0  0  0
  152.1316  144.1496  161.7702 C   0  0  0  0  0  0  0  0  0  0  0  0
  152.7491  142.8787  161.6982 C   0  0  0  0  0  0  0  0  0  0  0  0
  152.7076  142.2149  160.4600 C   0  0  0  0  0  0  0  0  0  0  0  0
  154.1373  139.1054  160.4895 H   0  0  0  0  0  0  0  0  0  0  0  0
  153.3718  139.8980  161.8651 H   0  0  0  0  0  0  0  0  0  0  0  0
  154.9027  140.5132  161.2308 H   0  0  0  0  0  0  0  0  0  0  0  0
  151.9178  143.0947  156.6321 H   0  0  0  0  0  0  0  0  0  0  0  0
  152.3769  141.4556  156.2766 H   0  0  0  0  0  0  0  0  0  0  0  0
  150.0753  140.7730  157.4056 H   0  0  0  0  0  0  0  0  0  0  0  0
  149.5016  143.4160  156.6515 H   0  0  0  0  0  0  0  0  0  0  0  0
  148.8901  140.8884  155.3479 H   0  0  0  0  0  0  0  0  0  0  0  0
  149.8455  142.2429  154.7498 H   0  0  0  0  0  0  0  0  0  0  0  0
  148.3455  139.2215  155.2526 H   0  0  0  0  0  0  0  0  0  0  0  0
  147.9391  136.8019  155.2824 H   0  0  0  0  0  0  0  0  0  0  0  0
  149.8020  135.2030  154.8822 H   0  0  0  0  0  0  0  0  0  0  0  0
  152.0974  136.0584  154.4467 H   0  0  0  0  0  0  0  0  0  0  0  0
  151.0022  144.4561  158.5265 H   0  0  0  0  0  0  0  0  0  0  0  0
  151.0381  145.6900  160.7093 H   0  0  0  0  0  0  0  0  0  0  0  0
  152.1403  144.6947  162.7026 H   0  0  0  0  0  0  0  0  0  0  0  0
  153.2317  142.4402  162.5592 H   0  0  0  0  0  0  0  0  0  0  0  0
  1  2  1  0  0  0  0
  1 24  1  0  0  0  0
  1 25  1  0  0  0  0
  1 26  1  0  0  0  0
  2 23  1  0  0  0  0
  2  3  1  0  0  0  0
  3  4  2  0  0  0  0
  3  5  1  0  0  0  0
  5  6  1  0  0  0  0
  5 18  1  0  0  0  0
  6  7  1  0  0  0  0
  6 27  1  0  0  0  0
  6 28  1  0  0  0  0
  7  8  1  0  0  0  0
  7  9  1  0  0  0  0
  7 29  1  0  0  0  0
  8 30  1  0  0  0  0
  9 10  1  0  0  0  0
  9 31  1  0  0  0  0
  9 32  1  0  0  0  0
 10 11  1  0  0  0  0
 11 16  1  0  0  0  0
 11 12  2  0  0  0  0
 12 13  1  0  0  0  0
 12 33  1  0  0  0  0
 13 14  2  0  0  0  0
 13 34  1  0  0  0  0
 14 15  1  0  0  0  0
 14 35  1  0  0  0  0
 15 16  2  0  0  0  0
 15 36  1  0  0  0  0
 16 17  1  0  0  0  0
 18 23  2  0  0  0  0
 18 19  1  0  0  0  0
 19 20  2  0  0  0  0
 19 37  1  0  0  0  0
 20 21  1  0  0  0  0
 20 38  1  0  0  0  0
 21 22  2  0  0  0  0
 21 39  1  0  0  0  0
 22 23  1  0  0  0  0
 22 40  1  0  0  0  0
M  END
> <s_m_source_file>
AV-unprocessed.smi

> <i_m_source_file_index>
418

> <i_lp_mmshare_version>
43012

> <i_f3d_flags>
0

> <s_epik_input>
W2NIXTFbY0hdW2NIXVtjSF1jKGMxMiluKFtDSDNdKWMoPU8pbjJbQ0gyXVtDQEhdKFtPSF0pW0NIMl1PYzNbY0hdW2NIXVtjSF1bY0hdYzNG

> <s_epik_cmdline>
J2VwaWtfcHl0aG9uJywgJy1waCcsICc3LjAnLCAnLXRuJywgJzgnLCAnLW1hJywgJzIwMCcsICctbWV0YWxfYmluZGluZycsICctaW1hZScsICc8aW5maWxlLm1hZT4nLCAnLW9tYWUnLCAnPG91dGZpbGUubWFlPic=

> <r_lp_tautomer_probability>
1

> <r_epik_Ionization_Penalty>
2.40171e-06

> <r_epik_Ionization_Penalty_Charging>
2.41238e-09

> <r_epik_Ionization_Penalty_Neutral>
2.3993e-06

> <r_epik_State_Penalty>
-0

> <r_epik_Charging_Adjusted_Penalty>
2.41238e-09

> <i_epik_Tot_Q>
0

> <i_epik_Tot_abs_Q>
0

> <r_epik_Metal_State_Penalty>
-0

> <b_epik_Metal_Only>
0

> <s_lp_Force_Field>
OPLS_2005

> <r_lp_Energy>
48.5553

> <b_lp_Chiralities_Consistent>
1

> <s_lp_Variant>
AV-unprocessed.smi:418-2

> <Gold.Version>
5.8.1

> <Gold.Id.Protein>
6NUR|6NUR_protein|mol2

> <Gold.PLP.Fitness>
56.8284

> <Gold.PLP.PLP>
-49.8906

> <Gold.PLP.part.hbond>
-3.0000

> <Gold.PLP.part.metal>
0.0000

> <Gold.PLP.part.buried>
-6.1163

> <Gold.PLP.part.nonpolar>
-40.7126

> <Gold.PLP.part.repulsive>
0.0754

> <Gold.PLP.ligand.clash>
0.0000

> <Gold.PLP.ligand.torsion>
1.0401

> <Gold.PLP.Chemscore.Hbond>
2.9920

> <Gold.PLP.Chemscore.CHOScore>
0.0000

> <Gold.PLP.Chemscore.Metal>
0.0000

> <Gold.Chemscore.Hbonds>
donor molecule, donor type, donor heavy atom, donor atom, acceptor molecule, acceptor atom, score
      L1  H     8    30       P1  8028  1.00
      P1  H  7989  7998       L1    10  1.00
      P1  H  7997  8009       L1     4  0.98

> <Gold.PLP.Chemscore.Internal.Correction>
0.0421

> <Gold.Rescore>
     Score         DG    S(hbond)    S(metal)    S(lipo)     H(rot)  DE(clash)    DE(int)     intcor
     20.62     -22.49       2.71        0.00     117.77       2.27       1.15       0.73       ----

> <Gold.Chemscore.Fitness>
20.6185

> <Gold.Chemscore.DG>
-22.4947

> <Gold.Chemscore.ZeroCoef>
-5.4800

> <Gold.Chemscore.Hbond>
2.7091

> <Gold.Chemscore.Metal>
0.0000

> <Gold.Chemscore.Lipo>
117.7710

> <Gold.Chemscore.Internal_Hbond>
0.0000

> <Gold.Chemscore.DEClash>
1.1484

> <Gold.Chemscore.DEInternal>
0.7278

> <Gold.Chemscore.Rot>
2.2706

> <Gold.Chemscore.Internal.Correction>
   9.000000E+99

> <Gold.Chemscore.Hbonds>
donor molecule, donor type, donor heavy atom, donor atom, acceptor molecule, acceptor atom, score
      L1  H     8    30       P1  8028  0.98
      P1  H  7989  7998       L1    10  0.84
      P1  H  7997  8009       L1     4  0.80

> <Gold.Chemscore.Hbond.Weighted>
-9.0483

> <Gold.Chemscore.Metal.Weighted>
-0.0000

> <Gold.Chemscore.Lipo.Weighted>
-13.7792

> <Gold.Chemscore.Internal_Hbond.Weighted>
0.0000

> <Gold.Chemscore.DEClash.Weighted>
1.1484

> <Gold.Chemscore.DEInternal.Weighted>
0.7278

> <Gold.Chemscore.Rot.Weighted>
5.8128

> <Gold.Chemscore.Internal.Correction.Weighted>
   9.000000E+99

> <Gold.Protein.RotatedTorsions>
[ 6907 6896 6895 6894 ] final   -6.56 input  -60.11 | X-H torsion
[ 7974 7965 7964 7962 ] final   76.88 input  175.53 | X-H torsion
[ 8008 7997 7996 7995 ] final  139.74 input   59.86 | X-H torsion
[ 10167 10162 10161 10158 ] final   16.52 input  -65.29 | X-H torsion
[ 10718 10713 10712 10709 ] final  177.24 input   66.30 | X-H torsion
[ 10763 10752 10751 10750 ] final -166.86 input  -60.55 | X-H torsion
[ 11005 11000 10999 10996 ] final  127.23 input  -57.11 | X-H torsion

> <Gold.Protein.ActiveResidues>
 VAL166  LYS551  ARG553  GLY616  TRP617  ASP618  TYR619  PRO620  LYS621  CYS622 
 ASP623  PHE694  ASN695  SER759  ASP760  ASP761  ALA762  ILE779  LEU786  VAL792 
 PHE793  MET794  SER795  GLU796  ALA797  LYS798  CYS799  TRP800  GLU811  SER814 

> <Gold.Protein.RotatedAtoms>
  151.4636  135.1040  159.9731 H   0  0  0  0  0  0  0  0  0  0  0  0  # atno 6907 bound_to 6896
  152.4843  133.8330  159.7123 H   0  0  0  0  0  0  0  0  0  0  0  0  # atno 6908 bound_to 6896
  150.8940  133.7145  159.2924 H   0  0  0  0  0  0  0  0  0  0  0  0  # atno 6909 bound_to 6896
  145.6971  139.2571  143.1726 H   0  0  0  0  0  0  0  0  0  0  0  0  # atno 7974 bound_to 7965
  156.2987  140.2360  156.4286 H   0  0  0  0  0  0  0  0  0  0  0  0  # atno 8008 bound_to 7997
  154.8290  140.0434  157.1484 H   0  0  0  0  0  0  0  0  0  0  0  0  # atno 8009 bound_to 7997
  154.9229  140.3006  155.5211 H   0  0  0  0  0  0  0  0  0  0  0  0  # atno 8010 bound_to 7997
  140.5791  143.9014  150.6775 H   0  0  0  0  0  0  0  0  0  0  0  0  # atno 10167 bound_to 10162
  156.9083  130.9901  151.3025 H   0  0  0  0  0  0  0  0  0  0  0  0  # atno 10718 bound_to 10713
  154.6791  135.2951  154.9638 H   0  0  0  0  0  0  0  0  0  0  0  0  # atno 10763 bound_to 10752
  154.0639  135.6627  153.4819 H   0  0  0  0  0  0  0  0  0  0  0  0  # atno 10764 bound_to 10752
  153.0535  135.5159  154.7825 H   0  0  0  0  0  0  0  0  0  0  0  0  # atno 10765 bound_to 10752
  139.9497  134.9624  156.8824 H   0  0  0  0  0  0  0  0  0  0  0  0  # atno 11005 bound_to 11000
  146.0830  140.7742  142.9632 LP  0  0  0  0  0  0  0  0  0  0  0  0  # atno 17320 bound_to 7965
  144.6979  140.3519  143.7180 LP  0  0  0  0  0  0  0  0  0  0  0  0  # atno 17321 bound_to 7965
  140.2509  143.3594  152.1406 LP  0  0  0  0  0  0  0  0  0  0  0  0  # atno 17342 bound_to 10162
  139.5160  144.6971  151.5601 LP  0  0  0  0  0  0  0  0  0  0  0  0  # atno 17343 bound_to 10162
  157.5984  130.8494  149.8764 LP  0  0  0  0  0  0  0  0  0  0  0  0  # atno 17370 bound_to 10713
  156.0548  130.3710  150.1116 LP  0  0  0  0  0  0  0  0  0  0  0  0  # atno 17371 bound_to 10713
  140.5749  134.0407  155.7443 LP  0  0  0  0  0  0  0  0  0  0  0  0  # atno 17394 bound_to 11000
  141.1156  133.9545  157.2828 LP  0  0  0  0  0  0  0  0  0  0  0  0  # atno 17395 bound_to 11000

$$$$
