AV-unprocessed.smi:36|AV-procd|sdf|295|dock8
  -GOLD-   2262016 93D 1   1.00000     0.00000
 Structure written by MMmdl.
 63 66  0  0  0  0  0  0  0  0  2 V2000
  146.2480  135.4216  161.8278 C   0  0  0  0  0  0  0  0  0  0  0  0
  146.7369  134.1221  162.4886 C   0  0  0  0  0  0  0  0  0  0  0  0
  148.0436  134.3911  163.2542 C   0  0  0  0  0  0  0  0  0  0  0  0
  145.6642  133.5893  163.4528 C   0  0  0  0  0  0  0  0  0  0  0  0
  147.0743  132.8195  161.1329 Si  0  0  0  0  0  0  0  0  0  0  0  0
  147.4685  131.1252  161.9030 C   0  0  0  0  0  0  0  0  0  0  0  0
  145.5945  132.6543  159.9530 C   0  0  0  0  0  0  0  0  0  0  0  0
  148.4049  133.3483  160.2284 O   0  0  0  0  0  0  0  0  0  0  0  0
  148.8214  132.7622  159.0121 C   0  0  0  0  0  0  0  0  0  0  0  0
  149.5455  133.8183  158.1663 C   0  0  2  0  0  0  0  0  0  0  0  0
  148.7015  134.9517  157.9878 O   0  0  0  0  0  0  0  0  0  0  0  0
  148.9838  135.5751  156.7701 C   0  0  1  0  0  0  0  0  0  0  0  0
  149.5348  136.9335  157.0566 N   0  0  0  0  0  0  0  0  0  0  0  0
  149.7424  137.5251  158.2511 C   0  0  0  0  0  0  0  0  0  0  0  0
  150.2434  138.7591  158.2447 N   0  0  0  0  0  0  0  0  0  0  0  0
  150.3741  139.0022  156.8848 C   0  0  0  0  0  0  0  0  0  0  0  0
  150.8388  140.1287  156.1509 C   0  0  0  0  0  0  0  0  0  0  0  0
  151.2779  141.2519  156.7396 N   0  5  0  0  0  0  0  0  0  0  0  0
  152.2276  141.1827  157.7068 C   0  0  0  0  0  0  0  0  0  0  0  0
  153.0070  140.2556  157.9364 O   0  0  0  0  0  0  0  0  0  0  0  0
  152.2371  142.3804  158.6193 C   0  0  0  0  0  0  0  0  0  0  0  0
  151.7553  143.6231  158.1479 C   0  0  0  0  0  0  0  0  0  0  0  0
  151.7337  144.7505  158.9919 C   0  0  0  0  0  0  0  0  0  0  0  0
  152.1856  144.6454  160.3204 C   0  0  0  0  0  0  0  0  0  0  0  0
  152.6545  143.4104  160.8056 C   0  0  0  0  0  0  0  0  0  0  0  0
  152.6759  142.2823  159.9624 C   0  0  0  0  0  0  0  0  0  0  0  0
  150.8425  140.0213  154.7974 N   0  0  0  0  0  0  0  0  0  0  0  0
  150.4097  138.9013  154.2061 C   0  0  0  0  0  0  0  0  0  0  0  0
  149.9425  137.7810  154.7661 N   0  0  0  0  0  0  0  0  0  0  0  0
  149.9412  137.8749  156.1278 C   0  0  0  0  0  0  0  0  0  0  0  0
  150.0246  134.7156  156.0463 C   0  0  0  0  0  0  0  0  0  0  0  0
  149.8404  133.3776  156.7326 C   0  0  1  0  0  0  0  0  0  0  0  0
  151.0120  132.5926  156.6403 O   0  0  0  0  0  0  0  0  0  0  0  0
  146.0574  136.1970  162.5706 H   0  0  0  0  0  0  0  0  0  0  0  0
  145.3220  135.2637  161.2747 H   0  0  0  0  0  0  0  0  0  0  0  0
  146.9870  135.8117  161.1274 H   0  0  0  0  0  0  0  0  0  0  0  0
  148.8287  134.7453  162.5852 H   0  0  0  0  0  0  0  0  0  0  0  0
  148.4125  133.4894  163.7432 H   0  0  0  0  0  0  0  0  0  0  0  0
  147.9031  135.1480  164.0265 H   0  0  0  0  0  0  0  0  0  0  0  0
  145.4507  134.3087  164.2440 H   0  0  0  0  0  0  0  0  0  0  0  0
  145.9832  132.6622  163.9298 H   0  0  0  0  0  0  0  0  0  0  0  0
  144.7281  133.3863  162.9321 H   0  0  0  0  0  0  0  0  0  0  0  0
  146.6196  130.7359  162.4646 H   0  0  0  0  0  0  0  0  0  0  0  0
  148.3119  131.1804  162.5906 H   0  0  0  0  0  0  0  0  0  0  0  0
  147.7182  130.3859  161.1425 H   0  0  0  0  0  0  0  0  0  0  0  0
  144.6962  132.3318  160.4787 H   0  0  0  0  0  0  0  0  0  0  0  0
  145.7904  131.9248  159.1675 H   0  0  0  0  0  0  0  0  0  0  0  0
  145.3640  133.6009  159.4650 H   0  0  0  0  0  0  0  0  0  0  0  0
  149.4851  131.9236  159.2259 H   0  0  0  0  0  0  0  0  0  0  0  0
  147.9589  132.3595  158.4810 H   0  0  0  0  0  0  0  0  0  0  0  0
  150.4684  134.1433  158.6487 H   0  0  0  0  0  0  0  0  0  0  0  0
  148.0661  135.7348  156.2033 H   0  0  0  0  0  0  0  0  0  0  0  0
  149.5116  137.0225  159.1787 H   0  0  0  0  0  0  0  0  0  0  0  0
  151.4037  143.7208  157.1310 H   0  0  0  0  0  0  0  0  0  0  0  0
  151.3688  145.6959  158.6189 H   0  0  0  0  0  0  0  0  0  0  0  0
  152.1688  145.5097  160.9675 H   0  0  0  0  0  0  0  0  0  0  0  0
  152.9953  143.3261  161.8268 H   0  0  0  0  0  0  0  0  0  0  0  0
  153.0298  141.3414  160.3585 H   0  0  0  0  0  0  0  0  0  0  0  0
  150.4431  138.9032  153.1268 H   0  0  0  0  0  0  0  0  0  0  0  0
  149.8397  134.6904  154.9721 H   0  0  0  0  0  0  0  0  0  0  0  0
  151.0260  135.1115  156.2265 H   0  0  0  0  0  0  0  0  0  0  0  0
  148.9893  132.8452  156.3055 H   0  0  0  0  0  0  0  0  0  0  0  0
  150.9362  132.0248  155.8884 H   0  0  0  0  0  0  0  0  0  0  0  0
  1  2  1  0  0  0  0
  1 34  1  0  0  0  0
  1 35  1  0  0  0  0
  1 36  1  0  0  0  0
  2  3  1  0  0  0  0
  2  4  1  0  0  0  0
  2  5  1  0  0  0  0
  3 37  1  0  0  0  0
  3 38  1  0  0  0  0
  3 39  1  0  0  0  0
  4 40  1  0  0  0  0
  4 41  1  0  0  0  0
  4 42  1  0  0  0  0
  5  6  1  0  0  0  0
  5  7  1  0  0  0  0
  5  8  1  0  0  0  0
  6 43  1  0  0  0  0
  6 44  1  0  0  0  0
  6 45  1  0  0  0  0
  7 46  1  0  0  0  0
  7 47  1  0  0  0  0
  7 48  1  0  0  0  0
  8  9  1  0  0  0  0
  9 10  1  0  0  0  0
  9 49  1  0  0  0  0
  9 50  1  0  0  0  0
 10 32  1  0  0  0  0
 10 11  1  0  0  0  0
 10 51  1  0  0  0  0
 11 12  1  0  0  0  0
 12 13  1  0  0  0  0
 12 31  1  0  0  0  0
 12 52  1  0  0  0  0
 13 30  1  0  0  0  0
 13 14  1  0  0  0  0
 14 15  2  0  0  0  0
 14 53  1  0  0  0  0
 15 16  1  0  0  0  0
 16 30  2  0  0  0  0
 16 17  1  0  0  0  0
 17 18  1  0  0  0  0
 17 27  2  0  0  0  0
 18 19  1  0  0  0  0
 19 20  2  0  0  0  0
 19 21  1  0  0  0  0
 21 26  1  0  0  0  0
 21 22  2  0  0  0  0
 22 23  1  0  0  0  0
 22 54  1  0  0  0  0
 23 24  2  0  0  0  0
 23 55  1  0  0  0  0
 24 25  1  0  0  0  0
 24 56  1  0  0  0  0
 25 26  2  0  0  0  0
 25 57  1  0  0  0  0
 26 58  1  0  0  0  0
 27 28  1  0  0  0  0
 28 29  2  0  0  0  0
 28 59  1  0  0  0  0
 29 30  1  0  0  0  0
 31 32  1  0  0  0  0
 31 60  1  0  0  0  0
 31 61  1  0  0  0  0
 32 33  1  0  0  0  0
 32 62  1  0  0  0  0
 33 63  1  0  0  0  0
M  CHG  1  18  -1
M  END
> <s_m_source_file>
AV-unprocessed.smi

> <i_m_source_file_index>
36

> <i_lp_mmshare_version>
43012

> <i_f3d_flags>
0

> <s_epik_input>
W0NIM11DKFtDSDNdKShbQ0gzXSlbU2ldKFtDSDNdKShbQ0gzXSlPW0NIMl1bQ0BASF0xT1tDQEhdKFtDSDJdW0NASF0xW09IXSluKFtjSF1uMiljKGMyMyluW2NIXW5jM1tOSF1DKD1PKWM0W2NIXVtjSF1bY0hdW2NIXVtjSF00

> <s_epik_cmdline>
J2VwaWtfcHl0aG9uJywgJy1waCcsICc3LjAnLCAnLXRuJywgJzgnLCAnLW1hJywgJzIwMCcsICctbWV0YWxfYmluZGluZycsICctaW1hZScsICc8aW5maWxlLm1hZT4nLCAnLW9tYWUnLCAnPG91dGZpbGUubWFlPic=

> <r_lp_tautomer_probability>
1

> <r_epik_Ionization_Penalty>
4.75685

> <r_epik_Ionization_Penalty_Charging>
3.55822

> <r_epik_Ionization_Penalty_Neutral>
1.19863

> <r_epik_State_Penalty>
3.564

> <r_epik_Charging_Adjusted_Penalty>
7.12222

> <i_epik_Tot_Q>
-1

> <i_epik_Tot_abs_Q>
1

> <r_epik_Metal_State_Penalty>
0.523258

> <b_epik_Metal_Only>
1

> <s_epik_Chemistry_Notes>
This compound contains an acetal/aminal-like group ( X-CH(R)-Y where X, Y are N, S, or O) that may be acid/base labile, releasing an aldehyde.

> <s_lp_Force_Field>
OPLS_2005

> <r_lp_Energy>
36.9476

> <b_lp_Chiralities_Consistent>
1

> <s_lp_Variant>
AV-unprocessed.smi:36-17

> <Gold.Version>
5.8.1

> <Gold.Id.Protein>
6NUR|6NUR_protein|mol2

> <Gold.PLP.Fitness>
54.2744

> <Gold.PLP.PLP>
-47.5400

> <Gold.PLP.part.hbond>
-2.0000

> <Gold.PLP.part.metal>
0.0000

> <Gold.PLP.part.buried>
-5.9976

> <Gold.PLP.part.nonpolar>
-38.2158

> <Gold.PLP.part.repulsive>
0.3059

> <Gold.PLP.ligand.clash>
0.0000

> <Gold.PLP.ligand.torsion>
1.2831

> <Gold.PLP.Chemscore.Hbond>
1.9920

> <Gold.PLP.Chemscore.CHOScore>
1.0000

> <Gold.PLP.Chemscore.Metal>
0.0000

> <Gold.Chemscore.Hbonds>
donor molecule, donor type, donor heavy atom, donor atom, acceptor molecule, acceptor atom, score
      P1  H  7989  7998       L1    27  1.00
      P1  H  7997  8010       L1    20  0.94
      L1  C    28    59       P1  7957  1.00

> <Gold.PLP.Chemscore.Internal.Correction>
0.3245

> <Gold.Rescore>
     Score         DG    S(hbond)    S(metal)    S(lipo)     H(rot)  DE(clash)    DE(int)     intcor
     18.03     -19.32       1.87        0.00     123.42       2.67       0.35       0.95       ----

> <Gold.Chemscore.Fitness>
18.0294

> <Gold.Chemscore.DG>
-19.3225

> <Gold.Chemscore.ZeroCoef>
-5.4800

> <Gold.Chemscore.Hbond>
1.8676

> <Gold.Chemscore.Metal>
0.0000

> <Gold.Chemscore.Lipo>
123.4230

> <Gold.Chemscore.Internal_Hbond>
0.0000

> <Gold.Chemscore.DEClash>
0.3468

> <Gold.Chemscore.DEInternal>
0.9462

> <Gold.Chemscore.Rot>
2.6702

> <Gold.Chemscore.Internal.Correction>
   9.000000E+99

> <Gold.Chemscore.Hbonds>
donor molecule, donor type, donor heavy atom, donor atom, acceptor molecule, acceptor atom, score
      P1  H  7989  7998       L1    27  0.40
      P1  H  7997  8010       L1    20  0.87

> <Gold.Chemscore.Hbond.Weighted>
-6.2377

> <Gold.Chemscore.Metal.Weighted>
-0.0000

> <Gold.Chemscore.Lipo.Weighted>
-14.4405

> <Gold.Chemscore.Internal_Hbond.Weighted>
0.0000

> <Gold.Chemscore.DEClash.Weighted>
0.3468

> <Gold.Chemscore.DEInternal.Weighted>
0.9462

> <Gold.Chemscore.Rot.Weighted>
6.8358

> <Gold.Chemscore.Internal.Correction.Weighted>
   9.000000E+99

> <Gold.Protein.RotatedTorsions>
[ 6907 6896 6895 6894 ] final  -19.02 input  -60.11 | X-H torsion
[ 7974 7965 7964 7962 ] final   75.58 input  175.53 | X-H torsion
[ 8008 7997 7996 7995 ] final   46.47 input   59.86 | X-H torsion
[ 10167 10162 10161 10158 ] final -178.99 input  -65.29 | X-H torsion
[ 10718 10713 10712 10709 ] final  -45.85 input   66.30 | X-H torsion
[ 10763 10752 10751 10750 ] final   33.92 input  -60.55 | X-H torsion
[ 11005 11000 10999 10996 ] final  -42.95 input  -57.11 | X-H torsion

> <Gold.Protein.ActiveResidues>
 VAL166  LYS551  ARG553  GLY616  TRP617  ASP618  TYR619  PRO620  LYS621  CYS622 
 ASP623  PHE694  ASN695  SER759  ASP760  ASP761  ALA762  ILE779  LEU786  VAL792 
 PHE793  MET794  SER795  GLU796  ALA797  LYS798  CYS799  TRP800  GLU811  SER814 

> <Gold.Protein.RotatedAtoms>
  151.2693  135.0679  159.9127 H   0  0  0  0  0  0  0  0  0  0  0  0  # atno 6907 bound_to 6896
  152.5353  134.0147  159.7965 H   0  0  0  0  0  0  0  0  0  0  0  0  # atno 6908 bound_to 6896
  151.0383  133.5679  159.2684 H   0  0  0  0  0  0  0  0  0  0  0  0  # atno 6909 bound_to 6896
  145.7138  139.2624  143.1635 H   0  0  0  0  0  0  0  0  0  0  0  0  # atno 7974 bound_to 7965
  155.3530  140.3414  155.4239 H   0  0  0  0  0  0  0  0  0  0  0  0  # atno 8008 bound_to 7997
  156.1754  140.1646  156.8407 H   0  0  0  0  0  0  0  0  0  0  0  0  # atno 8009 bound_to 7997
  154.5276  140.0752  156.8270 H   0  0  0  0  0  0  0  0  0  0  0  0  # atno 8010 bound_to 7997
  139.5407  144.2372  152.0888 H   0  0  0  0  0  0  0  0  0  0  0  0  # atno 10167 bound_to 10162
  156.2242  130.4168  149.8955 H   0  0  0  0  0  0  0  0  0  0  0  0  # atno 10718 bound_to 10713
  153.0189  135.6374  154.1586 H   0  0  0  0  0  0  0  0  0  0  0  0  # atno 10763 bound_to 10752
  154.1323  135.2840  155.3183 H   0  0  0  0  0  0  0  0  0  0  0  0  # atno 10764 bound_to 10752
  154.6185  135.5532  153.7611 H   0  0  0  0  0  0  0  0  0  0  0  0  # atno 10765 bound_to 10752
  141.0351  133.6803  156.2665 H   0  0  0  0  0  0  0  0  0  0  0  0  # atno 11005 bound_to 11000
  146.0688  140.7891  142.9698 LP  0  0  0  0  0  0  0  0  0  0  0  0  # atno 17320 bound_to 7965
  144.6935  140.3310  143.7216 LP  0  0  0  0  0  0  0  0  0  0  0  0  # atno 17321 bound_to 7965
  140.1850  144.4807  150.6508 LP  0  0  0  0  0  0  0  0  0  0  0  0  # atno 17342 bound_to 10162
  140.6635  143.2260  151.5800 LP  0  0  0  0  0  0  0  0  0  0  0  0  # atno 17343 bound_to 10162
  156.6591  130.8774  151.3544 LP  0  0  0  0  0  0  0  0  0  0  0  0  # atno 17370 bound_to 10713
  157.7102  130.9432  150.1065 LP  0  0  0  0  0  0  0  0  0  0  0  0  # atno 17371 bound_to 10713
  140.6337  134.5237  157.5562 LP  0  0  0  0  0  0  0  0  0  0  0  0  # atno 17394 bound_to 11000
  139.9235  134.8102  156.1140 LP  0  0  0  0  0  0  0  0  0  0  0  0  # atno 17395 bound_to 11000

$$$$
