AV-unprocessed.smi:389|AV-procd|sdf|2476|dock8
  -GOLD-   2262022413D 1   1.00000     0.00000
 Structure written by MMmdl.
 34 34  0  0  0  0  0  0  0  0  1 V2000
  152.7200  142.6384  159.4785 C   0  0  0  0  0  0  0  0  0  0  0  0
  152.2054  143.7779  158.5863 C   0  0  0  0  0  0  0  0  0  0  0  0
  152.0625  145.0756  159.3985 C   0  0  0  0  0  0  0  0  0  0  0  0
  150.8864  143.3727  157.8897 C   0  0  0  0  0  0  0  0  0  0  0  0
  150.9945  142.1858  156.9091 C   0  0  0  0  0  0  0  0  0  0  0  0
  149.8776  142.1365  155.9719 N   0  0  0  0  0  0  0  0  0  0  0  0
  149.6868  141.1821  155.0488 C   0  0  0  0  0  0  0  0  0  0  0  0
  150.4107  140.1914  154.9421 O   0  0  0  0  0  0  0  0  0  0  0  0
  148.4893  141.3769  154.1089 C   0  0  0  0  0  0  0  0  0  0  0  0
  147.5096  140.2855  154.2115 N   0  0  0  0  0  0  0  0  0  0  0  0
  147.2274  139.4887  153.1108 C   0  0  0  0  0  0  0  0  0  0  0  0
  146.3286  138.4761  153.1347 C   0  0  0  0  0  0  0  0  0  0  0  0
  145.5937  138.1688  154.3570 C   0  0  0  0  0  0  0  0  0  0  0  0
  144.7613  137.2726  154.4777 O   0  0  0  0  0  0  0  0  0  0  0  0
  145.9040  138.9932  155.4418 N   0  0  0  0  0  0  0  0  0  0  0  0
  146.8285  140.0386  155.4243 C   0  0  0  0  0  0  0  0  0  0  0  0
  147.0251  140.7077  156.4385 O   0  0  0  0  0  0  0  0  0  0  0  0
  145.4174  138.8196  156.3094 H   0  0  0  0  0  0  0  0  0  0  0  0
  152.0114  142.4061  160.2739 H   0  0  0  0  0  0  0  0  0  0  0  0
  153.6699  142.9024  159.9446 H   0  0  0  0  0  0  0  0  0  0  0  0
  152.8825  141.7285  158.8999 H   0  0  0  0  0  0  0  0  0  0  0  0
  152.9663  143.9441  157.8231 H   0  0  0  0  0  0  0  0  0  0  0  0
  151.2930  144.9804  160.1651 H   0  0  0  0  0  0  0  0  0  0  0  0
  151.7987  145.9202  158.7625 H   0  0  0  0  0  0  0  0  0  0  0  0
  152.9979  145.3299  159.8975 H   0  0  0  0  0  0  0  0  0  0  0  0
  150.1473  143.1227  158.6521 H   0  0  0  0  0  0  0  0  0  0  0  0
  150.4774  144.2336  157.3598 H   0  0  0  0  0  0  0  0  0  0  0  0
  151.9350  142.2419  156.3587 H   0  0  0  0  0  0  0  0  0  0  0  0
  151.0237  141.2438  157.4563 H   0  0  0  0  0  0  0  0  0  0  0  0
  149.2279  142.9091  155.9961 H   0  0  0  0  0  0  0  0  0  0  0  0
  148.0246  142.3345  154.3476 H   0  0  0  0  0  0  0  0  0  0  0  0
  148.8308  141.4694  153.0756 H   0  0  0  0  0  0  0  0  0  0  0  0
  147.7447  139.6816  152.1818 H   0  0  0  0  0  0  0  0  0  0  0  0
  146.1513  137.8912  152.2439 H   0  0  0  0  0  0  0  0  0  0  0  0
  1  2  1  0  0  0  0
  1 19  1  0  0  0  0
  1 20  1  0  0  0  0
  1 21  1  0  0  0  0
  2  3  1  0  0  0  0
  2  4  1  0  0  0  0
  2 22  1  0  0  0  0
  3 23  1  0  0  0  0
  3 24  1  0  0  0  0
  3 25  1  0  0  0  0
  4  5  1  0  0  0  0
  4 26  1  0  0  0  0
  4 27  1  0  0  0  0
  5  6  1  0  0  0  0
  5 28  1  0  0  0  0
  5 29  1  0  0  0  0
  6  7  1  0  0  0  0
  6 30  1  0  0  0  0
  7  8  2  0  0  0  0
  7  9  1  0  0  0  0
  9 10  1  0  0  0  0
  9 31  1  0  0  0  0
  9 32  1  0  0  0  0
 10 16  1  0  0  0  0
 10 11  1  0  0  0  0
 11 12  2  0  0  0  0
 11 33  1  0  0  0  0
 12 13  1  0  0  0  0
 12 34  1  0  0  0  0
 13 14  2  0  0  0  0
 13 15  1  0  0  0  0
 15 18  1  0  0  0  0
 15 16  1  0  0  0  0
 16 17  2  0  0  0  0
M  END
> <s_m_source_file>
AV-unprocessed.smi

> <i_m_source_file_index>
389

> <i_lp_mmshare_version>
43012

> <i_f3d_flags>
0

> <s_epik_input>
W0NIM11bQ0hdKFtDSDNdKVtDSDJdW0NIMl1bTkhdQyg9TylbQ0gyXW4xW2NIXVtjSF1jKD1PKVtuSF1jMT1P

> <s_epik_cmdline>
J2VwaWtfcHl0aG9uJywgJy1waCcsICc3LjAnLCAnLXRuJywgJzgnLCAnLW1hJywgJzIwMCcsICctbWV0YWxfYmluZGluZycsICctaW1hZScsICc8aW5maWxlLm1hZT4nLCAnLW9tYWUnLCAnPG91dGZpbGUubWFlPic=

> <r_lp_tautomer_probability>
0.999537

> <r_epik_Ionization_Penalty>
0.00305319

> <r_epik_Ionization_Penalty_Charging>
0.00305317

> <r_epik_Ionization_Penalty_Neutral>
2.06703e-08

> <r_epik_State_Penalty>
0.00214626

> <r_epik_Charging_Adjusted_Penalty>
0.00519944

> <i_epik_Tot_Q>
0

> <i_epik_Tot_abs_Q>
0

> <r_epik_Metal_State_Penalty>
0.361976

> <b_epik_Metal_Only>
0

> <s_lp_Force_Field>
OPLS_2005

> <r_lp_Energy>
4.98151

> <b_lp_Chiralities_Consistent>
1

> <s_lp_Variant>
AV-unprocessed.smi:389-1

> <Gold.Version>
5.8.1

> <Gold.Id.Protein>
6NUR|6NUR_protein|mol2

> <Gold.PLP.Fitness>
40.5171

> <Gold.PLP.PLP>
-31.7521

> <Gold.PLP.part.hbond>
-2.0000

> <Gold.PLP.part.metal>
0.0000

> <Gold.PLP.part.buried>
-2.4206

> <Gold.PLP.part.nonpolar>
-27.0949

> <Gold.PLP.part.repulsive>
0.2818

> <Gold.PLP.ligand.clash>
0.0000

> <Gold.PLP.ligand.torsion>
0.1147

> <Gold.PLP.Chemscore.Hbond>
1.9920

> <Gold.PLP.Chemscore.CHOScore>
1.0000

> <Gold.PLP.Chemscore.Metal>
0.0000

> <Gold.Chemscore.Hbonds>
donor molecule, donor type, donor heavy atom, donor atom, acceptor molecule, acceptor atom, score
      L1  H     6    30       P1  8028  0.98
      P1  H  7989  7998       L1     8  0.90
      L1  C    11    33       P1  7957  1.00

> <Gold.PLP.Chemscore.Internal.Correction>
0.0183

> <Gold.Rescore>
     Score         DG    S(hbond)    S(metal)    S(lipo)     H(rot)  DE(clash)    DE(int)     intcor
     14.17     -14.53       1.66        0.00      78.97       2.24       0.28       0.07       ----

> <Gold.Chemscore.Fitness>
14.1704

> <Gold.Chemscore.DG>
-14.5259

> <Gold.Chemscore.ZeroCoef>
-5.4800

> <Gold.Chemscore.Hbond>
1.6599

> <Gold.Chemscore.Metal>
0.0000

> <Gold.Chemscore.Lipo>
78.9740

> <Gold.Chemscore.Internal_Hbond>
0.0000

> <Gold.Chemscore.DEClash>
0.2827

> <Gold.Chemscore.DEInternal>
0.0728

> <Gold.Chemscore.Rot>
2.2414

> <Gold.Chemscore.Internal.Correction>
   9.000000E+99

> <Gold.Chemscore.Hbonds>
donor molecule, donor type, donor heavy atom, donor atom, acceptor molecule, acceptor atom, score
      L1  H     6    30       P1  8028  0.93
      P1  H  7989  7998       L1     8  0.17

> <Gold.Chemscore.Hbond.Weighted>
-5.5439

> <Gold.Chemscore.Metal.Weighted>
-0.0000

> <Gold.Chemscore.Lipo.Weighted>
-9.2400

> <Gold.Chemscore.Internal_Hbond.Weighted>
0.0000

> <Gold.Chemscore.DEClash.Weighted>
0.2827

> <Gold.Chemscore.DEInternal.Weighted>
0.0728

> <Gold.Chemscore.Rot.Weighted>
5.7380

> <Gold.Chemscore.Internal.Correction.Weighted>
   9.000000E+99

> <Gold.Protein.RotatedTorsions>
[ 6907 6896 6895 6894 ] final  131.04 input  -60.11 | X-H torsion
[ 7974 7965 7964 7962 ] final  154.99 input  175.53 | X-H torsion
[ 8008 7997 7996 7995 ] final   68.99 input   59.86 | X-H torsion
[ 10167 10162 10161 10158 ] final  118.86 input  -65.29 | X-H torsion
[ 10718 10713 10712 10709 ] final   89.15 input   66.30 | X-H torsion
[ 10763 10752 10751 10750 ] final   94.09 input  -60.55 | X-H torsion
[ 11005 11000 10999 10996 ] final  -11.73 input  -57.11 | X-H torsion

> <Gold.Protein.ActiveResidues>
 VAL166  LYS551  ARG553  GLY616  TRP617  ASP618  TYR619  PRO620  LYS621  CYS622 
 ASP623  PHE694  ASN695  SER759  ASP760  ASP761  ALA762  ILE779  LEU786  VAL792 
 PHE793  MET794  SER795  GLU796  ALA797  LYS798  CYS799  TRP800  GLU811  SER814 

> <Gold.Protein.RotatedAtoms>
  152.3466  133.6129  159.5914 H   0  0  0  0  0  0  0  0  0  0  0  0  # atno 6907 bound_to 6896
  150.7511  133.9640  159.3533 H   0  0  0  0  0  0  0  0  0  0  0  0  # atno 6908 bound_to 6896
  151.7497  135.0836  160.0380 H   0  0  0  0  0  0  0  0  0  0  0  0  # atno 6909 bound_to 6896
  144.8053  139.7008  143.6164 H   0  0  0  0  0  0  0  0  0  0  0  0  # atno 7974 bound_to 7965
  155.7167  140.3494  155.4998 H   0  0  0  0  0  0  0  0  0  0  0  0  # atno 8008 bound_to 7997
  155.9307  140.1083  157.1156 H   0  0  0  0  0  0  0  0  0  0  0  0  # atno 8009 bound_to 7997
  154.4085  140.1232  156.4785 H   0  0  0  0  0  0  0  0  0  0  0  0  # atno 8010 bound_to 7997
  139.6084  144.7076  151.2900 H   0  0  0  0  0  0  0  0  0  0  0  0  # atno 10167 bound_to 10162
  157.6953  131.0322  150.3383 H   0  0  0  0  0  0  0  0  0  0  0  0  # atno 10718 bound_to 10713
  153.2377  135.4302  155.0664 H   0  0  0  0  0  0  0  0  0  0  0  0  # atno 10763 bound_to 10752
  154.8326  135.3395  154.6695 H   0  0  0  0  0  0  0  0  0  0  0  0  # atno 10764 bound_to 10752
  153.7119  135.7022  153.5091 H   0  0  0  0  0  0  0  0  0  0  0  0  # atno 10765 bound_to 10752
  140.7584  133.8535  155.9103 H   0  0  0  0  0  0  0  0  0  0  0  0  # atno 11005 bound_to 11000
  146.2343  139.5875  142.9534 LP  0  0  0  0  0  0  0  0  0  0  0  0  # atno 17320 bound_to 7965
  145.5453  141.0417  143.2308 LP  0  0  0  0  0  0  0  0  0  0  0  0  # atno 17321 bound_to 7965
  140.7301  143.6888  150.7939 LP  0  0  0  0  0  0  0  0  0  0  0  0  # atno 17342 bound_to 10162
  140.0478  143.5280  152.2688 LP  0  0  0  0  0  0  0  0  0  0  0  0  # atno 17343 bound_to 10162
  156.3847  130.3887  149.7075 LP  0  0  0  0  0  0  0  0  0  0  0  0  # atno 17370 bound_to 10713
  156.4445  130.7877  151.2898 LP  0  0  0  0  0  0  0  0  0  0  0  0  # atno 17371 bound_to 10713
  140.9686  134.1561  157.4595 LP  0  0  0  0  0  0  0  0  0  0  0  0  # atno 17394 bound_to 11000
  139.8775  134.9970  156.5827 LP  0  0  0  0  0  0  0  0  0  0  0  0  # atno 17395 bound_to 11000

$$$$
