AV-unprocessed.smi:2125|AV-procd|sdf|8674|dock10
  -GOLD-   2272011423D 1   1.00000     0.00000
 Structure written by MMmdl.
 32 33  0  0  0  0  0  0  0  0  1 V2000
  153.7358  141.2835  161.3005 C   0  0  0  0  0  0  0  0  0  0  0  0
  153.0202  142.3806  160.6832 N   0  0  0  0  0  0  0  0  0  0  0  0
  152.5988  143.4703  161.4835 C   0  0  0  0  0  0  0  0  0  0  0  0
  152.8158  143.5303  162.6940 O   0  0  0  0  0  0  0  0  0  0  0  0
  151.8876  144.5134  160.7540 C   0  0  0  0  0  0  0  0  0  0  0  0
  151.6719  144.4079  159.4244 C   0  0  0  0  0  0  0  0  0  0  0  0
  152.0955  143.3315  158.6664 N   0  0  0  0  0  0  0  0  0  0  0  0
  151.8056  143.2956  157.2271 C   0  0  0  0  0  0  0  0  0  0  0  0
  150.9318  142.1020  156.8171 C   0  0  0  0  0  0  0  0  0  0  0  0
  151.3052  140.9464  157.0234 O   0  0  0  0  0  0  0  0  0  0  0  0
  149.7532  142.4035  156.2523 N   0  0  0  0  0  0  0  0  0  0  0  0
  148.7655  141.4282  155.8097 C   0  0  0  0  0  0  0  0  0  0  0  0
  149.1007  140.7256  154.5075 C   0  0  0  0  0  0  0  0  0  0  0  0
  148.5281  139.3649  154.1815 C   0  0  0  0  0  0  0  0  0  0  0  0
  149.9949  139.5077  154.5059 C   0  0  0  0  0  0  0  0  0  0  0  0
  152.7896  142.2754  159.2942 C   0  0  0  0  0  0  0  0  0  0  0  0
  153.1755  141.3003  158.6442 O   0  0  0  0  0  0  0  0  0  0  0  0
  153.8745  141.4487  162.3682 H   0  0  0  0  0  0  0  0  0  0  0  0
  154.7077  141.2139  160.8085 H   0  0  0  0  0  0  0  0  0  0  0  0
  153.1429  140.3811  161.1404 H   0  0  0  0  0  0  0  0  0  0  0  0
  151.5277  145.3819  161.2858 H   0  0  0  0  0  0  0  0  0  0  0  0
  151.1368  145.2062  158.9308 H   0  0  0  0  0  0  0  0  0  0  0  0
  151.2912  144.2105  156.9304 H   0  0  0  0  0  0  0  0  0  0  0  0
  152.7365  143.2842  156.6571 H   0  0  0  0  0  0  0  0  0  0  0  0
  149.5237  143.3782  156.1218 H   0  0  0  0  0  0  0  0  0  0  0  0
  148.6793  140.6715  156.5898 H   0  0  0  0  0  0  0  0  0  0  0  0
  147.7837  141.8990  155.7327 H   0  0  0  0  0  0  0  0  0  0  0  0
  149.2402  141.4042  153.6680 H   0  0  0  0  0  0  0  0  0  0  0  0
  147.8930  138.8893  154.9263 H   0  0  0  0  0  0  0  0  0  0  0  0
  148.2566  139.1709  153.1459 H   0  0  0  0  0  0  0  0  0  0  0  0
  150.7034  139.4059  153.6862 H   0  0  0  0  0  0  0  0  0  0  0  0
  150.3349  139.1260  155.4667 H   0  0  0  0  0  0  0  0  0  0  0  0
  1  2  1  0  0  0  0
  1 18  1  0  0  0  0
  1 19  1  0  0  0  0
  1 20  1  0  0  0  0
  2 16  1  0  0  0  0
  2  3  1  0  0  0  0
  3  4  2  0  0  0  0
  3  5  1  0  0  0  0
  5  6  2  0  0  0  0
  5 21  1  0  0  0  0
  6  7  1  0  0  0  0
  6 22  1  0  0  0  0
  7  8  1  0  0  0  0
  7 16  1  0  0  0  0
  8  9  1  0  0  0  0
  8 23  1  0  0  0  0
  8 24  1  0  0  0  0
  9 10  2  0  0  0  0
  9 11  1  0  0  0  0
 11 12  1  0  0  0  0
 11 25  1  0  0  0  0
 12 13  1  0  0  0  0
 12 26  1  0  0  0  0
 12 27  1  0  0  0  0
 13 15  1  0  0  0  0
 13 14  1  0  0  0  0
 13 28  1  0  0  0  0
 14 15  1  0  0  0  0
 14 29  1  0  0  0  0
 14 30  1  0  0  0  0
 15 31  1  0  0  0  0
 15 32  1  0  0  0  0
 16 17  2  0  0  0  0
M  END
> <s_m_source_file>
AV-unprocessed.smi

> <i_m_source_file_index>
2125

> <i_lp_mmshare_version>
43012

> <i_f3d_flags>
0

> <s_epik_input>
W0NIM11uMWMoPU8pW2NIXVtjSF1uKGMxPU8pW0NIMl1DKD1PKVtOSF1bQ0gyXVtDSF0yW0NIMl1bQ0gyXTI=

> <s_epik_cmdline>
J2VwaWtfcHl0aG9uJywgJy1waCcsICc3LjAnLCAnLXRuJywgJzgnLCAnLW1hJywgJzIwMCcsICctbWV0YWxfYmluZGluZycsICctaW1hZScsICc8aW5maWxlLm1hZT4nLCAnLW9tYWUnLCAnPG91dGZpbGUubWFlPic=

> <r_lp_tautomer_probability>
1

> <r_epik_Ionization_Penalty>
3.09839e-08

> <r_epik_Ionization_Penalty_Charging>
1.16822e-08

> <r_epik_Ionization_Penalty_Neutral>
1.93017e-08

> <r_epik_State_Penalty>
-0

> <r_epik_Charging_Adjusted_Penalty>
1.16822e-08

> <i_epik_Tot_Q>
0

> <i_epik_Tot_abs_Q>
0

> <r_epik_Metal_State_Penalty>
-0

> <b_epik_Metal_Only>
0

> <s_lp_Force_Field>
OPLS_2005

> <r_lp_Energy>
19.7621

> <b_lp_Chiralities_Consistent>
1

> <s_lp_Variant>
AV-unprocessed.smi:2125-1

> <Gold.Version>
5.8.1

> <Gold.Id.Protein>
6NUR|6NUR_protein|mol2

> <Gold.PLP.Fitness>
42.5708

> <Gold.PLP.PLP>
-39.7807

> <Gold.PLP.part.hbond>
-1.7670

> <Gold.PLP.part.metal>
0.0000

> <Gold.PLP.part.buried>
-1.3385

> <Gold.PLP.part.nonpolar>
-35.5599

> <Gold.PLP.part.repulsive>
0.2779

> <Gold.PLP.ligand.clash>
0.0000

> <Gold.PLP.ligand.torsion>
0.3755

> <Gold.PLP.Chemscore.Hbond>
1.0000

> <Gold.PLP.Chemscore.CHOScore>
0.0000

> <Gold.PLP.Chemscore.Metal>
0.0000

> <Gold.Chemscore.Hbonds>
donor molecule, donor type, donor heavy atom, donor atom, acceptor molecule, acceptor atom, score
      L1  H    11    25       P1  8028  1.00

> <Gold.PLP.Chemscore.Internal.Correction>
0.5411

> <Gold.Rescore>
     Score         DG    S(hbond)    S(metal)    S(lipo)     H(rot)  DE(clash)    DE(int)     intcor
      7.12     -12.42       1.00        0.00      70.49       1.81       1.04       4.26       ----

> <Gold.Chemscore.Fitness>
7.1179

> <Gold.Chemscore.DG>
-12.4162

> <Gold.Chemscore.ZeroCoef>
-5.4800

> <Gold.Chemscore.Hbond>
0.9955

> <Gold.Chemscore.Metal>
0.0000

> <Gold.Chemscore.Lipo>
70.4946

> <Gold.Chemscore.Internal_Hbond>
0.0000

> <Gold.Chemscore.DEClash>
1.0431

> <Gold.Chemscore.DEInternal>
4.2552

> <Gold.Chemscore.Rot>
1.8112

> <Gold.Chemscore.Internal.Correction>
   9.000000E+99

> <Gold.Chemscore.Hbonds>
donor molecule, donor type, donor heavy atom, donor atom, acceptor molecule, acceptor atom, score
      L1  H    11    25       P1  8028  0.96
      P1  H  7997  8008       L1    17  0.01

> <Gold.Chemscore.Hbond.Weighted>
-3.3251

> <Gold.Chemscore.Metal.Weighted>
-0.0000

> <Gold.Chemscore.Lipo.Weighted>
-8.2479

> <Gold.Chemscore.Internal_Hbond.Weighted>
0.0000

> <Gold.Chemscore.DEClash.Weighted>
1.0431

> <Gold.Chemscore.DEInternal.Weighted>
4.2552

> <Gold.Chemscore.Rot.Weighted>
4.6367

> <Gold.Chemscore.Internal.Correction.Weighted>
   9.000000E+99

> <Gold.Protein.RotatedTorsions>
[ 6907 6896 6895 6894 ] final -139.85 input  -60.11 | X-H torsion
[ 7974 7965 7964 7962 ] final  108.02 input  175.53 | X-H torsion
[ 8008 7997 7996 7995 ] final  -86.23 input   59.86 | X-H torsion
[ 10167 10162 10161 10158 ] final  -43.30 input  -65.29 | X-H torsion
[ 10718 10713 10712 10709 ] final -107.76 input   66.30 | X-H torsion
[ 10763 10752 10751 10750 ] final  138.98 input  -60.55 | X-H torsion
[ 11005 11000 10999 10996 ] final  121.94 input  -57.11 | X-H torsion

> <Gold.Protein.ActiveResidues>
 VAL166  LYS551  ARG553  GLY616  TRP617  ASP618  TYR619  PRO620  LYS621  CYS622 
 ASP623  PHE694  ASN695  SER759  ASP760  ASP761  ALA762  ILE779  LEU786  VAL792 
 PHE793  MET794  SER795  GLU796  ALA797  LYS798  CYS799  TRP800  GLU811  SER814 

> <Gold.Protein.RotatedAtoms>
  151.0531  133.5607  159.2640 H   0  0  0  0  0  0  0  0  0  0  0  0  # atno 6907 bound_to 6896
  151.2611  135.0653  159.9108 H   0  0  0  0  0  0  0  0  0  0  0  0  # atno 6908 bound_to 6896
  152.5385  134.0276  159.8064 H   0  0  0  0  0  0  0  0  0  0  0  0  # atno 6909 bound_to 6896
  145.2861  139.2616  143.3889 H   0  0  0  0  0  0  0  0  0  0  0  0  # atno 7974 bound_to 7965
  154.6496  140.0581  156.9940 H   0  0  0  0  0  0  0  0  0  0  0  0  # atno 8008 bound_to 7997
  155.1392  140.3264  155.4437 H   0  0  0  0  0  0  0  0  0  0  0  0  # atno 8009 bound_to 7997
  156.2569  140.1967  156.6508 H   0  0  0  0  0  0  0  0  0  0  0  0  # atno 8010 bound_to 7997
  140.6939  143.2990  151.3332 H   0  0  0  0  0  0  0  0  0  0  0  0  # atno 10167 bound_to 10162
  156.0452  130.5679  150.7867 H   0  0  0  0  0  0  0  0  0  0  0  0  # atno 10718 bound_to 10713
  153.8985  135.3025  155.3448 H   0  0  0  0  0  0  0  0  0  0  0  0  # atno 10763 bound_to 10752
  154.7682  135.4899  153.9599 H   0  0  0  0  0  0  0  0  0  0  0  0  # atno 10764 bound_to 10752
  153.1258  135.6792  153.9359 H   0  0  0  0  0  0  0  0  0  0  0  0  # atno 10765 bound_to 10752
  139.9247  134.9640  156.8034 H   0  0  0  0  0  0  0  0  0  0  0  0  # atno 11005 bound_to 11000
  146.3200  140.3341  142.8642 LP  0  0  0  0  0  0  0  0  0  0  0  0  # atno 17320 bound_to 7965
  144.9212  140.7869  143.5747 LP  0  0  0  0  0  0  0  0  0  0  0  0  # atno 17321 bound_to 7965
  139.6371  144.0609  152.2524 LP  0  0  0  0  0  0  0  0  0  0  0  0  # atno 17342 bound_to 10162
  140.0103  144.6229  150.7653 LP  0  0  0  0  0  0  0  0  0  0  0  0  # atno 17343 bound_to 10162
  157.5319  131.0937  150.9943 LP  0  0  0  0  0  0  0  0  0  0  0  0  # atno 17370 bound_to 10713
  157.0248  130.5688  149.5335 LP  0  0  0  0  0  0  0  0  0  0  0  0  # atno 17371 bound_to 10713
  140.6371  133.9853  155.7689 LP  0  0  0  0  0  0  0  0  0  0  0  0  # atno 17394 bound_to 11000
  141.0796  134.0083  157.3406 LP  0  0  0  0  0  0  0  0  0  0  0  0  # atno 17395 bound_to 11000

$$$$
