AV-unprocessed.smi:1601|AV-procd|sdf|6435|dock4
  -GOLD-   22720 7 83D 1   1.00000     0.00000
 Structure written by MMmdl.
 42 43  0  0  0  0  0  0  0  0  2 V2000
  149.5680  134.4090  154.6928 C   0  0  0  0  0  0  0  0  0  0  0  0
  149.0565  135.7233  155.3325 C   0  0  2  0  0  0  0  0  0  0  0  0
  147.5054  135.8036  155.2576 C   0  0  0  0  0  0  0  0  0  0  0  0
  146.9927  135.8541  153.8904 N   0  0  0  0  0  0  0  0  0  0  0  0
  145.8036  135.3791  153.4836 C   0  0  0  0  0  0  0  0  0  0  0  0
  144.9860  134.8699  154.2510 O   0  0  0  0  0  0  0  0  0  0  0  0
  145.4968  135.5137  151.9827 C   0  0  2  0  0  0  0  0  0  0  0  0
  144.2588  136.3882  151.6977 C   0  0  0  0  0  0  0  0  0  0  0  0
  145.3899  134.1981  151.3626 N   0  0  0  0  0  0  0  0  0  0  0  0
  144.3252  133.6767  150.6554 C   0  0  0  0  0  0  0  0  0  0  0  0
  144.6821  132.4271  150.2367 C   0  0  0  0  0  0  0  0  0  0  0  0
  146.0056  132.2695  150.7338 C   0  0  0  0  0  0  0  0  0  0  0  0
  146.4285  133.3307  151.4005 N   0  0  0  0  0  0  0  0  0  0  0  0
  149.7188  136.9238  154.7176 N   0  3  0  0  0  0  0  0  0  0  0  0
  148.9432  138.1895  154.8551 C   0  0  0  0  0  0  0  0  0  0  0  0
  149.6723  139.3759  154.2012 C   0  0  0  0  0  0  0  0  0  0  0  0
  150.9657  139.5161  154.7657 O   0  0  0  0  0  0  0  0  0  0  0  0
  151.7578  138.3655  154.5212 C   0  0  0  0  0  0  0  0  0  0  0  0
  151.1144  137.1416  155.1941 C   0  0  0  0  0  0  0  0  0  0  0  0
  149.0706  133.5313  155.1036 H   0  0  0  0  0  0  0  0  0  0  0  0
  150.6269  134.2375  154.8771 H   0  0  0  0  0  0  0  0  0  0  0  0
  149.4041  134.4042  153.6148 H   0  0  0  0  0  0  0  0  0  0  0  0
  149.3302  135.7055  156.3888 H   0  0  0  0  0  0  0  0  0  0  0  0
  147.0517  134.9097  155.6829 H   0  0  0  0  0  0  0  0  0  0  0  0
  147.1413  136.6458  155.8487 H   0  0  0  0  0  0  0  0  0  0  0  0
  147.5996  136.2597  153.1925 H   0  0  0  0  0  0  0  0  0  0  0  0
  146.3525  136.0149  151.5270 H   0  0  0  0  0  0  0  0  0  0  0  0
  144.3756  137.3865  152.1210 H   0  0  0  0  0  0  0  0  0  0  0  0
  143.3470  135.9574  152.1138 H   0  0  0  0  0  0  0  0  0  0  0  0
  144.1069  136.5054  150.6244 H   0  0  0  0  0  0  0  0  0  0  0  0
  143.4103  134.2322  150.5104 H   0  0  0  0  0  0  0  0  0  0  0  0
  144.0890  131.7328  149.6605 H   0  0  0  0  0  0  0  0  0  0  0  0
  146.6684  131.4234  150.6279 H   0  0  0  0  0  0  0  0  0  0  0  0
  147.9730  138.1101  154.3677 H   0  0  0  0  0  0  0  0  0  0  0  0
  148.7640  138.3964  155.9113 H   0  0  0  0  0  0  0  0  0  0  0  0
  149.7435  139.2425  153.1203 H   0  0  0  0  0  0  0  0  0  0  0  0
  149.1137  140.2966  154.3701 H   0  0  0  0  0  0  0  0  0  0  0  0
  151.8740  138.2060  153.4477 H   0  0  0  0  0  0  0  0  0  0  0  0
  152.7559  138.5337  154.9260 H   0  0  0  0  0  0  0  0  0  0  0  0
  151.1148  137.2702  156.2777 H   0  0  0  0  0  0  0  0  0  0  0  0
  151.7471  136.2853  154.9705 H   0  0  0  0  0  0  0  0  0  0  0  0
  149.7799  136.7381  153.7265 H   0  0  0  0  0  0  0  0  0  0  0  0
  1  2  1  0  0  0  0
  1 20  1  0  0  0  0
  1 21  1  0  0  0  0
  1 22  1  0  0  0  0
  2  3  1  0  0  0  0
  2 14  1  0  0  0  0
  2 23  1  0  0  0  0
  3  4  1  0  0  0  0
  3 24  1  0  0  0  0
  3 25  1  0  0  0  0
  4  5  1  0  0  0  0
  4 26  1  0  0  0  0
  5  6  2  0  0  0  0
  5  7  1  0  0  0  0
  7  8  1  0  0  0  0
  7  9  1  0  0  0  0
  7 27  1  0  0  0  0
  8 28  1  0  0  0  0
  8 29  1  0  0  0  0
  8 30  1  0  0  0  0
  9 13  1  0  0  0  0
  9 10  1  0  0  0  0
 10 11  2  0  0  0  0
 10 31  1  0  0  0  0
 11 12  1  0  0  0  0
 11 32  1  0  0  0  0
 12 13  2  0  0  0  0
 12 33  1  0  0  0  0
 14 19  1  0  0  0  0
 14 15  1  0  0  0  0
 14 42  1  0  0  0  0
 15 16  1  0  0  0  0
 15 34  1  0  0  0  0
 15 35  1  0  0  0  0
 16 17  1  0  0  0  0
 16 36  1  0  0  0  0
 16 37  1  0  0  0  0
 17 18  1  0  0  0  0
 18 19  1  0  0  0  0
 18 38  1  0  0  0  0
 18 39  1  0  0  0  0
 19 40  1  0  0  0  0
 19 41  1  0  0  0  0
M  CHG  1  14   1
M  END
> <s_m_source_file>
AV-unprocessed.smi

> <i_m_source_file_index>
1601

> <i_lp_mmshare_version>
43012

> <i_f3d_flags>
0

> <s_epik_input>
W0NIMl0xW0NIMl1PW0NIMl1bQ0gyXU4xW0NASF0oW0NIM10pW0NIMl1bTkhdQyg9TylbQ0BIXShbQ0gzXSluMltjSF1bY0hdW2NIXW4y

> <s_epik_cmdline>
J2VwaWtfcHl0aG9uJywgJy1waCcsICc3LjAnLCAnLXRuJywgJzgnLCAnLW1hJywgJzIwMCcsICctbWV0YWxfYmluZGluZycsICctaW1hZScsICc8aW5maWxlLm1hZT4nLCAnLW9tYWUnLCAnPG91dGZpbGUubWFlPic=

> <r_lp_tautomer_probability>
1

> <r_epik_Ionization_Penalty>
0.732551

> <r_epik_Ionization_Penalty_Charging>
0.732531

> <r_epik_Ionization_Penalty_Neutral>
2.04647e-05

> <r_epik_State_Penalty>
0.757939

> <r_epik_Charging_Adjusted_Penalty>
1.49047

> <i_epik_Tot_Q>
1

> <i_epik_Tot_abs_Q>
1

> <r_epik_Metal_State_Penalty>
0.757952

> <b_epik_Metal_Only>
0

> <s_lp_Force_Field>
OPLS_2005

> <r_lp_Energy>
26.1921

> <b_lp_Chiralities_Consistent>
1

> <s_lp_Variant>
AV-unprocessed.smi:1601-5

> <Gold.Version>
5.8.1

> <Gold.Id.Protein>
6NUR|6NUR_protein|mol2

> <Gold.PLP.Fitness>
46.4423

> <Gold.PLP.PLP>
-29.7085

> <Gold.PLP.part.hbond>
-3.0000

> <Gold.PLP.part.metal>
0.0000

> <Gold.PLP.part.buried>
-4.0641

> <Gold.PLP.part.nonpolar>
-22.9735

> <Gold.PLP.part.repulsive>
0.3657

> <Gold.PLP.ligand.clash>
0.0000

> <Gold.PLP.ligand.torsion>
0.7081

> <Gold.PLP.Chemscore.Hbond>
4.0000

> <Gold.PLP.Chemscore.CHOScore>
2.0000

> <Gold.PLP.Chemscore.Metal>
0.0000

> <Gold.Chemscore.Hbonds>
donor molecule, donor type, donor heavy atom, donor atom, acceptor molecule, acceptor atom, score
      L1  H     4    26       P1  7948  1.00
      L1  H    14    42       P1  7948  1.82
      P1  H  7989  7998       L1    17  0.85
      L1  C    10    31       P1 10186  0.85
      L1  C    12    33       P1 10747  1.00

> <Gold.PLP.Chemscore.Internal.Correction>
0.1499

> <Gold.Rescore>
     Score         DG    S(hbond)    S(metal)    S(lipo)     H(rot)  DE(clash)    DE(int)     intcor
     13.77     -14.91       1.79        0.00      70.38       1.86       0.61       0.53       ----

> <Gold.Chemscore.Fitness>
13.7736

> <Gold.Chemscore.DG>
-14.9065

> <Gold.Chemscore.ZeroCoef>
-5.4800

> <Gold.Chemscore.Hbond>
1.7850

> <Gold.Chemscore.Metal>
0.0000

> <Gold.Chemscore.Lipo>
70.3770

> <Gold.Chemscore.Internal_Hbond>
0.0000

> <Gold.Chemscore.DEClash>
0.6065

> <Gold.Chemscore.DEInternal>
0.5264

> <Gold.Chemscore.Rot>
1.8631

> <Gold.Chemscore.Internal.Correction>
   9.000000E+99

> <Gold.Chemscore.Hbonds>
donor molecule, donor type, donor heavy atom, donor atom, acceptor molecule, acceptor atom, score
      L1  H     4    26       P1  7948  0.98
      L1  H    14    42       P1  7948  0.47
      P1  H  7989  7998       L1    17  0.06

> <Gold.Chemscore.Hbond.Weighted>
-5.9620

> <Gold.Chemscore.Metal.Weighted>
-0.0000

> <Gold.Chemscore.Lipo.Weighted>
-8.2341

> <Gold.Chemscore.Internal_Hbond.Weighted>
0.0000

> <Gold.Chemscore.DEClash.Weighted>
0.6065

> <Gold.Chemscore.DEInternal.Weighted>
0.5264

> <Gold.Chemscore.Rot.Weighted>
4.7697

> <Gold.Chemscore.Internal.Correction.Weighted>
   9.000000E+99

> <Gold.Protein.RotatedTorsions>
[ 6907 6896 6895 6894 ] final  -82.28 input  -60.11 | X-H torsion
[ 7974 7965 7964 7962 ] final   21.28 input  175.53 | X-H torsion
[ 8008 7997 7996 7995 ] final  165.70 input   59.86 | X-H torsion
[ 10167 10162 10161 10158 ] final   70.53 input  -65.29 | X-H torsion
[ 10718 10713 10712 10709 ] final  -88.82 input   66.30 | X-H torsion
[ 10763 10752 10751 10750 ] final -161.94 input  -60.55 | X-H torsion
[ 11005 11000 10999 10996 ] final -153.69 input  -57.11 | X-H torsion

> <Gold.Protein.ActiveResidues>
 VAL166  LYS551  ARG553  GLY616  TRP617  ASP618  TYR619  PRO620  LYS621  CYS622 
 ASP623  PHE694  ASN695  SER759  ASP760  ASP761  ALA762  ILE779  LEU786  VAL792 
 PHE793  MET794  SER795  GLU796  ALA797  LYS798  CYS799  TRP800  GLU811  SER814 

> <Gold.Protein.RotatedAtoms>
  150.6899  134.3690  159.4983 H   0  0  0  0  0  0  0  0  0  0  0  0  # atno 6907 bound_to 6896
  152.1508  134.8987  160.0557 H   0  0  0  0  0  0  0  0  0  0  0  0  # atno 6908 bound_to 6896
  152.0085  133.3817  159.4247 H   0  0  0  0  0  0  0  0  0  0  0  0  # atno 6909 bound_to 6896
  146.2077  139.8049  142.8713 H   0  0  0  0  0  0  0  0  0  0  0  0  # atno 7974 bound_to 7965
  156.1779  140.1663  156.8328 H   0  0  0  0  0  0  0  0  0  0  0  0  # atno 8008 bound_to 7997
  154.5328  140.0753  156.8408 H   0  0  0  0  0  0  0  0  0  0  0  0  # atno 8009 bound_to 7997
  155.3373  140.3382  155.4241 H   0  0  0  0  0  0  0  0  0  0  0  0  # atno 8010 bound_to 7997
  140.0559  144.5273  150.7329 H   0  0  0  0  0  0  0  0  0  0  0  0  # atno 10167 bound_to 10162
  155.9983  130.4849  150.5077 H   0  0  0  0  0  0  0  0  0  0  0  0  # atno 10718 bound_to 10713
  154.7259  135.3036  154.8971 H   0  0  0  0  0  0  0  0  0  0  0  0  # atno 10763 bound_to 10752
  153.9829  135.6728  153.4755 H   0  0  0  0  0  0  0  0  0  0  0  0  # atno 10764 bound_to 10752
  153.0875  135.4976  154.8544 H   0  0  0  0  0  0  0  0  0  0  0  0  # atno 10765 bound_to 10752
  140.7054  134.3892  157.5204 H   0  0  0  0  0  0  0  0  0  0  0  0  # atno 11005 bound_to 11000
  145.3257  141.0255  143.3475 LP  0  0  0  0  0  0  0  0  0  0  0  0  # atno 17320 bound_to 7965
  144.8834  139.4872  143.6712 LP  0  0  0  0  0  0  0  0  0  0  0  0  # atno 17321 bound_to 7965
  140.7195  143.2575  151.4326 LP  0  0  0  0  0  0  0  0  0  0  0  0  # atno 17342 bound_to 10162
  139.5924  144.1471  152.2104 LP  0  0  0  0  0  0  0  0  0  0  0  0  # atno 17343 bound_to 10162
  157.3054  131.0653  151.2039 LP  0  0  0  0  0  0  0  0  0  0  0  0  # atno 17370 bound_to 10713
  157.3003  130.6839  149.6160 LP  0  0  0  0  0  0  0  0  0  0  0  0  # atno 17371 bound_to 10713
  139.8885  134.8853  156.2468 LP  0  0  0  0  0  0  0  0  0  0  0  0  # atno 17394 bound_to 11000
  141.0129  133.7085  156.1141 LP  0  0  0  0  0  0  0  0  0  0  0  0  # atno 17395 bound_to 11000

$$$$
