AV-unprocessed.smi:144|AV-procd|sdf|1196|dock1
  -GOLD-   2262018353D 1   1.00000     0.00000
 Structure written by MMmdl.
 46 48  0  0  0  0  0  0  0  0  1 V2000
  151.9083  136.6977  154.7803 O   0  0  0  0  0  0  0  0  0  0  0  0
  151.8083  137.2975  155.8496 C   0  0  0  0  0  0  0  0  0  0  0  0
  152.6913  138.5388  156.0768 C   0  0  0  0  0  0  0  0  0  0  0  0
  151.9557  139.7883  156.3818 N   0  0  0  0  0  0  0  0  0  0  0  0
  150.9619  140.2328  155.4742 C   0  0  0  0  0  0  0  0  0  0  0  0
  150.7069  139.6007  154.4483 O   0  0  0  0  0  0  0  0  0  0  0  0
  150.2924  141.4782  155.8322 C   0  0  0  0  0  0  0  0  0  0  0  0
  149.3402  141.9774  155.0262 F   0  0  0  0  0  0  0  0  0  0  0  0
  150.6216  142.1447  156.9577 C   0  0  0  0  0  0  0  0  0  0  0  0
  151.5948  141.6998  157.8339 N   0  0  0  0  0  0  0  0  0  0  0  0
  151.9525  142.4805  159.0799 C   0  0  1  0  0  0  0  0  0  0  0  0
  152.5809  143.8257  158.6986 C   0  0  0  0  0  0  0  0  0  0  0  0
  151.3756  144.7405  158.6947 C   0  0  0  0  0  0  0  0  0  0  0  0
  150.5451  144.1583  159.8332 C   0  0  0  0  0  0  0  0  0  0  0  0
  150.7856  142.7532  159.8016 O   0  0  0  0  0  0  0  0  0  0  0  0
  152.2940  140.5061  157.5538 C   0  0  0  0  0  0  0  0  0  0  0  0
  153.1885  140.1096  158.3039 O   0  0  0  0  0  0  0  0  0  0  0  0
  150.9855  136.9235  156.8500 N   0  0  0  0  0  0  0  0  0  0  0  0
  150.0739  135.8354  156.8948 C   0  0  0  0  0  0  0  0  0  0  0  0
  149.2690  135.7175  158.0457 C   0  0  0  0  0  0  0  0  0  0  0  0
  148.3243  134.6755  158.1607 C   0  0  0  0  0  0  0  0  0  0  0  0
  147.4685  134.5349  159.4107 C   0  0  0  0  0  0  0  0  0  0  0  0
  146.1744  134.5885  159.0937 F   0  0  0  0  0  0  0  0  0  0  0  0
  147.7217  133.3596  159.9848 F   0  0  0  0  0  0  0  0  0  0  0  0
  147.7233  135.5048  160.2898 F   0  0  0  0  0  0  0  0  0  0  0  0
  148.1865  133.7465  157.1084 C   0  0  0  0  0  0  0  0  0  0  0  0
  148.9698  133.8638  155.9401 C   0  0  0  0  0  0  0  0  0  0  0  0
  148.8203  132.8795  154.7895 C   0  0  0  0  0  0  0  0  0  0  0  0
  148.4848  133.5357  153.6787 F   0  0  0  0  0  0  0  0  0  0  0  0
  149.9813  132.2573  154.5867 F   0  0  0  0  0  0  0  0  0  0  0  0
  147.8842  131.9619  155.0345 F   0  0  0  0  0  0  0  0  0  0  0  0
  149.9080  134.9117  155.8362 C   0  0  0  0  0  0  0  0  0  0  0  0
  153.4032  138.3048  156.8698 H   0  0  0  0  0  0  0  0  0  0  0  0
  153.3221  138.6694  155.1962 H   0  0  0  0  0  0  0  0  0  0  0  0
  150.0987  143.0663  157.1658 H   0  0  0  0  0  0  0  0  0  0  0  0
  152.6065  141.8336  159.6668 H   0  0  0  0  0  0  0  0  0  0  0  0
  153.2799  144.1178  159.4834 H   0  0  0  0  0  0  0  0  0  0  0  0
  153.1133  143.7852  157.7474 H   0  0  0  0  0  0  0  0  0  0  0  0
  151.6324  145.7892  158.8468 H   0  0  0  0  0  0  0  0  0  0  0  0
  150.8377  144.6537  157.7498 H   0  0  0  0  0  0  0  0  0  0  0  0
  150.8901  144.5491  160.7914 H   0  0  0  0  0  0  0  0  0  0  0  0
  149.4831  144.3849  159.7366 H   0  0  0  0  0  0  0  0  0  0  0  0
  151.0742  137.4488  157.7076 H   0  0  0  0  0  0  0  0  0  0  0  0
  149.3874  136.4296  158.8496 H   0  0  0  0  0  0  0  0  0  0  0  0
  147.4696  132.9447  157.2041 H   0  0  0  0  0  0  0  0  0  0  0  0
  150.4832  134.9954  154.9270 H   0  0  0  0  0  0  0  0  0  0  0  0
  1  2  2  0  0  0  0
  2  3  1  0  0  0  0
  2 18  1  0  0  0  0
  3  4  1  0  0  0  0
  3 33  1  0  0  0  0
  3 34  1  0  0  0  0
  4 16  1  0  0  0  0
  4  5  1  0  0  0  0
  5  6  2  0  0  0  0
  5  7  1  0  0  0  0
  7  8  1  0  0  0  0
  7  9  2  0  0  0  0
  9 10  1  0  0  0  0
  9 35  1  0  0  0  0
 10 11  1  0  0  0  0
 10 16  1  0  0  0  0
 11 15  1  0  0  0  0
 11 12  1  0  0  0  0
 11 36  1  0  0  0  0
 12 13  1  0  0  0  0
 12 37  1  0  0  0  0
 12 38  1  0  0  0  0
 13 14  1  0  0  0  0
 13 39  1  0  0  0  0
 13 40  1  0  0  0  0
 14 15  1  0  0  0  0
 14 41  1  0  0  0  0
 14 42  1  0  0  0  0
 16 17  2  0  0  0  0
 18 19  1  0  0  0  0
 18 43  1  0  0  0  0
 19 32  1  0  0  0  0
 19 20  2  0  0  0  0
 20 21  1  0  0  0  0
 20 44  1  0  0  0  0
 21 22  1  0  0  0  0
 21 26  2  0  0  0  0
 22 23  1  0  0  0  0
 22 24  1  0  0  0  0
 22 25  1  0  0  0  0
 26 27  1  0  0  0  0
 26 45  1  0  0  0  0
 27 28  1  0  0  0  0
 27 32  2  0  0  0  0
 28 29  1  0  0  0  0
 28 30  1  0  0  0  0
 28 31  1  0  0  0  0
 32 46  1  0  0  0  0
M  END
> <s_m_source_file>
AV-unprocessed.smi

> <i_m_source_file_index>
144

> <i_lp_mmshare_version>
43012

> <i_f3d_flags>
0

> <s_epik_input>
RkMoRikoRiljKFtjSF0xKVtjSF1jKEMoRikoRilGKVtjSF1jMVtOSF1DKD1PKVtDSDJdbjJjKD1PKWMoRilbY0hdbihjMj1PKVtDQEBIXTNbQ0gyXVtDSDJdW0NIMl1PMw==

> <s_epik_cmdline>
J2VwaWtfcHl0aG9uJywgJy1waCcsICc3LjAnLCAnLXRuJywgJzgnLCAnLW1hJywgJzIwMCcsICctbWV0YWxfYmluZGluZycsICctaW1hZScsICc8aW5maWxlLm1hZT4nLCAnLW9tYWUnLCAnPG91dGZpbGUubWFlPic=

> <r_lp_tautomer_probability>
1

> <r_epik_Ionization_Penalty>
3.68082e-06

> <r_epik_Ionization_Penalty_Charging>
3.88729e-08

> <r_epik_Ionization_Penalty_Neutral>
3.64194e-06

> <r_epik_State_Penalty>
-0

> <r_epik_Charging_Adjusted_Penalty>
3.88729e-08

> <i_epik_Tot_Q>
0

> <i_epik_Tot_abs_Q>
0

> <r_epik_Metal_State_Penalty>
-0

> <b_epik_Metal_Only>
0

> <s_epik_Chemistry_Notes>
This compound contains an acetal/aminal-like group ( X-CH(R)-Y where X, Y are N, S, or O) that may be acid/base labile, releasing an aldehyde.

> <s_lp_Force_Field>
OPLS_2005

> <r_lp_Energy>
36.4766

> <b_lp_Chiralities_Consistent>
1

> <s_lp_Variant>
AV-unprocessed.smi:144-2

> <Gold.Version>
5.8.1

> <Gold.Id.Protein>
6NUR|6NUR_protein|mol2

> <Gold.PLP.Fitness>
58.2559

> <Gold.PLP.PLP>
-48.1124

> <Gold.PLP.part.hbond>
-3.9464

> <Gold.PLP.part.metal>
0.0000

> <Gold.PLP.part.buried>
-1.4312

> <Gold.PLP.part.nonpolar>
-43.4441

> <Gold.PLP.part.repulsive>
0.3437

> <Gold.PLP.ligand.clash>
0.6083

> <Gold.PLP.ligand.torsion>
0.1481

> <Gold.PLP.Chemscore.Hbond>
2.4420

> <Gold.PLP.Chemscore.CHOScore>
1.0000

> <Gold.PLP.Chemscore.Metal>
0.0000

> <Gold.Chemscore.Hbonds>
donor molecule, donor type, donor heavy atom, donor atom, acceptor molecule, acceptor atom, score
      P1  H  7989  7998       L1     6  0.45
      P1  H  7997  8010       L1    17  0.99
      P1  H 10752 10765       L1     1  1.00
      L1  C     9    35       P1  8028  0.98

> <Gold.PLP.Chemscore.Internal.Correction>
0.7219

> <Gold.Rescore>
     Score         DG    S(hbond)    S(metal)    S(lipo)     H(rot)  DE(clash)    DE(int)     intcor
     13.11     -15.99       1.72        0.00      80.83       1.83       0.42       2.47       ----

> <Gold.Chemscore.Fitness>
13.1086

> <Gold.Chemscore.DG>
-15.9947

> <Gold.Chemscore.ZeroCoef>
-5.4800

> <Gold.Chemscore.Hbond>
1.7212

> <Gold.Chemscore.Metal>
0.0000

> <Gold.Chemscore.Lipo>
80.8297

> <Gold.Chemscore.Internal_Hbond>
0.0000

> <Gold.Chemscore.DEClash>
0.4195

> <Gold.Chemscore.DEInternal>
2.4665

> <Gold.Chemscore.Rot>
1.8325

> <Gold.Chemscore.Internal.Correction>
   9.000000E+99

> <Gold.Chemscore.Hbonds>
donor molecule, donor type, donor heavy atom, donor atom, acceptor molecule, acceptor atom, score
      P1  H  7989  7998       L1     6  0.02
      P1  H  7997  8010       L1    17  0.28
      P1  H 10752 10765       L1     1  0.86

> <Gold.Chemscore.Hbond.Weighted>
-5.7487

> <Gold.Chemscore.Metal.Weighted>
-0.0000

> <Gold.Chemscore.Lipo.Weighted>
-9.4571

> <Gold.Chemscore.Internal_Hbond.Weighted>
0.0000

> <Gold.Chemscore.DEClash.Weighted>
0.4195

> <Gold.Chemscore.DEInternal.Weighted>
2.4665

> <Gold.Chemscore.Rot.Weighted>
4.6911

> <Gold.Chemscore.Internal.Correction.Weighted>
   9.000000E+99

> <Gold.Protein.RotatedTorsions>
[ 6907 6896 6895 6894 ] final -104.99 input  -60.11 | X-H torsion
[ 7974 7965 7964 7962 ] final  151.02 input  175.53 | X-H torsion
[ 8008 7997 7996 7995 ] final   28.06 input   59.86 | X-H torsion
[ 10167 10162 10161 10158 ] final  -46.89 input  -65.29 | X-H torsion
[ 10718 10713 10712 10709 ] final -109.40 input   66.30 | X-H torsion
[ 10763 10752 10751 10750 ] final -172.45 input  -60.55 | X-H torsion
[ 11005 11000 10999 10996 ] final -143.16 input  -57.11 | X-H torsion

> <Gold.Protein.ActiveResidues>
 VAL166  LYS551  ARG553  GLY616  TRP617  ASP618  TYR619  PRO620  LYS621  CYS622 
 ASP623  PHE694  ASN695  SER759  ASP760  ASP761  ALA762  ILE779  LEU786  VAL792 
 PHE793  MET794  SER795  GLU796  ALA797  LYS798  CYS799  TRP800  GLU811  SER814 

> <Gold.Protein.RotatedAtoms>
  150.7314  134.0195  159.3696 H   0  0  0  0  0  0  0  0  0  0  0  0  # atno 6907 bound_to 6896
  151.8159  135.0664  160.0428 H   0  0  0  0  0  0  0  0  0  0  0  0  # atno 6908 bound_to 6896
  152.3039  133.5647  159.5673 H   0  0  0  0  0  0  0  0  0  0  0  0  # atno 6909 bound_to 6896
  144.8322  139.6483  143.6053 H   0  0  0  0  0  0  0  0  0  0  0  0  # atno 7974 bound_to 7965
  155.0527  140.3181  155.4686 H   0  0  0  0  0  0  0  0  0  0  0  0  # atno 8008 bound_to 7997
  156.2831  140.2143  156.5597 H   0  0  0  0  0  0  0  0  0  0  0  0  # atno 8009 bound_to 7997
  154.7197  140.0490  157.0615 H   0  0  0  0  0  0  0  0  0  0  0  0  # atno 8010 bound_to 7997
  140.6798  143.2809  151.3848 H   0  0  0  0  0  0  0  0  0  0  0  0  # atno 10167 bound_to 10162
  156.0535  130.5762  150.8095 H   0  0  0  0  0  0  0  0  0  0  0  0  # atno 10718 bound_to 10713
  154.6191  135.2873  155.0346 H   0  0  0  0  0  0  0  0  0  0  0  0  # atno 10763 bound_to 10752
  154.1547  135.6498  153.4975 H   0  0  0  0  0  0  0  0  0  0  0  0  # atno 10764 bound_to 10752
  153.0228  135.5364  154.6974 H   0  0  0  0  0  0  0  0  0  0  0  0  # atno 10765 bound_to 10752
  140.8153  134.2695  157.4923 H   0  0  0  0  0  0  0  0  0  0  0  0  # atno 11005 bound_to 11000
  146.2624  139.6442  142.9352 LP  0  0  0  0  0  0  0  0  0  0  0  0  # atno 17320 bound_to 7965
  145.4870  141.0438  143.2614 LP  0  0  0  0  0  0  0  0  0  0  0  0  # atno 17321 bound_to 7965
  139.6113  144.1092  152.2302 LP  0  0  0  0  0  0  0  0  0  0  0  0  # atno 17342 bound_to 10162
  140.0507  144.5935  150.7338 LP  0  0  0  0  0  0  0  0  0  0  0  0  # atno 17343 bound_to 10162
  157.5484  131.0943  150.9730 LP  0  0  0  0  0  0  0  0  0  0  0  0  # atno 17370 bound_to 10713
  156.9996  130.5595  149.5310 LP  0  0  0  0  0  0  0  0  0  0  0  0  # atno 17371 bound_to 10713
  139.8711  134.9506  156.4059 LP  0  0  0  0  0  0  0  0  0  0  0  0  # atno 17394 bound_to 11000
  140.9155  133.7681  155.9843 LP  0  0  0  0  0  0  0  0  0  0  0  0  # atno 17395 bound_to 11000

$$$$
