AV-unprocessed.smi:2886|AV-procd|sdf|11095|dock1
  -GOLD-   2272015563D 1   1.00000     0.00000
 Structure written by MMmdl.
 27 29  0  0  0  0  0  0  0  0  2 V2000
  153.1542  136.5900  160.3806 O   0  0  0  0  0  0  0  0  0  0  0  0
  153.5257  137.7530  160.5292 C   0  0  0  0  0  0  0  0  0  0  0  0
  154.5924  138.0809  161.3197 N   0  5  0  0  0  0  0  0  0  0  0  0
  154.9856  139.4640  161.4714 N   0  0  0  0  0  0  0  0  0  0  0  0
  154.3571  140.3955  160.8704 C   0  0  0  0  0  0  0  0  0  0  0  0
  153.1990  140.1285  159.9820 C   0  0  0  0  0  0  0  0  0  0  0  0
  152.5126  141.1429  159.3259 N   0  0  0  0  0  0  0  0  0  0  0  0
  152.7551  142.5782  159.3596 C   0  0  2  0  0  0  0  0  0  0  0  0
  152.6081  143.1650  160.7656 C   0  0  0  0  0  0  0  0  0  0  0  0
  151.5498  144.2526  160.5420 C   0  0  1  0  0  0  0  0  0  0  0  0
  152.0826  145.4197  159.6993 C   0  0  0  0  0  0  0  0  0  0  0  0
  152.1417  144.7968  158.3043 C   0  0  0  0  0  0  0  0  0  0  0  0
  151.6833  143.3586  158.5810 C   0  0  2  0  0  0  0  0  0  0  0  0
  150.7209  143.6022  159.5947 O   0  0  0  0  0  0  0  0  0  0  0  0
  152.8118  138.8350  159.8406 C   0  0  0  0  0  0  0  0  0  0  0  0
  151.4627  138.4215  158.8329 Cl  0  0  0  0  0  0  0  0  0  0  0  0
  154.6474  141.4413  160.9919 H   0  0  0  0  0  0  0  0  0  0  0  0
  151.8373  140.8496  158.6345 H   0  0  0  0  0  0  0  0  0  0  0  0
  153.7342  142.8017  158.9369 H   0  0  0  0  0  0  0  0  0  0  0  0
  152.2402  142.4204  161.4730 H   0  0  0  0  0  0  0  0  0  0  0  0
  153.5449  143.5661  161.1537 H   0  0  0  0  0  0  0  0  0  0  0  0
  151.0347  144.5615  161.4518 H   0  0  0  0  0  0  0  0  0  0  0  0
  151.3886  146.2609  159.7132 H   0  0  0  0  0  0  0  0  0  0  0  0
  153.0540  145.7713  160.0488 H   0  0  0  0  0  0  0  0  0  0  0  0
  151.4458  145.3002  157.6323 H   0  0  0  0  0  0  0  0  0  0  0  0
  153.1370  144.8413  157.8608 H   0  0  0  0  0  0  0  0  0  0  0  0
  151.2984  142.8444  157.6994 H   0  0  0  0  0  0  0  0  0  0  0  0
  1  2  2  0  0  0  0
  2 15  1  0  0  0  0
  2  3  1  0  0  0  0
  3  4  1  0  0  0  0
  4  5  2  0  0  0  0
  5  6  1  0  0  0  0
  5 17  1  0  0  0  0
  6  7  1  0  0  0  0
  6 15  2  0  0  0  0
  7  8  1  0  0  0  0
  7 18  1  0  0  0  0
  8 13  1  0  0  0  0
  8  9  1  0  0  0  0
  8 19  1  0  0  0  0
  9 10  1  0  0  0  0
  9 20  1  0  0  0  0
  9 21  1  0  0  0  0
 10 14  1  0  0  0  0
 10 11  1  0  0  0  0
 10 22  1  0  0  0  0
 11 12  1  0  0  0  0
 11 23  1  0  0  0  0
 11 24  1  0  0  0  0
 12 13  1  0  0  0  0
 12 25  1  0  0  0  0
 12 26  1  0  0  0  0
 13 14  1  0  0  0  0
 13 27  1  0  0  0  0
 15 16  1  0  0  0  0
M  CHG  1   3  -1
M  END
> <s_m_source_file>
AV-unprocessed.smi

> <i_m_source_file_index>
2886

> <i_lp_mmshare_version>
43012

> <i_f3d_flags>
0

> <s_epik_input>
Tz1jMVtuSF1uW2NIXWMoYzFDbClbTkhdW0NASF0oW0NIMl1bQ0BASF0yMylbQ0BASF0oTzMpW0NIMl1bQ0gyXTI=

> <s_epik_cmdline>
J2VwaWtfcHl0aG9uJywgJy1waCcsICc3LjAnLCAnLXRuJywgJzgnLCAnLW1hJywgJzIwMCcsICctbWV0YWxfYmluZGluZycsICctaW1hZScsICc8aW5maWxlLm1hZT4nLCAnLW9tYWUnLCAnPG91dGZpbGUubWFlPic=

> <r_lp_tautomer_probability>
0.986175

> <r_epik_Ionization_Penalty>
3.84253

> <r_epik_Ionization_Penalty_Charging>
0.0129711

> <r_epik_Ionization_Penalty_Neutral>
3.82956

> <r_epik_State_Penalty>
3.8249

> <r_epik_Charging_Adjusted_Penalty>
3.83787

> <i_epik_Tot_Q>
-1

> <i_epik_Tot_abs_Q>
1

> <r_epik_Metal_State_Penalty>
0.57612

> <b_epik_Metal_Only>
1

> <s_lp_Force_Field>
OPLS_2005

> <r_lp_Energy>
60.5374

> <b_lp_Chiralities_Consistent>
1

> <s_lp_Variant>
AV-unprocessed.smi:2886-9

> <Gold.Version>
5.8.1

> <Gold.Id.Protein>
6NUR|6NUR_protein|mol2

> <Gold.PLP.Fitness>
38.0563

> <Gold.PLP.PLP>
-35.0636

> <Gold.PLP.part.hbond>
-1.0892

> <Gold.PLP.part.metal>
0.0000

> <Gold.PLP.part.buried>
-5.6060

> <Gold.PLP.part.nonpolar>
-29.1138

> <Gold.PLP.part.repulsive>
0.1851

> <Gold.PLP.ligand.clash>
0.0000

> <Gold.PLP.ligand.torsion>
0.0134

> <Gold.PLP.Chemscore.Hbond>
1.0000

> <Gold.PLP.Chemscore.CHOScore>
0.0000

> <Gold.PLP.Chemscore.Metal>
0.0000

> <Gold.Chemscore.Hbonds>
donor molecule, donor type, donor heavy atom, donor atom, acceptor molecule, acceptor atom, score
      P1  H  6896  6909       L1     1  1.00

> <Gold.PLP.Chemscore.Internal.Correction>
0.0195

> <Gold.Rescore>
     Score         DG    S(hbond)    S(metal)    S(lipo)     H(rot)  DE(clash)    DE(int)     intcor
     18.16     -18.20       1.00        0.00     102.10       1.00       0.03       0.01       ----

> <Gold.Chemscore.Fitness>
18.1556

> <Gold.Chemscore.DG>
-18.1976

> <Gold.Chemscore.ZeroCoef>
-5.4800

> <Gold.Chemscore.Hbond>
0.9975

> <Gold.Chemscore.Metal>
0.0000

> <Gold.Chemscore.Lipo>
102.1012

> <Gold.Chemscore.Internal_Hbond>
0.0000

> <Gold.Chemscore.DEClash>
0.0323

> <Gold.Chemscore.DEInternal>
0.0098

> <Gold.Chemscore.Rot>
1.0000

> <Gold.Chemscore.Internal.Correction>
   9.000000E+99

> <Gold.Chemscore.Hbonds>
donor molecule, donor type, donor heavy atom, donor atom, acceptor molecule, acceptor atom, score
      P1  H  6896  6909       L1     1  1.00

> <Gold.Chemscore.Hbond.Weighted>
-3.3318

> <Gold.Chemscore.Metal.Weighted>
-0.0000

> <Gold.Chemscore.Lipo.Weighted>
-11.9458

> <Gold.Chemscore.Internal_Hbond.Weighted>
0.0000

> <Gold.Chemscore.DEClash.Weighted>
0.0323

> <Gold.Chemscore.DEInternal.Weighted>
0.0098

> <Gold.Chemscore.Rot.Weighted>
2.5600

> <Gold.Chemscore.Internal.Correction.Weighted>
   9.000000E+99

> <Gold.Protein.RotatedTorsions>
[ 6907 6896 6895 6894 ] final  157.96 input  -60.11 | X-H torsion
[ 7974 7965 7964 7962 ] final   16.05 input  175.53 | X-H torsion
[ 8008 7997 7996 7995 ] final   87.57 input   59.86 | X-H torsion
[ 10167 10162 10161 10158 ] final   13.15 input  -65.29 | X-H torsion
[ 10718 10713 10712 10709 ] final  -54.85 input   66.30 | X-H torsion
[ 10763 10752 10751 10750 ] final  169.58 input  -60.55 | X-H torsion
[ 11005 11000 10999 10996 ] final  -31.59 input  -57.11 | X-H torsion

> <Gold.Protein.ActiveResidues>
 VAL166  LYS551  ARG553  GLY616  TRP617  ASP618  TYR619  PRO620  LYS621  CYS622 
 ASP623  PHE694  ASN695  SER759  ASP760  ASP761  ALA762  ILE779  LEU786  VAL792 
 PHE793  MET794  SER795  GLU796  ALA797  LYS798  CYS799  TRP800  GLU811  SER814 

> <Gold.Protein.RotatedAtoms>
  152.0075  133.3848  159.4205 H   0  0  0  0  0  0  0  0  0  0  0  0  # atno 6907 bound_to 6896
  150.6903  134.3767  159.5025 H   0  0  0  0  0  0  0  0  0  0  0  0  # atno 6908 bound_to 6896
  152.1523  134.8978  160.0598 H   0  0  0  0  0  0  0  0  0  0  0  0  # atno 6909 bound_to 6896
  146.2261  139.8804  142.8572 H   0  0  0  0  0  0  0  0  0  0  0  0  # atno 7974 bound_to 7965
  155.9770  140.3380  155.6628 H   0  0  0  0  0  0  0  0  0  0  0  0  # atno 8008 bound_to 7997
  155.6599  140.0715  157.2576 H   0  0  0  0  0  0  0  0  0  0  0  0  # atno 8009 bound_to 7997
  154.4181  140.1710  156.1752 H   0  0  0  0  0  0  0  0  0  0  0  0  # atno 8010 bound_to 7997
  140.6021  143.8583  150.6976 H   0  0  0  0  0  0  0  0  0  0  0  0  # atno 10167 bound_to 10162
  156.1416  130.4154  150.0093 H   0  0  0  0  0  0  0  0  0  0  0  0  # atno 10718 bound_to 10713
  154.3853  135.2753  155.2187 H   0  0  0  0  0  0  0  0  0  0  0  0  # atno 10763 bound_to 10752
  154.4277  135.5985  153.6052 H   0  0  0  0  0  0  0  0  0  0  0  0  # atno 10764 bound_to 10752
  152.9833  135.5988  154.4100 H   0  0  0  0  0  0  0  0  0  0  0  0  # atno 10765 bound_to 10752
  140.9481  133.7238  156.1177 H   0  0  0  0  0  0  0  0  0  0  0  0  # atno 11005 bound_to 11000
  145.2518  141.0047  143.3876 LP  0  0  0  0  0  0  0  0  0  0  0  0  # atno 17320 bound_to 7965
  144.9368  139.4234  143.6468 LP  0  0  0  0  0  0  0  0  0  0  0  0  # atno 17321 bound_to 7965
  140.2131  143.3867  152.1702 LP  0  0  0  0  0  0  0  0  0  0  0  0  # atno 17342 bound_to 10162
  139.5298  144.7146  151.5095 LP  0  0  0  0  0  0  0  0  0  0  0  0  # atno 17343 bound_to 10162
  156.7977  130.9279  151.3646 LP  0  0  0  0  0  0  0  0  0  0  0  0  # atno 17370 bound_to 10713
  157.6581  130.8942  149.9771 LP  0  0  0  0  0  0  0  0  0  0  0  0  # atno 17371 bound_to 10713
  140.7641  134.3906  157.5520 LP  0  0  0  0  0  0  0  0  0  0  0  0  # atno 17394 bound_to 11000
  139.8839  134.8980  156.2736 LP  0  0  0  0  0  0  0  0  0  0  0  0  # atno 17395 bound_to 11000

$$$$
