AV-unprocessed.smi:1178|AV-procd|sdf|4957|dock6
  -GOLD-   22720 3553D 1   1.00000     0.00000
 Structure written by MMmdl.
 32 33  0  0  0  0  0  0  0  0  2 V2000
  151.7211  138.4823  157.7569 O   0  0  0  0  0  0  0  0  0  0  0  0
  151.0440  139.4790  158.0072 C   0  0  0  0  0  0  0  0  0  0  0  0
  151.7378  140.8491  158.1062 C   0  0  0  0  0  0  0  0  0  0  0  0
  152.6021  141.0259  159.2879 N   0  0  0  0  0  0  0  0  0  0  0  0
  152.2883  142.0737  160.1716 C   0  0  0  0  0  0  0  0  0  0  0  0
  153.0154  142.3106  161.2799 C   0  0  0  0  0  0  0  0  0  0  0  0
  154.1560  141.4457  161.5550 C   0  0  0  0  0  0  0  0  0  0  0  0
  154.8309  141.6469  162.5626 O   0  0  0  0  0  0  0  0  0  0  0  0
  154.4193  140.4417  160.6682 N   0  5  0  0  0  0  0  0  0  0  0  0
  153.6706  140.2120  159.5454 C   0  0  0  0  0  0  0  0  0  0  0  0
  153.9203  139.2947  158.7632 O   0  0  0  0  0  0  0  0  0  0  0  0
  149.7157  139.4232  158.1941 N   0  0  0  0  0  0  0  0  0  0  0  0
  148.9217  138.2058  158.1424 C   0  0  0  0  0  0  0  0  0  0  0  0
  149.5656  137.1078  159.0038 C   0  0  0  0  0  0  0  0  0  0  0  0
  148.5706  136.1182  159.4360 N   0  0  0  0  0  0  0  0  0  0  0  0
  147.6565  136.3725  160.4006 C   0  0  0  0  0  0  0  0  0  0  0  0
  147.5497  137.4389  161.0054 O   0  0  0  0  0  0  0  0  0  0  0  0
  146.7239  135.1970  160.7166 C   0  0  0  0  0  0  0  0  0  0  0  0
  147.2606  133.8763  159.6263 S   0  0  0  0  0  0  0  0  0  0  0  0
  148.5128  134.8725  158.9352 C   0  0  0  0  0  0  0  0  0  0  0  0
  149.2649  134.4306  158.0670 O   0  0  0  0  0  0  0  0  0  0  0  0
  152.3110  141.0128  157.1922 H   0  0  0  0  0  0  0  0  0  0  0  0
  150.9648  141.6187  158.0928 H   0  0  0  0  0  0  0  0  0  0  0  0
  151.4260  142.6636  159.8974 H   0  0  0  0  0  0  0  0  0  0  0  0
  152.7600  143.1186  161.9493 H   0  0  0  0  0  0  0  0  0  0  0  0
  149.2298  140.2838  158.4032 H   0  0  0  0  0  0  0  0  0  0  0  0
  147.9114  138.4205  158.4942 H   0  0  0  0  0  0  0  0  0  0  0  0
  148.8410  137.8719  157.1066 H   0  0  0  0  0  0  0  0  0  0  0  0
  150.3637  136.6170  158.4436 H   0  0  0  0  0  0  0  0  0  0  0  0
  150.0572  137.5551  159.8697 H   0  0  0  0  0  0  0  0  0  0  0  0
  146.8220  134.8966  161.7600 H   0  0  0  0  0  0  0  0  0  0  0  0
  145.6856  135.4624  160.5168 H   0  0  0  0  0  0  0  0  0  0  0  0
  1  2  2  0  0  0  0
  2  3  1  0  0  0  0
  2 12  1  0  0  0  0
  3  4  1  0  0  0  0
  3 22  1  0  0  0  0
  3 23  1  0  0  0  0
  4 10  1  0  0  0  0
  4  5  1  0  0  0  0
  5  6  2  0  0  0  0
  5 24  1  0  0  0  0
  6  7  1  0  0  0  0
  6 25  1  0  0  0  0
  7  8  2  0  0  0  0
  7  9  1  0  0  0  0
  9 10  1  0  0  0  0
 10 11  2  0  0  0  0
 12 13  1  0  0  0  0
 12 26  1  0  0  0  0
 13 14  1  0  0  0  0
 13 27  1  0  0  0  0
 13 28  1  0  0  0  0
 14 15  1  0  0  0  0
 14 29  1  0  0  0  0
 14 30  1  0  0  0  0
 15 20  1  0  0  0  0
 15 16  1  0  0  0  0
 16 17  2  0  0  0  0
 16 18  1  0  0  0  0
 18 19  1  0  0  0  0
 18 31  1  0  0  0  0
 18 32  1  0  0  0  0
 19 20  1  0  0  0  0
 20 21  2  0  0  0  0
M  CHG  1   9  -1
M  END
> <s_m_source_file>
AV-unprocessed.smi

> <i_m_source_file_index>
1178

> <i_lp_mmshare_version>
43012

> <i_f3d_flags>
0

> <s_epik_input>
Tz1jMVtuSF1jKD1PKVtjSF1bY0hdbjFbQ0gyXUMoPU8pW05IXVtDSDJdW0NIMl1OMkMoPU8pW0NIMl1TQzI9Tw==

> <s_epik_cmdline>
J2VwaWtfcHl0aG9uJywgJy1waCcsICc3LjAnLCAnLXRuJywgJzgnLCAnLW1hJywgJzIwMCcsICctbWV0YWxfYmluZGluZycsICctaW1hZScsICc8aW5maWxlLm1hZT4nLCAnLW9tYWUnLCAnPG91dGZpbGUubWFlPic=

> <r_lp_tautomer_probability>
0.999537

> <r_epik_Ionization_Penalty>
3.05962

> <r_epik_Ionization_Penalty_Charging>
2.46074e-08

> <r_epik_Ionization_Penalty_Neutral>
3.05962

> <r_epik_State_Penalty>
3.05863

> <r_epik_Charging_Adjusted_Penalty>
3.05863

> <i_epik_Tot_Q>
-1

> <i_epik_Tot_abs_Q>
1

> <r_epik_Metal_State_Penalty>
0.458209

> <b_epik_Metal_Only>
1

> <s_lp_Force_Field>
OPLS_2005

> <r_lp_Energy>
17.4268

> <b_lp_Chiralities_Consistent>
1

> <s_lp_Variant>
AV-unprocessed.smi:1178-2

> <Gold.Version>
5.8.1

> <Gold.Id.Protein>
6NUR|6NUR_protein|mol2

> <Gold.PLP.Fitness>
41.0744

> <Gold.PLP.PLP>
-30.9003

> <Gold.PLP.part.hbond>
-4.8544

> <Gold.PLP.part.metal>
0.0000

> <Gold.PLP.part.buried>
-2.2621

> <Gold.PLP.part.nonpolar>
-23.3368

> <Gold.PLP.part.repulsive>
0.1730

> <Gold.PLP.ligand.clash>
0.0000

> <Gold.PLP.ligand.torsion>
0.4391

> <Gold.PLP.Chemscore.Hbond>
3.6732

> <Gold.PLP.Chemscore.CHOScore>
0.0000

> <Gold.PLP.Chemscore.Metal>
0.0000

> <Gold.Chemscore.Hbonds>
donor molecule, donor type, donor heavy atom, donor atom, acceptor molecule, acceptor atom, score
      P1  H  6896  6908       L1    21  0.85
      P1  H  6931  6943       L1    17  0.75
      P1  H  6934  6947       L1    17  0.94
      P1  H  7997  8008       L1    11  1.00

> <Gold.PLP.Chemscore.Internal.Correction>
0.0326

> <Gold.Rescore>
     Score         DG    S(hbond)    S(metal)    S(lipo)     H(rot)  DE(clash)    DE(int)     intcor
      7.18     -11.86       2.75        0.00      39.62       2.91       1.36       3.32       ----

> <Gold.Chemscore.Fitness>
7.1772

> <Gold.Chemscore.DG>
-11.8575

> <Gold.Chemscore.ZeroCoef>
-5.4800

> <Gold.Chemscore.Hbond>
2.7513

> <Gold.Chemscore.Metal>
0.0000

> <Gold.Chemscore.Lipo>
39.6219

> <Gold.Chemscore.Internal_Hbond>
0.0000

> <Gold.Chemscore.DEClash>
1.3648

> <Gold.Chemscore.DEInternal>
3.3154

> <Gold.Chemscore.Rot>
2.9092

> <Gold.Chemscore.Internal.Correction>
   9.000000E+99

> <Gold.Chemscore.Hbonds>
donor molecule, donor type, donor heavy atom, donor atom, acceptor molecule, acceptor atom, score
      P1  H  6896  6908       L1    21  0.14
      P1  H  6931  6943       L1    17  0.73
      P1  H  6934  6947       L1    17  0.90
      P1  H  7997  8008       L1    11  0.70

> <Gold.Chemscore.Hbond.Weighted>
-9.1892

> <Gold.Chemscore.Metal.Weighted>
-0.0000

> <Gold.Chemscore.Lipo.Weighted>
-4.6358

> <Gold.Chemscore.Internal_Hbond.Weighted>
0.0000

> <Gold.Chemscore.DEClash.Weighted>
1.3648

> <Gold.Chemscore.DEInternal.Weighted>
3.3154

> <Gold.Chemscore.Rot.Weighted>
7.4474

> <Gold.Chemscore.Internal.Correction.Weighted>
   9.000000E+99

> <Gold.Protein.RotatedTorsions>
[ 6907 6896 6895 6894 ] final  124.58 input  -60.11 | X-H torsion
[ 7974 7965 7964 7962 ] final  -59.63 input  175.53 | X-H torsion
[ 8008 7997 7996 7995 ] final -107.49 input   59.86 | X-H torsion
[ 10167 10162 10161 10158 ] final   91.75 input  -65.29 | X-H torsion
[ 10718 10713 10712 10709 ] final   64.53 input   66.30 | X-H torsion
[ 10763 10752 10751 10750 ] final  -50.94 input  -60.55 | X-H torsion
[ 11005 11000 10999 10996 ] final   36.22 input  -57.11 | X-H torsion

> <Gold.Protein.ActiveResidues>
 VAL166  LYS551  ARG553  GLY616  TRP617  ASP618  TYR619  PRO620  LYS621  CYS622 
 ASP623  PHE694  ASN695  SER759  ASP760  ASP761  ALA762  ILE779  LEU786  VAL792 
 PHE793  MET794  SER795  GLU796  ALA797  LYS798  CYS799  TRP800  GLU811  SER814 

> <Gold.Protein.RotatedAtoms>
  152.4066  133.6898  159.6361 H   0  0  0  0  0  0  0  0  0  0  0  0  # atno 6907 bound_to 6896
  150.7950  133.8699  159.3264 H   0  0  0  0  0  0  0  0  0  0  0  0  # atno 6908 bound_to 6896
  151.6451  135.1010  160.0201 H   0  0  0  0  0  0  0  0  0  0  0  0  # atno 6909 bound_to 6896
  145.8252  140.8515  143.0112 H   0  0  0  0  0  0  0  0  0  0  0  0  # atno 7974 bound_to 7965
  154.9301  140.0405  157.2043 H   0  0  0  0  0  0  0  0  0  0  0  0  # atno 8008 bound_to 7997
  154.8169  140.2877  155.5792 H   0  0  0  0  0  0  0  0  0  0  0  0  # atno 8009 bound_to 7997
  156.2976  140.2526  156.3069 H   0  0  0  0  0  0  0  0  0  0  0  0  # atno 8010 bound_to 7997
  139.8344  144.6672  150.9360 H   0  0  0  0  0  0  0  0  0  0  0  0  # atno 10167 bound_to 10162
  157.6045  130.9165  149.9857 H   0  0  0  0  0  0  0  0  0  0  0  0  # atno 10718 bound_to 10713
  154.1186  135.6538  153.4898 H   0  0  0  0  0  0  0  0  0  0  0  0  # atno 10763 bound_to 10752
  153.0233  135.5264  154.7120 H   0  0  0  0  0  0  0  0  0  0  0  0  # atno 10764 bound_to 10752
  154.6321  135.2977  155.0174 H   0  0  0  0  0  0  0  0  0  0  0  0  # atno 10765 bound_to 10752
  140.2348  134.3485  155.7949 H   0  0  0  0  0  0  0  0  0  0  0  0  # atno 11005 bound_to 11000
  144.6744  140.0591  143.7476 LP  0  0  0  0  0  0  0  0  0  0  0  0  # atno 17320 bound_to 7965
  145.9632  139.2815  143.1143 LP  0  0  0  0  0  0  0  0  0  0  0  0  # atno 17321 bound_to 7965
  140.7804  143.3971  151.1212 LP  0  0  0  0  0  0  0  0  0  0  0  0  # atno 17342 bound_to 10162
  139.7622  143.8618  152.3103 LP  0  0  0  0  0  0  0  0  0  0  0  0  # atno 17343 bound_to 10162
  156.1128  130.3649  150.0020 LP  0  0  0  0  0  0  0  0  0  0  0  0  # atno 17370 bound_to 10713
  156.8115  130.9326  151.3644 LP  0  0  0  0  0  0  0  0  0  0  0  0  # atno 17371 bound_to 10713
  141.2215  133.7265  156.8790 LP  0  0  0  0  0  0  0  0  0  0  0  0  # atno 17394 bound_to 11000
  140.1713  134.9098  157.2837 LP  0  0  0  0  0  0  0  0  0  0  0  0  # atno 17395 bound_to 11000

$$$$
