AV-unprocessed.smi:224|AV-procd|sdf|1717|dock3
  -GOLD-   2262020193D 1   1.00000     0.00000
 Structure written by MMmdl.
 56 59  0  0  0  0  0  0  0  0  2 V2000
  143.9335  132.5589  150.3091 C   0  0  0  0  0  0  0  0  0  0  0  0
  145.0432  133.6029  150.4896 C   0  0  2  0  0  0  0  0  0  0  0  0
  144.7583  134.6888  149.6301 O   0  0  0  0  0  0  0  0  0  0  0  0
  146.4323  133.0302  150.1438 C   0  0  0  0  0  0  0  0  0  0  0  0
  147.0957  132.4047  151.3231 N   0  3  1  0  0  0  0  0  0  0  0  0
  147.6278  133.4443  152.2493 C   0  0  0  0  0  0  0  0  0  0  0  0
  148.3751  132.8282  153.4389 C   0  0  0  0  0  0  0  0  0  0  0  0
  147.5089  131.8937  154.1433 N   0  0  0  0  0  0  0  0  0  0  0  0
  146.7120  132.4202  155.1114 C   0  0  0  0  0  0  0  0  0  0  0  0
  146.3927  133.7417  155.0805 N   0  0  0  0  0  0  0  0  0  0  0  0
  145.6252  134.2763  156.0345 C   0  0  0  0  0  0  0  0  0  0  0  0
  145.0746  133.6796  157.0922 N   0  0  0  0  0  0  0  0  0  0  0  0
  145.3734  132.3497  157.1222 C   0  0  0  0  0  0  0  0  0  0  0  0
  146.1804  131.6464  156.1831 C   0  0  0  0  0  0  0  0  0  0  0  0
  146.2584  130.3057  156.5415 N   0  0  0  0  0  0  0  0  0  0  0  0
  145.5494  130.2239  157.6338 C   0  0  0  0  0  0  0  0  0  0  0  0
  144.9707  131.4021  158.0479 N   0  0  0  0  0  0  0  0  0  0  0  0
  144.1354  131.5985  159.2237 C   0  0  0  0  0  0  0  0  0  0  0  0
  142.6350  131.8315  158.9094 C   0  0  1  0  0  0  0  0  0  0  0  0
  142.4648  133.1276  158.3663 O   0  0  0  0  0  0  0  0  0  0  0  0
  142.0270  130.8047  157.9506 C   0  0  0  0  0  0  0  0  0  0  0  0
  141.3101  129.8423  158.8862 C   0  0  0  0  0  0  0  0  0  0  0  0
  140.7703  130.7157  159.8612 O   0  0  0  0  0  0  0  0  0  0  0  0
  141.7633  131.6848  160.1738 C   0  0  0  0  0  0  0  0  0  0  0  0
  146.9896  130.8323  153.2863 C   0  0  0  0  0  0  0  0  0  0  0  0
  146.2664  131.3739  152.0271 C   0  0  2  0  0  0  0  0  0  0  0  0
  145.9212  130.1701  151.1260 C   0  0  0  0  0  0  0  0  0  0  0  0
  144.0885  131.7044  150.9686 H   0  0  0  0  0  0  0  0  0  0  0  0
  143.8989  132.1864  149.2845 H   0  0  0  0  0  0  0  0  0  0  0  0
  142.9551  132.9802  150.5430 H   0  0  0  0  0  0  0  0  0  0  0  0
  145.0123  133.9614  151.5180 H   0  0  0  0  0  0  0  0  0  0  0  0
  145.2469  134.5846  148.8285 H   0  0  0  0  0  0  0  0  0  0  0  0
  146.3482  132.2884  149.3477 H   0  0  0  0  0  0  0  0  0  0  0  0
  147.0254  133.8342  149.7155 H   0  0  0  0  0  0  0  0  0  0  0  0
  148.3023  134.1156  151.7194 H   0  0  0  0  0  0  0  0  0  0  0  0
  146.8033  134.0573  152.6177 H   0  0  0  0  0  0  0  0  0  0  0  0
  149.2561  132.2894  153.0879 H   0  0  0  0  0  0  0  0  0  0  0  0
  148.7410  133.6195  154.0915 H   0  0  0  0  0  0  0  0  0  0  0  0
  145.4227  135.3327  155.9365 H   0  0  0  0  0  0  0  0  0  0  0  0
  145.4242  129.2932  158.1682 H   0  0  0  0  0  0  0  0  0  0  0  0
  144.2514  130.7271  159.8696 H   0  0  0  0  0  0  0  0  0  0  0  0
  144.5350  132.4456  159.7832 H   0  0  0  0  0  0  0  0  0  0  0  0
  143.2461  133.6301  158.5400 H   0  0  0  0  0  0  0  0  0  0  0  0
  141.2860  131.2742  157.3012 H   0  0  0  0  0  0  0  0  0  0  0  0
  142.7470  130.3025  157.3070 H   0  0  0  0  0  0  0  0  0  0  0  0
  140.5320  129.2657  158.3856 H   0  0  0  0  0  0  0  0  0  0  0  0
  142.0118  129.1498  159.3539 H   0  0  0  0  0  0  0  0  0  0  0  0
  142.3488  131.3161  161.0173 H   0  0  0  0  0  0  0  0  0  0  0  0
  141.2956  132.6190  160.4872 H   0  0  0  0  0  0  0  0  0  0  0  0
  147.8382  130.2185  152.9813 H   0  0  0  0  0  0  0  0  0  0  0  0
  146.3347  130.1689  153.8534 H   0  0  0  0  0  0  0  0  0  0  0  0
  145.3362  131.8523  152.3361 H   0  0  0  0  0  0  0  0  0  0  0  0
  145.4505  129.3765  151.7075 H   0  0  0  0  0  0  0  0  0  0  0  0
  146.8163  129.7502  150.6657 H   0  0  0  0  0  0  0  0  0  0  0  0
  145.2181  130.4162  150.3324 H   0  0  0  0  0  0  0  0  0  0  0  0
  147.8953  131.9027  150.9652 H   0  0  0  0  0  0  0  0  0  0  0  0
  1  2  1  0  0  0  0
  1 28  1  0  0  0  0
  1 29  1  0  0  0  0
  1 30  1  0  0  0  0
  2  3  1  0  0  0  0
  2  4  1  0  0  0  0
  2 31  1  0  0  0  0
  3 32  1  0  0  0  0
  4  5  1  0  0  0  0
  4 33  1  0  0  0  0
  4 34  1  0  0  0  0
  5 26  1  0  0  0  0
  5  6  1  0  0  0  0
  5 56  1  0  0  0  0
  6  7  1  0  0  0  0
  6 35  1  0  0  0  0
  6 36  1  0  0  0  0
  7  8  1  0  0  0  0
  7 37  1  0  0  0  0
  7 38  1  0  0  0  0
  8  9  1  0  0  0  0
  8 25  1  0  0  0  0
  9 14  1  0  0  0  0
  9 10  2  0  0  0  0
 10 11  1  0  0  0  0
 11 12  2  0  0  0  0
 11 39  1  0  0  0  0
 12 13  1  0  0  0  0
 13 17  1  0  0  0  0
 13 14  2  0  0  0  0
 14 15  1  0  0  0  0
 15 16  2  0  0  0  0
 16 17  1  0  0  0  0
 16 40  1  0  0  0  0
 17 18  1  0  0  0  0
 18 19  1  0  0  0  0
 18 41  1  0  0  0  0
 18 42  1  0  0  0  0
 19 24  1  0  0  0  0
 19 20  1  0  0  0  0
 19 21  1  0  0  0  0
 20 43  1  0  0  0  0
 21 22  1  0  0  0  0
 21 44  1  0  0  0  0
 21 45  1  0  0  0  0
 22 23  1  0  0  0  0
 22 46  1  0  0  0  0
 22 47  1  0  0  0  0
 23 24  1  0  0  0  0
 24 48  1  0  0  0  0
 24 49  1  0  0  0  0
 25 26  1  0  0  0  0
 25 50  1  0  0  0  0
 25 51  1  0  0  0  0
 26 27  1  0  0  0  0
 26 52  1  0  0  0  0
 27 53  1  0  0  0  0
 27 54  1  0  0  0  0
 27 55  1  0  0  0  0
M  CHG  1   5   1
M  END
> <s_m_source_file>
AV-unprocessed.smi

> <i_m_source_file_index>
224

> <i_lp_mmshare_version>
43012

> <i_f3d_flags>
0

> <s_epik_input>
W0NIM11bQ0BIXShbT0hdKVtDSDJdTjFbQ0gyXVtDSDJdTihbQ0gyXVtDQEhdMVtDSDNdKWMobltjSF1uMiljKGMyMyluW2NIXW4zW0NIMl1bQ0BAXTQoW09IXSlbQ0gyXVtDSDJdT1tDSDJdNA==

> <s_epik_cmdline>
J2VwaWtfcHl0aG9uJywgJy1waCcsICc3LjAnLCAnLXRuJywgJzgnLCAnLW1hJywgJzIwMCcsICctbWV0YWxfYmluZGluZycsICctaW1hZScsICc8aW5maWxlLm1hZT4nLCAnLW9tYWUnLCAnPG91dGZpbGUubWFlPic=

> <r_lp_tautomer_probability>
1

> <r_epik_Ionization_Penalty>
0.00516958

> <r_epik_Ionization_Penalty_Charging>
0.00509693

> <r_epik_Ionization_Penalty_Neutral>
7.26542e-05

> <r_epik_State_Penalty>
-0

> <r_epik_Charging_Adjusted_Penalty>
0.00509693

> <i_epik_Tot_Q>
1

> <i_epik_Tot_abs_Q>
1

> <r_epik_Metal_State_Penalty>
-0

> <b_epik_Metal_Only>
0

> <s_lp_Force_Field>
OPLS_2005

> <r_lp_Energy>
50.0315

> <b_lp_Chiralities_Consistent>
1

> <s_lp_Variant>
AV-unprocessed.smi:224-11

> <Gold.Version>
5.8.1

> <Gold.Id.Protein>
6NUR|6NUR_protein|mol2

> <Gold.PLP.Fitness>
45.6263

> <Gold.PLP.PLP>
-38.0873

> <Gold.PLP.part.hbond>
-3.4253

> <Gold.PLP.part.metal>
0.0000

> <Gold.PLP.part.buried>
-7.5130

> <Gold.PLP.part.nonpolar>
-27.7391

> <Gold.PLP.part.repulsive>
0.4587

> <Gold.PLP.ligand.clash>
0.0000

> <Gold.PLP.ligand.torsion>
1.0038

> <Gold.PLP.Chemscore.Hbond>
3.0000

> <Gold.PLP.Chemscore.CHOScore>
0.0000

> <Gold.PLP.Chemscore.Metal>
0.0000

> <Gold.Chemscore.Hbonds>
donor molecule, donor type, donor heavy atom, donor atom, acceptor molecule, acceptor atom, score
      L1  H     3    32       P1  7921  0.94
      L1  H     5    56       P1 10747  1.00
      P1  H 11000 11005       L1    20  1.00

> <Gold.PLP.Chemscore.Internal.Correction>
0.5466

> <Gold.Rescore>
     Score         DG    S(hbond)    S(metal)    S(lipo)     H(rot)  DE(clash)    DE(int)     intcor
     15.25     -17.08       2.91        0.00      89.72       3.36       0.20       1.63       ----

> <Gold.Chemscore.Fitness>
15.2534

> <Gold.Chemscore.DG>
-17.0808

> <Gold.Chemscore.ZeroCoef>
-5.4800

> <Gold.Chemscore.Hbond>
2.9065

> <Gold.Chemscore.Metal>
0.0000

> <Gold.Chemscore.Lipo>
89.7228

> <Gold.Chemscore.Internal_Hbond>
0.0000

> <Gold.Chemscore.DEClash>
0.1974

> <Gold.Chemscore.DEInternal>
1.6300

> <Gold.Chemscore.Rot>
3.3611

> <Gold.Chemscore.Internal.Correction>
   9.000000E+99

> <Gold.Chemscore.Hbonds>
donor molecule, donor type, donor heavy atom, donor atom, acceptor molecule, acceptor atom, score
      L1  H     3    32       P1  7921  0.90
      L1  H     5    56       P1 10747  1.00
      P1  H 11000 11005       L1    20  0.97

> <Gold.Chemscore.Hbond.Weighted>
-9.7077

> <Gold.Chemscore.Metal.Weighted>
-0.0000

> <Gold.Chemscore.Lipo.Weighted>
-10.4976

> <Gold.Chemscore.Internal_Hbond.Weighted>
0.0000

> <Gold.Chemscore.DEClash.Weighted>
0.1974

> <Gold.Chemscore.DEInternal.Weighted>
1.6300

> <Gold.Chemscore.Rot.Weighted>
8.6045

> <Gold.Chemscore.Internal.Correction.Weighted>
   9.000000E+99

> <Gold.Protein.RotatedTorsions>
[ 6907 6896 6895 6894 ] final   37.76 input  -60.11 | X-H torsion
[ 7974 7965 7964 7962 ] final  151.45 input  175.53 | X-H torsion
[ 8008 7997 7996 7995 ] final -135.92 input   59.86 | X-H torsion
[ 10167 10162 10161 10158 ] final -127.71 input  -65.29 | X-H torsion
[ 10718 10713 10712 10709 ] final  167.64 input   66.30 | X-H torsion
[ 10763 10752 10751 10750 ] final -151.70 input  -60.55 | X-H torsion
[ 11005 11000 10999 10996 ] final -102.56 input  -57.11 | X-H torsion

> <Gold.Protein.ActiveResidues>
 VAL166  LYS551  ARG553  GLY616  TRP617  ASP618  TYR619  PRO620  LYS621  CYS622 
 ASP623  PHE694  ASN695  SER759  ASP760  ASP761  ALA762  ILE779  LEU786  VAL792 
 PHE793  MET794  SER795  GLU796  ALA797  LYS798  CYS799  TRP800  GLU811  SER814 

> <Gold.Protein.RotatedAtoms>
  152.1475  134.9014  160.0549 H   0  0  0  0  0  0  0  0  0  0  0  0  # atno 6907 bound_to 6896
  152.0059  133.3838  159.4208 H   0  0  0  0  0  0  0  0  0  0  0  0  # atno 6908 bound_to 6896
  150.6872  134.3705  159.5034 H   0  0  0  0  0  0  0  0  0  0  0  0  # atno 6909 bound_to 6896
  144.8292  139.6539  143.6066 H   0  0  0  0  0  0  0  0  0  0  0  0  # atno 7974 bound_to 7965
  155.3867  140.0497  157.3042 H   0  0  0  0  0  0  0  0  0  0  0  0  # atno 8008 bound_to 7997
  154.5056  140.2173  155.9219 H   0  0  0  0  0  0  0  0  0  0  0  0  # atno 8009 bound_to 7997
  156.1521  140.3133  155.8671 H   0  0  0  0  0  0  0  0  0  0  0  0  # atno 8010 bound_to 7997
  139.9580  143.5982  152.2454 H   0  0  0  0  0  0  0  0  0  0  0  0  # atno 10167 bound_to 10162
  157.0486  131.0307  151.2688 H   0  0  0  0  0  0  0  0  0  0  0  0  # atno 10718 bound_to 10713
  154.8041  135.3253  154.7476 H   0  0  0  0  0  0  0  0  0  0  0  0  # atno 10763 bound_to 10752
  153.8138  135.6893  153.4841 H   0  0  0  0  0  0  0  0  0  0  0  0  # atno 10764 bound_to 10752
  153.1775  135.4599  154.9929 H   0  0  0  0  0  0  0  0  0  0  0  0  # atno 10765 bound_to 10752
  141.1184  133.8568  157.1375 H   0  0  0  0  0  0  0  0  0  0  0  0  # atno 11005 bound_to 11000
  146.2595  139.6379  142.9371 LP  0  0  0  0  0  0  0  0  0  0  0  0  # atno 17320 bound_to 7965
  145.4934  141.0438  143.2580 LP  0  0  0  0  0  0  0  0  0  0  0  0  # atno 17321 bound_to 7965
  139.6576  144.7662  151.2025 LP  0  0  0  0  0  0  0  0  0  0  0  0  # atno 17342 bound_to 10162
  140.7562  143.6061  150.8652 LP  0  0  0  0  0  0  0  0  0  0  0  0  # atno 17343 bound_to 10162
  157.5048  130.7902  149.7642 LP  0  0  0  0  0  0  0  0  0  0  0  0  # atno 17370 bound_to 10713
  156.0015  130.3878  150.2589 LP  0  0  0  0  0  0  0  0  0  0  0  0  # atno 17371 bound_to 10713
  140.0122  134.9983  157.0419 LP  0  0  0  0  0  0  0  0  0  0  0  0  # atno 17394 bound_to 11000
  140.4580  134.1514  155.7188 LP  0  0  0  0  0  0  0  0  0  0  0  0  # atno 17395 bound_to 11000

$$$$
