AV-unprocessed.smi:3348|AV-procd|sdf|12922|dock3
  -GOLD-   2272019343D 1   1.00000     0.00000
 Structure written by MMmdl.
 47 48  0  0  0  0  0  0  0  0  2 V2000
  144.8126  136.7321  154.0031 C   0  0  0  0  0  0  0  0  0  0  0  0
  145.3201  136.7705  152.5521 C   0  0  1  0  0  0  0  0  0  0  0  0
  144.3659  135.9937  151.6212 C   0  0  0  0  0  0  0  0  0  0  0  0
  144.8759  134.6868  151.2384 N   0  0  0  0  0  0  0  0  0  0  0  0
  144.2173  133.6740  150.5728 C   0  0  0  0  0  0  0  0  0  0  0  0
  145.0882  132.6288  150.4568 C   0  0  0  0  0  0  0  0  0  0  0  0
  146.2662  133.0968  151.1029 C   0  0  0  0  0  0  0  0  0  0  0  0
  146.1340  134.3263  151.5736 N   0  0  0  0  0  0  0  0  0  0  0  0
  145.4703  138.1652  152.0779 N   0  3  0  0  0  0  0  0  0  0  0  0
  146.7942  138.7760  152.3181 C   0  0  0  0  0  0  0  0  0  0  0  0
  146.9947  139.0727  153.8070 C   0  0  0  0  0  0  0  0  0  0  0  0
  148.0904  139.9653  153.9438 O   0  0  0  0  0  0  0  0  0  0  0  0
  149.2475  139.3944  154.5429 C   0  0  1  0  0  0  0  0  0  0  0  0
  149.7857  138.2551  153.6511 C   0  0  0  0  0  0  0  0  0  0  0  0
  151.1129  137.6981  154.1863 C   0  0  0  0  0  0  0  0  0  0  0  0
  152.1574  138.8123  154.3366 C   0  0  0  0  0  0  0  0  0  0  0  0
  151.6301  139.9441  155.2310 C   0  0  0  0  0  0  0  0  0  0  0  0
  150.2984  140.5161  154.7050 C   0  0  2  0  0  0  0  0  0  0  0  0
  149.7929  141.6416  155.6224 C   0  0  0  0  0  0  0  0  0  0  0  0
  144.6796  135.7042  154.3417 H   0  0  0  0  0  0  0  0  0  0  0  0
  143.8520  137.2390  154.1014 H   0  0  0  0  0  0  0  0  0  0  0  0
  145.5121  137.2068  154.6907 H   0  0  0  0  0  0  0  0  0  0  0  0
  146.2981  136.2880  152.5200 H   0  0  0  0  0  0  0  0  0  0  0  0
  143.4012  135.8459  152.1086 H   0  0  0  0  0  0  0  0  0  0  0  0
  144.1714  136.5686  150.7144 H   0  0  0  0  0  0  0  0  0  0  0  0
  143.1952  133.7790  150.2395 H   0  0  0  0  0  0  0  0  0  0  0  0
  144.9090  131.6723  149.9884 H   0  0  0  0  0  0  0  0  0  0  0  0
  147.2053  132.5825  151.2453 H   0  0  0  0  0  0  0  0  0  0  0  0
  145.3207  138.1623  151.0788 H   0  0  0  0  0  0  0  0  0  0  0  0
  147.5896  138.1224  151.9602 H   0  0  0  0  0  0  0  0  0  0  0  0
  146.8609  139.7059  151.7520 H   0  0  0  0  0  0  0  0  0  0  0  0
  146.0934  139.5375  154.2093 H   0  0  0  0  0  0  0  0  0  0  0  0
  147.1602  138.1471  154.3587 H   0  0  0  0  0  0  0  0  0  0  0  0
  149.0056  139.0031  155.5330 H   0  0  0  0  0  0  0  0  0  0  0  0
  149.0616  137.4439  153.5825 H   0  0  0  0  0  0  0  0  0  0  0  0
  149.9319  138.6242  152.6353 H   0  0  0  0  0  0  0  0  0  0  0  0
  150.9461  137.2193  155.1521 H   0  0  0  0  0  0  0  0  0  0  0  0
  151.4889  136.9237  153.5172 H   0  0  0  0  0  0  0  0  0  0  0  0
  153.0780  138.4054  154.7560 H   0  0  0  0  0  0  0  0  0  0  0  0
  152.4142  139.2103  153.3540 H   0  0  0  0  0  0  0  0  0  0  0  0
  151.4945  139.5689  156.2463 H   0  0  0  0  0  0  0  0  0  0  0  0
  152.3779  140.7354  155.2928 H   0  0  0  0  0  0  0  0  0  0  0  0
  150.4874  140.9497  153.7218 H   0  0  0  0  0  0  0  0  0  0  0  0
  149.5560  141.2654  156.6180 H   0  0  0  0  0  0  0  0  0  0  0  0
  148.8935  142.1088  155.2208 H   0  0  0  0  0  0  0  0  0  0  0  0
  150.5439  142.4242  155.7333 H   0  0  0  0  0  0  0  0  0  0  0  0
  144.7572  138.7384  152.5061 H   0  0  0  0  0  0  0  0  0  0  0  0
  1  2  1  0  0  0  0
  1 20  1  0  0  0  0
  1 21  1  0  0  0  0
  1 22  1  0  0  0  0
  2  3  1  0  0  0  0
  2  9  1  0  0  0  0
  2 23  1  0  0  0  0
  3  4  1  0  0  0  0
  3 24  1  0  0  0  0
  3 25  1  0  0  0  0
  4  8  1  0  0  0  0
  4  5  1  0  0  0  0
  5  6  2  0  0  0  0
  5 26  1  0  0  0  0
  6  7  1  0  0  0  0
  6 27  1  0  0  0  0
  7  8  2  0  0  0  0
  7 28  1  0  0  0  0
  9 10  1  0  0  0  0
  9 29  1  0  0  0  0
  9 47  1  0  0  0  0
 10 11  1  0  0  0  0
 10 30  1  0  0  0  0
 10 31  1  0  0  0  0
 11 12  1  0  0  0  0
 11 32  1  0  0  0  0
 11 33  1  0  0  0  0
 12 13  1  0  0  0  0
 13 18  1  0  0  0  0
 13 14  1  0  0  0  0
 13 34  1  0  0  0  0
 14 15  1  0  0  0  0
 14 35  1  0  0  0  0
 14 36  1  0  0  0  0
 15 16  1  0  0  0  0
 15 37  1  0  0  0  0
 15 38  1  0  0  0  0
 16 17  1  0  0  0  0
 16 39  1  0  0  0  0
 16 40  1  0  0  0  0
 17 18  1  0  0  0  0
 17 41  1  0  0  0  0
 17 42  1  0  0  0  0
 18 19  1  0  0  0  0
 18 43  1  0  0  0  0
 19 44  1  0  0  0  0
 19 45  1  0  0  0  0
 19 46  1  0  0  0  0
M  CHG  1   9   1
M  END
> <s_m_source_file>
AV-unprocessed.smi

> <i_m_source_file_index>
3348

> <i_lp_mmshare_version>
43012

> <i_f3d_flags>
0

> <s_epik_input>
bjFbY0hdW2NIXVtjSF1uMVtDSDJdW0NAQEhdKFtDSDNdKVtOSF1bQ0gyXVtDSDJdT1tDQEBIXTJbQ0gyXVtDSDJdW0NIMl1bQ0gyXVtDQEhdMltDSDNd

> <s_epik_cmdline>
J2VwaWtfcHl0aG9uJywgJy1waCcsICc3LjAnLCAnLXRuJywgJzgnLCAnLW1hJywgJzIwMCcsICctbWV0YWxfYmluZGluZycsICctaW1hZScsICc8aW5maWxlLm1hZT4nLCAnLW9tYWUnLCAnPG91dGZpbGUubWFlPic=

> <r_lp_tautomer_probability>
1

> <r_epik_Ionization_Penalty>
0.00925088

> <r_epik_Ionization_Penalty_Charging>
0.00924645

> <r_epik_Ionization_Penalty_Neutral>
4.42413e-06

> <r_epik_State_Penalty>
0.0070118

> <r_epik_Charging_Adjusted_Penalty>
0.0162583

> <i_epik_Tot_Q>
1

> <i_epik_Tot_abs_Q>
1

> <r_epik_Metal_State_Penalty>
0.00701222

> <b_epik_Metal_Only>
0

> <s_lp_Force_Field>
OPLS_2005

> <r_lp_Energy>
15.644

> <b_lp_Chiralities_Consistent>
1

> <s_lp_Variant>
AV-unprocessed.smi:3348-8

> <Gold.Version>
5.8.1

> <Gold.Id.Protein>
6NUR|6NUR_protein|mol2

> <Gold.PLP.Fitness>
46.4661

> <Gold.PLP.PLP>
-35.4481

> <Gold.PLP.part.hbond>
-2.0000

> <Gold.PLP.part.metal>
0.0000

> <Gold.PLP.part.buried>
1.1620

> <Gold.PLP.part.nonpolar>
-34.4999

> <Gold.PLP.part.repulsive>
0.3496

> <Gold.PLP.ligand.clash>
0.0000

> <Gold.PLP.ligand.torsion>
1.5622

> <Gold.PLP.Chemscore.Hbond>
2.6400

> <Gold.PLP.Chemscore.CHOScore>
2.0000

> <Gold.PLP.Chemscore.Metal>
0.0000

> <Gold.Chemscore.Hbonds>
donor molecule, donor type, donor heavy atom, donor atom, acceptor molecule, acceptor atom, score
      L1  H     9    29       P1 10171  0.77
      L1  H     9    47       P1 10175  1.92
      L1  C     5    26       P1 10186  1.00
      L1  C     7    28       P1 10747  0.69

> <Gold.PLP.Chemscore.Internal.Correction>
0.2224

> <Gold.Rescore>
     Score         DG    S(hbond)    S(metal)    S(lipo)     H(rot)  DE(clash)    DE(int)     intcor
     15.47     -17.17       1.46        0.00      97.93       1.82       0.22       1.48       ----

> <Gold.Chemscore.Fitness>
15.4703

> <Gold.Chemscore.DG>
-17.1715

> <Gold.Chemscore.ZeroCoef>
-5.4800

> <Gold.Chemscore.Hbond>
1.4621

> <Gold.Chemscore.Metal>
0.0000

> <Gold.Chemscore.Lipo>
97.9303

> <Gold.Chemscore.Internal_Hbond>
0.0000

> <Gold.Chemscore.DEClash>
0.2236

> <Gold.Chemscore.DEInternal>
1.4775

> <Gold.Chemscore.Rot>
1.8163

> <Gold.Chemscore.Internal.Correction>
   9.000000E+99

> <Gold.Chemscore.Hbonds>
donor molecule, donor type, donor heavy atom, donor atom, acceptor molecule, acceptor atom, score
      L1  H     9    29       P1 10171  0.74
      L1  H     9    47       P1 10175  0.86

> <Gold.Chemscore.Hbond.Weighted>
-4.8834

> <Gold.Chemscore.Metal.Weighted>
-0.0000

> <Gold.Chemscore.Lipo.Weighted>
-11.4578

> <Gold.Chemscore.Internal_Hbond.Weighted>
0.0000

> <Gold.Chemscore.DEClash.Weighted>
0.2236

> <Gold.Chemscore.DEInternal.Weighted>
1.4775

> <Gold.Chemscore.Rot.Weighted>
4.6497

> <Gold.Chemscore.Internal.Correction.Weighted>
   9.000000E+99

> <Gold.Protein.RotatedTorsions>
[ 6907 6896 6895 6894 ] final -134.84 input  -60.11 | X-H torsion
[ 7974 7965 7964 7962 ] final -107.57 input  175.53 | X-H torsion
[ 8008 7997 7996 7995 ] final  175.50 input   59.86 | X-H torsion
[ 10167 10162 10161 10158 ] final -178.22 input  -65.29 | X-H torsion
[ 10718 10713 10712 10709 ] final  -78.47 input   66.30 | X-H torsion
[ 10763 10752 10751 10750 ] final   90.88 input  -60.55 | X-H torsion
[ 11005 11000 10999 10996 ] final  -23.48 input  -57.11 | X-H torsion

> <Gold.Protein.ActiveResidues>
 VAL166  LYS551  ARG553  GLY616  TRP617  ASP618  TYR619  PRO620  LYS621  CYS622 
 ASP623  PHE694  ASN695  SER759  ASP760  ASP761  ALA762  ILE779  LEU786  VAL792 
 PHE793  MET794  SER795  GLU796  ALA797  LYS798  CYS799  TRP800  GLU811  SER814 

> <Gold.Protein.RotatedAtoms>
  150.9906  133.6153  159.2708 H   0  0  0  0  0  0  0  0  0  0  0  0  # atno 6907 bound_to 6896
  151.3375  135.0855  159.9369 H   0  0  0  0  0  0  0  0  0  0  0  0  # atno 6908 bound_to 6896
  152.5244  133.9524  159.7732 H   0  0  0  0  0  0  0  0  0  0  0  0  # atno 6909 bound_to 6896
  145.2036  140.9067  143.3355 H   0  0  0  0  0  0  0  0  0  0  0  0  # atno 7974 bound_to 7965
  156.0864  140.1407  156.9648 H   0  0  0  0  0  0  0  0  0  0  0  0  # atno 8008 bound_to 7997
  154.4615  140.0941  156.6954 H   0  0  0  0  0  0  0  0  0  0  0  0  # atno 8009 bound_to 7997
  155.4992  140.3450  155.4370 H   0  0  0  0  0  0  0  0  0  0  0  0  # atno 8010 bound_to 7997
  139.5442  144.2279  152.0956 H   0  0  0  0  0  0  0  0  0  0  0  0  # atno 10167 bound_to 10162
  156.0117  130.4519  150.3501 H   0  0  0  0  0  0  0  0  0  0  0  0  # atno 10718 bound_to 10713
  153.2023  135.4418  155.0281 H   0  0  0  0  0  0  0  0  0  0  0  0  # atno 10763 bound_to 10752
  154.8154  135.3313  154.7193 H   0  0  0  0  0  0  0  0  0  0  0  0  # atno 10764 bound_to 10752
  153.7638  135.6989  153.4975 H   0  0  0  0  0  0  0  0  0  0  0  0  # atno 10765 bound_to 10752
  140.8756  133.7690  156.0239 H   0  0  0  0  0  0  0  0  0  0  0  0  # atno 11005 bound_to 11000
  144.9924  139.3677  143.6208 LP  0  0  0  0  0  0  0  0  0  0  0  0  # atno 17320 bound_to 7965
  146.3412  139.9112  142.8780 LP  0  0  0  0  0  0  0  0  0  0  0  0  # atno 17321 bound_to 7965
  140.1763  144.4887  150.6552 LP  0  0  0  0  0  0  0  0  0  0  0  0  # atno 17342 bound_to 10162
  140.6685  143.2276  151.5685 LP  0  0  0  0  0  0  0  0  0  0  0  0  # atno 17343 bound_to 10162
  157.1594  131.0341  151.2848 LP  0  0  0  0  0  0  0  0  0  0  0  0  # atno 17370 bound_to 10713
  157.4324  130.7498  149.7001 LP  0  0  0  0  0  0  0  0  0  0  0  0  # atno 17371 bound_to 10713
  140.8522  134.2940  157.5270 LP  0  0  0  0  0  0  0  0  0  0  0  0  # atno 17394 bound_to 11000
  139.8715  134.9474  156.3965 LP  0  0  0  0  0  0  0  0  0  0  0  0  # atno 17395 bound_to 11000

$$$$
