AV-unprocessed.smi:2451|AV-procd|sdf|9681|dock4
  -GOLD-   2272013323D 1   1.00000     0.00000
 Structure written by MMmdl.
 37 38  0  0  0  0  0  0  0  0  2 V2000
  152.7876  144.4627  158.4382 C   0  0  0  0  0  0  0  0  0  0  0  0
  151.8435  143.6064  159.3149 C   0  0  2  0  0  0  0  0  0  0  0  0
  152.4022  143.4435  160.7497 C   0  0  0  0  0  0  0  0  0  0  0  0
  153.5348  142.3972  160.7751 C   0  0  0  0  0  0  0  0  0  0  0  0
  153.0913  141.0378  160.1861 C   0  0  0  0  0  0  0  0  0  0  0  0
  152.5308  141.1386  158.7467 C   0  0  1  0  0  0  0  0  0  0  0  0
  152.0007  139.8412  158.3496 N   0  5  0  0  0  0  0  0  0  0  0  0
  152.9093  138.5137  158.5473 S   0  0  0  0  0  0  0  0  0  0  0  0
  154.1158  138.5197  157.7035 O   0  0  0  0  0  0  0  0  0  0  0  0
  153.0886  138.1600  159.9651 O   0  0  0  0  0  0  0  0  0  0  0  0
  151.7934  137.2315  157.8339 C   0  0  0  0  0  0  0  0  0  0  0  0
  150.4946  137.1986  158.5890 C   0  0  0  0  0  0  0  0  0  0  0  0
  149.1745  137.3675  158.0863 C   0  0  0  0  0  0  0  0  0  0  0  0
  148.3913  137.2404  159.1968 C   0  0  0  0  0  0  0  0  0  0  0  0
  149.1549  137.0024  160.2927 O   0  0  0  0  0  0  0  0  0  0  0  0
  150.4961  136.9740  159.8942 N   0  0  0  0  0  0  0  0  0  0  0  0
  151.4146  142.2338  158.6888 C   0  0  2  0  0  0  0  0  0  0  0  0
  150.8041  142.4235  157.2787 C   0  0  0  0  0  0  0  0  0  0  0  0
  153.7329  143.9600  158.2344 H   0  0  0  0  0  0  0  0  0  0  0  0
  153.0217  145.4071  158.9295 H   0  0  0  0  0  0  0  0  0  0  0  0
  152.3318  144.7115  157.4804 H   0  0  0  0  0  0  0  0  0  0  0  0
  150.9323  144.1979  159.4148 H   0  0  0  0  0  0  0  0  0  0  0  0
  152.7541  144.3982  161.1417 H   0  0  0  0  0  0  0  0  0  0  0  0
  151.6009  143.1166  161.4137 H   0  0  0  0  0  0  0  0  0  0  0  0
  154.4056  142.7774  160.2380 H   0  0  0  0  0  0  0  0  0  0  0  0
  153.8656  142.2514  161.8037 H   0  0  0  0  0  0  0  0  0  0  0  0
  153.9332  140.3445  160.2048 H   0  0  0  0  0  0  0  0  0  0  0  0
  152.3325  140.6094  160.8429 H   0  0  0  0  0  0  0  0  0  0  0  0
  153.3449  141.4591  158.0954 H   0  0  0  0  0  0  0  0  0  0  0  0
  151.6292  137.4685  156.7832 H   0  0  0  0  0  0  0  0  0  0  0  0
  152.3066  136.2708  157.8819 H   0  0  0  0  0  0  0  0  0  0  0  0
  148.8567  137.5593  157.0723 H   0  0  0  0  0  0  0  0  0  0  0  0
  147.3253  137.2890  159.3625 H   0  0  0  0  0  0  0  0  0  0  0  0
  150.5990  141.8724  159.3183 H   0  0  0  0  0  0  0  0  0  0  0  0
  151.5512  142.6995  156.5327 H   0  0  0  0  0  0  0  0  0  0  0  0
  150.0495  143.2101  157.2891 H   0  0  0  0  0  0  0  0  0  0  0  0
  150.3053  141.5212  156.9207 H   0  0  0  0  0  0  0  0  0  0  0  0
  1  2  1  0  0  0  0
  1 19  1  0  0  0  0
  1 20  1  0  0  0  0
  1 21  1  0  0  0  0
  2 17  1  0  0  0  0
  2  3  1  0  0  0  0
  2 22  1  0  0  0  0
  3  4  1  0  0  0  0
  3 23  1  0  0  0  0
  3 24  1  0  0  0  0
  4  5  1  0  0  0  0
  4 25  1  0  0  0  0
  4 26  1  0  0  0  0
  5  6  1  0  0  0  0
  5 27  1  0  0  0  0
  5 28  1  0  0  0  0
  6  7  1  0  0  0  0
  6 17  1  0  0  0  0
  6 29  1  0  0  0  0
  7  8  1  0  0  0  0
  8  9  2  0  0  0  0
  8 10  2  0  0  0  0
  8 11  1  0  0  0  0
 11 12  1  0  0  0  0
 11 30  1  0  0  0  0
 11 31  1  0  0  0  0
 12 16  2  0  0  0  0
 12 13  1  0  0  0  0
 13 14  2  0  0  0  0
 13 32  1  0  0  0  0
 14 15  1  0  0  0  0
 14 33  1  0  0  0  0
 15 16  1  0  0  0  0
 17 18  1  0  0  0  0
 17 34  1  0  0  0  0
 18 35  1  0  0  0  0
 18 36  1  0  0  0  0
 18 37  1  0  0  0  0
M  CHG  1   7  -1
M  END
> <s_m_source_file>
AV-unprocessed.smi

> <i_m_source_file_index>
2451

> <i_lp_mmshare_version>
43012

> <i_f3d_flags>
0

> <s_epik_input>
W0NIM11bQ0BASF0xW0NIMl1bQ0gyXVtDSDJdW0NASF0oW0NASF0xW0NIM10pW05IXVMoPU8pKD1PKVtDSDJdYzJbY0hdW2NIXW9uMg==

> <s_epik_cmdline>
J2VwaWtfcHl0aG9uJywgJy1waCcsICc3LjAnLCAnLXRuJywgJzgnLCAnLW1hJywgJzIwMCcsICctbWV0YWxfYmluZGluZycsICctaW1hZScsICc8aW5maWxlLm1hZT4nLCAnLW9tYWUnLCAnPG91dGZpbGUubWFlPic=

> <r_lp_tautomer_probability>
1

> <r_epik_Ionization_Penalty>
5.22693

> <r_epik_Ionization_Penalty_Charging>
5.22693

> <r_epik_Ionization_Penalty_Neutral>
2.67702e-10

> <r_epik_State_Penalty>
5.22685

> <r_epik_Charging_Adjusted_Penalty>
10.4538

> <i_epik_Tot_Q>
-1

> <i_epik_Tot_abs_Q>
1

> <r_epik_Metal_State_Penalty>
1.28716

> <b_epik_Metal_Only>
1

> <s_lp_Force_Field>
OPLS_2005

> <r_lp_Energy>
14.4343

> <b_lp_Chiralities_Consistent>
1

> <s_lp_Variant>
AV-unprocessed.smi:2451-13

> <Gold.Version>
5.8.1

> <Gold.Id.Protein>
6NUR|6NUR_protein|mol2

> <Gold.PLP.Fitness>
41.9431

> <Gold.PLP.PLP>
-34.8723

> <Gold.PLP.part.hbond>
-3.4226

> <Gold.PLP.part.metal>
0.0000

> <Gold.PLP.part.buried>
-5.6837

> <Gold.PLP.part.nonpolar>
-26.9417

> <Gold.PLP.part.repulsive>
0.0000

> <Gold.PLP.ligand.clash>
0.0000

> <Gold.PLP.ligand.torsion>
0.7429

> <Gold.PLP.Chemscore.Hbond>
2.5200

> <Gold.PLP.Chemscore.CHOScore>
0.0000

> <Gold.PLP.Chemscore.Metal>
0.0000

> <Gold.Chemscore.Hbonds>
donor molecule, donor type, donor heavy atom, donor atom, acceptor molecule, acceptor atom, score
      P1  H  6896  6907       L1    16  1.00
      P1  H  6931  6943       L1    15  0.59
      P1  H  7997  8009       L1     9  0.93

> <Gold.PLP.Chemscore.Internal.Correction>
0.9965

> <Gold.Rescore>
     Score         DG    S(hbond)    S(metal)    S(lipo)     H(rot)  DE(clash)    DE(int)     intcor
     17.33     -19.49       1.93        0.00      95.25       1.40       0.00       2.16       ----

> <Gold.Chemscore.Fitness>
17.3258

> <Gold.Chemscore.DG>
-19.4877

> <Gold.Chemscore.ZeroCoef>
-5.4800

> <Gold.Chemscore.Hbond>
1.9293

> <Gold.Chemscore.Metal>
0.0000

> <Gold.Chemscore.Lipo>
95.2492

> <Gold.Chemscore.Internal_Hbond>
0.0000

> <Gold.Chemscore.DEClash>
0.0000

> <Gold.Chemscore.DEInternal>
2.1618

> <Gold.Chemscore.Rot>
1.3986

> <Gold.Chemscore.Internal.Correction>
   9.000000E+99

> <Gold.Chemscore.Hbonds>
donor molecule, donor type, donor heavy atom, donor atom, acceptor molecule, acceptor atom, score
      P1  H  6896  6907       L1    16  0.22
      P1  H  6931  6943       L1    15  0.30
      P1  H  7997  8009       L1     9  0.88

> <Gold.Chemscore.Hbond.Weighted>
-6.4439

> <Gold.Chemscore.Metal.Weighted>
-0.0000

> <Gold.Chemscore.Lipo.Weighted>
-11.1442

> <Gold.Chemscore.Internal_Hbond.Weighted>
0.0000

> <Gold.Chemscore.DEClash.Weighted>
0.0000

> <Gold.Chemscore.DEInternal.Weighted>
2.1618

> <Gold.Chemscore.Rot.Weighted>
3.5804

> <Gold.Chemscore.Internal.Correction.Weighted>
   9.000000E+99

> <Gold.Protein.RotatedTorsions>
[ 6907 6896 6895 6894 ] final  -15.00 input  -60.11 | X-H torsion
[ 7974 7965 7964 7962 ] final   45.56 input  175.53 | X-H torsion
[ 8008 7997 7996 7995 ] final  137.84 input   59.86 | X-H torsion
[ 10167 10162 10161 10158 ] final   77.21 input  -65.29 | X-H torsion
[ 10718 10713 10712 10709 ] final  -41.77 input   66.30 | X-H torsion
[ 10763 10752 10751 10750 ] final -167.49 input  -60.55 | X-H torsion
[ 11005 11000 10999 10996 ] final   66.62 input  -57.11 | X-H torsion

> <Gold.Protein.ActiveResidues>
 VAL166  LYS551  ARG553  GLY616  TRP617  ASP618  TYR619  PRO620  LYS621  CYS622 
 ASP623  PHE694  ASN695  SER759  ASP760  ASP761  ALA762  ILE779  LEU786  VAL792 
 PHE793  MET794  SER795  GLU796  ALA797  LYS798  CYS799  TRP800  GLU811  SER814 

> <Gold.Protein.RotatedAtoms>
  151.3307  135.0841  159.9337 H   0  0  0  0  0  0  0  0  0  0  0  0  # atno 6907 bound_to 6896
  152.5235  133.9546  159.7698 H   0  0  0  0  0  0  0  0  0  0  0  0  # atno 6908 bound_to 6896
  150.9884  133.6121  159.2742 H   0  0  0  0  0  0  0  0  0  0  0  0  # atno 6909 bound_to 6896
  146.0469  139.4951  142.9743 H   0  0  0  0  0  0  0  0  0  0  0  0  # atno 7974 bound_to 7965
  156.3000  140.2409  156.3975 H   0  0  0  0  0  0  0  0  0  0  0  0  # atno 8008 bound_to 7997
  154.8557  140.0422  157.1653 H   0  0  0  0  0  0  0  0  0  0  0  0  # atno 8009 bound_to 7997
  154.8950  140.2968  155.5353 H   0  0  0  0  0  0  0  0  0  0  0  0  # atno 8010 bound_to 7997
  139.9840  144.5806  150.7876 H   0  0  0  0  0  0  0  0  0  0  0  0  # atno 10167 bound_to 10162
  156.2667  130.4202  149.8482 H   0  0  0  0  0  0  0  0  0  0  0  0  # atno 10718 bound_to 10713
  154.6726  135.2942  154.9721 H   0  0  0  0  0  0  0  0  0  0  0  0  # atno 10763 bound_to 10752
  154.0743  135.6613  153.4832 H   0  0  0  0  0  0  0  0  0  0  0  0  # atno 10764 bound_to 10752
  153.0496  135.5182  154.7730 H   0  0  0  0  0  0  0  0  0  0  0  0  # atno 10765 bound_to 10752
  139.9820  134.6728  156.0244 H   0  0  0  0  0  0  0  0  0  0  0  0  # atno 11005 bound_to 11000
  145.6791  141.0196  143.1616 LP  0  0  0  0  0  0  0  0  0  0  0  0  # atno 17320 bound_to 7965
  144.7102  139.8400  143.7417 LP  0  0  0  0  0  0  0  0  0  0  0  0  # atno 17321 bound_to 7965
  140.7479  143.2913  151.3322 LP  0  0  0  0  0  0  0  0  0  0  0  0  # atno 17342 bound_to 10162
  139.6389  144.0577  152.2538 LP  0  0  0  0  0  0  0  0  0  0  0  0  # atno 17343 bound_to 10162
  156.5978  130.8534  151.3424 LP  0  0  0  0  0  0  0  0  0  0  0  0  # atno 17370 bound_to 10713
  157.7270  130.9637  150.1679 LP  0  0  0  0  0  0  0  0  0  0  0  0  # atno 17371 bound_to 10713
  141.1491  133.6551  156.3958 LP  0  0  0  0  0  0  0  0  0  0  0  0  # atno 17394 bound_to 11000
  140.5076  134.6425  157.5272 LP  0  0  0  0  0  0  0  0  0  0  0  0  # atno 17395 bound_to 11000

$$$$
