AV-unprocessed.smi:1709|AV-procd|sdf|6891|dock3
  -GOLD-   22720 8 93D 1   1.00000     0.00000
 Structure written by MMmdl.
 43 45  0  0  0  0  0  0  0  0  2 V2000
  149.0916  139.0647  153.7999 C   0  0  0  0  0  0  0  0  0  0  0  0
  150.2517  138.7815  154.7412 C   0  0  0  0  0  0  0  0  0  0  0  0
  150.9486  139.8650  155.3170 C   0  0  0  0  0  0  0  0  0  0  0  0
  152.0202  139.6063  156.1877 C   0  0  0  0  0  0  0  0  0  0  0  0
  152.3520  138.2661  156.4466 C   0  0  0  0  0  0  0  0  0  0  0  0
  151.6914  137.2248  155.9000 N   0  0  0  0  0  0  0  0  0  0  0  0
  150.6509  137.4545  155.0578 C   0  0  0  0  0  0  0  0  0  0  0  0
  149.8964  136.4134  154.4322 N   0  0  0  0  0  0  0  0  0  0  0  0
  149.4185  135.2395  154.8981 C   0  0  0  0  0  0  0  0  0  0  0  0
  149.6088  134.8961  156.0635 O   0  0  0  0  0  0  0  0  0  0  0  0
  148.7363  134.4827  154.0232 N   0  0  0  0  0  0  0  0  0  0  0  0
  148.1415  133.1804  154.3050 C   0  0  2  0  0  0  0  0  0  0  0  0
  149.1253  132.2018  154.9345 C   0  0  0  0  0  0  0  0  0  0  0  0
  148.4571  130.8526  154.6647 C   0  0  0  0  0  0  0  0  0  0  0  0
  147.7595  130.9944  153.3659 N   0  3  1  0  0  0  0  0  0  0  0  0
  146.4746  130.2589  153.2744 C   0  0  0  0  0  0  0  0  0  0  0  0
  145.8362  130.4455  151.8854 C   0  0  0  0  0  0  0  0  0  0  0  0
  145.7751  131.9217  151.4397 C   0  0  0  0  0  0  0  0  0  0  0  0
  146.3009  132.8814  152.5182 C   0  0  0  0  0  0  0  0  0  0  0  0
  147.6923  132.4454  153.0309 C   0  0  1  0  0  0  0  0  0  0  0  0
  148.9496  140.1361  153.6548 H   0  0  0  0  0  0  0  0  0  0  0  0
  148.1648  138.6554  154.2031 H   0  0  0  0  0  0  0  0  0  0  0  0
  149.2729  138.6172  152.8223 H   0  0  0  0  0  0  0  0  0  0  0  0
  150.6671  140.8842  155.0959 H   0  0  0  0  0  0  0  0  0  0  0  0
  152.5728  140.4139  156.6447 H   0  0  0  0  0  0  0  0  0  0  0  0
  153.1684  138.0222  157.1098 H   0  0  0  0  0  0  0  0  0  0  0  0
  149.6887  136.5856  153.4594 H   0  0  0  0  0  0  0  0  0  0  0  0
  148.6277  134.8418  153.0846 H   0  0  0  0  0  0  0  0  0  0  0  0
  147.2962  133.2895  154.9879 H   0  0  0  0  0  0  0  0  0  0  0  0
  150.0902  132.2494  154.4267 H   0  0  0  0  0  0  0  0  0  0  0  0
  149.2902  132.3871  155.9966 H   0  0  0  0  0  0  0  0  0  0  0  0
  149.1715  130.0294  154.6451 H   0  0  0  0  0  0  0  0  0  0  0  0
  147.7336  130.6469  155.4553 H   0  0  0  0  0  0  0  0  0  0  0  0
  146.6469  129.1993  153.4668 H   0  0  0  0  0  0  0  0  0  0  0  0
  145.7935  130.6116  154.0505 H   0  0  0  0  0  0  0  0  0  0  0  0
  146.4025  129.8749  151.1482 H   0  0  0  0  0  0  0  0  0  0  0  0
  144.8335  130.0171  151.8884 H   0  0  0  0  0  0  0  0  0  0  0  0
  146.3684  132.0457  150.5330 H   0  0  0  0  0  0  0  0  0  0  0  0
  144.7532  132.1910  151.1702 H   0  0  0  0  0  0  0  0  0  0  0  0
  146.3488  133.8953  152.1200 H   0  0  0  0  0  0  0  0  0  0  0  0
  145.5902  132.9164  153.3452 H   0  0  0  0  0  0  0  0  0  0  0  0
  148.4287  132.6059  152.2415 H   0  0  0  0  0  0  0  0  0  0  0  0
  148.3660  130.5875  152.6681 H   0  0  0  0  0  0  0  0  0  0  0  0
  1  2  1  0  0  0  0
  1 21  1  0  0  0  0
  1 22  1  0  0  0  0
  1 23  1  0  0  0  0
  2  7  1  0  0  0  0
  2  3  2  0  0  0  0
  3  4  1  0  0  0  0
  3 24  1  0  0  0  0
  4  5  2  0  0  0  0
  4 25  1  0  0  0  0
  5  6  1  0  0  0  0
  5 26  1  0  0  0  0
  6  7  2  0  0  0  0
  7  8  1  0  0  0  0
  8  9  1  0  0  0  0
  8 27  1  0  0  0  0
  9 10  2  0  0  0  0
  9 11  1  0  0  0  0
 11 12  1  0  0  0  0
 11 28  1  0  0  0  0
 12 20  1  0  0  0  0
 12 13  1  0  0  0  0
 12 29  1  0  0  0  0
 13 14  1  0  0  0  0
 13 30  1  0  0  0  0
 13 31  1  0  0  0  0
 14 15  1  0  0  0  0
 14 32  1  0  0  0  0
 14 33  1  0  0  0  0
 15 20  1  0  0  0  0
 15 16  1  0  0  0  0
 15 43  1  0  0  0  0
 16 17  1  0  0  0  0
 16 34  1  0  0  0  0
 16 35  1  0  0  0  0
 17 18  1  0  0  0  0
 17 36  1  0  0  0  0
 17 37  1  0  0  0  0
 18 19  1  0  0  0  0
 18 38  1  0  0  0  0
 18 39  1  0  0  0  0
 19 20  1  0  0  0  0
 19 40  1  0  0  0  0
 19 41  1  0  0  0  0
 20 42  1  0  0  0  0
M  CHG  1  15   1
M  END
> <s_m_source_file>
AV-unprocessed.smi

> <i_m_source_file_index>
1709

> <i_lp_mmshare_version>
43012

> <i_f3d_flags>
0

> <s_epik_input>
W0NIM11jMVtjSF1bY0hdW2NIXW5jMVtOSF1DKD1PKVtOSF1bQ0BIXShbQ0gyXVtDSDJdMilbQ0BASF0oTjIzKVtDSDJdW0NIMl1bQ0gyXVtDSDJdMw==

> <s_epik_cmdline>
J2VwaWtfcHl0aG9uJywgJy1waCcsICc3LjAnLCAnLXRuJywgJzgnLCAnLW1hJywgJzIwMCcsICctbWV0YWxfYmluZGluZycsICctaW1hZScsICc8aW5maWxlLm1hZT4nLCAnLW9tYWUnLCAnPG91dGZpbGUubWFlPic=

> <r_epik_Ionization_Penalty>
0.00101524

> <r_epik_Ionization_Penalty_Charging>
0.000974069

> <r_epik_Ionization_Penalty_Neutral>
4.11757e-05

> <r_epik_State_Penalty>
0.000633842

> <r_epik_Charging_Adjusted_Penalty>
0.00160791

> <i_epik_Tot_Q>
1

> <i_epik_Tot_abs_Q>
1

> <r_epik_Metal_State_Penalty>
-0

> <b_epik_Metal_Only>
0

> <s_lp_Force_Field>
OPLS_2005

> <r_lp_Energy>
44.7529

> <b_lp_Chiralities_Consistent>
1

> <s_lp_Variant>
AV-unprocessed.smi:1709-1

> <Gold.Version>
5.8.1

> <Gold.Id.Protein>
6NUR|6NUR_protein|mol2

> <Gold.PLP.Fitness>
47.1090

> <Gold.PLP.PLP>
-36.2597

> <Gold.PLP.part.hbond>
-5.0000

> <Gold.PLP.part.metal>
0.0000

> <Gold.PLP.part.buried>
0.7839

> <Gold.PLP.part.nonpolar>
-31.9307

> <Gold.PLP.part.repulsive>
0.1536

> <Gold.PLP.ligand.clash>
0.0000

> <Gold.PLP.ligand.torsion>
0.4358

> <Gold.PLP.Chemscore.Hbond>
3.9040

> <Gold.PLP.Chemscore.CHOScore>
0.0000

> <Gold.PLP.Chemscore.Metal>
0.0000

> <Gold.Chemscore.Hbonds>
donor molecule, donor type, donor heavy atom, donor atom, acceptor molecule, acceptor atom, score
      L1  H     8    27       P1  7948  1.00
      L1  H    11    28       P1  7948  0.98
      P1  H 10752 10765       L1     6  0.11

> <Gold.PLP.Chemscore.Internal.Correction>
0.0088

> <Gold.Rescore>
     Score         DG    S(hbond)    S(metal)    S(lipo)     H(rot)  DE(clash)    DE(int)     intcor
     20.96     -22.12       3.24        0.00      71.60       1.00       0.05       1.12       ----

> <Gold.Chemscore.Fitness>
20.9572

> <Gold.Chemscore.DG>
-22.1226

> <Gold.Chemscore.ZeroCoef>
-5.4800

> <Gold.Chemscore.Hbond>
3.2412

> <Gold.Chemscore.Metal>
0.0000

> <Gold.Chemscore.Lipo>
71.5966

> <Gold.Chemscore.Internal_Hbond>
0.0000

> <Gold.Chemscore.DEClash>
0.0485

> <Gold.Chemscore.DEInternal>
1.1168

> <Gold.Chemscore.Rot>
1.0000

> <Gold.Chemscore.Internal.Correction>
   9.000000E+99

> <Gold.Chemscore.Hbonds>
donor molecule, donor type, donor heavy atom, donor atom, acceptor molecule, acceptor atom, score
      L1  H     8    27       P1  7948  0.44
      L1  H    11    28       P1  7948  0.37
      L1  H    15    43       P1 10747  0.03
      P1  H 10752 10765       L1     6  0.07

> <Gold.Chemscore.Hbond.Weighted>
-10.8258

> <Gold.Chemscore.Metal.Weighted>
-0.0000

> <Gold.Chemscore.Lipo.Weighted>
-8.3768

> <Gold.Chemscore.Internal_Hbond.Weighted>
0.0000

> <Gold.Chemscore.DEClash.Weighted>
0.0485

> <Gold.Chemscore.DEInternal.Weighted>
1.1168

> <Gold.Chemscore.Rot.Weighted>
2.5600

> <Gold.Chemscore.Internal.Correction.Weighted>
   9.000000E+99

> <Gold.Protein.RotatedTorsions>
[ 6907 6896 6895 6894 ] final -118.41 input  -60.11 | X-H torsion
[ 7974 7965 7964 7962 ] final   43.59 input  175.53 | X-H torsion
[ 8008 7997 7996 7995 ] final  109.69 input   59.86 | X-H torsion
[ 10167 10162 10161 10158 ] final  130.08 input  -65.29 | X-H torsion
[ 10718 10713 10712 10709 ] final  -66.50 input   66.30 | X-H torsion
[ 10763 10752 10751 10750 ] final -167.97 input  -60.55 | X-H torsion
[ 11005 11000 10999 10996 ] final -128.48 input  -57.11 | X-H torsion

> <Gold.Protein.ActiveResidues>
 VAL166  LYS551  ARG553  GLY616  TRP617  ASP618  TYR619  PRO620  LYS621  CYS622 
 ASP623  PHE694  ASN695  SER759  ASP760  ASP761  ALA762  ILE779  LEU786  VAL792 
 PHE793  MET794  SER795  GLU796  ALA797  LYS798  CYS799  TRP800  GLU811  SER814 

> <Gold.Protein.RotatedAtoms>
  150.8217  133.8241  159.3135 H   0  0  0  0  0  0  0  0  0  0  0  0  # atno 6907 bound_to 6896
  151.5997  135.1046  160.0067 H   0  0  0  0  0  0  0  0  0  0  0  0  # atno 6908 bound_to 6896
  152.4306  133.7230  159.6600 H   0  0  0  0  0  0  0  0  0  0  0  0  # atno 6909 bound_to 6896
  146.0642  139.5169  142.9639 H   0  0  0  0  0  0  0  0  0  0  0  0  # atno 7974 bound_to 7965
  156.1998  140.3053  155.9503 H   0  0  0  0  0  0  0  0  0  0  0  0  # atno 8008 bound_to 7997
  155.2980  140.0445  157.3044 H   0  0  0  0  0  0  0  0  0  0  0  0  # atno 8009 bound_to 7997
  154.5556  140.2305  155.8424 H   0  0  0  0  0  0  0  0  0  0  0  0  # atno 8010 bound_to 7997
  139.5447  144.6762  151.4512 H   0  0  0  0  0  0  0  0  0  0  0  0  # atno 10167 bound_to 10162
  156.0609  130.4263  150.1717 H   0  0  0  0  0  0  0  0  0  0  0  0  # atno 10718 bound_to 10713
  154.6677  135.2934  154.9783 H   0  0  0  0  0  0  0  0  0  0  0  0  # atno 10763 bound_to 10752
  154.0821  135.6603  153.4843 H   0  0  0  0  0  0  0  0  0  0  0  0  # atno 10764 bound_to 10752
  153.0468  135.5200  154.7658 H   0  0  0  0  0  0  0  0  0  0  0  0  # atno 10765 bound_to 10752
  140.9512  134.1062  157.4059 H   0  0  0  0  0  0  0  0  0  0  0  0  # atno 11005 bound_to 11000
  145.6506  141.0264  143.1762 LP  0  0  0  0  0  0  0  0  0  0  0  0  # atno 17320 bound_to 7965
  144.7193  139.8087  143.7388 LP  0  0  0  0  0  0  0  0  0  0  0  0  # atno 17321 bound_to 7965
  140.6690  143.8334  150.6977 LP  0  0  0  0  0  0  0  0  0  0  0  0  # atno 17342 bound_to 10162
  140.1753  143.4160  152.1972 LP  0  0  0  0  0  0  0  0  0  0  0  0  # atno 17343 bound_to 10162
  156.9786  130.9857  151.3442 LP  0  0  0  0  0  0  0  0  0  0  0  0  # atno 17370 bound_to 10713
  157.5617  130.8250  149.8274 LP  0  0  0  0  0  0  0  0  0  0  0  0  # atno 17371 bound_to 10713
  139.8848  135.0066  156.6394 LP  0  0  0  0  0  0  0  0  0  0  0  0  # atno 17394 bound_to 11000
  140.7599  133.8826  155.8410 LP  0  0  0  0  0  0  0  0  0  0  0  0  # atno 17395 bound_to 11000

$$$$
