AV-unprocessed.smi:2646|AV-procd|sdf|10281|dock7
  -GOLD-   2272014293D 1   1.00000     0.00000
 Structure written by MMmdl.
 43 44  0  0  0  0  0  0  0  0  1 V2000
  144.9613  134.7801  154.4335 C   0  0  0  0  0  0  0  0  0  0  0  0
  145.1792  135.6477  153.1674 C   0  0  1  0  0  0  0  0  0  0  0  0
  144.0393  136.7062  153.0915 C   0  0  0  0  0  0  0  0  0  0  0  0
  144.2253  137.6230  152.0317 O   0  0  0  0  0  0  0  0  0  0  0  0
  146.4764  136.3370  153.2520 N   0  0  0  0  0  0  0  0  0  0  0  0
  146.9173  137.1979  154.1839 C   0  0  0  0  0  0  0  0  0  0  0  0
  146.2584  137.5580  155.1584 O   0  0  0  0  0  0  0  0  0  0  0  0
  148.1583  137.6225  153.8912 N   0  0  0  0  0  0  0  0  0  0  0  0
  148.9784  138.5230  154.6224 C   0  0  0  0  0  0  0  0  0  0  0  0
  148.6368  138.7879  155.9645 C   0  0  0  0  0  0  0  0  0  0  0  0
  149.4217  139.6906  156.7068 C   0  0  0  0  0  0  0  0  0  0  0  0
  150.5186  140.3037  156.0713 C   0  0  0  0  0  0  0  0  0  0  0  0
  150.8503  140.0742  154.7834 N   0  0  0  0  0  0  0  0  0  0  0  0
  150.0942  139.2060  154.0774 C   0  0  0  0  0  0  0  0  0  0  0  0
  145.2149  134.7409  151.8861 C   0  0  0  0  0  0  0  0  0  0  0  0
  143.9471  133.8599  151.7135 C   0  0  0  0  0  0  0  0  0  0  0  0
  143.9882  133.0245  150.4239 C   0  0  0  0  0  0  0  0  0  0  0  0
  145.2429  132.1445  150.3686 C   0  0  0  0  0  0  0  0  0  0  0  0
  146.5080  132.9986  150.5151 C   0  0  0  0  0  0  0  0  0  0  0  0
  146.4734  133.8348  151.8040 C   0  0  0  0  0  0  0  0  0  0  0  0
  144.1134  134.1056  154.3091 H   0  0  0  0  0  0  0  0  0  0  0  0
  144.7535  135.3889  155.3134 H   0  0  0  0  0  0  0  0  0  0  0  0
  145.8341  134.1734  154.6726 H   0  0  0  0  0  0  0  0  0  0  0  0
  143.0699  136.2306  152.9429 H   0  0  0  0  0  0  0  0  0  0  0  0
  143.9561  137.2662  154.0229 H   0  0  0  0  0  0  0  0  0  0  0  0
  144.0916  138.4969  152.3657 H   0  0  0  0  0  0  0  0  0  0  0  0
  147.1162  136.1280  152.4997 H   0  0  0  0  0  0  0  0  0  0  0  0
  148.5392  137.3071  153.0112 H   0  0  0  0  0  0  0  0  0  0  0  0
  147.7873  138.3039  156.4237 H   0  0  0  0  0  0  0  0  0  0  0  0
  149.1888  139.9080  157.7387 H   0  0  0  0  0  0  0  0  0  0  0  0
  151.1425  141.0012  156.6104 H   0  0  0  0  0  0  0  0  0  0  0  0
  150.3918  139.0851  153.0476 H   0  0  0  0  0  0  0  0  0  0  0  0
  145.2460  135.4026  151.0191 H   0  0  0  0  0  0  0  0  0  0  0  0
  143.8307  133.1898  152.5659 H   0  0  0  0  0  0  0  0  0  0  0  0
  143.0494  134.4757  151.6824 H   0  0  0  0  0  0  0  0  0  0  0  0
  143.0958  132.4015  150.3574 H   0  0  0  0  0  0  0  0  0  0  0  0
  143.9672  133.6876  149.5581 H   0  0  0  0  0  0  0  0  0  0  0  0
  145.2067  131.3996  151.1649 H   0  0  0  0  0  0  0  0  0  0  0  0
  145.2715  131.5938  149.4279 H   0  0  0  0  0  0  0  0  0  0  0  0
  147.3901  132.3578  150.5129 H   0  0  0  0  0  0  0  0  0  0  0  0
  146.6048  133.6606  149.6536 H   0  0  0  0  0  0  0  0  0  0  0  0
  147.3830  134.4326  151.8358 H   0  0  0  0  0  0  0  0  0  0  0  0
  146.5150  133.1663  152.6646 H   0  0  0  0  0  0  0  0  0  0  0  0
  1  2  1  0  0  0  0
  1 21  1  0  0  0  0
  1 22  1  0  0  0  0
  1 23  1  0  0  0  0
  2  3  1  0  0  0  0
  2  5  1  0  0  0  0
  2 15  1  0  0  0  0
  3  4  1  0  0  0  0
  3 24  1  0  0  0  0
  3 25  1  0  0  0  0
  4 26  1  0  0  0  0
  5  6  1  0  0  0  0
  5 27  1  0  0  0  0
  6  7  2  0  0  0  0
  6  8  1  0  0  0  0
  8  9  1  0  0  0  0
  8 28  1  0  0  0  0
  9 14  1  0  0  0  0
  9 10  2  0  0  0  0
 10 11  1  0  0  0  0
 10 29  1  0  0  0  0
 11 12  2  0  0  0  0
 11 30  1  0  0  0  0
 12 13  1  0  0  0  0
 12 31  1  0  0  0  0
 13 14  2  0  0  0  0
 14 32  1  0  0  0  0
 15 20  1  0  0  0  0
 15 16  1  0  0  0  0
 15 33  1  0  0  0  0
 16 17  1  0  0  0  0
 16 34  1  0  0  0  0
 16 35  1  0  0  0  0
 17 18  1  0  0  0  0
 17 36  1  0  0  0  0
 17 37  1  0  0  0  0
 18 19  1  0  0  0  0
 18 38  1  0  0  0  0
 18 39  1  0  0  0  0
 19 20  1  0  0  0  0
 19 40  1  0  0  0  0
 19 41  1  0  0  0  0
 20 42  1  0  0  0  0
 20 43  1  0  0  0  0
M  END
> <s_m_source_file>
AV-unprocessed.smi

> <i_m_source_file_index>
2646

> <i_lp_mmshare_version>
43012

> <i_f3d_flags>
0

> <s_epik_input>
W0NIMl0xW0NIMl1bQ0gyXVtDSDJdW0NIMl1bQ0hdMVtDQF0oW0NIM10pKFtDSDJdW09IXSlbTkhdQyg9TylbTkhdYzJbY0hdW2NIXVtjSF1uW2NIXTI=

> <s_epik_cmdline>
J2VwaWtfcHl0aG9uJywgJy1waCcsICc3LjAnLCAnLXRuJywgJzgnLCAnLW1hJywgJzIwMCcsICctbWV0YWxfYmluZGluZycsICctaW1hZScsICc8aW5maWxlLm1hZT4nLCAnLW9tYWUnLCAnPG91dGZpbGUubWFlPic=

> <r_epik_Ionization_Penalty>
0.00498697

> <r_epik_Ionization_Penalty_Charging>
0

> <r_epik_Ionization_Penalty_Neutral>
0.00498697

> <r_epik_State_Penalty>
0.00359645

> <r_epik_Charging_Adjusted_Penalty>
0.00359645

> <i_epik_Tot_Q>
0

> <i_epik_Tot_abs_Q>
0

> <r_epik_Metal_State_Penalty>
-0

> <b_epik_Metal_Only>
0

> <s_lp_Force_Field>
OPLS_2005

> <r_lp_Energy>
21.3241

> <b_lp_Chiralities_Consistent>
1

> <s_lp_Variant>
AV-unprocessed.smi:2646-1

> <Gold.Version>
5.8.1

> <Gold.Id.Protein>
6NUR|6NUR_protein|mol2

> <Gold.PLP.Fitness>
43.8630

> <Gold.PLP.PLP>
-29.3243

> <Gold.PLP.part.hbond>
-4.6281

> <Gold.PLP.part.metal>
0.0000

> <Gold.PLP.part.buried>
-3.9785

> <Gold.PLP.part.nonpolar>
-20.7738

> <Gold.PLP.part.repulsive>
0.1136

> <Gold.PLP.ligand.clash>
0.0000

> <Gold.PLP.ligand.torsion>
0.1695

> <Gold.PLP.Chemscore.Hbond>
3.9440

> <Gold.PLP.Chemscore.CHOScore>
1.0000

> <Gold.PLP.Chemscore.Metal>
0.0000

> <Gold.Chemscore.Hbonds>
donor molecule, donor type, donor heavy atom, donor atom, acceptor molecule, acceptor atom, score
      L1  H     4    26       P1 10175  1.00
      L1  H     5    27       P1  7948  0.94
      L1  H     8    28       P1  7948  1.00
      P1  H  7989  7998       L1    13  0.95
      L1  C    14    32       P1  7957  1.00

> <Gold.PLP.Chemscore.Internal.Correction>
0.0457

> <Gold.Rescore>
     Score         DG    S(hbond)    S(metal)    S(lipo)     H(rot)  DE(clash)    DE(int)     intcor
     18.03     -19.78       3.36        0.00      69.65       1.98       0.27       1.49       ----

> <Gold.Chemscore.Fitness>
18.0285

> <Gold.Chemscore.DG>
-19.7803

> <Gold.Chemscore.ZeroCoef>
-5.4800

> <Gold.Chemscore.Hbond>
3.3592

> <Gold.Chemscore.Metal>
0.0000

> <Gold.Chemscore.Lipo>
69.6458

> <Gold.Chemscore.Internal_Hbond>
0.0000

> <Gold.Chemscore.DEClash>
0.2655

> <Gold.Chemscore.DEInternal>
1.4863

> <Gold.Chemscore.Rot>
1.9798

> <Gold.Chemscore.Internal.Correction>
   9.000000E+99

> <Gold.Chemscore.Hbonds>
donor molecule, donor type, donor heavy atom, donor atom, acceptor molecule, acceptor atom, score
      L1  H     4    26       P1 10175  0.96
      L1  H     5    27       P1  7948  0.90
      L1  H     8    28       P1  7948  0.98
      P1  H  7989  7998       L1    13  0.22

> <Gold.Chemscore.Hbond.Weighted>
-11.2199

> <Gold.Chemscore.Metal.Weighted>
-0.0000

> <Gold.Chemscore.Lipo.Weighted>
-8.1486

> <Gold.Chemscore.Internal_Hbond.Weighted>
0.0000

> <Gold.Chemscore.DEClash.Weighted>
0.2655

> <Gold.Chemscore.DEInternal.Weighted>
1.4863

> <Gold.Chemscore.Rot.Weighted>
5.0682

> <Gold.Chemscore.Internal.Correction.Weighted>
   9.000000E+99

> <Gold.Protein.RotatedTorsions>
[ 6907 6896 6895 6894 ] final  -52.08 input  -60.11 | X-H torsion
[ 7974 7965 7964 7962 ] final   -4.09 input  175.53 | X-H torsion
[ 8008 7997 7996 7995 ] final -155.43 input   59.86 | X-H torsion
[ 10167 10162 10161 10158 ] final -141.34 input  -65.29 | X-H torsion
[ 10718 10713 10712 10709 ] final   39.53 input   66.30 | X-H torsion
[ 10763 10752 10751 10750 ] final   42.16 input  -60.55 | X-H torsion
[ 11005 11000 10999 10996 ] final   43.25 input  -57.11 | X-H torsion

> <Gold.Protein.ActiveResidues>
 VAL166  LYS551  ARG553  GLY616  TRP617  ASP618  TYR619  PRO620  LYS621  CYS622 
 ASP623  PHE694  ASN695  SER759  ASP760  ASP761  ALA762  ILE779  LEU786  VAL792 
 PHE793  MET794  SER795  GLU796  ALA797  LYS798  CYS799  TRP800  GLU811  SER814 

> <Gold.Protein.RotatedAtoms>
  150.8551  134.7887  159.7038 H   0  0  0  0  0  0  0  0  0  0  0  0  # atno 6907 bound_to 6896
  152.4605  134.5192  159.9787 H   0  0  0  0  0  0  0  0  0  0  0  0  # atno 6908 bound_to 6896
  151.5306  133.3412  159.2953 H   0  0  0  0  0  0  0  0  0  0  0  0  # atno 6909 bound_to 6896
  146.2378  140.1819  142.8332 H   0  0  0  0  0  0  0  0  0  0  0  0  # atno 7974 bound_to 7965
  155.7017  140.0767  157.2407 H   0  0  0  0  0  0  0  0  0  0  0  0  # atno 8008 bound_to 7997
  154.4072  140.1646  156.2251 H   0  0  0  0  0  0  0  0  0  0  0  0  # atno 8009 bound_to 7997
  155.9362  140.3388  155.6292 H   0  0  0  0  0  0  0  0  0  0  0  0  # atno 8010 bound_to 7997
  139.8194  143.7594  152.2666 H   0  0  0  0  0  0  0  0  0  0  0  0  # atno 10167 bound_to 10162
  157.3717  130.7704  149.7124 H   0  0  0  0  0  0  0  0  0  0  0  0  # atno 10718 bound_to 10713
  152.9890  135.6140  154.2904 H   0  0  0  0  0  0  0  0  0  0  0  0  # atno 10763 bound_to 10752
  154.2630  135.2782  155.2772 H   0  0  0  0  0  0  0  0  0  0  0  0  # atno 10764 bound_to 10752
  154.5189  135.5820  153.6722 H   0  0  0  0  0  0  0  0  0  0  0  0  # atno 10765 bound_to 10752
  140.1662  134.4279  155.8285 H   0  0  0  0  0  0  0  0  0  0  0  0  # atno 11005 bound_to 11000
  144.9927  140.8562  143.5329 LP  0  0  0  0  0  0  0  0  0  0  0  0  # atno 17320 bound_to 7965
  145.1827  139.2343  143.5284 LP  0  0  0  0  0  0  0  0  0  0  0  0  # atno 17321 bound_to 7965
  139.7768  144.7458  151.0146 LP  0  0  0  0  0  0  0  0  0  0  0  0  # atno 17342 bound_to 10162
  140.7814  143.4585  151.0311 LP  0  0  0  0  0  0  0  0  0  0  0  0  # atno 17343 bound_to 10162
  155.9757  130.4086  150.3832 LP  0  0  0  0  0  0  0  0  0  0  0  0  # atno 17370 bound_to 10713
  157.1924  131.0418  151.2693 LP  0  0  0  0  0  0  0  0  0  0  0  0  # atno 17371 bound_to 10713
  141.2214  133.6935  156.7683 LP  0  0  0  0  0  0  0  0  0  0  0  0  # atno 17394 bound_to 11000
  140.2431  134.8598  157.3593 LP  0  0  0  0  0  0  0  0  0  0  0  0  # atno 17395 bound_to 11000

$$$$
