AV-unprocessed.smi:1703|AV-procd|sdf|6865|dock7
  -GOLD-   22720 8 63D 1   1.00000     0.00000
 Structure written by MMmdl.
 49 51  0  0  0  0  0  0  0  0  2 V2000
  146.0508  134.0579  154.6501 C   0  0  0  0  0  0  0  0  0  0  0  0
  146.3531  134.7642  153.3241 C   0  0  2  0  0  0  0  0  0  0  0  0
  146.3233  136.2982  153.4613 C   0  0  0  0  0  0  0  0  0  0  0  0
  146.5499  136.9376  152.1422 N   0  3  2  0  0  0  0  0  0  0  0  0
  146.6041  138.4213  152.1960 C   0  0  0  0  0  0  0  0  0  0  0  0
  147.2072  138.9415  153.5156 C   0  0  1  0  0  0  0  0  0  0  0  0
  148.5577  138.5256  153.5918 O   0  0  0  0  0  0  0  0  0  0  0  0
  147.1334  140.4788  153.6121 C   0  0  0  0  0  0  0  0  0  0  0  0
  147.3851  140.9717  154.9601 N   0  0  0  0  0  0  0  0  0  0  0  0
  146.4798  141.2802  155.9229 C   0  0  0  0  0  0  0  0  0  0  0  0
  145.0033  141.1545  155.7040 C   0  0  0  0  0  0  0  0  0  0  0  0
  144.5379  141.9685  154.6492 O   0  0  0  0  0  0  0  0  0  0  0  0
  146.9858  141.7082  157.0798 N   0  0  0  0  0  0  0  0  0  0  0  0
  148.3465  141.6798  156.8458 C   0  0  0  0  0  0  0  0  0  0  0  0
  149.4300  142.0182  157.6877 C   0  0  0  0  0  0  0  0  0  0  0  0
  150.7568  141.9057  157.2234 C   0  0  0  0  0  0  0  0  0  0  0  0
  151.0189  141.4561  155.9131 C   0  0  0  0  0  0  0  0  0  0  0  0
  149.9541  141.1150  155.0574 C   0  0  0  0  0  0  0  0  0  0  0  0
  148.6310  141.2263  155.5265 C   0  0  0  0  0  0  0  0  0  0  0  0
  145.5667  136.4376  151.1526 C   0  0  0  0  0  0  0  0  0  0  0  0
  145.6125  134.8994  151.0771 C   0  0  2  0  0  0  0  0  0  0  0  0
  144.5558  134.3350  150.1213 C   0  0  0  0  0  0  0  0  0  0  0  0
  145.3718  134.3632  152.3737 O   0  0  0  0  0  0  0  0  0  0  0  0
  146.7795  134.3284  155.4147 H   0  0  0  0  0  0  0  0  0  0  0  0
  146.0823  132.9746  154.5304 H   0  0  0  0  0  0  0  0  0  0  0  0
  145.0607  134.3228  155.0225 H   0  0  0  0  0  0  0  0  0  0  0  0
  147.3386  134.4459  152.9788 H   0  0  0  0  0  0  0  0  0  0  0  0
  145.3616  136.6219  153.8632 H   0  0  0  0  0  0  0  0  0  0  0  0
  147.0873  136.6111  154.1724 H   0  0  0  0  0  0  0  0  0  0  0  0
  147.2084  138.7961  151.3682 H   0  0  0  0  0  0  0  0  0  0  0  0
  145.6013  138.8248  152.0463 H   0  0  0  0  0  0  0  0  0  0  0  0
  146.6773  138.5135  154.3654 H   0  0  0  0  0  0  0  0  0  0  0  0
  148.6862  137.8019  152.9975 H   0  0  0  0  0  0  0  0  0  0  0  0
  147.8570  140.9362  152.9359 H   0  0  0  0  0  0  0  0  0  0  0  0
  146.1556  140.8316  153.2844 H   0  0  0  0  0  0  0  0  0  0  0  0
  144.7453  140.1154  155.5016 H   0  0  0  0  0  0  0  0  0  0  0  0
  144.4787  141.4357  156.6177 H   0  0  0  0  0  0  0  0  0  0  0  0
  144.3219  141.4143  153.9149 H   0  0  0  0  0  0  0  0  0  0  0  0
  149.2395  142.3645  158.6925 H   0  0  0  0  0  0  0  0  0  0  0  0
  151.5771  142.1660  157.8759 H   0  0  0  0  0  0  0  0  0  0  0  0
  152.0382  141.3734  155.5656 H   0  0  0  0  0  0  0  0  0  0  0  0
  150.1535  140.7697  154.0541 H   0  0  0  0  0  0  0  0  0  0  0  0
  144.5667  136.7750  151.4308 H   0  0  0  0  0  0  0  0  0  0  0  0
  145.7867  136.8582  150.1704 H   0  0  0  0  0  0  0  0  0  0  0  0
  146.5969  134.5769  150.7330 H   0  0  0  0  0  0  0  0  0  0  0  0
  144.6989  134.7145  149.1094 H   0  0  0  0  0  0  0  0  0  0  0  0
  143.5487  134.6044  150.4410 H   0  0  0  0  0  0  0  0  0  0  0  0
  144.6111  133.2469  150.0779 H   0  0  0  0  0  0  0  0  0  0  0  0
  147.4572  136.6339  151.8174 H   0  0  0  0  0  0  0  0  0  0  0  0
  1  2  1  0  0  0  0
  1 24  1  0  0  0  0
  1 25  1  0  0  0  0
  1 26  1  0  0  0  0
  2 23  1  0  0  0  0
  2  3  1  0  0  0  0
  2 27  1  0  0  0  0
  3  4  1  0  0  0  0
  3 28  1  0  0  0  0
  3 29  1  0  0  0  0
  4  5  1  0  0  0  0
  4 20  1  0  0  0  0
  4 49  1  0  0  0  0
  5  6  1  0  0  0  0
  5 30  1  0  0  0  0
  5 31  1  0  0  0  0
  6  7  1  0  0  0  0
  6  8  1  0  0  0  0
  6 32  1  0  0  0  0
  7 33  1  0  0  0  0
  8  9  1  0  0  0  0
  8 34  1  0  0  0  0
  8 35  1  0  0  0  0
  9 19  1  0  0  0  0
  9 10  1  0  0  0  0
 10 11  1  0  0  0  0
 10 13  2  0  0  0  0
 11 12  1  0  0  0  0
 11 36  1  0  0  0  0
 11 37  1  0  0  0  0
 12 38  1  0  0  0  0
 13 14  1  0  0  0  0
 14 19  2  0  0  0  0
 14 15  1  0  0  0  0
 15 16  2  0  0  0  0
 15 39  1  0  0  0  0
 16 17  1  0  0  0  0
 16 40  1  0  0  0  0
 17 18  2  0  0  0  0
 17 41  1  0  0  0  0
 18 19  1  0  0  0  0
 18 42  1  0  0  0  0
 20 21  1  0  0  0  0
 20 43  1  0  0  0  0
 20 44  1  0  0  0  0
 21 22  1  0  0  0  0
 21 23  1  0  0  0  0
 21 45  1  0  0  0  0
 22 46  1  0  0  0  0
 22 47  1  0  0  0  0
 22 48  1  0  0  0  0
M  CHG  1   4   1
M  END
> <s_m_source_file>
AV-unprocessed.smi

> <i_m_source_file_index>
1703

> <i_lp_mmshare_version>
43012

> <i_f3d_flags>
0

> <s_epik_input>
W0NIM11bQ0BASF0xW0NIMl1OKFtDSDJdW0NASF0oTzEpW0NIM10pW0NIMl1bQ0BIXShbT0hdKVtDSDJdbihjKG4yKVtDSDJdW09IXSljKGMyMylbY0hdW2NIXVtjSF1bY0hdMw==

> <s_epik_cmdline>
J2VwaWtfcHl0aG9uJywgJy1waCcsICc3LjAnLCAnLXRuJywgJzgnLCAnLW1hJywgJzIwMCcsICctbWV0YWxfYmluZGluZycsICctaW1hZScsICc8aW5maWxlLm1hZT4nLCAnLW9tYWUnLCAnPG91dGZpbGUubWFlPic=

> <r_epik_Ionization_Penalty>
0.655661

> <r_epik_Ionization_Penalty_Charging>
0.608065

> <r_epik_Ionization_Penalty_Neutral>
0.0475963

> <r_epik_State_Penalty>
0.695267

> <r_epik_Charging_Adjusted_Penalty>
1.30333

> <i_epik_Tot_Q>
1

> <i_epik_Tot_abs_Q>
1

> <r_epik_Metal_State_Penalty>
0.653591

> <b_epik_Metal_Only>
0

> <s_lp_Force_Field>
OPLS_2005

> <r_lp_Energy>
21.6457

> <b_lp_Chiralities_Consistent>
1

> <s_lp_Variant>
AV-unprocessed.smi:1703-13

> <Gold.Version>
5.8.1

> <Gold.Id.Protein>
6NUR|6NUR_protein|mol2

> <Gold.PLP.Fitness>
43.7985

> <Gold.PLP.PLP>
-33.1709

> <Gold.PLP.part.hbond>
-4.3057

> <Gold.PLP.part.metal>
0.0000

> <Gold.PLP.part.buried>
-0.5604

> <Gold.PLP.part.nonpolar>
-27.3146

> <Gold.PLP.part.repulsive>
0.2235

> <Gold.PLP.ligand.clash>
0.0000

> <Gold.PLP.ligand.torsion>
0.7158

> <Gold.PLP.Chemscore.Hbond>
4.0000

> <Gold.PLP.Chemscore.CHOScore>
0.0000

> <Gold.PLP.Chemscore.Metal>
0.0000

> <Gold.Chemscore.Hbonds>
donor molecule, donor type, donor heavy atom, donor atom, acceptor molecule, acceptor atom, score
      L1  H     4    49       P1  7948  1.98
      L1  H     7    33       P1  7948  1.00
      L1  H    12    38       P1 10175  1.00

> <Gold.PLP.Chemscore.Internal.Correction>
0.0593

> <Gold.Rescore>
     Score         DG    S(hbond)    S(metal)    S(lipo)     H(rot)  DE(clash)    DE(int)     intcor
     15.99     -16.87       2.91        0.00      79.17       2.96       0.16       0.72       ----

> <Gold.Chemscore.Fitness>
15.9936

> <Gold.Chemscore.DG>
-16.8731

> <Gold.Chemscore.ZeroCoef>
-5.4800

> <Gold.Chemscore.Hbond>
2.9073

> <Gold.Chemscore.Metal>
0.0000

> <Gold.Chemscore.Lipo>
79.1720

> <Gold.Chemscore.Internal_Hbond>
0.0000

> <Gold.Chemscore.DEClash>
0.1566

> <Gold.Chemscore.DEInternal>
0.7229

> <Gold.Chemscore.Rot>
2.9611

> <Gold.Chemscore.Internal.Correction>
   9.000000E+99

> <Gold.Chemscore.Hbonds>
donor molecule, donor type, donor heavy atom, donor atom, acceptor molecule, acceptor atom, score
      L1  H     4    49       P1  7948  0.92
      L1  H     7    33       P1  7948  0.99
      L1  H    12    38       P1 10175  0.26

> <Gold.Chemscore.Hbond.Weighted>
-9.7103

> <Gold.Chemscore.Metal.Weighted>
-0.0000

> <Gold.Chemscore.Lipo.Weighted>
-9.2631

> <Gold.Chemscore.Internal_Hbond.Weighted>
0.0000

> <Gold.Chemscore.DEClash.Weighted>
0.1566

> <Gold.Chemscore.DEInternal.Weighted>
0.7229

> <Gold.Chemscore.Rot.Weighted>
7.5803

> <Gold.Chemscore.Internal.Correction.Weighted>
   9.000000E+99

> <Gold.Protein.RotatedTorsions>
[ 6907 6896 6895 6894 ] final  114.84 input  -60.11 | X-H torsion
[ 7974 7965 7964 7962 ] final   64.19 input  175.53 | X-H torsion
[ 8008 7997 7996 7995 ] final  171.99 input   59.86 | X-H torsion
[ 10167 10162 10161 10158 ] final   25.22 input  -65.29 | X-H torsion
[ 10718 10713 10712 10709 ] final -170.16 input   66.30 | X-H torsion
[ 10763 10752 10751 10750 ] final    6.89 input  -60.55 | X-H torsion
[ 11005 11000 10999 10996 ] final -158.86 input  -57.11 | X-H torsion

> <Gold.Protein.ActiveResidues>
 VAL166  LYS551  ARG553  GLY616  TRP617  ASP618  TYR619  PRO620  LYS621  CYS622 
 ASP623  PHE694  ASN695  SER759  ASP760  ASP761  ALA762  ILE779  LEU786  VAL792 
 PHE793  MET794  SER795  GLU796  ALA797  LYS798  CYS799  TRP800  GLU811  SER814 

> <Gold.Protein.RotatedAtoms>
  152.4778  133.8180  159.7038 H   0  0  0  0  0  0  0  0  0  0  0  0  # atno 6907 bound_to 6896
  150.8807  133.7367  159.2939 H   0  0  0  0  0  0  0  0  0  0  0  0  # atno 6908 bound_to 6896
  151.4872  135.1059  159.9846 H   0  0  0  0  0  0  0  0  0  0  0  0  # atno 6909 bound_to 6896
  145.8531  139.3266  143.0863 H   0  0  0  0  0  0  0  0  0  0  0  0  # atno 7974 bound_to 7965
  156.1218  140.1497  156.9194 H   0  0  0  0  0  0  0  0  0  0  0  0  # atno 8008 bound_to 7997
  154.4841  140.0870  156.7488 H   0  0  0  0  0  0  0  0  0  0  0  0  # atno 8009 bound_to 7997
  155.4415  140.3431  155.4292 H   0  0  0  0  0  0  0  0  0  0  0  0  # atno 8010 bound_to 7997
  140.5124  144.0138  150.6379 H   0  0  0  0  0  0  0  0  0  0  0  0  # atno 10167 bound_to 10162
  156.7221  130.9274  151.3098 H   0  0  0  0  0  0  0  0  0  0  0  0  # atno 10718 bound_to 10713
  153.2425  135.6905  153.7767 H   0  0  0  0  0  0  0  0  0  0  0  0  # atno 10763 bound_to 10752
  153.6892  135.3315  155.3198 H   0  0  0  0  0  0  0  0  0  0  0  0  # atno 10764 bound_to 10752
  154.8361  135.4541  154.1352 H   0  0  0  0  0  0  0  0  0  0  0  0  # atno 10765 bound_to 10752
  140.6489  134.4471  157.5235 H   0  0  0  0  0  0  0  0  0  0  0  0  # atno 11005 bound_to 11000
  145.9335  140.9031  143.0344 LP  0  0  0  0  0  0  0  0  0  0  0  0  # atno 17320 bound_to 7965
  144.6728  140.1450  143.7434 LP  0  0  0  0  0  0  0  0  0  0  0  0  # atno 17321 bound_to 7965
  140.3464  143.2989  152.0533 LP  0  0  0  0  0  0  0  0  0  0  0  0  # atno 17342 bound_to 10162
  139.4900  144.6405  151.6886 LP  0  0  0  0  0  0  0  0  0  0  0  0  # atno 17343 bound_to 10162
  157.6894  130.9218  150.0472 LP  0  0  0  0  0  0  0  0  0  0  0  0  # atno 17370 bound_to 10713
  156.1587  130.3643  149.9331 LP  0  0  0  0  0  0  0  0  0  0  0  0  # atno 17371 bound_to 10713
  139.9053  134.8463  156.1732 LP  0  0  0  0  0  0  0  0  0  0  0  0  # atno 17394 bound_to 11000
  141.0551  133.6869  156.1846 LP  0  0  0  0  0  0  0  0  0  0  0  0  # atno 17395 bound_to 11000

$$$$
