AV-unprocessed.smi:2027|AV-procd|sdf|8214|dock2
  -GOLD-   2272010473D 1   1.00000     0.00000
 Structure written by MMmdl.
 50 52  0  0  0  0  0  0  0  0  2 V2000
  152.8256  142.7273  159.9826 C   0  0  0  0  0  0  0  0  0  0  0  0
  152.0936  142.1000  158.8092 C   0  0  0  0  0  0  0  0  0  0  0  0
  151.7968  140.7189  158.8435 C   0  0  0  0  0  0  0  0  0  0  0  0
  151.1152  140.0976  157.7742 C   0  0  0  0  0  0  0  0  0  0  0  0
  150.7240  138.7810  157.6015 N   0  0  0  0  0  0  0  0  0  0  0  0
  150.1334  138.8306  156.4112 C   0  0  0  0  0  0  0  0  0  0  0  0
  150.0950  140.0255  155.7909 N   0  0  0  0  0  0  0  0  0  0  0  0
  149.5047  140.3195  154.4974 C   0  0  0  0  0  0  0  0  0  0  0  0
  148.3943  141.3846  154.5824 C   0  0  1  0  0  0  0  0  0  0  0  0
  148.9181  142.6461  154.2102 O   0  0  0  0  0  0  0  0  0  0  0  0
  147.2114  141.0529  153.6545 C   0  0  0  0  0  0  0  0  0  0  0  0
  145.9978  141.8370  154.0073 N   0  3  2  0  0  0  0  0  0  0  0  0
  146.0427  143.2226  153.4861 C   0  0  0  0  0  0  0  0  0  0  0  0
  145.6597  141.7939  155.4518 C   0  0  0  0  0  0  0  0  0  0  0  0
  144.6143  142.8216  155.7959 C   0  0  0  0  0  0  0  0  0  0  0  0
  143.2965  142.9422  155.2681 C   0  0  0  0  0  0  0  0  0  0  0  0
  142.6348  143.9728  155.7667 N   0  0  0  0  0  0  0  0  0  0  0  0
  143.4974  144.5379  156.6360 N   0  0  0  0  0  0  0  0  0  0  0  0
  143.0972  145.7159  157.3754 C   0  0  0  0  0  0  0  0  0  0  0  0
  144.6978  143.8624  156.6781 C   0  0  0  0  0  0  0  0  0  0  0  0
  150.7378  140.9018  156.6594 C   0  0  0  0  0  0  0  0  0  0  0  0
  151.0288  142.2769  156.6128 C   0  0  0  0  0  0  0  0  0  0  0  0
  151.7078  142.8821  157.6910 C   0  0  0  0  0  0  0  0  0  0  0  0
  152.0130  144.3685  157.6339 C   0  0  0  0  0  0  0  0  0  0  0  0
  153.0686  141.9848  160.7431 H   0  0  0  0  0  0  0  0  0  0  0  0
  152.2097  143.4960  160.4500 H   0  0  0  0  0  0  0  0  0  0  0  0
  153.7590  143.1835  159.6519 H   0  0  0  0  0  0  0  0  0  0  0  0
  152.0896  140.1230  159.6955 H   0  0  0  0  0  0  0  0  0  0  0  0
  149.7017  137.9471  155.9640 H   0  0  0  0  0  0  0  0  0  0  0  0
  150.2961  140.6423  153.8194 H   0  0  0  0  0  0  0  0  0  0  0  0
  149.1047  139.3916  154.0866 H   0  0  0  0  0  0  0  0  0  0  0  0
  148.0512  141.4522  155.6152 H   0  0  0  0  0  0  0  0  0  0  0  0
  148.7804  143.2546  154.9206 H   0  0  0  0  0  0  0  0  0  0  0  0
  147.5179  141.2466  152.6264 H   0  0  0  0  0  0  0  0  0  0  0  0
  146.9788  139.9877  153.6939 H   0  0  0  0  0  0  0  0  0  0  0  0
  146.8289  143.7986  153.9760 H   0  0  0  0  0  0  0  0  0  0  0  0
  145.0925  143.7299  153.6569 H   0  0  0  0  0  0  0  0  0  0  0  0
  146.2298  143.2344  152.4125 H   0  0  0  0  0  0  0  0  0  0  0  0
  145.3363  140.7861  155.7166 H   0  0  0  0  0  0  0  0  0  0  0  0
  146.5610  141.9826  156.0366 H   0  0  0  0  0  0  0  0  0  0  0  0
  142.8082  142.3194  154.5328 H   0  0  0  0  0  0  0  0  0  0  0  0
  143.8151  145.9201  158.1704 H   0  0  0  0  0  0  0  0  0  0  0  0
  142.1133  145.5610  157.8197 H   0  0  0  0  0  0  0  0  0  0  0  0
  143.0563  146.5741  156.7044 H   0  0  0  0  0  0  0  0  0  0  0  0
  145.5070  144.1801  157.3194 H   0  0  0  0  0  0  0  0  0  0  0  0
  150.7294  142.8619  155.7561 H   0  0  0  0  0  0  0  0  0  0  0  0
  151.6480  144.8148  156.7084 H   0  0  0  0  0  0  0  0  0  0  0  0
  153.0882  144.5405  157.6866 H   0  0  0  0  0  0  0  0  0  0  0  0
  151.5374  144.8882  158.4660 H   0  0  0  0  0  0  0  0  0  0  0  0
  145.2277  141.3819  153.5375 H   0  0  0  0  0  0  0  0  0  0  0  0
  1  2  1  0  0  0  0
  1 25  1  0  0  0  0
  1 26  1  0  0  0  0
  1 27  1  0  0  0  0
  2 23  1  0  0  0  0
  2  3  2  0  0  0  0
  3  4  1  0  0  0  0
  3 28  1  0  0  0  0
  4 21  2  0  0  0  0
  4  5  1  0  0  0  0
  5  6  2  0  0  0  0
  6  7  1  0  0  0  0
  6 29  1  0  0  0  0
  7  8  1  0  0  0  0
  7 21  1  0  0  0  0
  8  9  1  0  0  0  0
  8 30  1  0  0  0  0
  8 31  1  0  0  0  0
  9 10  1  0  0  0  0
  9 11  1  0  0  0  0
  9 32  1  0  0  0  0
 10 33  1  0  0  0  0
 11 12  1  0  0  0  0
 11 34  1  0  0  0  0
 11 35  1  0  0  0  0
 12 13  1  0  0  0  0
 12 14  1  0  0  0  0
 12 50  1  0  0  0  0
 13 36  1  0  0  0  0
 13 37  1  0  0  0  0
 13 38  1  0  0  0  0
 14 15  1  0  0  0  0
 14 39  1  0  0  0  0
 14 40  1  0  0  0  0
 15 20  2  0  0  0  0
 15 16  1  0  0  0  0
 16 17  2  0  0  0  0
 16 41  1  0  0  0  0
 17 18  1  0  0  0  0
 18 19  1  0  0  0  0
 18 20  1  0  0  0  0
 19 42  1  0  0  0  0
 19 43  1  0  0  0  0
 19 44  1  0  0  0  0
 20 45  1  0  0  0  0
 21 22  1  0  0  0  0
 22 23  2  0  0  0  0
 22 46  1  0  0  0  0
 23 24  1  0  0  0  0
 24 47  1  0  0  0  0
 24 48  1  0  0  0  0
 24 49  1  0  0  0  0
M  CHG  1  12   1
M  END
> <s_m_source_file>
AV-unprocessed.smi

> <i_m_source_file_index>
2027

> <i_lp_mmshare_version>
43012

> <i_f3d_flags>
0

> <s_epik_input>
W0NIM11jKFtjSF0xKWMoW0NIM10pW2NIXWMoYzEyKW4oW2NIXW4yKVtDSDJdW0NASF0oW09IXSlbQ0gyXU4oW0NIM10pW0NIMl1jM1tjSF1ubihbQ0gzXSlbY0hdMw==

> <s_epik_cmdline>
J2VwaWtfcHl0aG9uJywgJy1waCcsICc3LjAnLCAnLXRuJywgJzgnLCAnLW1hJywgJzIwMCcsICctbWV0YWxfYmluZGluZycsICctaW1hZScsICc8aW5maWxlLm1hZT4nLCAnLW9tYWUnLCAnPG91dGZpbGUubWFlPic=

> <r_lp_tautomer_probability>
1

> <r_epik_Ionization_Penalty>
0.646578

> <r_epik_Ionization_Penalty_Charging>
0.559419

> <r_epik_Ionization_Penalty_Neutral>
0.087159

> <r_epik_State_Penalty>
0.661677

> <r_epik_Charging_Adjusted_Penalty>
1.2211

> <i_epik_Tot_Q>
1

> <i_epik_Tot_abs_Q>
1

> <r_epik_Metal_State_Penalty>
0.649174

> <b_epik_Metal_Only>
0

> <s_lp_Force_Field>
OPLS_2005

> <r_lp_Energy>
10.2185

> <b_lp_Chiralities_Consistent>
1

> <s_lp_Variant>
AV-unprocessed.smi:2027-6

> <Gold.Version>
5.8.1

> <Gold.Id.Protein>
6NUR|6NUR_protein|mol2

> <Gold.PLP.Fitness>
54.1689

> <Gold.PLP.PLP>
-43.7223

> <Gold.PLP.part.hbond>
-3.2462

> <Gold.PLP.part.metal>
0.0000

> <Gold.PLP.part.buried>
-5.7225

> <Gold.PLP.part.nonpolar>
-35.1059

> <Gold.PLP.part.repulsive>
0.0907

> <Gold.PLP.ligand.clash>
0.1705

> <Gold.PLP.ligand.torsion>
0.9286

> <Gold.PLP.Chemscore.Hbond>
3.0271

> <Gold.PLP.Chemscore.CHOScore>
1.0651

> <Gold.PLP.Chemscore.Metal>
0.0000

> <Gold.Chemscore.Hbonds>
donor molecule, donor type, donor heavy atom, donor atom, acceptor molecule, acceptor atom, score
      L1  H    10    33       P1  8028  1.00
      L1  H    12    50       P1 10175  1.76
      P1  H  8011  8017       L1    10  0.04
      L1  C    16    41       P1 10174  1.00
      L1  C    16    41       P1 10175  0.03
      L1  C    20    45       P1  8029  0.02

> <Gold.PLP.Chemscore.Internal.Correction>
0.1977

> <Gold.Rescore>
     Score         DG    S(hbond)    S(metal)    S(lipo)     H(rot)  DE(clash)    DE(int)     intcor
     17.47     -18.50       2.04        0.00     107.81       2.50       0.00       1.03       ----

> <Gold.Chemscore.Fitness>
17.4746

> <Gold.Chemscore.DG>
-18.5048

> <Gold.Chemscore.ZeroCoef>
-5.4800

> <Gold.Chemscore.Hbond>
2.0428

> <Gold.Chemscore.Metal>
0.0000

> <Gold.Chemscore.Lipo>
107.8112

> <Gold.Chemscore.Internal_Hbond>
0.0000

> <Gold.Chemscore.DEClash>
0.0009

> <Gold.Chemscore.DEInternal>
1.0293

> <Gold.Chemscore.Rot>
2.5047

> <Gold.Chemscore.Internal.Correction>
   9.000000E+99

> <Gold.Chemscore.Hbonds>
donor molecule, donor type, donor heavy atom, donor atom, acceptor molecule, acceptor atom, score
      L1  H    10    33       P1  8028  0.96
      L1  H    12    50       P1 10175  0.19
      P1  H  8011  8017       L1    10  0.05

> <Gold.Chemscore.Hbond.Weighted>
-6.8229

> <Gold.Chemscore.Metal.Weighted>
-0.0000

> <Gold.Chemscore.Lipo.Weighted>
-12.6139

> <Gold.Chemscore.Internal_Hbond.Weighted>
0.0000

> <Gold.Chemscore.DEClash.Weighted>
0.0009

> <Gold.Chemscore.DEInternal.Weighted>
1.0293

> <Gold.Chemscore.Rot.Weighted>
6.4120

> <Gold.Chemscore.Internal.Correction.Weighted>
   9.000000E+99

> <Gold.Protein.RotatedTorsions>
[ 6907 6896 6895 6894 ] final   29.67 input  -60.11 | X-H torsion
[ 7974 7965 7964 7962 ] final -134.18 input  175.53 | X-H torsion
[ 8008 7997 7996 7995 ] final -157.86 input   59.86 | X-H torsion
[ 10167 10162 10161 10158 ] final  152.48 input  -65.29 | X-H torsion
[ 10718 10713 10712 10709 ] final  -93.92 input   66.30 | X-H torsion
[ 10763 10752 10751 10750 ] final   86.50 input  -60.55 | X-H torsion
[ 11005 11000 10999 10996 ] final -143.29 input  -57.11 | X-H torsion

> <Gold.Protein.ActiveResidues>
 VAL166  LYS551  ARG553  GLY616  TRP617  ASP618  TYR619  PRO620  LYS621  CYS622 
 ASP623  PHE694  ASN695  SER759  ASP760  ASP761  ALA762  ILE779  LEU786  VAL792 
 PHE793  MET794  SER795  GLU796  ALA797  LYS798  CYS799  TRP800  GLU811  SER814 

> <Gold.Protein.RotatedAtoms>
  152.0349  134.9746  160.0572 H   0  0  0  0  0  0  0  0  0  0  0  0  # atno 6907 bound_to 6896
  152.1208  133.4347  159.4683 H   0  0  0  0  0  0  0  0  0  0  0  0  # atno 6908 bound_to 6896
  150.6849  134.2456  159.4533 H   0  0  0  0  0  0  0  0  0  0  0  0  # atno 6909 bound_to 6896
  144.9126  140.6914  143.5015 H   0  0  0  0  0  0  0  0  0  0  0  0  # atno 7974 bound_to 7965
  155.7388  140.0811  157.2255 H   0  0  0  0  0  0  0  0  0  0  0  0  # atno 8008 bound_to 7997
  154.4024  140.1582  156.2647 H   0  0  0  0  0  0  0  0  0  0  0  0  # atno 8009 bound_to 7997
  155.9040  140.3408  155.6051 H   0  0  0  0  0  0  0  0  0  0  0  0  # atno 8010 bound_to 7997
  139.4833  144.5354  151.7653 H   0  0  0  0  0  0  0  0  0  0  0  0  # atno 10167 bound_to 10162
  156.0020  130.5046  150.5849 H   0  0  0  0  0  0  0  0  0  0  0  0  # atno 10718 bound_to 10713
  153.1576  135.4578  154.9727 H   0  0  0  0  0  0  0  0  0  0  0  0  # atno 10763 bound_to 10752
  154.7873  135.3208  154.7859 H   0  0  0  0  0  0  0  0  0  0  0  0  # atno 10764 bound_to 10752
  153.8354  135.6935  153.4864 H   0  0  0  0  0  0  0  0  0  0  0  0  # atno 10765 bound_to 10752
  140.8140  134.2710  157.4929 H   0  0  0  0  0  0  0  0  0  0  0  0  # atno 11005 bound_to 11000
  145.3429  139.1727  143.4476 LP  0  0  0  0  0  0  0  0  0  0  0  0  # atno 17320 bound_to 7965
  146.3166  140.3472  142.8653 LP  0  0  0  0  0  0  0  0  0  0  0  0  # atno 17321 bound_to 7965
  140.4886  144.1343  150.5946 LP  0  0  0  0  0  0  0  0  0  0  0  0  # atno 17342 bound_to 10162
  140.4196  143.2618  151.9731 LP  0  0  0  0  0  0  0  0  0  0  0  0  # atno 17343 bound_to 10162
  157.3723  131.0767  151.1547 LP  0  0  0  0  0  0  0  0  0  0  0  0  # atno 17370 bound_to 10713
  157.2296  130.6519  149.5844 LP  0  0  0  0  0  0  0  0  0  0  0  0  # atno 17371 bound_to 10713
  139.8712  134.9499  156.4039 LP  0  0  0  0  0  0  0  0  0  0  0  0  # atno 17394 bound_to 11000
  140.9168  133.7673  155.9858 LP  0  0  0  0  0  0  0  0  0  0  0  0  # atno 17395 bound_to 11000

$$$$
