AV-unprocessed.smi:2663|AV-procd|sdf|10325|dock9
  -GOLD-   2272014343D 1   1.00000     0.00000
 Structure written by MMmdl.
 38 39  0  0  0  0  0  0  0  0  2 V2000
  150.2425  140.0601  157.0102 C   0  0  0  0  0  0  0  0  0  0  0  0
  151.4872  139.4652  157.7182 C   0  0  2  0  0  0  0  0  0  0  0  0
  152.3483  138.7147  156.6603 C   0  0  0  0  0  0  0  0  0  0  0  0
  152.8285  139.5754  155.6459 O   0  0  0  0  0  0  0  0  0  0  0  0
  151.0668  138.5153  158.7613 N   0  0  0  0  0  0  0  0  0  0  0  0
  150.2889  137.4235  158.6706 C   0  0  0  0  0  0  0  0  0  0  0  0
  149.8101  137.0803  157.5881 O   0  0  0  0  0  0  0  0  0  0  0  0
  150.1144  136.7916  159.8537 N   0  5  0  0  0  0  0  0  0  0  0  0
  148.8937  136.3609  160.2132 C   0  0  0  0  0  0  0  0  0  0  0  0
  147.9805  137.1749  160.7671 N   0  0  0  0  0  0  0  0  0  0  0  0
  146.7872  136.5323  161.0689 N   0  0  0  0  0  0  0  0  0  0  0  0
  146.8347  135.2412  160.7415 C   0  0  0  0  0  0  0  0  0  0  0  0
  148.3414  134.6926  160.0378 S   0  0  0  0  0  0  0  0  0  0  0  0
  152.3021  140.6059  158.4264 C   0  0  0  0  0  0  0  0  0  0  0  0
  153.2064  140.0991  159.5826 C   0  0  0  0  0  0  0  0  0  0  0  0
  154.0314  141.2306  160.2165 C   0  0  0  0  0  0  0  0  0  0  0  0
  153.1300  142.3642  160.7209 C   0  0  0  0  0  0  0  0  0  0  0  0
  152.2425  142.8940  159.5880 C   0  0  0  0  0  0  0  0  0  0  0  0
  151.4135  141.7654  158.9548 C   0  0  0  0  0  0  0  0  0  0  0  0
  150.5124  140.9117  156.3852 H   0  0  0  0  0  0  0  0  0  0  0  0
  149.4864  140.3953  157.7199 H   0  0  0  0  0  0  0  0  0  0  0  0
  149.7576  139.3337  156.3582 H   0  0  0  0  0  0  0  0  0  0  0  0
  153.1996  138.2177  157.1254 H   0  0  0  0  0  0  0  0  0  0  0  0
  151.7743  137.9265  156.1735 H   0  0  0  0  0  0  0  0  0  0  0  0
  152.5472  139.2368  154.8099 H   0  0  0  0  0  0  0  0  0  0  0  0
  151.4138  138.7208  159.6868 H   0  0  0  0  0  0  0  0  0  0  0  0
  145.9786  134.6076  160.9189 H   0  0  0  0  0  0  0  0  0  0  0  0
  152.9643  141.0451  157.6786 H   0  0  0  0  0  0  0  0  0  0  0  0
  152.6004  139.6219  160.3536 H   0  0  0  0  0  0  0  0  0  0  0  0
  153.9025  139.3411  159.2260 H   0  0  0  0  0  0  0  0  0  0  0  0
  154.6282  140.8380  161.0401 H   0  0  0  0  0  0  0  0  0  0  0  0
  154.7376  141.6228  159.4835 H   0  0  0  0  0  0  0  0  0  0  0  0
  152.5058  142.0015  161.5388 H   0  0  0  0  0  0  0  0  0  0  0  0
  153.7383  143.1722  161.1282 H   0  0  0  0  0  0  0  0  0  0  0  0
  151.5799  143.6714  159.9694 H   0  0  0  0  0  0  0  0  0  0  0  0
  152.8635  143.3638  158.8242 H   0  0  0  0  0  0  0  0  0  0  0  0
  150.8207  142.1974  158.1498 H   0  0  0  0  0  0  0  0  0  0  0  0
  150.7032  141.3919  159.6934 H   0  0  0  0  0  0  0  0  0  0  0  0
  1  2  1  0  0  0  0
  1 20  1  0  0  0  0
  1 21  1  0  0  0  0
  1 22  1  0  0  0  0
  2  3  1  0  0  0  0
  2  5  1  0  0  0  0
  2 14  1  0  0  0  0
  3  4  1  0  0  0  0
  3 23  1  0  0  0  0
  3 24  1  0  0  0  0
  4 25  1  0  0  0  0
  5  6  1  0  0  0  0
  5 26  1  0  0  0  0
  6  7  2  0  0  0  0
  6  8  1  0  0  0  0
  8  9  1  0  0  0  0
  9 13  1  0  0  0  0
  9 10  2  0  0  0  0
 10 11  1  0  0  0  0
 11 12  2  0  0  0  0
 12 13  1  0  0  0  0
 12 27  1  0  0  0  0
 14 19  1  0  0  0  0
 14 15  1  0  0  0  0
 14 28  1  0  0  0  0
 15 16  1  0  0  0  0
 15 29  1  0  0  0  0
 15 30  1  0  0  0  0
 16 17  1  0  0  0  0
 16 31  1  0  0  0  0
 16 32  1  0  0  0  0
 17 18  1  0  0  0  0
 17 33  1  0  0  0  0
 17 34  1  0  0  0  0
 18 19  1  0  0  0  0
 18 35  1  0  0  0  0
 18 36  1  0  0  0  0
 19 37  1  0  0  0  0
 19 38  1  0  0  0  0
M  CHG  1   8  -1
M  END
> <s_m_source_file>
AV-unprocessed.smi

> <i_m_source_file_index>
2663

> <i_lp_mmshare_version>
43012

> <i_f3d_flags>
0

> <s_epik_input>
W0NIMl0xW0NIMl1bQ0gyXVtDSDJdW0NIMl1bQ0hdMVtDQF0oW0NIM10pKFtDSDJdW09IXSlbTkhdQyg9TylbTkhdYzJubltjSF1zMg==

> <s_epik_cmdline>
J2VwaWtfcHl0aG9uJywgJy1waCcsICc3LjAnLCAnLXRuJywgJzgnLCAnLW1hJywgJzIwMCcsICctbWV0YWxfYmluZGluZycsICctaW1hZScsICc8aW5maWxlLm1hZT4nLCAnLW9tYWUnLCAnPG91dGZpbGUubWFlPic=

> <r_lp_tautomer_probability>
1

> <r_epik_Ionization_Penalty>
4.39194

> <r_epik_Ionization_Penalty_Charging>
4.34423

> <r_epik_Ionization_Penalty_Neutral>
0.047714

> <r_epik_State_Penalty>
4.34384

> <r_epik_Charging_Adjusted_Penalty>
8.68806

> <i_epik_Tot_Q>
-1

> <i_epik_Tot_abs_Q>
1

> <r_epik_Metal_State_Penalty>
0.746645

> <b_epik_Metal_Only>
1

> <s_lp_Force_Field>
OPLS_2005

> <r_lp_Energy>
18.1486

> <b_lp_Chiralities_Consistent>
1

> <s_lp_Variant>
AV-unprocessed.smi:2663-4

> <Gold.Version>
5.8.1

> <Gold.Id.Protein>
6NUR|6NUR_protein|mol2

> <Gold.PLP.Fitness>
40.8916

> <Gold.PLP.PLP>
-31.2656

> <Gold.PLP.part.hbond>
-4.1014

> <Gold.PLP.part.metal>
0.0000

> <Gold.PLP.part.buried>
-4.6870

> <Gold.PLP.part.nonpolar>
-23.4049

> <Gold.PLP.part.repulsive>
0.1365

> <Gold.PLP.ligand.clash>
0.0000

> <Gold.PLP.ligand.torsion>
1.9441

> <Gold.PLP.Chemscore.Hbond>
4.4816

> <Gold.PLP.Chemscore.CHOScore>
0.0000

> <Gold.PLP.Chemscore.Metal>
0.0000

> <Gold.Chemscore.Hbonds>
donor molecule, donor type, donor heavy atom, donor atom, acceptor molecule, acceptor atom, score
      P1  H  6896  6909       L1     8  1.80
      P1  H  6931  6943       L1    10  0.86
      P1  H  6934  6947       L1    10  0.58
      P1  H  7997  8010       L1     4  1.00

> <Gold.PLP.Chemscore.Internal.Correction>
0.0694

> <Gold.Rescore>
     Score         DG    S(hbond)    S(metal)    S(lipo)     H(rot)  DE(clash)    DE(int)     intcor
     14.09     -16.63       2.59        0.00      68.91       2.18       0.00       2.53       ----

> <Gold.Chemscore.Fitness>
14.0880

> <Gold.Chemscore.DG>
-16.6253

> <Gold.Chemscore.ZeroCoef>
-5.4800

> <Gold.Chemscore.Hbond>
2.5926

> <Gold.Chemscore.Metal>
0.0000

> <Gold.Chemscore.Lipo>
68.9101

> <Gold.Chemscore.Internal_Hbond>
0.0000

> <Gold.Chemscore.DEClash>
0.0029

> <Gold.Chemscore.DEInternal>
2.5345

> <Gold.Chemscore.Rot>
2.1783

> <Gold.Chemscore.Internal.Correction>
   9.000000E+99

> <Gold.Chemscore.Hbonds>
donor molecule, donor type, donor heavy atom, donor atom, acceptor molecule, acceptor atom, score
      P1  H  6896  6909       L1     8  0.13
      P1  H  6931  6943       L1    10  0.29
      P1  H  6934  6947       L1    10  0.07
      P1  H  7997  8010       L1     4  0.30

> <Gold.Chemscore.Hbond.Weighted>
-8.6593

> <Gold.Chemscore.Metal.Weighted>
-0.0000

> <Gold.Chemscore.Lipo.Weighted>
-8.0625

> <Gold.Chemscore.Internal_Hbond.Weighted>
0.0000

> <Gold.Chemscore.DEClash.Weighted>
0.0029

> <Gold.Chemscore.DEInternal.Weighted>
2.5345

> <Gold.Chemscore.Rot.Weighted>
5.5765

> <Gold.Chemscore.Internal.Correction.Weighted>
   9.000000E+99

> <Gold.Protein.RotatedTorsions>
[ 6907 6896 6895 6894 ] final   86.66 input  -60.11 | X-H torsion
[ 7974 7965 7964 7962 ] final   86.01 input  175.53 | X-H torsion
[ 8008 7997 7996 7995 ] final   75.17 input   59.86 | X-H torsion
[ 10167 10162 10161 10158 ] final   23.88 input  -65.29 | X-H torsion
[ 10718 10713 10712 10709 ] final  -29.21 input   66.30 | X-H torsion
[ 10763 10752 10751 10750 ] final -113.83 input  -60.55 | X-H torsion
[ 11005 11000 10999 10996 ] final -135.02 input  -57.11 | X-H torsion

> <Gold.Protein.ActiveResidues>
 VAL166  LYS551  ARG553  GLY616  TRP617  ASP618  TYR619  PRO620  LYS621  CYS622 
 ASP623  PHE694  ASN695  SER759  ASP760  ASP761  ALA762  ILE779  LEU786  VAL792 
 PHE793  MET794  SER795  GLU796  ALA797  LYS798  CYS799  TRP800  GLU811  SER814 

> <Gold.Protein.RotatedAtoms>
  152.5398  134.2397  159.8856 H   0  0  0  0  0  0  0  0  0  0  0  0  # atno 6907 bound_to 6896
  151.2365  133.4415  159.2613 H   0  0  0  0  0  0  0  0  0  0  0  0  # atno 6908 bound_to 6896
  151.0666  134.9785  159.8343 H   0  0  0  0  0  0  0  0  0  0  0  0  # atno 6909 bound_to 6896
  145.5779  139.2321  143.2369 H   0  0  0  0  0  0  0  0  0  0  0  0  # atno 7974 bound_to 7965
  155.8090  140.3474  155.5446 H   0  0  0  0  0  0  0  0  0  0  0  0  # atno 8008 bound_to 7997
  155.8460  140.0949  157.1725 H   0  0  0  0  0  0  0  0  0  0  0  0  # atno 8009 bound_to 7997
  154.4006  140.1385  156.3774 H   0  0  0  0  0  0  0  0  0  0  0  0  # atno 8010 bound_to 7997
  140.5233  143.9965  150.6428 H   0  0  0  0  0  0  0  0  0  0  0  0  # atno 10167 bound_to 10162
  156.4153  130.4416  149.7222 H   0  0  0  0  0  0  0  0  0  0  0  0  # atno 10718 bound_to 10713
  154.8413  135.4440  154.1410 H   0  0  0  0  0  0  0  0  0  0  0  0  # atno 10763 bound_to 10752
  153.2595  135.6934  153.7599 H   0  0  0  0  0  0  0  0  0  0  0  0  # atno 10764 bound_to 10752
  153.6881  135.3392  155.3171 H   0  0  0  0  0  0  0  0  0  0  0  0  # atno 10765 bound_to 10752
  140.8937  134.1779  157.4510 H   0  0  0  0  0  0  0  0  0  0  0  0  # atno 11005 bound_to 11000
  146.1738  140.6605  142.9221 LP  0  0  0  0  0  0  0  0  0  0  0  0  # atno 17320 bound_to 7965
  144.7407  140.4935  143.6871 LP  0  0  0  0  0  0  0  0  0  0  0  0  # atno 17321 bound_to 7965
  140.3320  143.3071  152.0677 LP  0  0  0  0  0  0  0  0  0  0  0  0  # atno 17342 bound_to 10162
  139.4930  144.6502  151.6692 LP  0  0  0  0  0  0  0  0  0  0  0  0  # atno 17343 bound_to 10162
  156.4184  130.7757  151.2773 LP  0  0  0  0  0  0  0  0  0  0  0  0  # atno 17370 bound_to 10713
  157.7508  131.0190  150.3649 LP  0  0  0  0  0  0  0  0  0  0  0  0  # atno 17371 bound_to 10713
  139.8733  134.9869  156.5345 LP  0  0  0  0  0  0  0  0  0  0  0  0  # atno 17394 bound_to 11000
  140.8316  133.8275  155.8989 LP  0  0  0  0  0  0  0  0  0  0  0  0  # atno 17395 bound_to 11000

$$$$
