AV-unprocessed.smi:149|AV-procd|sdf|1241|dock7
  -GOLD-   2262018463D 1   1.00000     0.00000
 Structure written by MMmdl.
 59 63  0  0  0  0  0  0  0  0  1 V2000
  151.6990  144.0597  158.0198 C   0  0  0  0  0  0  0  0  0  0  0  0
  151.2266  142.6492  158.4136 C   0  0  1  0  0  0  0  0  0  0  0  0
  150.4399  141.9920  157.2663 C   0  0  0  0  0  0  0  0  0  0  0  0
  151.1398  140.7641  156.9248 N   0  0  0  0  0  0  0  0  0  0  0  0
  150.5124  139.8246  156.1646 C   0  0  0  0  0  0  0  0  0  0  0  0
  150.8260  139.7564  154.8425 N   0  0  0  0  0  0  0  0  0  0  0  0
  150.2456  138.8540  154.0476 C   0  0  0  0  0  0  0  0  0  0  0  0
  149.3341  137.9331  154.3599 N   0  0  0  0  0  0  0  0  0  0  0  0
  149.0142  137.9847  155.6841 C   0  0  0  0  0  0  0  0  0  0  0  0
  149.5551  138.8821  156.6513 C   0  0  0  0  0  0  0  0  0  0  0  0
  148.9988  138.6055  157.8965 N   0  0  0  0  0  0  0  0  0  0  0  0
  148.1840  137.6112  157.6787 C   0  0  0  0  0  0  0  0  0  0  0  0
  148.1063  137.1966  156.3700 N   0  0  0  0  0  0  0  0  0  0  0  0
  147.3206  136.1120  155.8596 C   0  0  0  0  0  0  0  0  0  0  0  0
  145.7941  136.2023  155.8017 C   0  0  0  0  0  0  0  0  0  0  0  0
  145.6996  134.6826  156.0603 C   0  0  0  0  0  0  0  0  0  0  0  0
  144.5924  134.2558  157.0387 C   0  0  0  0  0  0  0  0  0  0  0  0
  143.3388  134.1714  156.3917 O   0  0  0  0  0  0  0  0  0  0  0  0
  145.6303  133.8058  154.7936 C   0  0  0  0  0  0  0  0  0  0  0  0
  144.4550  134.0607  154.0518 O   0  0  0  0  0  0  0  0  0  0  0  0
  147.1083  134.8353  156.6771 C   0  0  0  0  0  0  0  0  0  0  0  0
  151.9543  140.3763  158.0578 C   0  0  0  0  0  0  0  0  0  0  0  0
  152.3874  141.6792  158.7460 C   0  0  2  0  0  0  0  0  0  0  0  0
  152.6864  141.4936  160.1757 N   0  0  0  0  0  0  0  0  0  0  0  0
  153.9494  140.7808  160.3787 C   0  0  0  0  0  0  0  0  0  0  0  0
  154.2758  140.5817  161.8687 C   0  0  0  0  0  0  0  0  0  0  0  0
  154.3100  141.8450  162.5218 O   0  0  0  0  0  0  0  0  0  0  0  0
  153.0823  142.5529  162.3973 C   0  0  0  0  0  0  0  0  0  0  0  0
  152.7487  142.7573  160.9092 C   0  0  0  0  0  0  0  0  0  0  0  0
  152.3440  144.0275  157.1411 H   0  0  0  0  0  0  0  0  0  0  0  0
  152.2590  144.5416  158.8197 H   0  0  0  0  0  0  0  0  0  0  0  0
  150.8506  144.7025  157.7838 H   0  0  0  0  0  0  0  0  0  0  0  0
  150.5565  142.7249  159.2711 H   0  0  0  0  0  0  0  0  0  0  0  0
  149.4196  141.7717  157.5842 H   0  0  0  0  0  0  0  0  0  0  0  0
  150.3837  142.6410  156.3914 H   0  0  0  0  0  0  0  0  0  0  0  0
  150.5542  138.8745  153.0127 H   0  0  0  0  0  0  0  0  0  0  0  0
  147.6090  137.1569  158.4726 H   0  0  0  0  0  0  0  0  0  0  0  0
  147.7316  135.8779  154.8761 H   0  0  0  0  0  0  0  0  0  0  0  0
  145.3820  136.7999  156.6174 H   0  0  0  0  0  0  0  0  0  0  0  0
  145.3966  136.5297  154.8404 H   0  0  0  0  0  0  0  0  0  0  0  0
  144.8162  133.2975  157.5074 H   0  0  0  0  0  0  0  0  0  0  0  0
  144.4972  134.9768  157.8512 H   0  0  0  0  0  0  0  0  0  0  0  0
  143.2435  134.9196  155.8221 H   0  0  0  0  0  0  0  0  0  0  0  0
  146.4946  133.9647  154.1485 H   0  0  0  0  0  0  0  0  0  0  0  0
  145.6371  132.7459  155.0483 H   0  0  0  0  0  0  0  0  0  0  0  0
  143.8424  133.3591  154.2111 H   0  0  0  0  0  0  0  0  0  0  0  0
  147.8071  134.0316  156.4426 H   0  0  0  0  0  0  0  0  0  0  0  0
  147.0830  135.0268  157.7514 H   0  0  0  0  0  0  0  0  0  0  0  0
  151.3594  139.7546  158.7293 H   0  0  0  0  0  0  0  0  0  0  0  0
  152.8289  139.8094  157.7390 H   0  0  0  0  0  0  0  0  0  0  0  0
  153.2827  142.0377  158.2348 H   0  0  0  0  0  0  0  0  0  0  0  0
  153.9149  139.8008  159.9031 H   0  0  0  0  0  0  0  0  0  0  0  0
  154.7635  141.3293  159.9024 H   0  0  0  0  0  0  0  0  0  0  0  0
  153.5353  139.9367  162.3442 H   0  0  0  0  0  0  0  0  0  0  0  0
  155.2447  140.0958  161.9826 H   0  0  0  0  0  0  0  0  0  0  0  0
  152.2845  142.0029  162.8990 H   0  0  0  0  0  0  0  0  0  0  0  0
  153.1736  143.5152  162.9010 H   0  0  0  0  0  0  0  0  0  0  0  0
  153.4949  143.4124  160.4569 H   0  0  0  0  0  0  0  0  0  0  0  0
  151.7930  143.2759  160.8478 H   0  0  0  0  0  0  0  0  0  0  0  0
  1  2  1  0  0  0  0
  1 30  1  0  0  0  0
  1 31  1  0  0  0  0
  1 32  1  0  0  0  0
  2 23  1  0  0  0  0
  2  3  1  0  0  0  0
  2 33  1  0  0  0  0
  3  4  1  0  0  0  0
  3 34  1  0  0  0  0
  3 35  1  0  0  0  0
  4  5  1  0  0  0  0
  4 22  1  0  0  0  0
  5 10  1  0  0  0  0
  5  6  2  0  0  0  0
  6  7  1  0  0  0  0
  7  8  2  0  0  0  0
  7 36  1  0  0  0  0
  8  9  1  0  0  0  0
  9 13  1  0  0  0  0
  9 10  2  0  0  0  0
 10 11  1  0  0  0  0
 11 12  2  0  0  0  0
 12 13  1  0  0  0  0
 12 37  1  0  0  0  0
 13 14  1  0  0  0  0
 14 21  1  0  0  0  0
 14 15  1  0  0  0  0
 14 38  1  0  0  0  0
 15 16  1  0  0  0  0
 15 39  1  0  0  0  0
 15 40  1  0  0  0  0
 16 17  1  0  0  0  0
 16 19  1  0  0  0  0
 16 21  1  0  0  0  0
 17 18  1  0  0  0  0
 17 41  1  0  0  0  0
 17 42  1  0  0  0  0
 18 43  1  0  0  0  0
 19 20  1  0  0  0  0
 19 44  1  0  0  0  0
 19 45  1  0  0  0  0
 20 46  1  0  0  0  0
 21 47  1  0  0  0  0
 21 48  1  0  0  0  0
 22 23  1  0  0  0  0
 22 49  1  0  0  0  0
 22 50  1  0  0  0  0
 23 24  1  0  0  0  0
 23 51  1  0  0  0  0
 24 29  1  0  0  0  0
 24 25  1  0  0  0  0
 25 26  1  0  0  0  0
 25 52  1  0  0  0  0
 25 53  1  0  0  0  0
 26 27  1  0  0  0  0
 26 54  1  0  0  0  0
 26 55  1  0  0  0  0
 27 28  1  0  0  0  0
 28 29  1  0  0  0  0
 28 56  1  0  0  0  0
 28 57  1  0  0  0  0
 29 58  1  0  0  0  0
 29 59  1  0  0  0  0
M  END
> <s_m_source_file>
AV-unprocessed.smi

> <i_m_source_file_index>
149

> <i_lp_mmshare_version>
43012

> <i_f3d_flags>
0

> <s_epik_input>
W0NIMl0xW0NIMl1PW0NIMl1bQ0gyXU4xW0NAQEhdMltDSDJdTihbQ0gyXVtDQEhdMltDSDNdKWMobltjSF1uMyljKGMzNCluW2NIXW40W0NIXShbQ0gyXTUpW0NIMl1DNShbQ0gyXVtPSF0pW0NIMl1bT0hd

> <s_epik_cmdline>
J2VwaWtfcHl0aG9uJywgJy1waCcsICc3LjAnLCAnLXRuJywgJzgnLCAnLW1hJywgJzIwMCcsICctbWV0YWxfYmluZGluZycsICctaW1hZScsICc8aW5maWxlLm1hZT4nLCAnLW9tYWUnLCAnPG91dGZpbGUubWFlPic=

> <r_lp_tautomer_probability>
1

> <r_epik_Ionization_Penalty>
0.41918

> <r_epik_Ionization_Penalty_Charging>
0

> <r_epik_Ionization_Penalty_Neutral>
0.41918

> <r_epik_State_Penalty>
0.654916

> <r_epik_Charging_Adjusted_Penalty>
0.654916

> <i_epik_Tot_Q>
0

> <i_epik_Tot_abs_Q>
0

> <r_epik_Metal_State_Penalty>
0.653217

> <b_epik_Metal_Only>
0

> <s_lp_Force_Field>
OPLS_2005

> <r_lp_Energy>
73.5543

> <b_lp_Chiralities_Consistent>
1

> <s_lp_Variant>
AV-unprocessed.smi:149-8

> <Gold.Version>
5.8.1

> <Gold.Id.Protein>
6NUR|6NUR_protein|mol2

> <Gold.PLP.Fitness>
49.1694

> <Gold.PLP.PLP>
-39.8360

> <Gold.PLP.part.hbond>
-5.0000

> <Gold.PLP.part.metal>
0.0000

> <Gold.PLP.part.buried>
-6.7986

> <Gold.PLP.part.nonpolar>
-29.4341

> <Gold.PLP.part.repulsive>
0.7705

> <Gold.PLP.ligand.clash>
0.0000

> <Gold.PLP.ligand.torsion>
1.0521

> <Gold.PLP.Chemscore.Hbond>
2.5242

> <Gold.PLP.Chemscore.CHOScore>
1.0000

> <Gold.PLP.Chemscore.Metal>
0.0000

> <Gold.Chemscore.Hbonds>
donor molecule, donor type, donor heavy atom, donor atom, acceptor molecule, acceptor atom, score
      L1  H    20    46       P1 10957  0.93
      P1  H  7989  7998       L1     6  0.95
      P1  H 11000 11005       L1    18  0.43
      L1  C     7    36       P1  7957  1.00

> <Gold.PLP.Chemscore.Internal.Correction>
0.8650

> <Gold.Rescore>
     Score         DG    S(hbond)    S(metal)    S(lipo)     H(rot)  DE(clash)    DE(int)     intcor
     12.76     -14.64       2.20        0.00      88.54       3.34       0.87       1.01       ----

> <Gold.Chemscore.Fitness>
12.7571

> <Gold.Chemscore.DG>
-14.6358

> <Gold.Chemscore.ZeroCoef>
-5.4800

> <Gold.Chemscore.Hbond>
2.2008

> <Gold.Chemscore.Metal>
0.0000

> <Gold.Chemscore.Lipo>
88.5435

> <Gold.Chemscore.Internal_Hbond>
0.0000

> <Gold.Chemscore.DEClash>
0.8662

> <Gold.Chemscore.DEInternal>
1.0124

> <Gold.Chemscore.Rot>
3.3416

> <Gold.Chemscore.Internal.Correction>
   9.000000E+99

> <Gold.Chemscore.Hbonds>
donor molecule, donor type, donor heavy atom, donor atom, acceptor molecule, acceptor atom, score
      L1  H    20    46       P1 10957  0.89
      P1  H  7989  7998       L1     6  0.21
      P1  H 11000 11005       L1    18  0.13

> <Gold.Chemscore.Hbond.Weighted>
-7.3506

> <Gold.Chemscore.Metal.Weighted>
-0.0000

> <Gold.Chemscore.Lipo.Weighted>
-10.3596

> <Gold.Chemscore.Internal_Hbond.Weighted>
0.0000

> <Gold.Chemscore.DEClash.Weighted>
0.8662

> <Gold.Chemscore.DEInternal.Weighted>
1.0124

> <Gold.Chemscore.Rot.Weighted>
8.5545

> <Gold.Chemscore.Internal.Correction.Weighted>
   9.000000E+99

> <Gold.Protein.RotatedTorsions>
[ 6907 6896 6895 6894 ] final -141.56 input  -60.11 | X-H torsion
[ 7974 7965 7964 7962 ] final   85.50 input  175.53 | X-H torsion
[ 8008 7997 7996 7995 ] final  158.78 input   59.86 | X-H torsion
[ 10167 10162 10161 10158 ] final  129.23 input  -65.29 | X-H torsion
[ 10718 10713 10712 10709 ] final  -75.85 input   66.30 | X-H torsion
[ 10763 10752 10751 10750 ] final  132.03 input  -60.55 | X-H torsion
[ 11005 11000 10999 10996 ] final  -85.33 input  -57.11 | X-H torsion

> <Gold.Protein.ActiveResidues>
 VAL166  LYS551  ARG553  GLY616  TRP617  ASP618  TYR619  PRO620  LYS621  CYS622 
 ASP623  PHE694  ASN695  SER759  ASP760  ASP761  ALA762  ILE779  LEU786  VAL792 
 PHE793  MET794  SER795  GLU796  ALA797  LYS798  CYS799  TRP800  GLU811  SER814 

> <Gold.Protein.RotatedAtoms>
  151.0754  133.5432  159.2623 H   0  0  0  0  0  0  0  0  0  0  0  0  # atno 6907 bound_to 6896
  151.2355  135.0569  159.9014 H   0  0  0  0  0  0  0  0  0  0  0  0  # atno 6908 bound_to 6896
  152.5417  134.0537  159.8175 H   0  0  0  0  0  0  0  0  0  0  0  0  # atno 6909 bound_to 6896
  145.5847  139.2330  143.2333 H   0  0  0  0  0  0  0  0  0  0  0  0  # atno 7974 bound_to 7965
  156.2281  140.1849  156.7312 H   0  0  0  0  0  0  0  0  0  0  0  0  # atno 8008 bound_to 7997
  154.5975  140.0641  156.9351 H   0  0  0  0  0  0  0  0  0  0  0  0  # atno 8009 bound_to 7997
  155.2231  140.3309  155.4315 H   0  0  0  0  0  0  0  0  0  0  0  0  # atno 8010 bound_to 7997
  139.5488  144.6796  151.4389 H   0  0  0  0  0  0  0  0  0  0  0  0  # atno 10167 bound_to 10162
  156.0194  130.4451  150.3105 H   0  0  0  0  0  0  0  0  0  0  0  0  # atno 10718 bound_to 10713
  153.7840  135.3164  155.3369 H   0  0  0  0  0  0  0  0  0  0  0  0  # atno 10763 bound_to 10752
  154.8151  135.4641  154.0624 H   0  0  0  0  0  0  0  0  0  0  0  0  # atno 10764 bound_to 10752
  153.1921  135.6910  153.8425 H   0  0  0  0  0  0  0  0  0  0  0  0  # atno 10765 bound_to 10752
  141.1642  133.7394  156.9000 H   0  0  0  0  0  0  0  0  0  0  0  0  # atno 11005 bound_to 11000
  146.1690  140.6674  142.9242 LP  0  0  0  0  0  0  0  0  0  0  0  0  # atno 17320 bound_to 7965
  144.7378  140.4857  143.6891 LP  0  0  0  0  0  0  0  0  0  0  0  0  # atno 17321 bound_to 7965
  140.6744  143.8222  150.7040 LP  0  0  0  0  0  0  0  0  0  0  0  0  # atno 17342 bound_to 10162
  140.1656  143.4238  152.2036 LP  0  0  0  0  0  0  0  0  0  0  0  0  # atno 17343 bound_to 10162
  157.1206  131.0246  151.3010 LP  0  0  0  0  0  0  0  0  0  0  0  0  # atno 17370 bound_to 10713
  157.4631  130.7664  149.7254 LP  0  0  0  0  0  0  0  0  0  0  0  0  # atno 17371 bound_to 10713
  140.1589  134.9179  157.2689 LP  0  0  0  0  0  0  0  0  0  0  0  0  # atno 17394 bound_to 11000
  140.2634  134.3544  155.7398 LP  0  0  0  0  0  0  0  0  0  0  0  0  # atno 17395 bound_to 11000

$$$$
