AV-unprocessed.smi:3018|AV-procd|sdf|11482|dock1
  -GOLD-   2272016423D 1   1.00000     0.00000
 Structure written by MMmdl.
 44 45  0  0  0  0  0  0  0  0  2 V2000
  148.8948  141.3234  154.4738 C   0  0  0  0  0  0  0  0  0  0  0  0
  149.3054  141.3067  155.9517 C   0  0  0  0  0  0  0  0  0  0  0  0
  150.7801  140.9128  156.1542 C   0  0  1  0  0  0  0  0  0  0  0  0
  151.0267  140.8624  157.5583 O   0  0  0  0  0  0  0  0  0  0  0  0
  151.7765  141.9394  158.1141 C   0  0  0  0  0  0  0  0  0  0  0  0
  151.8655  141.7019  159.6315 C   0  0  0  0  0  0  0  0  0  0  0  0
  152.5849  142.8612  160.3395 C   0  0  0  0  0  0  0  0  0  0  0  0
  151.9021  144.2049  160.0382 C   0  0  0  0  0  0  0  0  0  0  0  0
  151.7983  144.4488  158.5243 C   0  0  0  0  0  0  0  0  0  0  0  0
  151.0833  143.2852  157.8180 C   0  0  0  0  0  0  0  0  0  0  0  0
  151.0822  139.5423  155.5287 C   0  0  0  0  0  0  0  0  0  0  0  0
  151.8983  139.4449  154.6120 O   0  0  0  0  0  0  0  0  0  0  0  0
  150.4046  138.4962  156.0264 N   0  0  0  0  0  0  0  0  0  0  0  0
  150.5369  137.1177  155.5708 C   0  0  0  0  0  0  0  0  0  0  0  0
  150.8456  136.1641  156.7436 C   0  0  0  0  0  0  0  0  0  0  0  0
  150.1425  136.4981  158.0520 C   0  0  0  0  0  0  0  0  0  0  0  0
  150.6749  136.7390  159.1939 N   0  0  0  0  0  0  0  0  0  0  0  0
  149.5711  136.9922  160.0720 N   0  5  0  0  0  0  0  0  0  0  0  0
  148.4411  136.8703  159.3340 C   0  0  0  0  0  0  0  0  0  0  0  0
  147.2723  137.0029  159.6895 O   0  0  0  0  0  0  0  0  0  0  0  0
  148.7775  136.5667  158.0850 N   0  0  0  0  0  0  0  0  0  0  0  0
  148.1550  136.4107  157.3064 H   0  0  0  0  0  0  0  0  0  0  0  0
  147.8444  141.5944  154.3660 H   0  0  0  0  0  0  0  0  0  0  0  0
  149.0349  140.3443  154.0150 H   0  0  0  0  0  0  0  0  0  0  0  0
  149.4835  142.0460  153.9079 H   0  0  0  0  0  0  0  0  0  0  0  0
  149.1164  142.2885  156.3884 H   0  0  0  0  0  0  0  0  0  0  0  0
  148.6609  140.6053  156.4838 H   0  0  0  0  0  0  0  0  0  0  0  0
  151.4063  141.6715  155.6829 H   0  0  0  0  0  0  0  0  0  0  0  0
  152.7917  141.9569  157.7154 H   0  0  0  0  0  0  0  0  0  0  0  0
  150.8626  141.5892  160.0456 H   0  0  0  0  0  0  0  0  0  0  0  0
  152.3884  140.7657  159.8299 H   0  0  0  0  0  0  0  0  0  0  0  0
  152.6026  142.6860  161.4155 H   0  0  0  0  0  0  0  0  0  0  0  0
  153.6257  142.8983  160.0150 H   0  0  0  0  0  0  0  0  0  0  0  0
  150.9041  144.2137  160.4783 H   0  0  0  0  0  0  0  0  0  0  0  0
  152.4551  145.0177  160.5096 H   0  0  0  0  0  0  0  0  0  0  0  0
  151.2672  145.3818  158.3343 H   0  0  0  0  0  0  0  0  0  0  0  0
  152.7977  144.5706  158.1048 H   0  0  0  0  0  0  0  0  0  0  0  0
  151.0566  143.4775  156.7459 H   0  0  0  0  0  0  0  0  0  0  0  0
  150.0447  143.2418  158.1485 H   0  0  0  0  0  0  0  0  0  0  0  0
  149.7505  138.6682  156.7760 H   0  0  0  0  0  0  0  0  0  0  0  0
  149.5971  136.8359  155.0946 H   0  0  0  0  0  0  0  0  0  0  0  0
  151.3097  137.0550  154.8024 H   0  0  0  0  0  0  0  0  0  0  0  0
  150.5800  135.1426  156.4696 H   0  0  0  0  0  0  0  0  0  0  0  0
  151.9200  136.1610  156.9303 H   0  0  0  0  0  0  0  0  0  0  0  0
  1  2  1  0  0  0  0
  1 23  1  0  0  0  0
  1 24  1  0  0  0  0
  1 25  1  0  0  0  0
  2  3  1  0  0  0  0
  2 26  1  0  0  0  0
  2 27  1  0  0  0  0
  3  4  1  0  0  0  0
  3 11  1  0  0  0  0
  3 28  1  0  0  0  0
  4  5  1  0  0  0  0
  5 10  1  0  0  0  0
  5  6  1  0  0  0  0
  5 29  1  0  0  0  0
  6  7  1  0  0  0  0
  6 30  1  0  0  0  0
  6 31  1  0  0  0  0
  7  8  1  0  0  0  0
  7 32  1  0  0  0  0
  7 33  1  0  0  0  0
  8  9  1  0  0  0  0
  8 34  1  0  0  0  0
  8 35  1  0  0  0  0
  9 10  1  0  0  0  0
  9 36  1  0  0  0  0
  9 37  1  0  0  0  0
 10 38  1  0  0  0  0
 10 39  1  0  0  0  0
 11 12  2  0  0  0  0
 11 13  1  0  0  0  0
 13 14  1  0  0  0  0
 13 40  1  0  0  0  0
 14 15  1  0  0  0  0
 14 41  1  0  0  0  0
 14 42  1  0  0  0  0
 15 16  1  0  0  0  0
 15 43  1  0  0  0  0
 15 44  1  0  0  0  0
 16 21  1  0  0  0  0
 16 17  2  0  0  0  0
 17 18  1  0  0  0  0
 18 19  1  0  0  0  0
 19 20  2  0  0  0  0
 19 21  1  0  0  0  0
 21 22  1  0  0  0  0
M  CHG  1  18  -1
M  END
> <s_m_source_file>
AV-unprocessed.smi

> <i_m_source_file_index>
3018

> <i_lp_mmshare_version>
43012

> <i_f3d_flags>
0

> <s_epik_input>
W0NIMl0xW0NIMl1bQ0gyXVtDSDJdW0NIMl1bQ0hdMU9bQ0BASF0oW0NIMl1bQ0gzXSlDKD1PKVtOSF1bQ0gyXVtDSDJdYzJuW25IXWMoPU8pW25IXTI=

> <s_epik_cmdline>
J2VwaWtfcHl0aG9uJywgJy1waCcsICc3LjAnLCAnLXRuJywgJzgnLCAnLW1hJywgJzIwMCcsICctbWV0YWxfYmluZGluZycsICctaW1hZScsICc8aW5maWxlLm1hZT4nLCAnLW9tYWUnLCAnPG91dGZpbGUubWFlPic=

> <r_lp_tautomer_probability>
1

> <r_epik_Ionization_Penalty>
14.1812

> <r_epik_Ionization_Penalty_Charging>
13.7758

> <r_epik_Ionization_Penalty_Neutral>
0.405355

> <r_epik_State_Penalty>
4.92413

> <r_epik_Charging_Adjusted_Penalty>
18.7

> <i_epik_Tot_Q>
-1

> <i_epik_Tot_abs_Q>
1

> <r_epik_Metal_State_Penalty>
1.32654

> <b_epik_Metal_Only>
1

> <s_lp_Force_Field>
OPLS_2005

> <r_lp_Energy>
19.6137

> <b_lp_Chiralities_Consistent>
1

> <s_lp_Variant>
AV-unprocessed.smi:3018-4

> <Gold.Version>
5.8.1

> <Gold.Id.Protein>
6NUR|6NUR_protein|mol2

> <Gold.PLP.Fitness>
49.3168

> <Gold.PLP.PLP>
-39.1672

> <Gold.PLP.part.hbond>
-4.0000

> <Gold.PLP.part.metal>
0.0000

> <Gold.PLP.part.buried>
-5.1564

> <Gold.PLP.part.nonpolar>
-31.0398

> <Gold.PLP.part.repulsive>
0.1729

> <Gold.PLP.ligand.clash>
0.0000

> <Gold.PLP.ligand.torsion>
0.8237

> <Gold.PLP.Chemscore.Hbond>
3.8240

> <Gold.PLP.Chemscore.CHOScore>
0.0000

> <Gold.PLP.Chemscore.Metal>
0.0000

> <Gold.Chemscore.Hbonds>
donor molecule, donor type, donor heavy atom, donor atom, acceptor molecule, acceptor atom, score
      P1  H  6896  6909       L1    17  0.90
      P1  H  6931  6943       L1    18  0.37
      P1  H  6934  6947       L1    20  0.16
      P1  H  7989  7998       L1    12  0.96

> <Gold.PLP.Chemscore.Internal.Correction>
0.3249

> <Gold.Rescore>
     Score         DG    S(hbond)    S(metal)    S(lipo)     H(rot)  DE(clash)    DE(int)     intcor
     16.56     -17.43       2.77        0.00      88.20       2.98       0.01       0.87       ----

> <Gold.Chemscore.Fitness>
16.5587

> <Gold.Chemscore.DG>
-17.4317

> <Gold.Chemscore.ZeroCoef>
-5.4800

> <Gold.Chemscore.Hbond>
2.7707

> <Gold.Chemscore.Metal>
0.0000

> <Gold.Chemscore.Lipo>
88.1982

> <Gold.Chemscore.Internal_Hbond>
0.0000

> <Gold.Chemscore.DEClash>
0.0060

> <Gold.Chemscore.DEInternal>
0.8669

> <Gold.Chemscore.Rot>
2.9772

> <Gold.Chemscore.Internal.Correction>
   9.000000E+99

> <Gold.Chemscore.Hbonds>
donor molecule, donor type, donor heavy atom, donor atom, acceptor molecule, acceptor atom, score
      P1  H  6896  6909       L1    17  0.08
      P1  H  6931  6943       L1    18  0.12
      P1  H  6934  6947       L1    20  0.10
      P1  H  7989  7998       L1    12  0.60

> <Gold.Chemscore.Hbond.Weighted>
-9.2541

> <Gold.Chemscore.Metal.Weighted>
-0.0000

> <Gold.Chemscore.Lipo.Weighted>
-10.3192

> <Gold.Chemscore.Internal_Hbond.Weighted>
0.0000

> <Gold.Chemscore.DEClash.Weighted>
0.0060

> <Gold.Chemscore.DEInternal.Weighted>
0.8669

> <Gold.Chemscore.Rot.Weighted>
7.6216

> <Gold.Chemscore.Internal.Correction.Weighted>
   9.000000E+99

> <Gold.Protein.RotatedTorsions>
[ 6907 6896 6895 6894 ] final   92.62 input  -60.11 | X-H torsion
[ 7974 7965 7964 7962 ] final   79.83 input  175.53 | X-H torsion
[ 8008 7997 7996 7995 ] final  125.50 input   59.86 | X-H torsion
[ 10167 10162 10161 10158 ] final  119.82 input  -65.29 | X-H torsion
[ 10718 10713 10712 10709 ] final  -81.35 input   66.30 | X-H torsion
[ 10763 10752 10751 10750 ] final  157.36 input  -60.55 | X-H torsion
[ 11005 11000 10999 10996 ] final  179.59 input  -57.11 | X-H torsion

> <Gold.Protein.ActiveResidues>
 VAL166  LYS551  ARG553  GLY616  TRP617  ASP618  TYR619  PRO620  LYS621  CYS622 
 ASP623  PHE694  ASN695  SER759  ASP760  ASP761  ALA762  ILE779  LEU786  VAL792 
 PHE793  MET794  SER795  GLU796  ALA797  LYS798  CYS799  TRP800  GLU811  SER814 

> <Gold.Protein.RotatedAtoms>
  152.5453  134.1474  159.8503 H   0  0  0  0  0  0  0  0  0  0  0  0  # atno 6907 bound_to 6896
  151.1504  133.4904  159.2603 H   0  0  0  0  0  0  0  0  0  0  0  0  # atno 6908 bound_to 6896
  151.1478  135.0222  159.8709 H   0  0  0  0  0  0  0  0  0  0  0  0  # atno 6909 bound_to 6896
  145.6591  139.2467  143.1932 H   0  0  0  0  0  0  0  0  0  0  0  0  # atno 7974 bound_to 7965
  156.2836  140.2715  156.1960 H   0  0  0  0  0  0  0  0  0  0  0  0  # atno 8008 bound_to 7997
  155.0410  140.0386  157.2527 H   0  0  0  0  0  0  0  0  0  0  0  0  # atno 8009 bound_to 7997
  154.7274  140.2700  155.6492 H   0  0  0  0  0  0  0  0  0  0  0  0  # atno 8010 bound_to 7997
  139.6022  144.7060  151.3037 H   0  0  0  0  0  0  0  0  0  0  0  0  # atno 10167 bound_to 10162
  156.0052  130.4601  150.3939 H   0  0  0  0  0  0  0  0  0  0  0  0  # atno 10718 bound_to 10713
  154.1989  135.2791  155.2997 H   0  0  0  0  0  0  0  0  0  0  0  0  # atno 10763 bound_to 10752
  154.5870  135.5572  153.7244 H   0  0  0  0  0  0  0  0  0  0  0  0  # atno 10764 bound_to 10752
  153.0093  135.6359  154.2128 H   0  0  0  0  0  0  0  0  0  0  0  0  # atno 10765 bound_to 10752
  140.4078  134.6719  157.4597 H   0  0  0  0  0  0  0  0  0  0  0  0  # atno 11005 bound_to 11000
  146.1140  140.7393  142.9489 LP  0  0  0  0  0  0  0  0  0  0  0  0  # atno 17320 bound_to 7965
  144.7095  140.3984  143.7091 LP  0  0  0  0  0  0  0  0  0  0  0  0  # atno 17321 bound_to 7965
  140.7258  143.7008  150.7846 LP  0  0  0  0  0  0  0  0  0  0  0  0  # atno 17342 bound_to 10162
  140.0587  143.5177  152.2638 LP  0  0  0  0  0  0  0  0  0  0  0  0  # atno 17343 bound_to 10162
  157.2012  131.0438  151.2649 LP  0  0  0  0  0  0  0  0  0  0  0  0  # atno 17370 bound_to 10713
  157.3973  130.7314  149.6741 LP  0  0  0  0  0  0  0  0  0  0  0  0  # atno 17371 bound_to 10713
  140.0289  134.6435  155.9134 LP  0  0  0  0  0  0  0  0  0  0  0  0  # atno 17394 bound_to 11000
  141.1832  133.6550  156.5109 LP  0  0  0  0  0  0  0  0  0  0  0  0  # atno 17395 bound_to 11000

$$$$
