AV-unprocessed.smi:2217|AV-procd|sdf|8968|dock7
  -GOLD-   2272012183D 1   1.00000     0.00000
 Structure written by MMmdl.
 45 48  0  0  0  0  0  0  0  0  1 V2000
  146.0421  133.1803  162.3709 C   0  0  0  0  0  0  0  0  0  0  0  0
  146.9341  134.1961  161.6885 C   0  0  0  0  0  0  0  0  0  0  0  0
  147.3217  134.0356  160.3452 C   0  0  0  0  0  0  0  0  0  0  0  0
  148.1498  135.0106  159.7566 C   0  0  0  0  0  0  0  0  0  0  0  0
  148.5726  136.1227  160.5193 C   0  0  0  0  0  0  0  0  0  0  0  0
  149.4020  137.0423  159.8113 N   0  0  0  0  0  0  0  0  0  0  0  0
  149.3527  137.4962  158.5406 C   0  0  0  0  0  0  0  0  0  0  0  0
  148.4760  137.1185  157.7654 O   0  0  0  0  0  0  0  0  0  0  0  0
  150.3040  138.3735  158.1866 N   0  0  0  0  0  0  0  0  0  0  0  0
  150.3895  139.0422  156.8950 C   0  0  2  0  0  0  0  0  0  0  0  0
  151.4736  138.4430  155.9997 C   0  0  1  0  0  0  0  0  0  0  0  0
  151.4622  137.6697  154.7296 C   0  0  0  0  0  0  0  0  0  0  0  0
  152.5490  138.4790  153.9745 C   0  0  0  0  0  0  0  0  0  0  0  0
  152.7952  139.6589  154.7767 O   0  0  0  0  0  0  0  0  0  0  0  0
  151.5796  139.8588  155.4693 C   0  0  2  0  0  0  0  0  0  0  0  0
  151.2957  140.3321  156.9096 C   0  0  0  0  0  0  0  0  0  0  0  0
  150.5729  141.6769  157.0692 C   0  0  0  0  0  0  0  0  0  0  0  0
  151.3467  142.5303  158.0767 C   0  0  0  0  0  0  0  0  0  0  0  0
  152.1526  141.5300  158.8927 C   0  0  0  0  0  0  0  0  0  0  0  0
  152.4835  140.4296  157.8902 C   0  0  0  0  0  0  0  0  0  0  0  0
  148.1879  136.2682  161.8132 N   0  0  0  0  0  0  0  0  0  0  0  0
  147.3946  135.3339  162.3778 C   0  0  0  0  0  0  0  0  0  0  0  0
  146.1560  132.1952  161.9175 H   0  0  0  0  0  0  0  0  0  0  0  0
  144.9976  133.4803  162.2858 H   0  0  0  0  0  0  0  0  0  0  0  0
  146.2910  133.0966  163.4292 H   0  0  0  0  0  0  0  0  0  0  0  0
  146.9920  133.1814  159.7720 H   0  0  0  0  0  0  0  0  0  0  0  0
  148.4550  134.9009  158.7259 H   0  0  0  0  0  0  0  0  0  0  0  0
  150.1892  137.3838  160.3427 H   0  0  0  0  0  0  0  0  0  0  0  0
  150.9922  138.6285  158.8814 H   0  0  0  0  0  0  0  0  0  0  0  0
  149.4277  139.1685  156.3889 H   0  0  0  0  0  0  0  0  0  0  0  0
  152.3443  138.1529  156.5961 H   0  0  0  0  0  0  0  0  0  0  0  0
  151.7385  136.6240  154.8677 H   0  0  0  0  0  0  0  0  0  0  0  0
  150.4940  137.7205  154.2298 H   0  0  0  0  0  0  0  0  0  0  0  0
  153.4747  137.9137  153.8633 H   0  0  0  0  0  0  0  0  0  0  0  0
  152.2017  138.7605  152.9795 H   0  0  0  0  0  0  0  0  0  0  0  0
  150.7786  140.1365  154.7744 H   0  0  0  0  0  0  0  0  0  0  0  0
  150.4745  142.2035  156.1195 H   0  0  0  0  0  0  0  0  0  0  0  0
  149.5594  141.5166  157.4374 H   0  0  0  0  0  0  0  0  0  0  0  0
  152.0273  143.1954  157.5435 H   0  0  0  0  0  0  0  0  0  0  0  0
  150.6942  143.1483  158.6942 H   0  0  0  0  0  0  0  0  0  0  0  0
  153.0398  141.9704  159.3476 H   0  0  0  0  0  0  0  0  0  0  0  0
  151.5320  141.1222  159.6918 H   0  0  0  0  0  0  0  0  0  0  0  0
  152.7033  139.4957  158.4077 H   0  0  0  0  0  0  0  0  0  0  0  0
  153.3887  140.7025  157.3461 H   0  0  0  0  0  0  0  0  0  0  0  0
  147.1205  135.5020  163.4091 H   0  0  0  0  0  0  0  0  0  0  0  0
  1  2  1  0  0  0  0
  1 23  1  0  0  0  0
  1 24  1  0  0  0  0
  1 25  1  0  0  0  0
  2 22  1  0  0  0  0
  2  3  2  0  0  0  0
  3  4  1  0  0  0  0
  3 26  1  0  0  0  0
  4  5  2  0  0  0  0
  4 27  1  0  0  0  0
  5  6  1  0  0  0  0
  5 21  1  0  0  0  0
  6  7  1  0  0  0  0
  6 28  1  0  0  0  0
  7  8  2  0  0  0  0
  7  9  1  0  0  0  0
  9 10  1  0  0  0  0
  9 29  1  0  0  0  0
 10 16  1  0  0  0  0
 10 11  1  0  0  0  0
 10 30  1  0  0  0  0
 11 15  1  0  0  0  0
 11 12  1  0  0  0  0
 11 31  1  0  0  0  0
 12 13  1  0  0  0  0
 12 32  1  0  0  0  0
 12 33  1  0  0  0  0
 13 14  1  0  0  0  0
 13 34  1  0  0  0  0
 13 35  1  0  0  0  0
 14 15  1  0  0  0  0
 15 16  1  0  0  0  0
 15 36  1  0  0  0  0
 16 20  1  0  0  0  0
 16 17  1  0  0  0  0
 17 18  1  0  0  0  0
 17 37  1  0  0  0  0
 17 38  1  0  0  0  0
 18 19  1  0  0  0  0
 18 39  1  0  0  0  0
 18 40  1  0  0  0  0
 19 20  1  0  0  0  0
 19 41  1  0  0  0  0
 19 42  1  0  0  0  0
 20 43  1  0  0  0  0
 20 44  1  0  0  0  0
 21 22  2  0  0  0  0
 22 45  1  0  0  0  0
M  END
> <s_m_source_file>
AV-unprocessed.smi

> <i_m_source_file_index>
2217

> <i_lp_mmshare_version>
43012

> <i_f3d_flags>
0

> <s_epik_input>
W0NIM11jMVtjSF1bY0hdYyhuW2NIXTEpW05IXUMoPU8pW05IXVtDQEBIXTJbQ0BASF0oW0NIMl1bQ0gyXU8zKVtDQEhdM0MyNFtDSDJdW0NIMl1bQ0gyXVtDSDJdNA==

> <s_epik_cmdline>
J2VwaWtfcHl0aG9uJywgJy1waCcsICc3LjAnLCAnLXRuJywgJzgnLCAnLW1hJywgJzIwMCcsICctbWV0YWxfYmluZGluZycsICctaW1hZScsICc8aW5maWxlLm1hZT4nLCAnLW9tYWUnLCAnPG91dGZpbGUubWFlPic=

> <r_lp_tautomer_probability>
1

> <r_epik_Ionization_Penalty>
6.14796e-05

> <r_epik_Ionization_Penalty_Charging>
0

> <r_epik_Ionization_Penalty_Neutral>
6.14796e-05

> <r_epik_State_Penalty>
-0

> <r_epik_Charging_Adjusted_Penalty>
0

> <i_epik_Tot_Q>
0

> <i_epik_Tot_abs_Q>
0

> <r_epik_Metal_State_Penalty>
-0

> <b_epik_Metal_Only>
0

> <s_lp_Force_Field>
OPLS_2005

> <r_lp_Energy>
79.4862

> <b_lp_Chiralities_Consistent>
1

> <s_lp_Variant>
AV-unprocessed.smi:2217-1

> <Gold.Version>
5.8.1

> <Gold.Id.Protein>
6NUR|6NUR_protein|mol2

> <Gold.PLP.Fitness>
40.2857

> <Gold.PLP.PLP>
-37.0909

> <Gold.PLP.part.hbond>
-2.9404

> <Gold.PLP.part.metal>
0.0000

> <Gold.PLP.part.buried>
-5.9786

> <Gold.PLP.part.nonpolar>
-30.2719

> <Gold.PLP.part.repulsive>
2.2594

> <Gold.PLP.ligand.clash>
0.0000

> <Gold.PLP.ligand.torsion>
0.5381

> <Gold.PLP.Chemscore.Hbond>
1.3299

> <Gold.PLP.Chemscore.CHOScore>
0.0000

> <Gold.PLP.Chemscore.Metal>
0.0000

> <Gold.Chemscore.Hbonds>
donor molecule, donor type, donor heavy atom, donor atom, acceptor molecule, acceptor atom, score
      P1  H  6931  6943       L1    21  0.42
      P1  H  7997  8009       L1    14  0.59

> <Gold.PLP.Chemscore.Internal.Correction>
0.2814

> <Gold.Rescore>
     Score         DG    S(hbond)    S(metal)    S(lipo)     H(rot)  DE(clash)    DE(int)     intcor
     14.72     -17.95       0.96        0.00     101.21       1.00       1.47       1.76       ----

> <Gold.Chemscore.Fitness>
14.7199

> <Gold.Chemscore.DG>
-17.9526

> <Gold.Chemscore.ZeroCoef>
-5.4800

> <Gold.Chemscore.Hbond>
0.9553

> <Gold.Chemscore.Metal>
0.0000

> <Gold.Chemscore.Lipo>
101.2136

> <Gold.Chemscore.Internal_Hbond>
0.0000

> <Gold.Chemscore.DEClash>
1.4692

> <Gold.Chemscore.DEInternal>
1.7634

> <Gold.Chemscore.Rot>
1.0000

> <Gold.Chemscore.Internal.Correction>
   9.000000E+99

> <Gold.Chemscore.Hbonds>
donor molecule, donor type, donor heavy atom, donor atom, acceptor molecule, acceptor atom, score
      P1  H  6931  6943       L1    21  0.03
      P1  H  7997  8009       L1    14  0.28

> <Gold.Chemscore.Hbond.Weighted>
-3.1906

> <Gold.Chemscore.Metal.Weighted>
-0.0000

> <Gold.Chemscore.Lipo.Weighted>
-11.8420

> <Gold.Chemscore.Internal_Hbond.Weighted>
0.0000

> <Gold.Chemscore.DEClash.Weighted>
1.4692

> <Gold.Chemscore.DEInternal.Weighted>
1.7634

> <Gold.Chemscore.Rot.Weighted>
2.5600

> <Gold.Chemscore.Internal.Correction.Weighted>
   9.000000E+99

> <Gold.Protein.RotatedTorsions>
[ 6907 6896 6895 6894 ] final   -3.69 input  -60.11 | X-H torsion
[ 7974 7965 7964 7962 ] final -156.45 input  175.53 | X-H torsion
[ 8008 7997 7996 7995 ] final -158.03 input   59.86 | X-H torsion
[ 10167 10162 10161 10158 ] final  -26.31 input  -65.29 | X-H torsion
[ 10718 10713 10712 10709 ] final   31.87 input   66.30 | X-H torsion
[ 10763 10752 10751 10750 ] final  -13.24 input  -60.55 | X-H torsion
[ 11005 11000 10999 10996 ] final    7.25 input  -57.11 | X-H torsion

> <Gold.Protein.ActiveResidues>
 VAL166  LYS551  ARG553  GLY616  TRP617  ASP618  TYR619  PRO620  LYS621  CYS622 
 ASP623  PHE694  ASN695  SER759  ASP760  ASP761  ALA762  ILE779  LEU786  VAL792 
 PHE793  MET794  SER795  GLU796  ALA797  LYS798  CYS799  TRP800  GLU811  SER814 

> <Gold.Protein.RotatedAtoms>
  151.5096  135.1064  159.9850 H   0  0  0  0  0  0  0  0  0  0  0  0  # atno 6907 bound_to 6896
  152.4667  133.7934  159.6925 H   0  0  0  0  0  0  0  0  0  0  0  0  # atno 6908 bound_to 6896
  150.8654  133.7518  159.3004 H   0  0  0  0  0  0  0  0  0  0  0  0  # atno 6909 bound_to 6896
  144.7592  140.4107  143.5989 H   0  0  0  0  0  0  0  0  0  0  0  0  # atno 7974 bound_to 7965
  155.7415  140.0815  157.2243 H   0  0  0  0  0  0  0  0  0  0  0  0  # atno 8008 bound_to 7997
  154.4021  140.1577  156.2676 H   0  0  0  0  0  0  0  0  0  0  0  0  # atno 8009 bound_to 7997
  155.9016  140.3409  155.6033 H   0  0  0  0  0  0  0  0  0  0  0  0  # atno 8010 bound_to 7997
  140.7283  143.4189  151.0983 H   0  0  0  0  0  0  0  0  0  0  0  0  # atno 10167 bound_to 10162
  157.2780  130.7241  149.6541 H   0  0  0  0  0  0  0  0  0  0  0  0  # atno 10718 bound_to 10713
  153.5103  135.7016  153.5784 H   0  0  0  0  0  0  0  0  0  0  0  0  # atno 10763 bound_to 10752
  153.3877  135.3904  155.1901 H   0  0  0  0  0  0  0  0  0  0  0  0  # atno 10764 bound_to 10752
  154.8704  135.3850  154.4583 H   0  0  0  0  0  0  0  0  0  0  0  0  # atno 10765 bound_to 10752
  140.5503  134.0289  155.7934 H   0  0  0  0  0  0  0  0  0  0  0  0  # atno 11005 bound_to 11000
  145.6675  139.1593  143.2773 LP  0  0  0  0  0  0  0  0  0  0  0  0  # atno 17320 bound_to 7965
  146.1637  140.6749  142.9265 LP  0  0  0  0  0  0  0  0  0  0  0  0  # atno 17321 bound_to 7965
  139.7832  143.8325  152.3141 LP  0  0  0  0  0  0  0  0  0  0  0  0  # atno 17342 bound_to 10162
  139.8283  144.7265  150.9483 LP  0  0  0  0  0  0  0  0  0  0  0  0  # atno 17343 bound_to 10162
  155.9664  130.4347  150.5059 LP  0  0  0  0  0  0  0  0  0  0  0  0  # atno 17370 bound_to 10713
  157.2997  131.0643  151.2077 LP  0  0  0  0  0  0  0  0  0  0  0  0  # atno 17371 bound_to 10713
  141.1175  133.9516  157.2794 LP  0  0  0  0  0  0  0  0  0  0  0  0  # atno 17394 bound_to 11000
  139.9458  135.0184  156.8849 LP  0  0  0  0  0  0  0  0  0  0  0  0  # atno 17395 bound_to 11000

$$$$
