AV-unprocessed.smi:1824|AV-procd|sdf|7412|dock7
  -GOLD-   22720 9 93D 1   1.00000     0.00000
 Structure written by MMmdl.
 45 47  0  0  0  0  0  0  0  0  2 V2000
  148.3457  136.1928  160.9560 C   0  0  0  0  0  0  0  0  0  0  0  0
  148.2810  136.1025  159.4279 C   0  0  1  0  0  0  0  0  0  0  0  0
  149.1887  137.1423  158.7466 C   0  0  0  0  0  0  0  0  0  0  0  0
  149.1869  137.0009  157.2958 N   0  0  0  0  0  0  0  0  0  0  0  0
  150.0154  138.0314  156.6678 C   0  0  0  0  0  0  0  0  0  0  0  0
  151.3082  138.3919  157.4267 C   0  0  1  0  0  0  0  0  0  0  0  0
  152.0980  137.2247  157.5412 O   0  0  0  0  0  0  0  0  0  0  0  0
  152.1095  139.4841  156.6928 C   0  0  0  0  0  0  0  0  0  0  0  0
  151.5647  140.8322  156.9101 N   0  0  0  0  0  0  0  0  0  0  0  0
  150.7459  141.5738  156.1159 C   0  0  0  0  0  0  0  0  0  0  0  0
  150.5214  142.7587  156.7483 N   0  3  0  0  0  0  0  0  0  0  0  0
  151.2058  142.7746  157.9656 C   0  0  0  0  0  0  0  0  0  0  0  0
  151.2864  143.7519  158.9521 C   0  0  0  0  0  0  0  0  0  0  0  0
  152.0732  143.4497  160.0829 C   0  0  0  0  0  0  0  0  0  0  0  0
  152.1868  144.3666  161.0728 F   0  0  0  0  0  0  0  0  0  0  0  0
  152.7414  142.2128  160.2027 C   0  0  0  0  0  0  0  0  0  0  0  0
  153.4843  141.9622  161.3066 F   0  0  0  0  0  0  0  0  0  0  0  0
  152.6522  141.2297  159.1951 C   0  0  0  0  0  0  0  0  0  0  0  0
  151.8760  141.5382  158.0785 C   0  0  0  0  0  0  0  0  0  0  0  0
  149.6157  135.6450  156.9553 C   0  0  0  0  0  0  0  0  0  0  0  0
  148.7563  134.5611  157.6363 C   0  0  2  0  0  0  0  0  0  0  0  0
  147.3561  134.4191  157.0158 C   0  0  0  0  0  0  0  0  0  0  0  0
  148.6920  134.7916  159.0445 O   0  0  0  0  0  0  0  0  0  0  0  0
  148.0266  137.1751  161.3052 H   0  0  0  0  0  0  0  0  0  0  0  0
  149.3592  136.0208  161.3193 H   0  0  0  0  0  0  0  0  0  0  0  0
  147.6959  135.4489  161.4175 H   0  0  0  0  0  0  0  0  0  0  0  0
  147.2477  136.2627  159.1189 H   0  0  0  0  0  0  0  0  0  0  0  0
  148.8513  138.1428  159.0196 H   0  0  0  0  0  0  0  0  0  0  0  0
  150.2074  137.0435  159.1258 H   0  0  0  0  0  0  0  0  0  0  0  0
  150.2953  137.7085  155.6637 H   0  0  0  0  0  0  0  0  0  0  0  0
  149.4155  138.9322  156.5293 H   0  0  0  0  0  0  0  0  0  0  0  0
  151.0829  138.7521  158.4294 H   0  0  0  0  0  0  0  0  0  0  0  0
  151.9132  136.6692  156.7986 H   0  0  0  0  0  0  0  0  0  0  0  0
  153.1614  139.4666  156.9789 H   0  0  0  0  0  0  0  0  0  0  0  0
  152.0838  139.3007  155.6180 H   0  0  0  0  0  0  0  0  0  0  0  0
  150.3464  141.2759  155.1571 H   0  0  0  0  0  0  0  0  0  0  0  0
  150.7748  144.6992  158.8659 H   0  0  0  0  0  0  0  0  0  0  0  0
  153.1631  140.2846  159.3018 H   0  0  0  0  0  0  0  0  0  0  0  0
  149.5856  135.4873  155.8783 H   0  0  0  0  0  0  0  0  0  0  0  0
  150.6557  135.5090  157.2562 H   0  0  0  0  0  0  0  0  0  0  0  0
  149.2599  133.6029  157.5063 H   0  0  0  0  0  0  0  0  0  0  0  0
  147.4248  134.1233  155.9688 H   0  0  0  0  0  0  0  0  0  0  0  0
  146.7944  135.3522  157.0534 H   0  0  0  0  0  0  0  0  0  0  0  0
  146.7752  133.6578  157.5365 H   0  0  0  0  0  0  0  0  0  0  0  0
  149.9422  143.4995  156.3740 H   0  0  0  0  0  0  0  0  0  0  0  0
  1  2  1  0  0  0  0
  1 24  1  0  0  0  0
  1 25  1  0  0  0  0
  1 26  1  0  0  0  0
  2 23  1  0  0  0  0
  2  3  1  0  0  0  0
  2 27  1  0  0  0  0
  3  4  1  0  0  0  0
  3 28  1  0  0  0  0
  3 29  1  0  0  0  0
  4  5  1  0  0  0  0
  4 20  1  0  0  0  0
  5  6  1  0  0  0  0
  5 30  1  0  0  0  0
  5 31  1  0  0  0  0
  6  7  1  0  0  0  0
  6  8  1  0  0  0  0
  6 32  1  0  0  0  0
  7 33  1  0  0  0  0
  8  9  1  0  0  0  0
  8 34  1  0  0  0  0
  8 35  1  0  0  0  0
  9 19  1  0  0  0  0
  9 10  1  0  0  0  0
 10 11  2  0  0  0  0
 10 36  1  0  0  0  0
 11 12  1  0  0  0  0
 11 45  1  0  0  0  0
 12 19  2  0  0  0  0
 12 13  1  0  0  0  0
 13 14  2  0  0  0  0
 13 37  1  0  0  0  0
 14 15  1  0  0  0  0
 14 16  1  0  0  0  0
 16 17  1  0  0  0  0
 16 18  2  0  0  0  0
 18 19  1  0  0  0  0
 18 38  1  0  0  0  0
 20 21  1  0  0  0  0
 20 39  1  0  0  0  0
 20 40  1  0  0  0  0
 21 22  1  0  0  0  0
 21 23  1  0  0  0  0
 21 41  1  0  0  0  0
 22 42  1  0  0  0  0
 22 43  1  0  0  0  0
 22 44  1  0  0  0  0
M  CHG  1  11   1
M  END
> <s_m_source_file>
AV-unprocessed.smi

> <i_m_source_file_index>
1824

> <i_lp_mmshare_version>
43012

> <i_f3d_flags>
0

> <s_epik_input>
W0NIM11bQ0BASF0xW0NIMl1OKFtDSDJdW0NASF0oTzEpW0NIM10pW0NIMl1bQ0BIXShbT0hdKVtDSDJdbihbY0hdbjIpYyhjMjMpW2NIXWMoRiljKEYpW2NIXTM=

> <s_epik_cmdline>
J2VwaWtfcHl0aG9uJywgJy1waCcsICc3LjAnLCAnLXRuJywgJzgnLCAnLW1hJywgJzIwMCcsICctbWV0YWxfYmluZGluZycsICctaW1hZScsICc8aW5maWxlLm1hZT4nLCAnLW9tYWUnLCAnPG91dGZpbGUubWFlPic=

> <r_epik_Ionization_Penalty>
2.58709

> <r_epik_Ionization_Penalty_Charging>
2.37273

> <r_epik_Ionization_Penalty_Neutral>
0.214359

> <r_epik_State_Penalty>
2.71799

> <r_epik_Charging_Adjusted_Penalty>
5.09071

> <i_epik_Tot_Q>
1

> <i_epik_Tot_abs_Q>
1

> <r_epik_Metal_State_Penalty>
6.80217

> <b_epik_Metal_Only>
0

> <s_lp_Force_Field>
OPLS_2005

> <r_lp_Energy>
35.189

> <b_lp_Chiralities_Consistent>
1

> <s_lp_Variant>
AV-unprocessed.smi:1824-20

> <Gold.Version>
5.8.1

> <Gold.Id.Protein>
6NUR|6NUR_protein|mol2

> <Gold.PLP.Fitness>
47.7371

> <Gold.PLP.PLP>
-40.1614

> <Gold.PLP.part.hbond>
-2.0000

> <Gold.PLP.part.metal>
0.0000

> <Gold.PLP.part.buried>
-5.6250

> <Gold.PLP.part.nonpolar>
-32.4116

> <Gold.PLP.part.repulsive>
0.0730

> <Gold.PLP.ligand.clash>
0.0000

> <Gold.PLP.ligand.torsion>
0.7171

> <Gold.PLP.Chemscore.Hbond>
3.0000

> <Gold.PLP.Chemscore.CHOScore>
0.0000

> <Gold.PLP.Chemscore.Metal>
0.0000

> <Gold.Chemscore.Hbonds>
donor molecule, donor type, donor heavy atom, donor atom, acceptor molecule, acceptor atom, score
      L1  H    11    45       P1  8028  2.00
      P1  H  6896  6908       L1    23  0.98

> <Gold.PLP.Chemscore.Internal.Correction>
0.0098

> <Gold.Rescore>
     Score         DG    S(hbond)    S(metal)    S(lipo)     H(rot)  DE(clash)    DE(int)     intcor
     14.15     -15.01       1.42        0.00      91.68       2.32       0.02       0.84       ----

> <Gold.Chemscore.Fitness>
14.1511

> <Gold.Chemscore.DG>
-15.0106

> <Gold.Chemscore.ZeroCoef>
-5.4800

> <Gold.Chemscore.Hbond>
1.4208

> <Gold.Chemscore.Metal>
0.0000

> <Gold.Chemscore.Lipo>
91.6811

> <Gold.Chemscore.Internal_Hbond>
0.0000

> <Gold.Chemscore.DEClash>
0.0234

> <Gold.Chemscore.DEInternal>
0.8362

> <Gold.Chemscore.Rot>
2.3210

> <Gold.Chemscore.Internal.Correction>
   9.000000E+99

> <Gold.Chemscore.Hbonds>
donor molecule, donor type, donor heavy atom, donor atom, acceptor molecule, acceptor atom, score
      L1  H    11    45       P1  8028  1.00
      P1  H  6896  6908       L1    23  0.16

> <Gold.Chemscore.Hbond.Weighted>
-4.7456

> <Gold.Chemscore.Metal.Weighted>
-0.0000

> <Gold.Chemscore.Lipo.Weighted>
-10.7267

> <Gold.Chemscore.Internal_Hbond.Weighted>
0.0000

> <Gold.Chemscore.DEClash.Weighted>
0.0234

> <Gold.Chemscore.DEInternal.Weighted>
0.8362

> <Gold.Chemscore.Rot.Weighted>
5.9416

> <Gold.Chemscore.Internal.Correction.Weighted>
   9.000000E+99

> <Gold.Protein.RotatedTorsions>
[ 6907 6896 6895 6894 ] final  167.03 input  -60.11 | X-H torsion
[ 7974 7965 7964 7962 ] final -120.36 input  175.53 | X-H torsion
[ 8008 7997 7996 7995 ] final  135.25 input   59.86 | X-H torsion
[ 10167 10162 10161 10158 ] final   43.40 input  -65.29 | X-H torsion
[ 10718 10713 10712 10709 ] final  -26.51 input   66.30 | X-H torsion
[ 10763 10752 10751 10750 ] final  108.23 input  -60.55 | X-H torsion
[ 11005 11000 10999 10996 ] final  -22.90 input  -57.11 | X-H torsion

> <Gold.Protein.ActiveResidues>
 VAL166  LYS551  ARG553  GLY616  TRP617  ASP618  TYR619  PRO620  LYS621  CYS622 
 ASP623  PHE694  ASN695  SER759  ASP760  ASP761  ALA762  ILE779  LEU786  VAL792 
 PHE793  MET794  SER795  GLU796  ALA797  LYS798  CYS799  TRP800  GLU811  SER814 

> <Gold.Protein.RotatedAtoms>
  151.8696  133.3473  159.3730 H   0  0  0  0  0  0  0  0  0  0  0  0  # atno 6907 bound_to 6896
  150.7156  134.5126  159.5624 H   0  0  0  0  0  0  0  0  0  0  0  0  # atno 6908 bound_to 6896
  152.2656  134.7988  160.0474 H   0  0  0  0  0  0  0  0  0  0  0  0  # atno 6909 bound_to 6896
  145.0523  140.8227  143.4202 H   0  0  0  0  0  0  0  0  0  0  0  0  # atno 7974 bound_to 7965
  156.3002  140.2475  156.3551 H   0  0  0  0  0  0  0  0  0  0  0  0  # atno 8008 bound_to 7997
  154.8930  140.0408  157.1868 H   0  0  0  0  0  0  0  0  0  0  0  0  # atno 8009 bound_to 7997
  154.8578  140.2916  155.5562 H   0  0  0  0  0  0  0  0  0  0  0  0  # atno 8010 bound_to 7997
  140.3447  144.2425  150.6152 H   0  0  0  0  0  0  0  0  0  0  0  0  # atno 10167 bound_to 10162
  156.4503  130.4482  149.6994 H   0  0  0  0  0  0  0  0  0  0  0  0  # atno 10718 bound_to 10713
  153.4178  135.3818  155.2092 H   0  0  0  0  0  0  0  0  0  0  0  0  # atno 10763 bound_to 10752
  154.8742  135.3810  154.4421 H   0  0  0  0  0  0  0  0  0  0  0  0  # atno 10764 bound_to 10752
  153.4937  135.7088  153.5932 H   0  0  0  0  0  0  0  0  0  0  0  0  # atno 10765 bound_to 10752
  140.8701  133.7726  156.0176 H   0  0  0  0  0  0  0  0  0  0  0  0  # atno 11005 bound_to 11000
  145.1512  139.2513  143.5440 LP  0  0  0  0  0  0  0  0  0  0  0  0  # atno 17320 bound_to 7965
  146.3519  140.1215  142.8600 LP  0  0  0  0  0  0  0  0  0  0  0  0  # atno 17321 bound_to 7965
  140.5275  143.2251  151.8291 LP  0  0  0  0  0  0  0  0  0  0  0  0  # atno 17342 bound_to 10162
  139.4835  144.4761  151.9365 LP  0  0  0  0  0  0  0  0  0  0  0  0  # atno 17343 bound_to 10162
  156.3823  130.7585  151.2579 LP  0  0  0  0  0  0  0  0  0  0  0  0  # atno 17370 bound_to 10713
  157.7503  131.0292  150.4082 LP  0  0  0  0  0  0  0  0  0  0  0  0  # atno 17371 bound_to 10713
  140.8583  134.2871  157.5245 LP  0  0  0  0  0  0  0  0  0  0  0  0  # atno 17394 bound_to 11000
  139.8711  134.9504  156.4056 LP  0  0  0  0  0  0  0  0  0  0  0  0  # atno 17395 bound_to 11000

$$$$
