AV-unprocessed.smi:1157|AV-procd|sdf|4909|dock10
  -GOLD-   22720 3483D 1   1.00000     0.00000
 Structure written by MMmdl.
 56 58  0  0  0  0  0  0  0  0  3 V2000
  151.2988  132.5136  154.2363 C   0  0  0  0  0  0  0  0  0  0  0  0
  150.6056  133.9024  154.2289 C   0  0  0  0  0  0  0  0  0  0  0  0
  150.2345  134.2567  155.6896 C   0  0  0  0  0  0  0  0  0  0  0  0
  151.6158  134.9512  153.6699 C   0  0  0  0  0  0  0  0  0  0  0  0
  151.1836  136.3406  153.8270 N   0  0  0  0  0  0  0  0  0  0  0  0
  151.6133  137.1866  154.7746 C   0  0  0  0  0  0  0  0  0  0  0  0
  152.4190  136.8728  155.6505 O   0  0  0  0  0  0  0  0  0  0  0  0
  151.0317  138.3922  154.6530 N   0  0  0  0  0  0  0  0  0  0  0  0
  151.2342  139.5510  155.4501 C   0  0  0  0  0  0  0  0  0  0  0  0
  150.3525  140.6596  155.4736 C   0  0  0  0  0  0  0  0  0  0  0  0
  150.6354  141.7553  156.3148 C   0  0  0  0  0  0  0  0  0  0  0  0
  151.7912  141.7362  157.1305 C   0  0  0  0  0  0  0  0  0  0  0  0
  152.1315  142.7934  157.9954 N   0  0  0  0  0  0  0  0  0  0  0  0
  151.3334  144.0072  158.0656 C   0  0  0  0  0  0  0  0  0  0  0  0
  151.9361  144.7981  159.2256 C   0  0  0  0  0  0  0  0  0  0  0  0
  152.4151  143.7032  160.1792 C   0  0  0  0  0  0  0  0  0  0  0  0
  152.8245  142.5515  159.2533 C   0  0  0  0  0  0  0  0  0  0  0  0
  152.5937  140.6458  157.0879 N   0  3  0  0  0  0  0  0  0  0  0  0
  152.3600  139.5756  156.2982 C   0  0  0  0  0  0  0  0  0  0  0  0
  149.3834  133.8842  153.3405 N   0  3  0  0  0  0  0  0  0  0  0  0
  149.4307  132.9567  152.1725 C   0  0  0  0  0  0  0  0  0  0  0  0
  148.1959  133.1392  151.2722 C   0  0  0  0  0  0  0  0  0  0  0  0
  147.0085  132.9512  152.0272 O   0  0  0  0  0  0  0  0  0  0  0  0
  146.9034  133.9029  153.0750 C   0  0  0  0  0  0  0  0  0  0  0  0
  148.0795  133.7207  154.0472 C   0  0  0  0  0  0  0  0  0  0  0  0
  152.2324  132.5218  154.7977 H   0  0  0  0  0  0  0  0  0  0  0  0
  151.5318  132.1777  153.2250 H   0  0  0  0  0  0  0  0  0  0  0  0
  150.6901  131.7488  154.7183 H   0  0  0  0  0  0  0  0  0  0  0  0
  151.0979  134.1701  156.3501 H   0  0  0  0  0  0  0  0  0  0  0  0
  149.4672  133.5921  156.0862 H   0  0  0  0  0  0  0  0  0  0  0  0
  149.8706  135.2800  155.7847 H   0  0  0  0  0  0  0  0  0  0  0  0
  152.5989  134.7960  154.1181 H   0  0  0  0  0  0  0  0  0  0  0  0
  151.7579  134.8272  152.5982 H   0  0  0  0  0  0  0  0  0  0  0  0
  150.5129  136.6835  153.1547 H   0  0  0  0  0  0  0  0  0  0  0  0
  150.3212  138.4743  153.9403 H   0  0  0  0  0  0  0  0  0  0  0  0
  149.4550  140.6864  154.8750 H   0  0  0  0  0  0  0  0  0  0  0  0
  149.9544  142.5934  156.3311 H   0  0  0  0  0  0  0  0  0  0  0  0
  151.3704  144.5694  157.1320 H   0  0  0  0  0  0  0  0  0  0  0  0
  150.2943  143.7487  158.2749 H   0  0  0  0  0  0  0  0  0  0  0  0
  152.7897  145.3793  158.8736 H   0  0  0  0  0  0  0  0  0  0  0  0
  151.2258  145.4858  159.6855 H   0  0  0  0  0  0  0  0  0  0  0  0
  153.2260  144.0307  160.8305 H   0  0  0  0  0  0  0  0  0  0  0  0
  151.5857  143.3853  160.8124 H   0  0  0  0  0  0  0  0  0  0  0  0
  152.5623  141.5882  159.6922 H   0  0  0  0  0  0  0  0  0  0  0  0
  153.8996  142.5653  159.0712 H   0  0  0  0  0  0  0  0  0  0  0  0
  153.0843  138.7767  156.3664 H   0  0  0  0  0  0  0  0  0  0  0  0
  150.3014  133.1413  151.5460 H   0  0  0  0  0  0  0  0  0  0  0  0
  149.4897  131.9235  152.5164 H   0  0  0  0  0  0  0  0  0  0  0  0
  148.1942  134.1282  150.8111 H   0  0  0  0  0  0  0  0  0  0  0  0
  148.2141  132.4120  150.4599 H   0  0  0  0  0  0  0  0  0  0  0  0
  146.8812  134.9163  152.6702 H   0  0  0  0  0  0  0  0  0  0  0  0
  145.9586  133.7481  153.5963 H   0  0  0  0  0  0  0  0  0  0  0  0
  148.0156  132.7284  154.4948 H   0  0  0  0  0  0  0  0  0  0  0  0
  147.9609  134.4424  154.8518 H   0  0  0  0  0  0  0  0  0  0  0  0
  149.3536  134.8076  152.9317 H   0  0  0  0  0  0  0  0  0  0  0  0
  153.4206  140.6314  157.6852 H   0  0  0  0  0  0  0  0  0  0  0  0
  1  2  1  0  0  0  0
  1 26  1  0  0  0  0
  1 27  1  0  0  0  0
  1 28  1  0  0  0  0
  2  3  1  0  0  0  0
  2  4  1  0  0  0  0
  2 20  1  0  0  0  0
  3 29  1  0  0  0  0
  3 30  1  0  0  0  0
  3 31  1  0  0  0  0
  4  5  1  0  0  0  0
  4 32  1  0  0  0  0
  4 33  1  0  0  0  0
  5  6  1  0  0  0  0
  5 34  1  0  0  0  0
  6  7  2  0  0  0  0
  6  8  1  0  0  0  0
  8  9  1  0  0  0  0
  8 35  1  0  0  0  0
  9 19  1  0  0  0  0
  9 10  2  0  0  0  0
 10 11  1  0  0  0  0
 10 36  1  0  0  0  0
 11 12  2  0  0  0  0
 11 37  1  0  0  0  0
 12 13  1  0  0  0  0
 12 18  1  0  0  0  0
 13 17  1  0  0  0  0
 13 14  1  0  0  0  0
 14 15  1  0  0  0  0
 14 38  1  0  0  0  0
 14 39  1  0  0  0  0
 15 16  1  0  0  0  0
 15 40  1  0  0  0  0
 15 41  1  0  0  0  0
 16 17  1  0  0  0  0
 16 42  1  0  0  0  0
 16 43  1  0  0  0  0
 17 44  1  0  0  0  0
 17 45  1  0  0  0  0
 18 19  2  0  0  0  0
 18 56  1  0  0  0  0
 19 46  1  0  0  0  0
 20 25  1  0  0  0  0
 20 21  1  0  0  0  0
 20 55  1  0  0  0  0
 21 22  1  0  0  0  0
 21 47  1  0  0  0  0
 21 48  1  0  0  0  0
 22 23  1  0  0  0  0
 22 49  1  0  0  0  0
 22 50  1  0  0  0  0
 23 24  1  0  0  0  0
 24 25  1  0  0  0  0
 24 51  1  0  0  0  0
 24 52  1  0  0  0  0
 25 53  1  0  0  0  0
 25 54  1  0  0  0  0
M  CHG  1  18   1
M  CHG  1  20   1
M  END
> <s_m_source_file>
AV-unprocessed.smi

> <i_m_source_file_index>
1157

> <i_lp_mmshare_version>
43012

> <i_f3d_flags>
0

> <s_epik_input>
W0NIMl0xW0NIMl1PW0NIMl1bQ0gyXU4xQyhbQ0gzXSkoW0NIM10pW0NIMl1bTkhdQyg9TylbTkhdYzJbY0hdW2NIXWMobltjSF0yKU4zW0NIMl1bQ0gyXVtDSDJdW0NIMl0z

> <s_epik_cmdline>
J2VwaWtfcHl0aG9uJywgJy1waCcsICc3LjAnLCAnLXRuJywgJzgnLCAnLW1hJywgJzIwMCcsICctbWV0YWxfYmluZGluZycsICctaW1hZScsICc8aW5maWxlLm1hZT4nLCAnLW9tYWUnLCAnPG91dGZpbGUubWFlPic=

> <r_lp_tautomer_probability>
0.999994

> <r_epik_Ionization_Penalty>
1.80144

> <r_epik_Ionization_Penalty_Charging>
1.80142

> <r_epik_Ionization_Penalty_Neutral>
2.04065e-05

> <r_epik_State_Penalty>
1.84115

> <r_epik_Charging_Adjusted_Penalty>
3.64257

> <i_epik_Tot_Q>
2

> <i_epik_Tot_abs_Q>
2

> <r_epik_Metal_State_Penalty>
1.92436

> <b_epik_Metal_Only>
0

> <s_lp_Force_Field>
OPLS_2005

> <r_lp_Energy>
58.4852

> <b_lp_Chiralities_Consistent>
1

> <s_lp_Variant>
AV-unprocessed.smi:1157-4

> <Gold.Version>
5.8.1

> <Gold.Id.Protein>
6NUR|6NUR_protein|mol2

> <Gold.PLP.Fitness>
49.3323

> <Gold.PLP.PLP>
-43.9094

> <Gold.PLP.part.hbond>
-2.7784

> <Gold.PLP.part.metal>
0.0000

> <Gold.PLP.part.buried>
-4.2132

> <Gold.PLP.part.nonpolar>
-36.3389

> <Gold.PLP.part.repulsive>
0.3309

> <Gold.PLP.ligand.clash>
0.0000

> <Gold.PLP.ligand.torsion>
1.8140

> <Gold.PLP.Chemscore.Hbond>
2.9120

> <Gold.PLP.Chemscore.CHOScore>
0.0000

> <Gold.PLP.Chemscore.Metal>
0.0000

> <Gold.Chemscore.Hbonds>
donor molecule, donor type, donor heavy atom, donor atom, acceptor molecule, acceptor atom, score
      L1  H     5    34       P1  7948  0.09
      L1  H    20    55       P1  7948  0.40
      P1  H 10752 10763       L1     7  0.11

> <Gold.PLP.Chemscore.Internal.Correction>
0.3150

> <Gold.Rescore>
     Score         DG    S(hbond)    S(metal)    S(lipo)     H(rot)  DE(clash)    DE(int)     intcor
     16.69     -19.95       1.71        0.00     106.58       1.45       0.02       3.25       ----

> <Gold.Chemscore.Fitness>
16.6864

> <Gold.Chemscore.DG>
-19.9538

> <Gold.Chemscore.ZeroCoef>
-5.4800

> <Gold.Chemscore.Hbond>
1.7080

> <Gold.Chemscore.Metal>
0.0000

> <Gold.Chemscore.Lipo>
106.5831

> <Gold.Chemscore.Internal_Hbond>
0.0000

> <Gold.Chemscore.DEClash>
0.0175

> <Gold.Chemscore.DEInternal>
3.2499

> <Gold.Chemscore.Rot>
1.4458

> <Gold.Chemscore.Internal.Correction>
   9.000000E+99

> <Gold.Chemscore.Hbond.Weighted>
-5.7048

> <Gold.Chemscore.Metal.Weighted>
-0.0000

> <Gold.Chemscore.Lipo.Weighted>
-12.4702

> <Gold.Chemscore.Internal_Hbond.Weighted>
0.0000

> <Gold.Chemscore.DEClash.Weighted>
0.0175

> <Gold.Chemscore.DEInternal.Weighted>
3.2499

> <Gold.Chemscore.Rot.Weighted>
3.7012

> <Gold.Chemscore.Internal.Correction.Weighted>
   9.000000E+99

> <Gold.Protein.RotatedTorsions>
[ 6907 6896 6895 6894 ] final -173.10 input  -60.11 | X-H torsion
[ 7974 7965 7964 7962 ] final  179.43 input  175.53 | X-H torsion
[ 8008 7997 7996 7995 ] final   37.79 input   59.86 | X-H torsion
[ 10167 10162 10161 10158 ] final -132.76 input  -65.29 | X-H torsion
[ 10718 10713 10712 10709 ] final -159.68 input   66.30 | X-H torsion
[ 10763 10752 10751 10750 ] final   48.47 input  -60.55 | X-H torsion
[ 11005 11000 10999 10996 ] final  149.83 input  -57.11 | X-H torsion

> <Gold.Protein.ActiveResidues>
 VAL166  LYS551  ARG553  GLY616  TRP617  ASP618  TYR619  PRO620  LYS621  CYS622 
 ASP623  PHE694  ASN695  SER759  ASP760  ASP761  ALA762  ILE779  LEU786  VAL792 
 PHE793  MET794  SER795  GLU796  ALA797  LYS798  CYS799  TRP800  GLU811  SER814 

> <Gold.Protein.RotatedAtoms>
  151.5508  133.3418  159.2952 H   0  0  0  0  0  0  0  0  0  0  0  0  # atno 6907 bound_to 6896
  150.8480  134.7798  159.6997 H   0  0  0  0  0  0  0  0  0  0  0  0  # atno 6908 bound_to 6896
  152.4533  134.5354  159.9875 H   0  0  0  0  0  0  0  0  0  0  0  0  # atno 6909 bound_to 6896
  144.7146  140.0547  143.6434 H   0  0  0  0  0  0  0  0  0  0  0  0  # atno 7974 bound_to 7965
  155.2095  140.3322  155.4331 H   0  0  0  0  0  0  0  0  0  0  0  0  # atno 8008 bound_to 7997
  156.2376  140.1879  156.7126 H   0  0  0  0  0  0  0  0  0  0  0  0  # atno 8009 bound_to 7997
  154.6087  140.0612  156.9451 H   0  0  0  0  0  0  0  0  0  0  0  0  # atno 8010 bound_to 7997
  139.9052  143.6559  152.2587 H   0  0  0  0  0  0  0  0  0  0  0  0  # atno 10167 bound_to 10162
  156.5715  130.8690  151.2839 H   0  0  0  0  0  0  0  0  0  0  0  0  # atno 10718 bound_to 10713
  152.9792  135.5943  154.3932 H   0  0  0  0  0  0  0  0  0  0  0  0  # atno 10763 bound_to 10752
  154.3585  135.2767  155.2335 H   0  0  0  0  0  0  0  0  0  0  0  0  # atno 10764 bound_to 10752
  154.4343  135.6029  153.6143 H   0  0  0  0  0  0  0  0  0  0  0  0  # atno 10765 bound_to 10752
  140.1078  134.8943  157.1892 H   0  0  0  0  0  0  0  0  0  0  0  0  # atno 11005 bound_to 11000
  145.9914  139.3018  143.0982 LP  0  0  0  0  0  0  0  0  0  0  0  0  # atno 17320 bound_to 7965
  145.8898  140.9311  143.0558 LP  0  0  0  0  0  0  0  0  0  0  0  0  # atno 17321 bound_to 7965
  139.6990  144.7637  151.1306 LP  0  0  0  0  0  0  0  0  0  0  0  0  # atno 17342 bound_to 10162
  140.7698  143.5484  150.9233 LP  0  0  0  0  0  0  0  0  0  0  0  0  # atno 17343 bound_to 10162
  157.7347  130.9750  150.2043 LP  0  0  0  0  0  0  0  0  0  0  0  0  # atno 17370 bound_to 10713
  156.2711  130.3722  149.8031 LP  0  0  0  0  0  0  0  0  0  0  0  0  # atno 17371 bound_to 10713
  140.3132  134.3000  155.7262 LP  0  0  0  0  0  0  0  0  0  0  0  0  # atno 17394 bound_to 11000
  141.2122  133.7663  156.9806 LP  0  0  0  0  0  0  0  0  0  0  0  0  # atno 17395 bound_to 11000

$$$$
