AV-unprocessed.smi:3303|AV-procd|sdf|12694|dock1
  -GOLD-   2272019 23D 1   1.00000     0.00000
 Structure written by MMmdl.
 44 45  0  0  0  0  0  0  0  0  2 V2000
  147.2708  141.9645  154.0719 C   0  0  0  0  0  0  0  0  0  0  0  0
  148.0747  140.7570  154.5853 C   0  0  1  0  0  0  0  0  0  0  0  0
  147.9311  139.5756  153.5981 C   0  0  0  0  0  0  0  0  0  0  0  0
  148.7102  138.3816  154.0150 N   0  3  2  0  0  0  0  0  0  0  0  0
  148.0905  137.6551  155.1526 C   0  0  0  0  0  0  0  0  0  0  0  0
  150.1575  138.7031  154.1696 C   0  0  2  0  0  0  0  0  0  0  0  0
  151.0175  137.4661  154.4817 C   0  0  0  0  0  0  0  0  0  0  0  0
  150.3694  139.8387  155.1892 C   0  0  0  0  0  0  0  0  0  0  0  0
  149.5683  141.0986  154.8089 C   0  0  2  0  0  0  0  0  0  0  0  0
  149.7049  142.0455  155.9094 N   0  0  0  0  0  0  0  0  0  0  0  0
  149.3235  141.4434  157.1780 C   0  0  0  0  0  0  0  0  0  0  0  0
  150.5654  141.2868  158.0661 C   0  0  0  0  0  0  0  0  0  0  0  0
  151.0543  142.6165  158.6083 C   0  0  0  0  0  0  0  0  0  0  0  0
  152.2758  142.7033  159.3098 C   0  0  0  0  0  0  0  0  0  0  0  0
  152.6831  143.9613  159.7945 C   0  0  0  0  0  0  0  0  0  0  0  0
  151.8573  145.0781  159.5618 C   0  0  0  0  0  0  0  0  0  0  0  0
  150.6558  144.8860  158.8510 C   0  0  0  0  0  0  0  0  0  0  0  0
  150.2558  143.6841  158.3819 N   0  0  0  0  0  0  0  0  0  0  0  0
  147.6785  142.3423  153.1338 H   0  0  0  0  0  0  0  0  0  0  0  0
  147.2746  142.7836  154.7911 H   0  0  0  0  0  0  0  0  0  0  0  0
  146.2287  141.6958  153.8969 H   0  0  0  0  0  0  0  0  0  0  0  0
  147.6396  140.4570  155.5399 H   0  0  0  0  0  0  0  0  0  0  0  0
  146.8817  139.3036  153.4770 H   0  0  0  0  0  0  0  0  0  0  0  0
  148.2784  139.8810  152.6100 H   0  0  0  0  0  0  0  0  0  0  0  0
  148.1594  138.2154  156.0846 H   0  0  0  0  0  0  0  0  0  0  0  0
  148.5588  136.6831  155.3045 H   0  0  0  0  0  0  0  0  0  0  0  0
  147.0352  137.4672  154.9538 H   0  0  0  0  0  0  0  0  0  0  0  0
  150.4915  139.0705  153.1978 H   0  0  0  0  0  0  0  0  0  0  0  0
  152.0784  137.7130  154.4316 H   0  0  0  0  0  0  0  0  0  0  0  0
  150.8343  136.6654  153.7644 H   0  0  0  0  0  0  0  0  0  0  0  0
  150.8267  137.0762  155.4817 H   0  0  0  0  0  0  0  0  0  0  0  0
  150.0896  139.4979  156.1871 H   0  0  0  0  0  0  0  0  0  0  0  0
  151.4304  140.0866  155.2429 H   0  0  0  0  0  0  0  0  0  0  0  0
  149.9853  141.5071  153.8863 H   0  0  0  0  0  0  0  0  0  0  0  0
  149.1206  142.8519  155.7390 H   0  0  0  0  0  0  0  0  0  0  0  0
  148.5854  142.0753  157.6739 H   0  0  0  0  0  0  0  0  0  0  0  0
  148.8610  140.4709  157.0047 H   0  0  0  0  0  0  0  0  0  0  0  0
  150.3459  140.6193  158.9006 H   0  0  0  0  0  0  0  0  0  0  0  0
  151.3743  140.8185  157.5030 H   0  0  0  0  0  0  0  0  0  0  0  0
  152.8873  141.8282  159.4738 H   0  0  0  0  0  0  0  0  0  0  0  0
  153.6119  144.0676  160.3350 H   0  0  0  0  0  0  0  0  0  0  0  0
  152.1375  146.0577  159.9195 H   0  0  0  0  0  0  0  0  0  0  0  0
  149.9985  145.7199  158.6544 H   0  0  0  0  0  0  0  0  0  0  0  0
  148.6540  137.7394  153.2372 H   0  0  0  0  0  0  0  0  0  0  0  0
  1  2  1  0  0  0  0
  1 19  1  0  0  0  0
  1 20  1  0  0  0  0
  1 21  1  0  0  0  0
  2  9  1  0  0  0  0
  2  3  1  0  0  0  0
  2 22  1  0  0  0  0
  3  4  1  0  0  0  0
  3 23  1  0  0  0  0
  3 24  1  0  0  0  0
  4  5  1  0  0  0  0
  4  6  1  0  0  0  0
  4 44  1  0  0  0  0
  5 25  1  0  0  0  0
  5 26  1  0  0  0  0
  5 27  1  0  0  0  0
  6  7  1  0  0  0  0
  6  8  1  0  0  0  0
  6 28  1  0  0  0  0
  7 29  1  0  0  0  0
  7 30  1  0  0  0  0
  7 31  1  0  0  0  0
  8  9  1  0  0  0  0
  8 32  1  0  0  0  0
  8 33  1  0  0  0  0
  9 10  1  0  0  0  0
  9 34  1  0  0  0  0
 10 11  1  0  0  0  0
 10 35  1  0  0  0  0
 11 12  1  0  0  0  0
 11 36  1  0  0  0  0
 11 37  1  0  0  0  0
 12 13  1  0  0  0  0
 12 38  1  0  0  0  0
 12 39  1  0  0  0  0
 13 18  1  0  0  0  0
 13 14  2  0  0  0  0
 14 15  1  0  0  0  0
 14 40  1  0  0  0  0
 15 16  2  0  0  0  0
 15 41  1  0  0  0  0
 16 17  1  0  0  0  0
 16 42  1  0  0  0  0
 17 18  2  0  0  0  0
 17 43  1  0  0  0  0
M  CHG  1   4   1
M  END
> <s_m_source_file>
AV-unprocessed.smi

> <i_m_source_file_index>
3303

> <i_lp_mmshare_version>
43012

> <i_f3d_flags>
0

> <s_epik_input>
W0NIM11bQ0BASF0xW0NIMl1OKFtDSDNdKVtDQEBIXShbQ0gzXSlbQ0gyXVtDQEhdMVtOSF1bQ0gyXVtDSDJdYzJbY0hdW2NIXVtjSF1bY0hdbjI=

> <s_epik_cmdline>
J2VwaWtfcHl0aG9uJywgJy1waCcsICc3LjAnLCAnLXRuJywgJzgnLCAnLW1hJywgJzIwMCcsICctbWV0YWxfYmluZGluZycsICctaW1hZScsICc8aW5maWxlLm1hZT4nLCAnLW9tYWUnLCAnPG91dGZpbGUubWFlPic=

> <r_epik_Ionization_Penalty>
2.31085

> <r_epik_Ionization_Penalty_Charging>
0.000313057

> <r_epik_Ionization_Penalty_Neutral>
2.31054

> <r_epik_State_Penalty>
2.4087

> <r_epik_Charging_Adjusted_Penalty>
2.40902

> <i_epik_Tot_Q>
1

> <i_epik_Tot_abs_Q>
1

> <r_epik_Metal_State_Penalty>
2.30979

> <b_epik_Metal_Only>
0

> <s_lp_Force_Field>
OPLS_2005

> <r_lp_Energy>
26.2858

> <b_lp_Chiralities_Consistent>
1

> <s_lp_Variant>
AV-unprocessed.smi:3303-38

> <Gold.Version>
5.8.1

> <Gold.Id.Protein>
6NUR|6NUR_protein|mol2

> <Gold.PLP.Fitness>
51.1751

> <Gold.PLP.PLP>
-40.1158

> <Gold.PLP.part.hbond>
-2.0000

> <Gold.PLP.part.metal>
0.0000

> <Gold.PLP.part.buried>
-3.2293

> <Gold.PLP.part.nonpolar>
-35.5287

> <Gold.PLP.part.repulsive>
0.1932

> <Gold.PLP.ligand.clash>
0.0000

> <Gold.PLP.ligand.torsion>
0.4778

> <Gold.PLP.Chemscore.Hbond>
3.0000

> <Gold.PLP.Chemscore.CHOScore>
1.0000

> <Gold.PLP.Chemscore.Metal>
0.0000

> <Gold.Chemscore.Hbonds>
donor molecule, donor type, donor heavy atom, donor atom, acceptor molecule, acceptor atom, score
      L1  H     4    44       P1  7948  1.92
      L1  H    10    35       P1  8028  1.00
      L1  C    17    43       P1  8029  1.00

> <Gold.PLP.Chemscore.Internal.Correction>
0.0149

> <Gold.Rescore>
     Score         DG    S(hbond)    S(metal)    S(lipo)     H(rot)  DE(clash)    DE(int)     intcor
     21.33     -21.99       1.92        0.00     115.27       1.33       0.19       0.47       ----

> <Gold.Chemscore.Fitness>
21.3306

> <Gold.Chemscore.DG>
-21.9915

> <Gold.Chemscore.ZeroCoef>
-5.4800

> <Gold.Chemscore.Hbond>
1.9229

> <Gold.Chemscore.Metal>
0.0000

> <Gold.Chemscore.Lipo>
115.2707

> <Gold.Chemscore.Internal_Hbond>
0.0000

> <Gold.Chemscore.DEClash>
0.1948

> <Gold.Chemscore.DEInternal>
0.4661

> <Gold.Chemscore.Rot>
1.3272

> <Gold.Chemscore.Internal.Correction>
   9.000000E+99

> <Gold.Chemscore.Hbonds>
donor molecule, donor type, donor heavy atom, donor atom, acceptor molecule, acceptor atom, score
      L1  H     4    44       P1  7948  0.91
      L1  H    10    35       P1  8028  0.95

> <Gold.Chemscore.Hbond.Weighted>
-6.4225

> <Gold.Chemscore.Metal.Weighted>
-0.0000

> <Gold.Chemscore.Lipo.Weighted>
-13.4867

> <Gold.Chemscore.Internal_Hbond.Weighted>
0.0000

> <Gold.Chemscore.DEClash.Weighted>
0.1948

> <Gold.Chemscore.DEInternal.Weighted>
0.4661

> <Gold.Chemscore.Rot.Weighted>
3.3976

> <Gold.Chemscore.Internal.Correction.Weighted>
   9.000000E+99

> <Gold.Protein.RotatedTorsions>
[ 6907 6896 6895 6894 ] final -105.93 input  -60.11 | X-H torsion
[ 7974 7965 7964 7962 ] final  -25.74 input  175.53 | X-H torsion
[ 8008 7997 7996 7995 ] final   36.58 input   59.86 | X-H torsion
[ 10167 10162 10161 10158 ] final  -57.93 input  -65.29 | X-H torsion
[ 10718 10713 10712 10709 ] final -115.31 input   66.30 | X-H torsion
[ 10763 10752 10751 10750 ] final   29.68 input  -60.55 | X-H torsion
[ 11005 11000 10999 10996 ] final   81.56 input  -57.11 | X-H torsion

> <Gold.Protein.ActiveResidues>
 VAL166  LYS551  ARG553  GLY616  TRP617  ASP618  TYR619  PRO620  LYS621  CYS622 
 ASP623  PHE694  ASN695  SER759  ASP760  ASP761  ALA762  ILE779  LEU786  VAL792 
 PHE793  MET794  SER795  GLU796  ALA797  LYS798  CYS799  TRP800  GLU811  SER814 

> <Gold.Protein.RotatedAtoms>
  150.7362  134.0053  159.3651 H   0  0  0  0  0  0  0  0  0  0  0  0  # atno 6907 bound_to 6896
  151.8010  135.0707  160.0409 H   0  0  0  0  0  0  0  0  0  0  0  0  # atno 6908 bound_to 6896
  152.3141  133.5747  159.5736 H   0  0  0  0  0  0  0  0  0  0  0  0  # atno 6909 bound_to 6896
  146.1471  140.4926  142.8627 H   0  0  0  0  0  0  0  0  0  0  0  0  # atno 7974 bound_to 7965
  155.1898  140.3307  155.4360 H   0  0  0  0  0  0  0  0  0  0  0  0  # atno 8008 bound_to 7997
  156.2446  140.1912  156.6941 H   0  0  0  0  0  0  0  0  0  0  0  0  # atno 8009 bound_to 7997
  154.6214  140.0595  156.9605 H   0  0  0  0  0  0  0  0  0  0  0  0  # atno 8010 bound_to 7997
  140.6228  143.2426  151.5437 H   0  0  0  0  0  0  0  0  0  0  0  0  # atno 10167 bound_to 10162
  156.0887  130.6074  150.8889 H   0  0  0  0  0  0  0  0  0  0  0  0  # atno 10718 bound_to 10713
  153.0416  135.6483  154.0929 H   0  0  0  0  0  0  0  0  0  0  0  0  # atno 10763 bound_to 10752
  154.0634  135.2886  155.3322 H   0  0  0  0  0  0  0  0  0  0  0  0  # atno 10764 bound_to 10752
  154.6642  135.5380  153.8121 H   0  0  0  0  0  0  0  0  0  0  0  0  # atno 10765 bound_to 10752
  139.9094  134.8006  156.2058 H   0  0  0  0  0  0  0  0  0  0  0  0  # atno 11005 bound_to 11000
  144.7860  140.5937  143.6573 LP  0  0  0  0  0  0  0  0  0  0  0  0  # atno 17320 bound_to 7965
  145.4910  139.1488  143.3709 LP  0  0  0  0  0  0  0  0  0  0  0  0  # atno 17321 bound_to 7965
  139.5454  144.2536  152.1431 LP  0  0  0  0  0  0  0  0  0  0  0  0  # atno 17342 bound_to 10162
  140.1760  144.4890  150.6553 LP  0  0  0  0  0  0  0  0  0  0  0  0  # atno 17343 bound_to 10162
  157.6030  131.0940  150.8928 LP  0  0  0  0  0  0  0  0  0  0  0  0  # atno 17370 bound_to 10713
  156.9082  130.5271  149.5281 LP  0  0  0  0  0  0  0  0  0  0  0  0  # atno 17371 bound_to 10713
  141.0496  133.6895  156.1747 LP  0  0  0  0  0  0  0  0  0  0  0  0  # atno 17394 bound_to 11000
  140.6830  134.4746  157.5589 LP  0  0  0  0  0  0  0  0  0  0  0  0  # atno 17395 bound_to 11000

$$$$
