AV-unprocessed.smi:1684|AV-procd|sdf|6756|dock4
  -GOLD-   22720 7513D 1   1.00000     0.00000
 Structure written by MMmdl.
 43 44  0  0  0  0  0  0  0  0  2 V2000
  151.0926  145.0418  158.2969 C   0  0  0  0  0  0  0  0  0  0  0  0
  151.6705  143.6772  158.6371 C   0  0  0  0  0  0  0  0  0  0  0  0
  152.7764  143.5948  159.5098 C   0  0  0  0  0  0  0  0  0  0  0  0
  153.3117  142.3334  159.8216 C   0  0  0  0  0  0  0  0  0  0  0  0
  152.7152  141.2001  159.2433 C   0  0  0  0  0  0  0  0  0  0  0  0
  151.6582  141.2696  158.4083 N   0  0  0  0  0  0  0  0  0  0  0  0
  151.1272  142.4796  158.0995 C   0  0  0  0  0  0  0  0  0  0  0  0
  150.0133  142.6275  157.2250 N   0  0  0  0  0  0  0  0  0  0  0  0
  149.0883  141.7110  156.8897 C   0  0  0  0  0  0  0  0  0  0  0  0
  149.0251  140.5654  157.3363 O   0  0  0  0  0  0  0  0  0  0  0  0
  148.2318  142.1942  155.9766 N   0  0  0  0  0  0  0  0  0  0  0  0
  147.1053  141.4691  155.3859 C   0  0  1  0  0  0  0  0  0  0  0  0
  145.8137  142.2560  155.6463 C   0  0  0  0  0  0  0  0  0  0  0  0
  147.3180  141.2275  153.8729 C   0  0  0  0  0  0  0  0  0  0  0  0
  146.5321  140.0813  153.3494 N   0  3  0  0  0  0  0  0  0  0  0  0
  147.1290  139.4511  152.1469 C   0  0  0  0  0  0  0  0  0  0  0  0
  146.2060  138.3396  151.6206 C   0  0  0  0  0  0  0  0  0  0  0  0
  145.9821  137.3811  152.6481 O   0  0  0  0  0  0  0  0  0  0  0  0
  145.3434  137.9540  153.7829 C   0  0  0  0  0  0  0  0  0  0  0  0
  146.2362  139.0569  154.3774 C   0  0  0  0  0  0  0  0  0  0  0  0
  151.6535  145.8418  158.7810 H   0  0  0  0  0  0  0  0  0  0  0  0
  150.0559  145.1109  158.6278 H   0  0  0  0  0  0  0  0  0  0  0  0
  151.1264  145.2142  157.2205 H   0  0  0  0  0  0  0  0  0  0  0  0
  153.2124  144.4864  159.9365 H   0  0  0  0  0  0  0  0  0  0  0  0
  154.1573  142.2370  160.4865 H   0  0  0  0  0  0  0  0  0  0  0  0
  153.0958  140.2119  159.4549 H   0  0  0  0  0  0  0  0  0  0  0  0
  149.9266  143.5332  156.7881 H   0  0  0  0  0  0  0  0  0  0  0  0
  148.3605  143.1479  155.6707 H   0  0  0  0  0  0  0  0  0  0  0  0
  146.9958  140.5083  155.8906 H   0  0  0  0  0  0  0  0  0  0  0  0
  144.9464  141.7287  155.2475 H   0  0  0  0  0  0  0  0  0  0  0  0
  145.8462  143.2419  155.1812 H   0  0  0  0  0  0  0  0  0  0  0  0
  145.6478  142.3975  156.7149 H   0  0  0  0  0  0  0  0  0  0  0  0
  147.0801  142.1253  153.3002 H   0  0  0  0  0  0  0  0  0  0  0  0
  148.3798  141.0369  153.7080 H   0  0  0  0  0  0  0  0  0  0  0  0
  147.2842  140.1937  151.3649 H   0  0  0  0  0  0  0  0  0  0  0  0
  148.1082  139.0381  152.3941 H   0  0  0  0  0  0  0  0  0  0  0  0
  145.2560  138.7521  151.2767 H   0  0  0  0  0  0  0  0  0  0  0  0
  146.6655  137.8420  150.7665 H   0  0  0  0  0  0  0  0  0  0  0  0
  144.3672  138.3533  153.5022 H   0  0  0  0  0  0  0  0  0  0  0  0
  145.1672  137.1729  154.5225 H   0  0  0  0  0  0  0  0  0  0  0  0
  147.1686  138.6288  154.7490 H   0  0  0  0  0  0  0  0  0  0  0  0
  145.7303  139.5171  155.2269 H   0  0  0  0  0  0  0  0  0  0  0  0
  145.6389  140.4588  153.0655 H   0  0  0  0  0  0  0  0  0  0  0  0
  1  2  1  0  0  0  0
  1 21  1  0  0  0  0
  1 22  1  0  0  0  0
  1 23  1  0  0  0  0
  2  7  1  0  0  0  0
  2  3  2  0  0  0  0
  3  4  1  0  0  0  0
  3 24  1  0  0  0  0
  4  5  2  0  0  0  0
  4 25  1  0  0  0  0
  5  6  1  0  0  0  0
  5 26  1  0  0  0  0
  6  7  2  0  0  0  0
  7  8  1  0  0  0  0
  8  9  1  0  0  0  0
  8 27  1  0  0  0  0
  9 10  2  0  0  0  0
  9 11  1  0  0  0  0
 11 12  1  0  0  0  0
 11 28  1  0  0  0  0
 12 13  1  0  0  0  0
 12 14  1  0  0  0  0
 12 29  1  0  0  0  0
 13 30  1  0  0  0  0
 13 31  1  0  0  0  0
 13 32  1  0  0  0  0
 14 15  1  0  0  0  0
 14 33  1  0  0  0  0
 14 34  1  0  0  0  0
 15 20  1  0  0  0  0
 15 16  1  0  0  0  0
 15 43  1  0  0  0  0
 16 17  1  0  0  0  0
 16 35  1  0  0  0  0
 16 36  1  0  0  0  0
 17 18  1  0  0  0  0
 17 37  1  0  0  0  0
 17 38  1  0  0  0  0
 18 19  1  0  0  0  0
 19 20  1  0  0  0  0
 19 39  1  0  0  0  0
 19 40  1  0  0  0  0
 20 41  1  0  0  0  0
 20 42  1  0  0  0  0
M  CHG  1  15   1
M  END
> <s_m_source_file>
AV-unprocessed.smi

> <i_m_source_file_index>
1684

> <i_lp_mmshare_version>
43012

> <i_f3d_flags>
0

> <s_epik_input>
W0NIM11jMVtjSF1bY0hdW2NIXW5jMVtOSF1DKD1PKVtOSF1bQ0BIXShbQ0gzXSlbQ0gyXU4yW0NIMl1bQ0gyXU9bQ0gyXVtDSDJdMg==

> <s_epik_cmdline>
J2VwaWtfcHl0aG9uJywgJy1waCcsICc3LjAnLCAnLXRuJywgJzgnLCAnLW1hJywgJzIwMCcsICctbWV0YWxfYmluZGluZycsICctaW1hZScsICc8aW5maWxlLm1hZT4nLCAnLW9tYWUnLCAnPG91dGZpbGUubWFlPic=

> <r_epik_Ionization_Penalty>
0.602571

> <r_epik_Ionization_Penalty_Charging>
0.602531

> <r_epik_Ionization_Penalty_Neutral>
4.09763e-05

> <r_epik_State_Penalty>
0.617039

> <r_epik_Charging_Adjusted_Penalty>
1.21957

> <i_epik_Tot_Q>
1

> <i_epik_Tot_abs_Q>
1

> <r_epik_Metal_State_Penalty>
0.617043

> <b_epik_Metal_Only>
0

> <s_lp_Force_Field>
OPLS_2005

> <r_lp_Energy>
24.8229

> <b_lp_Chiralities_Consistent>
1

> <s_lp_Variant>
AV-unprocessed.smi:1684-4

> <Gold.Version>
5.8.1

> <Gold.Id.Protein>
6NUR|6NUR_protein|mol2

> <Gold.PLP.Fitness>
44.7935

> <Gold.PLP.PLP>
-34.1927

> <Gold.PLP.part.hbond>
-3.0000

> <Gold.PLP.part.metal>
0.0000

> <Gold.PLP.part.buried>
-0.3585

> <Gold.PLP.part.nonpolar>
-32.2314

> <Gold.PLP.part.repulsive>
0.3313

> <Gold.PLP.ligand.clash>
0.0000

> <Gold.PLP.ligand.torsion>
0.7095

> <Gold.PLP.Chemscore.Hbond>
3.9920

> <Gold.PLP.Chemscore.CHOScore>
0.0000

> <Gold.PLP.Chemscore.Metal>
0.0000

> <Gold.Chemscore.Hbonds>
donor molecule, donor type, donor heavy atom, donor atom, acceptor molecule, acceptor atom, score
      L1  H     8    27       P1  8028  0.98
      L1  H    11    28       P1  8028  1.00
      L1  H    15    43       P1 10175  1.95

> <Gold.PLP.Chemscore.Internal.Correction>
0.0439

> <Gold.Rescore>
     Score         DG    S(hbond)    S(metal)    S(lipo)     H(rot)  DE(clash)    DE(int)     intcor
     18.87     -22.19       2.87        0.00      93.92       1.51       1.41       1.91       ----

> <Gold.Chemscore.Fitness>
18.8665

> <Gold.Chemscore.DG>
-22.1896

> <Gold.Chemscore.ZeroCoef>
-5.4800

> <Gold.Chemscore.Hbond>
2.8673

> <Gold.Chemscore.Metal>
0.0000

> <Gold.Chemscore.Lipo>
93.9191

> <Gold.Chemscore.Internal_Hbond>
0.0000

> <Gold.Chemscore.DEClash>
1.4120

> <Gold.Chemscore.DEInternal>
1.9110

> <Gold.Chemscore.Rot>
1.5061

> <Gold.Chemscore.Internal.Correction>
   9.000000E+99

> <Gold.Chemscore.Hbonds>
donor molecule, donor type, donor heavy atom, donor atom, acceptor molecule, acceptor atom, score
      L1  H     8    27       P1  8028  0.93
      L1  H    11    28       P1  8028  0.95
      L1  H    15    43       P1 10175  0.83

> <Gold.Chemscore.Hbond.Weighted>
-9.5768

> <Gold.Chemscore.Metal.Weighted>
-0.0000

> <Gold.Chemscore.Lipo.Weighted>
-10.9885

> <Gold.Chemscore.Internal_Hbond.Weighted>
0.0000

> <Gold.Chemscore.DEClash.Weighted>
1.4120

> <Gold.Chemscore.DEInternal.Weighted>
1.9110

> <Gold.Chemscore.Rot.Weighted>
3.8557

> <Gold.Chemscore.Internal.Correction.Weighted>
   9.000000E+99

> <Gold.Protein.RotatedTorsions>
[ 6907 6896 6895 6894 ] final   91.26 input  -60.11 | X-H torsion
[ 7974 7965 7964 7962 ] final -153.41 input  175.53 | X-H torsion
[ 8008 7997 7996 7995 ] final   -9.87 input   59.86 | X-H torsion
[ 10167 10162 10161 10158 ] final  173.25 input  -65.29 | X-H torsion
[ 10718 10713 10712 10709 ] final   79.34 input   66.30 | X-H torsion
[ 10763 10752 10751 10750 ] final  -19.35 input  -60.55 | X-H torsion
[ 11005 11000 10999 10996 ] final  148.54 input  -57.11 | X-H torsion

> <Gold.Protein.ActiveResidues>
 VAL166  LYS551  ARG553  GLY616  TRP617  ASP618  TYR619  PRO620  LYS621  CYS622 
 ASP623  PHE694  ASN695  SER759  ASP760  ASP761  ALA762  ILE779  LEU786  VAL792 
 PHE793  MET794  SER795  GLU796  ALA797  LYS798  CYS799  TRP800  GLU811  SER814 

> <Gold.Protein.RotatedAtoms>
  152.5449  134.1683  159.8586 H   0  0  0  0  0  0  0  0  0  0  0  0  # atno 6907 bound_to 6896
  151.1696  133.4786  159.2601 H   0  0  0  0  0  0  0  0  0  0  0  0  # atno 6908 bound_to 6896
  151.1289  135.0131  159.8628 H   0  0  0  0  0  0  0  0  0  0  0  0  # atno 6909 bound_to 6896
  144.7742  140.4529  143.5885 H   0  0  0  0  0  0  0  0  0  0  0  0  # atno 7974 bound_to 7965
  154.5607  140.2344  155.8340 H   0  0  0  0  0  0  0  0  0  0  0  0  # atno 8008 bound_to 7997
  156.2027  140.3048  155.9520 H   0  0  0  0  0  0  0  0  0  0  0  0  # atno 8009 bound_to 7997
  155.2894  140.0426  157.3012 H   0  0  0  0  0  0  0  0  0  0  0  0  # atno 8010 bound_to 7997
  139.5102  144.3282  152.0137 H   0  0  0  0  0  0  0  0  0  0  0  0  # atno 10167 bound_to 10162
  157.6774  130.9910  150.1919 H   0  0  0  0  0  0  0  0  0  0  0  0  # atno 10718 bound_to 10713
  153.6035  135.6998  153.5375 H   0  0  0  0  0  0  0  0  0  0  0  0  # atno 10763 bound_to 10752
  153.3077  135.4110  155.1308 H   0  0  0  0  0  0  0  0  0  0  0  0  # atno 10764 bound_to 10752
  154.8578  135.3664  154.5571 H   0  0  0  0  0  0  0  0  0  0  0  0  # atno 10765 bound_to 10752
  140.0969  134.9007  157.1736 H   0  0  0  0  0  0  0  0  0  0  0  0  # atno 11005 bound_to 11000
  145.6234  139.1527  143.3009 LP  0  0  0  0  0  0  0  0  0  0  0  0  # atno 17320 bound_to 7965
  146.1910  140.6343  142.9145 LP  0  0  0  0  0  0  0  0  0  0  0  0  # atno 17321 bound_to 7965
  140.2722  144.3951  150.6147 LP  0  0  0  0  0  0  0  0  0  0  0  0  # atno 17342 bound_to 10162
  140.6080  143.2168  151.6943 LP  0  0  0  0  0  0  0  0  0  0  0  0  # atno 17343 bound_to 10162
  156.2628  130.3713  149.8112 LP  0  0  0  0  0  0  0  0  0  0  0  0  # atno 17370 bound_to 10713
  156.5852  130.8483  151.3393 LP  0  0  0  0  0  0  0  0  0  0  0  0  # atno 17371 bound_to 10713
  140.3274  134.2848  155.7234 LP  0  0  0  0  0  0  0  0  0  0  0  0  # atno 17394 bound_to 11000
  141.2094  133.7749  156.9996 LP  0  0  0  0  0  0  0  0  0  0  0  0  # atno 17395 bound_to 11000

$$$$
