AV-unprocessed.smi:516|AV-procd|sdf|2787|dock2
  -GOLD-   2262023263D 1   1.00000     0.00000
 Structure written by MMmdl.
 44 46  0  0  0  0  0  0  0  0  3 V2000
  144.3208  143.2638  155.1396 C   0  0  0  0  0  0  0  0  0  0  0  0
  145.5832  143.2478  154.4982 O   0  0  0  0  0  0  0  0  0  0  0  0
  146.2346  141.9929  154.6031 C   0  0  0  0  0  0  0  0  0  0  0  0
  147.6801  142.1052  154.0957 C   0  0  0  0  0  0  0  0  0  0  0  0
  148.3924  140.8321  154.1711 N   0  0  0  0  0  0  0  0  0  0  0  0
  148.0383  139.6592  153.5823 C   0  0  0  0  0  0  0  0  0  0  0  0
  146.8109  139.4873  152.7326 C   0  0  0  0  0  0  0  0  0  0  0  0
  146.6933  138.0200  152.5389 N   0  3  0  0  0  0  0  0  0  0  0  0
  146.2107  137.3273  153.7562 C   0  0  0  0  0  0  0  0  0  0  0  0
  146.1733  135.8065  153.5297 C   0  0  0  0  0  0  0  0  0  0  0  0
  145.3530  135.5110  152.4061 O   0  0  0  0  0  0  0  0  0  0  0  0
  145.8541  136.0991  151.2118 C   0  0  0  0  0  0  0  0  0  0  0  0
  145.8785  137.6292  151.3605 C   0  0  0  0  0  0  0  0  0  0  0  0
  148.8818  138.6510  153.8186 N   0  0  0  0  0  0  0  0  0  0  0  0
  149.8490  139.2291  154.6263 C   0  0  0  0  0  0  0  0  0  0  0  0
  149.5756  140.5406  154.8581 C   0  0  0  0  0  0  0  0  0  0  0  0
  150.4219  141.4200  155.6964 C   0  0  0  0  0  0  0  0  0  0  0  0
  150.1193  142.5944  155.8949 O   0  0  0  0  0  0  0  0  0  0  0  0
  151.5228  140.7654  156.1843 N   0  5  0  0  0  0  0  0  0  0  0  0
  151.8422  139.4424  155.9665 C   0  0  0  0  0  0  0  0  0  0  0  0
  152.8584  138.9322  156.4391 O   0  0  0  0  0  0  0  0  0  0  0  0
  151.0169  138.6601  155.2022 N   0  0  0  0  0  0  0  0  0  0  0  0
  151.3281  137.2487  154.9579 C   0  0  0  0  0  0  0  0  0  0  0  0
  143.8693  144.2500  155.0328 H   0  0  0  0  0  0  0  0  0  0  0  0
  144.4175  143.0516  156.2050 H   0  0  0  0  0  0  0  0  0  0  0  0
  143.6435  142.5328  154.6962 H   0  0  0  0  0  0  0  0  0  0  0  0
  146.2288  141.6625  155.6428 H   0  0  0  0  0  0  0  0  0  0  0  0
  145.6978  141.2429  154.0204 H   0  0  0  0  0  0  0  0  0  0  0  0
  147.6917  142.4629  153.0669 H   0  0  0  0  0  0  0  0  0  0  0  0
  148.2215  142.8641  154.6562 H   0  0  0  0  0  0  0  0  0  0  0  0
  145.9551  139.8767  153.2858 H   0  0  0  0  0  0  0  0  0  0  0  0
  146.8627  140.0218  151.7851 H   0  0  0  0  0  0  0  0  0  0  0  0
  146.8673  137.5566  154.5964 H   0  0  0  0  0  0  0  0  0  0  0  0
  145.2159  137.6928  154.0155 H   0  0  0  0  0  0  0  0  0  0  0  0
  147.1784  135.4101  153.3764 H   0  0  0  0  0  0  0  0  0  0  0  0
  145.7642  135.3057  154.4073 H   0  0  0  0  0  0  0  0  0  0  0  0
  146.8508  135.7138  150.9909 H   0  0  0  0  0  0  0  0  0  0  0  0
  145.2100  135.8129  150.3802 H   0  0  0  0  0  0  0  0  0  0  0  0
  144.8622  138.0094  151.4752 H   0  0  0  0  0  0  0  0  0  0  0  0
  146.2836  138.0705  150.4497 H   0  0  0  0  0  0  0  0  0  0  0  0
  151.4467  136.7121  155.9001 H   0  0  0  0  0  0  0  0  0  0  0  0
  152.2574  137.1568  154.3946 H   0  0  0  0  0  0  0  0  0  0  0  0
  150.5495  136.7375  154.3924 H   0  0  0  0  0  0  0  0  0  0  0  0
  147.6318  137.6837  152.3732 H   0  0  0  0  0  0  0  0  0  0  0  0
  1  2  1  0  0  0  0
  1 24  1  0  0  0  0
  1 25  1  0  0  0  0
  1 26  1  0  0  0  0
  2  3  1  0  0  0  0
  3  4  1  0  0  0  0
  3 27  1  0  0  0  0
  3 28  1  0  0  0  0
  4  5  1  0  0  0  0
  4 29  1  0  0  0  0
  4 30  1  0  0  0  0
  5 16  1  0  0  0  0
  5  6  1  0  0  0  0
  6  7  1  0  0  0  0
  6 14  2  0  0  0  0
  7  8  1  0  0  0  0
  7 31  1  0  0  0  0
  7 32  1  0  0  0  0
  8 13  1  0  0  0  0
  8  9  1  0  0  0  0
  8 44  1  0  0  0  0
  9 10  1  0  0  0  0
  9 33  1  0  0  0  0
  9 34  1  0  0  0  0
 10 11  1  0  0  0  0
 10 35  1  0  0  0  0
 10 36  1  0  0  0  0
 11 12  1  0  0  0  0
 12 13  1  0  0  0  0
 12 37  1  0  0  0  0
 12 38  1  0  0  0  0
 13 39  1  0  0  0  0
 13 40  1  0  0  0  0
 14 15  1  0  0  0  0
 15 22  1  0  0  0  0
 15 16  2  0  0  0  0
 16 17  1  0  0  0  0
 17 18  2  0  0  0  0
 17 19  1  0  0  0  0
 19 20  1  0  0  0  0
 20 21  2  0  0  0  0
 20 22  1  0  0  0  0
 22 23  1  0  0  0  0
 23 41  1  0  0  0  0
 23 42  1  0  0  0  0
 23 43  1  0  0  0  0
M  CHG  1   8   1
M  CHG  1  19  -1
M  END
> <s_m_source_file>
AV-unprocessed.smi

> <i_m_source_file_index>
516

> <i_lp_mmshare_version>
43012

> <i_f3d_flags>
0

> <s_epik_input>
W0NIM11uMWMoPU8pW25IXWMoPU8pYyhjMTIpbihbQ0gyXVtDSDJdT1tDSDNdKWMobjIpW0NIMl1OM1tDSDJdW0NIMl1PW0NIMl1bQ0gyXTM=

> <s_epik_cmdline>
J2VwaWtfcHl0aG9uJywgJy1waCcsICc3LjAnLCAnLXRuJywgJzgnLCAnLW1hJywgJzIwMCcsICctbWV0YWxfYmluZGluZycsICctaW1hZScsICc8aW5maWxlLm1hZT4nLCAnLW9tYWUnLCAnPG91dGZpbGUubWFlPic=

> <r_epik_Ionization_Penalty>
5.20946

> <r_epik_Ionization_Penalty_Charging>
1.12908

> <r_epik_Ionization_Penalty_Neutral>
4.08038

> <r_epik_State_Penalty>
5.2587

> <r_epik_Charging_Adjusted_Penalty>
6.38778

> <i_epik_Tot_Q>
0

> <i_epik_Tot_abs_Q>
2

> <r_epik_Metal_State_Penalty>
1.732

> <b_epik_Metal_Only>
1

> <s_lp_Force_Field>
OPLS_2005

> <r_lp_Energy>
35.9619

> <b_lp_Chiralities_Consistent>
1

> <s_lp_Variant>
AV-unprocessed.smi:516-4

> <Gold.Version>
5.8.1

> <Gold.Id.Protein>
6NUR|6NUR_protein|mol2

> <Gold.PLP.Fitness>
40.5098

> <Gold.PLP.PLP>
-32.0068

> <Gold.PLP.part.hbond>
-2.0000

> <Gold.PLP.part.metal>
0.0000

> <Gold.PLP.part.buried>
1.3384

> <Gold.PLP.part.nonpolar>
-36.6629

> <Gold.PLP.part.repulsive>
5.6701

> <Gold.PLP.ligand.clash>
0.0000

> <Gold.PLP.ligand.torsion>
0.2892

> <Gold.PLP.Chemscore.Hbond>
3.0000

> <Gold.PLP.Chemscore.CHOScore>
0.0000

> <Gold.PLP.Chemscore.Metal>
0.0000

> <Gold.Chemscore.Hbonds>
donor molecule, donor type, donor heavy atom, donor atom, acceptor molecule, acceptor atom, score
      L1  H     8    44       P1  7948  2.00
      P1  H  7997  8008       L1    21  1.00

> <Gold.PLP.Chemscore.Internal.Correction>
0.0813

> <Gold.Rescore>
     Score         DG    S(hbond)    S(metal)    S(lipo)     H(rot)  DE(clash)    DE(int)     intcor
      8.69     -13.00       1.89        0.00      55.51       2.07       2.86       1.45       ----

> <Gold.Chemscore.Fitness>
8.6945

> <Gold.Chemscore.DG>
-12.9989

> <Gold.Chemscore.ZeroCoef>
-5.4800

> <Gold.Chemscore.Hbond>
1.8927

> <Gold.Chemscore.Metal>
0.0000

> <Gold.Chemscore.Lipo>
55.5111

> <Gold.Chemscore.Internal_Hbond>
0.0000

> <Gold.Chemscore.DEClash>
2.8556

> <Gold.Chemscore.DEInternal>
1.4489

> <Gold.Chemscore.Rot>
2.0693

> <Gold.Chemscore.Internal.Correction>
   9.000000E+99

> <Gold.Chemscore.Hbonds>
donor molecule, donor type, donor heavy atom, donor atom, acceptor molecule, acceptor atom, score
      L1  H     8    44       P1  7948  0.92
      P1  H  7997  8008       L1    21  0.85

> <Gold.Chemscore.Hbond.Weighted>
-6.3216

> <Gold.Chemscore.Metal.Weighted>
-0.0000

> <Gold.Chemscore.Lipo.Weighted>
-6.4948

> <Gold.Chemscore.Internal_Hbond.Weighted>
0.0000

> <Gold.Chemscore.DEClash.Weighted>
2.8556

> <Gold.Chemscore.DEInternal.Weighted>
1.4489

> <Gold.Chemscore.Rot.Weighted>
5.2975

> <Gold.Chemscore.Internal.Correction.Weighted>
   9.000000E+99

> <Gold.Protein.RotatedTorsions>
[ 6907 6896 6895 6894 ] final  155.49 input  -60.11 | X-H torsion
[ 7974 7965 7964 7962 ] final  -53.40 input  175.53 | X-H torsion
[ 8008 7997 7996 7995 ] final  -47.87 input   59.86 | X-H torsion
[ 10167 10162 10161 10158 ] final  -32.33 input  -65.29 | X-H torsion
[ 10718 10713 10712 10709 ] final -160.32 input   66.30 | X-H torsion
[ 10763 10752 10751 10750 ] final  -88.41 input  -60.55 | X-H torsion
[ 11005 11000 10999 10996 ] final  163.81 input  -57.11 | X-H torsion

> <Gold.Protein.ActiveResidues>
 VAL166  LYS551  ARG553  GLY616  TRP617  ASP618  TYR619  PRO620  LYS621  CYS622 
 ASP623  PHE694  ASN695  SER759  ASP760  ASP761  ALA762  ILE779  LEU786  VAL792 
 PHE793  MET794  SER795  GLU796  ALA797  LYS798  CYS799  TRP800  GLU811  SER814 

> <Gold.Protein.RotatedAtoms>
  152.0434  133.3987  159.4346 H   0  0  0  0  0  0  0  0  0  0  0  0  # atno 6907 bound_to 6896
  150.6874  134.3389  159.4868 H   0  0  0  0  0  0  0  0  0  0  0  0  # atno 6908 bound_to 6896
  152.1190  134.9219  160.0614 H   0  0  0  0  0  0  0  0  0  0  0  0  # atno 6909 bound_to 6896
  145.8972  140.8023  142.9761 H   0  0  0  0  0  0  0  0  0  0  0  0  # atno 7974 bound_to 7965
  154.4022  140.1335  156.4246 H   0  0  0  0  0  0  0  0  0  0  0  0  # atno 8008 bound_to 7997
  155.7610  140.3486  155.5178 H   0  0  0  0  0  0  0  0  0  0  0  0  # atno 8009 bound_to 7997
  155.8859  140.0995  157.1443 H   0  0  0  0  0  0  0  0  0  0  0  0  # atno 8010 bound_to 7997
  140.7223  143.3702  151.1792 H   0  0  0  0  0  0  0  0  0  0  0  0  # atno 10167 bound_to 10162
  156.5804  130.8727  151.2863 H   0  0  0  0  0  0  0  0  0  0  0  0  # atno 10718 bound_to 10713
  154.6443  135.5378  153.7825 H   0  0  0  0  0  0  0  0  0  0  0  0  # atno 10763 bound_to 10752
  153.0350  135.6467  154.1113 H   0  0  0  0  0  0  0  0  0  0  0  0  # atno 10764 bound_to 10752
  154.1035  135.2931  155.3226 H   0  0  0  0  0  0  0  0  0  0  0  0  # atno 10765 bound_to 10752
  140.2395  134.8062  157.3397 H   0  0  0  0  0  0  0  0  0  0  0  0  # atno 11005 bound_to 11000
  144.6733  140.1621  143.7421 LP  0  0  0  0  0  0  0  0  0  0  0  0  # atno 17320 bound_to 7965
  145.8836  139.2336  143.1591 LP  0  0  0  0  0  0  0  0  0  0  0  0  # atno 17321 bound_to 7965
  139.7272  143.9129  152.3007 LP  0  0  0  0  0  0  0  0  0  0  0  0  # atno 17342 bound_to 10162
  139.8906  144.6967  150.8775 LP  0  0  0  0  0  0  0  0  0  0  0  0  # atno 17343 bound_to 10162
  157.7328  130.9720  150.1944 LP  0  0  0  0  0  0  0  0  0  0  0  0  # atno 17370 bound_to 10713
  156.2636  130.3713  149.8104 LP  0  0  0  0  0  0  0  0  0  0  0  0  # atno 17371 bound_to 10713
  140.1668  134.4659  155.7858 LP  0  0  0  0  0  0  0  0  0  0  0  0  # atno 17394 bound_to 11000
  141.2211  133.6924  156.7638 LP  0  0  0  0  0  0  0  0  0  0  0  0  # atno 17395 bound_to 11000

$$$$
