AV-unprocessed.smi:2137|AV-procd|sdf|8708|dock10
  -GOLD-   2272011473D 1   1.00000     0.00000
 Structure written by MMmdl.
 50 51  0  0  0  0  0  0  0  0  2 V2000
  151.4441  143.9872  160.7021 C   0  0  0  0  0  0  0  0  0  0  0  0
  152.5957  143.7805  159.7023 C   0  0  2  0  0  0  0  0  0  0  0  0
  152.2290  144.2120  158.2702 C   0  0  0  0  0  0  0  0  0  0  0  0
  151.2823  143.2009  157.6084 C   0  0  0  0  0  0  0  0  0  0  0  0
  151.8607  141.7786  157.6747 C   0  0  0  0  0  0  0  0  0  0  0  0
  152.1606  141.3882  159.0765 N   0  3  1  0  0  0  0  0  0  0  0  0
  152.5748  139.9669  159.1904 C   0  0  0  0  0  0  0  0  0  0  0  0
  151.4296  138.9954  158.8564 C   0  0  0  0  0  0  0  0  0  0  0  0
  151.8471  137.9348  157.8291 C   0  0  0  0  0  0  0  0  0  0  0  0
  150.6789  137.2253  157.3241 N   0  0  0  0  0  0  0  0  0  0  0  0
  150.6719  136.4395  156.2378 C   0  0  0  0  0  0  0  0  0  0  0  0
  151.6633  136.2560  155.5304 O   0  0  0  0  0  0  0  0  0  0  0  0
  149.3317  135.7796  155.8877 C   0  0  0  0  0  0  0  0  0  0  0  0
  149.4895  134.4000  155.4101 N   0  0  0  0  0  0  0  0  0  0  0  0
  149.0202  134.0492  154.1574 C   0  0  0  0  0  0  0  0  0  0  0  0
  149.1275  132.8043  153.6440 C   0  0  0  0  0  0  0  0  0  0  0  0
  149.7653  131.7345  154.4016 C   0  0  0  0  0  0  0  0  0  0  0  0
  149.8629  130.5801  153.9834 O   0  0  0  0  0  0  0  0  0  0  0  0
  150.2536  132.1245  155.6713 N   0  0  0  0  0  0  0  0  0  0  0  0
  150.8861  131.1159  156.4965 C   0  0  0  0  0  0  0  0  0  0  0  0
  150.1211  133.4239  156.2110 C   0  0  0  0  0  0  0  0  0  0  0  0
  150.5307  133.7096  157.3391 O   0  0  0  0  0  0  0  0  0  0  0  0
  153.1223  142.3305  159.7120 C   0  0  0  0  0  0  0  0  0  0  0  0
  150.5888  143.3503  160.4768 H   0  0  0  0  0  0  0  0  0  0  0  0
  151.0989  145.0216  160.6938 H   0  0  0  0  0  0  0  0  0  0  0  0
  151.7644  143.7589  161.7193 H   0  0  0  0  0  0  0  0  0  0  0  0
  153.4095  144.4261  160.0356 H   0  0  0  0  0  0  0  0  0  0  0  0
  151.7816  145.2066  158.2711 H   0  0  0  0  0  0  0  0  0  0  0  0
  153.1397  144.2879  157.6744 H   0  0  0  0  0  0  0  0  0  0  0  0
  150.3080  143.2257  158.0977 H   0  0  0  0  0  0  0  0  0  0  0  0
  151.1085  143.4826  156.5694 H   0  0  0  0  0  0  0  0  0  0  0  0
  151.1403  141.0834  157.2418 H   0  0  0  0  0  0  0  0  0  0  0  0
  152.7688  141.7104  157.0736 H   0  0  0  0  0  0  0  0  0  0  0  0
  153.3908  139.7723  158.4931 H   0  0  0  0  0  0  0  0  0  0  0  0
  152.9717  139.7745  160.1885 H   0  0  0  0  0  0  0  0  0  0  0  0
  151.0844  138.4904  159.7583 H   0  0  0  0  0  0  0  0  0  0  0  0
  150.5776  139.5584  158.4722 H   0  0  0  0  0  0  0  0  0  0  0  0
  152.3667  138.3997  156.9904 H   0  0  0  0  0  0  0  0  0  0  0  0
  152.5447  137.2343  158.2919 H   0  0  0  0  0  0  0  0  0  0  0  0
  149.8177  137.3287  157.8410 H   0  0  0  0  0  0  0  0  0  0  0  0
  148.6637  135.8017  156.7508 H   0  0  0  0  0  0  0  0  0  0  0  0
  148.8449  136.3867  155.1234 H   0  0  0  0  0  0  0  0  0  0  0  0
  148.5414  134.8077  153.5552 H   0  0  0  0  0  0  0  0  0  0  0  0
  148.7348  132.5967  152.6593 H   0  0  0  0  0  0  0  0  0  0  0  0
  151.6729  131.5797  157.0936 H   0  0  0  0  0  0  0  0  0  0  0  0
  151.3492  130.3572  155.8642 H   0  0  0  0  0  0  0  0  0  0  0  0
  150.1054  130.6874  157.1264 H   0  0  0  0  0  0  0  0  0  0  0  0
  154.0722  142.2813  159.1772 H   0  0  0  0  0  0  0  0  0  0  0  0
  153.3328  142.0327  160.7387 H   0  0  0  0  0  0  0  0  0  0  0  0
  151.2894  141.4717  159.5807 H   0  0  0  0  0  0  0  0  0  0  0  0
  1  2  1  0  0  0  0
  1 24  1  0  0  0  0
  1 25  1  0  0  0  0
  1 26  1  0  0  0  0
  2 23  1  0  0  0  0
  2  3  1  0  0  0  0
  2 27  1  0  0  0  0
  3  4  1  0  0  0  0
  3 28  1  0  0  0  0
  3 29  1  0  0  0  0
  4  5  1  0  0  0  0
  4 30  1  0  0  0  0
  4 31  1  0  0  0  0
  5  6  1  0  0  0  0
  5 32  1  0  0  0  0
  5 33  1  0  0  0  0
  6  7  1  0  0  0  0
  6 23  1  0  0  0  0
  6 50  1  0  0  0  0
  7  8  1  0  0  0  0
  7 34  1  0  0  0  0
  7 35  1  0  0  0  0
  8  9  1  0  0  0  0
  8 36  1  0  0  0  0
  8 37  1  0  0  0  0
  9 10  1  0  0  0  0
  9 38  1  0  0  0  0
  9 39  1  0  0  0  0
 10 11  1  0  0  0  0
 10 40  1  0  0  0  0
 11 12  2  0  0  0  0
 11 13  1  0  0  0  0
 13 14  1  0  0  0  0
 13 41  1  0  0  0  0
 13 42  1  0  0  0  0
 14 21  1  0  0  0  0
 14 15  1  0  0  0  0
 15 16  2  0  0  0  0
 15 43  1  0  0  0  0
 16 17  1  0  0  0  0
 16 44  1  0  0  0  0
 17 18  2  0  0  0  0
 17 19  1  0  0  0  0
 19 20  1  0  0  0  0
 19 21  1  0  0  0  0
 20 45  1  0  0  0  0
 20 46  1  0  0  0  0
 20 47  1  0  0  0  0
 21 22  2  0  0  0  0
 23 48  1  0  0  0  0
 23 49  1  0  0  0  0
M  CHG  1   6   1
M  END
> <s_m_source_file>
AV-unprocessed.smi

> <i_m_source_file_index>
2137

> <i_lp_mmshare_version>
43012

> <i_f3d_flags>
0

> <s_epik_input>
W0NIM11bQ0BASF0xW0NIMl1bQ0gyXVtDSDJdTihbQ0gyXTEpW0NIMl1bQ0gyXVtDSDJdW05IXUMoPU8pW0NIMl1uMltjSF1bY0hdYyg9TyluKFtDSDNdKWMyPU8=

> <s_epik_cmdline>
J2VwaWtfcHl0aG9uJywgJy1waCcsICc3LjAnLCAnLXRuJywgJzgnLCAnLW1hJywgJzIwMCcsICctbWV0YWxfYmluZGluZycsICctaW1hZScsICc8aW5maWxlLm1hZT4nLCAnLW9tYWUnLCAnPG91dGZpbGUubWFlPic=

> <r_lp_tautomer_probability>
1

> <r_epik_Ionization_Penalty>
0.000384839

> <r_epik_Ionization_Penalty_Charging>
0.000384812

> <r_epik_Ionization_Penalty_Neutral>
2.6907e-08

> <r_epik_State_Penalty>
0.000235226

> <r_epik_Charging_Adjusted_Penalty>
0.000620038

> <i_epik_Tot_Q>
1

> <i_epik_Tot_abs_Q>
1

> <r_epik_Metal_State_Penalty>
-0

> <b_epik_Metal_Only>
0

> <s_lp_Force_Field>
OPLS_2005

> <r_lp_Energy>
28.7219

> <b_lp_Chiralities_Consistent>
1

> <s_lp_Variant>
AV-unprocessed.smi:2137-3

> <Gold.Version>
5.8.1

> <Gold.Id.Protein>
6NUR|6NUR_protein|mol2

> <Gold.PLP.Fitness>
48.4472

> <Gold.PLP.PLP>
-41.6200

> <Gold.PLP.part.hbond>
-2.0000

> <Gold.PLP.part.metal>
0.0000

> <Gold.PLP.part.buried>
-5.2147

> <Gold.PLP.part.nonpolar>
-34.4872

> <Gold.PLP.part.repulsive>
0.3366

> <Gold.PLP.ligand.clash>
0.0000

> <Gold.PLP.ligand.torsion>
0.8321

> <Gold.PLP.Chemscore.Hbond>
1.8160

> <Gold.PLP.Chemscore.CHOScore>
1.0000

> <Gold.PLP.Chemscore.Metal>
0.0000

> <Gold.Chemscore.Hbonds>
donor molecule, donor type, donor heavy atom, donor atom, acceptor molecule, acceptor atom, score
      P1  H  6896  6909       L1    22  0.80
      P1  H 10752 10765       L1    12  1.00
      L1  C    15    43       P1  7948  1.00

> <Gold.PLP.Chemscore.Internal.Correction>
0.0435

> <Gold.Rescore>
     Score         DG    S(hbond)    S(metal)    S(lipo)     H(rot)  DE(clash)    DE(int)     intcor
     17.20     -18.08       1.99        0.00     100.63       2.27       0.01       0.88       ----

> <Gold.Chemscore.Fitness>
17.1989

> <Gold.Chemscore.DG>
-18.0820

> <Gold.Chemscore.ZeroCoef>
-5.4800

> <Gold.Chemscore.Hbond>
1.9914

> <Gold.Chemscore.Metal>
0.0000

> <Gold.Chemscore.Lipo>
100.6316

> <Gold.Chemscore.Internal_Hbond>
0.0000

> <Gold.Chemscore.DEClash>
0.0073

> <Gold.Chemscore.DEInternal>
0.8758

> <Gold.Chemscore.Rot>
2.2748

> <Gold.Chemscore.Internal.Correction>
   9.000000E+99

> <Gold.Chemscore.Hbonds>
donor molecule, donor type, donor heavy atom, donor atom, acceptor molecule, acceptor atom, score
      P1  H  6896  6909       L1    22  0.79
      P1  H 10752 10765       L1    12  1.00

> <Gold.Chemscore.Hbond.Weighted>
-6.6514

> <Gold.Chemscore.Metal.Weighted>
-0.0000

> <Gold.Chemscore.Lipo.Weighted>
-11.7739

> <Gold.Chemscore.Internal_Hbond.Weighted>
0.0000

> <Gold.Chemscore.DEClash.Weighted>
0.0073

> <Gold.Chemscore.DEInternal.Weighted>
0.8758

> <Gold.Chemscore.Rot.Weighted>
5.8234

> <Gold.Chemscore.Internal.Correction.Weighted>
   9.000000E+99

> <Gold.Protein.RotatedTorsions>
[ 6907 6896 6895 6894 ] final  -13.87 input  -60.11 | X-H torsion
[ 7974 7965 7964 7962 ] final -122.61 input  175.53 | X-H torsion
[ 8008 7997 7996 7995 ] final  -81.55 input   59.86 | X-H torsion
[ 10167 10162 10161 10158 ] final  122.39 input  -65.29 | X-H torsion
[ 10718 10713 10712 10709 ] final  -18.03 input   66.30 | X-H torsion
[ 10763 10752 10751 10750 ] final -163.92 input  -60.55 | X-H torsion
[ 11005 11000 10999 10996 ] final   73.91 input  -57.11 | X-H torsion

> <Gold.Protein.ActiveResidues>
 VAL166  LYS551  ARG553  GLY616  TRP617  ASP618  TYR619  PRO620  LYS621  CYS622 
 ASP623  PHE694  ASN695  SER759  ASP760  ASP761  ALA762  ILE779  LEU786  VAL792 
 PHE793  MET794  SER795  GLU796  ALA797  LYS798  CYS799  TRP800  GLU811  SER814 

> <Gold.Protein.RotatedAtoms>
  151.3482  135.0878  159.9393 H   0  0  0  0  0  0  0  0  0  0  0  0  # atno 6907 bound_to 6896
  152.5194  133.9379  159.7622 H   0  0  0  0  0  0  0  0  0  0  0  0  # atno 6908 bound_to 6896
  150.9749  133.6252  159.2761 H   0  0  0  0  0  0  0  0  0  0  0  0  # atno 6909 bound_to 6896
  145.0276  140.8041  143.4343 H   0  0  0  0  0  0  0  0  0  0  0  0  # atno 7974 bound_to 7965
  154.5995  140.0646  156.9349 H   0  0  0  0  0  0  0  0  0  0  0  0  # atno 8008 bound_to 7997
  155.2157  140.3326  155.4304 H   0  0  0  0  0  0  0  0  0  0  0  0  # atno 8009 bound_to 7997
  156.2309  140.1840  156.7229 H   0  0  0  0  0  0  0  0  0  0  0  0  # atno 8010 bound_to 7997
  139.5861  144.7007  151.3405 H   0  0  0  0  0  0  0  0  0  0  0  0  # atno 10167 bound_to 10162
  156.5652  130.4735  149.6388 H   0  0  0  0  0  0  0  0  0  0  0  0  # atno 10718 bound_to 10713
  154.7078  135.3000  154.9244 H   0  0  0  0  0  0  0  0  0  0  0  0  # atno 10763 bound_to 10752
  154.0156  135.6689  153.4772 H   0  0  0  0  0  0  0  0  0  0  0  0  # atno 10764 bound_to 10752
  153.0730  135.5050  154.8258 H   0  0  0  0  0  0  0  0  0  0  0  0  # atno 10765 bound_to 10752
  139.9417  134.7388  156.1084 H   0  0  0  0  0  0  0  0  0  0  0  0  # atno 11005 bound_to 11000
  145.1813  139.2350  143.5291 LP  0  0  0  0  0  0  0  0  0  0  0  0  # atno 17320 bound_to 7965
  146.3494  140.1587  142.8591 LP  0  0  0  0  0  0  0  0  0  0  0  0  # atno 17321 bound_to 7965
  140.7133  143.7334  150.7607 LP  0  0  0  0  0  0  0  0  0  0  0  0  # atno 17342 bound_to 10162
  140.0879  143.4906  152.2495 LP  0  0  0  0  0  0  0  0  0  0  0  0  # atno 17343 bound_to 10162
  156.2763  130.7046  151.1857 LP  0  0  0  0  0  0  0  0  0  0  0  0  # atno 17370 bound_to 10713
  157.7360  131.0566  150.5438 LP  0  0  0  0  0  0  0  0  0  0  0  0  # atno 17371 bound_to 10713
  141.1053  133.6662  156.2849 LP  0  0  0  0  0  0  0  0  0  0  0  0  # atno 17394 bound_to 11000
  140.5936  134.5625  157.5504 LP  0  0  0  0  0  0  0  0  0  0  0  0  # atno 17395 bound_to 11000

$$$$
