AV-unprocessed.smi:1897|AV-procd|sdf|7696|dock3
  -GOLD-   22720 9433D 1   1.00000     0.00000
 Structure written by MMmdl.
 38 40  0  0  0  0  0  0  0  0  3 V2000
  151.5049  140.9263  158.5652 C   0  0  0  0  0  0  0  0  0  0  0  0
  151.8717  139.7605  157.7121 C   0  0  0  0  0  0  0  0  0  0  0  0
  152.8936  139.7853  156.8530 N   0  0  0  0  0  0  0  0  0  0  0  0
  153.0344  138.5843  156.1737 N   0  0  0  0  0  0  0  0  0  0  0  0
  152.1287  137.6647  156.5384 C   0  0  0  0  0  0  0  0  0  0  0  0
  152.0985  136.4279  156.0076 N   0  5  0  0  0  0  0  0  0  0  0  0
  151.0766  135.5613  156.2302 C   0  0  0  0  0  0  0  0  0  0  0  0
  150.7561  135.1670  157.3505 O   0  0  0  0  0  0  0  0  0  0  0  0
  150.3776  135.1319  155.1616 N   0  0  0  0  0  0  0  0  0  0  0  0
  149.2064  134.2587  155.1786 C   0  0  2  0  0  0  0  0  0  0  0  0
  149.3258  133.1006  154.1679 C   0  0  0  0  0  0  0  0  0  0  0  0
  147.9667  133.0480  153.4631 C   0  0  0  0  0  0  0  0  0  0  0  0
  147.5256  134.4475  153.4830 N   0  3  1  0  0  0  0  0  0  0  0  0
  146.1261  134.7443  153.1143 C   0  0  0  0  0  0  0  0  0  0  0  0
  145.9473  136.2759  153.0503 C   0  0  0  0  0  0  0  0  0  0  0  0
  146.4196  136.9712  154.3464 C   0  0  0  0  0  0  0  0  0  0  0  0
  147.8439  136.5285  154.7425 C   0  0  0  0  0  0  0  0  0  0  0  0
  147.8969  134.9899  154.8010 C   0  0  2  0  0  0  0  0  0  0  0  0
  150.9983  138.2386  157.7632 S   0  0  0  0  0  0  0  0  0  0  0  0
  152.0391  140.8752  159.5139 H   0  0  0  0  0  0  0  0  0  0  0  0
  150.4333  140.9239  158.7653 H   0  0  0  0  0  0  0  0  0  0  0  0
  151.7631  141.8604  158.0653 H   0  0  0  0  0  0  0  0  0  0  0  0
  150.6728  135.4729  154.2585 H   0  0  0  0  0  0  0  0  0  0  0  0
  149.0909  133.8287  156.1753 H   0  0  0  0  0  0  0  0  0  0  0  0
  150.1038  133.3156  153.4333 H   0  0  0  0  0  0  0  0  0  0  0  0
  149.5805  132.1536  154.6450 H   0  0  0  0  0  0  0  0  0  0  0  0
  148.0329  132.6549  152.4483 H   0  0  0  0  0  0  0  0  0  0  0  0
  147.2656  132.4329  154.0294 H   0  0  0  0  0  0  0  0  0  0  0  0
  145.8984  134.2986  152.1455 H   0  0  0  0  0  0  0  0  0  0  0  0
  145.4444  134.3033  153.8429 H   0  0  0  0  0  0  0  0  0  0  0  0
  146.5202  136.6678  152.2086 H   0  0  0  0  0  0  0  0  0  0  0  0
  144.9039  136.5234  152.8522 H   0  0  0  0  0  0  0  0  0  0  0  0
  146.3840  138.0542  154.2260 H   0  0  0  0  0  0  0  0  0  0  0  0
  145.7293  136.7291  155.1556 H   0  0  0  0  0  0  0  0  0  0  0  0
  148.5663  136.9088  154.0185 H   0  0  0  0  0  0  0  0  0  0  0  0
  148.1078  136.9573  155.7097 H   0  0  0  0  0  0  0  0  0  0  0  0
  147.1421  134.6558  155.5162 H   0  0  0  0  0  0  0  0  0  0  0  0
  148.1097  134.9264  152.8124 H   0  0  0  0  0  0  0  0  0  0  0  0
  1  2  1  0  0  0  0
  1 20  1  0  0  0  0
  1 21  1  0  0  0  0
  1 22  1  0  0  0  0
  2 19  1  0  0  0  0
  2  3  2  0  0  0  0
  3  4  1  0  0  0  0
  4  5  2  0  0  0  0
  5  6  1  0  0  0  0
  5 19  1  0  0  0  0
  6  7  1  0  0  0  0
  7  8  2  0  0  0  0
  7  9  1  0  0  0  0
  9 10  1  0  0  0  0
  9 23  1  0  0  0  0
 10 18  1  0  0  0  0
 10 11  1  0  0  0  0
 10 24  1  0  0  0  0
 11 12  1  0  0  0  0
 11 25  1  0  0  0  0
 11 26  1  0  0  0  0
 12 13  1  0  0  0  0
 12 27  1  0  0  0  0
 12 28  1  0  0  0  0
 13 18  1  0  0  0  0
 13 14  1  0  0  0  0
 13 38  1  0  0  0  0
 14 15  1  0  0  0  0
 14 29  1  0  0  0  0
 14 30  1  0  0  0  0
 15 16  1  0  0  0  0
 15 31  1  0  0  0  0
 15 32  1  0  0  0  0
 16 17  1  0  0  0  0
 16 33  1  0  0  0  0
 16 34  1  0  0  0  0
 17 18  1  0  0  0  0
 17 35  1  0  0  0  0
 17 36  1  0  0  0  0
 18 37  1  0  0  0  0
M  CHG  1   6  -1
M  CHG  1  13   1
M  END
> <s_m_source_file>
AV-unprocessed.smi

> <i_m_source_file_index>
1897

> <i_lp_mmshare_version>
43012

> <i_f3d_flags>
0

> <s_epik_input>
W0NIM11jMW5uYyhzMSlbTkhdQyg9TylbTkhdW0NASF0oW0NIMl1bQ0gyXTIpW0NAQEhdKE4yMylbQ0gyXVtDSDJdW0NIMl1bQ0gyXTM=

> <s_epik_cmdline>
J2VwaWtfcHl0aG9uJywgJy1waCcsICc3LjAnLCAnLXRuJywgJzgnLCAnLW1hJywgJzIwMCcsICctbWV0YWxfYmluZGluZycsICctaW1hZScsICc8aW5maWxlLm1hZT4nLCAnLW9tYWUnLCAnPG91dGZpbGUubWFlPic=

> <r_lp_tautomer_probability>
1

> <r_epik_Ionization_Penalty>
3.77712

> <r_epik_Ionization_Penalty_Charging>
3.67739

> <r_epik_Ionization_Penalty_Neutral>
0.0997294

> <r_epik_State_Penalty>
3.67514

> <r_epik_Charging_Adjusted_Penalty>
7.35254

> <i_epik_Tot_Q>
0

> <i_epik_Tot_abs_Q>
2

> <r_epik_Metal_State_Penalty>
0.540795

> <b_epik_Metal_Only>
1

> <s_lp_Force_Field>
OPLS_2005

> <r_lp_Energy>
34.9816

> <b_lp_Chiralities_Consistent>
1

> <s_lp_Variant>
AV-unprocessed.smi:1897-13

> <Gold.Version>
5.8.1

> <Gold.Id.Protein>
6NUR|6NUR_protein|mol2

> <Gold.PLP.Fitness>
36.7919

> <Gold.PLP.PLP>
-22.1349

> <Gold.PLP.part.hbond>
-4.8767

> <Gold.PLP.part.metal>
0.0000

> <Gold.PLP.part.buried>
-2.7580

> <Gold.PLP.part.nonpolar>
-15.2158

> <Gold.PLP.part.repulsive>
0.0942

> <Gold.PLP.ligand.clash>
0.0000

> <Gold.PLP.ligand.torsion>
0.6955

> <Gold.PLP.Chemscore.Hbond>
5.3489

> <Gold.PLP.Chemscore.CHOScore>
0.0000

> <Gold.PLP.Chemscore.Metal>
0.0000

> <Gold.Chemscore.Hbonds>
donor molecule, donor type, donor heavy atom, donor atom, acceptor molecule, acceptor atom, score
      L1  H    13    38       P1  7948  2.00
      P1  H  6896  6908       L1     8  0.12
      P1  H  7997  8008       L1     3  0.63
      P1  H 10752 10764       L1     6  1.95

> <Gold.PLP.Chemscore.Internal.Correction>
0.0013

> <Gold.Rescore>
     Score         DG    S(hbond)    S(metal)    S(lipo)     H(rot)  DE(clash)    DE(int)     intcor
     17.54     -18.34       3.20        0.00      40.29       1.00       0.02       0.77       ----

> <Gold.Chemscore.Fitness>
17.5445

> <Gold.Chemscore.DG>
-18.3359

> <Gold.Chemscore.ZeroCoef>
-5.4800

> <Gold.Chemscore.Hbond>
3.2042

> <Gold.Chemscore.Metal>
0.0000

> <Gold.Chemscore.Lipo>
40.2889

> <Gold.Chemscore.Internal_Hbond>
0.0000

> <Gold.Chemscore.DEClash>
0.0174

> <Gold.Chemscore.DEInternal>
0.7740

> <Gold.Chemscore.Rot>
1.0000

> <Gold.Chemscore.Internal.Correction>
   9.000000E+99

> <Gold.Chemscore.Hbonds>
donor molecule, donor type, donor heavy atom, donor atom, acceptor molecule, acceptor atom, score
      L1  H    13    38       P1  7948  0.85
      P1  H  6896  6908       L1     8  0.12
      P1  H  7997  8008       L1     3  0.05
      P1  H 10752 10764       L1     6  0.42

> <Gold.Chemscore.Hbond.Weighted>
-10.7021

> <Gold.Chemscore.Metal.Weighted>
-0.0000

> <Gold.Chemscore.Lipo.Weighted>
-4.7138

> <Gold.Chemscore.Internal_Hbond.Weighted>
0.0000

> <Gold.Chemscore.DEClash.Weighted>
0.0174

> <Gold.Chemscore.DEInternal.Weighted>
0.7740

> <Gold.Chemscore.Rot.Weighted>
2.5600

> <Gold.Chemscore.Internal.Correction.Weighted>
   9.000000E+99

> <Gold.Protein.RotatedTorsions>
[ 6907 6896 6895 6894 ] final  127.53 input  -60.11 | X-H torsion
[ 7974 7965 7964 7962 ] final -127.10 input  175.53 | X-H torsion
[ 8008 7997 7996 7995 ] final  -74.70 input   59.86 | X-H torsion
[ 10167 10162 10161 10158 ] final  130.55 input  -65.29 | X-H torsion
[ 10718 10713 10712 10709 ] final  149.94 input   66.30 | X-H torsion
[ 10763 10752 10751 10750 ] final  -14.29 input  -60.55 | X-H torsion
[ 11005 11000 10999 10996 ] final  -25.22 input  -57.11 | X-H torsion

> <Gold.Protein.ActiveResidues>
 VAL166  LYS551  ARG553  GLY616  TRP617  ASP618  TYR619  PRO620  LYS621  CYS622 
 ASP623  PHE694  ASN695  SER759  ASP760  ASP761  ALA762  ILE779  LEU786  VAL792 
 PHE793  MET794  SER795  GLU796  ALA797  LYS798  CYS799  TRP800  GLU811  SER814 

> <Gold.Protein.RotatedAtoms>
  152.3804  133.6538  159.6156 H   0  0  0  0  0  0  0  0  0  0  0  0  # atno 6907 bound_to 6896
  150.7736  133.9123  159.3382 H   0  0  0  0  0  0  0  0  0  0  0  0  # atno 6908 bound_to 6896
  151.6930  135.0944  160.0288 H   0  0  0  0  0  0  0  0  0  0  0  0  # atno 6909 bound_to 6896
  144.9805  140.7636  143.4615 H   0  0  0  0  0  0  0  0  0  0  0  0  # atno 7974 bound_to 7965
  154.5353  140.0757  156.8417 H   0  0  0  0  0  0  0  0  0  0  0  0  # atno 8008 bound_to 7997
  155.3290  140.3400  155.4221 H   0  0  0  0  0  0  0  0  0  0  0  0  # atno 8009 bound_to 7997
  156.1822  140.1656  156.8239 H   0  0  0  0  0  0  0  0  0  0  0  0  # atno 8010 bound_to 7997
  139.5425  144.6743  151.4580 H   0  0  0  0  0  0  0  0  0  0  0  0  # atno 10167 bound_to 10162
  157.2897  131.0851  151.1471 H   0  0  0  0  0  0  0  0  0  0  0  0  # atno 10718 bound_to 10713
  153.5261  135.7015  153.5707 H   0  0  0  0  0  0  0  0  0  0  0  0  # atno 10763 bound_to 10752
  153.3734  135.3939  155.1805 H   0  0  0  0  0  0  0  0  0  0  0  0  # atno 10764 bound_to 10752
  154.8689  135.3817  154.4754 H   0  0  0  0  0  0  0  0  0  0  0  0  # atno 10765 bound_to 10752
  140.8917  133.7583  156.0430 H   0  0  0  0  0  0  0  0  0  0  0  0  # atno 11005 bound_to 11000
  145.2427  139.2065  143.4984 LP  0  0  0  0  0  0  0  0  0  0  0  0  # atno 17320 bound_to 7965
  146.3407  140.2326  142.8593 LP  0  0  0  0  0  0  0  0  0  0  0  0  # atno 17321 bound_to 7965
  140.6660  143.8397  150.6942 LP  0  0  0  0  0  0  0  0  0  0  0  0  # atno 17342 bound_to 10162
  140.1806  143.4118  152.1935 LP  0  0  0  0  0  0  0  0  0  0  0  0  # atno 17343 bound_to 10162
  157.2872  130.6779  149.6096 LP  0  0  0  0  0  0  0  0  0  0  0  0  # atno 17370 bound_to 10713
  155.9666  130.4432  150.5410 LP  0  0  0  0  0  0  0  0  0  0  0  0  # atno 17371 bound_to 10713
  140.8338  134.3147  157.5339 LP  0  0  0  0  0  0  0  0  0  0  0  0  # atno 17394 bound_to 11000
  139.8730  134.9378  156.3697 LP  0  0  0  0  0  0  0  0  0  0  0  0  # atno 17395 bound_to 11000

$$$$
