AV-unprocessed.smi:1430|AV-procd|sdf|5822|dock9
  -GOLD-   22720 5483D 1   1.00000     0.00000
 Structure written by MMmdl.
 46 47  0  0  0  0  0  0  0  0  1 V2000
  151.0535  141.7918  158.0861 C   0  0  0  0  0  0  0  0  0  0  0  0
  151.1486  141.6918  156.6693 O   0  0  0  0  0  0  0  0  0  0  0  0
  150.4793  140.6629  156.0388 C   0  0  0  0  0  0  0  0  0  0  0  0
  149.4772  139.9747  156.7504 C   0  0  0  0  0  0  0  0  0  0  0  0
  148.7948  138.9216  156.1128 C   0  0  0  0  0  0  0  0  0  0  0  0
  149.1364  138.5809  154.7885 C   0  0  0  0  0  0  0  0  0  0  0  0
  148.4184  137.5211  154.1706 N   0  0  0  0  0  0  0  0  0  0  0  0
  147.2351  136.9883  154.5216 C   0  0  0  0  0  0  0  0  0  0  0  0
  146.5424  137.3501  155.4722 O   0  0  0  0  0  0  0  0  0  0  0  0
  146.8819  136.0037  153.6836 N   0  0  0  0  0  0  0  0  0  0  0  0
  145.6496  135.2298  153.7710 C   0  0  0  0  0  0  0  0  0  0  0  0
  144.9256  135.1767  152.4128 C   0  0  0  0  0  0  0  0  0  0  0  0
  145.3244  134.0713  151.5429 N   0  0  0  0  0  0  0  0  0  0  0  0
  145.3614  132.7894  152.2429 C   0  0  0  0  0  0  0  0  0  0  0  0
  145.7551  131.6304  151.3066 C   0  0  1  0  0  0  0  0  0  0  0  0
  145.7087  130.2727  152.0152 C   0  0  0  0  0  0  0  0  0  0  0  0
  144.8528  131.5914  150.2044 O   0  0  0  0  0  0  0  0  0  0  0  0
  144.8220  132.8060  149.4602 C   0  0  1  0  0  0  0  0  0  0  0  0
  143.8351  132.6368  148.3002 C   0  0  0  0  0  0  0  0  0  0  0  0
  144.4239  133.9593  150.4009 C   0  0  0  0  0  0  0  0  0  0  0  0
  150.1489  139.3417  154.1539 C   0  0  0  0  0  0  0  0  0  0  0  0
  150.8064  140.3535  154.7600 N   0  0  0  0  0  0  0  0  0  0  0  0
  151.6311  142.6511  158.4261 H   0  0  0  0  0  0  0  0  0  0  0  0
  151.4593  140.9059  158.5765 H   0  0  0  0  0  0  0  0  0  0  0  0
  150.0215  141.9386  158.4081 H   0  0  0  0  0  0  0  0  0  0  0  0
  149.2361  140.2500  157.7666 H   0  0  0  0  0  0  0  0  0  0  0  0
  148.0214  138.3809  156.6390 H   0  0  0  0  0  0  0  0  0  0  0  0
  148.8303  137.1595  153.3229 H   0  0  0  0  0  0  0  0  0  0  0  0
  147.5098  135.7739  152.9272 H   0  0  0  0  0  0  0  0  0  0  0  0
  145.8619  134.2217  154.1313 H   0  0  0  0  0  0  0  0  0  0  0  0
  145.0245  135.7062  154.5256 H   0  0  0  0  0  0  0  0  0  0  0  0
  143.8470  135.1468  152.5749 H   0  0  0  0  0  0  0  0  0  0  0  0
  145.1234  136.1153  151.8931 H   0  0  0  0  0  0  0  0  0  0  0  0
  146.0761  132.8286  153.0641 H   0  0  0  0  0  0  0  0  0  0  0  0
  144.3857  132.5836  152.6858 H   0  0  0  0  0  0  0  0  0  0  0  0
  146.7660  131.7936  150.9292 H   0  0  0  0  0  0  0  0  0  0  0  0
  146.3948  130.2488  152.8621 H   0  0  0  0  0  0  0  0  0  0  0  0
  145.9917  129.4682  151.3357 H   0  0  0  0  0  0  0  0  0  0  0  0
  144.7073  130.0568  152.3887 H   0  0  0  0  0  0  0  0  0  0  0  0
  145.8156  132.9950  149.0500 H   0  0  0  0  0  0  0  0  0  0  0  0
  143.7848  133.5408  147.6931 H   0  0  0  0  0  0  0  0  0  0  0  0
  142.8301  132.4220  148.6650 H   0  0  0  0  0  0  0  0  0  0  0  0
  144.1363  131.8154  147.6495 H   0  0  0  0  0  0  0  0  0  0  0  0
  143.4023  133.8045  150.7521 H   0  0  0  0  0  0  0  0  0  0  0  0
  144.4217  134.8953  149.8411 H   0  0  0  0  0  0  0  0  0  0  0  0
  150.4430  139.1675  153.1310 H   0  0  0  0  0  0  0  0  0  0  0  0
  1  2  1  0  0  0  0
  1 23  1  0  0  0  0
  1 24  1  0  0  0  0
  1 25  1  0  0  0  0
  2  3  1  0  0  0  0
  3 22  1  0  0  0  0
  3  4  2  0  0  0  0
  4  5  1  0  0  0  0
  4 26  1  0  0  0  0
  5  6  2  0  0  0  0
  5 27  1  0  0  0  0
  6  7  1  0  0  0  0
  6 21  1  0  0  0  0
  7  8  1  0  0  0  0
  7 28  1  0  0  0  0
  8  9  2  0  0  0  0
  8 10  1  0  0  0  0
 10 11  1  0  0  0  0
 10 29  1  0  0  0  0
 11 12  1  0  0  0  0
 11 30  1  0  0  0  0
 11 31  1  0  0  0  0
 12 13  1  0  0  0  0
 12 32  1  0  0  0  0
 12 33  1  0  0  0  0
 13 20  1  0  0  0  0
 13 14  1  0  0  0  0
 14 15  1  0  0  0  0
 14 34  1  0  0  0  0
 14 35  1  0  0  0  0
 15 16  1  0  0  0  0
 15 17  1  0  0  0  0
 15 36  1  0  0  0  0
 16 37  1  0  0  0  0
 16 38  1  0  0  0  0
 16 39  1  0  0  0  0
 17 18  1  0  0  0  0
 18 19  1  0  0  0  0
 18 20  1  0  0  0  0
 18 40  1  0  0  0  0
 19 41  1  0  0  0  0
 19 42  1  0  0  0  0
 19 43  1  0  0  0  0
 20 44  1  0  0  0  0
 20 45  1  0  0  0  0
 21 22  2  0  0  0  0
 21 46  1  0  0  0  0
M  END
> <s_m_source_file>
AV-unprocessed.smi

> <i_m_source_file_index>
1430

> <i_lp_mmshare_version>
43012

> <i_f3d_flags>
0

> <s_epik_input>
W0NIM11PYzFbY0hdW2NIXWMoW2NIXW4xKVtOSF1DKD1PKVtOSF1bQ0gyXVtDSDJdTjJbQ0gyXVtDQEBIXShbQ0gzXSlPW0NAQEhdKFtDSDNdKVtDSDJdMg==

> <s_epik_cmdline>
J2VwaWtfcHl0aG9uJywgJy1waCcsICc3LjAnLCAnLXRuJywgJzgnLCAnLW1hJywgJzIwMCcsICctbWV0YWxfYmluZGluZycsICctaW1hZScsICc8aW5maWxlLm1hZT4nLCAnLW9tYWUnLCAnPG91dGZpbGUubWFlPic=

> <r_lp_tautomer_probability>
1

> <r_epik_Ionization_Penalty>
0.266083

> <r_epik_Ionization_Penalty_Charging>
0

> <r_epik_Ionization_Penalty_Neutral>
0.266083

> <r_epik_State_Penalty>
0.257924

> <r_epik_Charging_Adjusted_Penalty>
0.257924

> <i_epik_Tot_Q>
0

> <i_epik_Tot_abs_Q>
0

> <r_epik_Metal_State_Penalty>
0.257922

> <b_epik_Metal_Only>
0

> <s_lp_Force_Field>
OPLS_2005

> <r_lp_Energy>
23.3408

> <b_lp_Chiralities_Consistent>
1

> <s_lp_Variant>
AV-unprocessed.smi:1430-1

> <Gold.Version>
5.8.1

> <Gold.Id.Protein>
6NUR|6NUR_protein|mol2

> <Gold.PLP.Fitness>
41.4393

> <Gold.PLP.PLP>
-30.6292

> <Gold.PLP.part.hbond>
-3.3722

> <Gold.PLP.part.metal>
0.0000

> <Gold.PLP.part.buried>
-3.1842

> <Gold.PLP.part.nonpolar>
-23.3614

> <Gold.PLP.part.repulsive>
0.3662

> <Gold.PLP.ligand.clash>
0.0000

> <Gold.PLP.ligand.torsion>
0.5766

> <Gold.PLP.Chemscore.Hbond>
2.9760

> <Gold.PLP.Chemscore.CHOScore>
1.0000

> <Gold.PLP.Chemscore.Metal>
0.0000

> <Gold.Chemscore.Hbonds>
donor molecule, donor type, donor heavy atom, donor atom, acceptor molecule, acceptor atom, score
      L1  H     7    28       P1  7948  1.00
      L1  H    10    29       P1  7948  1.00
      P1  H  7989  7998       L1    22  0.90
      L1  C    21    46       P1  7957  1.00

> <Gold.PLP.Chemscore.Internal.Correction>
0.0354

> <Gold.Rescore>
     Score         DG    S(hbond)    S(metal)    S(lipo)     H(rot)  DE(clash)    DE(int)     intcor
     16.82     -18.72       2.38        0.00      82.59       1.71       0.03       1.88       ----

> <Gold.Chemscore.Fitness>
16.8165

> <Gold.Chemscore.DG>
-18.7205

> <Gold.Chemscore.ZeroCoef>
-5.4800

> <Gold.Chemscore.Hbond>
2.3825

> <Gold.Chemscore.Metal>
0.0000

> <Gold.Chemscore.Lipo>
82.5860

> <Gold.Chemscore.Internal_Hbond>
0.0000

> <Gold.Chemscore.DEClash>
0.0270

> <Gold.Chemscore.DEInternal>
1.8770

> <Gold.Chemscore.Rot>
1.7107

> <Gold.Chemscore.Internal.Correction>
   9.000000E+99

> <Gold.Chemscore.Hbonds>
donor molecule, donor type, donor heavy atom, donor atom, acceptor molecule, acceptor atom, score
      L1  H     7    28       P1  7948  0.99
      L1  H    10    29       P1  7948  0.94
      P1  H  7989  7998       L1    22  0.17

> <Gold.Chemscore.Hbond.Weighted>
-7.9574

> <Gold.Chemscore.Metal.Weighted>
-0.0000

> <Gold.Chemscore.Lipo.Weighted>
-9.6626

> <Gold.Chemscore.Internal_Hbond.Weighted>
0.0000

> <Gold.Chemscore.DEClash.Weighted>
0.0270

> <Gold.Chemscore.DEInternal.Weighted>
1.8770

> <Gold.Chemscore.Rot.Weighted>
4.3794

> <Gold.Chemscore.Internal.Correction.Weighted>
   9.000000E+99

> <Gold.Protein.RotatedTorsions>
[ 6907 6896 6895 6894 ] final  -10.69 input  -60.11 | X-H torsion
[ 7974 7965 7964 7962 ] final  -49.89 input  175.53 | X-H torsion
[ 8008 7997 7996 7995 ] final -106.36 input   59.86 | X-H torsion
[ 10167 10162 10161 10158 ] final   20.98 input  -65.29 | X-H torsion
[ 10718 10713 10712 10709 ] final  105.01 input   66.30 | X-H torsion
[ 10763 10752 10751 10750 ] final  -28.34 input  -60.55 | X-H torsion
[ 11005 11000 10999 10996 ] final   18.73 input  -57.11 | X-H torsion

> <Gold.Protein.ActiveResidues>
 VAL166  LYS551  ARG553  GLY616  TRP617  ASP618  TYR619  PRO620  LYS621  CYS622 
 ASP623  PHE694  ASN695  SER759  ASP760  ASP761  ALA762  ILE779  LEU786  VAL792 
 PHE793  MET794  SER795  GLU796  ALA797  LYS798  CYS799  TRP800  GLU811  SER814 

> <Gold.Protein.RotatedAtoms>
  151.3979  135.0966  159.9546 H   0  0  0  0  0  0  0  0  0  0  0  0  # atno 6907 bound_to 6896
  152.5059  133.8917  159.7407 H   0  0  0  0  0  0  0  0  0  0  0  0  # atno 6908 bound_to 6896
  150.9384  133.6628  159.2824 H   0  0  0  0  0  0  0  0  0  0  0  0  # atno 6909 bound_to 6896
  145.9357  140.7708  142.9577 H   0  0  0  0  0  0  0  0  0  0  0  0  # atno 7974 bound_to 7965
  154.9134  140.0409  157.1959 H   0  0  0  0  0  0  0  0  0  0  0  0  # atno 8008 bound_to 7997
  154.8325  140.2901  155.5691 H   0  0  0  0  0  0  0  0  0  0  0  0  # atno 8009 bound_to 7997
  156.2987  140.2498  156.3253 H   0  0  0  0  0  0  0  0  0  0  0  0  # atno 8010 bound_to 7997
  140.5462  143.9591  150.6549 H   0  0  0  0  0  0  0  0  0  0  0  0  # atno 10167 bound_to 10162
  157.6720  131.0817  150.5793 H   0  0  0  0  0  0  0  0  0  0  0  0  # atno 10718 bound_to 10713
  153.7468  135.6929  153.4954 H   0  0  0  0  0  0  0  0  0  0  0  0  # atno 10763 bound_to 10752
  153.2031  135.4429  155.0289 H   0  0  0  0  0  0  0  0  0  0  0  0  # atno 10764 bound_to 10752
  154.8201  135.3418  154.6991 H   0  0  0  0  0  0  0  0  0  0  0  0  # atno 10765 bound_to 10752
  140.4215  134.1514  155.7673 H   0  0  0  0  0  0  0  0  0  0  0  0  # atno 11005 bound_to 11000
  144.6771  140.2199  143.7367 LP  0  0  0  0  0  0  0  0  0  0  0  0  # atno 17320 bound_to 7965
  145.8367  139.2110  143.1851 LP  0  0  0  0  0  0  0  0  0  0  0  0  # atno 17321 bound_to 7965
  140.3004  143.3264  152.0977 LP  0  0  0  0  0  0  0  0  0  0  0  0  # atno 17342 bound_to 10162
  139.5008  144.6700  151.6265 LP  0  0  0  0  0  0  0  0  0  0  0  0  # atno 17343 bound_to 10162
  156.6093  130.4376  149.5865 LP  0  0  0  0  0  0  0  0  0  0  0  0  # atno 17370 bound_to 10713
  156.2443  130.6869  151.1585 LP  0  0  0  0  0  0  0  0  0  0  0  0  # atno 17371 bound_to 10713
  141.1782  133.8470  157.1349 LP  0  0  0  0  0  0  0  0  0  0  0  0  # atno 17394 bound_to 11000
  140.0197  134.9951  157.0566 LP  0  0  0  0  0  0  0  0  0  0  0  0  # atno 17395 bound_to 11000

$$$$
