AV-unprocessed.smi:3112|AV-procd|sdf|11837|dock4
  -GOLD-   2272017213D 1   1.00000     0.00000
 Structure written by MMmdl.
 37 37  0  0  0  0  0  0  0  0  2 V2000
  145.4114  136.1513  151.5152 C   0  0  0  0  0  0  0  0  0  0  0  0
  145.8472  137.0391  152.6892 C   0  0  0  0  0  0  0  0  0  0  0  0
  146.7564  138.2083  152.2691 C   0  0  1  0  0  0  0  0  0  0  0  0
  145.9604  139.2192  151.6823 O   0  0  0  0  0  0  0  0  0  0  0  0
  147.5052  138.8143  153.4679 C   0  0  0  0  0  0  0  0  0  0  0  0
  148.9616  138.8571  153.2165 N   0  3  0  0  0  0  0  0  0  0  0  0
  149.8136  139.1493  154.3932 C   0  0  2  0  0  0  0  0  0  0  0  0
  149.9260  137.8707  155.2438 C   0  0  0  0  0  0  0  0  0  0  0  0
  149.3083  140.3966  155.1754 C   0  0  2  0  0  0  0  0  0  0  0  0
  148.8836  141.5535  154.2496 C   0  0  0  0  0  0  0  0  0  0  0  0
  150.2465  140.8393  156.2038 N   0  0  0  0  0  0  0  0  0  0  0  0
  150.1214  141.9227  157.0503 C   0  0  0  0  0  0  0  0  0  0  0  0
  151.2149  141.9362  157.8673 C   0  0  0  0  0  0  0  0  0  0  0  0
  151.9640  140.8029  157.4466 C   0  0  0  0  0  0  0  0  0  0  0  0
  151.3803  140.1465  156.4574 N   0  0  0  0  0  0  0  0  0  0  0  0
  144.8010  135.3192  151.8666 H   0  0  0  0  0  0  0  0  0  0  0  0
  146.2737  135.7332  150.9952 H   0  0  0  0  0  0  0  0  0  0  0  0
  144.8194  136.7096  150.7897 H   0  0  0  0  0  0  0  0  0  0  0  0
  144.9659  137.4183  153.2086 H   0  0  0  0  0  0  0  0  0  0  0  0
  146.3773  136.4142  153.4092 H   0  0  0  0  0  0  0  0  0  0  0  0
  147.4776  137.8558  151.5303 H   0  0  0  0  0  0  0  0  0  0  0  0
  145.5113  138.8529  150.9349 H   0  0  0  0  0  0  0  0  0  0  0  0
  147.1336  139.8181  153.6797 H   0  0  0  0  0  0  0  0  0  0  0  0
  147.3130  138.2091  154.3533 H   0  0  0  0  0  0  0  0  0  0  0  0
  149.2573  137.9826  152.8069 H   0  0  0  0  0  0  0  0  0  0  0  0
  150.8157  139.3673  154.0209 H   0  0  0  0  0  0  0  0  0  0  0  0
  150.5618  138.0177  156.1162 H   0  0  0  0  0  0  0  0  0  0  0  0
  150.3661  137.0594  154.6629 H   0  0  0  0  0  0  0  0  0  0  0  0
  148.9526  137.5248  155.5915 H   0  0  0  0  0  0  0  0  0  0  0  0
  148.3964  140.1139  155.7009 H   0  0  0  0  0  0  0  0  0  0  0  0
  148.1239  141.2260  153.5395 H   0  0  0  0  0  0  0  0  0  0  0  0
  149.7184  141.9564  153.6762 H   0  0  0  0  0  0  0  0  0  0  0  0
  148.4571  142.3751  154.8261 H   0  0  0  0  0  0  0  0  0  0  0  0
  149.2724  142.5889  157.0019 H   0  0  0  0  0  0  0  0  0  0  0  0
  151.4447  142.6471  158.6473 H   0  0  0  0  0  0  0  0  0  0  0  0
  152.9056  140.4380  157.8294 H   0  0  0  0  0  0  0  0  0  0  0  0
  149.1170  139.5913  152.5401 H   0  0  0  0  0  0  0  0  0  0  0  0
  1  2  1  0  0  0  0
  1 16  1  0  0  0  0
  1 17  1  0  0  0  0
  1 18  1  0  0  0  0
  2  3  1  0  0  0  0
  2 19  1  0  0  0  0
  2 20  1  0  0  0  0
  3  4  1  0  0  0  0
  3  5  1  0  0  0  0
  3 21  1  0  0  0  0
  4 22  1  0  0  0  0
  5  6  1  0  0  0  0
  5 23  1  0  0  0  0
  5 24  1  0  0  0  0
  6  7  1  0  0  0  0
  6 25  1  0  0  0  0
  6 37  1  0  0  0  0
  7  8  1  0  0  0  0
  7  9  1  0  0  0  0
  7 26  1  0  0  0  0
  8 27  1  0  0  0  0
  8 28  1  0  0  0  0
  8 29  1  0  0  0  0
  9 10  1  0  0  0  0
  9 11  1  0  0  0  0
  9 30  1  0  0  0  0
 10 31  1  0  0  0  0
 10 32  1  0  0  0  0
 10 33  1  0  0  0  0
 11 15  1  0  0  0  0
 11 12  1  0  0  0  0
 12 13  2  0  0  0  0
 12 34  1  0  0  0  0
 13 14  1  0  0  0  0
 13 35  1  0  0  0  0
 14 15  2  0  0  0  0
 14 36  1  0  0  0  0
M  CHG  1   6   1
M  END
> <s_m_source_file>
AV-unprocessed.smi

> <i_m_source_file_index>
3112

> <i_lp_mmshare_version>
43012

> <i_f3d_flags>
0

> <s_epik_input>
W0NIM11bQ0gyXVtDQEhdKFtPSF0pW0NIMl1bTkhdW0NASF0oW0NIM10pW0NASF0oW0NIM10pbjFbY0hdW2NIXVtjSF1uMQ==

> <s_epik_cmdline>
J2VwaWtfcHl0aG9uJywgJy1waCcsICc3LjAnLCAnLXRuJywgJzgnLCAnLW1hJywgJzIwMCcsICctbWV0YWxfYmluZGluZycsICctaW1hZScsICc8aW5maWxlLm1hZT4nLCAnLW9tYWUnLCAnPG91dGZpbGUubWFlPic=

> <r_lp_tautomer_probability>
1

> <r_epik_Ionization_Penalty>
0.0154842

> <r_epik_Ionization_Penalty_Charging>
0.0154724

> <r_epik_Ionization_Penalty_Neutral>
1.17979e-05

> <r_epik_State_Penalty>
0.0121607

> <r_epik_Charging_Adjusted_Penalty>
0.0276331

> <i_epik_Tot_Q>
1

> <i_epik_Tot_abs_Q>
1

> <r_epik_Metal_State_Penalty>
0.0121863

> <b_epik_Metal_Only>
0

> <s_lp_Force_Field>
OPLS_2005

> <r_lp_Energy>
12.6471

> <b_lp_Chiralities_Consistent>
1

> <s_lp_Variant>
AV-unprocessed.smi:3112-2

> <Gold.Version>
5.8.1

> <Gold.Id.Protein>
6NUR|6NUR_protein|mol2

> <Gold.PLP.Fitness>
40.2426

> <Gold.PLP.PLP>
-27.6623

> <Gold.PLP.part.hbond>
-3.7469

> <Gold.PLP.part.metal>
0.0000

> <Gold.PLP.part.buried>
-1.9539

> <Gold.PLP.part.nonpolar>
-23.2612

> <Gold.PLP.part.repulsive>
0.0965

> <Gold.PLP.ligand.clash>
0.0000

> <Gold.PLP.ligand.torsion>
1.2865

> <Gold.PLP.Chemscore.Hbond>
3.9920

> <Gold.PLP.Chemscore.CHOScore>
1.0000

> <Gold.PLP.Chemscore.Metal>
0.0000

> <Gold.Chemscore.Hbonds>
donor molecule, donor type, donor heavy atom, donor atom, acceptor molecule, acceptor atom, score
      L1  H     4    22       P1 10171  1.00
      L1  H     6    25       P1  7948  2.00
      L1  H     6    37       P1  7957  0.98
      L1  C    12    34       P1  8028  0.97

> <Gold.PLP.Chemscore.Internal.Correction>
0.1772

> <Gold.Rescore>
     Score         DG    S(hbond)    S(metal)    S(lipo)     H(rot)  DE(clash)    DE(int)     intcor
     13.81     -17.28       2.90        0.00      70.79       2.41       1.08       2.39       ----

> <Gold.Chemscore.Fitness>
13.8131

> <Gold.Chemscore.DG>
-17.2849

> <Gold.Chemscore.ZeroCoef>
-5.4800

> <Gold.Chemscore.Hbond>
2.9010

> <Gold.Chemscore.Metal>
0.0000

> <Gold.Chemscore.Lipo>
70.7871

> <Gold.Chemscore.Internal_Hbond>
0.0000

> <Gold.Chemscore.DEClash>
1.0823

> <Gold.Chemscore.DEInternal>
2.3895

> <Gold.Chemscore.Rot>
2.4089

> <Gold.Chemscore.Internal.Correction>
   9.000000E+99

> <Gold.Chemscore.Hbonds>
donor molecule, donor type, donor heavy atom, donor atom, acceptor molecule, acceptor atom, score
      L1  H     4    22       P1 10171  0.94
      L1  H     6    25       P1  7948  0.92
      L1  H     6    37       P1  7957  0.86

> <Gold.Chemscore.Hbond.Weighted>
-9.6895

> <Gold.Chemscore.Metal.Weighted>
-0.0000

> <Gold.Chemscore.Lipo.Weighted>
-8.2821

> <Gold.Chemscore.Internal_Hbond.Weighted>
0.0000

> <Gold.Chemscore.DEClash.Weighted>
1.0823

> <Gold.Chemscore.DEInternal.Weighted>
2.3895

> <Gold.Chemscore.Rot.Weighted>
6.1667

> <Gold.Chemscore.Internal.Correction.Weighted>
   9.000000E+99

> <Gold.Protein.RotatedTorsions>
[ 6907 6896 6895 6894 ] final  122.98 input  -60.11 | X-H torsion
[ 7974 7965 7964 7962 ] final   23.51 input  175.53 | X-H torsion
[ 8008 7997 7996 7995 ] final  -16.65 input   59.86 | X-H torsion
[ 10167 10162 10161 10158 ] final   35.26 input  -65.29 | X-H torsion
[ 10718 10713 10712 10709 ] final  -30.82 input   66.30 | X-H torsion
[ 10763 10752 10751 10750 ] final  -87.60 input  -60.55 | X-H torsion
[ 11005 11000 10999 10996 ] final  -27.91 input  -57.11 | X-H torsion

> <Gold.Protein.ActiveResidues>
 VAL166  LYS551  ARG553  GLY616  TRP617  ASP618  TYR619  PRO620  LYS621  CYS622 
 ASP623  PHE694  ASN695  SER759  ASP760  ASP761  ALA762  ILE779  LEU786  VAL792 
 PHE793  MET794  SER795  GLU796  ALA797  LYS798  CYS799  TRP800  GLU811  SER814 

> <Gold.Protein.RotatedAtoms>
  152.4199  133.7099  159.6472 H   0  0  0  0  0  0  0  0  0  0  0  0  # atno 6907 bound_to 6896
  150.8075  133.8472  159.3204 H   0  0  0  0  0  0  0  0  0  0  0  0  # atno 6908 bound_to 6896
  151.6192  135.1035  160.0149 H   0  0  0  0  0  0  0  0  0  0  0  0  # atno 6909 bound_to 6896
  146.1981  139.7734  142.8782 H   0  0  0  0  0  0  0  0  0  0  0  0  # atno 7974 bound_to 7965
  154.5037  140.2163  155.9295 H   0  0  0  0  0  0  0  0  0  0  0  0  # atno 8008 bound_to 7997
  156.1466  140.3169  155.8547 H   0  0  0  0  0  0  0  0  0  0  0  0  # atno 8009 bound_to 7997
  155.4019  140.0485  157.3027 H   0  0  0  0  0  0  0  0  0  0  0  0  # atno 8010 bound_to 7997
  140.4238  144.1422  150.6151 H   0  0  0  0  0  0  0  0  0  0  0  0  # atno 10167 bound_to 10162
  156.3950  130.4380  149.7365 H   0  0  0  0  0  0  0  0  0  0  0  0  # atno 10718 bound_to 10713
  154.6354  135.5407  153.7728 H   0  0  0  0  0  0  0  0  0  0  0  0  # atno 10763 bound_to 10752
  153.0306  135.6446  154.1239 H   0  0  0  0  0  0  0  0  0  0  0  0  # atno 10764 bound_to 10752
  154.1167  135.2923  155.3198 H   0  0  0  0  0  0  0  0  0  0  0  0  # atno 10765 bound_to 10752
  140.9161  133.7429  156.0737 H   0  0  0  0  0  0  0  0  0  0  0  0  # atno 11005 bound_to 11000
  145.3577  141.0320  143.3302 LP  0  0  0  0  0  0  0  0  0  0  0  0  # atno 17320 bound_to 7965
  144.8623  139.5159  143.6806 LP  0  0  0  0  0  0  0  0  0  0  0  0  # atno 17321 bound_to 7965
  140.4504  143.2489  151.9355 LP  0  0  0  0  0  0  0  0  0  0  0  0  # atno 17342 bound_to 10162
  139.4783  144.5568  151.8302 LP  0  0  0  0  0  0  0  0  0  0  0  0  # atno 17343 bound_to 10162
  156.4404  130.7858  151.2879 LP  0  0  0  0  0  0  0  0  0  0  0  0  # atno 17370 bound_to 10713
  157.7501  131.0126  150.3393 LP  0  0  0  0  0  0  0  0  0  0  0  0  # atno 17371 bound_to 10713
  140.8048  134.3468  157.5429 LP  0  0  0  0  0  0  0  0  0  0  0  0  # atno 17394 bound_to 11000
  139.8766  134.9219  156.3286 LP  0  0  0  0  0  0  0  0  0  0  0  0  # atno 17395 bound_to 11000

$$$$
