AV-unprocessed.smi:10|AV-procd|sdf|54|dock5
  -GOLD-   2262015173D 1   1.00000     0.00000
 Structure written by MMmdl.
 34 36  0  0  0  0  0  0  0  0  1 V2000
  152.2262  144.0759  161.5991 C   0  0  0  0  0  0  0  0  0  0  0  0
  152.5473  142.8805  160.8471 N   0  0  0  0  0  0  0  0  0  0  0  0
  153.3625  141.8753  161.2179 C   0  0  0  0  0  0  0  0  0  0  0  0
  153.4837  140.8892  160.3308 N   0  0  0  0  0  0  0  0  0  0  0  0
  152.6613  141.3187  159.2953 C   0  0  0  0  0  0  0  0  0  0  0  0
  152.3434  140.6905  157.9924 C   0  0  0  0  0  0  0  0  0  0  0  0
  152.8129  139.6043  157.6518 O   0  0  0  0  0  0  0  0  0  0  0  0
  151.4892  141.4382  157.2314 N   0  0  0  0  0  0  0  0  0  0  0  0
  151.0688  140.9802  155.8981 C   0  0  0  0  0  0  0  0  0  0  0  0
  149.5616  141.2064  155.6492 C   0  0  1  0  0  0  0  0  0  0  0  0
  149.4194  142.1380  154.5943 O   0  0  0  0  0  0  0  0  0  0  0  0
  148.8470  139.9084  155.2598 C   0  0  0  0  0  0  0  0  0  0  0  0
  149.3544  139.0379  154.0987 C   0  0  0  0  0  0  0  0  0  0  0  0
  147.8978  138.6551  153.8152 C   0  0  0  0  0  0  0  0  0  0  0  0
  147.4785  139.9279  154.5590 C   0  0  0  0  0  0  0  0  0  0  0  0
  150.9526  142.6846  157.6744 C   0  0  0  0  0  0  0  0  0  0  0  0
  151.2135  143.2626  158.8182 N   0  0  0  0  0  0  0  0  0  0  0  0
  152.0832  142.5224  159.5874 C   0  0  0  0  0  0  0  0  0  0  0  0
  152.7042  144.0461  162.5787 H   0  0  0  0  0  0  0  0  0  0  0  0
  151.1465  144.1468  161.7328 H   0  0  0  0  0  0  0  0  0  0  0  0
  152.5788  144.9543  161.0584 H   0  0  0  0  0  0  0  0  0  0  0  0
  153.8828  141.8660  162.1645 H   0  0  0  0  0  0  0  0  0  0  0  0
  151.6619  141.4351  155.1018 H   0  0  0  0  0  0  0  0  0  0  0  0
  151.2904  139.9141  155.8194 H   0  0  0  0  0  0  0  0  0  0  0  0
  149.0857  141.6211  156.5387 H   0  0  0  0  0  0  0  0  0  0  0  0
  149.4841  143.0093  154.9544 H   0  0  0  0  0  0  0  0  0  0  0  0
  148.7558  139.2671  156.1395 H   0  0  0  0  0  0  0  0  0  0  0  0
  149.8009  139.6163  153.2885 H   0  0  0  0  0  0  0  0  0  0  0  0
  149.9952  138.2081  154.3986 H   0  0  0  0  0  0  0  0  0  0  0  0
  147.6288  138.6337  152.7588 H   0  0  0  0  0  0  0  0  0  0  0  0
  147.5921  137.7433  154.3305 H   0  0  0  0  0  0  0  0  0  0  0  0
  146.6244  139.8055  155.2255 H   0  0  0  0  0  0  0  0  0  0  0  0
  147.3431  140.7766  153.8870 H   0  0  0  0  0  0  0  0  0  0  0  0
  150.2712  143.1468  156.9581 H   0  0  0  0  0  0  0  0  0  0  0  0
  1  2  1  0  0  0  0
  1 19  1  0  0  0  0
  1 20  1  0  0  0  0
  1 21  1  0  0  0  0
  2 18  1  0  0  0  0
  2  3  1  0  0  0  0
  3  4  2  0  0  0  0
  3 22  1  0  0  0  0
  4  5  1  0  0  0  0
  5 18  2  0  0  0  0
  5  6  1  0  0  0  0
  6  7  2  0  0  0  0
  6  8  1  0  0  0  0
  8  9  1  0  0  0  0
  8 16  1  0  0  0  0
  9 10  1  0  0  0  0
  9 23  1  0  0  0  0
  9 24  1  0  0  0  0
 10 11  1  0  0  0  0
 10 12  1  0  0  0  0
 10 25  1  0  0  0  0
 11 26  1  0  0  0  0
 12 15  1  0  0  0  0
 12 13  1  0  0  0  0
 12 27  1  0  0  0  0
 13 14  1  0  0  0  0
 13 28  1  0  0  0  0
 13 29  1  0  0  0  0
 14 15  1  0  0  0  0
 14 30  1  0  0  0  0
 14 31  1  0  0  0  0
 15 32  1  0  0  0  0
 15 33  1  0  0  0  0
 16 17  2  0  0  0  0
 16 34  1  0  0  0  0
 17 18  1  0  0  0  0
M  END
> <s_m_source_file>
AV-unprocessed.smi

> <i_m_source_file_index>
10

> <i_lp_mmshare_version>
43012

> <i_f3d_flags>
0

> <s_epik_input>
bjFbY0hdbihbQ0gzXSljKGMxMiluW2NIXW4oYzI9TylbQ0gyXVtDQEhdKFtPSF0pW0NIXTNbQ0gyXVtDSDJdW0NIMl0z

> <s_epik_cmdline>
J2VwaWtfcHl0aG9uJywgJy1waCcsICc3LjAnLCAnLXRuJywgJzgnLCAnLW1hJywgJzIwMCcsICctbWV0YWxfYmluZGluZycsICctaW1hZScsICc8aW5maWxlLm1hZT4nLCAnLW9tYWUnLCAnPG91dGZpbGUubWFlPic=

> <r_lp_tautomer_probability>
1

> <r_epik_Ionization_Penalty>
0.0003743

> <r_epik_Ionization_Penalty_Charging>
2.98177e-12

> <r_epik_Ionization_Penalty_Neutral>
0.000374299

> <r_epik_State_Penalty>
0.000224514

> <r_epik_Charging_Adjusted_Penalty>
0.000224514

> <i_epik_Tot_Q>
0

> <i_epik_Tot_abs_Q>
0

> <r_epik_Metal_State_Penalty>
-0

> <b_epik_Metal_Only>
0

> <s_lp_Force_Field>
OPLS_2005

> <r_lp_Energy>
33.6231

> <b_lp_Chiralities_Consistent>
1

> <s_lp_Variant>
AV-unprocessed.smi:10-2

> <Gold.Version>
5.8.1

> <Gold.Id.Protein>
6NUR|6NUR_protein|mol2

> <Gold.PLP.Fitness>
43.5492

> <Gold.PLP.PLP>
-36.5077

> <Gold.PLP.part.hbond>
-3.5903

> <Gold.PLP.part.metal>
0.0000

> <Gold.PLP.part.buried>
-2.3035

> <Gold.PLP.part.nonpolar>
-29.4001

> <Gold.PLP.part.repulsive>
0.0645

> <Gold.PLP.ligand.clash>
0.0000

> <Gold.PLP.ligand.torsion>
1.1621

> <Gold.PLP.Chemscore.Hbond>
2.0957

> <Gold.PLP.Chemscore.CHOScore>
1.0000

> <Gold.PLP.Chemscore.Metal>
0.0000

> <Gold.Chemscore.Hbonds>
donor molecule, donor type, donor heavy atom, donor atom, acceptor molecule, acceptor atom, score
      L1  H    11    26       P1  8028  1.00
      P1  H  7997  8009       L1     7  1.00
      P1  H  8011  8017       L1    11  0.09
      L1  C    16    34       P1  8028  1.00

> <Gold.PLP.Chemscore.Internal.Correction>
0.0787

> <Gold.Rescore>
     Score         DG    S(hbond)    S(metal)    S(lipo)     H(rot)  DE(clash)    DE(int)     intcor
     11.55     -12.88       1.97        0.00      56.98       2.28       0.15       1.19       ----

> <Gold.Chemscore.Fitness>
11.5494

> <Gold.Chemscore.DG>
-12.8833

> <Gold.Chemscore.ZeroCoef>
-5.4800

> <Gold.Chemscore.Hbond>
1.9699

> <Gold.Chemscore.Metal>
0.0000

> <Gold.Chemscore.Lipo>
56.9827

> <Gold.Chemscore.Internal_Hbond>
0.0000

> <Gold.Chemscore.DEClash>
0.1451

> <Gold.Chemscore.DEInternal>
1.1888

> <Gold.Chemscore.Rot>
2.2824

> <Gold.Chemscore.Internal.Correction>
   9.000000E+99

> <Gold.Chemscore.Hbonds>
donor molecule, donor type, donor heavy atom, donor atom, acceptor molecule, acceptor atom, score
      L1  H    11    26       P1  8028  0.99
      P1  H  7997  8009       L1     7  0.45
      P1  H  8011  8017       L1    11  0.04

> <Gold.Chemscore.Hbond.Weighted>
-6.5794

> <Gold.Chemscore.Metal.Weighted>
-0.0000

> <Gold.Chemscore.Lipo.Weighted>
-6.6670

> <Gold.Chemscore.Internal_Hbond.Weighted>
0.0000

> <Gold.Chemscore.DEClash.Weighted>
0.1451

> <Gold.Chemscore.DEInternal.Weighted>
1.1888

> <Gold.Chemscore.Rot.Weighted>
5.8431

> <Gold.Chemscore.Internal.Correction.Weighted>
   9.000000E+99

> <Gold.Protein.RotatedTorsions>
[ 6907 6896 6895 6894 ] final  -47.03 input  -60.11 | X-H torsion
[ 7974 7965 7964 7962 ] final -142.20 input  175.53 | X-H torsion
[ 8008 7997 7996 7995 ] final  159.83 input   59.86 | X-H torsion
[ 10167 10162 10161 10158 ] final -157.41 input  -65.29 | X-H torsion
[ 10718 10713 10712 10709 ] final  -63.08 input   66.30 | X-H torsion
[ 10763 10752 10751 10750 ] final  154.28 input  -60.55 | X-H torsion
[ 11005 11000 10999 10996 ] final -150.80 input  -57.11 | X-H torsion

> <Gold.Protein.ActiveResidues>
 VAL166  LYS551  ARG553  GLY616  TRP617  ASP618  TYR619  PRO620  LYS621  CYS622 
 ASP623  PHE694  ASN695  SER759  ASP760  ASP761  ALA762  ILE779  LEU786  VAL792 
 PHE793  MET794  SER795  GLU796  ALA797  LYS798  CYS799  TRP800  GLU811  SER814 

> <Gold.Protein.RotatedAtoms>
  150.9050  134.8465  159.7386 H   0  0  0  0  0  0  0  0  0  0  0  0  # atno 6907 bound_to 6896
  152.4913  134.4445  159.9564 H   0  0  0  0  0  0  0  0  0  0  0  0  # atno 6908 bound_to 6896
  151.4493  133.3583  159.2828 H   0  0  0  0  0  0  0  0  0  0  0  0  # atno 6909 bound_to 6896
  144.8461  140.5987  143.5420 H   0  0  0  0  0  0  0  0  0  0  0  0  # atno 7974 bound_to 7965
  156.2213  140.1820  156.7470 H   0  0  0  0  0  0  0  0  0  0  0  0  # atno 8008 bound_to 7997
  154.5870  140.0657  156.9213 H   0  0  0  0  0  0  0  0  0  0  0  0  # atno 8009 bound_to 7997
  155.2403  140.3321  155.4295 H   0  0  0  0  0  0  0  0  0  0  0  0  # atno 8010 bound_to 7997
  139.6772  143.9642  152.2317 H   0  0  0  0  0  0  0  0  0  0  0  0  # atno 10167 bound_to 10162
  156.0814  130.4216  150.1226 H   0  0  0  0  0  0  0  0  0  0  0  0  # atno 10718 bound_to 10713
  154.1497  135.2816  155.3138 H   0  0  0  0  0  0  0  0  0  0  0  0  # atno 10763 bound_to 10752
  154.6226  135.5462  153.7595 H   0  0  0  0  0  0  0  0  0  0  0  0  # atno 10764 bound_to 10752
  153.0225  135.6443  154.1642 H   0  0  0  0  0  0  0  0  0  0  0  0  # atno 10765 bound_to 10752
  140.7363  134.3564  157.5156 H   0  0  0  0  0  0  0  0  0  0  0  0  # atno 11005 bound_to 11000
  145.4593  139.1514  143.3875 LP  0  0  0  0  0  0  0  0  0  0  0  0  # atno 17320 bound_to 7965
  146.2745  140.4723  142.8801 LP  0  0  0  0  0  0  0  0  0  0  0  0  # atno 17321 bound_to 7965
  139.9423  144.6674  150.8254 LP  0  0  0  0  0  0  0  0  0  0  0  0  # atno 17342 bound_to 10162
  140.7640  143.3236  151.2565 LP  0  0  0  0  0  0  0  0  0  0  0  0  # atno 17343 bound_to 10162
  156.9256  130.9697  151.3541 LP  0  0  0  0  0  0  0  0  0  0  0  0  # atno 17370 bound_to 10713
  157.5932  130.8458  149.8690 LP  0  0  0  0  0  0  0  0  0  0  0  0  # atno 17371 bound_to 10713
  139.8815  134.9051  156.2893 LP  0  0  0  0  0  0  0  0  0  0  0  0  # atno 17394 bound_to 11000
  140.9876  133.7228  156.0765 LP  0  0  0  0  0  0  0  0  0  0  0  0  # atno 17395 bound_to 11000

$$$$
