AV-unprocessed.smi:3349|AV-procd|sdf|12935|dock5
  -GOLD-   2272019363D 1   1.00000     0.00000
 Structure written by MMmdl.
 41 42  0  0  0  0  0  0  0  0  2 V2000
  149.1262  134.5616  155.1199 C   0  0  0  0  0  0  0  0  0  0  0  0
  148.4223  135.9333  155.2650 C   0  0  2  0  0  0  0  0  0  0  0  0
  146.9597  135.8579  154.7422 C   0  0  0  0  0  0  0  0  0  0  0  0
  146.8686  135.5123  153.3254 N   0  0  0  0  0  0  0  0  0  0  0  0
  145.7401  135.1922  152.6703 C   0  0  0  0  0  0  0  0  0  0  0  0
  144.6314  135.1880  153.2062 O   0  0  0  0  0  0  0  0  0  0  0  0
  145.8966  134.8354  151.1829 C   0  0  2  0  0  0  0  0  0  0  0  0
  145.7545  136.0591  150.2546 C   0  0  0  0  0  0  0  0  0  0  0  0
  144.9796  133.7618  150.8199 N   0  0  0  0  0  0  0  0  0  0  0  0
  144.9344  133.0070  149.7200 C   0  0  0  0  0  0  0  0  0  0  0  0
  143.9860  132.0812  149.7398 N   0  0  0  0  0  0  0  0  0  0  0  0
  143.4493  132.3314  150.9707 C   0  0  0  0  0  0  0  0  0  0  0  0
  144.0134  133.3203  151.6636 N   0  0  0  0  0  0  0  0  0  0  0  0
  149.2137  137.0240  154.6000 N   0  3  0  0  0  0  0  0  0  0  0  0
  148.5914  138.3760  154.6881 C   0  0  0  0  0  0  0  0  0  0  0  0
  149.4523  139.4454  153.9939 C   0  0  0  0  0  0  0  0  0  0  0  0
  150.7550  139.4538  154.5545 O   0  0  0  0  0  0  0  0  0  0  0  0
  151.4064  138.2107  154.3508 C   0  0  0  0  0  0  0  0  0  0  0  0
  150.6275  137.0953  155.0671 C   0  0  0  0  0  0  0  0  0  0  0  0
  148.5546  133.7573  155.5808 H   0  0  0  0  0  0  0  0  0  0  0  0
  150.0954  134.5304  155.6140 H   0  0  0  0  0  0  0  0  0  0  0  0
  149.2714  134.3009  154.0711 H   0  0  0  0  0  0  0  0  0  0  0  0
  148.3734  136.1701  156.3292 H   0  0  0  0  0  0  0  0  0  0  0  0
  146.4084  135.0674  155.2493 H   0  0  0  0  0  0  0  0  0  0  0  0
  146.4326  136.7892  154.9565 H   0  0  0  0  0  0  0  0  0  0  0  0
  147.7347  135.4940  152.8063 H   0  0  0  0  0  0  0  0  0  0  0  0
  146.9087  134.4494  151.0506 H   0  0  0  0  0  0  0  0  0  0  0  0
  146.4824  136.8310  150.5068 H   0  0  0  0  0  0  0  0  0  0  0  0
  144.7622  136.5082  150.3163 H   0  0  0  0  0  0  0  0  0  0  0  0
  145.9248  135.7788  149.2149 H   0  0  0  0  0  0  0  0  0  0  0  0
  145.6127  133.1339  148.8890 H   0  0  0  0  0  0  0  0  0  0  0  0
  142.6226  131.7630  151.3708 H   0  0  0  0  0  0  0  0  0  0  0  0
  147.6178  138.3908  154.2008 H   0  0  0  0  0  0  0  0  0  0  0  0
  148.4388  138.6410  155.7354 H   0  0  0  0  0  0  0  0  0  0  0  0
  149.5046  139.2669  152.9186 H   0  0  0  0  0  0  0  0  0  0  0  0
  149.0056  140.4304  154.1291 H   0  0  0  0  0  0  0  0  0  0  0  0
  151.4995  138.0009  153.2839 H   0  0  0  0  0  0  0  0  0  0  0  0
  152.4186  138.2754  154.7503 H   0  0  0  0  0  0  0  0  0  0  0  0
  150.6477  137.2624  156.1451 H   0  0  0  0  0  0  0  0  0  0  0  0
  151.1548  136.1632  154.8758 H   0  0  0  0  0  0  0  0  0  0  0  0
  149.2461  136.7942  153.6167 H   0  0  0  0  0  0  0  0  0  0  0  0
  1  2  1  0  0  0  0
  1 20  1  0  0  0  0
  1 21  1  0  0  0  0
  1 22  1  0  0  0  0
  2  3  1  0  0  0  0
  2 14  1  0  0  0  0
  2 23  1  0  0  0  0
  3  4  1  0  0  0  0
  3 24  1  0  0  0  0
  3 25  1  0  0  0  0
  4  5  1  0  0  0  0
  4 26  1  0  0  0  0
  5  6  2  0  0  0  0
  5  7  1  0  0  0  0
  7  8  1  0  0  0  0
  7  9  1  0  0  0  0
  7 27  1  0  0  0  0
  8 28  1  0  0  0  0
  8 29  1  0  0  0  0
  8 30  1  0  0  0  0
  9 13  1  0  0  0  0
  9 10  1  0  0  0  0
 10 11  2  0  0  0  0
 10 31  1  0  0  0  0
 11 12  1  0  0  0  0
 12 13  2  0  0  0  0
 12 32  1  0  0  0  0
 14 19  1  0  0  0  0
 14 15  1  0  0  0  0
 14 41  1  0  0  0  0
 15 16  1  0  0  0  0
 15 33  1  0  0  0  0
 15 34  1  0  0  0  0
 16 17  1  0  0  0  0
 16 35  1  0  0  0  0
 16 36  1  0  0  0  0
 17 18  1  0  0  0  0
 18 19  1  0  0  0  0
 18 37  1  0  0  0  0
 18 38  1  0  0  0  0
 19 39  1  0  0  0  0
 19 40  1  0  0  0  0
M  CHG  1  14   1
M  END
> <s_m_source_file>
AV-unprocessed.smi

> <i_m_source_file_index>
3349

> <i_lp_mmshare_version>
43012

> <i_f3d_flags>
0

> <s_epik_input>
W0NIMl0xW0NIMl1PW0NIMl1bQ0gyXU4xW0NASF0oW0NIM10pW0NIMl1bTkhdQyg9TylbQ0BIXShbQ0gzXSluMltjSF1uW2NIXW4y

> <s_epik_cmdline>
J2VwaWtfcHl0aG9uJywgJy1waCcsICc3LjAnLCAnLXRuJywgJzgnLCAnLW1hJywgJzIwMCcsICctbWV0YWxfYmluZGluZycsICctaW1hZScsICc8aW5maWxlLm1hZT4nLCAnLW9tYWUnLCAnPG91dGZpbGUubWFlPic=

> <r_lp_tautomer_probability>
1

> <r_epik_Ionization_Penalty>
0.71326

> <r_epik_Ionization_Penalty_Charging>
0.713252

> <r_epik_Ionization_Penalty_Neutral>
8.10337e-06

> <r_epik_State_Penalty>
0.737017

> <r_epik_Charging_Adjusted_Penalty>
1.45027

> <i_epik_Tot_Q>
1

> <i_epik_Tot_abs_Q>
1

> <r_epik_Metal_State_Penalty>
0.73702

> <b_epik_Metal_Only>
0

> <s_lp_Force_Field>
OPLS_2005

> <r_lp_Energy>
28.3535

> <b_lp_Chiralities_Consistent>
1

> <s_lp_Variant>
AV-unprocessed.smi:3349-5

> <Gold.Version>
5.8.1

> <Gold.Id.Protein>
6NUR|6NUR_protein|mol2

> <Gold.PLP.Fitness>
42.9234

> <Gold.PLP.PLP>
-28.2756

> <Gold.PLP.part.hbond>
-3.8027

> <Gold.PLP.part.metal>
0.0000

> <Gold.PLP.part.buried>
-1.2621

> <Gold.PLP.part.nonpolar>
-23.1789

> <Gold.PLP.part.repulsive>
0.5550

> <Gold.PLP.ligand.clash>
0.0006

> <Gold.PLP.ligand.torsion>
0.8878

> <Gold.PLP.Chemscore.Hbond>
4.4191

> <Gold.PLP.Chemscore.CHOScore>
1.0045

> <Gold.PLP.Chemscore.Metal>
0.0000

> <Gold.Chemscore.Hbonds>
donor molecule, donor type, donor heavy atom, donor atom, acceptor molecule, acceptor atom, score
      L1  H     4    26       P1  7948  1.00
      L1  H    14    41       P1  7948  2.00
      P1  H  7989  7998       L1    17  1.00
      P1  H 10785 10796       L1    11  0.23
      L1  C    10    31       P1  7921  0.65
      L1  C    12    32       P1 10952  0.03

> <Gold.PLP.Chemscore.Internal.Correction>
0.1531

> <Gold.Rescore>
     Score         DG    S(hbond)    S(metal)    S(lipo)     H(rot)  DE(clash)    DE(int)     intcor
      9.63     -12.46       2.52        0.00      45.30       2.63       0.29       2.54       ----

> <Gold.Chemscore.Fitness>
9.6288

> <Gold.Chemscore.DG>
-12.4585

> <Gold.Chemscore.ZeroCoef>
-5.4800

> <Gold.Chemscore.Hbond>
2.5206

> <Gold.Chemscore.Metal>
0.0000

> <Gold.Chemscore.Lipo>
45.2984

> <Gold.Chemscore.Internal_Hbond>
0.0000

> <Gold.Chemscore.DEClash>
0.2860

> <Gold.Chemscore.DEInternal>
2.5438

> <Gold.Chemscore.Rot>
2.6329

> <Gold.Chemscore.Internal.Correction>
   9.000000E+99

> <Gold.Chemscore.Hbonds>
donor molecule, donor type, donor heavy atom, donor atom, acceptor molecule, acceptor atom, score
      L1  H     4    26       P1  7948  0.98
      L1  H    14    41       P1  7948  0.98
      P1  H  7989  7998       L1    17  0.22
      P1  H 10785 10796       L1    11  0.20

> <Gold.Chemscore.Hbond.Weighted>
-8.4189

> <Gold.Chemscore.Metal.Weighted>
-0.0000

> <Gold.Chemscore.Lipo.Weighted>
-5.2999

> <Gold.Chemscore.Internal_Hbond.Weighted>
0.0000

> <Gold.Chemscore.DEClash.Weighted>
0.2860

> <Gold.Chemscore.DEInternal.Weighted>
2.5438

> <Gold.Chemscore.Rot.Weighted>
6.7403

> <Gold.Chemscore.Internal.Correction.Weighted>
   9.000000E+99

> <Gold.Protein.RotatedTorsions>
[ 6907 6896 6895 6894 ] final  -75.92 input  -60.11 | X-H torsion
[ 7974 7965 7964 7962 ] final  -12.68 input  175.53 | X-H torsion
[ 8008 7997 7996 7995 ] final  -18.30 input   59.86 | X-H torsion
[ 10167 10162 10161 10158 ] final  -92.12 input  -65.29 | X-H torsion
[ 10718 10713 10712 10709 ] final   20.73 input   66.30 | X-H torsion
[ 10763 10752 10751 10750 ] final   49.23 input  -60.55 | X-H torsion
[ 11005 11000 10999 10996 ] final -158.98 input  -57.11 | X-H torsion

> <Gold.Protein.ActiveResidues>
 VAL166  LYS551  ARG553  GLY616  TRP617  ASP618  TYR619  PRO620  LYS621  CYS622 
 ASP623  PHE694  ASN695  SER759  ASP760  ASP761  ALA762  ILE779  LEU786  VAL792 
 PHE793  MET794  SER795  GLU796  ALA797  LYS798  CYS799  TRP800  GLU811  SER814 

> <Gold.Protein.RotatedAtoms>
  150.7043  134.4649  159.5397 H   0  0  0  0  0  0  0  0  0  0  0  0  # atno 6907 bound_to 6896
  152.2317  134.8313  160.0482 H   0  0  0  0  0  0  0  0  0  0  0  0  # atno 6908 bound_to 6896
  151.9126  133.3530  159.3906 H   0  0  0  0  0  0  0  0  0  0  0  0  # atno 6909 bound_to 6896
  146.2143  140.3093  142.8381 H   0  0  0  0  0  0  0  0  0  0  0  0  # atno 7974 bound_to 7965
  154.4916  140.2119  155.9537 H   0  0  0  0  0  0  0  0  0  0  0  0  # atno 8008 bound_to 7997
  156.1313  140.3196  155.8321 H   0  0  0  0  0  0  0  0  0  0  0  0  # atno 8009 bound_to 7997
  155.4292  140.0502  157.3010 H   0  0  0  0  0  0  0  0  0  0  0  0  # atno 8010 bound_to 7997
  140.3380  143.2958  151.9867 H   0  0  0  0  0  0  0  0  0  0  0  0  # atno 10167 bound_to 10162
  157.1286  130.6581  149.5945 H   0  0  0  0  0  0  0  0  0  0  0  0  # atno 10718 bound_to 10713
  152.9788  135.5918  154.4055 H   0  0  0  0  0  0  0  0  0  0  0  0  # atno 10763 bound_to 10752
  154.3696  135.2767  155.2276 H   0  0  0  0  0  0  0  0  0  0  0  0  # atno 10764 bound_to 10752
  154.4237  135.6053  153.6080 H   0  0  0  0  0  0  0  0  0  0  0  0  # atno 10765 bound_to 10752
  140.6476  134.4485  157.5234 H   0  0  0  0  0  0  0  0  0  0  0  0  # atno 11005 bound_to 11000
  144.9000  140.7631  143.5873 LP  0  0  0  0  0  0  0  0  0  0  0  0  # atno 17320 bound_to 7965
  145.3018  139.1848  143.4685 LP  0  0  0  0  0  0  0  0  0  0  0  0  # atno 17321 bound_to 7965
  139.4845  144.6180  151.7309 LP  0  0  0  0  0  0  0  0  0  0  0  0  # atno 17342 bound_to 10162
  140.5335  144.0692  150.6062 LP  0  0  0  0  0  0  0  0  0  0  0  0  # atno 17343 bound_to 10162
  155.9813  130.4819  150.6819 LP  0  0  0  0  0  0  0  0  0  0  0  0  # atno 17370 bound_to 10713
  157.4413  131.0861  151.0941 LP  0  0  0  0  0  0  0  0  0  0  0  0  # atno 17371 bound_to 10713
  139.9057  134.8454  156.1715 LP  0  0  0  0  0  0  0  0  0  0  0  0  # atno 17394 bound_to 11000
  141.0560  133.6865  156.1862 LP  0  0  0  0  0  0  0  0  0  0  0  0  # atno 17395 bound_to 11000

$$$$
