AV-unprocessed.smi:2109|AV-procd|sdf|8607|dock6
  -GOLD-   2272011343D 1   1.00000     0.00000
 Structure written by MMmdl.
 46 47  0  0  0  0  0  0  0  0  2 V2000
  151.7255  145.6677  160.4751 C   0  0  0  0  0  0  0  0  0  0  0  0
  151.5808  144.4098  159.6007 C   0  0  0  0  0  0  0  0  0  0  0  0
  152.2945  143.2170  160.2538 C   0  0  0  0  0  0  0  0  0  0  0  0
  152.0874  144.6218  158.1585 C   0  0  0  0  0  0  0  0  0  0  0  0
  151.2039  144.0191  157.1640 N   0  0  0  0  0  0  0  0  0  0  0  0
  151.0509  142.7040  156.9543 C   0  0  0  0  0  0  0  0  0  0  0  0
  151.6463  141.8273  157.5804 O   0  0  0  0  0  0  0  0  0  0  0  0
  150.1627  142.4553  155.9816 N   0  0  0  0  0  0  0  0  0  0  0  0
  149.8094  141.1267  155.4867 C   0  0  0  0  0  0  0  0  0  0  0  0
  148.4496  141.0104  154.8044 C   0  0  0  0  0  0  0  0  0  0  0  0
  148.1052  139.7898  154.1870 C   0  0  0  0  0  0  0  0  0  0  0  0
  146.8546  139.6642  153.5553 C   0  0  0  0  0  0  0  0  0  0  0  0
  145.9975  140.7063  153.5503 N   0  3  0  0  0  0  0  0  0  0  0  0
  146.2612  141.9029  154.1290 C   0  0  0  0  0  0  0  0  0  0  0  0
  145.2670  142.9045  154.0639 N   0  0  0  0  0  0  0  0  0  0  0  0
  144.5239  143.2204  155.2811 C   0  0  0  0  0  0  0  0  0  0  0  0
  143.2954  144.0863  154.9557 C   0  0  0  0  0  0  0  0  0  0  0  0
  143.7020  145.2427  154.2334 O   0  0  0  0  0  0  0  0  0  0  0  0
  144.2974  144.9016  152.9866 C   0  0  0  0  0  0  0  0  0  0  0  0
  145.5662  144.0660  153.2272 C   0  0  0  0  0  0  0  0  0  0  0  0
  147.5129  142.0727  154.7742 C   0  0  0  0  0  0  0  0  0  0  0  0
  152.7639  145.9971  160.5255 H   0  0  0  0  0  0  0  0  0  0  0  0
  151.3878  145.4777  161.4942 H   0  0  0  0  0  0  0  0  0  0  0  0
  151.1314  146.4964  160.0903 H   0  0  0  0  0  0  0  0  0  0  0  0
  150.5192  144.1634  159.5508 H   0  0  0  0  0  0  0  0  0  0  0  0
  153.3665  143.3969  160.3424 H   0  0  0  0  0  0  0  0  0  0  0  0
  152.1570  142.3065  159.6697 H   0  0  0  0  0  0  0  0  0  0  0  0
  151.9053  143.0252  161.2544 H   0  0  0  0  0  0  0  0  0  0  0  0
  152.2361  145.6849  157.9609 H   0  0  0  0  0  0  0  0  0  0  0  0
  153.0663  144.1559  158.0431 H   0  0  0  0  0  0  0  0  0  0  0  0
  150.6694  144.6559  156.5913 H   0  0  0  0  0  0  0  0  0  0  0  0
  149.7218  143.2421  155.5276 H   0  0  0  0  0  0  0  0  0  0  0  0
  150.5781  140.8324  154.7715 H   0  0  0  0  0  0  0  0  0  0  0  0
  149.8576  140.3978  156.2975 H   0  0  0  0  0  0  0  0  0  0  0  0
  148.7930  138.9564  154.1957 H   0  0  0  0  0  0  0  0  0  0  0  0
  146.5141  138.7662  153.0600 H   0  0  0  0  0  0  0  0  0  0  0  0
  144.1868  142.3054  155.7687 H   0  0  0  0  0  0  0  0  0  0  0  0
  145.1789  143.7451  155.9778 H   0  0  0  0  0  0  0  0  0  0  0  0
  142.5626  143.5213  154.3769 H   0  0  0  0  0  0  0  0  0  0  0  0
  142.8014  144.3971  155.8764 H   0  0  0  0  0  0  0  0  0  0  0  0
  143.5839  144.3564  152.3665 H   0  0  0  0  0  0  0  0  0  0  0  0
  144.5483  145.8175  152.4511 H   0  0  0  0  0  0  0  0  0  0  0  0
  146.3237  144.6720  153.7260 H   0  0  0  0  0  0  0  0  0  0  0  0
  145.9774  143.7703  152.2621 H   0  0  0  0  0  0  0  0  0  0  0  0
  147.7600  143.0119  155.2418 H   0  0  0  0  0  0  0  0  0  0  0  0
  145.0956  140.5826  153.0897 H   0  0  0  0  0  0  0  0  0  0  0  0
  1  2  1  0  0  0  0
  1 22  1  0  0  0  0
  1 23  1  0  0  0  0
  1 24  1  0  0  0  0
  2  3  1  0  0  0  0
  2  4  1  0  0  0  0
  2 25  1  0  0  0  0
  3 26  1  0  0  0  0
  3 27  1  0  0  0  0
  3 28  1  0  0  0  0
  4  5  1  0  0  0  0
  4 29  1  0  0  0  0
  4 30  1  0  0  0  0
  5  6  1  0  0  0  0
  5 31  1  0  0  0  0
  6  7  2  0  0  0  0
  6  8  1  0  0  0  0
  8  9  1  0  0  0  0
  8 32  1  0  0  0  0
  9 10  1  0  0  0  0
  9 33  1  0  0  0  0
  9 34  1  0  0  0  0
 10 21  1  0  0  0  0
 10 11  2  0  0  0  0
 11 12  1  0  0  0  0
 11 35  1  0  0  0  0
 12 13  2  0  0  0  0
 12 36  1  0  0  0  0
 13 14  1  0  0  0  0
 13 46  1  0  0  0  0
 14 15  1  0  0  0  0
 14 21  2  0  0  0  0
 15 20  1  0  0  0  0
 15 16  1  0  0  0  0
 16 17  1  0  0  0  0
 16 37  1  0  0  0  0
 16 38  1  0  0  0  0
 17 18  1  0  0  0  0
 17 39  1  0  0  0  0
 17 40  1  0  0  0  0
 18 19  1  0  0  0  0
 19 20  1  0  0  0  0
 19 41  1  0  0  0  0
 19 42  1  0  0  0  0
 20 43  1  0  0  0  0
 20 44  1  0  0  0  0
 21 45  1  0  0  0  0
M  CHG  1  13   1
M  END
> <s_m_source_file>
AV-unprocessed.smi

> <i_m_source_file_index>
2109

> <i_lp_mmshare_version>
43012

> <i_f3d_flags>
0

> <s_epik_input>
W0NIM11bQ0hdKFtDSDNdKVtDSDJdW05IXUMoPU8pW05IXVtDSDJdYzFbY0hdW2NIXW5jKFtjSF0xKU4yW0NIMl1bQ0gyXU9bQ0gyXVtDSDJdMg==

> <s_epik_cmdline>
J2VwaWtfcHl0aG9uJywgJy1waCcsICc3LjAnLCAnLXRuJywgJzgnLCAnLW1hJywgJzIwMCcsICctbWV0YWxfYmluZGluZycsICctaW1hZScsICc8aW5maWxlLm1hZT4nLCAnLW9tYWUnLCAnPG91dGZpbGUubWFlPic=

> <r_lp_tautomer_probability>
0.999994

> <r_epik_Ionization_Penalty>
2.29114

> <r_epik_Ionization_Penalty_Charging>
2.2911

> <r_epik_Ionization_Penalty_Neutral>
4.11828e-05

> <r_epik_State_Penalty>
2.44112

> <r_epik_Charging_Adjusted_Penalty>
4.73222

> <i_epik_Tot_Q>
1

> <i_epik_Tot_abs_Q>
1

> <r_epik_Metal_State_Penalty>
2.45346

> <b_epik_Metal_Only>
0

> <s_lp_Force_Field>
OPLS_2005

> <r_lp_Energy>
19.1618

> <b_lp_Chiralities_Consistent>
1

> <s_lp_Variant>
AV-unprocessed.smi:2109-2

> <Gold.Version>
5.8.1

> <Gold.Id.Protein>
6NUR|6NUR_protein|mol2

> <Gold.PLP.Fitness>
52.4513

> <Gold.PLP.PLP>
-42.7534

> <Gold.PLP.part.hbond>
-3.0000

> <Gold.PLP.part.metal>
0.0000

> <Gold.PLP.part.buried>
-1.8826

> <Gold.PLP.part.nonpolar>
-39.9068

> <Gold.PLP.part.repulsive>
0.4620

> <Gold.PLP.ligand.clash>
0.0000

> <Gold.PLP.ligand.torsion>
1.0398

> <Gold.PLP.Chemscore.Hbond>
3.7611

> <Gold.PLP.Chemscore.CHOScore>
0.0000

> <Gold.PLP.Chemscore.Metal>
0.0000

> <Gold.Chemscore.Hbonds>
donor molecule, donor type, donor heavy atom, donor atom, acceptor molecule, acceptor atom, score
      L1  H     5    31       P1  8028  0.80
      L1  H     8    32       P1  8028  0.99
      L1  H    13    46       P1 10175  2.00

> <Gold.PLP.Chemscore.Internal.Correction>
0.4943

> <Gold.Rescore>
     Score         DG    S(hbond)    S(metal)    S(lipo)     H(rot)  DE(clash)    DE(int)     intcor
     20.26     -21.85       2.63        0.00     104.60       1.82       0.47       1.12       ----

> <Gold.Chemscore.Fitness>
20.2614

> <Gold.Chemscore.DG>
-21.8451

> <Gold.Chemscore.ZeroCoef>
-5.4800

> <Gold.Chemscore.Hbond>
2.6290

> <Gold.Chemscore.Metal>
0.0000

> <Gold.Chemscore.Lipo>
104.6017

> <Gold.Chemscore.Internal_Hbond>
0.0000

> <Gold.Chemscore.DEClash>
0.4667

> <Gold.Chemscore.DEInternal>
1.1170

> <Gold.Chemscore.Rot>
1.8180

> <Gold.Chemscore.Internal.Correction>
   9.000000E+99

> <Gold.Chemscore.Hbonds>
donor molecule, donor type, donor heavy atom, donor atom, acceptor molecule, acceptor atom, score
      L1  H     5    31       P1  8028  0.75
      L1  H     8    32       P1  8028  0.94
      L1  H    13    46       P1 10175  0.83

> <Gold.Chemscore.Hbond.Weighted>
-8.7808

> <Gold.Chemscore.Metal.Weighted>
-0.0000

> <Gold.Chemscore.Lipo.Weighted>
-12.2384

> <Gold.Chemscore.Internal_Hbond.Weighted>
0.0000

> <Gold.Chemscore.DEClash.Weighted>
0.4667

> <Gold.Chemscore.DEInternal.Weighted>
1.1170

> <Gold.Chemscore.Rot.Weighted>
4.6541

> <Gold.Chemscore.Internal.Correction.Weighted>
   9.000000E+99

> <Gold.Protein.RotatedTorsions>
[ 6907 6896 6895 6894 ] final  -67.10 input  -60.11 | X-H torsion
[ 7974 7965 7964 7962 ] final  -67.67 input  175.53 | X-H torsion
[ 8008 7997 7996 7995 ] final   34.63 input   59.86 | X-H torsion
[ 10167 10162 10161 10158 ] final   93.33 input  -65.29 | X-H torsion
[ 10718 10713 10712 10709 ] final  -62.59 input   66.30 | X-H torsion
[ 10763 10752 10751 10750 ] final   98.83 input  -60.55 | X-H torsion
[ 11005 11000 10999 10996 ] final -130.53 input  -57.11 | X-H torsion

> <Gold.Protein.ActiveResidues>
 VAL166  LYS551  ARG553  GLY616  TRP617  ASP618  TYR619  PRO620  LYS621  CYS622 
 ASP623  PHE694  ASN695  SER759  ASP760  ASP761  ALA762  ILE779  LEU786  VAL792 
 PHE793  MET794  SER795  GLU796  ALA797  LYS798  CYS799  TRP800  GLU811  SER814 

> <Gold.Protein.RotatedAtoms>
  150.7428  134.5929  159.5996 H   0  0  0  0  0  0  0  0  0  0  0  0  # atno 6907 bound_to 6896
  152.3311  134.7254  160.0298 H   0  0  0  0  0  0  0  0  0  0  0  0  # atno 6908 bound_to 6896
  151.7738  133.3307  159.3488 H   0  0  0  0  0  0  0  0  0  0  0  0  # atno 6909 bound_to 6896
  145.7262  140.9017  143.0604 H   0  0  0  0  0  0  0  0  0  0  0  0  # atno 7974 bound_to 7965
  155.1580  140.3281  155.4417 H   0  0  0  0  0  0  0  0  0  0  0  0  # atno 8008 bound_to 7997
  156.2552  140.1965  156.6639 H   0  0  0  0  0  0  0  0  0  0  0  0  # atno 8009 bound_to 7997
  154.6425  140.0568  156.9849 H   0  0  0  0  0  0  0  0  0  0  0  0  # atno 8010 bound_to 7997
  139.8190  144.6739  150.9543 H   0  0  0  0  0  0  0  0  0  0  0  0  # atno 10167 bound_to 10162
  156.0845  130.4211  150.1156 H   0  0  0  0  0  0  0  0  0  0  0  0  # atno 10718 bound_to 10713
  153.2939  135.4134  155.1192 H   0  0  0  0  0  0  0  0  0  0  0  0  # atno 10763 bound_to 10752
  154.8529  135.3525  154.5943 H   0  0  0  0  0  0  0  0  0  0  0  0  # atno 10764 bound_to 10752
  153.6367  135.7058  153.5314 H   0  0  0  0  0  0  0  0  0  0  0  0  # atno 10765 bound_to 10752
  140.9337  134.1285  157.4212 H   0  0  0  0  0  0  0  0  0  0  0  0  # atno 11005 bound_to 11000
  144.6904  139.9269  143.7470 LP  0  0  0  0  0  0  0  0  0  0  0  0  # atno 17320 bound_to 7965
  146.0580  139.3575  143.0599 LP  0  0  0  0  0  0  0  0  0  0  0  0  # atno 17321 bound_to 7965
  140.7814  143.4110  151.0993 LP  0  0  0  0  0  0  0  0  0  0  0  0  # atno 17342 bound_to 10162
  139.7772  143.8409  152.3131 LP  0  0  0  0  0  0  0  0  0  0  0  0  # atno 17343 bound_to 10162
  156.9180  130.9673  151.3553 LP  0  0  0  0  0  0  0  0  0  0  0  0  # atno 17370 bound_to 10713
  157.5975  130.8488  149.8751 LP  0  0  0  0  0  0  0  0  0  0  0  0  # atno 17371 bound_to 10713
  139.8802  135.0014  156.6064 LP  0  0  0  0  0  0  0  0  0  0  0  0  # atno 17394 bound_to 11000
  140.7828  133.8646  155.8581 LP  0  0  0  0  0  0  0  0  0  0  0  0  # atno 17395 bound_to 11000

$$$$
