AV-unprocessed.smi:623|AV-procd|sdf|3094|dock7
  -GOLD-   22720 0 13D 1   1.00000     0.00000
 Structure written by MMmdl.
 45 47  0  0  0  0  0  0  0  0  1 V2000
  151.1504  140.8738  155.8918 C   0  0  0  0  0  0  0  0  0  0  0  0
  150.0588  139.7742  156.0216 C   0  0  0  0  0  0  0  0  0  0  0  0
  150.4928  138.9022  157.2329 C   0  0  0  0  0  0  0  0  0  0  0  0
  148.6225  140.3265  156.1156 C   0  0  1  0  0  0  0  0  0  0  0  0
  148.4060  141.0194  154.7507 C   0  0  0  0  0  0  0  0  0  0  0  0
  149.2047  140.1200  153.7867 C   0  0  0  0  0  0  0  0  0  0  0  0
  149.7217  138.9923  154.7225 C   0  0  1  0  0  0  0  0  0  0  0  0
  150.8808  138.1876  154.1092 C   0  0  0  0  0  0  0  0  0  0  0  0
  148.5021  138.1134  155.1542 C   0  0  2  0  0  0  0  0  0  0  0  0
  147.6383  137.7017  154.0492 N   0  0  0  0  0  0  0  0  0  0  0  0
  146.3603  137.3106  154.1603 C   0  0  0  0  0  0  0  0  0  0  0  0
  145.7357  137.3137  155.2208 O   0  0  0  0  0  0  0  0  0  0  0  0
  145.6908  136.8238  152.8726 C   0  0  0  0  0  0  0  0  0  0  0  0
  144.3181  136.3711  153.1347 N   0  0  0  0  0  0  0  0  0  0  0  0
  143.2417  137.1543  152.7421 C   0  0  0  0  0  0  0  0  0  0  0  0
  141.9496  136.7948  152.9269 C   0  0  0  0  0  0  0  0  0  0  0  0
  141.6208  135.5266  153.5682 C   0  0  0  0  0  0  0  0  0  0  0  0
  140.4831  135.1138  153.7822 O   0  0  0  0  0  0  0  0  0  0  0  0
  142.7297  134.7653  153.9461 N   0  0  0  0  0  0  0  0  0  0  0  0
  144.0640  135.1288  153.7566 C   0  0  0  0  0  0  0  0  0  0  0  0
  144.9661  134.3777  154.1244 O   0  0  0  0  0  0  0  0  0  0  0  0
  147.7460  139.0555  156.1189 C   0  0  0  0  0  0  0  0  0  0  0  0
  142.5511  133.8771  154.3918 H   0  0  0  0  0  0  0  0  0  0  0  0
  151.2237  141.4492  156.8152 H   0  0  0  0  0  0  0  0  0  0  0  0
  150.9876  141.5967  155.0958 H   0  0  0  0  0  0  0  0  0  0  0  0
  152.1302  140.4299  155.7143 H   0  0  0  0  0  0  0  0  0  0  0  0
  149.8341  138.0683  157.4643 H   0  0  0  0  0  0  0  0  0  0  0  0
  150.5531  139.5063  158.1386 H   0  0  0  0  0  0  0  0  0  0  0  0
  151.4823  138.4756  157.0668 H   0  0  0  0  0  0  0  0  0  0  0  0
  148.4351  140.9811  156.9672 H   0  0  0  0  0  0  0  0  0  0  0  0
  147.3513  141.0766  154.4790 H   0  0  0  0  0  0  0  0  0  0  0  0
  148.7916  142.0392  154.7504 H   0  0  0  0  0  0  0  0  0  0  0  0
  148.6001  139.7642  152.9529 H   0  0  0  0  0  0  0  0  0  0  0  0
  150.0296  140.6716  153.3356 H   0  0  0  0  0  0  0  0  0  0  0  0
  150.5794  137.7168  153.1734 H   0  0  0  0  0  0  0  0  0  0  0  0
  151.2167  137.3985  154.7821 H   0  0  0  0  0  0  0  0  0  0  0  0
  151.7373  138.8250  153.8902 H   0  0  0  0  0  0  0  0  0  0  0  0
  148.8328  137.2257  155.6956 H   0  0  0  0  0  0  0  0  0  0  0  0
  148.0631  137.6671  153.1341 H   0  0  0  0  0  0  0  0  0  0  0  0
  145.7052  137.6225  152.1284 H   0  0  0  0  0  0  0  0  0  0  0  0
  146.2823  136.0176  152.4352 H   0  0  0  0  0  0  0  0  0  0  0  0
  143.4382  138.1003  152.2574 H   0  0  0  0  0  0  0  0  0  0  0  0
  141.1549  137.4485  152.5974 H   0  0  0  0  0  0  0  0  0  0  0  0
  147.6773  138.6226  157.1172 H   0  0  0  0  0  0  0  0  0  0  0  0
  146.7238  139.2656  155.8006 H   0  0  0  0  0  0  0  0  0  0  0  0
  1  2  1  0  0  0  0
  1 24  1  0  0  0  0
  1 25  1  0  0  0  0
  1 26  1  0  0  0  0
  2  7  1  0  0  0  0
  2  3  1  0  0  0  0
  2  4  1  0  0  0  0
  3 27  1  0  0  0  0
  3 28  1  0  0  0  0
  3 29  1  0  0  0  0
  4 22  1  0  0  0  0
  4  5  1  0  0  0  0
  4 30  1  0  0  0  0
  5  6  1  0  0  0  0
  5 31  1  0  0  0  0
  5 32  1  0  0  0  0
  6  7  1  0  0  0  0
  6 33  1  0  0  0  0
  6 34  1  0  0  0  0
  7  8  1  0  0  0  0
  7  9  1  0  0  0  0
  8 35  1  0  0  0  0
  8 36  1  0  0  0  0
  8 37  1  0  0  0  0
  9 10  1  0  0  0  0
  9 22  1  0  0  0  0
  9 38  1  0  0  0  0
 10 11  1  0  0  0  0
 10 39  1  0  0  0  0
 11 12  2  0  0  0  0
 11 13  1  0  0  0  0
 13 14  1  0  0  0  0
 13 40  1  0  0  0  0
 13 41  1  0  0  0  0
 14 20  1  0  0  0  0
 14 15  1  0  0  0  0
 15 16  2  0  0  0  0
 15 42  1  0  0  0  0
 16 17  1  0  0  0  0
 16 43  1  0  0  0  0
 17 18  2  0  0  0  0
 17 19  1  0  0  0  0
 19 23  1  0  0  0  0
 19 20  1  0  0  0  0
 20 21  2  0  0  0  0
 22 44  1  0  0  0  0
 22 45  1  0  0  0  0
M  END
> <s_m_source_file>
AV-unprocessed.smi

> <i_m_source_file_index>
623

> <i_lp_mmshare_version>
43012

> <i_f3d_flags>
0

> <s_epik_input>
W0NIM11bQ0BdMTJDKFtDSDNdKShbQ0gzXSlbQ0BIXShbQ0gyXVtDSDJdMSlbQ0gyXVtDQEBIXTJbTkhdQyg9TylbQ0gyXW4zW2NIXVtjSF1jKD1PKVtuSF1jMz1P

> <s_epik_cmdline>
J2VwaWtfcHl0aG9uJywgJy1waCcsICc3LjAnLCAnLXRuJywgJzgnLCAnLW1hJywgJzIwMCcsICctbWV0YWxfYmluZGluZycsICctaW1hZScsICc8aW5maWxlLm1hZT4nLCAnLW9tYWUnLCAnPG91dGZpbGUubWFlPic=

> <r_lp_tautomer_probability>
0.999537

> <r_epik_Ionization_Penalty>
0.00303563

> <r_epik_Ionization_Penalty_Charging>
0.00303561

> <r_epik_Ionization_Penalty_Neutral>
2.03238e-08

> <r_epik_State_Penalty>
0.00213308

> <r_epik_Charging_Adjusted_Penalty>
0.00516869

> <i_epik_Tot_Q>
0

> <i_epik_Tot_abs_Q>
0

> <r_epik_Metal_State_Penalty>
0.361714

> <b_epik_Metal_Only>
0

> <s_lp_Force_Field>
OPLS_2005

> <r_lp_Energy>
57.3757

> <b_lp_Chiralities_Consistent>
1

> <s_lp_Variant>
AV-unprocessed.smi:623-4

> <Gold.Version>
5.8.1

> <Gold.Id.Protein>
6NUR|6NUR_protein|mol2

> <Gold.PLP.Fitness>
39.8748

> <Gold.PLP.PLP>
-26.5250

> <Gold.PLP.part.hbond>
-4.0000

> <Gold.PLP.part.metal>
0.0000

> <Gold.PLP.part.buried>
-2.2526

> <Gold.PLP.part.nonpolar>
-20.6224

> <Gold.PLP.part.repulsive>
0.3167

> <Gold.PLP.ligand.clash>
0.0000

> <Gold.PLP.ligand.torsion>
0.4474

> <Gold.PLP.Chemscore.Hbond>
2.7467

> <Gold.PLP.Chemscore.CHOScore>
1.9960

> <Gold.PLP.Chemscore.Metal>
0.0000

> <Gold.Chemscore.Hbonds>
donor molecule, donor type, donor heavy atom, donor atom, acceptor molecule, acceptor atom, score
      L1  H    10    39       P1  7948  0.64
      L1  H    19    23       P1 10957  0.71
      P1  H 11000 11005       L1    18  0.75
      L1  C    15    42       P1 10171  0.99
      L1  C    15    42       P1 10175  1.00

> <Gold.PLP.Chemscore.Internal.Correction>
0.0164

> <Gold.Rescore>
     Score         DG    S(hbond)    S(metal)    S(lipo)     H(rot)  DE(clash)    DE(int)     intcor
     15.36     -17.62       2.94        0.00      56.36       1.66       0.28       1.98       ----

> <Gold.Chemscore.Fitness>
15.3569

> <Gold.Chemscore.DG>
-17.6169

> <Gold.Chemscore.ZeroCoef>
-5.4800

> <Gold.Chemscore.Hbond>
2.9356

> <Gold.Chemscore.Metal>
0.0000

> <Gold.Chemscore.Lipo>
56.3567

> <Gold.Chemscore.Internal_Hbond>
0.0000

> <Gold.Chemscore.DEClash>
0.2753

> <Gold.Chemscore.DEInternal>
1.9847

> <Gold.Chemscore.Rot>
1.6647

> <Gold.Chemscore.Internal.Correction>
   9.000000E+99

> <Gold.Chemscore.Hbonds>
donor molecule, donor type, donor heavy atom, donor atom, acceptor molecule, acceptor atom, score
      L1  H    10    39       P1  7948  0.62
      L1  H    19    23       P1 10957  0.70
      P1  H 11000 11005       L1    18  0.52

> <Gold.Chemscore.Hbond.Weighted>
-9.8048

> <Gold.Chemscore.Metal.Weighted>
-0.0000

> <Gold.Chemscore.Lipo.Weighted>
-6.5937

> <Gold.Chemscore.Internal_Hbond.Weighted>
0.0000

> <Gold.Chemscore.DEClash.Weighted>
0.2753

> <Gold.Chemscore.DEInternal.Weighted>
1.9847

> <Gold.Chemscore.Rot.Weighted>
4.2617

> <Gold.Chemscore.Internal.Correction.Weighted>
   9.000000E+99

> <Gold.Protein.RotatedTorsions>
[ 6907 6896 6895 6894 ] final  164.43 input  -60.11 | X-H torsion
[ 7974 7965 7964 7962 ] final  -86.06 input  175.53 | X-H torsion
[ 8008 7997 7996 7995 ] final -132.41 input   59.86 | X-H torsion
[ 10167 10162 10161 10158 ] final  -39.48 input  -65.29 | X-H torsion
[ 10718 10713 10712 10709 ] final -168.04 input   66.30 | X-H torsion
[ 10763 10752 10751 10750 ] final   62.92 input  -60.55 | X-H torsion
[ 11005 11000 10999 10996 ] final   19.97 input  -57.11 | X-H torsion

> <Gold.Protein.ActiveResidues>
 VAL166  LYS551  ARG553  GLY616  TRP617  ASP618  TYR619  PRO620  LYS621  CYS622 
 ASP623  PHE694  ASN695  SER759  ASP760  ASP761  ALA762  ILE779  LEU786  VAL792 
 PHE793  MET794  SER795  GLU796  ALA797  LYS798  CYS799  TRP800  GLU811  SER814 

> <Gold.Protein.RotatedAtoms>
  151.9100  133.3559  159.3859 H   0  0  0  0  0  0  0  0  0  0  0  0  # atno 6907 bound_to 6896
  150.7060  134.4742  159.5449 H   0  0  0  0  0  0  0  0  0  0  0  0  # atno 6908 bound_to 6896
  152.2346  134.8288  160.0520 H   0  0  0  0  0  0  0  0  0  0  0  0  # atno 6909 bound_to 6896
  145.4850  140.9555  143.1843 H   0  0  0  0  0  0  0  0  0  0  0  0  # atno 7974 bound_to 7965
  155.3284  140.0466  157.3042 H   0  0  0  0  0  0  0  0  0  0  0  0  # atno 8008 bound_to 7997
  154.5341  140.2267  155.8718 H   0  0  0  0  0  0  0  0  0  0  0  0  # atno 8009 bound_to 7997
  156.1818  140.3072  155.9169 H   0  0  0  0  0  0  0  0  0  0  0  0  # atno 8010 bound_to 7997
  140.7063  143.3212  151.2788 H   0  0  0  0  0  0  0  0  0  0  0  0  # atno 10167 bound_to 10162
  156.6912  130.9160  151.3069 H   0  0  0  0  0  0  0  0  0  0  0  0  # atno 10718 bound_to 10713
  152.9999  135.5447  154.6270 H   0  0  0  0  0  0  0  0  0  0  0  0  # atno 10763 bound_to 10752
  154.5557  135.2830  155.0969 H   0  0  0  0  0  0  0  0  0  0  0  0  # atno 10764 bound_to 10752
  154.2192  135.6453  153.5192 H   0  0  0  0  0  0  0  0  0  0  0  0  # atno 10765 bound_to 10752
  140.4078  134.1650  155.7666 H   0  0  0  0  0  0  0  0  0  0  0  0  # atno 11005 bound_to 11000
  144.7867  139.6413  143.7131 LP  0  0  0  0  0  0  0  0  0  0  0  0  # atno 17320 bound_to 7965
  146.2318  139.5829  142.9550 LP  0  0  0  0  0  0  0  0  0  0  0  0  # atno 17321 bound_to 7965
  139.6666  144.0094  152.2727 LP  0  0  0  0  0  0  0  0  0  0  0  0  # atno 17342 bound_to 10162
  139.9679  144.6514  150.8017 LP  0  0  0  0  0  0  0  0  0  0  0  0  # atno 17343 bound_to 10162
  157.7008  130.9331  150.0780 LP  0  0  0  0  0  0  0  0  0  0  0  0  # atno 17370 bound_to 10713
  156.1796  130.3649  149.9053 LP  0  0  0  0  0  0  0  0  0  0  0  0  # atno 17371 bound_to 10713
  141.1833  133.8368  157.1181 LP  0  0  0  0  0  0  0  0  0  0  0  0  # atno 17394 bound_to 11000
  140.0289  134.9910  157.0742 LP  0  0  0  0  0  0  0  0  0  0  0  0  # atno 17395 bound_to 11000

$$$$
