AV-unprocessed.smi:708|AV-procd|sdf|3457|dock2
  -GOLD-   22720 0443D 1   1.00000     0.00000
 Structure written by MMmdl.
 42 43  0  0  0  0  0  0  0  0  1 V2000
  151.7953  136.3899  156.2715 O   0  0  0  0  0  0  0  0  0  0  0  0
  151.3168  136.6535  155.1679 C   0  0  0  0  0  0  0  0  0  0  0  0
  151.7851  137.8914  154.3924 C   0  0  0  0  0  0  0  0  0  0  0  0
  151.1270  139.1266  154.8488 N   0  0  0  0  0  0  0  0  0  0  0  0
  150.0316  139.5909  154.0937 C   0  0  0  0  0  0  0  0  0  0  0  0
  149.3658  140.7094  154.4227 C   0  0  0  0  0  0  0  0  0  0  0  0
  149.7996  141.4450  155.5870 C   0  0  0  0  0  0  0  0  0  0  0  0
  150.8434  141.0075  156.3187 C   0  0  0  0  0  0  0  0  0  0  0  0
  151.5718  139.7835  155.9652 C   0  0  0  0  0  0  0  0  0  0  0  0
  152.5235  139.3742  156.6314 O   0  0  0  0  0  0  0  0  0  0  0  0
  150.3714  135.9083  154.5766 N   0  0  0  0  0  0  0  0  0  0  0  0
  149.8275  134.6617  155.1043 C   0  0  0  0  0  0  0  0  0  0  0  0
  150.2251  133.4320  154.2583 C   0  0  0  0  0  0  0  0  0  0  0  0
  149.1363  133.0268  153.2356 C   0  0  0  0  0  0  0  0  0  0  0  0
  149.5186  131.7335  152.4946 C   0  0  0  0  0  0  0  0  0  0  0  0
  149.7501  130.6723  153.4824 N   0  0  0  0  0  0  0  0  0  0  0  0
  148.8986  129.6282  153.6450 C   0  0  0  0  0  0  0  0  0  0  0  0
  147.9032  129.4835  152.9325 O   0  0  0  0  0  0  0  0  0  0  0  0
  149.1635  128.5826  154.7433 C   0  0  0  0  0  0  0  0  0  0  0  0
  150.3501  128.0072  154.5449 F   0  0  0  0  0  0  0  0  0  0  0  0
  149.1275  129.1628  155.9436 F   0  0  0  0  0  0  0  0  0  0  0  0
  148.2230  127.6371  154.7023 F   0  0  0  0  0  0  0  0  0  0  0  0
  150.9105  130.9777  154.3279 C   0  0  0  0  0  0  0  0  0  0  0  0
  150.6012  132.2356  155.1601 C   0  0  0  0  0  0  0  0  0  0  0  0
  152.8687  137.9976  154.4754 H   0  0  0  0  0  0  0  0  0  0  0  0
  151.5948  137.7178  153.3325 H   0  0  0  0  0  0  0  0  0  0  0  0
  149.7664  138.9813  153.2421 H   0  0  0  0  0  0  0  0  0  0  0  0
  148.5261  141.0486  153.8343 H   0  0  0  0  0  0  0  0  0  0  0  0
  149.2841  142.3499  155.8733 H   0  0  0  0  0  0  0  0  0  0  0  0
  151.1533  141.5708  157.1867 H   0  0  0  0  0  0  0  0  0  0  0  0
  150.0306  136.2063  153.6741 H   0  0  0  0  0  0  0  0  0  0  0  0
  150.1492  134.5321  156.1390 H   0  0  0  0  0  0  0  0  0  0  0  0
  148.7416  134.7579  155.1296 H   0  0  0  0  0  0  0  0  0  0  0  0
  151.1189  133.6914  153.6892 H   0  0  0  0  0  0  0  0  0  0  0  0
  148.1826  132.8847  153.7457 H   0  0  0  0  0  0  0  0  0  0  0  0
  148.9825  133.8237  152.5074 H   0  0  0  0  0  0  0  0  0  0  0  0
  148.7439  131.4794  151.7700 H   0  0  0  0  0  0  0  0  0  0  0  0
  150.4266  131.8902  151.9105 H   0  0  0  0  0  0  0  0  0  0  0  0
  151.1995  130.1627  154.9878 H   0  0  0  0  0  0  0  0  0  0  0  0
  151.7798  131.1562  153.6933 H   0  0  0  0  0  0  0  0  0  0  0  0
  151.4643  132.4912  155.7757 H   0  0  0  0  0  0  0  0  0  0  0  0
  149.7839  132.0197  155.8494 H   0  0  0  0  0  0  0  0  0  0  0  0
  1  2  2  0  0  0  0
  2  3  1  0  0  0  0
  2 11  1  0  0  0  0
  3  4  1  0  0  0  0
  3 25  1  0  0  0  0
  3 26  1  0  0  0  0
  4  9  1  0  0  0  0
  4  5  1  0  0  0  0
  5  6  2  0  0  0  0
  5 27  1  0  0  0  0
  6  7  1  0  0  0  0
  6 28  1  0  0  0  0
  7  8  2  0  0  0  0
  7 29  1  0  0  0  0
  8  9  1  0  0  0  0
  8 30  1  0  0  0  0
  9 10  2  0  0  0  0
 11 12  1  0  0  0  0
 11 31  1  0  0  0  0
 12 13  1  0  0  0  0
 12 32  1  0  0  0  0
 12 33  1  0  0  0  0
 13 24  1  0  0  0  0
 13 14  1  0  0  0  0
 13 34  1  0  0  0  0
 14 15  1  0  0  0  0
 14 35  1  0  0  0  0
 14 36  1  0  0  0  0
 15 16  1  0  0  0  0
 15 37  1  0  0  0  0
 15 38  1  0  0  0  0
 16 17  1  0  0  0  0
 16 23  1  0  0  0  0
 17 18  2  0  0  0  0
 17 19  1  0  0  0  0
 19 20  1  0  0  0  0
 19 21  1  0  0  0  0
 19 22  1  0  0  0  0
 23 24  1  0  0  0  0
 23 39  1  0  0  0  0
 23 40  1  0  0  0  0
 24 41  1  0  0  0  0
 24 42  1  0  0  0  0
M  END
> <s_m_source_file>
AV-unprocessed.smi

> <i_m_source_file_index>
708

> <i_lp_mmshare_version>
43012

> <i_f3d_flags>
0

> <s_epik_input>
Tz1jMVtjSF1bY0hdW2NIXVtjSF1uMVtDSDJdQyg9TylbTkhdW0NIMl1bQ0hdMltDSDJdW0NIMl1OKEMoPU8pQyhGKShGKUYpW0NIMl1bQ0gyXTI=

> <s_epik_cmdline>
J2VwaWtfcHl0aG9uJywgJy1waCcsICc3LjAnLCAnLXRuJywgJzgnLCAnLW1hJywgJzIwMCcsICctbWV0YWxfYmluZGluZycsICctaW1hZScsICc8aW5maWxlLm1hZT4nLCAnLW9tYWUnLCAnPG91dGZpbGUubWFlPic=

> <r_lp_tautomer_probability>
1

> <r_epik_Ionization_Penalty>
3.72594e-07

> <r_epik_Ionization_Penalty_Charging>
3.54487e-07

> <r_epik_Ionization_Penalty_Neutral>
1.81071e-08

> <r_epik_State_Penalty>
-0

> <r_epik_Charging_Adjusted_Penalty>
3.54487e-07

> <i_epik_Tot_Q>
0

> <i_epik_Tot_abs_Q>
0

> <r_epik_Metal_State_Penalty>
-0

> <b_epik_Metal_Only>
0

> <s_lp_Force_Field>
OPLS_2005

> <r_lp_Energy>
36.5202

> <b_lp_Chiralities_Consistent>
1

> <s_lp_Variant>
AV-unprocessed.smi:708-1

> <Gold.Version>
5.8.1

> <Gold.Id.Protein>
6NUR|6NUR_protein|mol2

> <Gold.PLP.Fitness>
49.4453

> <Gold.PLP.PLP>
-40.7851

> <Gold.PLP.part.hbond>
-3.0000

> <Gold.PLP.part.metal>
0.0000

> <Gold.PLP.part.buried>
0.1504

> <Gold.PLP.part.nonpolar>
-37.3198

> <Gold.PLP.part.repulsive>
0.2449

> <Gold.PLP.ligand.clash>
0.0000

> <Gold.PLP.ligand.torsion>
1.1982

> <Gold.PLP.Chemscore.Hbond>
2.7956

> <Gold.PLP.Chemscore.CHOScore>
0.8808

> <Gold.PLP.Chemscore.Metal>
0.0000

> <Gold.Chemscore.Hbonds>
donor molecule, donor type, donor heavy atom, donor atom, acceptor molecule, acceptor atom, score
      L1  H    11    31       P1  7948  0.64
      P1  H  7997  8008       L1    10  1.00
      L1  C     5    27       P1  7957  0.76

> <Gold.PLP.Chemscore.Internal.Correction>
0.0273

> <Gold.Rescore>
     Score         DG    S(hbond)    S(metal)    S(lipo)     H(rot)  DE(clash)    DE(int)     intcor
     13.97     -16.89       2.31        0.00      73.27       1.91       0.20       2.72       ----

> <Gold.Chemscore.Fitness>
13.9687

> <Gold.Chemscore.DG>
-16.8881

> <Gold.Chemscore.ZeroCoef>
-5.4800

> <Gold.Chemscore.Hbond>
2.3124

> <Gold.Chemscore.Metal>
0.0000

> <Gold.Chemscore.Lipo>
73.2673

> <Gold.Chemscore.Internal_Hbond>
0.0000

> <Gold.Chemscore.DEClash>
0.1963

> <Gold.Chemscore.DEInternal>
2.7232

> <Gold.Chemscore.Rot>
1.9093

> <Gold.Chemscore.Internal.Correction>
   9.000000E+99

> <Gold.Chemscore.Hbonds>
donor molecule, donor type, donor heavy atom, donor atom, acceptor molecule, acceptor atom, score
      L1  H    11    31       P1  7948  0.06
      P1  H  7997  8008       L1    10  0.98

> <Gold.Chemscore.Hbond.Weighted>
-7.7235

> <Gold.Chemscore.Metal.Weighted>
-0.0000

> <Gold.Chemscore.Lipo.Weighted>
-8.5723

> <Gold.Chemscore.Internal_Hbond.Weighted>
0.0000

> <Gold.Chemscore.DEClash.Weighted>
0.1963

> <Gold.Chemscore.DEInternal.Weighted>
2.7232

> <Gold.Chemscore.Rot.Weighted>
4.8877

> <Gold.Chemscore.Internal.Correction.Weighted>
   9.000000E+99

> <Gold.Protein.RotatedTorsions>
[ 6907 6896 6895 6894 ] final  139.63 input  -60.11 | X-H torsion
[ 7974 7965 7964 7962 ] final   14.76 input  175.53 | X-H torsion
[ 8008 7997 7996 7995 ] final  -56.65 input   59.86 | X-H torsion
[ 10167 10162 10161 10158 ] final  167.81 input  -65.29 | X-H torsion
[ 10718 10713 10712 10709 ] final  133.01 input   66.30 | X-H torsion
[ 10763 10752 10751 10750 ] final -148.16 input  -60.55 | X-H torsion
[ 11005 11000 10999 10996 ] final  130.99 input  -57.11 | X-H torsion

> <Gold.Protein.ActiveResidues>
 VAL166  LYS551  ARG553  GLY616  TRP617  ASP618  TYR619  PRO620  LYS621  CYS622 
 ASP623  PHE694  ASN695  SER759  ASP760  ASP761  ALA762  ILE779  LEU786  VAL792 
 PHE793  MET794  SER795  GLU796  ALA797  LYS798  CYS799  TRP800  GLU811  SER814 

> <Gold.Protein.RotatedAtoms>
  152.2527  133.5229  159.5334 H   0  0  0  0  0  0  0  0  0  0  0  0  # atno 6907 bound_to 6896
  150.7099  134.0938  159.3950 H   0  0  0  0  0  0  0  0  0  0  0  0  # atno 6908 bound_to 6896
  151.8857  135.0436  160.0544 H   0  0  0  0  0  0  0  0  0  0  0  0  # atno 6909 bound_to 6896
  146.2296  139.8994  142.8542 H   0  0  0  0  0  0  0  0  0  0  0  0  # atno 7974 bound_to 7965
  154.4238  140.1125  156.5672 H   0  0  0  0  0  0  0  0  0  0  0  0  # atno 8008 bound_to 7997
  155.6250  140.3495  155.4645 H   0  0  0  0  0  0  0  0  0  0  0  0  # atno 8009 bound_to 7997
  155.9994  140.1196  157.0552 H   0  0  0  0  0  0  0  0  0  0  0  0  # atno 8010 bound_to 7997
  139.4953  144.3882  151.9546 H   0  0  0  0  0  0  0  0  0  0  0  0  # atno 10167 bound_to 10162
  157.4815  131.1086  150.9676 H   0  0  0  0  0  0  0  0  0  0  0  0  # atno 10718 bound_to 10713
  154.8248  135.3341  154.6930 H   0  0  0  0  0  0  0  0  0  0  0  0  # atno 10763 bound_to 10752
  153.7558  135.6936  153.4940 H   0  0  0  0  0  0  0  0  0  0  0  0  # atno 10764 bound_to 10752
  153.2145  135.4470  155.0368 H   0  0  0  0  0  0  0  0  0  0  0  0  # atno 10765 bound_to 10752
  139.9704  134.9579  156.9374 H   0  0  0  0  0  0  0  0  0  0  0  0  # atno 11005 bound_to 11000
  145.2339  140.9983  143.3975 LP  0  0  0  0  0  0  0  0  0  0  0  0  # atno 17320 bound_to 7965
  144.9508  139.4085  143.6403 LP  0  0  0  0  0  0  0  0  0  0  0  0  # atno 17321 bound_to 7965
  140.3319  144.3306  150.5985 LP  0  0  0  0  0  0  0  0  0  0  0  0  # atno 17342 bound_to 10162
  140.5638  143.2189  151.7720 LP  0  0  0  0  0  0  0  0  0  0  0  0  # atno 17343 bound_to 10162
  157.0407  130.5748  149.5356 LP  0  0  0  0  0  0  0  0  0  0  0  0  # atno 17370 bound_to 10713
  156.0124  130.5216  150.8029 LP  0  0  0  0  0  0  0  0  0  0  0  0  # atno 17371 bound_to 10713
  140.5306  134.0818  155.7315 LP  0  0  0  0  0  0  0  0  0  0  0  0  # atno 17394 bound_to 11000
  141.1384  133.9182  157.2383 LP  0  0  0  0  0  0  0  0  0  0  0  0  # atno 17395 bound_to 11000

$$$$
