AV-unprocessed.smi:2909|AV-procd|sdf|11174|dock7
  -GOLD-   2272016 63D 1   1.00000     0.00000
 Structure written by MMmdl.
 44 45  0  0  0  0  0  0  0  0  1 V2000
  142.5343  143.4546  160.8334 C   0  0  0  0  0  0  0  0  0  0  0  0
  143.9583  143.9266  160.8473 C   0  0  0  0  0  0  0  0  0  0  0  0
  144.9175  143.8003  161.8944 C   0  0  0  0  0  0  0  0  0  0  0  0
  146.0435  144.3936  161.3954 C   0  0  0  0  0  0  0  0  0  0  0  0
  147.4005  144.6046  161.9919 C   0  0  0  0  0  0  0  0  0  0  0  0
  148.3666  145.2761  161.0106 C   0  0  0  0  0  0  0  0  0  0  0  0
  148.1744  146.4414  160.6647 O   0  0  0  0  0  0  0  0  0  0  0  0
  149.4118  144.5456  160.5895 N   0  0  0  0  0  0  0  0  0  0  0  0
  150.4634  144.9991  159.6822 C   0  0  2  0  0  0  0  0  0  0  0  0
  150.5712  144.0504  158.4778 C   0  0  0  0  0  0  0  0  0  0  0  0
  151.1180  142.6662  158.8697 C   0  0  0  0  0  0  0  0  0  0  0  0
  152.4835  142.7458  159.5968 C   0  0  2  0  0  0  0  0  0  0  0  0
  153.0116  141.3410  160.0126 C   0  0  0  0  0  0  0  0  0  0  0  0
  154.3877  141.4005  160.7034 C   0  0  0  0  0  0  0  0  0  0  0  0
  153.0959  140.3621  158.8252 C   0  0  0  0  0  0  0  0  0  0  0  0
  152.3654  143.7115  160.8023 C   0  0  0  0  0  0  0  0  0  0  0  0
  151.8193  145.0939  160.4039 C   0  0  0  0  0  0  0  0  0  0  0  0
  145.7204  144.8211  160.1272 N   0  0  0  0  0  0  0  0  0  0  0  0
  144.4496  144.5436  159.7828 N   0  0  0  0  0  0  0  0  0  0  0  0
  146.3486  145.2962  159.4943 H   0  0  0  0  0  0  0  0  0  0  0  0
  142.2182  143.1266  161.8237 H   0  0  0  0  0  0  0  0  0  0  0  0
  142.4074  142.6152  160.1496 H   0  0  0  0  0  0  0  0  0  0  0  0
  141.8581  144.2491  160.5164 H   0  0  0  0  0  0  0  0  0  0  0  0
  144.7957  143.3465  162.8670 H   0  0  0  0  0  0  0  0  0  0  0  0
  147.8288  143.6526  162.3070 H   0  0  0  0  0  0  0  0  0  0  0  0
  147.3139  145.2185  162.8894 H   0  0  0  0  0  0  0  0  0  0  0  0
  149.4870  143.5966  160.9262 H   0  0  0  0  0  0  0  0  0  0  0  0
  150.1946  145.9884  159.3072 H   0  0  0  0  0  0  0  0  0  0  0  0
  149.5985  143.9435  157.9959 H   0  0  0  0  0  0  0  0  0  0  0  0
  151.2308  144.4941  157.7310 H   0  0  0  0  0  0  0  0  0  0  0  0
  150.3937  142.1502  159.5013 H   0  0  0  0  0  0  0  0  0  0  0  0
  151.2026  142.0769  157.9577 H   0  0  0  0  0  0  0  0  0  0  0  0
  153.2031  143.1784  158.8999 H   0  0  0  0  0  0  0  0  0  0  0  0
  152.3098  140.9152  160.7313 H   0  0  0  0  0  0  0  0  0  0  0  0
  155.1232  141.9097  160.0799 H   0  0  0  0  0  0  0  0  0  0  0  0
  154.7674  140.3996  160.9105 H   0  0  0  0  0  0  0  0  0  0  0  0
  154.3423  141.9149  161.6628 H   0  0  0  0  0  0  0  0  0  0  0  0
  153.7044  140.7699  158.0176 H   0  0  0  0  0  0  0  0  0  0  0  0
  152.1132  140.1223  158.4209 H   0  0  0  0  0  0  0  0  0  0  0  0
  153.5425  139.4143  159.1272 H   0  0  0  0  0  0  0  0  0  0  0  0
  151.7251  143.2699  161.5670 H   0  0  0  0  0  0  0  0  0  0  0  0
  153.3379  143.8651  161.2681 H   0  0  0  0  0  0  0  0  0  0  0  0
  152.5391  145.5842  159.7473 H   0  0  0  0  0  0  0  0  0  0  0  0
  151.7360  145.7300  161.2859 H   0  0  0  0  0  0  0  0  0  0  0  0
  1 21  1  0  0  0  0
  1 22  1  0  0  0  0
  1 23  1  0  0  0  0
  1  2  1  0  0  0  0
  2 19  2  0  0  0  0
  2  3  1  0  0  0  0
  3  4  2  0  0  0  0
  3 24  1  0  0  0  0
  4 18  1  0  0  0  0
  4  5  1  0  0  0  0
  5  6  1  0  0  0  0
  5 25  1  0  0  0  0
  5 26  1  0  0  0  0
  6  7  2  0  0  0  0
  6  8  1  0  0  0  0
  8  9  1  0  0  0  0
  8 27  1  0  0  0  0
  9 17  1  0  0  0  0
  9 10  1  0  0  0  0
  9 28  1  0  0  0  0
 10 11  1  0  0  0  0
 10 29  1  0  0  0  0
 10 30  1  0  0  0  0
 11 12  1  0  0  0  0
 11 31  1  0  0  0  0
 11 32  1  0  0  0  0
 12 13  1  0  0  0  0
 12 16  1  0  0  0  0
 12 33  1  0  0  0  0
 13 14  1  0  0  0  0
 13 15  1  0  0  0  0
 13 34  1  0  0  0  0
 14 35  1  0  0  0  0
 14 36  1  0  0  0  0
 14 37  1  0  0  0  0
 15 38  1  0  0  0  0
 15 39  1  0  0  0  0
 15 40  1  0  0  0  0
 16 17  1  0  0  0  0
 16 41  1  0  0  0  0
 16 42  1  0  0  0  0
 17 43  1  0  0  0  0
 17 44  1  0  0  0  0
 18 19  1  0  0  0  0
 18 20  1  0  0  0  0
M  END
> <s_m_source_file>
AV-unprocessed.smi

> <i_m_source_file_index>
2909

> <i_lp_mmshare_version>
43012

> <i_f3d_flags>
0

> <s_epik_input>
W0NIM11jMVtjSF1jKG5bbkhdMSlbQ0gyXUMoPU8pW05IXVtDQEBIXTJbQ0gyXVtDSDJdW0NAQEhdKFtDSF0oW0NIM10pW0NIM10pW0NIMl1bQ0gyXTI=

> <s_epik_cmdline>
J2VwaWtfcHl0aG9uJywgJy1waCcsICc3LjAnLCAnLXRuJywgJzgnLCAnLW1hJywgJzIwMCcsICctbWV0YWxfYmluZGluZycsICctaW1hZScsICc8aW5maWxlLm1hZT4nLCAnLW9tYWUnLCAnPG91dGZpbGUubWFlPic=

> <r_lp_tautomer_probability>
0.5

> <r_epik_Ionization_Penalty>
0.00013296

> <r_epik_Ionization_Penalty_Charging>
0

> <r_epik_Ionization_Penalty_Neutral>
0.00013296

> <r_epik_State_Penalty>
0.41068

> <r_epik_Charging_Adjusted_Penalty>
0.41068

> <i_epik_Tot_Q>
0

> <i_epik_Tot_abs_Q>
0

> <r_epik_Metal_State_Penalty>
0.41066

> <b_epik_Metal_Only>
0

> <s_lp_Force_Field>
OPLS_2005

> <r_lp_Energy>
9.99393

> <b_lp_Chiralities_Consistent>
1

> <s_lp_Variant>
AV-unprocessed.smi:2909-4

> <Gold.Version>
5.8.1

> <Gold.Id.Protein>
6NUR|6NUR_protein|mol2

> <Gold.PLP.Fitness>
41.2044

> <Gold.PLP.PLP>
-41.3798

> <Gold.PLP.part.hbond>
-1.4658

> <Gold.PLP.part.metal>
0.0000

> <Gold.PLP.part.buried>
-5.4946

> <Gold.PLP.part.nonpolar>
-35.4967

> <Gold.PLP.part.repulsive>
0.5192

> <Gold.PLP.ligand.clash>
0.0000

> <Gold.PLP.ligand.torsion>
0.0985

> <Gold.PLP.Chemscore.Hbond>
0.0000

> <Gold.PLP.Chemscore.CHOScore>
0.0000

> <Gold.PLP.Chemscore.Metal>
0.0000

> <Gold.PLP.Chemscore.Internal.Correction>
0.0216

> <Gold.Rescore>
     Score         DG    S(hbond)    S(metal)    S(lipo)     H(rot)  DE(clash)    DE(int)     intcor
     13.75     -15.74       0.00        0.00     120.50       1.50       1.82       0.17       ----

> <Gold.Chemscore.Fitness>
13.7490

> <Gold.Chemscore.DG>
-15.7356

> <Gold.Chemscore.ZeroCoef>
-5.4800

> <Gold.Chemscore.Hbond>
0.0000

> <Gold.Chemscore.Metal>
0.0000

> <Gold.Chemscore.Lipo>
120.4997

> <Gold.Chemscore.Internal_Hbond>
0.0000

> <Gold.Chemscore.DEClash>
1.8207

> <Gold.Chemscore.DEInternal>
0.1659

> <Gold.Chemscore.Rot>
1.5011

> <Gold.Chemscore.Internal.Correction>
   9.000000E+99

> <Gold.Chemscore.Hbond.Weighted>
-0.0000

> <Gold.Chemscore.Metal.Weighted>
-0.0000

> <Gold.Chemscore.Lipo.Weighted>
-14.0985

> <Gold.Chemscore.Internal_Hbond.Weighted>
0.0000

> <Gold.Chemscore.DEClash.Weighted>
1.8207

> <Gold.Chemscore.DEInternal.Weighted>
0.1659

> <Gold.Chemscore.Rot.Weighted>
3.8429

> <Gold.Chemscore.Internal.Correction.Weighted>
   9.000000E+99

> <Gold.Protein.RotatedTorsions>
[ 6907 6896 6895 6894 ] final  -17.62 input  -60.11 | X-H torsion
[ 7974 7965 7964 7962 ] final  157.93 input  175.53 | X-H torsion
[ 8008 7997 7996 7995 ] final  -46.02 input   59.86 | X-H torsion
[ 10167 10162 10161 10158 ] final    8.30 input  -65.29 | X-H torsion
[ 10718 10713 10712 10709 ] final   24.48 input   66.30 | X-H torsion
[ 10763 10752 10751 10750 ] final   -1.04 input  -60.55 | X-H torsion
[ 11005 11000 10999 10996 ] final   86.60 input  -57.11 | X-H torsion

> <Gold.Protein.ActiveResidues>
 VAL166  LYS551  ARG553  GLY616  TRP617  ASP618  TYR619  PRO620  LYS621  CYS622 
 ASP623  PHE694  ASN695  SER759  ASP760  ASP761  ALA762  ILE779  LEU786  VAL792 
 PHE793  MET794  SER795  GLU796  ALA797  LYS798  CYS799  TRP800  GLU811  SER814 

> <Gold.Protein.RotatedAtoms>
  151.2906  135.0740  159.9202 H   0  0  0  0  0  0  0  0  0  0  0  0  # atno 6907 bound_to 6896
  152.5317  133.9936  159.7872 H   0  0  0  0  0  0  0  0  0  0  0  0  # atno 6908 bound_to 6896
  151.0205  133.5830  159.2702 H   0  0  0  0  0  0  0  0  0  0  0  0  # atno 6909 bound_to 6896
  144.7875  139.7408  143.6235 H   0  0  0  0  0  0  0  0  0  0  0  0  # atno 7974 bound_to 7965
  154.4004  140.1382  156.3942 H   0  0  0  0  0  0  0  0  0  0  0  0  # atno 8008 bound_to 7997
  155.7885  140.3479  155.5316 H   0  0  0  0  0  0  0  0  0  0  0  0  # atno 8009 bound_to 7997
  155.8602  140.0955  157.1608 H   0  0  0  0  0  0  0  0  0  0  0  0  # atno 8010 bound_to 7997
  140.6322  143.7968  150.7310 H   0  0  0  0  0  0  0  0  0  0  0  0  # atno 10167 bound_to 10162
  157.1803  130.6799  149.6110 H   0  0  0  0  0  0  0  0  0  0  0  0  # atno 10718 bound_to 10713
  153.3397  135.6980  153.6878 H   0  0  0  0  0  0  0  0  0  0  0  0  # atno 10763 bound_to 10752
  153.5648  135.3528  155.2814 H   0  0  0  0  0  0  0  0  0  0  0  0  # atno 10764 bound_to 10752
  154.8634  135.4258  154.2606 H   0  0  0  0  0  0  0  0  0  0  0  0  # atno 10765 bound_to 10752
  139.8940  134.8366  156.2743 H   0  0  0  0  0  0  0  0  0  0  0  0  # atno 11005 bound_to 11000
  146.2113  139.5471  142.9679 LP  0  0  0  0  0  0  0  0  0  0  0  0  # atno 17320 bound_to 7965
  145.5883  141.0373  143.2084 LP  0  0  0  0  0  0  0  0  0  0  0  0  # atno 17321 bound_to 7965
  140.1582  143.4298  152.2085 LP  0  0  0  0  0  0  0  0  0  0  0  0  # atno 17342 bound_to 10162
  139.5535  144.7355  151.4364 LP  0  0  0  0  0  0  0  0  0  0  0  0  # atno 17343 bound_to 10162
  155.9725  130.4649  150.6234 LP  0  0  0  0  0  0  0  0  0  0  0  0  # atno 17370 bound_to 10713
  157.3959  131.0802  151.1352 LP  0  0  0  0  0  0  0  0  0  0  0  0  # atno 17371 bound_to 10713
  141.0080  133.7112  156.1066 LP  0  0  0  0  0  0  0  0  0  0  0  0  # atno 17394 bound_to 11000
  140.7407  134.4154  157.5555 LP  0  0  0  0  0  0  0  0  0  0  0  0  # atno 17395 bound_to 11000

$$$$
