AV-unprocessed.smi:772|AV-procd|sdf|3688|dock2
  -GOLD-   22720 1103D 1   1.00000     0.00000
 Structure written by MMmdl.
 47 48  0  0  0  0  0  0  0  0  2 V2000
  151.4085  145.3592  158.6366 C   0  0  0  0  0  0  0  0  0  0  0  0
  151.4866  143.9072  158.2152 C   0  0  0  0  0  0  0  0  0  0  0  0
  152.2954  142.9680  158.8900 C   0  0  0  0  0  0  0  0  0  0  0  0
  152.3226  141.6325  158.4378 C   0  0  0  0  0  0  0  0  0  0  0  0
  151.5425  141.2632  157.3198 C   0  0  0  0  0  0  0  0  0  0  0  0
  151.5727  139.8415  156.7864 C   0  0  0  0  0  0  0  0  0  0  0  0
  151.6066  138.7687  157.8918 C   0  0  0  0  0  0  0  0  0  0  0  0
  150.2714  138.2915  158.2446 N   0  0  0  0  0  0  0  0  0  0  0  0
  149.9819  137.3981  159.2076 C   0  0  0  0  0  0  0  0  0  0  0  0
  150.8553  136.8858  159.9098 O   0  0  0  0  0  0  0  0  0  0  0  0
  148.6595  137.1291  159.3544 N   0  0  0  0  0  0  0  0  0  0  0  0
  147.6449  137.1682  158.2892 C   0  0  0  0  0  0  0  0  0  0  0  0
  147.4228  135.7435  157.7595 C   0  0  0  0  0  0  0  0  0  0  0  0
  146.7749  134.6583  159.0680 S   0  0  0  0  0  0  0  0  0  0  0  0
  147.9706  135.0140  160.4048 C   0  0  2  0  0  0  0  0  0  0  0  0
  147.6182  134.2777  161.7221 C   0  0  0  0  0  0  0  0  0  0  0  0
  147.5775  132.7515  161.5342 C   0  0  0  0  0  0  0  0  0  0  0  0
  146.3278  134.7820  162.3950 C   0  0  0  0  0  0  0  0  0  0  0  0
  148.1266  136.5405  160.5891 C   0  0  0  0  0  0  0  0  0  0  0  0
  150.7487  142.2447  156.6889 C   0  0  0  0  0  0  0  0  0  0  0  0
  150.7503  143.5133  157.1522 N   0  3  0  0  0  0  0  0  0  0  0  0
  152.0831  145.5637  159.4685 H   0  0  0  0  0  0  0  0  0  0  0  0
  150.3949  145.6096  158.9503 H   0  0  0  0  0  0  0  0  0  0  0  0
  151.6839  146.0115  157.8073 H   0  0  0  0  0  0  0  0  0  0  0  0
  152.8917  143.2645  159.7406 H   0  0  0  0  0  0  0  0  0  0  0  0
  152.9446  140.9049  158.9387 H   0  0  0  0  0  0  0  0  0  0  0  0
  150.7053  139.6791  156.1451 H   0  0  0  0  0  0  0  0  0  0  0  0
  152.4472  139.7306  156.1445 H   0  0  0  0  0  0  0  0  0  0  0  0
  152.1885  137.9130  157.5488 H   0  0  0  0  0  0  0  0  0  0  0  0
  152.1245  139.1505  158.7733 H   0  0  0  0  0  0  0  0  0  0  0  0
  149.5011  138.6681  157.7110 H   0  0  0  0  0  0  0  0  0  0  0  0
  146.7086  137.5680  158.6812 H   0  0  0  0  0  0  0  0  0  0  0  0
  147.9097  137.8351  157.4685 H   0  0  0  0  0  0  0  0  0  0  0  0
  146.7149  135.7518  156.9307 H   0  0  0  0  0  0  0  0  0  0  0  0
  148.3561  135.3268  157.3796 H   0  0  0  0  0  0  0  0  0  0  0  0
  148.9332  134.6272  160.0667 H   0  0  0  0  0  0  0  0  0  0  0  0
  148.4332  134.4744  162.4199 H   0  0  0  0  0  0  0  0  0  0  0  0
  146.7607  132.4466  160.8799 H   0  0  0  0  0  0  0  0  0  0  0  0
  147.4388  132.2443  162.4894 H   0  0  0  0  0  0  0  0  0  0  0  0
  148.5072  132.3822  161.1009 H   0  0  0  0  0  0  0  0  0  0  0  0
  145.4507  134.6069  161.7720 H   0  0  0  0  0  0  0  0  0  0  0  0
  146.3761  135.8482  162.6139 H   0  0  0  0  0  0  0  0  0  0  0  0
  146.1601  134.2694  163.3426 H   0  0  0  0  0  0  0  0  0  0  0  0
  148.7690  136.7534  161.4450 H   0  0  0  0  0  0  0  0  0  0  0  0
  147.1678  137.0007  160.8291 H   0  0  0  0  0  0  0  0  0  0  0  0
  150.1267  142.0574  155.8256 H   0  0  0  0  0  0  0  0  0  0  0  0
  150.1728  144.2063  156.6755 H   0  0  0  0  0  0  0  0  0  0  0  0
  1  2  1  0  0  0  0
  1 22  1  0  0  0  0
  1 23  1  0  0  0  0
  1 24  1  0  0  0  0
  2 21  1  0  0  0  0
  2  3  2  0  0  0  0
  3  4  1  0  0  0  0
  3 25  1  0  0  0  0
  4  5  2  0  0  0  0
  4 26  1  0  0  0  0
  5  6  1  0  0  0  0
  5 20  1  0  0  0  0
  6  7  1  0  0  0  0
  6 27  1  0  0  0  0
  6 28  1  0  0  0  0
  7  8  1  0  0  0  0
  7 29  1  0  0  0  0
  7 30  1  0  0  0  0
  8  9  1  0  0  0  0
  8 31  1  0  0  0  0
  9 10  2  0  0  0  0
  9 11  1  0  0  0  0
 11 19  1  0  0  0  0
 11 12  1  0  0  0  0
 12 13  1  0  0  0  0
 12 32  1  0  0  0  0
 12 33  1  0  0  0  0
 13 14  1  0  0  0  0
 13 34  1  0  0  0  0
 13 35  1  0  0  0  0
 14 15  1  0  0  0  0
 15 16  1  0  0  0  0
 15 19  1  0  0  0  0
 15 36  1  0  0  0  0
 16 17  1  0  0  0  0
 16 18  1  0  0  0  0
 16 37  1  0  0  0  0
 17 38  1  0  0  0  0
 17 39  1  0  0  0  0
 17 40  1  0  0  0  0
 18 41  1  0  0  0  0
 18 42  1  0  0  0  0
 18 43  1  0  0  0  0
 19 44  1  0  0  0  0
 19 45  1  0  0  0  0
 20 21  2  0  0  0  0
 20 46  1  0  0  0  0
 21 47  1  0  0  0  0
M  CHG  1  21   1
M  END
> <s_m_source_file>
AV-unprocessed.smi

> <i_m_source_file_index>
772

> <i_lp_mmshare_version>
43012

> <i_f3d_flags>
0

> <s_epik_input>
W0NIM11jMVtjSF1bY0hdYyhbY0hdbjEpW0NIMl1bQ0gyXVtOSF1DKD1PKU4yW0NIMl1bQ0gyXVNbQ0BIXShbQ0gyXTIpW0NIXShbQ0gzXSlbQ0gzXQ==

> <s_epik_cmdline>
J2VwaWtfcHl0aG9uJywgJy1waCcsICc3LjAnLCAnLXRuJywgJzgnLCAnLW1hJywgJzIwMCcsICctbWV0YWxfYmluZGluZycsICctaW1hZScsICc8aW5maWxlLm1hZT4nLCAnLW9tYWUnLCAnPG91dGZpbGUubWFlPic=

> <r_epik_Ionization_Penalty>
1.41908

> <r_epik_Ionization_Penalty_Charging>
1.41903

> <r_epik_Ionization_Penalty_Neutral>
4.72921e-05

> <r_epik_State_Penalty>
1.50265

> <r_epik_Charging_Adjusted_Penalty>
2.92168

> <i_epik_Tot_Q>
1

> <i_epik_Tot_abs_Q>
1

> <r_epik_Metal_State_Penalty>
1.55496

> <b_epik_Metal_Only>
0

> <s_lp_Force_Field>
OPLS_2005

> <r_lp_Energy>
32.4452

> <b_lp_Chiralities_Consistent>
1

> <s_lp_Variant>
AV-unprocessed.smi:772-4

> <Gold.Version>
5.8.1

> <Gold.Id.Protein>
6NUR|6NUR_protein|mol2

> <Gold.PLP.Fitness>
45.5284

> <Gold.PLP.PLP>
-38.1035

> <Gold.PLP.part.hbond>
-2.0000

> <Gold.PLP.part.metal>
0.0000

> <Gold.PLP.part.buried>
-2.1738

> <Gold.PLP.part.nonpolar>
-33.8782

> <Gold.PLP.part.repulsive>
0.1288

> <Gold.PLP.ligand.clash>
0.0000

> <Gold.PLP.ligand.torsion>
0.8043

> <Gold.PLP.Chemscore.Hbond>
2.9840

> <Gold.PLP.Chemscore.CHOScore>
0.0000

> <Gold.PLP.Chemscore.Metal>
0.0000

> <Gold.Chemscore.Hbonds>
donor molecule, donor type, donor heavy atom, donor atom, acceptor molecule, acceptor atom, score
      L1  H    21    47       P1  8028  2.00
      P1  H  6896  6907       L1    10  1.00

> <Gold.PLP.Chemscore.Internal.Correction>
0.0814

> <Gold.Rescore>
     Score         DG    S(hbond)    S(metal)    S(lipo)     H(rot)  DE(clash)    DE(int)     intcor
     20.60     -21.47       1.98        0.00     110.60       1.39       0.31       0.56       ----

> <Gold.Chemscore.Fitness>
20.5989

> <Gold.Chemscore.DG>
-21.4650

> <Gold.Chemscore.ZeroCoef>
-5.4800

> <Gold.Chemscore.Hbond>
1.9806

> <Gold.Chemscore.Metal>
0.0000

> <Gold.Chemscore.Lipo>
110.6045

> <Gold.Chemscore.Internal_Hbond>
0.0000

> <Gold.Chemscore.DEClash>
0.3080

> <Gold.Chemscore.DEInternal>
0.5581

> <Gold.Chemscore.Rot>
1.3949

> <Gold.Chemscore.Internal.Correction>
   9.000000E+99

> <Gold.Chemscore.Hbonds>
donor molecule, donor type, donor heavy atom, donor atom, acceptor molecule, acceptor atom, score
      L1  H    21    47       P1  8028  0.97
      P1  H  6896  6907       L1    10  1.00

> <Gold.Chemscore.Hbond.Weighted>
-6.6152

> <Gold.Chemscore.Metal.Weighted>
-0.0000

> <Gold.Chemscore.Lipo.Weighted>
-12.9407

> <Gold.Chemscore.Internal_Hbond.Weighted>
0.0000

> <Gold.Chemscore.DEClash.Weighted>
0.3080

> <Gold.Chemscore.DEInternal.Weighted>
0.5581

> <Gold.Chemscore.Rot.Weighted>
3.5709

> <Gold.Chemscore.Internal.Correction.Weighted>
   9.000000E+99

> <Gold.Protein.RotatedTorsions>
[ 6907 6896 6895 6894 ] final   -8.82 input  -60.11 | X-H torsion
[ 7974 7965 7964 7962 ] final   -5.20 input  175.53 | X-H torsion
[ 8008 7997 7996 7995 ] final   79.40 input   59.86 | X-H torsion
[ 10167 10162 10161 10158 ] final   25.75 input  -65.29 | X-H torsion
[ 10718 10713 10712 10709 ] final   72.84 input   66.30 | X-H torsion
[ 10763 10752 10751 10750 ] final  143.54 input  -60.55 | X-H torsion
[ 11005 11000 10999 10996 ] final -141.16 input  -57.11 | X-H torsion

> <Gold.Protein.ActiveResidues>
 VAL166  LYS551  ARG553  GLY616  TRP617  ASP618  TYR619  PRO620  LYS621  CYS622 
 ASP623  PHE694  ASN695  SER759  ASP760  ASP761  ALA762  ILE779  LEU786  VAL792 
 PHE793  MET794  SER795  GLU796  ALA797  LYS798  CYS799  TRP800  GLU811  SER814 

> <Gold.Protein.RotatedAtoms>
  151.4275  135.1005  159.9632 H   0  0  0  0  0  0  0  0  0  0  0  0  # atno 6907 bound_to 6896
  152.4967  133.8649  159.7279 H   0  0  0  0  0  0  0  0  0  0  0  0  # atno 6908 bound_to 6896
  150.9179  133.6859  159.2867 H   0  0  0  0  0  0  0  0  0  0  0  0  # atno 6909 bound_to 6896
  146.2357  140.1985  142.8333 H   0  0  0  0  0  0  0  0  0  0  0  0  # atno 7974 bound_to 7965
  155.8691  140.3450  155.5809 H   0  0  0  0  0  0  0  0  0  0  0  0  # atno 8008 bound_to 7997
  155.7847  140.0863  157.2060 H   0  0  0  0  0  0  0  0  0  0  0  0  # atno 8009 bound_to 7997
  154.4016  140.1494  156.3080 H   0  0  0  0  0  0  0  0  0  0  0  0  # atno 8010 bound_to 7997
  140.5080  144.0206  150.6360 H   0  0  0  0  0  0  0  0  0  0  0  0  # atno 10167 bound_to 10162
  157.6520  130.9598  150.0985 H   0  0  0  0  0  0  0  0  0  0  0  0  # atno 10718 bound_to 10713
  153.9740  135.2948  155.3425 H   0  0  0  0  0  0  0  0  0  0  0  0  # atno 10763 bound_to 10752
  154.7306  135.5069  153.8961 H   0  0  0  0  0  0  0  0  0  0  0  0  # atno 10764 bound_to 10752
  153.0886  135.6701  154.0011 H   0  0  0  0  0  0  0  0  0  0  0  0  # atno 10765 bound_to 10752
  140.8352  134.2469  157.4837 H   0  0  0  0  0  0  0  0  0  0  0  0  # atno 11005 bound_to 11000
  144.9801  140.8451  143.5402 LP  0  0  0  0  0  0  0  0  0  0  0  0  # atno 17320 bound_to 7965
  145.1977  139.2268  143.5209 LP  0  0  0  0  0  0  0  0  0  0  0  0  # atno 17321 bound_to 7965
  140.3521  143.2957  152.0476 LP  0  0  0  0  0  0  0  0  0  0  0  0  # atno 17342 bound_to 10162
  139.4889  144.6366  151.6963 LP  0  0  0  0  0  0  0  0  0  0  0  0  # atno 17343 bound_to 10162
  156.1914  130.3655  149.8905 LP  0  0  0  0  0  0  0  0  0  0  0  0  # atno 17370 bound_to 10713
  156.6832  130.8866  151.3578 LP  0  0  0  0  0  0  0  0  0  0  0  0  # atno 17371 bound_to 10713
  139.8704  134.9607  156.4371 LP  0  0  0  0  0  0  0  0  0  0  0  0  # atno 17394 bound_to 11000
  140.8955  133.7817  155.9621 LP  0  0  0  0  0  0  0  0  0  0  0  0  # atno 17395 bound_to 11000

$$$$
