AV-unprocessed.smi:1815|AV-procd|sdf|7358|dock4
  -GOLD-   22720 9 23D 1   1.00000     0.00000
 Structure written by MMmdl.
 38 39  0  0  0  0  0  0  0  0  2 V2000
  153.9840  141.2930  161.4033 C   0  0  0  0  0  0  0  0  0  0  0  0
  153.4873  141.7762  160.0369 C   0  0  1  0  0  0  0  0  0  0  0  0
  152.6029  140.7287  159.3351 C   0  0  0  0  0  0  0  0  0  0  0  0
  152.0719  141.2208  158.0692 N   0  0  0  0  0  0  0  0  0  0  0  0
  151.2454  140.2044  157.4198 C   0  0  0  0  0  0  0  0  0  0  0  0
  150.1467  139.5952  158.3053 C   0  0  0  0  0  0  0  0  0  0  0  0
  150.1863  138.1414  158.2280 N   0  0  0  0  0  0  0  0  0  0  0  0
  149.4022  137.3091  158.9262 C   0  0  0  0  0  0  0  0  0  0  0  0
  148.5648  137.7661  159.7079 O   0  0  0  0  0  0  0  0  0  0  0  0
  149.6372  136.0006  158.6763 N   0  5  0  0  0  0  0  0  0  0  0  0
  149.6991  135.5581  157.4097 C   0  0  0  0  0  0  0  0  0  0  0  0
  150.3127  134.4203  157.0649 N   0  0  0  0  0  0  0  0  0  0  0  0
  150.2505  134.1476  155.6973 C   0  0  0  0  0  0  0  0  0  0  0  0
  149.5654  135.0955  154.9848 C   0  0  0  0  0  0  0  0  0  0  0  0
  148.9740  136.3663  156.0167 S   0  0  0  0  0  0  0  0  0  0  0  0
  151.3450  142.4642  158.3135 C   0  0  0  0  0  0  0  0  0  0  0  0
  152.2228  143.5165  159.0183 C   0  0  1  0  0  0  0  0  0  0  0  0
  151.4418  144.7908  159.3569 C   0  0  0  0  0  0  0  0  0  0  0  0
  152.7304  142.9675  160.2315 O   0  0  0  0  0  0  0  0  0  0  0  0
  154.5765  140.3832  161.3054 H   0  0  0  0  0  0  0  0  0  0  0  0
  153.1505  141.0802  162.0735 H   0  0  0  0  0  0  0  0  0  0  0  0
  154.6099  142.0481  161.8793 H   0  0  0  0  0  0  0  0  0  0  0  0
  154.3514  142.0039  159.4101 H   0  0  0  0  0  0  0  0  0  0  0  0
  153.1857  139.8233  159.1619 H   0  0  0  0  0  0  0  0  0  0  0  0
  151.7804  140.4474  159.9951 H   0  0  0  0  0  0  0  0  0  0  0  0
  150.7568  140.6533  156.5536 H   0  0  0  0  0  0  0  0  0  0  0  0
  151.8808  139.4094  157.0257 H   0  0  0  0  0  0  0  0  0  0  0  0
  150.2740  139.8881  159.3476 H   0  0  0  0  0  0  0  0  0  0  0  0
  149.1673  139.9516  157.9821 H   0  0  0  0  0  0  0  0  0  0  0  0
  150.8585  137.7314  157.5967 H   0  0  0  0  0  0  0  0  0  0  0  0
  150.7222  133.2538  155.3170 H   0  0  0  0  0  0  0  0  0  0  0  0
  149.3727  135.1239  153.9233 H   0  0  0  0  0  0  0  0  0  0  0  0
  150.9883  142.8833  157.3735 H   0  0  0  0  0  0  0  0  0  0  0  0
  150.4616  142.2607  158.9209 H   0  0  0  0  0  0  0  0  0  0  0  0
  153.0621  143.7814  158.3731 H   0  0  0  0  0  0  0  0  0  0  0  0
  151.0422  145.2572  158.4563 H   0  0  0  0  0  0  0  0  0  0  0  0
  152.0828  145.5203  159.8525 H   0  0  0  0  0  0  0  0  0  0  0  0
  150.6057  144.5761  160.0228 H   0  0  0  0  0  0  0  0  0  0  0  0
  1  2  1  0  0  0  0
  1 20  1  0  0  0  0
  1 21  1  0  0  0  0
  1 22  1  0  0  0  0
  2 19  1  0  0  0  0
  2  3  1  0  0  0  0
  2 23  1  0  0  0  0
  3  4  1  0  0  0  0
  3 24  1  0  0  0  0
  3 25  1  0  0  0  0
  4  5  1  0  0  0  0
  4 16  1  0  0  0  0
  5  6  1  0  0  0  0
  5 26  1  0  0  0  0
  5 27  1  0  0  0  0
  6  7  1  0  0  0  0
  6 28  1  0  0  0  0
  6 29  1  0  0  0  0
  7  8  1  0  0  0  0
  7 30  1  0  0  0  0
  8  9  2  0  0  0  0
  8 10  1  0  0  0  0
 10 11  1  0  0  0  0
 11 15  1  0  0  0  0
 11 12  2  0  0  0  0
 12 13  1  0  0  0  0
 13 14  2  0  0  0  0
 13 31  1  0  0  0  0
 14 15  1  0  0  0  0
 14 32  1  0  0  0  0
 16 17  1  0  0  0  0
 16 33  1  0  0  0  0
 16 34  1  0  0  0  0
 17 18  1  0  0  0  0
 17 19  1  0  0  0  0
 17 35  1  0  0  0  0
 18 36  1  0  0  0  0
 18 37  1  0  0  0  0
 18 38  1  0  0  0  0
M  CHG  1  10  -1
M  END
> <s_m_source_file>
AV-unprocessed.smi

> <i_m_source_file_index>
1815

> <i_lp_mmshare_version>
43012

> <i_f3d_flags>
0

> <s_epik_input>
W0NIM11bQ0BASF0xW0NIMl1OKFtDSDJdW0NASF0oTzEpW0NIM10pW0NIMl1bQ0gyXVtOSF1DKD1PKVtOSF1jMm5bY0hdW2NIXXMy

> <s_epik_cmdline>
J2VwaWtfcHl0aG9uJywgJy1waCcsICc3LjAnLCAnLXRuJywgJzgnLCAnLW1hJywgJzIwMCcsICctbWV0YWxfYmluZGluZycsICctaW1hZScsICc8aW5maWxlLm1hZT4nLCAnLW9tYWUnLCAnPG91dGZpbGUubWFlPic=

> <r_lp_tautomer_probability>
0.999

> <r_epik_Ionization_Penalty>
7.22374

> <r_epik_Ionization_Penalty_Charging>
5.82415

> <r_epik_Ionization_Penalty_Neutral>
1.39959

> <r_epik_State_Penalty>
6.03347

> <r_epik_Charging_Adjusted_Penalty>
11.8576

> <i_epik_Tot_Q>
-1

> <i_epik_Tot_abs_Q>
1

> <r_epik_Metal_State_Penalty>
2.01024

> <b_epik_Metal_Only>
1

> <s_lp_Force_Field>
OPLS_2005

> <r_lp_Energy>
15.5459

> <b_lp_Chiralities_Consistent>
1

> <s_lp_Variant>
AV-unprocessed.smi:1815-9

> <Gold.Version>
5.8.1

> <Gold.Id.Protein>
6NUR|6NUR_protein|mol2

> <Gold.PLP.Fitness>
40.6235

> <Gold.PLP.PLP>
-32.6731

> <Gold.PLP.part.hbond>
-3.7743

> <Gold.PLP.part.metal>
0.0000

> <Gold.PLP.part.buried>
-4.6457

> <Gold.PLP.part.nonpolar>
-25.0608

> <Gold.PLP.part.repulsive>
0.1135

> <Gold.PLP.ligand.clash>
0.0000

> <Gold.PLP.ligand.torsion>
0.9321

> <Gold.PLP.Chemscore.Hbond>
2.2769

> <Gold.PLP.Chemscore.CHOScore>
0.9865

> <Gold.PLP.Chemscore.Metal>
0.0000

> <Gold.Chemscore.Hbonds>
donor molecule, donor type, donor heavy atom, donor atom, acceptor molecule, acceptor atom, score
      P1  H  6896  6907       L1    10  2.00
      P1  H  6931  6943       L1     9  0.10
      P1  H  6934  6947       L1     9  0.17
      L1  C    14    32       P1  7948  0.99

> <Gold.PLP.Chemscore.Internal.Correction>
0.0244

> <Gold.Rescore>
     Score         DG    S(hbond)    S(metal)    S(lipo)     H(rot)  DE(clash)    DE(int)     intcor
     13.96     -14.91       1.62        0.00      68.65       1.57       0.00       0.95       ----

> <Gold.Chemscore.Fitness>
13.9560

> <Gold.Chemscore.DG>
-14.9084

> <Gold.Chemscore.ZeroCoef>
-5.4800

> <Gold.Chemscore.Hbond>
1.6195

> <Gold.Chemscore.Metal>
0.0000

> <Gold.Chemscore.Lipo>
68.6514

> <Gold.Chemscore.Internal_Hbond>
0.0000

> <Gold.Chemscore.DEClash>
0.0000

> <Gold.Chemscore.DEInternal>
0.9524

> <Gold.Chemscore.Rot>
1.5676

> <Gold.Chemscore.Internal.Correction>
   9.000000E+99

> <Gold.Chemscore.Hbonds>
donor molecule, donor type, donor heavy atom, donor atom, acceptor molecule, acceptor atom, score
      P1  H  6896  6907       L1    10  0.45
      P1  H  6931  6943       L1     9  0.09
      P1  H  6934  6947       L1     9  0.17

> <Gold.Chemscore.Hbond.Weighted>
-5.4092

> <Gold.Chemscore.Metal.Weighted>
-0.0000

> <Gold.Chemscore.Lipo.Weighted>
-8.0322

> <Gold.Chemscore.Internal_Hbond.Weighted>
0.0000

> <Gold.Chemscore.DEClash.Weighted>
0.0000

> <Gold.Chemscore.DEInternal.Weighted>
0.9524

> <Gold.Chemscore.Rot.Weighted>
4.0130

> <Gold.Chemscore.Internal.Correction.Weighted>
   9.000000E+99

> <Gold.Protein.RotatedTorsions>
[ 6907 6896 6895 6894 ] final  -55.80 input  -60.11 | X-H torsion
[ 7974 7965 7964 7962 ] final -132.94 input  175.53 | X-H torsion
[ 8008 7997 7996 7995 ] final  172.02 input   59.86 | X-H torsion
[ 10167 10162 10161 10158 ] final  120.92 input  -65.29 | X-H torsion
[ 10718 10713 10712 10709 ] final   18.21 input   66.30 | X-H torsion
[ 10763 10752 10751 10750 ] final  117.53 input  -60.55 | X-H torsion
[ 11005 11000 10999 10996 ] final  139.47 input  -57.11 | X-H torsion

> <Gold.Protein.ActiveResidues>
 VAL166  LYS551  ARG553  GLY616  TRP617  ASP618  TYR619  PRO620  LYS621  CYS622 
 ASP623  PHE694  ASN695  SER759  ASP760  ASP761  ALA762  ILE779  LEU786  VAL792 
 PHE793  MET794  SER795  GLU796  ALA797  LYS798  CYS799  TRP800  GLU811  SER814 

> <Gold.Protein.RotatedAtoms>
  150.8221  134.7433  159.6780 H   0  0  0  0  0  0  0  0  0  0  0  0  # atno 6907 bound_to 6896
  152.4335  134.5728  159.9936 H   0  0  0  0  0  0  0  0  0  0  0  0  # atno 6908 bound_to 6896
  151.5910  133.3329  159.3063 H   0  0  0  0  0  0  0  0  0  0  0  0  # atno 6909 bound_to 6896
  144.9238  140.7047  143.4948 H   0  0  0  0  0  0  0  0  0  0  0  0  # atno 7974 bound_to 7965
  156.1215  140.1497  156.9197 H   0  0  0  0  0  0  0  0  0  0  0  0  # atno 8008 bound_to 7997
  154.4839  140.0871  156.7484 H   0  0  0  0  0  0  0  0  0  0  0  0  # atno 8009 bound_to 7997
  155.4419  140.3431  155.4293 H   0  0  0  0  0  0  0  0  0  0  0  0  # atno 8010 bound_to 7997
  139.5952  144.7039  151.3194 H   0  0  0  0  0  0  0  0  0  0  0  0  # atno 10167 bound_to 10162
  157.0931  130.6436  149.5853 H   0  0  0  0  0  0  0  0  0  0  0  0  # atno 10718 bound_to 10713
  153.5537  135.3534  155.2770 H   0  0  0  0  0  0  0  0  0  0  0  0  # atno 10763 bound_to 10752
  154.8703  135.4120  154.2908 H   0  0  0  0  0  0  0  0  0  0  0  0  # atno 10764 bound_to 10752
  153.3639  135.7061  153.6759 H   0  0  0  0  0  0  0  0  0  0  0  0  # atno 10765 bound_to 10752
  140.0257  134.9376  157.0564 H   0  0  0  0  0  0  0  0  0  0  0  0  # atno 11005 bound_to 11000
  145.3252  139.1776  143.4566 LP  0  0  0  0  0  0  0  0  0  0  0  0  # atno 17320 bound_to 7965
  146.3217  140.3274  142.8638 LP  0  0  0  0  0  0  0  0  0  0  0  0  # atno 17321 bound_to 7965
  140.7206  143.7147  150.7742 LP  0  0  0  0  0  0  0  0  0  0  0  0  # atno 17342 bound_to 10162
  140.0712  143.5060  152.2579 LP  0  0  0  0  0  0  0  0  0  0  0  0  # atno 17343 bound_to 10162
  155.9893  130.4940  150.7207 LP  0  0  0  0  0  0  0  0  0  0  0  0  # atno 17370 bound_to 10713
  157.4704  131.0892  151.0648 LP  0  0  0  0  0  0  0  0  0  0  0  0  # atno 17371 bound_to 10713
  140.4310  134.1780  155.7168 LP  0  0  0  0  0  0  0  0  0  0  0  0  # atno 17394 bound_to 11000
  141.1801  133.8431  157.1286 LP  0  0  0  0  0  0  0  0  0  0  0  0  # atno 17395 bound_to 11000

$$$$
