AV-unprocessed.smi:775|AV-procd|sdf|3696|dock6
  -GOLD-   22720 1113D 1   1.00000     0.00000
 Structure written by MMmdl.
 39 40  0  0  0  0  0  0  0  0  2 V2000
  150.1189  143.6605  158.8260 C   0  0  0  0  0  0  0  0  0  0  0  0
  151.3897  143.4489  157.9811 C   0  0  1  0  0  0  0  0  0  0  0  0
  152.4160  142.5194  158.6659 C   0  0  0  0  0  0  0  0  0  0  0  0
  152.6739  142.8576  160.0569 N   0  0  0  0  0  0  0  0  0  0  0  0
  153.3441  142.1163  161.0082 C   0  0  0  0  0  0  0  0  0  0  0  0
  153.3344  142.8371  162.1674 C   0  0  0  0  0  0  0  0  0  0  0  0
  152.6333  144.0256  161.8204 C   0  0  0  0  0  0  0  0  0  0  0  0
  152.2413  144.0353  160.5565 N   0  0  0  0  0  0  0  0  0  0  0  0
  151.0638  142.9346  156.6314 N   0  3  0  0  0  0  0  0  0  0  0  0
  150.3376  141.6462  156.5896 C   0  0  0  0  0  0  0  0  0  0  0  0
  151.2500  140.4775  156.1845 C   0  0  0  0  0  0  0  0  0  0  0  0
  152.3185  140.3316  156.7815 O   0  0  0  0  0  0  0  0  0  0  0  0
  150.8565  139.6456  155.1878 N   0  0  0  0  0  0  0  0  0  0  0  0
  149.5851  139.7541  154.4648 C   0  0  0  0  0  0  0  0  0  0  0  0
  148.7005  138.5579  154.8571 C   0  0  0  0  0  0  0  0  0  0  0  0
  149.4362  137.2925  154.8249 N   0  0  0  0  0  0  0  0  0  0  0  0
  150.7765  137.1726  154.7999 C   0  0  0  0  0  0  0  0  0  0  0  0
  151.3252  136.0740  154.7651 O   0  0  0  0  0  0  0  0  0  0  0  0
  151.6351  138.4522  154.8182 C   0  0  0  0  0  0  0  0  0  0  0  0
  150.3749  143.9494  159.8458 H   0  0  0  0  0  0  0  0  0  0  0  0
  149.5139  142.7550  158.8798 H   0  0  0  0  0  0  0  0  0  0  0  0
  149.4915  144.4532  158.4192 H   0  0  0  0  0  0  0  0  0  0  0  0
  151.8776  144.4164  157.8544 H   0  0  0  0  0  0  0  0  0  0  0  0
  152.0735  141.4845  158.6237 H   0  0  0  0  0  0  0  0  0  0  0  0
  153.3622  142.5467  158.1228 H   0  0  0  0  0  0  0  0  0  0  0  0
  153.7660  141.1472  160.7849 H   0  0  0  0  0  0  0  0  0  0  0  0
  153.7660  142.5597  163.1178 H   0  0  0  0  0  0  0  0  0  0  0  0
  152.4001  144.8756  162.4447 H   0  0  0  0  0  0  0  0  0  0  0  0
  150.4791  143.6192  156.1734 H   0  0  0  0  0  0  0  0  0  0  0  0
  149.9162  141.4394  157.5734 H   0  0  0  0  0  0  0  0  0  0  0  0
  149.5171  141.7242  155.8755 H   0  0  0  0  0  0  0  0  0  0  0  0
  149.0481  140.6884  154.6193 H   0  0  0  0  0  0  0  0  0  0  0  0
  149.7971  139.7162  153.3949 H   0  0  0  0  0  0  0  0  0  0  0  0
  148.3114  138.6980  155.8663 H   0  0  0  0  0  0  0  0  0  0  0  0
  147.8392  138.4894  154.1923 H   0  0  0  0  0  0  0  0  0  0  0  0
  148.8876  136.4445  154.8141 H   0  0  0  0  0  0  0  0  0  0  0  0
  152.0511  138.6034  153.8215 H   0  0  0  0  0  0  0  0  0  0  0  0
  152.4845  138.2732  155.4791 H   0  0  0  0  0  0  0  0  0  0  0  0
  151.9188  142.8453  156.1009 H   0  0  0  0  0  0  0  0  0  0  0  0
  1  2  1  0  0  0  0
  1 20  1  0  0  0  0
  1 21  1  0  0  0  0
  1 22  1  0  0  0  0
  2  3  1  0  0  0  0
  2  9  1  0  0  0  0
  2 23  1  0  0  0  0
  3  4  1  0  0  0  0
  3 24  1  0  0  0  0
  3 25  1  0  0  0  0
  4  8  1  0  0  0  0
  4  5  1  0  0  0  0
  5  6  2  0  0  0  0
  5 26  1  0  0  0  0
  6  7  1  0  0  0  0
  6 27  1  0  0  0  0
  7  8  2  0  0  0  0
  7 28  1  0  0  0  0
  9 10  1  0  0  0  0
  9 29  1  0  0  0  0
  9 39  1  0  0  0  0
 10 11  1  0  0  0  0
 10 30  1  0  0  0  0
 10 31  1  0  0  0  0
 11 12  2  0  0  0  0
 11 13  1  0  0  0  0
 13 19  1  0  0  0  0
 13 14  1  0  0  0  0
 14 15  1  0  0  0  0
 14 32  1  0  0  0  0
 14 33  1  0  0  0  0
 15 16  1  0  0  0  0
 15 34  1  0  0  0  0
 15 35  1  0  0  0  0
 16 17  1  0  0  0  0
 16 36  1  0  0  0  0
 17 18  2  0  0  0  0
 17 19  1  0  0  0  0
 19 37  1  0  0  0  0
 19 38  1  0  0  0  0
M  CHG  1   9   1
M  END
> <s_m_source_file>
AV-unprocessed.smi

> <i_m_source_file_index>
775

> <i_lp_mmshare_version>
43012

> <i_f3d_flags>
0

> <s_epik_input>
bjFbY0hdW2NIXVtjSF1uMVtDSDJdW0NAQEhdKFtDSDNdKVtOSF1bQ0gyXUMoPU8pTjJbQ0gyXVtDSDJdW05IXUMoPU8pW0NIMl0y

> <s_epik_cmdline>
J2VwaWtfcHl0aG9uJywgJy1waCcsICc3LjAnLCAnLXRuJywgJzgnLCAnLW1hJywgJzIwMCcsICctbWV0YWxfYmluZGluZycsICctaW1hZScsICc8aW5maWxlLm1hZT4nLCAnLW9tYWUnLCAnPG91dGZpbGUubWFlPic=

> <r_lp_tautomer_probability>
1

> <r_epik_Ionization_Penalty>
0.165651

> <r_epik_Ionization_Penalty_Charging>
0.165647

> <r_epik_Ionization_Penalty_Neutral>
3.4358e-06

> <r_epik_State_Penalty>
0.15499

> <r_epik_Charging_Adjusted_Penalty>
0.320637

> <i_epik_Tot_Q>
1

> <i_epik_Tot_abs_Q>
1

> <r_epik_Metal_State_Penalty>
0.155003

> <b_epik_Metal_Only>
0

> <s_lp_Force_Field>
OPLS_2005

> <r_lp_Energy>
22.1436

> <b_lp_Chiralities_Consistent>
1

> <s_lp_Variant>
AV-unprocessed.smi:775-2

> <Gold.Version>
5.8.1

> <Gold.Id.Protein>
6NUR|6NUR_protein|mol2

> <Gold.PLP.Fitness>
54.4779

> <Gold.PLP.PLP>
-44.2122

> <Gold.PLP.part.hbond>
-3.9343

> <Gold.PLP.part.metal>
0.0000

> <Gold.PLP.part.buried>
-4.5544

> <Gold.PLP.part.nonpolar>
-36.8319

> <Gold.PLP.part.repulsive>
0.3243

> <Gold.PLP.ligand.clash>
0.0000

> <Gold.PLP.ligand.torsion>
0.6009

> <Gold.PLP.Chemscore.Hbond>
3.8125

> <Gold.PLP.Chemscore.CHOScore>
0.0000

> <Gold.PLP.Chemscore.Metal>
0.0000

> <Gold.Chemscore.Hbonds>
donor molecule, donor type, donor heavy atom, donor atom, acceptor molecule, acceptor atom, score
      L1  H     9    29       P1  8028  2.00
      P1  H  7997  8010       L1    12  0.90
      P1  H 10752 10764       L1    18  1.00

> <Gold.PLP.Chemscore.Internal.Correction>
0.0301

> <Gold.Rescore>
     Score         DG    S(hbond)    S(metal)    S(lipo)     H(rot)  DE(clash)    DE(int)     intcor
     15.74     -18.96       2.59        0.00      89.14       2.18       0.01       3.22       ----

> <Gold.Chemscore.Fitness>
15.7360

> <Gold.Chemscore.DG>
-18.9634

> <Gold.Chemscore.ZeroCoef>
-5.4800

> <Gold.Chemscore.Hbond>
2.5876

> <Gold.Chemscore.Metal>
0.0000

> <Gold.Chemscore.Lipo>
89.1360

> <Gold.Chemscore.Internal_Hbond>
0.0000

> <Gold.Chemscore.DEClash>
0.0111

> <Gold.Chemscore.DEInternal>
3.2162

> <Gold.Chemscore.Rot>
2.1828

> <Gold.Chemscore.Internal.Correction>
   9.000000E+99

> <Gold.Chemscore.Hbonds>
donor molecule, donor type, donor heavy atom, donor atom, acceptor molecule, acceptor atom, score
      L1  H     9    29       P1  8028  0.97
      P1  H  7997  8010       L1    12  0.83
      P1  H 10752 10764       L1    18  1.00

> <Gold.Chemscore.Hbond.Weighted>
-8.6425

> <Gold.Chemscore.Metal.Weighted>
-0.0000

> <Gold.Chemscore.Lipo.Weighted>
-10.4289

> <Gold.Chemscore.Internal_Hbond.Weighted>
0.0000

> <Gold.Chemscore.DEClash.Weighted>
0.0111

> <Gold.Chemscore.DEInternal.Weighted>
3.2162

> <Gold.Chemscore.Rot.Weighted>
5.5880

> <Gold.Chemscore.Internal.Correction.Weighted>
   9.000000E+99

> <Gold.Protein.RotatedTorsions>
[ 6907 6896 6895 6894 ] final   33.99 input  -60.11 | X-H torsion
[ 7974 7965 7964 7962 ] final  122.75 input  175.53 | X-H torsion
[ 8008 7997 7996 7995 ] final   62.59 input   59.86 | X-H torsion
[ 10167 10162 10161 10158 ] final   16.60 input  -65.29 | X-H torsion
[ 10718 10713 10712 10709 ] final  156.11 input   66.30 | X-H torsion
[ 10763 10752 10751 10750 ] final  -65.93 input  -60.55 | X-H torsion
[ 11005 11000 10999 10996 ] final  -97.89 input  -57.11 | X-H torsion

> <Gold.Protein.ActiveResidues>
 VAL166  LYS551  ARG553  GLY616  TRP617  ASP618  TYR619  PRO620  LYS621  CYS622 
 ASP623  PHE694  ASN695  SER759  ASP760  ASP761  ALA762  ILE779  LEU786  VAL792 
 PHE793  MET794  SER795  GLU796  ALA797  LYS798  CYS799  TRP800  GLU811  SER814 

> <Gold.Protein.RotatedAtoms>
  152.0961  134.9374  160.0570 H   0  0  0  0  0  0  0  0  0  0  0  0  # atno 6907 bound_to 6896
  152.0606  133.4055  159.4424 H   0  0  0  0  0  0  0  0  0  0  0  0  # atno 6908 bound_to 6896
  150.6838  134.3125  159.4796 H   0  0  0  0  0  0  0  0  0  0  0  0  # atno 6909 bound_to 6896
  145.1039  139.3499  143.4798 H   0  0  0  0  0  0  0  0  0  0  0  0  # atno 7974 bound_to 7965
  155.6167  140.3495  155.4639 H   0  0  0  0  0  0  0  0  0  0  0  0  # atno 8008 bound_to 7997
  156.0111  140.1233  157.0476 H   0  0  0  0  0  0  0  0  0  0  0  0  # atno 8009 bound_to 7997
  154.4281  140.1081  156.5817 H   0  0  0  0  0  0  0  0  0  0  0  0  # atno 8010 bound_to 7997
  140.5785  143.9026  150.6770 H   0  0  0  0  0  0  0  0  0  0  0  0  # atno 10167 bound_to 10162
  157.2093  131.0694  151.1979 H   0  0  0  0  0  0  0  0  0  0  0  0  # atno 10718 bound_to 10713
  154.3523  135.6134  153.5649 H   0  0  0  0  0  0  0  0  0  0  0  0  # atno 10763 bound_to 10752
  152.9797  135.5795  154.4729 H   0  0  0  0  0  0  0  0  0  0  0  0  # atno 10764 bound_to 10752
  154.4452  135.2851  155.1797 H   0  0  0  0  0  0  0  0  0  0  0  0  # atno 10765 bound_to 10752
  141.1363  133.8204  157.0766 H   0  0  0  0  0  0  0  0  0  0  0  0  # atno 11005 bound_to 11000
  146.3529  140.0929  142.8611 LP  0  0  0  0  0  0  0  0  0  0  0  0  # atno 17320 bound_to 7965
  145.0924  140.9293  143.4761 LP  0  0  0  0  0  0  0  0  0  0  0  0  # atno 17321 bound_to 7965
  140.2519  143.3587  152.1398 LP  0  0  0  0  0  0  0  0  0  0  0  0  # atno 17342 bound_to 10162
  139.5156  144.6966  151.5614 LP  0  0  0  0  0  0  0  0  0  0  0  0  # atno 17343 bound_to 10162
  157.3688  130.7170  149.6551 LP  0  0  0  0  0  0  0  0  0  0  0  0  # atno 17370 bound_to 10713
  155.9692  130.4204  150.4424 LP  0  0  0  0  0  0  0  0  0  0  0  0  # atno 17371 bound_to 10713
  140.0477  134.9821  157.1080 LP  0  0  0  0  0  0  0  0  0  0  0  0  # atno 17394 bound_to 11000
  140.4037  134.2055  155.7163 LP  0  0  0  0  0  0  0  0  0  0  0  0  # atno 17395 bound_to 11000

$$$$
