AV-unprocessed.smi:1543|AV-procd|sdf|6206|dock4
  -GOLD-   22720 6373D 1   1.00000     0.00000
 Structure written by MMmdl.
 48 49  0  0  0  0  0  0  0  0  1 V2000
  152.0880  137.9387  155.0105 C   0  0  0  0  0  0  0  0  0  0  0  0
  151.4044  139.3082  154.9406 C   0  0  1  0  0  0  0  0  0  0  0  0
  149.9024  139.1933  154.6210 C   0  0  0  0  0  0  0  0  0  0  0  0
  149.2372  140.5006  154.6184 N   0  0  0  0  0  0  0  0  0  0  0  0
  147.8097  140.4766  154.1901 C   0  0  0  0  0  0  0  0  0  0  0  0
  146.8622  139.9066  155.2734 C   0  0  0  0  0  0  0  0  0  0  0  0
  147.3069  141.9030  153.8503 C   0  0  0  0  0  0  0  0  0  0  0  0
  147.6059  139.6176  152.9068 C   0  0  0  0  0  0  0  0  0  0  0  0
  146.1995  139.3153  152.6406 N   0  0  0  0  0  0  0  0  0  0  0  0
  145.5643  138.1809  152.9662 C   0  0  0  0  0  0  0  0  0  0  0  0
  146.1070  137.2363  153.5385 O   0  0  0  0  0  0  0  0  0  0  0  0
  144.2707  138.2337  152.6049 N   0  0  0  0  0  0  0  0  0  0  0  0
  143.2631  137.2423  152.7534 C   0  0  0  0  0  0  0  0  0  0  0  0
  143.4922  135.8471  152.6679 C   0  0  0  0  0  0  0  0  0  0  0  0
  142.4009  134.9693  152.8151 C   0  0  0  0  0  0  0  0  0  0  0  0
  141.1219  135.5161  153.0357 C   0  0  0  0  0  0  0  0  0  0  0  0
  140.8870  136.8431  153.1078 N   0  0  0  0  0  0  0  0  0  0  0  0
  141.9379  137.6787  152.9652 C   0  0  0  0  0  0  0  0  0  0  0  0
  149.4833  141.1509  155.9103 C   0  0  0  0  0  0  0  0  0  0  0  0
  150.9857  141.2545  156.2346 C   0  0  1  0  0  0  0  0  0  0  0  0
  151.2379  141.8549  157.6218 C   0  0  0  0  0  0  0  0  0  0  0  0
  151.5643  139.9542  156.1988 O   0  0  0  0  0  0  0  0  0  0  0  0
  152.0036  137.4097  154.0610 H   0  0  0  0  0  0  0  0  0  0  0  0
  151.6406  137.3133  155.7834 H   0  0  0  0  0  0  0  0  0  0  0  0
  153.1488  138.0441  155.2391 H   0  0  0  0  0  0  0  0  0  0  0  0
  151.8967  139.9048  154.1706 H   0  0  0  0  0  0  0  0  0  0  0  0
  149.8068  138.7076  153.6518 H   0  0  0  0  0  0  0  0  0  0  0  0
  149.4336  138.5347  155.3525 H   0  0  0  0  0  0  0  0  0  0  0  0
  145.8278  139.9097  154.9278 H   0  0  0  0  0  0  0  0  0  0  0  0
  146.8857  140.4916  156.1925 H   0  0  0  0  0  0  0  0  0  0  0  0
  147.1034  138.8754  155.5304 H   0  0  0  0  0  0  0  0  0  0  0  0
  146.3298  141.8782  153.3666 H   0  0  0  0  0  0  0  0  0  0  0  0
  147.9895  142.4215  153.1761 H   0  0  0  0  0  0  0  0  0  0  0  0
  147.1891  142.5231  154.7387 H   0  0  0  0  0  0  0  0  0  0  0  0
  148.0059  140.1263  152.0301 H   0  0  0  0  0  0  0  0  0  0  0  0
  148.1899  138.6977  152.9722 H   0  0  0  0  0  0  0  0  0  0  0  0
  145.6652  140.0405  152.1852 H   0  0  0  0  0  0  0  0  0  0  0  0
  143.9570  139.1108  152.2159 H   0  0  0  0  0  0  0  0  0  0  0  0
  144.4706  135.4334  152.4804 H   0  0  0  0  0  0  0  0  0  0  0  0
  142.5405  133.9001  152.7562 H   0  0  0  0  0  0  0  0  0  0  0  0
  140.2639  134.8706  153.1517 H   0  0  0  0  0  0  0  0  0  0  0  0
  141.7116  138.7334  153.0264 H   0  0  0  0  0  0  0  0  0  0  0  0
  149.0729  142.1592  155.9202 H   0  0  0  0  0  0  0  0  0  0  0  0
  148.9867  140.5990  156.7087 H   0  0  0  0  0  0  0  0  0  0  0  0
  151.4773  141.8807  155.4881 H   0  0  0  0  0  0  0  0  0  0  0  0
  150.8229  142.8603  157.6960 H   0  0  0  0  0  0  0  0  0  0  0  0
  152.3062  141.9202  157.8293 H   0  0  0  0  0  0  0  0  0  0  0  0
  150.7831  141.2463  158.4041 H   0  0  0  0  0  0  0  0  0  0  0  0
  1  2  1  0  0  0  0
  1 23  1  0  0  0  0
  1 24  1  0  0  0  0
  1 25  1  0  0  0  0
  2 22  1  0  0  0  0
  2  3  1  0  0  0  0
  2 26  1  0  0  0  0
  3  4  1  0  0  0  0
  3 27  1  0  0  0  0
  3 28  1  0  0  0  0
  4  5  1  0  0  0  0
  4 19  1  0  0  0  0
  5  6  1  0  0  0  0
  5  7  1  0  0  0  0
  5  8  1  0  0  0  0
  6 29  1  0  0  0  0
  6 30  1  0  0  0  0
  6 31  1  0  0  0  0
  7 32  1  0  0  0  0
  7 33  1  0  0  0  0
  7 34  1  0  0  0  0
  8  9  1  0  0  0  0
  8 35  1  0  0  0  0
  8 36  1  0  0  0  0
  9 10  1  0  0  0  0
  9 37  1  0  0  0  0
 10 11  2  0  0  0  0
 10 12  1  0  0  0  0
 12 13  1  0  0  0  0
 12 38  1  0  0  0  0
 13 18  1  0  0  0  0
 13 14  2  0  0  0  0
 14 15  1  0  0  0  0
 14 39  1  0  0  0  0
 15 16  2  0  0  0  0
 15 40  1  0  0  0  0
 16 17  1  0  0  0  0
 16 41  1  0  0  0  0
 17 18  2  0  0  0  0
 18 42  1  0  0  0  0
 19 20  1  0  0  0  0
 19 43  1  0  0  0  0
 19 44  1  0  0  0  0
 20 21  1  0  0  0  0
 20 22  1  0  0  0  0
 20 45  1  0  0  0  0
 21 46  1  0  0  0  0
 21 47  1  0  0  0  0
 21 48  1  0  0  0  0
M  END
> <s_m_source_file>
AV-unprocessed.smi

> <i_m_source_file_index>
1543

> <i_lp_mmshare_version>
43012

> <i_f3d_flags>
0

> <s_epik_input>
W0NIM11bQ0BASF0xW0NIMl1OKFtDSDJdW0NASF0oTzEpW0NIM10pQyhbQ0gzXSkoW0NIM10pW0NIMl1bTkhdQyg9TylbTkhdYzJbY0hdW2NIXVtjSF1uW2NIXTI=

> <s_epik_cmdline>
J2VwaWtfcHl0aG9uJywgJy1waCcsICc3LjAnLCAnLXRuJywgJzgnLCAnLW1hJywgJzIwMCcsICctbWV0YWxfYmluZGluZycsICctaW1hZScsICc8aW5maWxlLm1hZT4nLCAnLW9tYWUnLCAnPG91dGZpbGUubWFlPic=

> <r_epik_Ionization_Penalty>
0.270794

> <r_epik_Ionization_Penalty_Charging>
0

> <r_epik_Ionization_Penalty_Neutral>
0.270794

> <r_epik_State_Penalty>
0.268291

> <r_epik_Charging_Adjusted_Penalty>
0.268291

> <i_epik_Tot_Q>
0

> <i_epik_Tot_abs_Q>
0

> <r_epik_Metal_State_Penalty>
0.264827

> <b_epik_Metal_Only>
0

> <s_lp_Force_Field>
OPLS_2005

> <r_lp_Energy>
43.3582

> <b_lp_Chiralities_Consistent>
1

> <s_lp_Variant>
AV-unprocessed.smi:1543-2

> <Gold.Version>
5.8.1

> <Gold.Id.Protein>
6NUR|6NUR_protein|mol2

> <Gold.PLP.Fitness>
41.1735

> <Gold.PLP.PLP>
-36.6569

> <Gold.PLP.part.hbond>
-2.7937

> <Gold.PLP.part.metal>
0.0000

> <Gold.PLP.part.buried>
-2.2971

> <Gold.PLP.part.nonpolar>
-32.2125

> <Gold.PLP.part.repulsive>
0.4118

> <Gold.PLP.ligand.clash>
0.0000

> <Gold.PLP.ligand.torsion>
0.7484

> <Gold.PLP.Chemscore.Hbond>
1.6552

> <Gold.PLP.Chemscore.CHOScore>
0.3273

> <Gold.PLP.Chemscore.Metal>
0.0000

> <Gold.Chemscore.Hbonds>
donor molecule, donor type, donor heavy atom, donor atom, acceptor molecule, acceptor atom, score
      L1  H     9    37       P1 10175  0.55
      L1  H    12    38       P1 10175  0.59
      L1  C    16    41       P1 10187  0.22
      L1  C    18    42       P1 10175  0.64

> <Gold.PLP.Chemscore.Internal.Correction>
0.0659

> <Gold.Rescore>
     Score         DG    S(hbond)    S(metal)    S(lipo)     H(rot)  DE(clash)    DE(int)     intcor
     17.79     -18.56       1.96        0.00      87.03       1.43       0.15       0.62       ----

> <Gold.Chemscore.Fitness>
17.7872

> <Gold.Chemscore.DG>
-18.5559

> <Gold.Chemscore.ZeroCoef>
-5.4800

> <Gold.Chemscore.Hbond>
1.9618

> <Gold.Chemscore.Metal>
0.0000

> <Gold.Chemscore.Lipo>
87.0274

> <Gold.Chemscore.Internal_Hbond>
0.0000

> <Gold.Chemscore.DEClash>
0.1464

> <Gold.Chemscore.DEInternal>
0.6223

> <Gold.Chemscore.Rot>
1.4291

> <Gold.Chemscore.Internal.Correction>
   9.000000E+99

> <Gold.Chemscore.Hbonds>
donor molecule, donor type, donor heavy atom, donor atom, acceptor molecule, acceptor atom, score
      L1  H     9    37       P1 10175  0.36
      L1  H    12    38       P1 10175  0.58

> <Gold.Chemscore.Hbond.Weighted>
-6.5523

> <Gold.Chemscore.Metal.Weighted>
-0.0000

> <Gold.Chemscore.Lipo.Weighted>
-10.1822

> <Gold.Chemscore.Internal_Hbond.Weighted>
0.0000

> <Gold.Chemscore.DEClash.Weighted>
0.1464

> <Gold.Chemscore.DEInternal.Weighted>
0.6223

> <Gold.Chemscore.Rot.Weighted>
3.6586

> <Gold.Chemscore.Internal.Correction.Weighted>
   9.000000E+99

> <Gold.Protein.RotatedTorsions>
[ 6907 6896 6895 6894 ] final  -32.37 input  -60.11 | X-H torsion
[ 7974 7965 7964 7962 ] final -105.79 input  175.53 | X-H torsion
[ 8008 7997 7996 7995 ] final -179.25 input   59.86 | X-H torsion
[ 10167 10162 10161 10158 ] final    4.34 input  -65.29 | X-H torsion
[ 10718 10713 10712 10709 ] final -140.28 input   66.30 | X-H torsion
[ 10763 10752 10751 10750 ] final   87.60 input  -60.55 | X-H torsion
[ 11005 11000 10999 10996 ] final  157.43 input  -57.11 | X-H torsion

> <Gold.Protein.ActiveResidues>
 VAL166  LYS551  ARG553  GLY616  TRP617  ASP618  TYR619  PRO620  LYS621  CYS622 
 ASP623  PHE694  ASN695  SER759  ASP760  ASP761  ALA762  ILE779  LEU786  VAL792 
 PHE793  MET794  SER795  GLU796  ALA797  LYS798  CYS799  TRP800  GLU811  SER814 

> <Gold.Protein.RotatedAtoms>
  151.0797  134.9850  159.8349 H   0  0  0  0  0  0  0  0  0  0  0  0  # atno 6907 bound_to 6896
  152.5418  134.2197  159.8792 H   0  0  0  0  0  0  0  0  0  0  0  0  # atno 6908 bound_to 6896
  151.2226  133.4450  159.2634 H   0  0  0  0  0  0  0  0  0  0  0  0  # atno 6909 bound_to 6896
  145.2260  140.9152  143.3232 H   0  0  0  0  0  0  0  0  0  0  0  0  # atno 7974 bound_to 7965
  156.0283  140.1276  157.0285 H   0  0  0  0  0  0  0  0  0  0  0  0  # atno 8008 bound_to 7997
  154.4339  140.1054  156.6133 H   0  0  0  0  0  0  0  0  0  0  0  0  # atno 8009 bound_to 7997
  155.5844  140.3468  155.4551 H   0  0  0  0  0  0  0  0  0  0  0  0  # atno 8010 bound_to 7997
  140.6540  143.7474  150.7622 H   0  0  0  0  0  0  0  0  0  0  0  0  # atno 10167 bound_to 10162
  156.3204  130.7531  151.1628 H   0  0  0  0  0  0  0  0  0  0  0  0  # atno 10718 bound_to 10713
  153.1685  135.4537  154.9869 H   0  0  0  0  0  0  0  0  0  0  0  0  # atno 10763 bound_to 10752
  154.7949  135.3234  154.7693 H   0  0  0  0  0  0  0  0  0  0  0  0  # atno 10764 bound_to 10752
  153.8173  135.6950  153.4887 H   0  0  0  0  0  0  0  0  0  0  0  0  # atno 10765 bound_to 10752
  140.1769  134.8503  157.2757 H   0  0  0  0  0  0  0  0  0  0  0  0  # atno 11005 bound_to 11000
  144.9721  139.3869  143.6304 LP  0  0  0  0  0  0  0  0  0  0  0  0  # atno 17320 bound_to 7965
  146.3365  139.8823  142.8822 LP  0  0  0  0  0  0  0  0  0  0  0  0  # atno 17321 bound_to 7965
  140.1130  143.4681  152.2358 LP  0  0  0  0  0  0  0  0  0  0  0  0  # atno 17342 bound_to 10162
  139.5759  144.7487  151.3766 LP  0  0  0  0  0  0  0  0  0  0  0  0  # atno 17343 bound_to 10162
  157.7410  131.0509  150.5123 LP  0  0  0  0  0  0  0  0  0  0  0  0  # atno 17370 bound_to 10713
  156.5275  130.4177  149.6218 LP  0  0  0  0  0  0  0  0  0  0  0  0  # atno 17371 bound_to 10713
  140.2312  134.3907  155.7521 LP  0  0  0  0  0  0  0  0  0  0  0  0  # atno 17394 bound_to 11000
  141.2221  133.7216  156.8643 LP  0  0  0  0  0  0  0  0  0  0  0  0  # atno 17395 bound_to 11000

$$$$
