AV-unprocessed.smi:2862|AV-procd|sdf|11008|dock6
  -GOLD-   2272015463D 1   1.00000     0.00000
 Structure written by MMmdl.
 52 54  0  0  0  0  0  0  0  0  1 V2000
  145.8050  134.0220  153.8563 C   0  0  0  0  0  0  0  0  0  0  0  0
  147.0000  134.7914  154.4446 C   0  0  2  0  0  0  0  0  0  0  0  0
  147.2116  136.0204  153.6846 N   0  0  0  0  0  0  0  0  0  0  0  0
  146.7282  137.2331  154.0105 C   0  0  0  0  0  0  0  0  0  0  0  0
  146.0843  137.4375  155.0391 O   0  0  0  0  0  0  0  0  0  0  0  0
  146.9750  138.4064  153.0465 C   0  0  0  0  0  0  0  0  0  0  0  0
  147.6847  139.5569  153.6342 N   0  0  0  0  0  0  0  0  0  0  0  0
  147.1017  140.8262  153.4398 C   0  0  0  0  0  0  0  0  0  0  0  0
  147.6518  141.9490  153.9283 C   0  0  0  0  0  0  0  0  0  0  0  0
  148.8818  141.8400  154.6737 C   0  0  0  0  0  0  0  0  0  0  0  0
  149.4597  140.6327  154.8419 C   0  0  0  0  0  0  0  0  0  0  0  0
  150.6856  140.4927  155.6257 C   0  0  0  0  0  0  0  0  0  0  0  0
  151.7506  140.1715  155.0950 O   0  0  0  0  0  0  0  0  0  0  0  0
  150.5923  140.7031  156.9709 N   0  0  0  0  0  0  0  0  0  0  0  0
  149.2623  140.9839  157.5310 C   0  0  0  0  0  0  0  0  0  0  0  0
  151.7159  140.8282  157.9293 C   0  0  2  0  0  0  0  0  0  0  0  0
  151.8805  139.5460  158.7670 C   0  0  0  0  0  0  0  0  0  0  0  0
  151.6565  142.0797  158.7919 C   0  0  0  0  0  0  0  0  0  0  0  0
  152.2890  143.3706  158.3309 C   0  0  0  0  0  0  0  0  0  0  0  0
  152.8880  142.6064  159.4901 C   0  0  0  0  0  0  0  0  0  0  0  0
  148.8503  139.3838  154.3318 C   0  0  0  0  0  0  0  0  0  0  0  0
  149.3305  138.2612  154.5081 O   0  0  0  0  0  0  0  0  0  0  0  0
  148.2319  133.9064  154.4911 C   0  0  0  0  0  0  0  0  0  0  0  0
  148.7878  133.2993  153.2239 C   0  0  0  0  0  0  0  0  0  0  0  0
  148.1418  132.4157  154.2639 C   0  0  0  0  0  0  0  0  0  0  0  0
  145.6012  133.1165  154.4283 H   0  0  0  0  0  0  0  0  0  0  0  0
  145.9935  133.7264  152.8235 H   0  0  0  0  0  0  0  0  0  0  0  0
  144.8960  134.6239  153.8693 H   0  0  0  0  0  0  0  0  0  0  0  0
  146.7554  135.0590  155.4743 H   0  0  0  0  0  0  0  0  0  0  0  0
  147.7329  135.9363  152.8238 H   0  0  0  0  0  0  0  0  0  0  0  0
  147.5451  138.0239  152.1985 H   0  0  0  0  0  0  0  0  0  0  0  0
  146.0185  138.7104  152.6179 H   0  0  0  0  0  0  0  0  0  0  0  0
  146.1855  140.8255  152.8670 H   0  0  0  0  0  0  0  0  0  0  0  0
  147.1875  142.9104  153.7641 H   0  0  0  0  0  0  0  0  0  0  0  0
  149.3351  142.7296  155.0877 H   0  0  0  0  0  0  0  0  0  0  0  0
  148.8167  141.8571  157.0516 H   0  0  0  0  0  0  0  0  0  0  0  0
  149.2777  141.1883  158.6006 H   0  0  0  0  0  0  0  0  0  0  0  0
  148.5972  140.1334  157.3756 H   0  0  0  0  0  0  0  0  0  0  0  0
  152.6597  140.9179  157.3962 H   0  0  0  0  0  0  0  0  0  0  0  0
  152.7835  139.5923  159.3730 H   0  0  0  0  0  0  0  0  0  0  0  0
  151.9619  138.6633  158.1336 H   0  0  0  0  0  0  0  0  0  0  0  0
  151.0476  139.3862  159.4506 H   0  0  0  0  0  0  0  0  0  0  0  0
  150.7290  142.1858  159.3510 H   0  0  0  0  0  0  0  0  0  0  0  0
  152.8327  143.3601  157.3883 H   0  0  0  0  0  0  0  0  0  0  0  0
  151.7614  144.2956  158.5548 H   0  0  0  0  0  0  0  0  0  0  0  0
  152.7611  143.0223  160.4874 H   0  0  0  0  0  0  0  0  0  0  0  0
  153.8340  142.0995  159.3135 H   0  0  0  0  0  0  0  0  0  0  0  0
  148.9764  134.2354  155.2139 H   0  0  0  0  0  0  0  0  0  0  0  0
  148.2409  133.4635  152.2975 H   0  0  0  0  0  0  0  0  0  0  0  0
  149.8702  133.2504  153.1242 H   0  0  0  0  0  0  0  0  0  0  0  0
  148.8022  131.7723  154.8405 H   0  0  0  0  0  0  0  0  0  0  0  0
  147.1655  131.9947  154.0317 H   0  0  0  0  0  0  0  0  0  0  0  0
  1  2  1  0  0  0  0
  1 26  1  0  0  0  0
  1 27  1  0  0  0  0
  1 28  1  0  0  0  0
  2  3  1  0  0  0  0
  2 23  1  0  0  0  0
  2 29  1  0  0  0  0
  3  4  1  0  0  0  0
  3 30  1  0  0  0  0
  4  5  2  0  0  0  0
  4  6  1  0  0  0  0
  6  7  1  0  0  0  0
  6 31  1  0  0  0  0
  6 32  1  0  0  0  0
  7 21  1  0  0  0  0
  7  8  1  0  0  0  0
  8  9  2  0  0  0  0
  8 33  1  0  0  0  0
  9 10  1  0  0  0  0
  9 34  1  0  0  0  0
 10 11  2  0  0  0  0
 10 35  1  0  0  0  0
 11 12  1  0  0  0  0
 11 21  1  0  0  0  0
 12 13  2  0  0  0  0
 12 14  1  0  0  0  0
 14 15  1  0  0  0  0
 14 16  1  0  0  0  0
 15 36  1  0  0  0  0
 15 37  1  0  0  0  0
 15 38  1  0  0  0  0
 16 17  1  0  0  0  0
 16 18  1  0  0  0  0
 16 39  1  0  0  0  0
 17 40  1  0  0  0  0
 17 41  1  0  0  0  0
 17 42  1  0  0  0  0
 18 20  1  0  0  0  0
 18 19  1  0  0  0  0
 18 43  1  0  0  0  0
 19 20  1  0  0  0  0
 19 44  1  0  0  0  0
 19 45  1  0  0  0  0
 20 46  1  0  0  0  0
 20 47  1  0  0  0  0
 21 22  2  0  0  0  0
 23 25  1  0  0  0  0
 23 24  1  0  0  0  0
 23 48  1  0  0  0  0
 24 25  1  0  0  0  0
 24 49  1  0  0  0  0
 24 50  1  0  0  0  0
 25 51  1  0  0  0  0
 25 52  1  0  0  0  0
M  END
> <s_m_source_file>
AV-unprocessed.smi

> <i_m_source_file_index>
2862

> <i_lp_mmshare_version>
43012

> <i_f3d_flags>
0

> <s_epik_input>
W0NIMl0xW0NIMl1bQ0hdMVtDQEhdKFtDSDNdKVtOSF1DKD1PKVtDSDJdbjJbY0hdW2NIXVtjSF1jKGMyPU8pQyg9TylOKFtDSDNdKVtDQEhdKFtDSDNdKVtDSF0zW0NIMl1bQ0gyXTM=

> <s_epik_cmdline>
J2VwaWtfcHl0aG9uJywgJy1waCcsICc3LjAnLCAnLXRuJywgJzgnLCAnLW1hJywgJzIwMCcsICctbWV0YWxfYmluZGluZycsICctaW1hZScsICc8aW5maWxlLm1hZT4nLCAnLW9tYWUnLCAnPG91dGZpbGUubWFlPic=

> <r_lp_tautomer_probability>
1

> <r_epik_Ionization_Penalty>
4.00841e-08

> <r_epik_Ionization_Penalty_Charging>
2.07773e-08

> <r_epik_Ionization_Penalty_Neutral>
1.93069e-08

> <r_epik_State_Penalty>
-0

> <r_epik_Charging_Adjusted_Penalty>
2.07773e-08

> <i_epik_Tot_Q>
0

> <i_epik_Tot_abs_Q>
0

> <r_epik_Metal_State_Penalty>
-0

> <b_epik_Metal_Only>
0

> <s_lp_Force_Field>
OPLS_2005

> <r_lp_Energy>
63.2381

> <b_lp_Chiralities_Consistent>
1

> <s_lp_Variant>
AV-unprocessed.smi:2862-1

> <Gold.Version>
5.8.1

> <Gold.Id.Protein>
6NUR|6NUR_protein|mol2

> <Gold.PLP.Fitness>
48.7477

> <Gold.PLP.PLP>
-43.0763

> <Gold.PLP.part.hbond>
-1.8811

> <Gold.PLP.part.metal>
0.0000

> <Gold.PLP.part.buried>
-0.9897

> <Gold.PLP.part.nonpolar>
-39.2064

> <Gold.PLP.part.repulsive>
0.2751

> <Gold.PLP.ligand.clash>
1.1158

> <Gold.PLP.ligand.torsion>
3.3581

> <Gold.PLP.Chemscore.Hbond>
1.9120

> <Gold.PLP.Chemscore.CHOScore>
1.0000

> <Gold.PLP.Chemscore.Metal>
0.0000

> <Gold.Chemscore.Hbonds>
donor molecule, donor type, donor heavy atom, donor atom, acceptor molecule, acceptor atom, score
      L1  H     3    30       P1  7948  1.00
      P1  H  7989  7998       L1    13  0.91
      L1  C     8    33       P1 10175  0.96

> <Gold.PLP.Chemscore.Internal.Correction>
4.7674

> <Gold.Rescore>
     Score         DG    S(hbond)    S(metal)    S(lipo)     H(rot)  DE(clash)    DE(int)     intcor
     13.09     -18.80       1.81        0.00     100.09       1.73       0.46       5.24       ----

> <Gold.Chemscore.Fitness>
13.0919

> <Gold.Chemscore.DG>
-18.7981

> <Gold.Chemscore.ZeroCoef>
-5.4800

> <Gold.Chemscore.Hbond>
1.8111

> <Gold.Chemscore.Metal>
0.0000

> <Gold.Chemscore.Lipo>
100.0883

> <Gold.Chemscore.Internal_Hbond>
0.0000

> <Gold.Chemscore.DEClash>
0.4620

> <Gold.Chemscore.DEInternal>
5.2442

> <Gold.Chemscore.Rot>
1.7348

> <Gold.Chemscore.Internal.Correction>
   9.000000E+99

> <Gold.Chemscore.Hbonds>
donor molecule, donor type, donor heavy atom, donor atom, acceptor molecule, acceptor atom, score
      L1  H     3    30       P1  7948  0.95
      P1  H  7989  7998       L1    13  0.40

> <Gold.Chemscore.Hbond.Weighted>
-6.0490

> <Gold.Chemscore.Metal.Weighted>
-0.0000

> <Gold.Chemscore.Lipo.Weighted>
-11.7103

> <Gold.Chemscore.Internal_Hbond.Weighted>
0.0000

> <Gold.Chemscore.DEClash.Weighted>
0.4620

> <Gold.Chemscore.DEInternal.Weighted>
5.2442

> <Gold.Chemscore.Rot.Weighted>
4.4412

> <Gold.Chemscore.Internal.Correction.Weighted>
   9.000000E+99

> <Gold.Protein.RotatedTorsions>
[ 6907 6896 6895 6894 ] final  -87.38 input  -60.11 | X-H torsion
[ 7974 7965 7964 7962 ] final  153.80 input  175.53 | X-H torsion
[ 8008 7997 7996 7995 ] final  -93.97 input   59.86 | X-H torsion
[ 10167 10162 10161 10158 ] final -163.27 input  -65.29 | X-H torsion
[ 10718 10713 10712 10709 ] final   45.96 input   66.30 | X-H torsion
[ 10763 10752 10751 10750 ] final -169.57 input  -60.55 | X-H torsion
[ 11005 11000 10999 10996 ] final  -93.40 input  -57.11 | X-H torsion

> <Gold.Protein.ActiveResidues>
 VAL166  LYS551  ARG553  GLY616  TRP617  ASP618  TYR619  PRO620  LYS621  CYS622 
 ASP623  PHE694  ASN695  SER759  ASP760  ASP761  ALA762  ILE779  LEU786  VAL792 
 PHE793  MET794  SER795  GLU796  ALA797  LYS798  CYS799  TRP800  GLU811  SER814 

> <Gold.Protein.RotatedAtoms>
  150.6866  134.2905  159.4664 H   0  0  0  0  0  0  0  0  0  0  0  0  # atno 6907 bound_to 6896
  152.0811  134.9468  160.0582 H   0  0  0  0  0  0  0  0  0  0  0  0  # atno 6908 bound_to 6896
  152.0820  133.4123  159.4542 H   0  0  0  0  0  0  0  0  0  0  0  0  # atno 6909 bound_to 6896
  144.8130  139.6848  143.6133 H   0  0  0  0  0  0  0  0  0  0  0  0  # atno 7974 bound_to 7965
  154.7424  140.0494  157.0822 H   0  0  0  0  0  0  0  0  0  0  0  0  # atno 8008 bound_to 7997
  155.0162  140.3141  155.4791 H   0  0  0  0  0  0  0  0  0  0  0  0  # atno 8009 bound_to 7997
  156.2867  140.2175  156.5278 H   0  0  0  0  0  0  0  0  0  0  0  0  # atno 8010 bound_to 7997
  139.6332  144.0399  152.2033 H   0  0  0  0  0  0  0  0  0  0  0  0  # atno 10167 bound_to 10162
  157.4431  130.8093  149.7714 H   0  0  0  0  0  0  0  0  0  0  0  0  # atno 10718 bound_to 10713
  154.6508  135.2911  154.9989 H   0  0  0  0  0  0  0  0  0  0  0  0  # atno 10763 bound_to 10752
  154.1082  135.6566  153.4884 H   0  0  0  0  0  0  0  0  0  0  0  0  # atno 10764 bound_to 10752
  153.0375  135.5259  154.7416 H   0  0  0  0  0  0  0  0  0  0  0  0  # atno 10765 bound_to 10752
  141.1498  133.7885  157.0155 H   0  0  0  0  0  0  0  0  0  0  0  0  # atno 11005 bound_to 11000
  146.2431  139.6042  142.9478 LP  0  0  0  0  0  0  0  0  0  0  0  0  # atno 17320 bound_to 7965
  145.5278  141.0428  143.2399 LP  0  0  0  0  0  0  0  0  0  0  0  0  # atno 17321 bound_to 7965
  140.0070  144.6252  150.7680 LP  0  0  0  0  0  0  0  0  0  0  0  0  # atno 17342 bound_to 10162
  140.7451  143.2870  151.3435 LP  0  0  0  0  0  0  0  0  0  0  0  0  # atno 17343 bound_to 10162
  155.9956  130.3910  150.2810 LP  0  0  0  0  0  0  0  0  0  0  0  0  # atno 17370 bound_to 10713
  157.0976  131.0187  151.3098 LP  0  0  0  0  0  0  0  0  0  0  0  0  # atno 17371 bound_to 10713
  140.0850  134.9626  157.1685 LP  0  0  0  0  0  0  0  0  0  0  0  0  # atno 17394 bound_to 11000
  140.3524  134.2584  155.7197 LP  0  0  0  0  0  0  0  0  0  0  0  0  # atno 17395 bound_to 11000

$$$$
