AV-unprocessed.smi:932|AV-procd|sdf|4199|dock8
  -GOLD-   22720 2103D 1   1.00000     0.00000
 Structure written by MMmdl.
 44 45  0  0  0  0  0  0  0  0  2 V2000
  152.3515  140.5643  155.3442 O   0  0  0  0  0  0  0  0  0  0  0  0
  151.2258  140.6005  155.8379 C   0  0  0  0  0  0  0  0  0  0  0  0
  150.1671  139.9618  155.3106 N   0  0  0  0  0  0  0  0  0  0  0  0
  150.1827  139.1637  154.0886 C   0  0  0  0  0  0  0  0  0  0  0  0
  151.4037  138.2266  154.0242 C   0  0  0  0  0  0  0  0  0  0  0  0
  151.2171  136.9902  154.7892 N   0  0  0  0  0  0  0  0  0  0  0  0
  150.3645  135.9547  154.5025 C   0  0  0  0  0  0  0  0  0  0  0  0
  150.5442  135.0174  155.4866 C   0  0  0  0  0  0  0  0  0  0  0  0
  151.4933  135.5223  156.3347 N   0  3  0  0  0  0  0  0  0  0  0  0
  151.8985  136.7237  155.9109 C   0  0  0  0  0  0  0  0  0  0  0  0
  150.9668  141.2944  156.9608 N   0  0  0  0  0  0  0  0  0  0  0  0
  151.8841  142.0935  157.7795 C   0  0  0  0  0  0  0  0  0  0  0  0
  152.0783  141.3486  159.1216 C   0  0  0  0  0  0  0  0  0  0  0  0
  153.1986  141.9006  160.0263 C   0  0  0  0  0  0  0  0  0  0  0  0
  152.7300  142.7614  161.2156 C   0  0  0  0  0  0  0  0  0  0  0  0
  151.6193  143.7900  160.9372 C   0  0  0  0  0  0  0  0  0  0  0  0
  151.9756  144.9426  159.9815 C   0  0  0  0  0  0  0  0  0  0  0  0
  152.2928  144.5645  158.5218 C   0  0  0  0  0  0  0  0  0  0  0  0
  151.3363  143.5401  157.8783 C   0  0  0  0  0  0  0  0  0  0  0  0
  149.2832  140.0378  155.7932 H   0  0  0  0  0  0  0  0  0  0  0  0
  149.2540  138.6017  153.9744 H   0  0  0  0  0  0  0  0  0  0  0  0
  150.2199  139.8568  153.2479 H   0  0  0  0  0  0  0  0  0  0  0  0
  151.6087  137.9458  152.9903 H   0  0  0  0  0  0  0  0  0  0  0  0
  152.2968  138.7288  154.3987 H   0  0  0  0  0  0  0  0  0  0  0  0
  149.7166  135.9586  153.6380 H   0  0  0  0  0  0  0  0  0  0  0  0
  150.0806  134.0541  155.6424 H   0  0  0  0  0  0  0  0  0  0  0  0
  152.6380  137.3503  156.3768 H   0  0  0  0  0  0  0  0  0  0  0  0
  150.0206  141.2357  157.3091 H   0  0  0  0  0  0  0  0  0  0  0  0
  152.8592  142.1232  157.2905 H   0  0  0  0  0  0  0  0  0  0  0  0
  151.1374  141.2683  159.6662 H   0  0  0  0  0  0  0  0  0  0  0  0
  152.3481  140.3185  158.8820 H   0  0  0  0  0  0  0  0  0  0  0  0
  153.7446  141.0543  160.4450 H   0  0  0  0  0  0  0  0  0  0  0  0
  153.9454  142.4281  159.4357 H   0  0  0  0  0  0  0  0  0  0  0  0
  152.3618  142.0876  161.9903 H   0  0  0  0  0  0  0  0  0  0  0  0
  153.5928  143.2646  161.6533 H   0  0  0  0  0  0  0  0  0  0  0  0
  150.7114  143.2888  160.6053 H   0  0  0  0  0  0  0  0  0  0  0  0
  151.3457  144.2367  161.8937 H   0  0  0  0  0  0  0  0  0  0  0  0
  151.1297  145.6312  159.9726 H   0  0  0  0  0  0  0  0  0  0  0  0
  152.8107  145.5114  160.3922 H   0  0  0  0  0  0  0  0  0  0  0  0
  152.2445  145.4857  157.9399 H   0  0  0  0  0  0  0  0  0  0  0  0
  153.3274  144.2426  158.4195 H   0  0  0  0  0  0  0  0  0  0  0  0
  151.1424  143.8900  156.8633 H   0  0  0  0  0  0  0  0  0  0  0  0
  150.3609  143.5558  158.3649 H   0  0  0  0  0  0  0  0  0  0  0  0
  151.8423  135.0545  157.1620 H   0  0  0  0  0  0  0  0  0  0  0  0
  1  2  2  0  0  0  0
  2  3  1  0  0  0  0
  2 11  1  0  0  0  0
  3  4  1  0  0  0  0
  3 20  1  0  0  0  0
  4  5  1  0  0  0  0
  4 21  1  0  0  0  0
  4 22  1  0  0  0  0
  5  6  1  0  0  0  0
  5 23  1  0  0  0  0
  5 24  1  0  0  0  0
  6 10  1  0  0  0  0
  6  7  1  0  0  0  0
  7  8  2  0  0  0  0
  7 25  1  0  0  0  0
  8  9  1  0  0  0  0
  8 26  1  0  0  0  0
  9 10  2  0  0  0  0
  9 44  1  0  0  0  0
 10 27  1  0  0  0  0
 11 12  1  0  0  0  0
 11 28  1  0  0  0  0
 12 19  1  0  0  0  0
 12 13  1  0  0  0  0
 12 29  1  0  0  0  0
 13 14  1  0  0  0  0
 13 30  1  0  0  0  0
 13 31  1  0  0  0  0
 14 15  1  0  0  0  0
 14 32  1  0  0  0  0
 14 33  1  0  0  0  0
 15 16  1  0  0  0  0
 15 34  1  0  0  0  0
 15 35  1  0  0  0  0
 16 17  1  0  0  0  0
 16 36  1  0  0  0  0
 16 37  1  0  0  0  0
 17 18  1  0  0  0  0
 17 38  1  0  0  0  0
 17 39  1  0  0  0  0
 18 19  1  0  0  0  0
 18 40  1  0  0  0  0
 18 41  1  0  0  0  0
 19 42  1  0  0  0  0
 19 43  1  0  0  0  0
M  CHG  1   9   1
M  END
> <s_m_source_file>
AV-unprocessed.smi

> <i_m_source_file_index>
932

> <i_lp_mmshare_version>
43012

> <i_f3d_flags>
0

> <s_epik_input>
W2NIXTFuW2NIXVtjSF1uMVtDSDJdW0NIMl1bTkhdQyg9TylbTkhdW0NIXTJbQ0gyXVtDSDJdW0NIMl1bQ0gyXVtDSDJdW0NIMl1bQ0gyXTI=

> <s_epik_cmdline>
J2VwaWtfcHl0aG9uJywgJy1waCcsICc3LjAnLCAnLXRuJywgJzgnLCAnLW1hJywgJzIwMCcsICctbWV0YWxfYmluZGluZycsICctaW1hZScsICc8aW5maWxlLm1hZT4nLCAnLW9tYWUnLCAnPG91dGZpbGUubWFlPic=

> <r_lp_tautomer_probability>
1

> <r_epik_Ionization_Penalty>
0.254654

> <r_epik_Ionization_Penalty_Charging>
0

> <r_epik_Ionization_Penalty_Neutral>
0.254654

> <r_epik_State_Penalty>
0.246077

> <r_epik_Charging_Adjusted_Penalty>
0.246077

> <i_epik_Tot_Q>
1

> <i_epik_Tot_abs_Q>
1

> <r_epik_Metal_State_Penalty>
0.536041

> <b_epik_Metal_Only>
0

> <s_lp_Force_Field>
OPLS_2005

> <r_lp_Energy>
30.2565

> <b_lp_Chiralities_Consistent>
1

> <s_lp_Variant>
AV-unprocessed.smi:932-1

> <Gold.Version>
5.8.1

> <Gold.Id.Protein>
6NUR|6NUR_protein|mol2

> <Gold.PLP.Fitness>
48.1992

> <Gold.PLP.PLP>
-42.5977

> <Gold.PLP.part.hbond>
-2.0000

> <Gold.PLP.part.metal>
0.0000

> <Gold.PLP.part.buried>
-4.4676

> <Gold.PLP.part.nonpolar>
-37.3605

> <Gold.PLP.part.repulsive>
0.3040

> <Gold.PLP.ligand.clash>
0.0000

> <Gold.PLP.ligand.torsion>
0.3258

> <Gold.PLP.Chemscore.Hbond>
1.0730

> <Gold.PLP.Chemscore.CHOScore>
1.0000

> <Gold.PLP.Chemscore.Metal>
0.0000

> <Gold.Chemscore.Hbonds>
donor molecule, donor type, donor heavy atom, donor atom, acceptor molecule, acceptor atom, score
      P1  H  7989  7998       L1     1  0.31
      P1  H  7997  8009       L1     1  0.61
      L1  C     7    25       P1  7948  0.66

> <Gold.PLP.Chemscore.Internal.Correction>
0.0340

> <Gold.Rescore>
     Score         DG    S(hbond)    S(metal)    S(lipo)     H(rot)  DE(clash)    DE(int)     intcor
     15.17     -16.98       0.99        0.00     111.51       1.90       0.09       1.72       ----

> <Gold.Chemscore.Fitness>
15.1732

> <Gold.Chemscore.DG>
-16.9773

> <Gold.Chemscore.ZeroCoef>
-5.4800

> <Gold.Chemscore.Hbond>
0.9909

> <Gold.Chemscore.Metal>
0.0000

> <Gold.Chemscore.Lipo>
111.5143

> <Gold.Chemscore.Internal_Hbond>
0.0000

> <Gold.Chemscore.DEClash>
0.0884

> <Gold.Chemscore.DEInternal>
1.7158

> <Gold.Chemscore.Rot>
1.8982

> <Gold.Chemscore.Internal.Correction>
   9.000000E+99

> <Gold.Chemscore.Hbonds>
donor molecule, donor type, donor heavy atom, donor atom, acceptor molecule, acceptor atom, score
      P1  H  7989  7998       L1     1  0.03
      P1  H  7997  8009       L1     1  0.56

> <Gold.Chemscore.Hbond.Weighted>
-3.3095

> <Gold.Chemscore.Metal.Weighted>
-0.0000

> <Gold.Chemscore.Lipo.Weighted>
-13.0472

> <Gold.Chemscore.Internal_Hbond.Weighted>
0.0000

> <Gold.Chemscore.DEClash.Weighted>
0.0884

> <Gold.Chemscore.DEInternal.Weighted>
1.7158

> <Gold.Chemscore.Rot.Weighted>
4.8594

> <Gold.Chemscore.Internal.Correction.Weighted>
   9.000000E+99

> <Gold.Protein.RotatedTorsions>
[ 6907 6896 6895 6894 ] final -103.13 input  -60.11 | X-H torsion
[ 7974 7965 7964 7962 ] final   69.34 input  175.53 | X-H torsion
[ 8008 7997 7996 7995 ] final -151.18 input   59.86 | X-H torsion
[ 10167 10162 10161 10158 ] final   13.68 input  -65.29 | X-H torsion
[ 10718 10713 10712 10709 ] final  145.68 input   66.30 | X-H torsion
[ 10763 10752 10751 10750 ] final  178.07 input  -60.55 | X-H torsion
[ 11005 11000 10999 10996 ] final -121.87 input  -57.11 | X-H torsion

> <Gold.Protein.ActiveResidues>
 VAL166  LYS551  ARG553  GLY616  TRP617  ASP618  TYR619  PRO620  LYS621  CYS622 
 ASP623  PHE694  ASN695  SER759  ASP760  ASP761  ALA762  ILE779  LEU786  VAL792 
 PHE793  MET794  SER795  GLU796  ALA797  LYS798  CYS799  TRP800  GLU811  SER814 

> <Gold.Protein.RotatedAtoms>
  150.7226  134.0475  159.3786 H   0  0  0  0  0  0  0  0  0  0  0  0  # atno 6907 bound_to 6896
  151.8451  135.0575  160.0462 H   0  0  0  0  0  0  0  0  0  0  0  0  # atno 6908 bound_to 6896
  152.2833  133.5455  159.5548 H   0  0  0  0  0  0  0  0  0  0  0  0  # atno 6909 bound_to 6896
  145.7916  139.2937  143.1207 H   0  0  0  0  0  0  0  0  0  0  0  0  # atno 7974 bound_to 7965
  155.6353  140.0696  157.2636 H   0  0  0  0  0  0  0  0  0  0  0  0  # atno 8008 bound_to 7997
  154.4196  140.1760  156.1565 H   0  0  0  0  0  0  0  0  0  0  0  0  # atno 8009 bound_to 7997
  155.9899  140.3346  155.6746 H   0  0  0  0  0  0  0  0  0  0  0  0  # atno 8010 bound_to 7997
  140.5987  143.8650  150.6943 H   0  0  0  0  0  0  0  0  0  0  0  0  # atno 10167 bound_to 10162
  157.3423  131.0938  151.1071 H   0  0  0  0  0  0  0  0  0  0  0  0  # atno 10718 bound_to 10713
  154.5028  135.2784  155.1406 H   0  0  0  0  0  0  0  0  0  0  0  0  # atno 10763 bound_to 10752
  154.3033  135.6244  153.5437 H   0  0  0  0  0  0  0  0  0  0  0  0  # atno 10764 bound_to 10752
  152.9905  135.5702  154.5475 H   0  0  0  0  0  0  0  0  0  0  0  0  # atno 10765 bound_to 10752
  141.0038  134.0365  157.3504 H   0  0  0  0  0  0  0  0  0  0  0  0  # atno 11005 bound_to 11000
  145.9971  140.8553  143.0037 LP  0  0  0  0  0  0  0  0  0  0  0  0  # atno 17320 bound_to 7965
  144.6781  140.2299  143.7356 LP  0  0  0  0  0  0  0  0  0  0  0  0  # atno 17321 bound_to 7965
  140.2190  143.3824  152.1658 LP  0  0  0  0  0  0  0  0  0  0  0  0  # atno 17342 bound_to 10162
  139.5276  144.7121  151.5174 LP  0  0  0  0  0  0  0  0  0  0  0  0  # atno 17343 bound_to 10162
  157.2279  130.6511  149.5837 LP  0  0  0  0  0  0  0  0  0  0  0  0  # atno 17370 bound_to 10713
  155.9709  130.4608  150.6087 LP  0  0  0  0  0  0  0  0  0  0  0  0  # atno 17371 bound_to 10713
  139.9052  135.0177  156.7454 LP  0  0  0  0  0  0  0  0  0  0  0  0  # atno 17394 bound_to 11000
  140.6847  133.9443  155.7930 LP  0  0  0  0  0  0  0  0  0  0  0  0  # atno 17395 bound_to 11000

$$$$
