AV-unprocessed.smi:107|AV-procd|sdf|1013|dock8
  -GOLD-   2262018 13D 1   1.00000     0.00000
 Structure written by MMmdl.
 31 32  0  0  0  0  0  0  0  0  1 V2000
  152.0219  143.2391  160.5427 C   0  0  0  0  0  0  0  0  0  0  0  0
  152.4673  141.8768  160.0375 C   0  0  0  0  0  0  0  0  0  0  0  0
  151.8133  141.2189  159.0463 C   0  0  0  0  0  0  0  0  0  0  0  0
  152.1951  139.9755  158.5627 N   0  0  0  0  0  0  0  0  0  0  0  0
  151.4191  139.2962  157.4568 C   0  0  2  0  0  0  0  0  0  0  0  0
  152.2978  139.0901  156.2185 C   0  0  0  0  0  0  0  0  0  0  0  0
  151.3361  139.3982  155.0880 C   0  0  1  0  0  0  0  0  0  0  0  0
  150.6186  138.2369  154.7134 O   0  0  0  0  0  0  0  0  0  0  0  0
  150.4312  140.4673  155.7172 C   0  0  1  0  0  0  0  0  0  0  0  0
  149.0331  140.6476  155.1007 C   0  0  0  0  0  0  0  0  0  0  0  0
  149.1401  141.0452  153.7503 O   0  0  0  0  0  0  0  0  0  0  0  0
  150.3400  140.1082  157.0940 O   0  0  0  0  0  0  0  0  0  0  0  0
  153.3373  139.3465  159.1009 C   0  0  0  0  0  0  0  0  0  0  0  0
  153.7552  138.2588  158.7058 O   0  0  0  0  0  0  0  0  0  0  0  0
  154.0073  140.0193  160.1214 N   0  0  0  0  0  0  0  0  0  0  0  0
  153.6501  141.2634  160.6472 C   0  0  0  0  0  0  0  0  0  0  0  0
  154.3218  141.7560  161.5522 O   0  0  0  0  0  0  0  0  0  0  0  0
  154.8235  139.5710  160.5119 H   0  0  0  0  0  0  0  0  0  0  0  0
  151.1339  143.5940  160.0189 H   0  0  0  0  0  0  0  0  0  0  0  0
  152.8127  143.9760  160.3977 H   0  0  0  0  0  0  0  0  0  0  0  0
  151.7865  143.1932  161.6066 H   0  0  0  0  0  0  0  0  0  0  0  0
  150.9496  141.6960  158.6087 H   0  0  0  0  0  0  0  0  0  0  0  0
  151.0065  138.3666  157.8512 H   0  0  0  0  0  0  0  0  0  0  0  0
  153.1123  139.8161  156.2204 H   0  0  0  0  0  0  0  0  0  0  0  0
  152.7230  138.0860  156.1922 H   0  0  0  0  0  0  0  0  0  0  0  0
  151.8556  139.7779  154.2077 H   0  0  0  0  0  0  0  0  0  0  0  0
  151.1348  137.7566  154.0836 H   0  0  0  0  0  0  0  0  0  0  0  0
  150.9567  141.4225  155.6773 H   0  0  0  0  0  0  0  0  0  0  0  0
  148.4415  139.7347  155.1715 H   0  0  0  0  0  0  0  0  0  0  0  0
  148.4872  141.4209  155.6416 H   0  0  0  0  0  0  0  0  0  0  0  0
  149.1825  140.2698  153.2114 H   0  0  0  0  0  0  0  0  0  0  0  0
  1  2  1  0  0  0  0
  1 19  1  0  0  0  0
  1 20  1  0  0  0  0
  1 21  1  0  0  0  0
  2 16  1  0  0  0  0
  2  3  2  0  0  0  0
  3  4  1  0  0  0  0
  3 22  1  0  0  0  0
  4  5  1  0  0  0  0
  4 13  1  0  0  0  0
  5 12  1  0  0  0  0
  5  6  1  0  0  0  0
  5 23  1  0  0  0  0
  6  7  1  0  0  0  0
  6 24  1  0  0  0  0
  6 25  1  0  0  0  0
  7  8  1  0  0  0  0
  7  9  1  0  0  0  0
  7 26  1  0  0  0  0
  8 27  1  0  0  0  0
  9 10  1  0  0  0  0
  9 12  1  0  0  0  0
  9 28  1  0  0  0  0
 10 11  1  0  0  0  0
 10 29  1  0  0  0  0
 10 30  1  0  0  0  0
 11 31  1  0  0  0  0
 13 14  2  0  0  0  0
 13 15  1  0  0  0  0
 15 18  1  0  0  0  0
 15 16  1  0  0  0  0
 16 17  2  0  0  0  0
M  END
> <s_m_source_file>
AV-unprocessed.smi

> <i_m_source_file_index>
107

> <i_lp_mmshare_version>
43012

> <i_f3d_flags>
0

> <s_epik_input>
Tz1jMVtuSF1jKD1PKW4oW2NIXWMxW0NIM10pW0NAQEhdMltDSDJdW0NAQEhdKFtPSF0pW0NASF0oTzIpW0NIMl1bT0hd

> <s_epik_cmdline>
J2VwaWtfcHl0aG9uJywgJy1waCcsICc3LjAnLCAnLXRuJywgJzgnLCAnLW1hJywgJzIwMCcsICctbWV0YWxfYmluZGluZycsICctaW1hZScsICc8aW5maWxlLm1hZT4nLCAnLW9tYWUnLCAnPG91dGZpbGUubWFlPic=

> <r_lp_tautomer_probability>
0.999537

> <r_epik_Ionization_Penalty>
0.00121888

> <r_epik_Ionization_Penalty_Charging>
0.00121876

> <r_epik_Ionization_Penalty_Neutral>
1.19946e-07

> <r_epik_State_Penalty>
0.000805124

> <r_epik_Charging_Adjusted_Penalty>
0.00202389

> <i_epik_Tot_Q>
0

> <i_epik_Tot_abs_Q>
0

> <r_epik_Metal_State_Penalty>
0.662472

> <b_epik_Metal_Only>
0

> <s_epik_Chemistry_Notes>
This compound contains an acetal/aminal-like group ( X-CH(R)-Y where X, Y are N, S, or O) that may be acid/base labile, releasing an aldehyde.

> <s_lp_Force_Field>
OPLS_2005

> <r_lp_Energy>
27.6975

> <b_lp_Chiralities_Consistent>
1

> <s_lp_Variant>
AV-unprocessed.smi:107-1

> <Gold.Version>
5.8.1

> <Gold.Id.Protein>
6NUR|6NUR_protein|mol2

> <Gold.PLP.Fitness>
38.2490

> <Gold.PLP.PLP>
-33.3625

> <Gold.PLP.part.hbond>
-4.0000

> <Gold.PLP.part.metal>
0.0000

> <Gold.PLP.part.buried>
-2.8252

> <Gold.PLP.part.nonpolar>
-25.6533

> <Gold.PLP.part.repulsive>
0.0642

> <Gold.PLP.ligand.clash>
0.0000

> <Gold.PLP.ligand.torsion>
0.0044

> <Gold.PLP.Chemscore.Hbond>
1.6311

> <Gold.PLP.Chemscore.CHOScore>
0.0000

> <Gold.PLP.Chemscore.Metal>
0.0000

> <Gold.Chemscore.Hbonds>
donor molecule, donor type, donor heavy atom, donor atom, acceptor molecule, acceptor atom, score
      L1  H    11    31       P1  7957  0.49
      P1  H  8011  8017       L1    11  0.76

> <Gold.PLP.Chemscore.Internal.Correction>
0.0021

> <Gold.Rescore>
     Score         DG    S(hbond)    S(metal)    S(lipo)     H(rot)  DE(clash)    DE(int)     intcor
      8.56      -9.95       1.44        0.00      56.73       2.73       0.05       1.35       ----

> <Gold.Chemscore.Fitness>
8.5557

> <Gold.Chemscore.DG>
-9.9536

> <Gold.Chemscore.ZeroCoef>
-5.4800

> <Gold.Chemscore.Hbond>
1.4409

> <Gold.Chemscore.Metal>
0.0000

> <Gold.Chemscore.Lipo>
56.7346

> <Gold.Chemscore.Internal_Hbond>
0.0000

> <Gold.Chemscore.DEClash>
0.0484

> <Gold.Chemscore.DEInternal>
1.3495

> <Gold.Chemscore.Rot>
2.7253

> <Gold.Chemscore.Internal.Correction>
   9.000000E+99

> <Gold.Chemscore.Hbonds>
donor molecule, donor type, donor heavy atom, donor atom, acceptor molecule, acceptor atom, score
      L1  H    11    31       P1  7957  0.50
      P1  H  8011  8017       L1    11  0.14

> <Gold.Chemscore.Hbond.Weighted>
-4.8125

> <Gold.Chemscore.Metal.Weighted>
-0.0000

> <Gold.Chemscore.Lipo.Weighted>
-6.6379

> <Gold.Chemscore.Internal_Hbond.Weighted>
0.0000

> <Gold.Chemscore.DEClash.Weighted>
0.0484

> <Gold.Chemscore.DEInternal.Weighted>
1.3495

> <Gold.Chemscore.Rot.Weighted>
6.9769

> <Gold.Chemscore.Internal.Correction.Weighted>
   9.000000E+99

> <Gold.Protein.RotatedTorsions>
[ 6907 6896 6895 6894 ] final   55.37 input  -60.11 | X-H torsion
[ 7974 7965 7964 7962 ] final  128.05 input  175.53 | X-H torsion
[ 8008 7997 7996 7995 ] final -110.53 input   59.86 | X-H torsion
[ 10167 10162 10161 10158 ] final -131.58 input  -65.29 | X-H torsion
[ 10718 10713 10712 10709 ] final  -12.74 input   66.30 | X-H torsion
[ 10763 10752 10751 10750 ] final  -53.99 input  -60.55 | X-H torsion
[ 11005 11000 10999 10996 ] final    8.65 input  -57.11 | X-H torsion

> <Gold.Protein.ActiveResidues>
 VAL166  LYS551  ARG553  GLY616  TRP617  ASP618  TYR619  PRO620  LYS621  CYS622 
 ASP623  PHE694  ASN695  SER759  ASP760  ASP761  ALA762  ILE779  LEU786  VAL792 
 PHE793  MET794  SER795  GLU796  ALA797  LYS798  CYS799  TRP800  GLU811  SER814 

> <Gold.Protein.RotatedAtoms>
  152.3532  134.6977  160.0229 H   0  0  0  0  0  0  0  0  0  0  0  0  # atno 6907 bound_to 6896
  151.7324  133.3313  159.3352 H   0  0  0  0  0  0  0  0  0  0  0  0  # atno 6908 bound_to 6896
  150.7554  134.6285  159.6218 H   0  0  0  0  0  0  0  0  0  0  0  0  # atno 6909 bound_to 6896
  145.0438  139.3940  143.5088 H   0  0  0  0  0  0  0  0  0  0  0  0  # atno 7974 bound_to 7965
  154.9759  140.0397  157.2256 H   0  0  0  0  0  0  0  0  0  0  0  0  # atno 8008 bound_to 7997
  154.7758  140.2810  155.6080 H   0  0  0  0  0  0  0  0  0  0  0  0  # atno 8009 bound_to 7997
  156.2928  140.2601  156.2571 H   0  0  0  0  0  0  0  0  0  0  0  0  # atno 8010 bound_to 7997
  139.9175  143.6422  152.2561 H   0  0  0  0  0  0  0  0  0  0  0  0  # atno 10167 bound_to 10162
  156.6402  130.4926  149.6097 H   0  0  0  0  0  0  0  0  0  0  0  0  # atno 10718 bound_to 10713
  154.1676  135.6464  153.5001 H   0  0  0  0  0  0  0  0  0  0  0  0  # atno 10763 bound_to 10752
  153.0093  135.5376  154.6646 H   0  0  0  0  0  0  0  0  0  0  0  0  # atno 10764 bound_to 10752
  154.5976  135.2940  155.0541 H   0  0  0  0  0  0  0  0  0  0  0  0  # atno 10765 bound_to 10752
  140.5346  134.0433  155.7884 H   0  0  0  0  0  0  0  0  0  0  0  0  # atno 11005 bound_to 11000
  146.3512  140.0053  142.8672 LP  0  0  0  0  0  0  0  0  0  0  0  0  # atno 17320 bound_to 7965
  145.1613  140.9674  143.4375 LP  0  0  0  0  0  0  0  0  0  0  0  0  # atno 17321 bound_to 7965
  139.6890  144.7649  151.1472 LP  0  0  0  0  0  0  0  0  0  0  0  0  # atno 17342 bound_to 10162
  140.7670  143.5616  150.9093 LP  0  0  0  0  0  0  0  0  0  0  0  0  # atno 17343 bound_to 10162
  156.2165  130.6711  151.1324 LP  0  0  0  0  0  0  0  0  0  0  0  0  # atno 17370 bound_to 10713
  157.7173  131.0702  150.6276 LP  0  0  0  0  0  0  0  0  0  0  0  0  # atno 17371 bound_to 10713
  141.1262  133.9379  157.2630 LP  0  0  0  0  0  0  0  0  0  0  0  0  # atno 17394 bound_to 11000
  139.9536  135.0170  156.9064 LP  0  0  0  0  0  0  0  0  0  0  0  0  # atno 17395 bound_to 11000

$$$$
