AV-unprocessed.smi:2734|AV-procd|sdf|10537|dock8
  -GOLD-   2272014583D 1   1.00000     0.00000
 Structure written by MMmdl.
 40 42  0  0  0  0  0  0  0  0  1 V2000
  152.1761  144.2719  159.3116 C   0  0  0  0  0  0  0  0  0  0  0  0
  152.8027  143.0643  159.9863 C   0  0  0  0  0  0  0  0  0  0  0  0
  153.3295  142.0262  159.1851 C   0  0  0  0  0  0  0  0  0  0  0  0
  153.9221  140.8872  159.7730 C   0  0  0  0  0  0  0  0  0  0  0  0
  154.4935  139.7690  159.1904 N   0  0  0  0  0  0  0  0  0  0  0  0
  154.8645  139.0701  160.2596 C   0  0  0  0  0  0  0  0  0  0  0  0
  154.5997  139.6042  161.4675 N   0  0  0  0  0  0  0  0  0  0  0  0
  154.9050  139.0330  162.7669 C   0  0  0  0  0  0  0  0  0  0  0  0
  156.3931  139.1768  163.1380 C   0  0  2  0  0  0  0  0  0  0  0  0
  156.7715  138.1152  163.9934 O   0  0  0  0  0  0  0  0  0  0  0  0
  156.6840  140.5162  163.8335 C   0  0  0  0  0  0  0  0  0  0  0  0
  155.7779  140.6831  165.4024 S   0  0  0  0  0  0  0  0  0  0  0  0
  155.8001  142.4406  165.5781 C   0  0  0  0  0  0  0  0  0  0  0  0
  156.2279  143.3220  164.6812 N   0  0  0  0  0  0  0  0  0  0  0  0
  156.0368  144.5448  165.2957 N   0  0  0  0  0  0  0  0  0  0  0  0
  155.5282  144.4005  166.4846 N   0  0  0  0  0  0  0  0  0  0  0  0
  155.3710  143.0688  166.6798 N   0  0  0  0  0  0  0  0  0  0  0  0
  154.8215  142.5532  167.9178 C   0  0  0  0  0  0  0  0  0  0  0  0
  153.9721  140.8143  161.1957 C   0  0  0  0  0  0  0  0  0  0  0  0
  153.4510  141.8400  162.0037 C   0  0  0  0  0  0  0  0  0  0  0  0
  152.8640  142.9718  161.4002 C   0  0  0  0  0  0  0  0  0  0  0  0
  152.3070  144.0761  162.2812 C   0  0  0  0  0  0  0  0  0  0  0  0
  152.1963  144.1769  158.2256 H   0  0  0  0  0  0  0  0  0  0  0  0
  152.7163  145.1807  159.5780 H   0  0  0  0  0  0  0  0  0  0  0  0
  151.1359  144.3843  159.6175 H   0  0  0  0  0  0  0  0  0  0  0  0
  153.2836  142.0963  158.1083 H   0  0  0  0  0  0  0  0  0  0  0  0
  155.3597  138.1151  160.1598 H   0  0  0  0  0  0  0  0  0  0  0  0
  154.2811  139.5313  163.5098 H   0  0  0  0  0  0  0  0  0  0  0  0
  154.6105  137.9823  162.7665 H   0  0  0  0  0  0  0  0  0  0  0  0
  156.9944  139.1101  162.2304 H   0  0  0  0  0  0  0  0  0  0  0  0
  156.0200  137.8643  164.5090 H   0  0  0  0  0  0  0  0  0  0  0  0
  157.7511  140.5920  164.0458 H   0  0  0  0  0  0  0  0  0  0  0  0
  156.4267  141.3475  163.1756 H   0  0  0  0  0  0  0  0  0  0  0  0
  155.5796  141.9684  168.4387 H   0  0  0  0  0  0  0  0  0  0  0  0
  153.9640  141.9154  167.7019 H   0  0  0  0  0  0  0  0  0  0  0  0
  154.4992  143.3708  168.5638 H   0  0  0  0  0  0  0  0  0  0  0  0
  153.5049  141.7558  163.0791 H   0  0  0  0  0  0  0  0  0  0  0  0
  152.4475  143.8504  163.3386 H   0  0  0  0  0  0  0  0  0  0  0  0
  151.2388  144.2030  162.1051 H   0  0  0  0  0  0  0  0  0  0  0  0
  152.8082  145.0213  162.0716 H   0  0  0  0  0  0  0  0  0  0  0  0
  1  2  1  0  0  0  0
  1 23  1  0  0  0  0
  1 24  1  0  0  0  0
  1 25  1  0  0  0  0
  2 21  1  0  0  0  0
  2  3  2  0  0  0  0
  3  4  1  0  0  0  0
  3 26  1  0  0  0  0
  4 19  2  0  0  0  0
  4  5  1  0  0  0  0
  5  6  2  0  0  0  0
  6  7  1  0  0  0  0
  6 27  1  0  0  0  0
  7  8  1  0  0  0  0
  7 19  1  0  0  0  0
  8  9  1  0  0  0  0
  8 28  1  0  0  0  0
  8 29  1  0  0  0  0
  9 10  1  0  0  0  0
  9 11  1  0  0  0  0
  9 30  1  0  0  0  0
 10 31  1  0  0  0  0
 11 12  1  0  0  0  0
 11 32  1  0  0  0  0
 11 33  1  0  0  0  0
 12 13  1  0  0  0  0
 13 17  1  0  0  0  0
 13 14  2  0  0  0  0
 14 15  1  0  0  0  0
 15 16  2  0  0  0  0
 16 17  1  0  0  0  0
 17 18  1  0  0  0  0
 18 34  1  0  0  0  0
 18 35  1  0  0  0  0
 18 36  1  0  0  0  0
 19 20  1  0  0  0  0
 20 21  2  0  0  0  0
 20 37  1  0  0  0  0
 21 22  1  0  0  0  0
 22 38  1  0  0  0  0
 22 39  1  0  0  0  0
 22 40  1  0  0  0  0
M  END
> <s_m_source_file>
AV-unprocessed.smi

> <i_m_source_file_index>
2734

> <i_lp_mmshare_version>
43012

> <i_f3d_flags>
0

> <s_epik_input>
W0NIM11jKFtjSF0xKWMoW0NIM10pW2NIXWMoYzEyKW4oW2NIXW4yKVtDSDJdW0NASF0oW09IXSlbQ0gyXVNjM25ubm4zW0NIM10=

> <s_epik_cmdline>
J2VwaWtfcHl0aG9uJywgJy1waCcsICc3LjAnLCAnLXRuJywgJzgnLCAnLW1hJywgJzIwMCcsICctbWV0YWxfYmluZGluZycsICctaW1hZScsICc8aW5maWxlLm1hZT4nLCAnLW9tYWUnLCAnPG91dGZpbGUubWFlPic=

> <r_lp_tautomer_probability>
1

> <r_epik_Ionization_Penalty>
0.105517

> <r_epik_Ionization_Penalty_Charging>
0

> <r_epik_Ionization_Penalty_Neutral>
0.105517

> <r_epik_State_Penalty>
0.0953887

> <r_epik_Charging_Adjusted_Penalty>
0.0953887

> <i_epik_Tot_Q>
0

> <i_epik_Tot_abs_Q>
0

> <r_epik_Metal_State_Penalty>
0.0808533

> <b_epik_Metal_Only>
0

> <s_lp_Force_Field>
OPLS_2005

> <r_lp_Energy>
9.5145

> <b_lp_Chiralities_Consistent>
1

> <s_lp_Variant>
AV-unprocessed.smi:2734-1

> <Gold.Version>
5.8.1

> <Gold.Id.Protein>
6NUR|6NUR_protein|mol2

> <Gold.PLP.Fitness>
46.9791

> <Gold.PLP.PLP>
-45.3856

> <Gold.PLP.part.hbond>
-3.9512

> <Gold.PLP.part.metal>
0.0000

> <Gold.PLP.part.buried>
-2.7564

> <Gold.PLP.part.nonpolar>
-38.2579

> <Gold.PLP.part.repulsive>
0.1120

> <Gold.PLP.ligand.clash>
0.0000

> <Gold.PLP.ligand.torsion>
0.7148

> <Gold.PLP.Chemscore.Hbond>
1.0000

> <Gold.PLP.Chemscore.CHOScore>
0.0000

> <Gold.PLP.Chemscore.Metal>
0.0000

> <Gold.Chemscore.Hbonds>
donor molecule, donor type, donor heavy atom, donor atom, acceptor molecule, acceptor atom, score
      P1  H  7997  8009       L1     5  1.00

> <Gold.PLP.Chemscore.Internal.Correction>
0.0231

> <Gold.Rescore>
     Score         DG    S(hbond)    S(metal)    S(lipo)     H(rot)  DE(clash)    DE(int)     intcor
     13.92     -15.24       0.95        0.00     118.48       2.85       0.42       0.91       ----

> <Gold.Chemscore.Fitness>
13.9188

> <Gold.Chemscore.DG>
-15.2422

> <Gold.Chemscore.ZeroCoef>
-5.4800

> <Gold.Chemscore.Hbond>
0.9532

> <Gold.Chemscore.Metal>
0.0000

> <Gold.Chemscore.Lipo>
118.4804

> <Gold.Chemscore.Internal_Hbond>
0.0000

> <Gold.Chemscore.DEClash>
0.4152

> <Gold.Chemscore.DEInternal>
0.9083

> <Gold.Chemscore.Rot>
2.8452

> <Gold.Chemscore.Internal.Correction>
   9.000000E+99

> <Gold.Chemscore.Hbonds>
donor molecule, donor type, donor heavy atom, donor atom, acceptor molecule, acceptor atom, score
      P1  H  7997  8009       L1     5  0.83

> <Gold.Chemscore.Hbond.Weighted>
-3.1837

> <Gold.Chemscore.Metal.Weighted>
-0.0000

> <Gold.Chemscore.Lipo.Weighted>
-13.8622

> <Gold.Chemscore.Internal_Hbond.Weighted>
0.0000

> <Gold.Chemscore.DEClash.Weighted>
0.4152

> <Gold.Chemscore.DEInternal.Weighted>
0.9083

> <Gold.Chemscore.Rot.Weighted>
7.2837

> <Gold.Chemscore.Internal.Correction.Weighted>
   9.000000E+99

> <Gold.Protein.RotatedTorsions>
[ 6907 6896 6895 6894 ] final  -60.51 input  -60.11 | X-H torsion
[ 7974 7965 7964 7962 ] final  -15.01 input  175.53 | X-H torsion
[ 8008 7997 7996 7995 ] final  130.13 input   59.86 | X-H torsion
[ 10167 10162 10161 10158 ] final  -27.86 input  -65.29 | X-H torsion
[ 10718 10713 10712 10709 ] final  157.31 input   66.30 | X-H torsion
[ 10763 10752 10751 10750 ] final -149.12 input  -60.55 | X-H torsion
[ 11005 11000 10999 10996 ] final   96.60 input  -57.11 | X-H torsion

> <Gold.Protein.ActiveResidues>
 VAL166  LYS551  ARG553  GLY616  TRP617  ASP618  TYR619  PRO620  LYS621  CYS622 
 ASP623  PHE694  ASN695  SER759  ASP760  ASP761  ALA762  ILE779  LEU786  VAL792 
 PHE793  MET794  SER795  GLU796  ALA797  LYS798  CYS799  TRP800  GLU811  SER814 

> <Gold.Protein.RotatedAtoms>
  150.7851  134.6828  159.6453 H   0  0  0  0  0  0  0  0  0  0  0  0  # atno 6907 bound_to 6896
  152.3945  134.6384  160.0103 H   0  0  0  0  0  0  0  0  0  0  0  0  # atno 6908 bound_to 6896
  151.6674  133.3278  159.3224 H   0  0  0  0  0  0  0  0  0  0  0  0  # atno 6909 bound_to 6896
  146.2050  140.3431  142.8410 H   0  0  0  0  0  0  0  0  0  0  0  0  # atno 7974 bound_to 7965
  156.2949  140.2603  156.2711 H   0  0  0  0  0  0  0  0  0  0  0  0  # atno 8008 bound_to 7997
  154.9694  140.0391  157.2246 H   0  0  0  0  0  0  0  0  0  0  0  0  # atno 8009 bound_to 7997
  154.7873  140.2805  155.6023 H   0  0  0  0  0  0  0  0  0  0  0  0  # atno 8010 bound_to 7997
  140.7274  143.4057  151.1189 H   0  0  0  0  0  0  0  0  0  0  0  0  # atno 10167 bound_to 10162
  157.1932  131.0659  151.2067 H   0  0  0  0  0  0  0  0  0  0  0  0  # atno 10718 bound_to 10713
  154.8195  135.3317  154.7080 H   0  0  0  0  0  0  0  0  0  0  0  0  # atno 10763 bound_to 10752
  153.7715  135.6925  153.4910 H   0  0  0  0  0  0  0  0  0  0  0  0  # atno 10764 bound_to 10752
  153.2041  135.4505  155.0250 H   0  0  0  0  0  0  0  0  0  0  0  0  # atno 10765 bound_to 10752
  139.8780  134.8959  156.4182 H   0  0  0  0  0  0  0  0  0  0  0  0  # atno 11005 bound_to 11000
  144.8771  140.7351  143.6010 LP  0  0  0  0  0  0  0  0  0  0  0  0  # atno 17320 bound_to 7965
  145.3351  139.1748  143.4516 LP  0  0  0  0  0  0  0  0  0  0  0  0  # atno 17321 bound_to 7965
  139.7684  143.8531  152.3115 LP  0  0  0  0  0  0  0  0  0  0  0  0  # atno 17342 bound_to 10162
  139.8441  144.7196  150.9295 LP  0  0  0  0  0  0  0  0  0  0  0  0  # atno 17343 bound_to 10162
  157.3840  130.7246  149.6650 LP  0  0  0  0  0  0  0  0  0  0  0  0  # atno 17370 bound_to 10713
  155.9709  130.4164  150.4232 LP  0  0  0  0  0  0  0  0  0  0  0  0  # atno 17371 bound_to 10713
  140.9152  133.7683  155.9839 LP  0  0  0  0  0  0  0  0  0  0  0  0  # atno 17394 bound_to 11000
  140.8502  134.2963  157.5278 LP  0  0  0  0  0  0  0  0  0  0  0  0  # atno 17395 bound_to 11000

$$$$
