AV-unprocessed.smi:1005|AV-procd|sdf|4389|dock6
  -GOLD-   22720 2313D 1   1.00000     0.00000
 Structure written by MMmdl.
 55 57  0  0  0  0  0  0  0  0  1 V2000
  151.3686  144.2393  158.8007 C   0  0  0  0  0  0  0  0  0  0  0  0
  151.3415  142.8838  158.1170 C   0  0  0  0  0  0  0  0  0  0  0  0
  150.7038  142.7593  156.8614 C   0  0  0  0  0  0  0  0  0  0  0  0
  150.6511  141.5146  156.1961 C   0  0  0  0  0  0  0  0  0  0  0  0
  150.0870  141.1651  154.9806 N   0  0  0  0  0  0  0  0  0  0  0  0
  150.3594  139.8642  154.9218 C   0  0  0  0  0  0  0  0  0  0  0  0
  151.0345  139.3302  155.9572 N   0  0  0  0  0  0  0  0  0  0  0  0
  151.4353  137.9479  156.1356 C   0  0  0  0  0  0  0  0  0  0  0  0
  150.9887  137.0651  154.9528 C   0  0  1  0  0  0  0  0  0  0  0  0
  151.9074  137.2161  153.8896 O   0  0  0  0  0  0  0  0  0  0  0  0
  150.9060  135.5678  155.3107 C   0  0  0  0  0  0  0  0  0  0  0  0
  149.9839  134.7785  154.4931 N   0  0  0  0  0  0  0  0  0  0  0  0
  148.5964  135.1098  154.7937 C   0  0  0  0  0  0  0  0  0  0  0  0
  147.6150  134.2964  153.9335 C   0  0  0  0  0  0  0  0  0  0  0  0
  147.8713  132.9063  154.1061 O   0  0  0  0  0  0  0  0  0  0  0  0
  149.2033  132.5355  153.7559 C   0  0  2  0  0  0  0  0  0  0  0  0
  149.3879  131.0167  153.9382 C   0  0  0  0  0  0  0  0  0  0  0  0
  148.6765  130.1725  152.9767 N   0  0  0  0  0  0  0  0  0  0  0  0
  147.2324  130.1862  153.1765 C   0  0  0  0  0  0  0  0  0  0  0  0
  149.1781  128.8063  153.0229 C   0  0  0  0  0  0  0  0  0  0  0  0
  150.1710  133.3376  154.6470 C   0  0  0  0  0  0  0  0  0  0  0  0
  151.2573  140.3903  156.8278 C   0  0  0  0  0  0  0  0  0  0  0  0
  151.9003  140.5023  158.0728 C   0  0  0  0  0  0  0  0  0  0  0  0
  151.9448  141.7525  158.7234 C   0  0  0  0  0  0  0  0  0  0  0  0
  152.6412  141.8609  160.0684 C   0  0  0  0  0  0  0  0  0  0  0  0
  150.8521  144.9952  158.2085 H   0  0  0  0  0  0  0  0  0  0  0  0
  152.3962  144.5725  158.9470 H   0  0  0  0  0  0  0  0  0  0  0  0
  150.8794  144.1861  159.7735 H   0  0  0  0  0  0  0  0  0  0  0  0
  150.2458  143.6209  156.3984 H   0  0  0  0  0  0  0  0  0  0  0  0
  150.0445  139.2629  154.0815 H   0  0  0  0  0  0  0  0  0  0  0  0
  152.5165  137.9012  156.2734 H   0  0  0  0  0  0  0  0  0  0  0  0
  150.9884  137.5957  157.0658 H   0  0  0  0  0  0  0  0  0  0  0  0
  150.0247  137.4096  154.5788 H   0  0  0  0  0  0  0  0  0  0  0  0
  151.4231  137.2657  153.0797 H   0  0  0  0  0  0  0  0  0  0  0  0
  151.9036  135.1297  155.2512 H   0  0  0  0  0  0  0  0  0  0  0  0
  150.6059  135.4871  156.3565 H   0  0  0  0  0  0  0  0  0  0  0  0
  148.3917  134.9208  155.8487 H   0  0  0  0  0  0  0  0  0  0  0  0
  148.4241  136.1738  154.6281 H   0  0  0  0  0  0  0  0  0  0  0  0
  146.5867  134.5089  154.2264 H   0  0  0  0  0  0  0  0  0  0  0  0
  147.7107  134.5629  152.8798 H   0  0  0  0  0  0  0  0  0  0  0  0
  149.3902  132.7922  152.7113 H   0  0  0  0  0  0  0  0  0  0  0  0
  150.4541  130.8083  153.8374 H   0  0  0  0  0  0  0  0  0  0  0  0
  149.1271  130.7313  154.9585 H   0  0  0  0  0  0  0  0  0  0  0  0
  146.7393  129.5053  152.4818 H   0  0  0  0  0  0  0  0  0  0  0  0
  146.8186  131.1776  152.9961 H   0  0  0  0  0  0  0  0  0  0  0  0
  146.9709  129.8820  154.1908 H   0  0  0  0  0  0  0  0  0  0  0  0
  148.6855  128.1872  152.2723 H   0  0  0  0  0  0  0  0  0  0  0  0
  149.0058  128.3560  154.0015 H   0  0  0  0  0  0  0  0  0  0  0  0
  150.2490  128.7787  152.8189 H   0  0  0  0  0  0  0  0  0  0  0  0
  151.1890  133.0591  154.3798 H   0  0  0  0  0  0  0  0  0  0  0  0
  150.0320  133.0535  155.6915 H   0  0  0  0  0  0  0  0  0  0  0  0
  152.3544  139.6321  158.5230 H   0  0  0  0  0  0  0  0  0  0  0  0
  153.0483  140.8999  160.3844 H   0  0  0  0  0  0  0  0  0  0  0  0
  151.9424  142.1960  160.8352 H   0  0  0  0  0  0  0  0  0  0  0  0
  153.4660  142.5719  160.0153 H   0  0  0  0  0  0  0  0  0  0  0  0
  1  2  1  0  0  0  0
  1 26  1  0  0  0  0
  1 27  1  0  0  0  0
  1 28  1  0  0  0  0
  2 24  1  0  0  0  0
  2  3  2  0  0  0  0
  3  4  1  0  0  0  0
  3 29  1  0  0  0  0
  4 22  2  0  0  0  0
  4  5  1  0  0  0  0
  5  6  2  0  0  0  0
  6  7  1  0  0  0  0
  6 30  1  0  0  0  0
  7  8  1  0  0  0  0
  7 22  1  0  0  0  0
  8  9  1  0  0  0  0
  8 31  1  0  0  0  0
  8 32  1  0  0  0  0
  9 10  1  0  0  0  0
  9 11  1  0  0  0  0
  9 33  1  0  0  0  0
 10 34  1  0  0  0  0
 11 12  1  0  0  0  0
 11 35  1  0  0  0  0
 11 36  1  0  0  0  0
 12 21  1  0  0  0  0
 12 13  1  0  0  0  0
 13 14  1  0  0  0  0
 13 37  1  0  0  0  0
 13 38  1  0  0  0  0
 14 15  1  0  0  0  0
 14 39  1  0  0  0  0
 14 40  1  0  0  0  0
 15 16  1  0  0  0  0
 16 17  1  0  0  0  0
 16 21  1  0  0  0  0
 16 41  1  0  0  0  0
 17 18  1  0  0  0  0
 17 42  1  0  0  0  0
 17 43  1  0  0  0  0
 18 19  1  0  0  0  0
 18 20  1  0  0  0  0
 19 44  1  0  0  0  0
 19 45  1  0  0  0  0
 19 46  1  0  0  0  0
 20 47  1  0  0  0  0
 20 48  1  0  0  0  0
 20 49  1  0  0  0  0
 21 50  1  0  0  0  0
 21 51  1  0  0  0  0
 22 23  1  0  0  0  0
 23 24  2  0  0  0  0
 23 52  1  0  0  0  0
 24 25  1  0  0  0  0
 25 53  1  0  0  0  0
 25 54  1  0  0  0  0
 25 55  1  0  0  0  0
M  END
> <s_m_source_file>
AV-unprocessed.smi

> <i_m_source_file_index>
1005

> <i_lp_mmshare_version>
43012

> <i_f3d_flags>
0

> <s_epik_input>
W0NIM11jKFtjSF0xKWMoW0NIM10pW2NIXWMoYzEyKW4oW2NIXW4yKVtDSDJdW0NASF0oW09IXSlbQ0gyXU4zW0NIMl1bQ0gyXU9bQ0BIXShbQ0gyXTMpW0NIMl1OKFtDSDNdKVtDSDNd

> <s_epik_cmdline>
J2VwaWtfcHl0aG9uJywgJy1waCcsICc3LjAnLCAnLXRuJywgJzgnLCAnLW1hJywgJzIwMCcsICctbWV0YWxfYmluZGluZycsICctaW1hZScsICc8aW5maWxlLm1hZT4nLCAnLW9tYWUnLCAnPG91dGZpbGUubWFlPic=

> <r_epik_Ionization_Penalty>
2.78613

> <r_epik_Ionization_Penalty_Charging>
0

> <r_epik_Ionization_Penalty_Neutral>
2.78613

> <r_epik_State_Penalty>
2.57336

> <r_epik_Charging_Adjusted_Penalty>
2.57336

> <i_epik_Tot_Q>
0

> <i_epik_Tot_abs_Q>
0

> <r_epik_Metal_State_Penalty>
2.49087

> <b_epik_Metal_Only>
0

> <s_lp_Force_Field>
OPLS_2005

> <r_lp_Energy>
32.9837

> <b_lp_Chiralities_Consistent>
1

> <s_lp_Variant>
AV-unprocessed.smi:1005-28

> <Gold.Version>
5.8.1

> <Gold.Id.Protein>
6NUR|6NUR_protein|mol2

> <Gold.PLP.Fitness>
48.4351

> <Gold.PLP.PLP>
-44.9980

> <Gold.PLP.part.hbond>
-3.0000

> <Gold.PLP.part.metal>
0.0000

> <Gold.PLP.part.buried>
-3.4078

> <Gold.PLP.part.nonpolar>
-38.5087

> <Gold.PLP.part.repulsive>
1.0806

> <Gold.PLP.ligand.clash>
0.0000

> <Gold.PLP.ligand.torsion>
0.6882

> <Gold.PLP.Chemscore.Hbond>
1.5760

> <Gold.PLP.Chemscore.CHOScore>
0.0000

> <Gold.PLP.Chemscore.Metal>
0.0000

> <Gold.Chemscore.Hbonds>
donor molecule, donor type, donor heavy atom, donor atom, acceptor molecule, acceptor atom, score
      L1  H    10    34       P1  7949  0.65
      P1  H 10752 10763       L1    10  1.00

> <Gold.PLP.Chemscore.Internal.Correction>
0.0856

> <Gold.Rescore>
     Score         DG    S(hbond)    S(metal)    S(lipo)     H(rot)  DE(clash)    DE(int)     intcor
     15.35     -17.58       1.19        0.00     119.51       2.29       0.46       1.77       ----

> <Gold.Chemscore.Fitness>
15.3493

> <Gold.Chemscore.DG>
-17.5829

> <Gold.Chemscore.ZeroCoef>
-5.4800

> <Gold.Chemscore.Hbond>
1.1919

> <Gold.Chemscore.Metal>
0.0000

> <Gold.Chemscore.Lipo>
119.5133

> <Gold.Chemscore.Internal_Hbond>
0.0000

> <Gold.Chemscore.DEClash>
0.4605

> <Gold.Chemscore.DEInternal>
1.7732

> <Gold.Chemscore.Rot>
2.2895

> <Gold.Chemscore.Internal.Correction>
   9.000000E+99

> <Gold.Chemscore.Hbonds>
donor molecule, donor type, donor heavy atom, donor atom, acceptor molecule, acceptor atom, score
      L1  H    10    34       P1  7949  0.50
      P1  H 10752 10763       L1    10  0.51

> <Gold.Chemscore.Hbond.Weighted>
-3.9810

> <Gold.Chemscore.Metal.Weighted>
-0.0000

> <Gold.Chemscore.Lipo.Weighted>
-13.9831

> <Gold.Chemscore.Internal_Hbond.Weighted>
0.0000

> <Gold.Chemscore.DEClash.Weighted>
0.4605

> <Gold.Chemscore.DEInternal.Weighted>
1.7732

> <Gold.Chemscore.Rot.Weighted>
5.8612

> <Gold.Chemscore.Internal.Correction.Weighted>
   9.000000E+99

> <Gold.Protein.RotatedTorsions>
[ 6907 6896 6895 6894 ] final  162.24 input  -60.11 | X-H torsion
[ 7974 7965 7964 7962 ] final  110.80 input  175.53 | X-H torsion
[ 8008 7997 7996 7995 ] final -173.45 input   59.86 | X-H torsion
[ 10167 10162 10161 10158 ] final  -59.65 input  -65.29 | X-H torsion
[ 10718 10713 10712 10709 ] final -143.65 input   66.30 | X-H torsion
[ 10763 10752 10751 10750 ] final   17.22 input  -60.55 | X-H torsion
[ 11005 11000 10999 10996 ] final   95.44 input  -57.11 | X-H torsion

> <Gold.Protein.ActiveResidues>
 VAL166  LYS551  ARG553  GLY616  TRP617  ASP618  TYR619  PRO620  LYS621  CYS622 
 ASP623  PHE694  ASN695  SER759  ASP760  ASP761  ALA762  ILE779  LEU786  VAL792 
 PHE793  MET794  SER795  GLU796  ALA797  LYS798  CYS799  TRP800  GLU811  SER814 

> <Gold.Protein.RotatedAtoms>
  151.9434  133.3644  159.3973 H   0  0  0  0  0  0  0  0  0  0  0  0  # atno 6907 bound_to 6896
  150.6994  134.4415  159.5304 H   0  0  0  0  0  0  0  0  0  0  0  0  # atno 6908 bound_to 6896
  152.2076  134.8531  160.0552 H   0  0  0  0  0  0  0  0  0  0  0  0  # atno 6909 bound_to 6896
  145.2504  139.2742  143.4070 H   0  0  0  0  0  0  0  0  0  0  0  0  # atno 7974 bound_to 7965
  155.9576  140.1138  157.0923 H   0  0  0  0  0  0  0  0  0  0  0  0  # atno 8008 bound_to 7997
  154.4124  140.1188  156.5202 H   0  0  0  0  0  0  0  0  0  0  0  0  # atno 8009 bound_to 7997
  155.6762  140.3473  155.4839 H   0  0  0  0  0  0  0  0  0  0  0  0  # atno 8010 bound_to 7997
  140.6122  143.2391  151.5683 H   0  0  0  0  0  0  0  0  0  0  0  0  # atno 10167 bound_to 10162
  156.3605  130.7735  151.1902 H   0  0  0  0  0  0  0  0  0  0  0  0  # atno 10718 bound_to 10713
  153.1359  135.6750  153.9104 H   0  0  0  0  0  0  0  0  0  0  0  0  # atno 10763 bound_to 10752
  153.8576  135.3085  155.3437 H   0  0  0  0  0  0  0  0  0  0  0  0  # atno 10764 bound_to 10752
  154.7747  135.4921  153.9802 H   0  0  0  0  0  0  0  0  0  0  0  0  # atno 10765 bound_to 10752
  139.8789  134.8899  156.4011 H   0  0  0  0  0  0  0  0  0  0  0  0  # atno 11005 bound_to 11000
  146.3304  140.2893  142.8614 LP  0  0  0  0  0  0  0  0  0  0  0  0  # atno 17320 bound_to 7965
  144.9508  140.8176  143.5573 LP  0  0  0  0  0  0  0  0  0  0  0  0  # atno 17321 bound_to 7965
  139.5370  144.2754  152.1272 LP  0  0  0  0  0  0  0  0  0  0  0  0  # atno 17342 bound_to 10162
  140.1955  144.4709  150.6457 LP  0  0  0  0  0  0  0  0  0  0  0  0  # atno 17343 bound_to 10162
  157.7473  131.0401  150.4584 LP  0  0  0  0  0  0  0  0  0  0  0  0  # atno 17370 bound_to 10713
  156.4794  130.4070  149.6471 LP  0  0  0  0  0  0  0  0  0  0  0  0  # atno 17371 bound_to 10713
  140.9266  133.7608  155.9972 LP  0  0  0  0  0  0  0  0  0  0  0  0  # atno 17394 bound_to 11000
  140.8379  134.3102  157.5325 LP  0  0  0  0  0  0  0  0  0  0  0  0  # atno 17395 bound_to 11000

$$$$
