AV-unprocessed.smi:408|AV-procd|sdf|2504|dock6
  -GOLD-   2262022453D 1   1.00000     0.00000
 Structure written by MMmdl.
 40 41  0  0  0  0  0  0  0  0  2 V2000
  152.5691  144.6527  157.9389 C   0  0  0  0  0  0  0  0  0  0  0  0
  152.0668  143.8218  159.1311 C   0  0  0  0  0  0  0  0  0  0  0  0
  151.4073  144.7320  160.1776 C   0  0  0  0  0  0  0  0  0  0  0  0
  153.1958  142.9810  159.7686 C   0  0  0  0  0  0  0  0  0  0  0  0
  152.8033  141.5484  160.1805 C   0  0  0  0  0  0  0  0  0  0  0  0
  152.1845  140.8296  159.0728 N   0  0  0  0  0  0  0  0  0  0  0  0
  152.7332  139.8135  158.3880 C   0  0  0  0  0  0  0  0  0  0  0  0
  153.8073  139.2914  158.6854 O   0  0  0  0  0  0  0  0  0  0  0  0
  151.9585  139.3333  157.1592 C   0  0  0  0  0  0  0  0  0  0  0  0
  150.6950  138.6545  157.6022 C   0  0  0  0  0  0  0  0  0  0  0  0
  149.4249  138.8903  157.1414 C   0  0  0  0  0  0  0  0  0  0  0  0
  148.2680  137.8101  157.8626 S   0  0  0  0  0  0  0  0  0  0  0  0
  149.5636  137.0638  158.7977 C   0  0  0  0  0  0  0  0  0  0  0  0
  149.3933  136.0381  159.6513 N   0  5  0  0  0  0  0  0  0  0  0  0
  148.3499  135.9593  160.5236 C   0  0  0  0  0  0  0  0  0  0  0  0
  147.6725  136.9125  160.9048 O   0  0  0  0  0  0  0  0  0  0  0  0
  148.0535  134.5770  161.0364 C   0  0  0  0  0  0  0  0  0  0  0  0
  146.6418  134.0388  160.8989 C   0  0  0  0  0  0  0  0  0  0  0  0
  147.1470  134.4820  162.2473 C   0  0  0  0  0  0  0  0  0  0  0  0
  150.7465  137.6451  158.5663 N   0  0  0  0  0  0  0  0  0  0  0  0
  153.3883  145.3106  158.2304 H   0  0  0  0  0  0  0  0  0  0  0  0
  151.7735  145.2780  157.5335 H   0  0  0  0  0  0  0  0  0  0  0  0
  152.9216  144.0166  157.1274 H   0  0  0  0  0  0  0  0  0  0  0  0
  151.2883  143.1497  158.7692 H   0  0  0  0  0  0  0  0  0  0  0  0
  152.1266  145.4294  160.6074 H   0  0  0  0  0  0  0  0  0  0  0  0
  150.9794  144.1475  160.9923 H   0  0  0  0  0  0  0  0  0  0  0  0
  150.5989  145.3163  159.7369 H   0  0  0  0  0  0  0  0  0  0  0  0
  154.0392  142.9330  159.0785 H   0  0  0  0  0  0  0  0  0  0  0  0
  153.5699  143.4985  160.6533 H   0  0  0  0  0  0  0  0  0  0  0  0
  153.6596  141.0092  160.5870 H   0  0  0  0  0  0  0  0  0  0  0  0
  152.0720  141.5964  160.9874 H   0  0  0  0  0  0  0  0  0  0  0  0
  151.2960  141.1830  158.7486 H   0  0  0  0  0  0  0  0  0  0  0  0
  151.7389  140.1832  156.5117 H   0  0  0  0  0  0  0  0  0  0  0  0
  152.5825  138.6527  156.5789 H   0  0  0  0  0  0  0  0  0  0  0  0
  149.1041  139.6122  156.4056 H   0  0  0  0  0  0  0  0  0  0  0  0
  148.8531  133.8439  160.9436 H   0  0  0  0  0  0  0  0  0  0  0  0
  145.8843  134.6610  160.4258 H   0  0  0  0  0  0  0  0  0  0  0  0
  146.5376  132.9710  160.7186 H   0  0  0  0  0  0  0  0  0  0  0  0
  147.3963  133.7265  162.9879 H   0  0  0  0  0  0  0  0  0  0  0  0
  146.7427  135.4069  162.6553 H   0  0  0  0  0  0  0  0  0  0  0  0
  1  2  1  0  0  0  0
  1 21  1  0  0  0  0
  1 22  1  0  0  0  0
  1 23  1  0  0  0  0
  2  3  1  0  0  0  0
  2  4  1  0  0  0  0
  2 24  1  0  0  0  0
  3 25  1  0  0  0  0
  3 26  1  0  0  0  0
  3 27  1  0  0  0  0
  4  5  1  0  0  0  0
  4 28  1  0  0  0  0
  4 29  1  0  0  0  0
  5  6  1  0  0  0  0
  5 30  1  0  0  0  0
  5 31  1  0  0  0  0
  6  7  1  0  0  0  0
  6 32  1  0  0  0  0
  7  8  2  0  0  0  0
  7  9  1  0  0  0  0
  9 10  1  0  0  0  0
  9 33  1  0  0  0  0
  9 34  1  0  0  0  0
 10 20  1  0  0  0  0
 10 11  2  0  0  0  0
 11 12  1  0  0  0  0
 11 35  1  0  0  0  0
 12 13  1  0  0  0  0
 13 14  1  0  0  0  0
 13 20  2  0  0  0  0
 14 15  1  0  0  0  0
 15 16  2  0  0  0  0
 15 17  1  0  0  0  0
 17 19  1  0  0  0  0
 17 18  1  0  0  0  0
 17 36  1  0  0  0  0
 18 19  1  0  0  0  0
 18 37  1  0  0  0  0
 18 38  1  0  0  0  0
 19 39  1  0  0  0  0
 19 40  1  0  0  0  0
M  CHG  1  14  -1
M  END
> <s_m_source_file>
AV-unprocessed.smi

> <i_m_source_file_index>
408

> <i_lp_mmshare_version>
43012

> <i_f3d_flags>
0

> <s_epik_input>
W0NIM11bQ0hdKFtDSDNdKVtDSDJdW0NIMl1bTkhdQyg9TylbQ0gyXWMxW2NIXXNjKG4xKVtOSF1DKD1PKVtDSF0yW0NIMl1bQ0gyXTI=

> <s_epik_cmdline>
J2VwaWtfcHl0aG9uJywgJy1waCcsICc3LjAnLCAnLXRuJywgJzgnLCAnLW1hJywgJzIwMCcsICctbWV0YWxfYmluZGluZycsICctaW1hZScsICc8aW5maWxlLm1hZT4nLCAnLW9tYWUnLCAnPG91dGZpbGUubWFlPic=

> <r_lp_tautomer_probability>
1

> <r_epik_Ionization_Penalty>
5.55111

> <r_epik_Ionization_Penalty_Charging>
5.01898

> <r_epik_Ionization_Penalty_Neutral>
0.532133

> <r_epik_State_Penalty>
5.01885

> <r_epik_Charging_Adjusted_Penalty>
10.0378

> <i_epik_Tot_Q>
-1

> <i_epik_Tot_abs_Q>
1

> <r_epik_Metal_State_Penalty>
1.13336

> <b_epik_Metal_Only>
1

> <s_lp_Force_Field>
OPLS_2005

> <r_lp_Energy>
8.36317

> <b_lp_Chiralities_Consistent>
1

> <s_lp_Variant>
AV-unprocessed.smi:408-2

> <Gold.Version>
5.8.1

> <Gold.Id.Protein>
6NUR|6NUR_protein|mol2

> <Gold.PLP.Fitness>
53.2858

> <Gold.PLP.PLP>
-41.4802

> <Gold.PLP.part.hbond>
-4.0000

> <Gold.PLP.part.metal>
0.0000

> <Gold.PLP.part.buried>
-5.5597

> <Gold.PLP.part.nonpolar>
-32.1526

> <Gold.PLP.part.repulsive>
0.1306

> <Gold.PLP.ligand.clash>
0.0000

> <Gold.PLP.ligand.torsion>
1.4261

> <Gold.PLP.Chemscore.Hbond>
4.8465

> <Gold.PLP.Chemscore.CHOScore>
0.0000

> <Gold.PLP.Chemscore.Metal>
0.0000

> <Gold.Chemscore.Hbonds>
donor molecule, donor type, donor heavy atom, donor atom, acceptor molecule, acceptor atom, score
      P1  H  6896  6909       L1    14  2.00
      P1  H  6931  6943       L1    16  0.68
      P1  H  6934  6947       L1    16  0.64
      P1  H  7997  8009       L1     8  0.95

> <Gold.PLP.Chemscore.Internal.Correction>
0.1184

> <Gold.Rescore>
     Score         DG    S(hbond)    S(metal)    S(lipo)     H(rot)  DE(clash)    DE(int)     intcor
     20.61     -21.76       3.11        0.00      92.32       1.92       0.06       1.10       ----

> <Gold.Chemscore.Fitness>
20.6091

> <Gold.Chemscore.DG>
-21.7632

> <Gold.Chemscore.ZeroCoef>
-5.4800

> <Gold.Chemscore.Hbond>
3.1129

> <Gold.Chemscore.Metal>
0.0000

> <Gold.Chemscore.Lipo>
92.3165

> <Gold.Chemscore.Internal_Hbond>
0.0000

> <Gold.Chemscore.DEClash>
0.0579

> <Gold.Chemscore.DEInternal>
1.0962

> <Gold.Chemscore.Rot>
1.9198

> <Gold.Chemscore.Internal.Correction>
   9.000000E+99

> <Gold.Chemscore.Hbonds>
donor molecule, donor type, donor heavy atom, donor atom, acceptor molecule, acceptor atom, score
      P1  H  6896  6909       L1    14  0.90
      P1  H  6931  6943       L1    16  0.35
      P1  H  6934  6947       L1    16  0.62
      P1  H  7997  8009       L1     8  0.21

> <Gold.Chemscore.Hbond.Weighted>
-10.3970

> <Gold.Chemscore.Metal.Weighted>
-0.0000

> <Gold.Chemscore.Lipo.Weighted>
-10.8010

> <Gold.Chemscore.Internal_Hbond.Weighted>
0.0000

> <Gold.Chemscore.DEClash.Weighted>
0.0579

> <Gold.Chemscore.DEInternal.Weighted>
1.0962

> <Gold.Chemscore.Rot.Weighted>
4.9148

> <Gold.Chemscore.Internal.Correction.Weighted>
   9.000000E+99

> <Gold.Protein.RotatedTorsions>
[ 6907 6896 6895 6894 ] final   68.07 input  -60.11 | X-H torsion
[ 7974 7965 7964 7962 ] final   21.95 input  175.53 | X-H torsion
[ 8008 7997 7996 7995 ] final  132.50 input   59.86 | X-H torsion
[ 10167 10162 10161 10158 ] final  -39.11 input  -65.29 | X-H torsion
[ 10718 10713 10712 10709 ] final  135.31 input   66.30 | X-H torsion
[ 10763 10752 10751 10750 ] final   19.01 input  -60.55 | X-H torsion
[ 11005 11000 10999 10996 ] final  -77.38 input  -57.11 | X-H torsion

> <Gold.Protein.ActiveResidues>
 VAL166  LYS551  ARG553  GLY616  TRP617  ASP618  TYR619  PRO620  LYS621  CYS622 
 ASP623  PHE694  ASN695  SER759  ASP760  ASP761  ALA762  ILE779  LEU786  VAL792 
 PHE793  MET794  SER795  GLU796  ALA797  LYS798  CYS799  TRP800  GLU811  SER814 

> <Gold.Protein.RotatedAtoms>
  152.4596  134.5215  159.9783 H   0  0  0  0  0  0  0  0  0  0  0  0  # atno 6907 bound_to 6896
  151.5267  133.3450  159.2919 H   0  0  0  0  0  0  0  0  0  0  0  0  # atno 6908 bound_to 6896
  150.8553  134.7920  159.7103 H   0  0  0  0  0  0  0  0  0  0  0  0  # atno 6909 bound_to 6896
  146.2050  139.7955  142.8733 H   0  0  0  0  0  0  0  0  0  0  0  0  # atno 7974 bound_to 7965
  156.2983  140.2545  156.3100 H   0  0  0  0  0  0  0  0  0  0  0  0  # atno 8008 bound_to 7997
  154.9335  140.0398  157.2079 H   0  0  0  0  0  0  0  0  0  0  0  0  # atno 8009 bound_to 7997
  154.8195  140.2858  155.5801 H   0  0  0  0  0  0  0  0  0  0  0  0  # atno 8010 bound_to 7997
  140.7073  143.3234  151.2737 H   0  0  0  0  0  0  0  0  0  0  0  0  # atno 10167 bound_to 10162
  157.4583  131.1071  150.9950 H   0  0  0  0  0  0  0  0  0  0  0  0  # atno 10718 bound_to 10713
  153.1199  135.6716  153.9354 H   0  0  0  0  0  0  0  0  0  0  0  0  # atno 10763 bound_to 10752
  153.8873  135.3051  155.3448 H   0  0  0  0  0  0  0  0  0  0  0  0  # atno 10764 bound_to 10752
  154.7611  135.4987  153.9546 H   0  0  0  0  0  0  0  0  0  0  0  0  # atno 10765 bound_to 10752
  141.1660  133.7020  156.7812 H   0  0  0  0  0  0  0  0  0  0  0  0  # atno 11005 bound_to 11000
  145.3352  141.0275  143.3424 LP  0  0  0  0  0  0  0  0  0  0  0  0  # atno 17320 bound_to 7965
  144.8771  139.4956  143.6740 LP  0  0  0  0  0  0  0  0  0  0  0  0  # atno 17321 bound_to 7965
  139.6695  144.0045  152.2744 LP  0  0  0  0  0  0  0  0  0  0  0  0  # atno 17342 bound_to 10162
  139.9639  144.6539  150.8053 LP  0  0  0  0  0  0  0  0  0  0  0  0  # atno 17343 bound_to 10162
  157.0756  130.5882  149.5410 LP  0  0  0  0  0  0  0  0  0  0  0  0  # atno 17370 bound_to 10713
  156.0017  130.5097  150.7687 LP  0  0  0  0  0  0  0  0  0  0  0  0  # atno 17371 bound_to 10713
  140.2393  134.8626  157.3557 LP  0  0  0  0  0  0  0  0  0  0  0  0  # atno 17394 bound_to 11000
  140.1812  134.4488  155.7771 LP  0  0  0  0  0  0  0  0  0  0  0  0  # atno 17395 bound_to 11000

$$$$
