AV-unprocessed.smi:143|AV-procd|sdf|1193|dock1
  -GOLD-   2262018353D 1   1.00000     0.00000
 Structure written by MMmdl.
 38 40  0  0  0  0  0  0  0  0  1 V2000
  151.9266  139.0677  158.3480 O   0  0  0  0  0  0  0  0  0  0  0  0
  151.9969  140.0698  157.6334 C   0  0  0  0  0  0  0  0  0  0  0  0
  152.1319  139.9192  156.1030 C   0  0  0  0  0  0  0  0  0  0  0  0
  151.0957  139.0769  155.5156 N   0  0  0  0  0  0  0  0  0  0  0  0
  150.1957  139.6786  154.6002 C   0  0  0  0  0  0  0  0  0  0  0  0
  150.2659  140.8721  154.3013 O   0  0  0  0  0  0  0  0  0  0  0  0
  149.2045  138.7682  154.0379 C   0  0  0  0  0  0  0  0  0  0  0  0
  148.3076  139.2282  153.1494 F   0  0  0  0  0  0  0  0  0  0  0  0
  149.1748  137.4651  154.3917 C   0  0  0  0  0  0  0  0  0  0  0  0
  150.0548  136.9065  155.3007 N   0  0  0  0  0  0  0  0  0  0  0  0
  149.9735  135.4254  155.5906 C   0  0  2  0  0  0  0  0  0  0  0  0
  150.3307  134.5386  154.3825 C   0  0  0  0  0  0  0  0  0  0  0  0
  149.0764  133.7012  154.1929 C   0  0  0  0  0  0  0  0  0  0  0  0
  148.4021  133.7862  155.5577 C   0  0  0  0  0  0  0  0  0  0  0  0
  148.6680  135.1173  155.9712 O   0  0  0  0  0  0  0  0  0  0  0  0
  151.0743  137.7055  155.8688 C   0  0  0  0  0  0  0  0  0  0  0  0
  151.9141  137.2212  156.6297 O   0  0  0  0  0  0  0  0  0  0  0  0
  151.9670  141.4555  158.1865 C   0  0  0  0  0  0  0  0  0  0  0  0
  151.3485  142.4857  157.4393 C   0  0  0  0  0  0  0  0  0  0  0  0
  151.3055  143.8043  157.9323 C   0  0  0  0  0  0  0  0  0  0  0  0
  151.8851  144.1107  159.1770 C   0  0  0  0  0  0  0  0  0  0  0  0
  151.8291  145.8926  159.8431 Br  0  0  0  0  0  0  0  0  0  0  0  0
  152.5072  143.0964  159.9279 C   0  0  0  0  0  0  0  0  0  0  0  0
  152.5492  141.7767  159.4370 C   0  0  0  0  0  0  0  0  0  0  0  0
  152.0957  140.8905  155.6077 H   0  0  0  0  0  0  0  0  0  0  0  0
  153.0992  139.4915  155.8344 H   0  0  0  0  0  0  0  0  0  0  0  0
  148.4223  136.8362  153.9387 H   0  0  0  0  0  0  0  0  0  0  0  0
  150.6435  135.2459  156.4326 H   0  0  0  0  0  0  0  0  0  0  0  0
  150.5944  135.1190  153.4980 H   0  0  0  0  0  0  0  0  0  0  0  0
  151.1826  133.9134  154.6515 H   0  0  0  0  0  0  0  0  0  0  0  0
  148.4360  134.1499  153.4331 H   0  0  0  0  0  0  0  0  0  0  0  0
  149.2911  132.6760  153.8905 H   0  0  0  0  0  0  0  0  0  0  0  0
  147.3318  133.5843  155.5134 H   0  0  0  0  0  0  0  0  0  0  0  0
  148.8576  133.0875  156.2613 H   0  0  0  0  0  0  0  0  0  0  0  0
  150.8963  142.2757  156.4806 H   0  0  0  0  0  0  0  0  0  0  0  0
  150.8272  144.5805  157.3532 H   0  0  0  0  0  0  0  0  0  0  0  0
  152.9543  143.3295  160.8830 H   0  0  0  0  0  0  0  0  0  0  0  0
  153.0379  141.0272  160.0409 H   0  0  0  0  0  0  0  0  0  0  0  0
  1  2  2  0  0  0  0
  2  3  1  0  0  0  0
  2 18  1  0  0  0  0
  3  4  1  0  0  0  0
  3 25  1  0  0  0  0
  3 26  1  0  0  0  0
  4 16  1  0  0  0  0
  4  5  1  0  0  0  0
  5  6  2  0  0  0  0
  5  7  1  0  0  0  0
  7  8  1  0  0  0  0
  7  9  2  0  0  0  0
  9 10  1  0  0  0  0
  9 27  1  0  0  0  0
 10 11  1  0  0  0  0
 10 16  1  0  0  0  0
 11 15  1  0  0  0  0
 11 12  1  0  0  0  0
 11 28  1  0  0  0  0
 12 13  1  0  0  0  0
 12 29  1  0  0  0  0
 12 30  1  0  0  0  0
 13 14  1  0  0  0  0
 13 31  1  0  0  0  0
 13 32  1  0  0  0  0
 14 15  1  0  0  0  0
 14 33  1  0  0  0  0
 14 34  1  0  0  0  0
 16 17  2  0  0  0  0
 18 24  1  0  0  0  0
 18 19  2  0  0  0  0
 19 20  1  0  0  0  0
 19 35  1  0  0  0  0
 20 21  2  0  0  0  0
 20 36  1  0  0  0  0
 21 22  1  0  0  0  0
 21 23  1  0  0  0  0
 23 24  2  0  0  0  0
 23 37  1  0  0  0  0
 24 38  1  0  0  0  0
M  END
> <s_m_source_file>
AV-unprocessed.smi

> <i_m_source_file_index>
143

> <i_lp_mmshare_version>
43012

> <i_f3d_flags>
0

> <s_epik_input>
W2NIXTFbY0hdYyhCcilbY0hdW2NIXWMxQyg9TylbQ0gyXW4yYyg9TyljKEYpW2NIXW4oYzI9TylbQ0BASF0zW0NIMl1bQ0gyXVtDSDJdTzM=

> <s_epik_cmdline>
J2VwaWtfcHl0aG9uJywgJy1waCcsICc3LjAnLCAnLXRuJywgJzgnLCAnLW1hJywgJzIwMCcsICctbWV0YWxfYmluZGluZycsICctaW1hZScsICc8aW5maWxlLm1hZT4nLCAnLW9tYWUnLCAnPG91dGZpbGUubWFlPic=

> <r_lp_tautomer_probability>
1

> <r_epik_Ionization_Penalty>
4.7008e-09

> <r_epik_Ionization_Penalty_Charging>
4.69459e-09

> <r_epik_Ionization_Penalty_Neutral>
6.21034e-12

> <r_epik_State_Penalty>
-0

> <r_epik_Charging_Adjusted_Penalty>
4.69459e-09

> <i_epik_Tot_Q>
0

> <i_epik_Tot_abs_Q>
0

> <r_epik_Metal_State_Penalty>
-0

> <b_epik_Metal_Only>
0

> <s_epik_Chemistry_Notes>
This compound contains an acetal/aminal-like group ( X-CH(R)-Y where X, Y are N, S, or O) that may be acid/base labile, releasing an aldehyde.

> <s_lp_Force_Field>
OPLS_2005

> <r_lp_Energy>
36.1645

> <b_lp_Chiralities_Consistent>
1

> <s_lp_Variant>
AV-unprocessed.smi:143-1

> <Gold.Version>
5.8.1

> <Gold.Id.Protein>
6NUR|6NUR_protein|mol2

> <Gold.PLP.Fitness>
43.2038

> <Gold.PLP.PLP>
-40.9719

> <Gold.PLP.part.hbond>
-1.0000

> <Gold.PLP.part.metal>
0.0000

> <Gold.PLP.part.buried>
-1.6071

> <Gold.PLP.part.nonpolar>
-38.3687

> <Gold.PLP.part.repulsive>
0.1505

> <Gold.PLP.ligand.clash>
0.0000

> <Gold.PLP.ligand.torsion>
0.6711

> <Gold.PLP.Chemscore.Hbond>
0.7040

> <Gold.PLP.Chemscore.CHOScore>
0.4733

> <Gold.PLP.Chemscore.Metal>
0.0000

> <Gold.Chemscore.Hbonds>
donor molecule, donor type, donor heavy atom, donor atom, acceptor molecule, acceptor atom, score
      P1  H  7989  7998       L1     6  0.67
      L1  C     9    27       P1  7948  0.64

> <Gold.PLP.Chemscore.Internal.Correction>
0.0423

> <Gold.Rescore>
     Score         DG    S(hbond)    S(metal)    S(lipo)     H(rot)  DE(clash)    DE(int)     intcor
     13.32     -16.70       0.97        0.00     102.78       1.58       0.28       3.11       ----

> <Gold.Chemscore.Fitness>
13.3202

> <Gold.Chemscore.DG>
-16.7036

> <Gold.Chemscore.ZeroCoef>
-5.4800

> <Gold.Chemscore.Hbond>
0.9684

> <Gold.Chemscore.Metal>
0.0000

> <Gold.Chemscore.Lipo>
102.7764

> <Gold.Chemscore.Internal_Hbond>
0.0000

> <Gold.Chemscore.DEClash>
0.2768

> <Gold.Chemscore.DEInternal>
3.1066

> <Gold.Chemscore.Rot>
1.5765

> <Gold.Chemscore.Internal.Correction>
   9.000000E+99

> <Gold.Chemscore.Hbonds>
donor molecule, donor type, donor heavy atom, donor atom, acceptor molecule, acceptor atom, score
      P1  H  7989  7998       L1     6  0.20

> <Gold.Chemscore.Hbond.Weighted>
-3.2346

> <Gold.Chemscore.Metal.Weighted>
-0.0000

> <Gold.Chemscore.Lipo.Weighted>
-12.0248

> <Gold.Chemscore.Internal_Hbond.Weighted>
0.0000

> <Gold.Chemscore.DEClash.Weighted>
0.2768

> <Gold.Chemscore.DEInternal.Weighted>
3.1066

> <Gold.Chemscore.Rot.Weighted>
4.0359

> <Gold.Chemscore.Internal.Correction.Weighted>
   9.000000E+99

> <Gold.Protein.RotatedTorsions>
[ 6907 6896 6895 6894 ] final  -17.97 input  -60.11 | X-H torsion
[ 7974 7965 7964 7962 ] final -115.09 input  175.53 | X-H torsion
[ 8008 7997 7996 7995 ] final -164.83 input   59.86 | X-H torsion
[ 10167 10162 10161 10158 ] final  -36.05 input  -65.29 | X-H torsion
[ 10718 10713 10712 10709 ] final -152.14 input   66.30 | X-H torsion
[ 10763 10752 10751 10750 ] final   85.26 input  -60.55 | X-H torsion
[ 11005 11000 10999 10996 ] final   86.94 input  -57.11 | X-H torsion

> <Gold.Protein.ActiveResidues>
 VAL166  LYS551  ARG553  GLY616  TRP617  ASP618  TYR619  PRO620  LYS621  CYS622 
 ASP623  PHE694  ASN695  SER759  ASP760  ASP761  ALA762  ILE779  LEU786  VAL792 
 PHE793  MET794  SER795  GLU796  ALA797  LYS798  CYS799  TRP800  GLU811  SER814 

> <Gold.Protein.RotatedAtoms>
  151.2853  135.0726  159.9184 H   0  0  0  0  0  0  0  0  0  0  0  0  # atno 6907 bound_to 6896
  152.5326  133.9988  159.7895 H   0  0  0  0  0  0  0  0  0  0  0  0  # atno 6908 bound_to 6896
  151.0249  133.5792  159.2698 H   0  0  0  0  0  0  0  0  0  0  0  0  # atno 6909 bound_to 6896
  145.1125  140.8620  143.3861 H   0  0  0  0  0  0  0  0  0  0  0  0  # atno 7974 bound_to 7965
  155.8413  140.0948  157.1733 H   0  0  0  0  0  0  0  0  0  0  0  0  # atno 8008 bound_to 7997
  154.3982  140.1400  156.3793 H   0  0  0  0  0  0  0  0  0  0  0  0  # atno 8009 bound_to 7997
  155.8062  140.3451  155.5433 H   0  0  0  0  0  0  0  0  0  0  0  0  # atno 8010 bound_to 7997
  140.7151  143.3435  151.2306 H   0  0  0  0  0  0  0  0  0  0  0  0  # atno 10167 bound_to 10162
  156.4685  130.8247  151.2477 H   0  0  0  0  0  0  0  0  0  0  0  0  # atno 10718 bound_to 10713
  153.1459  135.4623  154.9564 H   0  0  0  0  0  0  0  0  0  0  0  0  # atno 10763 bound_to 10752
  154.7785  135.3181  154.8043 H   0  0  0  0  0  0  0  0  0  0  0  0  # atno 10764 bound_to 10752
  153.8557  135.6917  153.4842 H   0  0  0  0  0  0  0  0  0  0  0  0  # atno 10765 bound_to 10752
  139.8932  134.8389  156.2791 H   0  0  0  0  0  0  0  0  0  0  0  0  # atno 11005 bound_to 11000
  145.0831  139.2945  143.5773 LP  0  0  0  0  0  0  0  0  0  0  0  0  # atno 17320 bound_to 7965
  146.3525  140.0343  142.8648 LP  0  0  0  0  0  0  0  0  0  0  0  0  # atno 17321 bound_to 7965
  139.6948  143.9631  152.2877 LP  0  0  0  0  0  0  0  0  0  0  0  0  # atno 17342 bound_to 10162
  139.9304  144.6745  150.8368 LP  0  0  0  0  0  0  0  0  0  0  0  0  # atno 17343 bound_to 10162
  157.7493  131.0084  150.3226 LP  0  0  0  0  0  0  0  0  0  0  0  0  # atno 17370 bound_to 10713
  156.3642  130.3852  149.7227 LP  0  0  0  0  0  0  0  0  0  0  0  0  # atno 17371 bound_to 10713
  141.0051  133.7128  156.1021 LP  0  0  0  0  0  0  0  0  0  0  0  0  # atno 17394 bound_to 11000
  140.7445  134.4113  157.5550 LP  0  0  0  0  0  0  0  0  0  0  0  0  # atno 17395 bound_to 11000

$$$$
