AV-unprocessed.smi:3208|AV-procd|sdf|12264|dock2
  -GOLD-   2272018103D 1   1.00000     0.00000
 Structure written by MMmdl.
 29 29  0  0  0  0  0  0  0  0  2 V2000
  152.9830  137.3710  154.4956 C   0  0  0  0  0  0  0  0  0  0  0  0
  151.6558  137.2044  154.6120 C   0  0  0  0  0  0  0  0  0  0  0  0
  150.9628  135.9309  155.0556 C   0  0  0  0  0  0  0  0  0  0  0  0
  150.7470  135.9077  156.4633 O   0  0  0  0  0  0  0  0  0  0  0  0
  149.3822  135.9880  156.8673 C   0  0  2  0  0  0  0  0  0  0  0  0
  149.0941  137.4445  157.2560 C   0  0  0  0  0  0  0  0  0  0  0  0
  149.1143  135.0455  158.0525 C   0  0  0  0  0  0  0  0  0  0  0  0
  149.3720  133.8453  157.9220 O   0  0  0  0  0  0  0  0  0  0  0  0
  148.5950  135.7260  159.1507 N   0  0  0  0  0  0  0  0  0  0  0  0
  148.0120  135.1334  160.1572 C   0  0  0  0  0  0  0  0  0  0  0  0
  147.8394  133.7406  160.2393 N   0  0  0  0  0  0  0  0  0  0  0  0
  147.2226  133.1203  161.3050 C   0  0  0  0  0  0  0  0  0  0  0  0
  146.7446  133.8178  162.3368 C   0  0  0  0  0  0  0  0  0  0  0  0
  146.8810  135.2599  162.3297 C   0  0  0  0  0  0  0  0  0  0  0  0
  147.4984  135.9443  161.2761 C   0  0  0  0  0  0  0  0  0  0  0  0
  147.5945  137.1931  161.3127 O   0  5  0  0  0  0  0  0  0  0  0  0
  153.6776  136.5748  154.7193 H   0  0  0  0  0  0  0  0  0  0  0  0
  153.3939  138.3158  154.1716 H   0  0  0  0  0  0  0  0  0  0  0  0
  151.0049  138.0332  154.3754 H   0  0  0  0  0  0  0  0  0  0  0  0
  150.0083  135.8608  154.5323 H   0  0  0  0  0  0  0  0  0  0  0  0
  151.5740  135.0859  154.7376 H   0  0  0  0  0  0  0  0  0  0  0  0
  148.7442  135.7259  156.0204 H   0  0  0  0  0  0  0  0  0  0  0  0
  148.0553  137.5746  157.5619 H   0  0  0  0  0  0  0  0  0  0  0  0
  149.2747  138.1119  156.4132 H   0  0  0  0  0  0  0  0  0  0  0  0
  149.7305  137.7721  158.0791 H   0  0  0  0  0  0  0  0  0  0  0  0
  147.1625  132.0447  161.2307 H   0  0  0  0  0  0  0  0  0  0  0  0
  146.2637  133.3166  163.1638 H   0  0  0  0  0  0  0  0  0  0  0  0
  146.4901  135.8144  163.1708 H   0  0  0  0  0  0  0  0  0  0  0  0
  148.1715  133.1361  159.5025 H   0  0  0  0  0  0  0  0  0  0  0  0
  1  2  2  0  0  0  0
  1 17  1  0  0  0  0
  1 18  1  0  0  0  0
  2  3  1  0  0  0  0
  2 19  1  0  0  0  0
  3  4  1  0  0  0  0
  3 20  1  0  0  0  0
  3 21  1  0  0  0  0
  4  5  1  0  0  0  0
  5  6  1  0  0  0  0
  5  7  1  0  0  0  0
  5 22  1  0  0  0  0
  6 23  1  0  0  0  0
  6 24  1  0  0  0  0
  6 25  1  0  0  0  0
  7  8  2  0  0  0  0
  7  9  1  0  0  0  0
  9 10  2  0  0  0  0
 10 15  1  0  0  0  0
 10 11  1  0  0  0  0
 11 29  1  0  0  0  0
 11 12  1  0  0  0  0
 12 26  1  0  0  0  0
 12 13  2  0  0  0  0
 13 27  1  0  0  0  0
 13 14  1  0  0  0  0
 14 15  2  0  0  0  0
 14 28  1  0  0  0  0
 15 16  1  0  0  0  0
M  CHG  1  16  -1
M  END
> <s_m_source_file>
AV-unprocessed.smi

> <i_m_source_file_index>
3208

> <i_lp_mmshare_version>
43012

> <i_f3d_flags>
0

> <s_epik_input>
W0NIMl09W0NIXVtDSDJdT1tDQEhdKFtDSDNdKUMoPU8pW05IXWMxbltjSF1bY0hdW2NIXWMxW09IXQ==

> <s_epik_cmdline>
J2VwaWtfcHl0aG9uJywgJy1waCcsICc3LjAnLCAnLXRuJywgJzgnLCAnLW1hJywgJzIwMCcsICctbWV0YWxfYmluZGluZycsICctaW1hZScsICc8aW5maWxlLm1hZT4nLCAnLW9tYWUnLCAnPG91dGZpbGUubWFlPic=

> <r_epik_Ionization_Penalty>
0.613767

> <r_epik_Ionization_Penalty_Charging>
0.613767

> <r_epik_Ionization_Penalty_Neutral>
1.14324e-13

> <r_epik_State_Penalty>
1.22258

> <r_epik_Charging_Adjusted_Penalty>
1.83635

> <i_epik_Tot_Q>
-1

> <i_epik_Tot_abs_Q>
1

> <r_epik_Metal_State_Penalty>
1.18528

> <b_epik_Metal_Only>
0

> <s_lp_Force_Field>
OPLS_2005

> <r_lp_Energy>
36.008

> <b_lp_Chiralities_Consistent>
1

> <s_lp_Variant>
AV-unprocessed.smi:3208-5

> <Gold.Version>
5.8.1

> <Gold.Id.Protein>
6NUR|6NUR_protein|mol2

> <Gold.PLP.Fitness>
39.1551

> <Gold.PLP.PLP>
-28.0728

> <Gold.PLP.part.hbond>
-3.0000

> <Gold.PLP.part.metal>
0.0000

> <Gold.PLP.part.buried>
-3.9890

> <Gold.PLP.part.nonpolar>
-21.9763

> <Gold.PLP.part.repulsive>
0.0795

> <Gold.PLP.ligand.clash>
0.0000

> <Gold.PLP.ligand.torsion>
1.1808

> <Gold.PLP.Chemscore.Hbond>
4.4560

> <Gold.PLP.Chemscore.CHOScore>
0.0000

> <Gold.PLP.Chemscore.Metal>
0.0000

> <Gold.Chemscore.Hbonds>
donor molecule, donor type, donor heavy atom, donor atom, acceptor molecule, acceptor atom, score
      P1  H  6896  6909       L1     8  0.35
      P1  H  6931  6943       L1    16  1.89
      P1  H  6934  6947       L1    16  1.76

> <Gold.PLP.Chemscore.Internal.Correction>
0.0758

> <Gold.Rescore>
     Score         DG    S(hbond)    S(metal)    S(lipo)     H(rot)  DE(clash)    DE(int)     intcor
     14.77     -15.97       2.40        0.00      57.22       1.65       0.02       1.17       ----

> <Gold.Chemscore.Fitness>
14.7732

> <Gold.Chemscore.DG>
-15.9653

> <Gold.Chemscore.ZeroCoef>
-5.4800

> <Gold.Chemscore.Hbond>
2.4021

> <Gold.Chemscore.Metal>
0.0000

> <Gold.Chemscore.Lipo>
57.2200

> <Gold.Chemscore.Internal_Hbond>
0.0000

> <Gold.Chemscore.DEClash>
0.0224

> <Gold.Chemscore.DEInternal>
1.1697

> <Gold.Chemscore.Rot>
1.6533

> <Gold.Chemscore.Internal.Correction>
   9.000000E+99

> <Gold.Chemscore.Hbonds>
donor molecule, donor type, donor heavy atom, donor atom, acceptor molecule, acceptor atom, score
      P1  H  6896  6909       L1     8  0.01
      P1  H  6931  6943       L1    16  0.91
      P1  H  6934  6947       L1    16  0.86

> <Gold.Chemscore.Hbond.Weighted>
-8.0230

> <Gold.Chemscore.Metal.Weighted>
-0.0000

> <Gold.Chemscore.Lipo.Weighted>
-6.6947

> <Gold.Chemscore.Internal_Hbond.Weighted>
0.0000

> <Gold.Chemscore.DEClash.Weighted>
0.0224

> <Gold.Chemscore.DEInternal.Weighted>
1.1697

> <Gold.Chemscore.Rot.Weighted>
4.2324

> <Gold.Chemscore.Internal.Correction.Weighted>
   9.000000E+99

> <Gold.Protein.RotatedTorsions>
[ 6907 6896 6895 6894 ] final   19.57 input  -60.11 | X-H torsion
[ 7974 7965 7964 7962 ] final  108.71 input  175.53 | X-H torsion
[ 8008 7997 7996 7995 ] final  -53.43 input   59.86 | X-H torsion
[ 10167 10162 10161 10158 ] final -144.58 input  -65.29 | X-H torsion
[ 10718 10713 10712 10709 ] final   77.74 input   66.30 | X-H torsion
[ 10763 10752 10751 10750 ] final  110.75 input  -60.55 | X-H torsion
[ 11005 11000 10999 10996 ] final   95.41 input  -57.11 | X-H torsion

> <Gold.Protein.ActiveResidues>
 VAL166  LYS551  ARG553  GLY616  TRP617  ASP618  TYR619  PRO620  LYS621  CYS622 
 ASP623  PHE694  ASN695  SER759  ASP760  ASP761  ALA762  ILE779  LEU786  VAL792 
 PHE793  MET794  SER795  GLU796  ALA797  LYS798  CYS799  TRP800  GLU811  SER814 

> <Gold.Protein.RotatedAtoms>
  151.8829  135.0446  160.0490 H   0  0  0  0  0  0  0  0  0  0  0  0  # atno 6907 bound_to 6896
  152.2498  133.5201  159.5327 H   0  0  0  0  0  0  0  0  0  0  0  0  # atno 6908 bound_to 6896
  150.7080  134.0892  159.3968 H   0  0  0  0  0  0  0  0  0  0  0  0  # atno 6909 bound_to 6896
  145.2771  139.2645  143.3935 H   0  0  0  0  0  0  0  0  0  0  0  0  # atno 7974 bound_to 7965
  154.4133  140.1200  156.5153 H   0  0  0  0  0  0  0  0  0  0  0  0  # atno 8008 bound_to 7997
  155.6757  140.3496  155.4816 H   0  0  0  0  0  0  0  0  0  0  0  0  # atno 8009 bound_to 7997
  155.9594  140.1120  157.0898 H   0  0  0  0  0  0  0  0  0  0  0  0  # atno 8010 bound_to 7997
  139.7886  143.7998  152.2647 H   0  0  0  0  0  0  0  0  0  0  0  0  # atno 10167 bound_to 10162
  157.6721  130.9836  150.1685 H   0  0  0  0  0  0  0  0  0  0  0  0  # atno 10718 bound_to 10713
  153.4535  135.3738  155.2297 H   0  0  0  0  0  0  0  0  0  0  0  0  # atno 10763 bound_to 10752
  154.8756  135.3891  154.4010 H   0  0  0  0  0  0  0  0  0  0  0  0  # atno 10764 bound_to 10752
  153.4573  135.7086  153.6136 H   0  0  0  0  0  0  0  0  0  0  0  0  # atno 10765 bound_to 10752
  139.8789  134.8897  156.4007 H   0  0  0  0  0  0  0  0  0  0  0  0  # atno 11005 bound_to 11000
  146.3228  140.3229  142.8634 LP  0  0  0  0  0  0  0  0  0  0  0  0  # atno 17320 bound_to 7965
  144.9285  140.7948  143.5704 LP  0  0  0  0  0  0  0  0  0  0  0  0  # atno 17321 bound_to 7965
  139.8083  144.7346  150.9732 LP  0  0  0  0  0  0  0  0  0  0  0  0  # atno 17342 bound_to 10162
  140.7820  143.4276  151.0744 LP  0  0  0  0  0  0  0  0  0  0  0  0  # atno 17343 bound_to 10162
  156.2445  130.3694  149.8300 LP  0  0  0  0  0  0  0  0  0  0  0  0  # atno 17370 bound_to 10713
  156.6091  130.8579  151.3450 LP  0  0  0  0  0  0  0  0  0  0  0  0  # atno 17371 bound_to 10713
  140.9269  133.7606  155.9976 LP  0  0  0  0  0  0  0  0  0  0  0  0  # atno 17394 bound_to 11000
  140.8375  134.3105  157.5326 LP  0  0  0  0  0  0  0  0  0  0  0  0  # atno 17395 bound_to 11000

$$$$
