AV-unprocessed.smi:2377|AV-procd|sdf|9445|dock7
  -GOLD-   2272013 73D 1   1.00000     0.00000
 Structure written by MMmdl.
 24 24  0  0  0  0  0  0  0  0  2 V2000
  146.7890  139.0552  152.3293 C   0  0  0  0  0  0  0  0  0  0  0  0
  148.1471  138.8264  152.8562 N   0  3  0  0  0  0  0  0  0  0  0  0
  148.3077  139.1915  154.2780 C   0  0  0  0  0  0  0  0  0  0  0  0
  148.7662  140.6517  154.4385 C   0  0  2  0  0  0  0  0  0  0  0  0
  149.2489  141.1175  153.1928 O   0  0  0  0  0  0  0  0  0  0  0  0
  149.8126  140.7804  155.5337 C   0  0  0  0  0  0  0  0  0  0  0  0
  150.9459  139.9385  155.5736 C   0  0  0  0  0  0  0  0  0  0  0  0
  151.8769  140.0988  156.6178 C   0  0  0  0  0  0  0  0  0  0  0  0
  151.6356  141.0947  157.5847 C   0  0  0  0  0  0  0  0  0  0  0  0
  150.5542  141.9030  157.5610 N   0  0  0  0  0  0  0  0  0  0  0  0
  149.6672  141.7439  156.5559 C   0  0  0  0  0  0  0  0  0  0  0  0
  146.7421  138.7632  151.2802 H   0  0  0  0  0  0  0  0  0  0  0  0
  146.5169  140.1086  152.4035 H   0  0  0  0  0  0  0  0  0  0  0  0
  146.0554  138.4661  152.8808 H   0  0  0  0  0  0  0  0  0  0  0  0
  148.3724  137.8465  152.7552 H   0  0  0  0  0  0  0  0  0  0  0  0
  147.3495  139.0494  154.7803 H   0  0  0  0  0  0  0  0  0  0  0  0
  149.0200  138.5140  154.7517 H   0  0  0  0  0  0  0  0  0  0  0  0
  147.9088  141.2707  154.7070 H   0  0  0  0  0  0  0  0  0  0  0  0
  149.1985  140.4105  152.5667 H   0  0  0  0  0  0  0  0  0  0  0  0
  151.1011  139.1808  154.8196 H   0  0  0  0  0  0  0  0  0  0  0  0
  152.7553  139.4731  156.6767 H   0  0  0  0  0  0  0  0  0  0  0  0
  152.3283  141.2448  158.3996 H   0  0  0  0  0  0  0  0  0  0  0  0
  148.8139  142.4058  156.5708 H   0  0  0  0  0  0  0  0  0  0  0  0
  148.8023  139.3659  152.3088 H   0  0  0  0  0  0  0  0  0  0  0  0
  1  2  1  0  0  0  0
  1 12  1  0  0  0  0
  1 13  1  0  0  0  0
  1 14  1  0  0  0  0
  2  3  1  0  0  0  0
  2 15  1  0  0  0  0
  2 24  1  0  0  0  0
  3  4  1  0  0  0  0
  3 16  1  0  0  0  0
  3 17  1  0  0  0  0
  4  5  1  0  0  0  0
  4  6  1  0  0  0  0
  4 18  1  0  0  0  0
  5 19  1  0  0  0  0
  6 11  1  0  0  0  0
  6  7  2  0  0  0  0
  7  8  1  0  0  0  0
  7 20  1  0  0  0  0
  8  9  2  0  0  0  0
  8 21  1  0  0  0  0
  9 10  1  0  0  0  0
  9 22  1  0  0  0  0
 10 11  2  0  0  0  0
 11 23  1  0  0  0  0
M  CHG  1   2   1
M  END
> <s_m_source_file>
AV-unprocessed.smi

> <i_m_source_file_index>
2377

> <i_lp_mmshare_version>
43012

> <i_f3d_flags>
0

> <s_epik_input>
W0NIM11bTkhdW0NIMl1bQ0BIXShbT0hdKWMxW2NIXVtjSF1bY0hdbltjSF0x

> <s_epik_cmdline>
J2VwaWtfcHl0aG9uJywgJy1waCcsICc3LjAnLCAnLXRuJywgJzgnLCAnLW1hJywgJzIwMCcsICctbWV0YWxfYmluZGluZycsICctaW1hZScsICc8aW5maWxlLm1hZT4nLCAnLW9tYWUnLCAnPG91dGZpbGUubWFlPic=

> <r_epik_Ionization_Penalty>
0.00990913

> <r_epik_Ionization_Penalty_Charging>
0.00939893

> <r_epik_Ionization_Penalty_Neutral>
0.000510194

> <r_epik_State_Penalty>
0.00713549

> <r_epik_Charging_Adjusted_Penalty>
0.0165344

> <i_epik_Tot_Q>
1

> <i_epik_Tot_abs_Q>
1

> <r_epik_Metal_State_Penalty>
0.00716299

> <b_epik_Metal_Only>
0

> <s_lp_Force_Field>
OPLS_2005

> <r_lp_Energy>
6.48909

> <b_lp_Chiralities_Consistent>
1

> <s_lp_Variant>
AV-unprocessed.smi:2377-1

> <Gold.Version>
5.8.1

> <Gold.Id.Protein>
6NUR|6NUR_protein|mol2

> <Gold.PLP.Fitness>
38.8755

> <Gold.PLP.PLP>
-23.8652

> <Gold.PLP.part.hbond>
-4.3526

> <Gold.PLP.part.metal>
0.0000

> <Gold.PLP.part.buried>
-2.7896

> <Gold.PLP.part.nonpolar>
-16.8418

> <Gold.PLP.part.repulsive>
0.1383

> <Gold.PLP.ligand.clash>
0.0000

> <Gold.PLP.ligand.torsion>
1.0104

> <Gold.PLP.Chemscore.Hbond>
4.8481

> <Gold.PLP.Chemscore.CHOScore>
0.8260

> <Gold.PLP.Chemscore.Metal>
0.0000

> <Gold.Chemscore.Hbonds>
donor molecule, donor type, donor heavy atom, donor atom, acceptor molecule, acceptor atom, score
      L1  H     2    15       P1  7948  2.00
      L1  H     2    24       P1  7957  1.00
      L1  H     5    19       P1  7957  0.77
      P1  H  7989  7998       L1     5  0.01
      P1  H  8011  8017       L1     5  1.00
      L1  C    11    23       P1  8028  0.87

> <Gold.PLP.Chemscore.Internal.Correction>
0.0088

> <Gold.Rescore>
     Score         DG    S(hbond)    S(metal)    S(lipo)     H(rot)  DE(clash)    DE(int)     intcor
     16.63     -17.42       3.30        0.00      52.28       2.03       0.05       0.75       ----

> <Gold.Chemscore.Fitness>
16.6318

> <Gold.Chemscore.DG>
-17.4242

> <Gold.Chemscore.ZeroCoef>
-5.4800

> <Gold.Chemscore.Hbond>
3.3039

> <Gold.Chemscore.Metal>
0.0000

> <Gold.Chemscore.Lipo>
52.2823

> <Gold.Chemscore.Internal_Hbond>
0.0000

> <Gold.Chemscore.DEClash>
0.0456

> <Gold.Chemscore.DEInternal>
0.7468

> <Gold.Chemscore.Rot>
2.0344

> <Gold.Chemscore.Internal.Correction>
   9.000000E+99

> <Gold.Chemscore.Hbonds>
donor molecule, donor type, donor heavy atom, donor atom, acceptor molecule, acceptor atom, score
      L1  H     2    15       P1  7948  0.98
      L1  H     2    24       P1  7957  0.94
      L1  H     5    19       P1  7957  0.73
      P1  H  8011  8017       L1     5  0.50

> <Gold.Chemscore.Hbond.Weighted>
-11.0352

> <Gold.Chemscore.Metal.Weighted>
-0.0000

> <Gold.Chemscore.Lipo.Weighted>
-6.1170

> <Gold.Chemscore.Internal_Hbond.Weighted>
0.0000

> <Gold.Chemscore.DEClash.Weighted>
0.0456

> <Gold.Chemscore.DEInternal.Weighted>
0.7468

> <Gold.Chemscore.Rot.Weighted>
5.2080

> <Gold.Chemscore.Internal.Correction.Weighted>
   9.000000E+99

> <Gold.Protein.RotatedTorsions>
[ 6907 6896 6895 6894 ] final  -47.71 input  -60.11 | X-H torsion
[ 7974 7965 7964 7962 ] final   72.47 input  175.53 | X-H torsion
[ 8008 7997 7996 7995 ] final   67.05 input   59.86 | X-H torsion
[ 10167 10162 10161 10158 ] final -110.43 input  -65.29 | X-H torsion
[ 10718 10713 10712 10709 ] final  112.94 input   66.30 | X-H torsion
[ 10763 10752 10751 10750 ] final   50.75 input  -60.55 | X-H torsion
[ 11005 11000 10999 10996 ] final  163.29 input  -57.11 | X-H torsion

> <Gold.Protein.ActiveResidues>
 VAL166  LYS551  ARG553  GLY616  TRP617  ASP618  TYR619  PRO620  LYS621  CYS622 
 ASP623  PHE694  ASN695  SER759  ASP760  ASP761  ALA762  ILE779  LEU786  VAL792 
 PHE793  MET794  SER795  GLU796  ALA797  LYS798  CYS799  TRP800  GLU811  SER814 

> <Gold.Protein.RotatedAtoms>
  150.8980  134.8390  159.7339 H   0  0  0  0  0  0  0  0  0  0  0  0  # atno 6907 bound_to 6896
  152.4876  134.4546  159.9595 H   0  0  0  0  0  0  0  0  0  0  0  0  # atno 6908 bound_to 6896
  151.4601  133.3556  159.2843 H   0  0  0  0  0  0  0  0  0  0  0  0  # atno 6909 bound_to 6896
  145.7530  139.2768  143.1420 H   0  0  0  0  0  0  0  0  0  0  0  0  # atno 7974 bound_to 7965
  155.6869  140.3496  155.4878 H   0  0  0  0  0  0  0  0  0  0  0  0  # atno 8008 bound_to 7997
  155.9558  140.1128  157.0960 H   0  0  0  0  0  0  0  0  0  0  0  0  # atno 8009 bound_to 7997
  154.4132  140.1185  156.5099 H   0  0  0  0  0  0  0  0  0  0  0  0  # atno 8010 bound_to 7997
  140.1445  143.4251  152.1538 H   0  0  0  0  0  0  0  0  0  0  0  0  # atno 10167 bound_to 10162
  157.6365  131.0976  150.6969 H   0  0  0  0  0  0  0  0  0  0  0  0  # atno 10718 bound_to 10713
  152.9784  135.5868  154.4303 H   0  0  0  0  0  0  0  0  0  0  0  0  # atno 10763 bound_to 10752
  154.3917  135.2768  155.2153 H   0  0  0  0  0  0  0  0  0  0  0  0  # atno 10764 bound_to 10752
  154.4022  135.6101  153.5958 H   0  0  0  0  0  0  0  0  0  0  0  0  # atno 10765 bound_to 10752
  140.2343  134.8100  157.3348 H   0  0  0  0  0  0  0  0  0  0  0  0  # atno 11005 bound_to 11000
  146.0339  140.8231  142.9862 LP  0  0  0  0  0  0  0  0  0  0  0  0  # atno 17320 bound_to 7965
  144.6846  140.2809  143.7292 LP  0  0  0  0  0  0  0  0  0  0  0  0  # atno 17321 bound_to 7965
  139.5455  144.7295  151.4596 LP  0  0  0  0  0  0  0  0  0  0  0  0  # atno 17342 bound_to 10162
  140.6740  143.8231  150.7035 LP  0  0  0  0  0  0  0  0  0  0  0  0  # atno 17343 bound_to 10162
  156.7299  130.4706  149.5502 LP  0  0  0  0  0  0  0  0  0  0  0  0  # atno 17370 bound_to 10713
  156.1609  130.6373  151.0717 LP  0  0  0  0  0  0  0  0  0  0  0  0  # atno 17371 bound_to 10713
  140.1718  134.4599  155.7827 LP  0  0  0  0  0  0  0  0  0  0  0  0  # atno 17394 bound_to 11000
  141.2215  133.6945  156.7721 LP  0  0  0  0  0  0  0  0  0  0  0  0  # atno 17395 bound_to 11000

$$$$
