AV-unprocessed.smi:2782|AV-procd|sdf|10721|dock6
  -GOLD-   2272015163D 1   1.00000     0.00000
 Structure written by MMmdl.
 38 39  0  0  0  0  0  0  0  0  1 V2000
  150.9818  145.2925  159.5924 C   0  0  0  0  0  0  0  0  0  0  0  0
  151.6274  143.9244  159.6718 C   0  0  0  0  0  0  0  0  0  0  0  0
  152.5958  143.6502  160.6575 C   0  0  0  0  0  0  0  0  0  0  0  0
  153.1884  142.3764  160.7233 C   0  0  0  0  0  0  0  0  0  0  0  0
  152.8162  141.3735  159.8071 C   0  0  0  0  0  0  0  0  0  0  0  0
  153.5584  139.8171  159.9116 Cl  0  0  0  0  0  0  0  0  0  0  0  0
  151.8475  141.6329  158.8121 C   0  0  0  0  0  0  0  0  0  0  0  0
  151.5333  140.6025  157.9512 O   0  0  0  0  0  0  0  0  0  0  0  0
  150.7239  140.8853  156.8162 C   0  0  0  0  0  0  0  0  0  0  0  0
  150.9891  139.8461  155.7136 C   0  0  2  0  0  0  0  0  0  0  0  0
  152.3777  139.8383  155.4487 O   0  0  0  0  0  0  0  0  0  0  0  0
  150.1965  140.1228  154.4173 C   0  0  0  0  0  0  0  0  0  0  0  0
  148.7463  140.0965  154.6403 N   0  0  0  0  0  0  0  0  0  0  0  0
  148.1248  141.3184  154.4466 N   0  0  0  0  0  0  0  0  0  0  0  0
  146.8486  141.4500  154.6056 C   0  0  0  0  0  0  0  0  0  0  0  0
  146.2560  142.8086  154.3752 C   0  0  0  0  0  0  0  0  0  0  0  0
  146.0551  140.2995  154.9943 C   0  0  0  0  0  0  0  0  0  0  0  0
  146.6636  139.1084  155.1796 C   0  0  0  0  0  0  0  0  0  0  0  0
  148.1047  138.9457  154.9991 C   0  0  0  0  0  0  0  0  0  0  0  0
  148.6872  137.8721  155.1506 O   0  0  0  0  0  0  0  0  0  0  0  0
  151.2573  142.9211  158.7530 C   0  0  0  0  0  0  0  0  0  0  0  0
  151.2975  145.9311  160.4180 H   0  0  0  0  0  0  0  0  0  0  0  0
  149.8957  145.2017  159.6298 H   0  0  0  0  0  0  0  0  0  0  0  0
  151.2537  145.7837  158.6579 H   0  0  0  0  0  0  0  0  0  0  0  0
  152.8875  144.4127  161.3648 H   0  0  0  0  0  0  0  0  0  0  0  0
  153.9305  142.1682  161.4800 H   0  0  0  0  0  0  0  0  0  0  0  0
  149.6648  140.9001  157.0790 H   0  0  0  0  0  0  0  0  0  0  0  0
  150.9844  141.8738  156.4342 H   0  0  0  0  0  0  0  0  0  0  0  0
  150.7305  138.8647  156.1129 H   0  0  0  0  0  0  0  0  0  0  0  0
  152.5418  139.2411  154.7350 H   0  0  0  0  0  0  0  0  0  0  0  0
  150.4727  141.1020  154.0213 H   0  0  0  0  0  0  0  0  0  0  0  0
  150.4822  139.4145  153.6369 H   0  0  0  0  0  0  0  0  0  0  0  0
  145.1679  142.7801  154.4381 H   0  0  0  0  0  0  0  0  0  0  0  0
  146.5226  143.1881  153.3882 H   0  0  0  0  0  0  0  0  0  0  0  0
  146.6157  143.5190  155.1200 H   0  0  0  0  0  0  0  0  0  0  0  0
  144.9890  140.4032  155.1320 H   0  0  0  0  0  0  0  0  0  0  0  0
  146.0720  138.2522  155.4686 H   0  0  0  0  0  0  0  0  0  0  0  0
  150.5142  143.1640  158.0088 H   0  0  0  0  0  0  0  0  0  0  0  0
  1  2  1  0  0  0  0
  1 22  1  0  0  0  0
  1 23  1  0  0  0  0
  1 24  1  0  0  0  0
  2 21  1  0  0  0  0
  2  3  2  0  0  0  0
  3  4  1  0  0  0  0
  3 25  1  0  0  0  0
  4  5  2  0  0  0  0
  4 26  1  0  0  0  0
  5  6  1  0  0  0  0
  5  7  1  0  0  0  0
  7  8  1  0  0  0  0
  7 21  2  0  0  0  0
  8  9  1  0  0  0  0
  9 10  1  0  0  0  0
  9 27  1  0  0  0  0
  9 28  1  0  0  0  0
 10 11  1  0  0  0  0
 10 12  1  0  0  0  0
 10 29  1  0  0  0  0
 11 30  1  0  0  0  0
 12 13  1  0  0  0  0
 12 31  1  0  0  0  0
 12 32  1  0  0  0  0
 13 19  1  0  0  0  0
 13 14  1  0  0  0  0
 14 15  2  0  0  0  0
 15 16  1  0  0  0  0
 15 17  1  0  0  0  0
 16 33  1  0  0  0  0
 16 34  1  0  0  0  0
 16 35  1  0  0  0  0
 17 18  2  0  0  0  0
 17 36  1  0  0  0  0
 18 19  1  0  0  0  0
 18 37  1  0  0  0  0
 19 20  2  0  0  0  0
 21 38  1  0  0  0  0
M  END
> <s_m_source_file>
AV-unprocessed.smi

> <i_m_source_file_index>
2782

> <i_lp_mmshare_version>
43012

> <i_f3d_flags>
0

> <s_epik_input>
W0NIM11jMVtjSF1bY0hdYyhDbCljKFtjSF0xKU9bQ0gyXVtDQEhdKFtPSF0pW0NIMl1uMm5jKFtDSDNdKVtjSF1bY0hdYzI9Tw==

> <s_epik_cmdline>
J2VwaWtfcHl0aG9uJywgJy1waCcsICc3LjAnLCAnLXRuJywgJzgnLCAnLW1hJywgJzIwMCcsICctbWV0YWxfYmluZGluZycsICctaW1hZScsICc8aW5maWxlLm1hZT4nLCAnLW9tYWUnLCAnPG91dGZpbGUubWFlPic=

> <r_lp_tautomer_probability>
1

> <r_epik_Ionization_Penalty>
2.96353e-07

> <r_epik_Ionization_Penalty_Charging>
1.79179e-07

> <r_epik_Ionization_Penalty_Neutral>
1.17174e-07

> <r_epik_State_Penalty>
-0

> <r_epik_Charging_Adjusted_Penalty>
1.79179e-07

> <i_epik_Tot_Q>
0

> <i_epik_Tot_abs_Q>
0

> <r_epik_Metal_State_Penalty>
-0

> <b_epik_Metal_Only>
0

> <s_lp_Force_Field>
OPLS_2005

> <r_lp_Energy>
32.0669

> <b_lp_Chiralities_Consistent>
1

> <s_lp_Variant>
AV-unprocessed.smi:2782-1

> <Gold.Version>
5.8.1

> <Gold.Id.Protein>
6NUR|6NUR_protein|mol2

> <Gold.PLP.Fitness>
43.4882

> <Gold.PLP.PLP>
-40.9972

> <Gold.PLP.part.hbond>
-1.5377

> <Gold.PLP.part.metal>
0.0000

> <Gold.PLP.part.buried>
-3.1764

> <Gold.PLP.part.nonpolar>
-37.7604

> <Gold.PLP.part.repulsive>
0.2639

> <Gold.PLP.ligand.clash>
0.0000

> <Gold.PLP.ligand.torsion>
0.2648

> <Gold.PLP.Chemscore.Hbond>
0.9913

> <Gold.PLP.Chemscore.CHOScore>
0.0000

> <Gold.PLP.Chemscore.Metal>
0.0000

> <Gold.Chemscore.Hbonds>
donor molecule, donor type, donor heavy atom, donor atom, acceptor molecule, acceptor atom, score
      P1  H  7997  8010       L1    11  0.67

> <Gold.PLP.Chemscore.Internal.Correction>
0.0468

> <Gold.Rescore>
     Score         DG    S(hbond)    S(metal)    S(lipo)     H(rot)  DE(clash)    DE(int)     intcor
     13.69     -15.27       0.44        0.00     119.85       2.22       1.27       0.32       ----

> <Gold.Chemscore.Fitness>
13.6899

> <Gold.Chemscore.DG>
-15.2742

> <Gold.Chemscore.ZeroCoef>
-5.4800

> <Gold.Chemscore.Hbond>
0.4355

> <Gold.Chemscore.Metal>
0.0000

> <Gold.Chemscore.Lipo>
119.8494

> <Gold.Chemscore.Internal_Hbond>
0.0000

> <Gold.Chemscore.DEClash>
1.2662

> <Gold.Chemscore.DEInternal>
0.3181

> <Gold.Chemscore.Rot>
2.2199

> <Gold.Chemscore.Internal.Correction>
   9.000000E+99

> <Gold.Chemscore.Hbonds>
donor molecule, donor type, donor heavy atom, donor atom, acceptor molecule, acceptor atom, score
      P1  H  7997  8010       L1    11  0.29

> <Gold.Chemscore.Hbond.Weighted>
-1.4547

> <Gold.Chemscore.Metal.Weighted>
-0.0000

> <Gold.Chemscore.Lipo.Weighted>
-14.0224

> <Gold.Chemscore.Internal_Hbond.Weighted>
0.0000

> <Gold.Chemscore.DEClash.Weighted>
1.2662

> <Gold.Chemscore.DEInternal.Weighted>
0.3181

> <Gold.Chemscore.Rot.Weighted>
5.6829

> <Gold.Chemscore.Internal.Correction.Weighted>
   9.000000E+99

> <Gold.Protein.RotatedTorsions>
[ 6907 6896 6895 6894 ] final   66.08 input  -60.11 | X-H torsion
[ 7974 7965 7964 7962 ] final -111.04 input  175.53 | X-H torsion
[ 8008 7997 7996 7995 ] final   76.81 input   59.86 | X-H torsion
[ 10167 10162 10161 10158 ] final   55.99 input  -65.29 | X-H torsion
[ 10718 10713 10712 10709 ] final   38.06 input   66.30 | X-H torsion
[ 10763 10752 10751 10750 ] final  156.15 input  -60.55 | X-H torsion
[ 11005 11000 10999 10996 ] final   53.76 input  -57.11 | X-H torsion

> <Gold.Protein.ActiveResidues>
 VAL166  LYS551  ARG553  GLY616  TRP617  ASP618  TYR619  PRO620  LYS621  CYS622 
 ASP623  PHE694  ASN695  SER759  ASP760  ASP761  ALA762  ILE779  LEU786  VAL792 
 PHE793  MET794  SER795  GLU796  ALA797  LYS798  CYS799  TRP800  GLU811  SER814 

> <Gold.Protein.RotatedAtoms>
  152.4455  134.5504  159.9864 H   0  0  0  0  0  0  0  0  0  0  0  0  # atno 6907 bound_to 6896
  151.5590  133.3400  159.2975 H   0  0  0  0  0  0  0  0  0  0  0  0  # atno 6908 bound_to 6896
  150.8370  134.7680  159.6964 H   0  0  0  0  0  0  0  0  0  0  0  0  # atno 6909 bound_to 6896
  145.1609  140.8878  143.3591 H   0  0  0  0  0  0  0  0  0  0  0  0  # atno 7974 bound_to 7965
  155.8326  140.3465  155.5582 H   0  0  0  0  0  0  0  0  0  0  0  0  # atno 8008 bound_to 7997
  155.8226  140.0915  157.1860 H   0  0  0  0  0  0  0  0  0  0  0  0  # atno 8009 bound_to 7997
  154.4004  140.1427  156.3505 H   0  0  0  0  0  0  0  0  0  0  0  0  # atno 8010 bound_to 7997
  140.2135  144.3863  150.6479 H   0  0  0  0  0  0  0  0  0  0  0  0  # atno 10167 bound_to 10162
  157.3543  130.7615  149.7001 H   0  0  0  0  0  0  0  0  0  0  0  0  # atno 10718 bound_to 10713
  154.1798  135.2800  155.3055 H   0  0  0  0  0  0  0  0  0  0  0  0  # atno 10763 bound_to 10752
  154.6011  135.5529  153.7379 H   0  0  0  0  0  0  0  0  0  0  0  0  # atno 10764 bound_to 10752
  153.0141  135.6392  154.1937 H   0  0  0  0  0  0  0  0  0  0  0  0  # atno 10765 bound_to 10752
  140.0741  134.5429  155.9015 H   0  0  0  0  0  0  0  0  0  0  0  0  # atno 11005 bound_to 11000
  145.0332  139.3323  143.6014 LP  0  0  0  0  0  0  0  0  0  0  0  0  # atno 17320 bound_to 7965
  146.3482  139.9678  142.8710 LP  0  0  0  0  0  0  0  0  0  0  0  0  # atno 17321 bound_to 7965
  140.6306  143.2187  151.6503 LP  0  0  0  0  0  0  0  0  0  0  0  0  # atno 17342 bound_to 10162
  139.5171  144.3327  152.0812 LP  0  0  0  0  0  0  0  0  0  0  0  0  # atno 17343 bound_to 10162
  155.9726  130.4131  150.4068 LP  0  0  0  0  0  0  0  0  0  0  0  0  # atno 17370 bound_to 10713
  157.2136  131.0466  151.2585 LP  0  0  0  0  0  0  0  0  0  0  0  0  # atno 17371 bound_to 10713
  141.2023  133.6624  156.5997 LP  0  0  0  0  0  0  0  0  0  0  0  0  # atno 17394 bound_to 11000
  140.3584  134.7709  157.4516 LP  0  0  0  0  0  0  0  0  0  0  0  0  # atno 17395 bound_to 11000

$$$$
