AV-unprocessed.smi:2001|AV-procd|sdf|8103|dock9
  -GOLD-   2272010323D 1   1.00000     0.00000
 Structure written by MMmdl.
 50 51  0  0  0  0  0  0  0  0  1 V2000
  149.5125  135.1344  154.8776 C   0  0  0  0  0  0  0  0  0  0  0  0
  149.1860  136.3436  155.5403 O   0  0  0  0  0  0  0  0  0  0  0  0
  147.8676  136.3379  156.0609 C   0  0  0  0  0  0  0  0  0  0  0  0
  146.8709  136.3018  154.8921 C   0  0  0  0  0  0  0  0  0  0  0  0
  146.9817  137.4987  154.0520 N   0  0  0  0  0  0  0  0  0  0  0  0
  147.8596  138.4525  154.5402 N   0  0  0  0  0  0  0  0  0  0  0  0
  148.0419  139.5590  153.8945 C   0  0  0  0  0  0  0  0  0  0  0  0
  148.9812  140.6076  154.3807 C   0  0  0  0  0  0  0  0  0  0  0  0
  149.0959  141.6935  153.8097 O   0  0  0  0  0  0  0  0  0  0  0  0
  149.6903  140.2835  155.4769 N   0  0  0  0  0  0  0  0  0  0  0  0
  150.6765  141.1423  156.1197 C   0  0  0  0  0  0  0  0  0  0  0  0
  150.0568  141.9220  157.2940 C   0  0  0  0  0  0  0  0  0  0  0  0
  151.0132  142.6775  158.1006 N   0  0  0  0  0  0  0  0  0  0  0  0
  151.8700  141.7836  158.8691 C   0  0  0  0  0  0  0  0  0  0  0  0
  152.9158  142.5566  159.6925 C   0  0  2  0  0  0  0  0  0  0  0  0
  153.7682  141.6257  160.5614 C   0  0  0  0  0  0  0  0  0  0  0  0
  152.2511  143.4805  160.5519 O   0  0  0  0  0  0  0  0  0  0  0  0
  151.3561  144.3831  159.8998 C   0  0  1  0  0  0  0  0  0  0  0  0
  152.1118  145.4845  159.1372 C   0  0  0  0  0  0  0  0  0  0  0  0
  150.3566  143.6072  159.0182 C   0  0  0  0  0  0  0  0  0  0  0  0
  147.3314  139.8228  152.6545 C   0  0  0  0  0  0  0  0  0  0  0  0
  146.4787  138.8829  152.1910 C   0  0  0  0  0  0  0  0  0  0  0  0
  146.2547  137.6229  152.9008 C   0  0  0  0  0  0  0  0  0  0  0  0
  145.4803  136.7539  152.5013 O   0  0  0  0  0  0  0  0  0  0  0  0
  150.5339  135.1870  154.5009 H   0  0  0  0  0  0  0  0  0  0  0  0
  148.8501  134.9588  154.0289 H   0  0  0  0  0  0  0  0  0  0  0  0
  149.4469  134.2823  155.5556 H   0  0  0  0  0  0  0  0  0  0  0  0
  147.7281  135.4697  156.7067 H   0  0  0  0  0  0  0  0  0  0  0  0
  147.7032  137.2302  156.6672 H   0  0  0  0  0  0  0  0  0  0  0  0
  147.0500  135.4080  154.2916 H   0  0  0  0  0  0  0  0  0  0  0  0
  145.8529  136.1970  155.2715 H   0  0  0  0  0  0  0  0  0  0  0  0
  149.5382  139.3738  155.8882 H   0  0  0  0  0  0  0  0  0  0  0  0
  151.4898  140.5129  156.4818 H   0  0  0  0  0  0  0  0  0  0  0  0
  151.1093  141.8124  155.3764 H   0  0  0  0  0  0  0  0  0  0  0  0
  149.2791  142.5927  156.9247 H   0  0  0  0  0  0  0  0  0  0  0  0
  149.5490  141.2002  157.9355 H   0  0  0  0  0  0  0  0  0  0  0  0
  151.2607  141.1697  159.5347 H   0  0  0  0  0  0  0  0  0  0  0  0
  152.3835  141.0963  158.1955 H   0  0  0  0  0  0  0  0  0  0  0  0
  153.5795  143.1004  159.0196 H   0  0  0  0  0  0  0  0  0  0  0  0
  154.3072  140.9027  159.9488 H   0  0  0  0  0  0  0  0  0  0  0  0
  153.1513  141.0719  161.2696 H   0  0  0  0  0  0  0  0  0  0  0  0
  154.5047  142.1916  161.1324 H   0  0  0  0  0  0  0  0  0  0  0  0
  150.7906  144.8765  160.6907 H   0  0  0  0  0  0  0  0  0  0  0  0
  151.4186  146.2281  158.7434 H   0  0  0  0  0  0  0  0  0  0  0  0
  152.6756  145.0869  158.2934 H   0  0  0  0  0  0  0  0  0  0  0  0
  152.8120  146.0013  159.7936 H   0  0  0  0  0  0  0  0  0  0  0  0
  149.7448  144.3218  158.4693 H   0  0  0  0  0  0  0  0  0  0  0  0
  149.6746  143.0533  159.6653 H   0  0  0  0  0  0  0  0  0  0  0  0
  147.4774  140.7439  152.1093 H   0  0  0  0  0  0  0  0  0  0  0  0
  145.9453  139.0646  151.2695 H   0  0  0  0  0  0  0  0  0  0  0  0
  1  2  1  0  0  0  0
  1 25  1  0  0  0  0
  1 26  1  0  0  0  0
  1 27  1  0  0  0  0
  2  3  1  0  0  0  0
  3  4  1  0  0  0  0
  3 28  1  0  0  0  0
  3 29  1  0  0  0  0
  4  5  1  0  0  0  0
  4 30  1  0  0  0  0
  4 31  1  0  0  0  0
  5 23  1  0  0  0  0
  5  6  1  0  0  0  0
  6  7  2  0  0  0  0
  7  8  1  0  0  0  0
  7 21  1  0  0  0  0
  8  9  2  0  0  0  0
  8 10  1  0  0  0  0
 10 11  1  0  0  0  0
 10 32  1  0  0  0  0
 11 12  1  0  0  0  0
 11 33  1  0  0  0  0
 11 34  1  0  0  0  0
 12 13  1  0  0  0  0
 12 35  1  0  0  0  0
 12 36  1  0  0  0  0
 13 20  1  0  0  0  0
 13 14  1  0  0  0  0
 14 15  1  0  0  0  0
 14 37  1  0  0  0  0
 14 38  1  0  0  0  0
 15 16  1  0  0  0  0
 15 17  1  0  0  0  0
 15 39  1  0  0  0  0
 16 40  1  0  0  0  0
 16 41  1  0  0  0  0
 16 42  1  0  0  0  0
 17 18  1  0  0  0  0
 18 19  1  0  0  0  0
 18 20  1  0  0  0  0
 18 43  1  0  0  0  0
 19 44  1  0  0  0  0
 19 45  1  0  0  0  0
 19 46  1  0  0  0  0
 20 47  1  0  0  0  0
 20 48  1  0  0  0  0
 21 22  2  0  0  0  0
 21 49  1  0  0  0  0
 22 23  1  0  0  0  0
 22 50  1  0  0  0  0
 23 24  2  0  0  0  0
M  END
> <s_m_source_file>
AV-unprocessed.smi

> <i_m_source_file_index>
2001

> <i_lp_mmshare_version>
43012

> <i_f3d_flags>
0

> <s_epik_input>
W0NIM11PW0NIMl1bQ0gyXW4xbmMoW2NIXVtjSF1jMT1PKUMoPU8pW05IXVtDSDJdW0NIMl1OMltDSDJdW0NAQEhdKFtDSDNdKU9bQ0BASF0oW0NIM10pW0NIMl0y

> <s_epik_cmdline>
J2VwaWtfcHl0aG9uJywgJy1waCcsICc3LjAnLCAnLXRuJywgJzgnLCAnLW1hJywgJzIwMCcsICctbWV0YWxfYmluZGluZycsICctaW1hZScsICc8aW5maWxlLm1hZT4nLCAnLW9tYWUnLCAnPG91dGZpbGUubWFlPic=

> <r_lp_tautomer_probability>
1

> <r_epik_Ionization_Penalty>
0.206669

> <r_epik_Ionization_Penalty_Charging>
5.55992e-09

> <r_epik_Ionization_Penalty_Neutral>
0.206669

> <r_epik_State_Penalty>
0.196651

> <r_epik_Charging_Adjusted_Penalty>
0.196651

> <i_epik_Tot_Q>
0

> <i_epik_Tot_abs_Q>
0

> <r_epik_Metal_State_Penalty>
0.198372

> <b_epik_Metal_Only>
0

> <s_lp_Force_Field>
OPLS_2005

> <r_lp_Energy>
40.7423

> <b_lp_Chiralities_Consistent>
1

> <s_lp_Variant>
AV-unprocessed.smi:2001-2

> <Gold.Version>
5.8.1

> <Gold.Id.Protein>
6NUR|6NUR_protein|mol2

> <Gold.PLP.Fitness>
39.9086

> <Gold.PLP.PLP>
-38.3596

> <Gold.PLP.part.hbond>
-2.0000

> <Gold.PLP.part.metal>
0.0000

> <Gold.PLP.part.buried>
-1.9424

> <Gold.PLP.part.nonpolar>
-35.5278

> <Gold.PLP.part.repulsive>
1.0091

> <Gold.PLP.ligand.clash>
0.0000

> <Gold.PLP.ligand.torsion>
0.2907

> <Gold.PLP.Chemscore.Hbond>
0.6880

> <Gold.PLP.Chemscore.CHOScore>
0.0000

> <Gold.PLP.Chemscore.Metal>
0.0000

> <Gold.Chemscore.Hbonds>
donor molecule, donor type, donor heavy atom, donor atom, acceptor molecule, acceptor atom, score
      P1  H  8011  8017       L1     9  0.64

> <Gold.PLP.Chemscore.Internal.Correction>
0.0664

> <Gold.Rescore>
     Score         DG    S(hbond)    S(metal)    S(lipo)     H(rot)  DE(clash)    DE(int)     intcor
     12.72     -15.14       0.78        0.00     104.23       2.00       0.85       1.58       ----

> <Gold.Chemscore.Fitness>
12.7156

> <Gold.Chemscore.DG>
-15.1445

> <Gold.Chemscore.ZeroCoef>
-5.4800

> <Gold.Chemscore.Hbond>
0.7768

> <Gold.Chemscore.Metal>
0.0000

> <Gold.Chemscore.Lipo>
104.2327

> <Gold.Chemscore.Internal_Hbond>
0.0000

> <Gold.Chemscore.DEClash>
0.8528

> <Gold.Chemscore.DEInternal>
1.5760

> <Gold.Chemscore.Rot>
2.0020

> <Gold.Chemscore.Internal.Correction>
   9.000000E+99

> <Gold.Chemscore.Hbonds>
donor molecule, donor type, donor heavy atom, donor atom, acceptor molecule, acceptor atom, score
      P1  H  8011  8017       L1     9  0.64

> <Gold.Chemscore.Hbond.Weighted>
-2.5944

> <Gold.Chemscore.Metal.Weighted>
-0.0000

> <Gold.Chemscore.Lipo.Weighted>
-12.1952

> <Gold.Chemscore.Internal_Hbond.Weighted>
0.0000

> <Gold.Chemscore.DEClash.Weighted>
0.8528

> <Gold.Chemscore.DEInternal.Weighted>
1.5760

> <Gold.Chemscore.Rot.Weighted>
5.1252

> <Gold.Chemscore.Internal.Correction.Weighted>
   9.000000E+99

> <Gold.Protein.RotatedTorsions>
[ 6907 6896 6895 6894 ] final  117.04 input  -60.11 | X-H torsion
[ 7974 7965 7964 7962 ] final  -90.38 input  175.53 | X-H torsion
[ 8008 7997 7996 7995 ] final  170.84 input   59.86 | X-H torsion
[ 10167 10162 10161 10158 ] final -121.11 input  -65.29 | X-H torsion
[ 10718 10713 10712 10709 ] final   73.03 input   66.30 | X-H torsion
[ 10763 10752 10751 10750 ] final   86.81 input  -60.55 | X-H torsion
[ 11005 11000 10999 10996 ] final   -4.16 input  -57.11 | X-H torsion

> <Gold.Protein.ActiveResidues>
 VAL166  LYS551  ARG553  GLY616  TRP617  ASP618  TYR619  PRO620  LYS621  CYS622 
 ASP623  PHE694  ASN695  SER759  ASP760  ASP761  ALA762  ILE779  LEU786  VAL792 
 PHE793  MET794  SER795  GLU796  ALA797  LYS798  CYS799  TRP800  GLU811  SER814 

> <Gold.Protein.RotatedAtoms>
  152.4638  133.7879  159.6885 H   0  0  0  0  0  0  0  0  0  0  0  0  # atno 6907 bound_to 6896
  150.8593  133.7657  159.3004 H   0  0  0  0  0  0  0  0  0  0  0  0  # atno 6908 bound_to 6896
  151.5228  135.1070  159.9935 H   0  0  0  0  0  0  0  0  0  0  0  0  # atno 6909 bound_to 6896
  145.4272  140.9554  143.2148 H   0  0  0  0  0  0  0  0  0  0  0  0  # atno 7974 bound_to 7965
  156.1327  140.1527  156.9041 H   0  0  0  0  0  0  0  0  0  0  0  0  # atno 8008 bound_to 7997
  154.4922  140.0848  156.7659 H   0  0  0  0  0  0  0  0  0  0  0  0  # atno 8009 bound_to 7997
  155.4226  140.3423  155.4275 H   0  0  0  0  0  0  0  0  0  0  0  0  # atno 8010 bound_to 7997
  140.0286  143.5271  152.2187 H   0  0  0  0  0  0  0  0  0  0  0  0  # atno 10167 bound_to 10162
  157.6529  130.9608  150.1012 H   0  0  0  0  0  0  0  0  0  0  0  0  # atno 10718 bound_to 10713
  153.1607  135.4566  154.9767 H   0  0  0  0  0  0  0  0  0  0  0  0  # atno 10763 bound_to 10752
  154.7895  135.3215  154.7812 H   0  0  0  0  0  0  0  0  0  0  0  0  # atno 10764 bound_to 10752
  153.8302  135.6939  153.4870 H   0  0  0  0  0  0  0  0  0  0  0  0  # atno 10765 bound_to 10752
  140.6772  133.9185  155.8532 H   0  0  0  0  0  0  0  0  0  0  0  0  # atno 11005 bound_to 11000
  144.8207  139.5797  143.6988 LP  0  0  0  0  0  0  0  0  0  0  0  0  # atno 17320 bound_to 7965
  146.2626  139.6445  142.9351 LP  0  0  0  0  0  0  0  0  0  0  0  0  # atno 17321 bound_to 7965
  139.6091  144.7604  151.2993 LP  0  0  0  0  0  0  0  0  0  0  0  0  # atno 17342 bound_to 10162
  140.7312  143.6859  150.7962 LP  0  0  0  0  0  0  0  0  0  0  0  0  # atno 17343 bound_to 10162
  156.1934  130.3656  149.8880 LP  0  0  0  0  0  0  0  0  0  0  0  0  # atno 17370 bound_to 10713
  156.6802  130.8855  151.3575 LP  0  0  0  0  0  0  0  0  0  0  0  0  # atno 17371 bound_to 10713
  141.0346  134.0708  157.3974 LP  0  0  0  0  0  0  0  0  0  0  0  0  # atno 17394 bound_to 11000
  139.8963  135.0145  156.7044 LP  0  0  0  0  0  0  0  0  0  0  0  0  # atno 17395 bound_to 11000

$$$$
