AV-unprocessed.smi:222|AV-procd|sdf|1702|dock7
  -GOLD-   2262020163D 1   1.00000     0.00000
 Structure written by MMmdl.
 59 61  0  0  0  0  0  0  0  0  1 V2000
  150.0531  133.5909  156.1390 C   0  0  0  0  0  0  0  0  0  0  0  0
  149.9675  133.3153  157.5279 O   0  0  0  0  0  0  0  0  0  0  0  0
  148.7284  132.7552  157.9438 C   0  0  0  0  0  0  0  0  0  0  0  0
  147.5833  133.7881  157.9810 C   0  0  0  0  0  0  0  0  0  0  0  0
  147.8131  134.8634  158.9539 N   0  0  0  0  0  0  0  0  0  0  0  0
  147.9269  134.5008  160.3763 C   0  0  0  0  0  0  0  0  0  0  0  0
  147.8394  135.6934  161.3544 C   0  0  0  0  0  0  0  0  0  0  0  0
  148.6959  136.5788  161.3089 O   0  0  0  0  0  0  0  0  0  0  0  0
  146.8139  135.7345  162.2355 N   0  0  0  0  0  0  0  0  0  0  0  0
  145.7644  134.7138  162.2934 C   0  0  0  0  0  0  0  0  0  0  0  0
  146.7016  136.8334  163.1976 C   0  0  0  0  0  0  0  0  0  0  0  0
  147.7667  136.1734  158.5597 C   0  0  0  0  0  0  0  0  0  0  0  0
  146.5876  136.6682  158.0942 N   0  0  0  0  0  0  0  0  0  0  0  0
  146.4740  137.9442  157.7198 C   0  0  0  0  0  0  0  0  0  0  0  0
  147.4042  138.8977  157.7227 N   0  0  0  0  0  0  0  0  0  0  0  0
  148.5971  138.4194  158.1759 C   0  0  0  0  0  0  0  0  0  0  0  0
  148.8664  137.0877  158.6110 C   0  0  0  0  0  0  0  0  0  0  0  0
  150.2004  136.9963  158.9970 N   0  0  0  0  0  0  0  0  0  0  0  0
  150.6806  138.1943  158.8170 C   0  0  0  0  0  0  0  0  0  0  0  0
  149.7901  139.1103  158.3087 N   0  0  0  0  0  0  0  0  0  0  0  0
  150.0540  140.5126  158.0165 C   0  0  0  0  0  0  0  0  0  0  0  0
  151.4422  140.8063  157.3637 C   0  0  0  0  0  0  0  0  0  0  0  0
  151.5749  139.9447  156.0773 C   0  0  0  0  0  0  0  0  0  0  0  0
  150.6349  140.2799  155.0751 O   0  0  0  0  0  0  0  0  0  0  0  0
  151.5225  142.3140  157.0090 C   0  0  0  0  0  0  0  0  0  0  0  0
  151.6572  143.2119  158.2544 C   0  0  0  0  0  0  0  0  0  0  0  0
  152.7790  142.8098  159.0313 O   0  0  0  0  0  0  0  0  0  0  0  0
  152.6748  141.4756  159.5134 C   0  0  0  0  0  0  0  0  0  0  0  0
  152.6165  140.4959  158.3280 C   0  0  0  0  0  0  0  0  0  0  0  0
  151.0505  133.9646  155.9077 H   0  0  0  0  0  0  0  0  0  0  0  0
  149.3377  134.3516  155.8284 H   0  0  0  0  0  0  0  0  0  0  0  0
  149.8883  132.6907  155.5459 H   0  0  0  0  0  0  0  0  0  0  0  0
  148.4637  131.9214  157.2922 H   0  0  0  0  0  0  0  0  0  0  0  0
  148.8691  132.3274  158.9365 H   0  0  0  0  0  0  0  0  0  0  0  0
  147.4239  134.2232  156.9952 H   0  0  0  0  0  0  0  0  0  0  0  0
  146.6431  133.2787  158.1958 H   0  0  0  0  0  0  0  0  0  0  0  0
  147.1172  133.8177  160.6341 H   0  0  0  0  0  0  0  0  0  0  0  0
  148.8393  133.9269  160.5279 H   0  0  0  0  0  0  0  0  0  0  0  0
  145.3534  134.5108  161.3037 H   0  0  0  0  0  0  0  0  0  0  0  0
  144.9260  135.0144  162.9220 H   0  0  0  0  0  0  0  0  0  0  0  0
  146.1624  133.7830  162.6993 H   0  0  0  0  0  0  0  0  0  0  0  0
  147.6480  136.9986  163.7150 H   0  0  0  0  0  0  0  0  0  0  0  0
  145.9510  136.6452  163.9654 H   0  0  0  0  0  0  0  0  0  0  0  0
  146.4297  137.7567  162.6847 H   0  0  0  0  0  0  0  0  0  0  0  0
  145.4973  138.2434  157.3698 H   0  0  0  0  0  0  0  0  0  0  0  0
  151.7070  138.4411  159.0456 H   0  0  0  0  0  0  0  0  0  0  0  0
  149.2577  140.8727  157.3637 H   0  0  0  0  0  0  0  0  0  0  0  0
  149.9282  141.0614  158.9481 H   0  0  0  0  0  0  0  0  0  0  0  0
  152.5659  140.0559  155.6374 H   0  0  0  0  0  0  0  0  0  0  0  0
  151.4502  138.8877  156.3147 H   0  0  0  0  0  0  0  0  0  0  0  0
  149.9966  139.5853  155.0179 H   0  0  0  0  0  0  0  0  0  0  0  0
  152.3892  142.5073  156.3765 H   0  0  0  0  0  0  0  0  0  0  0  0
  150.6528  142.6153  156.4241 H   0  0  0  0  0  0  0  0  0  0  0  0
  151.8048  144.2472  157.9467 H   0  0  0  0  0  0  0  0  0  0  0  0
  150.7535  143.1989  158.8637 H   0  0  0  0  0  0  0  0  0  0  0  0
  153.5489  141.2605  160.1281 H   0  0  0  0  0  0  0  0  0  0  0  0
  151.8053  141.3756  160.1635 H   0  0  0  0  0  0  0  0  0  0  0  0
  152.5736  139.4681  158.6861 H   0  0  0  0  0  0  0  0  0  0  0  0
  153.5638  140.5759  157.7940 H   0  0  0  0  0  0  0  0  0  0  0  0
  1  2  1  0  0  0  0
  1 30  1  0  0  0  0
  1 31  1  0  0  0  0
  1 32  1  0  0  0  0
  2  3  1  0  0  0  0
  3  4  1  0  0  0  0
  3 33  1  0  0  0  0
  3 34  1  0  0  0  0
  4  5  1  0  0  0  0
  4 35  1  0  0  0  0
  4 36  1  0  0  0  0
  5  6  1  0  0  0  0
  5 12  1  0  0  0  0
  6  7  1  0  0  0  0
  6 37  1  0  0  0  0
  6 38  1  0  0  0  0
  7  8  2  0  0  0  0
  7  9  1  0  0  0  0
  9 10  1  0  0  0  0
  9 11  1  0  0  0  0
 10 39  1  0  0  0  0
 10 40  1  0  0  0  0
 10 41  1  0  0  0  0
 11 42  1  0  0  0  0
 11 43  1  0  0  0  0
 11 44  1  0  0  0  0
 12 17  1  0  0  0  0
 12 13  2  0  0  0  0
 13 14  1  0  0  0  0
 14 15  2  0  0  0  0
 14 45  1  0  0  0  0
 15 16  1  0  0  0  0
 16 20  1  0  0  0  0
 16 17  2  0  0  0  0
 17 18  1  0  0  0  0
 18 19  2  0  0  0  0
 19 20  1  0  0  0  0
 19 46  1  0  0  0  0
 20 21  1  0  0  0  0
 21 22  1  0  0  0  0
 21 47  1  0  0  0  0
 21 48  1  0  0  0  0
 22 29  1  0  0  0  0
 22 23  1  0  0  0  0
 22 25  1  0  0  0  0
 23 24  1  0  0  0  0
 23 49  1  0  0  0  0
 23 50  1  0  0  0  0
 24 51  1  0  0  0  0
 25 26  1  0  0  0  0
 25 52  1  0  0  0  0
 25 53  1  0  0  0  0
 26 27  1  0  0  0  0
 26 54  1  0  0  0  0
 26 55  1  0  0  0  0
 27 28  1  0  0  0  0
 28 29  1  0  0  0  0
 28 56  1  0  0  0  0
 28 57  1  0  0  0  0
 29 58  1  0  0  0  0
 29 59  1  0  0  0  0
M  END
> <s_m_source_file>
AV-unprocessed.smi

> <i_m_source_file_index>
222

> <i_lp_mmshare_version>
43012

> <i_f3d_flags>
0

> <s_epik_input>
W0NIM11PW0NIMl1bQ0gyXU4oW0NIMl1DKD1PKU4oW0NIM10pW0NIM10pYyhuW2NIXW4xKWMoYzEyKW5bY0hdbjJbQ0gyXUMzKFtDSDJdW09IXSlbQ0gyXVtDSDJdT1tDSDJdW0NIMl0z

> <s_epik_cmdline>
J2VwaWtfcHl0aG9uJywgJy1waCcsICc3LjAnLCAnLXRuJywgJzgnLCAnLW1hJywgJzIwMCcsICctbWV0YWxfYmluZGluZycsICctaW1hZScsICc8aW5maWxlLm1hZT4nLCAnLW9tYWUnLCAnPG91dGZpbGUubWFlPic=

> <r_lp_tautomer_probability>
1

> <r_epik_Ionization_Penalty>
0.000796957

> <r_epik_Ionization_Penalty_Charging>
0

> <r_epik_Ionization_Penalty_Neutral>
0.000796957

> <r_epik_State_Penalty>
0.000428513

> <r_epik_Charging_Adjusted_Penalty>
0.000428513

> <i_epik_Tot_Q>
0

> <i_epik_Tot_abs_Q>
0

> <r_epik_Metal_State_Penalty>
-0

> <b_epik_Metal_Only>
0

> <s_lp_Force_Field>
OPLS_2005

> <r_lp_Energy>
34.6666

> <b_lp_Chiralities_Consistent>
1

> <s_lp_Variant>
AV-unprocessed.smi:222-1

> <Gold.Version>
5.8.1

> <Gold.Id.Protein>
6NUR|6NUR_protein|mol2

> <Gold.PLP.Fitness>
44.6750

> <Gold.PLP.PLP>
-37.2785

> <Gold.PLP.part.hbond>
-3.3430

> <Gold.PLP.part.metal>
0.0000

> <Gold.PLP.part.buried>
-7.5119

> <Gold.PLP.part.nonpolar>
-27.1529

> <Gold.PLP.part.repulsive>
0.0000

> <Gold.PLP.ligand.clash>
0.0000

> <Gold.PLP.ligand.torsion>
1.7799

> <Gold.PLP.Chemscore.Hbond>
3.4713

> <Gold.PLP.Chemscore.CHOScore>
0.0000

> <Gold.PLP.Chemscore.Metal>
0.0000

> <Gold.Chemscore.Hbonds>
donor molecule, donor type, donor heavy atom, donor atom, acceptor molecule, acceptor atom, score
      P1  H  6896  6907       L1     2  0.99
      P1  H  6896  6908       L1    18  0.34
      P1  H  6931  6943       L1     8  1.00
      P1  H  7989  7998       L1    24  1.00

> <Gold.PLP.Chemscore.Internal.Correction>
0.5425

> <Gold.Rescore>
     Score         DG    S(hbond)    S(metal)    S(lipo)     H(rot)  DE(clash)    DE(int)     intcor
     13.91     -17.91       3.58        0.00      80.37       3.49       1.73       2.26       ----

> <Gold.Chemscore.Fitness>
13.9131

> <Gold.Chemscore.DG>
-17.9055

> <Gold.Chemscore.ZeroCoef>
-5.4800

> <Gold.Chemscore.Hbond>
3.5799

> <Gold.Chemscore.Metal>
0.0000

> <Gold.Chemscore.Lipo>
80.3715

> <Gold.Chemscore.Internal_Hbond>
0.0000

> <Gold.Chemscore.DEClash>
1.7293

> <Gold.Chemscore.DEInternal>
2.2631

> <Gold.Chemscore.Rot>
3.4901

> <Gold.Chemscore.Internal.Correction>
   9.000000E+99

> <Gold.Chemscore.Hbonds>
donor molecule, donor type, donor heavy atom, donor atom, acceptor molecule, acceptor atom, score
      P1  H  6896  6907       L1     2  0.49
      P1  H  6896  6908       L1    18  0.35
      P1  H  6931  6943       L1     8  1.00
      P1  H  7989  7998       L1    24  0.63

> <Gold.Chemscore.Hbond.Weighted>
-11.9567

> <Gold.Chemscore.Metal.Weighted>
-0.0000

> <Gold.Chemscore.Lipo.Weighted>
-9.4035

> <Gold.Chemscore.Internal_Hbond.Weighted>
0.0000

> <Gold.Chemscore.DEClash.Weighted>
1.7293

> <Gold.Chemscore.DEInternal.Weighted>
2.2631

> <Gold.Chemscore.Rot.Weighted>
8.9347

> <Gold.Chemscore.Internal.Correction.Weighted>
   9.000000E+99

> <Gold.Protein.RotatedTorsions>
[ 6907 6896 6895 6894 ] final -145.04 input  -60.11 | X-H torsion
[ 7974 7965 7964 7962 ] final -147.53 input  175.53 | X-H torsion
[ 8008 7997 7996 7995 ] final -114.80 input   59.86 | X-H torsion
[ 10167 10162 10161 10158 ] final   86.74 input  -65.29 | X-H torsion
[ 10718 10713 10712 10709 ] final  168.86 input   66.30 | X-H torsion
[ 10763 10752 10751 10750 ] final  -50.45 input  -60.55 | X-H torsion
[ 11005 11000 10999 10996 ] final  -48.12 input  -57.11 | X-H torsion

> <Gold.Protein.ActiveResidues>
 VAL166  LYS551  ARG553  GLY616  TRP617  ASP618  TYR619  PRO620  LYS621  CYS622 
 ASP623  PHE694  ASN695  SER759  ASP760  ASP761  ALA762  ILE779  LEU786  VAL792 
 PHE793  MET794  SER795  GLU796  ALA797  LYS798  CYS799  TRP800  GLU811  SER814 

> <Gold.Protein.RotatedAtoms>
  151.1222  133.5096  159.2601 H   0  0  0  0  0  0  0  0  0  0  0  0  # atno 6907 bound_to 6896
  151.1848  135.0376  159.8818 H   0  0  0  0  0  0  0  0  0  0  0  0  # atno 6908 bound_to 6896
  152.5456  134.1070  159.8395 H   0  0  0  0  0  0  0  0  0  0  0  0  # atno 6909 bound_to 6896
  144.8087  140.5315  143.5657 H   0  0  0  0  0  0  0  0  0  0  0  0  # atno 7974 bound_to 7965
  155.0421  140.0392  157.2513 H   0  0  0  0  0  0  0  0  0  0  0  0  # atno 8008 bound_to 7997
  154.7208  140.2711  155.6519 H   0  0  0  0  0  0  0  0  0  0  0  0  # atno 8009 bound_to 7997
  156.2816  140.2703  156.1879 H   0  0  0  0  0  0  0  0  0  0  0  0  # atno 8010 bound_to 7997
  139.8844  144.6421  150.8807 H   0  0  0  0  0  0  0  0  0  0  0  0  # atno 10167 bound_to 10162
  157.0310  131.0259  151.2744 H   0  0  0  0  0  0  0  0  0  0  0  0  # atno 10718 bound_to 10713
  154.1106  135.6550  153.4884 H   0  0  0  0  0  0  0  0  0  0  0  0  # atno 10763 bound_to 10752
  153.0258  135.5246  154.7196 H   0  0  0  0  0  0  0  0  0  0  0  0  # atno 10764 bound_to 10752
  154.6375  135.2984  155.0113 H   0  0  0  0  0  0  0  0  0  0  0  0  # atno 10765 bound_to 10752
  141.0681  133.6687  156.3395 H   0  0  0  0  0  0  0  0  0  0  0  0  # atno 11005 bound_to 11000
  145.5375  139.1475  143.3465 LP  0  0  0  0  0  0  0  0  0  0  0  0  # atno 17320 bound_to 7965
  146.2383  140.5515  142.8945 LP  0  0  0  0  0  0  0  0  0  0  0  0  # atno 17321 bound_to 7965
  140.7738  143.3560  151.1921 LP  0  0  0  0  0  0  0  0  0  0  0  0  # atno 17342 bound_to 10162
  139.7166  143.9290  152.2969 LP  0  0  0  0  0  0  0  0  0  0  0  0  # atno 17343 bound_to 10162
  157.5177  130.7978  149.7775 LP  0  0  0  0  0  0  0  0  0  0  0  0  # atno 17370 bound_to 10713
  156.0069  130.3851  150.2398 LP  0  0  0  0  0  0  0  0  0  0  0  0  # atno 17371 bound_to 10713
  140.5730  134.5821  157.5462 LP  0  0  0  0  0  0  0  0  0  0  0  0  # atno 17394 bound_to 11000
  139.9496  134.7640  156.0479 LP  0  0  0  0  0  0  0  0  0  0  0  0  # atno 17395 bound_to 11000

$$$$
