AV-unprocessed.smi:2996|AV-procd|sdf|11410|dock1
  -GOLD-   2272016333D 1   1.00000     0.00000
 Structure written by MMmdl.
 46 47  0  0  0  0  0  0  0  0  1 V2000
  148.5221  141.0156  155.2380 C   0  0  0  0  0  0  0  0  0  0  0  0
  148.9327  139.5628  154.9736 C   0  0  0  0  0  0  0  0  0  0  0  0
  150.4209  139.3700  155.0737 C   0  0  0  0  0  0  0  0  0  0  0  0
  151.1916  140.3552  155.5059 N   0  0  0  0  0  0  0  0  0  0  0  0
  152.5084  139.8728  155.4624 O   0  0  0  0  0  0  0  0  0  0  0  0
  152.5038  138.5951  154.9946 C   0  0  0  0  0  0  0  0  0  0  0  0
  153.8411  137.9522  154.8272 C   0  0  0  0  0  0  0  0  0  0  0  0
  151.2052  138.2293  154.7590 C   0  0  0  0  0  0  0  0  0  0  0  0
  150.6849  137.0182  154.2357 N   0  0  0  0  0  0  0  0  0  0  0  0
  150.9626  135.7697  154.6406 C   0  0  0  0  0  0  0  0  0  0  0  0
  151.7181  135.4790  155.5668 O   0  0  0  0  0  0  0  0  0  0  0  0
  150.2848  134.8650  153.9219 N   0  0  0  0  0  0  0  0  0  0  0  0
  150.3279  133.4194  154.1317 C   0  0  2  0  0  0  0  0  0  0  0  0
  149.5852  132.6759  153.0392 C   0  0  0  0  0  0  0  0  0  0  0  0
  149.2205  131.3449  153.7083 C   0  0  0  0  0  0  0  0  0  0  0  0
  147.8440  130.8270  153.2638 C   0  0  0  0  0  0  0  0  0  0  0  0
  150.3065  130.2772  153.4924 C   0  0  0  0  0  0  0  0  0  0  0  0
  149.1703  131.6219  155.1074 O   0  0  0  0  0  0  0  0  0  0  0  0
  149.5971  132.9498  155.4082 C   0  0  0  0  0  0  0  0  0  0  0  0
  150.5322  132.8784  156.6258 C   0  0  0  0  0  0  0  0  0  0  0  0
  148.3244  133.7551  155.7450 C   0  0  0  0  0  0  0  0  0  0  0  0
  147.4412  141.1340  155.1612 H   0  0  0  0  0  0  0  0  0  0  0  0
  148.9839  141.6912  154.5173 H   0  0  0  0  0  0  0  0  0  0  0  0
  148.8216  141.3348  156.2367 H   0  0  0  0  0  0  0  0  0  0  0  0
  148.4238  138.9087  155.6822 H   0  0  0  0  0  0  0  0  0  0  0  0
  148.5830  139.2627  153.9855 H   0  0  0  0  0  0  0  0  0  0  0  0
  153.8589  137.3137  153.9439 H   0  0  0  0  0  0  0  0  0  0  0  0
  154.0891  137.3430  155.6962 H   0  0  0  0  0  0  0  0  0  0  0  0
  154.6230  138.7029  154.7096 H   0  0  0  0  0  0  0  0  0  0  0  0
  149.9603  137.1156  153.5399 H   0  0  0  0  0  0  0  0  0  0  0  0
  149.6819  135.1980  153.1841 H   0  0  0  0  0  0  0  0  0  0  0  0
  151.3613  133.0664  154.1381 H   0  0  0  0  0  0  0  0  0  0  0  0
  148.6811  133.2222  152.7648 H   0  0  0  0  0  0  0  0  0  0  0  0
  150.1781  132.5526  152.1321 H   0  0  0  0  0  0  0  0  0  0  0  0
  147.8277  130.6203  152.1935 H   0  0  0  0  0  0  0  0  0  0  0  0
  147.0598  131.5548  153.4743 H   0  0  0  0  0  0  0  0  0  0  0  0
  147.5831  129.9057  153.7853 H   0  0  0  0  0  0  0  0  0  0  0  0
  150.4074  130.0258  152.4362 H   0  0  0  0  0  0  0  0  0  0  0  0
  150.0670  129.3593  154.0300 H   0  0  0  0  0  0  0  0  0  0  0  0
  151.2795  130.6184  153.8467 H   0  0  0  0  0  0  0  0  0  0  0  0
  150.8869  133.8686  156.9120 H   0  0  0  0  0  0  0  0  0  0  0  0
  151.4050  132.2590  156.4181 H   0  0  0  0  0  0  0  0  0  0  0  0
  150.0230  132.4478  157.4883 H   0  0  0  0  0  0  0  0  0  0  0  0
  148.5613  134.7796  156.0331 H   0  0  0  0  0  0  0  0  0  0  0  0
  147.7863  133.3008  156.5776 H   0  0  0  0  0  0  0  0  0  0  0  0
  147.6376  133.7969  154.8995 H   0  0  0  0  0  0  0  0  0  0  0  0
  1  2  1  0  0  0  0
  1 22  1  0  0  0  0
  1 23  1  0  0  0  0
  1 24  1  0  0  0  0
  2  3  1  0  0  0  0
  2 25  1  0  0  0  0
  2 26  1  0  0  0  0
  3  8  1  0  0  0  0
  3  4  2  0  0  0  0
  4  5  1  0  0  0  0
  5  6  1  0  0  0  0
  6  7  1  0  0  0  0
  6  8  2  0  0  0  0
  7 27  1  0  0  0  0
  7 28  1  0  0  0  0
  7 29  1  0  0  0  0
  8  9  1  0  0  0  0
  9 10  1  0  0  0  0
  9 30  1  0  0  0  0
 10 11  2  0  0  0  0
 10 12  1  0  0  0  0
 12 13  1  0  0  0  0
 12 31  1  0  0  0  0
 13 19  1  0  0  0  0
 13 14  1  0  0  0  0
 13 32  1  0  0  0  0
 14 15  1  0  0  0  0
 14 33  1  0  0  0  0
 14 34  1  0  0  0  0
 15 16  1  0  0  0  0
 15 17  1  0  0  0  0
 15 18  1  0  0  0  0
 16 35  1  0  0  0  0
 16 36  1  0  0  0  0
 16 37  1  0  0  0  0
 17 38  1  0  0  0  0
 17 39  1  0  0  0  0
 17 40  1  0  0  0  0
 18 19  1  0  0  0  0
 19 20  1  0  0  0  0
 19 21  1  0  0  0  0
 20 41  1  0  0  0  0
 20 42  1  0  0  0  0
 20 43  1  0  0  0  0
 21 44  1  0  0  0  0
 21 45  1  0  0  0  0
 21 46  1  0  0  0  0
M  END
> <s_m_source_file>
AV-unprocessed.smi

> <i_m_source_file_index>
2996

> <i_lp_mmshare_version>
43012

> <i_f3d_flags>
0

> <s_epik_input>
W0NIM11bQ0gyXWMxbm9jKFtDSDNdKWMxW05IXUMoPU8pW05IXVtDQEBIXShDKE8yKShbQ0gzXSlbQ0gzXSlbQ0gyXUMyKFtDSDNdKVtDSDNd

> <s_epik_cmdline>
J2VwaWtfcHl0aG9uJywgJy1waCcsICc3LjAnLCAnLXRuJywgJzgnLCAnLW1hJywgJzIwMCcsICctbWV0YWxfYmluZGluZycsICctaW1hZScsICc8aW5maWxlLm1hZT4nLCAnLW9tYWUnLCAnPG91dGZpbGUubWFlPic=

> <r_lp_tautomer_probability>
1

> <r_epik_Ionization_Penalty>
3.17207e-05

> <r_epik_Ionization_Penalty_Charging>
0

> <r_epik_Ionization_Penalty_Neutral>
3.17207e-05

> <r_epik_State_Penalty>
-0

> <r_epik_Charging_Adjusted_Penalty>
0

> <i_epik_Tot_Q>
0

> <i_epik_Tot_abs_Q>
0

> <r_epik_Metal_State_Penalty>
-0

> <b_epik_Metal_Only>
0

> <s_lp_Force_Field>
OPLS_2005

> <r_lp_Energy>
17.7476

> <b_lp_Chiralities_Consistent>
1

> <s_lp_Variant>
AV-unprocessed.smi:2996-1

> <Gold.Version>
5.8.1

> <Gold.Id.Protein>
6NUR|6NUR_protein|mol2

> <Gold.PLP.Fitness>
43.8792

> <Gold.PLP.PLP>
-33.3422

> <Gold.PLP.part.hbond>
-7.9599

> <Gold.PLP.part.metal>
0.0000

> <Gold.PLP.part.buried>
3.4795

> <Gold.PLP.part.nonpolar>
-29.5143

> <Gold.PLP.part.repulsive>
0.2365

> <Gold.PLP.ligand.clash>
0.0000

> <Gold.PLP.ligand.torsion>
0.5665

> <Gold.PLP.Chemscore.Hbond>
3.8375

> <Gold.PLP.Chemscore.CHOScore>
0.0000

> <Gold.PLP.Chemscore.Metal>
0.0000

> <Gold.Chemscore.Hbonds>
donor molecule, donor type, donor heavy atom, donor atom, acceptor molecule, acceptor atom, score
      L1  H     9    30       P1  7948  0.74
      L1  H    12    31       P1  7948  0.20
      P1  H  7989  7998       L1     4  0.04
      P1  H  7997  8008       L1     5  1.00
      P1  H 10752 10763       L1    11  0.96

> <Gold.PLP.Chemscore.Internal.Correction>
0.1574

> <Gold.Rescore>
     Score         DG    S(hbond)    S(metal)    S(lipo)     H(rot)  DE(clash)    DE(int)     intcor
     14.92     -18.70       1.99        0.00      81.70       1.16       3.00       0.78       ----

> <Gold.Chemscore.Fitness>
14.9165

> <Gold.Chemscore.DG>
-18.7038

> <Gold.Chemscore.ZeroCoef>
-5.4800

> <Gold.Chemscore.Hbond>
1.9855

> <Gold.Chemscore.Metal>
0.0000

> <Gold.Chemscore.Lipo>
81.7042

> <Gold.Chemscore.Internal_Hbond>
0.0000

> <Gold.Chemscore.DEClash>
3.0029

> <Gold.Chemscore.DEInternal>
0.7845

> <Gold.Chemscore.Rot>
1.1590

> <Gold.Chemscore.Internal.Correction>
   9.000000E+99

> <Gold.Chemscore.Hbonds>
donor molecule, donor type, donor heavy atom, donor atom, acceptor molecule, acceptor atom, score
      L1  H     9    30       P1  7948  0.29
      P1  H  7997  8008       L1     5  0.44
      P1  H 10752 10763       L1    11  0.64

> <Gold.Chemscore.Hbond.Weighted>
-6.6315

> <Gold.Chemscore.Metal.Weighted>
-0.0000

> <Gold.Chemscore.Lipo.Weighted>
-9.5594

> <Gold.Chemscore.Internal_Hbond.Weighted>
0.0000

> <Gold.Chemscore.DEClash.Weighted>
3.0029

> <Gold.Chemscore.DEInternal.Weighted>
0.7845

> <Gold.Chemscore.Rot.Weighted>
2.9671

> <Gold.Chemscore.Internal.Correction.Weighted>
   9.000000E+99

> <Gold.Protein.RotatedTorsions>
[ 6907 6896 6895 6894 ] final -131.60 input  -60.11 | X-H torsion
[ 7974 7965 7964 7962 ] final -103.99 input  175.53 | X-H torsion
[ 8008 7997 7996 7995 ] final  -23.87 input   59.86 | X-H torsion
[ 10167 10162 10161 10158 ] final  -87.26 input  -65.29 | X-H torsion
[ 10718 10713 10712 10709 ] final   59.62 input   66.30 | X-H torsion
[ 10763 10752 10751 10750 ] final   91.97 input  -60.55 | X-H torsion
[ 11005 11000 10999 10996 ] final  165.18 input  -57.11 | X-H torsion

> <Gold.Protein.ActiveResidues>
 VAL166  LYS551  ARG553  GLY616  TRP617  ASP618  TYR619  PRO620  LYS621  CYS622 
 ASP623  PHE694  ASN695  SER759  ASP760  ASP761  ALA762  ILE779  LEU786  VAL792 
 PHE793  MET794  SER795  GLU796  ALA797  LYS798  CYS799  TRP800  GLU811  SER814 

> <Gold.Protein.RotatedAtoms>
  150.9528  133.6531  159.2768 H   0  0  0  0  0  0  0  0  0  0  0  0  # atno 6907 bound_to 6896
  151.3881  135.0950  159.9527 H   0  0  0  0  0  0  0  0  0  0  0  0  # atno 6908 bound_to 6896
  152.5117  133.9048  159.7513 H   0  0  0  0  0  0  0  0  0  0  0  0  # atno 6909 bound_to 6896
  145.2489  140.9231  143.3107 H   0  0  0  0  0  0  0  0  0  0  0  0  # atno 7974 bound_to 7965
  154.4561  140.1969  156.0376 H   0  0  0  0  0  0  0  0  0  0  0  0  # atno 8008 bound_to 7997
  156.0748  140.3279  155.7592 H   0  0  0  0  0  0  0  0  0  0  0  0  # atno 8009 bound_to 7997
  155.5206  140.0569  157.2898 H   0  0  0  0  0  0  0  0  0  0  0  0  # atno 8010 bound_to 7997
  140.3861  143.2726  151.9323 H   0  0  0  0  0  0  0  0  0  0  0  0  # atno 10167 bound_to 10162
  157.5690  130.8893  149.9235 H   0  0  0  0  0  0  0  0  0  0  0  0  # atno 10718 bound_to 10713
  153.2140  135.4378  155.0413 H   0  0  0  0  0  0  0  0  0  0  0  0  # atno 10763 bound_to 10752
  154.8215  135.3340  154.7026 H   0  0  0  0  0  0  0  0  0  0  0  0  # atno 10764 bound_to 10752
  153.7462  135.7001  153.5011 H   0  0  0  0  0  0  0  0  0  0  0  0  # atno 10765 bound_to 10752
  140.2535  134.7958  157.3523 H   0  0  0  0  0  0  0  0  0  0  0  0  # atno 11005 bound_to 11000
  144.9521  139.4071  143.6397 LP  0  0  0  0  0  0  0  0  0  0  0  0  # atno 17320 bound_to 7965
  146.3308  139.8533  142.8869 LP  0  0  0  0  0  0  0  0  0  0  0  0  # atno 17321 bound_to 7965
  139.4792  144.5772  151.7992 LP  0  0  0  0  0  0  0  0  0  0  0  0  # atno 17342 bound_to 10162
  140.4887  144.1342  150.5946 LP  0  0  0  0  0  0  0  0  0  0  0  0  # atno 17343 bound_to 10162
  156.0736  130.3682  150.0723 LP  0  0  0  0  0  0  0  0  0  0  0  0  # atno 17370 bound_to 10713
  156.8878  130.9578  151.3592 LP  0  0  0  0  0  0  0  0  0  0  0  0  # atno 17371 bound_to 10713
  140.1535  134.4820  155.7944 LP  0  0  0  0  0  0  0  0  0  0  0  0  # atno 17394 bound_to 11000
  141.2199  133.6872  156.7420 LP  0  0  0  0  0  0  0  0  0  0  0  0  # atno 17395 bound_to 11000

$$$$
