AV-unprocessed.smi:53|AV-procd|sdf|520|dock8
  -GOLD-   2262016393D 1   1.00000     0.00000
 Structure written by MMmdl.
 30 31  0  0  0  0  0  0  0  0  1 V2000
  150.6251  143.3214  157.1897 N   0  0  0  0  0  0  0  0  0  0  0  0
  150.9323  142.0597  156.8570 C   0  0  0  0  0  0  0  0  0  0  0  0
  150.3230  141.4403  155.7018 C   0  0  0  0  0  0  0  0  0  0  0  0
  150.6805  140.1651  155.4339 C   0  0  0  0  0  0  0  0  0  0  0  0
  151.5792  139.4662  156.2281 N   0  0  0  0  0  0  0  0  0  0  0  0
  151.9711  138.0430  155.8990 C   0  0  1  0  0  0  0  0  0  0  0  0
  151.5298  137.2063  156.9283 O   0  0  0  0  0  0  0  0  0  0  0  0
  150.8414  136.0827  156.3879 C   0  0  1  0  0  0  0  0  0  0  0  0
  149.8162  135.5603  157.4063 C   0  0  0  0  0  0  0  0  0  0  0  0
  149.8631  134.1506  157.4621 O   0  0  0  0  0  0  0  0  0  0  0  0
  150.2081  136.6576  155.1201 C   0  0  2  0  0  0  0  0  0  0  0  0
  149.8283  135.6626  154.1879 O   0  0  0  0  0  0  0  0  0  0  0  0
  151.2927  137.5915  154.5952 C   0  0  2  0  0  0  0  0  0  0  0  0
  152.2123  136.9326  153.7427 O   0  0  0  0  0  0  0  0  0  0  0  0
  152.1767  140.1074  157.3396 C   0  0  0  0  0  0  0  0  0  0  0  0
  153.0092  139.5414  158.0471 O   0  0  0  0  0  0  0  0  0  0  0  0
  151.8006  141.3985  157.5975 N   0  0  0  0  0  0  0  0  0  0  0  0
  153.0622  138.0121  155.8718 H   0  0  0  0  0  0  0  0  0  0  0  0
  151.5653  135.3106  156.1190 H   0  0  0  0  0  0  0  0  0  0  0  0
  149.3293  137.2471  155.3855 H   0  0  0  0  0  0  0  0  0  0  0  0
  150.8707  138.4401  154.0547 H   0  0  0  0  0  0  0  0  0  0  0  0
  151.0549  143.7528  157.9953 H   0  0  0  0  0  0  0  0  0  0  0  0
  149.9655  143.8411  156.6289 H   0  0  0  0  0  0  0  0  0  0  0  0
  149.6130  141.9444  155.0619 H   0  0  0  0  0  0  0  0  0  0  0  0
  150.2418  139.6924  154.5675 H   0  0  0  0  0  0  0  0  0  0  0  0
  149.9853  135.9869  158.3956 H   0  0  0  0  0  0  0  0  0  0  0  0
  148.8077  135.8407  157.1009 H   0  0  0  0  0  0  0  0  0  0  0  0
  149.9663  133.8179  156.5836 H   0  0  0  0  0  0  0  0  0  0  0  0
  149.4873  136.0892  153.4164 H   0  0  0  0  0  0  0  0  0  0  0  0
  151.8235  136.8568  152.8848 H   0  0  0  0  0  0  0  0  0  0  0  0
  1  2  1  0  0  0  0
  1 22  1  0  0  0  0
  1 23  1  0  0  0  0
  2 17  2  0  0  0  0
  2  3  1  0  0  0  0
  3  4  2  0  0  0  0
  3 24  1  0  0  0  0
  4  5  1  0  0  0  0
  4 25  1  0  0  0  0
  5  6  1  0  0  0  0
  5 15  1  0  0  0  0
  6 18  1  0  0  0  0
  6 13  1  0  0  0  0
  6  7  1  0  0  0  0
  7  8  1  0  0  0  0
  8 19  1  0  0  0  0
  8  9  1  0  0  0  0
  8 11  1  0  0  0  0
  9 10  1  0  0  0  0
  9 26  1  0  0  0  0
  9 27  1  0  0  0  0
 10 28  1  0  0  0  0
 11 20  1  0  0  0  0
 11 12  1  0  0  0  0
 11 13  1  0  0  0  0
 12 29  1  0  0  0  0
 13 21  1  0  0  0  0
 13 14  1  0  0  0  0
 14 30  1  0  0  0  0
 15 16  2  0  0  0  0
 15 17  1  0  0  0  0
M  END
> <s_m_source_file>
AV-unprocessed.smi

> <i_m_source_file_index>
53

> <i_lp_mmshare_version>
43012

> <i_f3d_flags>
0

> <s_epik_input>
W05IMl1jMVtjSF1bY0hdbihjKD1PKW4xKVtDQEBIXTJPW0NASF0oW0NIMl1bT0hdKVtDQEBIXShbT0hdKVtDQEBIXTJbT0hd

> <s_epik_cmdline>
J2VwaWtfcHl0aG9uJywgJy1waCcsICc3LjAnLCAnLXRuJywgJzgnLCAnLW1hJywgJzIwMCcsICctbWV0YWxfYmluZGluZycsICctaW1hZScsICc8aW5maWxlLm1hZT4nLCAnLW9tYWUnLCAnPG91dGZpbGUubWFlPic=

> <r_lp_tautomer_probability>
0.99996

> <r_epik_Ionization_Penalty>
0.00069087

> <r_epik_Ionization_Penalty_Charging>
2.61959e-08

> <r_epik_Ionization_Penalty_Neutral>
0.000690844

> <r_epik_State_Penalty>
1.15523e-05

> <r_epik_Charging_Adjusted_Penalty>
1.15785e-05

> <i_epik_Tot_Q>
0

> <i_epik_Tot_abs_Q>
0

> <r_epik_Metal_State_Penalty>
-0

> <b_epik_Metal_Only>
0

> <s_epik_Chemistry_Notes>
This compound contains an acetal/aminal-like group ( X-CH(R)-Y where X, Y are N, S, or O) that may be acid/base labile, releasing an aldehyde.

> <s_lp_Force_Field>
OPLS_2005

> <r_lp_Energy>
33.3856

> <b_lp_Chiralities_Consistent>
1

> <s_lp_Variant>
AV-unprocessed.smi:53-8

> <Gold.Version>
5.8.1

> <Gold.Id.Protein>
6NUR|6NUR_protein|mol2

> <Gold.PLP.Fitness>
41.5331

> <Gold.PLP.PLP>
-24.9413

> <Gold.PLP.part.hbond>
-6.7434

> <Gold.PLP.part.metal>
0.0000

> <Gold.PLP.part.buried>
-1.2321

> <Gold.PLP.part.nonpolar>
-17.5425

> <Gold.PLP.part.repulsive>
0.0181

> <Gold.PLP.ligand.clash>
0.0000

> <Gold.PLP.ligand.torsion>
0.7004

> <Gold.PLP.Chemscore.Hbond>
5.9920

> <Gold.PLP.Chemscore.CHOScore>
0.0000

> <Gold.PLP.Chemscore.Metal>
0.0000

> <Gold.Chemscore.Hbonds>
donor molecule, donor type, donor heavy atom, donor atom, acceptor molecule, acceptor atom, score
      L1  H     1    23       P1  8028  1.00
      L1  H    12    29       P1  7948  1.00
      L1  H    14    30       P1  7949  1.00
      P1  H  6896  6909       L1    10  0.94
      P1  H  7997  8008       L1    16  0.90
      P1  H 10752 10763       L1    14  0.94

> <Gold.PLP.Chemscore.Internal.Correction>
0.0166

> <Gold.Rescore>
     Score         DG    S(hbond)    S(metal)    S(lipo)     H(rot)  DE(clash)    DE(int)     intcor
     15.95     -17.26       5.26        0.00      31.69       3.71       0.30       1.01       ----

> <Gold.Chemscore.Fitness>
15.9536

> <Gold.Chemscore.DG>
-17.2591

> <Gold.Chemscore.ZeroCoef>
-5.4800

> <Gold.Chemscore.Hbond>
5.2598

> <Gold.Chemscore.Metal>
0.0000

> <Gold.Chemscore.Lipo>
31.6892

> <Gold.Chemscore.Internal_Hbond>
0.0000

> <Gold.Chemscore.DEClash>
0.2988

> <Gold.Chemscore.DEInternal>
1.0067

> <Gold.Chemscore.Rot>
3.7095

> <Gold.Chemscore.Internal.Correction>
   9.000000E+99

> <Gold.Chemscore.Hbonds>
donor molecule, donor type, donor heavy atom, donor atom, acceptor molecule, acceptor atom, score
      L1  H     1    23       P1  8028  1.00
      L1  H    12    29       P1  7948  0.44
      L1  H    14    30       P1  7949  0.98
      P1  H  6896  6909       L1    10  0.19
      P1  H  7997  8008       L1    16  0.18
      P1  H 10752 10763       L1    14  0.71

> <Gold.Chemscore.Hbond.Weighted>
-17.5679

> <Gold.Chemscore.Metal.Weighted>
-0.0000

> <Gold.Chemscore.Lipo.Weighted>
-3.7076

> <Gold.Chemscore.Internal_Hbond.Weighted>
0.0000

> <Gold.Chemscore.DEClash.Weighted>
0.2988

> <Gold.Chemscore.DEInternal.Weighted>
1.0067

> <Gold.Chemscore.Rot.Weighted>
9.4964

> <Gold.Chemscore.Internal.Correction.Weighted>
   9.000000E+99

> <Gold.Protein.RotatedTorsions>
[ 6907 6896 6895 6894 ] final    8.79 input  -60.11 | X-H torsion
[ 7974 7965 7964 7962 ] final -163.34 input  175.53 | X-H torsion
[ 8008 7997 7996 7995 ] final  -87.15 input   59.86 | X-H torsion
[ 10167 10162 10161 10158 ] final  -48.85 input  -65.29 | X-H torsion
[ 10718 10713 10712 10709 ] final  136.53 input   66.30 | X-H torsion
[ 10763 10752 10751 10750 ] final   32.60 input  -60.55 | X-H torsion
[ 11005 11000 10999 10996 ] final   74.18 input  -57.11 | X-H torsion

> <Gold.Protein.ActiveResidues>
 VAL166  LYS551  ARG553  GLY616  TRP617  ASP618  TYR619  PRO620  LYS621  CYS622 
 ASP623  PHE694  ASN695  SER759  ASP760  ASP761  ALA762  ILE779  LEU786  VAL792 
 PHE793  MET794  SER795  GLU796  ALA797  LYS798  CYS799  TRP800  GLU811  SER814 

> <Gold.Protein.RotatedAtoms>
  151.7116  135.0911  160.0268 H   0  0  0  0  0  0  0  0  0  0  0  0  # atno 6907 bound_to 6896
  152.3658  133.6350  159.6057 H   0  0  0  0  0  0  0  0  0  0  0  0  # atno 6908 bound_to 6896
  150.7637  133.9267  159.3456 H   0  0  0  0  0  0  0  0  0  0  0  0  # atno 6909 bound_to 6896
  144.7329  140.3121  143.6186 H   0  0  0  0  0  0  0  0  0  0  0  0  # atno 7974 bound_to 7965
  154.6599  140.0569  157.0050 H   0  0  0  0  0  0  0  0  0  0  0  0  # atno 8008 bound_to 7997
  155.1244  140.3250  155.4471 H   0  0  0  0  0  0  0  0  0  0  0  0  # atno 8009 bound_to 7997
  156.2613  140.1992  156.6365 H   0  0  0  0  0  0  0  0  0  0  0  0  # atno 8010 bound_to 7997
  140.6712  143.2722  151.4130 H   0  0  0  0  0  0  0  0  0  0  0  0  # atno 10167 bound_to 10162
  157.4457  131.1061  151.0092 H   0  0  0  0  0  0  0  0  0  0  0  0  # atno 10718 bound_to 10713
  153.0254  135.6409  154.1380 H   0  0  0  0  0  0  0  0  0  0  0  0  # atno 10763 bound_to 10752
  154.1110  135.2853  155.3232 H   0  0  0  0  0  0  0  0  0  0  0  0  # atno 10764 bound_to 10752
  154.6332  135.5485  153.7766 H   0  0  0  0  0  0  0  0  0  0  0  0  # atno 10765 bound_to 10752
  139.9403  134.7411  156.1117 H   0  0  0  0  0  0  0  0  0  0  0  0  # atno 11005 bound_to 11000
  145.7655  139.1839  143.2243 LP  0  0  0  0  0  0  0  0  0  0  0  0  # atno 17320 bound_to 7965
  146.0953  140.7608  142.9575 LP  0  0  0  0  0  0  0  0  0  0  0  0  # atno 17321 bound_to 7965
  139.5982  144.1352  152.2168 LP  0  0  0  0  0  0  0  0  0  0  0  0  # atno 17342 bound_to 10162
  140.0728  144.5765  150.7179 LP  0  0  0  0  0  0  0  0  0  0  0  0  # atno 17343 bound_to 10162
  157.0939  130.5954  149.5445 LP  0  0  0  0  0  0  0  0  0  0  0  0  # atno 17370 bound_to 10713
  155.9966  130.5036  150.7504 LP  0  0  0  0  0  0  0  0  0  0  0  0  # atno 17371 bound_to 10713
  141.1035  133.6668  156.2809 LP  0  0  0  0  0  0  0  0  0  0  0  0  # atno 17394 bound_to 11000
  140.5968  134.5595  157.5510 LP  0  0  0  0  0  0  0  0  0  0  0  0  # atno 17395 bound_to 11000

$$$$
