AV-unprocessed.smi:1912|AV-procd|sdf|7749|dock6
  -GOLD-   22720 9483D 1   1.00000     0.00000
 Structure written by MMmdl.
 43 45  0  0  0  0  0  0  0  0  1 V2000
  146.8978  141.7574  156.5391 C   0  0  0  0  0  0  0  0  0  0  0  0
  147.8394  141.2839  157.4906 O   0  0  0  0  0  0  0  0  0  0  0  0
  149.0749  140.8774  157.0342 C   0  0  0  0  0  0  0  0  0  0  0  0
  149.4813  140.9311  155.6804 C   0  0  0  0  0  0  0  0  0  0  0  0
  150.7605  140.4838  155.3022 C   0  0  0  0  0  0  0  0  0  0  0  0
  151.6660  139.9734  156.2647 C   0  0  0  0  0  0  0  0  0  0  0  0
  152.9214  139.4986  155.9435 O   0  0  0  0  0  0  0  0  0  0  0  0
  153.1388  139.0020  154.6316 C   0  0  0  0  0  0  0  0  0  0  0  0
  151.2659  139.9272  157.6229 C   0  0  0  0  0  0  0  0  0  0  0  0
  152.1969  139.3464  158.6871 C   0  0  1  0  0  0  0  0  0  0  0  0
  152.5945  138.0211  158.3971 O   0  0  0  0  0  0  0  0  0  0  0  0
  153.4721  140.1955  158.8764 C   0  0  0  0  0  0  0  0  0  0  0  0
  153.2801  141.2913  159.8171 N   0  0  0  0  0  0  0  0  0  0  0  0
  153.6886  141.3634  161.1077 C   0  0  0  0  0  0  0  0  0  0  0  0
  154.4569  140.2558  161.7557 C   0  0  0  0  0  0  0  0  0  0  0  0
  153.3582  142.4770  161.7618 N   0  0  0  0  0  0  0  0  0  0  0  0
  152.6708  143.1975  160.8042 C   0  0  0  0  0  0  0  0  0  0  0  0
  152.0525  144.4662  160.8784 C   0  0  0  0  0  0  0  0  0  0  0  0
  151.3934  145.0060  159.7546 C   0  0  0  0  0  0  0  0  0  0  0  0
  151.3441  144.2874  158.5426 C   0  0  0  0  0  0  0  0  0  0  0  0
  151.9556  143.0230  158.4466 C   0  0  0  0  0  0  0  0  0  0  0  0
  152.6100  142.4869  159.5720 C   0  0  0  0  0  0  0  0  0  0  0  0
  149.9774  140.3752  157.9903 C   0  0  0  0  0  0  0  0  0  0  0  0
  145.9740  142.0253  157.0517 H   0  0  0  0  0  0  0  0  0  0  0  0
  146.6554  140.9899  155.8028 H   0  0  0  0  0  0  0  0  0  0  0  0
  147.2606  142.6493  156.0267 H   0  0  0  0  0  0  0  0  0  0  0  0
  148.8277  141.3083  154.9087 H   0  0  0  0  0  0  0  0  0  0  0  0
  151.0231  140.5409  154.2570 H   0  0  0  0  0  0  0  0  0  0  0  0
  154.1383  138.5713  154.5734 H   0  0  0  0  0  0  0  0  0  0  0  0
  153.0779  139.7983  153.8889 H   0  0  0  0  0  0  0  0  0  0  0  0
  152.4269  138.2143  154.3807 H   0  0  0  0  0  0  0  0  0  0  0  0
  151.6630  139.2834  159.6348 H   0  0  0  0  0  0  0  0  0  0  0  0
  153.1165  137.7012  159.1171 H   0  0  0  0  0  0  0  0  0  0  0  0
  154.2917  139.5729  159.2368 H   0  0  0  0  0  0  0  0  0  0  0  0
  153.8031  140.6056  157.9214 H   0  0  0  0  0  0  0  0  0  0  0  0
  154.6667  140.4961  162.7985 H   0  0  0  0  0  0  0  0  0  0  0  0
  155.4062  140.1035  161.2419 H   0  0  0  0  0  0  0  0  0  0  0  0
  153.8855  139.3284  161.7274 H   0  0  0  0  0  0  0  0  0  0  0  0
  152.0840  145.0242  161.8024 H   0  0  0  0  0  0  0  0  0  0  0  0
  150.9231  145.9759  159.8230 H   0  0  0  0  0  0  0  0  0  0  0  0
  150.8352  144.7068  157.6872 H   0  0  0  0  0  0  0  0  0  0  0  0
  151.9134  142.4682  157.5211 H   0  0  0  0  0  0  0  0  0  0  0  0
  149.6635  140.3218  159.0225 H   0  0  0  0  0  0  0  0  0  0  0  0
  1  2  1  0  0  0  0
  1 24  1  0  0  0  0
  1 25  1  0  0  0  0
  1 26  1  0  0  0  0
  2  3  1  0  0  0  0
  3 23  1  0  0  0  0
  3  4  2  0  0  0  0
  4  5  1  0  0  0  0
  4 27  1  0  0  0  0
  5  6  2  0  0  0  0
  5 28  1  0  0  0  0
  6  7  1  0  0  0  0
  6  9  1  0  0  0  0
  7  8  1  0  0  0  0
  8 29  1  0  0  0  0
  8 30  1  0  0  0  0
  8 31  1  0  0  0  0
  9 10  1  0  0  0  0
  9 23  2  0  0  0  0
 10 11  1  0  0  0  0
 10 12  1  0  0  0  0
 10 32  1  0  0  0  0
 11 33  1  0  0  0  0
 12 13  1  0  0  0  0
 12 34  1  0  0  0  0
 12 35  1  0  0  0  0
 13 22  1  0  0  0  0
 13 14  1  0  0  0  0
 14 15  1  0  0  0  0
 14 16  2  0  0  0  0
 15 36  1  0  0  0  0
 15 37  1  0  0  0  0
 15 38  1  0  0  0  0
 16 17  1  0  0  0  0
 17 22  2  0  0  0  0
 17 18  1  0  0  0  0
 18 19  2  0  0  0  0
 18 39  1  0  0  0  0
 19 20  1  0  0  0  0
 19 40  1  0  0  0  0
 20 21  2  0  0  0  0
 20 41  1  0  0  0  0
 21 22  1  0  0  0  0
 21 42  1  0  0  0  0
 23 43  1  0  0  0  0
M  END
> <s_m_source_file>
AV-unprocessed.smi

> <i_m_source_file_index>
1912

> <i_lp_mmshare_version>
43012

> <i_f3d_flags>
0

> <s_epik_input>
W0NIM11PYzFbY0hdW2NIXWMoT1tDSDNdKWMoW2NIXTEpW0NASF0oW09IXSlbQ0gyXW4oYyhuMilbQ0gzXSljKGMyMylbY0hdW2NIXVtjSF1bY0hdMw==

> <s_epik_cmdline>
J2VwaWtfcHl0aG9uJywgJy1waCcsICc3LjAnLCAnLXRuJywgJzgnLCAnLW1hJywgJzIwMCcsICctbWV0YWxfYmluZGluZycsICctaW1hZScsICc8aW5maWxlLm1hZT4nLCAnLW9tYWUnLCAnPG91dGZpbGUubWFlPic=

> <r_lp_tautomer_probability>
1

> <r_epik_Ionization_Penalty>
0.129663

> <r_epik_Ionization_Penalty_Charging>
0

> <r_epik_Ionization_Penalty_Neutral>
0.129663

> <r_epik_State_Penalty>
0.119073

> <r_epik_Charging_Adjusted_Penalty>
0.119073

> <i_epik_Tot_Q>
0

> <i_epik_Tot_abs_Q>
0

> <r_epik_Metal_State_Penalty>
0.000131867

> <b_epik_Metal_Only>
0

> <s_lp_Force_Field>
OPLS_2005

> <r_lp_Energy>
18.0714

> <b_lp_Chiralities_Consistent>
1

> <s_lp_Variant>
AV-unprocessed.smi:1912-2

> <Gold.Version>
5.8.1

> <Gold.Id.Protein>
6NUR|6NUR_protein|mol2

> <Gold.PLP.Fitness>
51.2486

> <Gold.PLP.PLP>
-50.0997

> <Gold.PLP.part.hbond>
-1.0000

> <Gold.PLP.part.metal>
0.0000

> <Gold.PLP.part.buried>
-4.3265

> <Gold.PLP.part.nonpolar>
-43.9094

> <Gold.PLP.part.repulsive>
0.1244

> <Gold.PLP.ligand.clash>
0.0000

> <Gold.PLP.ligand.torsion>
0.9594

> <Gold.PLP.Chemscore.Hbond>
1.0000

> <Gold.PLP.Chemscore.CHOScore>
0.0000

> <Gold.PLP.Chemscore.Metal>
0.0000

> <Gold.Chemscore.Hbonds>
donor molecule, donor type, donor heavy atom, donor atom, acceptor molecule, acceptor atom, score
      P1  H  7997  8008       L1     7  0.90

> <Gold.PLP.Chemscore.Internal.Correction>
0.0678

> <Gold.Rescore>
     Score         DG    S(hbond)    S(metal)    S(lipo)     H(rot)  DE(clash)    DE(int)     intcor
     16.83     -17.82       0.78        0.00     130.58       2.17       0.04       0.94       ----

> <Gold.Chemscore.Fitness>
16.8317

> <Gold.Chemscore.DG>
-17.8154

> <Gold.Chemscore.ZeroCoef>
-5.4800

> <Gold.Chemscore.Hbond>
0.7814

> <Gold.Chemscore.Metal>
0.0000

> <Gold.Chemscore.Lipo>
130.5809

> <Gold.Chemscore.Internal_Hbond>
0.0000

> <Gold.Chemscore.DEClash>
0.0412

> <Gold.Chemscore.DEInternal>
0.9424

> <Gold.Chemscore.Rot>
2.1690

> <Gold.Chemscore.Internal.Correction>
   9.000000E+99

> <Gold.Chemscore.Hbonds>
donor molecule, donor type, donor heavy atom, donor atom, acceptor molecule, acceptor atom, score
      P1  H  7997  8008       L1     7  0.65

> <Gold.Chemscore.Hbond.Weighted>
-2.6100

> <Gold.Chemscore.Metal.Weighted>
-0.0000

> <Gold.Chemscore.Lipo.Weighted>
-15.2780

> <Gold.Chemscore.Internal_Hbond.Weighted>
0.0000

> <Gold.Chemscore.DEClash.Weighted>
0.0412

> <Gold.Chemscore.DEInternal.Weighted>
0.9424

> <Gold.Chemscore.Rot.Weighted>
5.5526

> <Gold.Chemscore.Internal.Correction.Weighted>
   9.000000E+99

> <Gold.Protein.RotatedTorsions>
[ 6907 6896 6895 6894 ] final  -75.84 input  -60.11 | X-H torsion
[ 7974 7965 7964 7962 ] final  -72.22 input  175.53 | X-H torsion
[ 8008 7997 7996 7995 ] final  -60.44 input   59.86 | X-H torsion
[ 10167 10162 10161 10158 ] final -117.31 input  -65.29 | X-H torsion
[ 10718 10713 10712 10709 ] final  -74.66 input   66.30 | X-H torsion
[ 10763 10752 10751 10750 ] final  -87.40 input  -60.55 | X-H torsion
[ 11005 11000 10999 10996 ] final  160.64 input  -57.11 | X-H torsion

> <Gold.Protein.ActiveResidues>
 VAL166  LYS551  ARG553  GLY616  TRP617  ASP618  TYR619  PRO620  LYS621  CYS622 
 ASP623  PHE694  ASN695  SER759  ASP760  ASP761  ALA762  ILE779  LEU786  VAL792 
 PHE793  MET794  SER795  GLU796  ALA797  LYS798  CYS799  TRP800  GLU811  SER814 

> <Gold.Protein.RotatedAtoms>
  150.7046  134.4662  159.5403 H   0  0  0  0  0  0  0  0  0  0  0  0  # atno 6907 bound_to 6896
  152.2327  134.8303  160.0480 H   0  0  0  0  0  0  0  0  0  0  0  0  # atno 6908 bound_to 6896
  151.9114  133.3527  159.3901 H   0  0  0  0  0  0  0  0  0  0  0  0  # atno 6909 bound_to 6896
  145.6679  140.9231  143.0898 H   0  0  0  0  0  0  0  0  0  0  0  0  # atno 7974 bound_to 7965
  154.4399  140.1039  156.6274 H   0  0  0  0  0  0  0  0  0  0  0  0  # atno 8008 bound_to 7997
  155.5641  140.3488  155.4480 H   0  0  0  0  0  0  0  0  0  0  0  0  # atno 8009 bound_to 7997
  156.0438  140.1288  157.0116 H   0  0  0  0  0  0  0  0  0  0  0  0  # atno 8010 bound_to 7997
  140.0698  143.4888  152.1986 H   0  0  0  0  0  0  0  0  0  0  0  0  # atno 10167 bound_to 10162
  156.0235  130.4422  150.2926 H   0  0  0  0  0  0  0  0  0  0  0  0  # atno 10718 bound_to 10713
  154.6332  135.5414  153.7704 H   0  0  0  0  0  0  0  0  0  0  0  0  # atno 10763 bound_to 10752
  153.0295  135.6441  154.1270 H   0  0  0  0  0  0  0  0  0  0  0  0  # atno 10764 bound_to 10752
  154.1199  135.2921  155.3191 H   0  0  0  0  0  0  0  0  0  0  0  0  # atno 10765 bound_to 10752
  140.2079  134.8289  157.3089 H   0  0  0  0  0  0  0  0  0  0  0  0  # atno 11005 bound_to 11000
  144.7066  139.8534  143.7428 LP  0  0  0  0  0  0  0  0  0  0  0  0  # atno 17320 bound_to 7965
  146.1070  139.4070  143.0311 LP  0  0  0  0  0  0  0  0  0  0  0  0  # atno 17321 bound_to 7965
  139.5843  144.7524  151.3560 LP  0  0  0  0  0  0  0  0  0  0  0  0  # atno 17342 bound_to 10162
  140.7131  143.7338  150.7604 LP  0  0  0  0  0  0  0  0  0  0  0  0  # atno 17343 bound_to 10162
  157.1029  131.0200  151.3078 LP  0  0  0  0  0  0  0  0  0  0  0  0  # atno 17370 bound_to 10713
  157.4765  130.7740  149.7373 LP  0  0  0  0  0  0  0  0  0  0  0  0  # atno 17371 bound_to 10713
  140.1982  134.4287  155.7677 LP  0  0  0  0  0  0  0  0  0  0  0  0  # atno 17394 bound_to 11000
  141.2227  133.7059  156.8141 LP  0  0  0  0  0  0  0  0  0  0  0  0  # atno 17395 bound_to 11000

$$$$
