AV-unprocessed.smi:113|AV-procd|sdf|1102|dock5
  -GOLD-   2262018213D 1   1.00000     0.00000
 Structure written by MMmdl.
 53 56  0  0  0  0  0  0  0  0  2 V2000
  148.9905  141.5891  154.6754 C   0  0  0  0  0  0  0  0  0  0  0  0
  149.9659  141.4455  155.8244 C   0  0  0  0  0  0  0  0  0  0  0  0
  150.4607  140.1932  156.2376 C   0  0  0  0  0  0  0  0  0  0  0  0
  151.3750  140.1153  157.3176 C   0  0  0  0  0  0  0  0  0  0  0  0
  151.9326  138.7676  157.7885 C   0  0  0  0  0  0  0  0  0  0  0  0
  150.9911  137.6608  157.8813 N   0  0  0  0  0  0  0  0  0  0  0  0
  151.2275  136.5205  157.0747 C   0  0  0  0  0  0  0  0  0  0  0  0
  152.1991  136.4570  156.3185 O   0  0  0  0  0  0  0  0  0  0  0  0
  150.2272  135.4561  157.1919 C   0  0  0  0  0  0  0  0  0  0  0  0
  150.4127  134.2018  156.3528 C   0  0  0  0  0  0  0  0  0  0  0  0
  149.1717  135.6147  158.0261 C   0  0  0  0  0  0  0  0  0  0  0  0
  148.9676  136.7422  158.8029 N   0  0  0  0  0  0  0  0  0  0  0  0
  147.7566  136.8548  159.6958 C   0  0  1  0  0  0  0  0  0  0  0  0
  146.8190  135.6720  159.4932 C   0  0  0  0  0  0  0  0  0  0  0  0
  146.1369  135.5969  160.8448 C   0  0  2  0  0  0  0  0  0  0  0  0
  144.9742  136.4029  160.8548 O   0  0  0  0  0  0  0  0  0  0  0  0
  147.1859  136.1614  161.8235 C   0  0  1  0  0  0  0  0  0  0  0  0
  147.9079  135.0769  162.6390 C   0  0  0  0  0  0  0  0  0  0  0  0
  146.9710  134.2352  163.2767 O   0  0  0  0  0  0  0  0  0  0  0  0
  148.1695  136.8187  161.0243 O   0  0  0  0  0  0  0  0  0  0  0  0
  149.8742  137.8181  158.7320 C   0  0  0  0  0  0  0  0  0  0  0  0
  149.6821  138.8568  159.3688 O   0  0  0  0  0  0  0  0  0  0  0  0
  151.7663  141.3235  157.9579 C   0  0  0  0  0  0  0  0  0  0  0  0
  152.6716  141.3417  159.0460 C   0  0  0  0  0  0  0  0  0  0  0  0
  153.0346  142.5592  159.6546 C   0  0  0  0  0  0  0  0  0  0  0  0
  152.5008  143.7741  159.1858 C   0  0  0  0  0  0  0  0  0  0  0  0
  151.6000  143.7745  158.1048 C   0  0  0  0  0  0  0  0  0  0  0  0
  151.2347  142.5576  157.4953 C   0  0  0  0  0  0  0  0  0  0  0  0
  150.3687  142.5645  156.4601 N   0  3  0  0  0  0  0  0  0  0  0  0
  148.5091  140.6368  154.4507 H   0  0  0  0  0  0  0  0  0  0  0  0
  149.5102  141.9301  153.7799 H   0  0  0  0  0  0  0  0  0  0  0  0
  148.2115  142.3124  154.9191 H   0  0  0  0  0  0  0  0  0  0  0  0
  150.1313  139.3056  155.7183 H   0  0  0  0  0  0  0  0  0  0  0  0
  152.7467  138.4483  157.1359 H   0  0  0  0  0  0  0  0  0  0  0  0
  152.4008  138.8762  158.7681 H   0  0  0  0  0  0  0  0  0  0  0  0
  149.6176  133.4761  156.5268 H   0  0  0  0  0  0  0  0  0  0  0  0
  151.3611  133.7194  156.5920 H   0  0  0  0  0  0  0  0  0  0  0  0
  150.4120  134.4494  155.2906 H   0  0  0  0  0  0  0  0  0  0  0  0
  148.4432  134.8182  158.0796 H   0  0  0  0  0  0  0  0  0  0  0  0
  147.2854  137.8212  159.5111 H   0  0  0  0  0  0  0  0  0  0  0  0
  146.1485  135.8294  158.6475 H   0  0  0  0  0  0  0  0  0  0  0  0
  147.4056  134.7686  159.3202 H   0  0  0  0  0  0  0  0  0  0  0  0
  145.8421  134.5750  161.0861 H   0  0  0  0  0  0  0  0  0  0  0  0
  144.2269  135.8591  160.6581 H   0  0  0  0  0  0  0  0  0  0  0  0
  146.7436  136.8939  162.5013 H   0  0  0  0  0  0  0  0  0  0  0  0
  148.5661  134.4828  162.0044 H   0  0  0  0  0  0  0  0  0  0  0  0
  148.5292  135.5372  163.4075 H   0  0  0  0  0  0  0  0  0  0  0  0
  147.4392  133.5465  163.7233 H   0  0  0  0  0  0  0  0  0  0  0  0
  153.1015  140.4304  159.4333 H   0  0  0  0  0  0  0  0  0  0  0  0
  153.7260  142.5606  160.4848 H   0  0  0  0  0  0  0  0  0  0  0  0
  152.7828  144.7051  159.6559 H   0  0  0  0  0  0  0  0  0  0  0  0
  151.1934  144.7103  157.7492 H   0  0  0  0  0  0  0  0  0  0  0  0
  149.9997  143.4609  156.1432 H   0  0  0  0  0  0  0  0  0  0  0  0
  1  2  1  0  0  0  0
  1 30  1  0  0  0  0
  1 31  1  0  0  0  0
  1 32  1  0  0  0  0
  2 29  1  0  0  0  0
  2  3  2  0  0  0  0
  3  4  1  0  0  0  0
  3 33  1  0  0  0  0
  4  5  1  0  0  0  0
  4 23  2  0  0  0  0
  5  6  1  0  0  0  0
  5 34  1  0  0  0  0
  5 35  1  0  0  0  0
  6 21  1  0  0  0  0
  6  7  1  0  0  0  0
  7  8  2  0  0  0  0
  7  9  1  0  0  0  0
  9 10  1  0  0  0  0
  9 11  2  0  0  0  0
 10 36  1  0  0  0  0
 10 37  1  0  0  0  0
 10 38  1  0  0  0  0
 11 12  1  0  0  0  0
 11 39  1  0  0  0  0
 12 13  1  0  0  0  0
 12 21  1  0  0  0  0
 13 20  1  0  0  0  0
 13 14  1  0  0  0  0
 13 40  1  0  0  0  0
 14 15  1  0  0  0  0
 14 41  1  0  0  0  0
 14 42  1  0  0  0  0
 15 16  1  0  0  0  0
 15 17  1  0  0  0  0
 15 43  1  0  0  0  0
 16 44  1  0  0  0  0
 17 18  1  0  0  0  0
 17 20  1  0  0  0  0
 17 45  1  0  0  0  0
 18 19  1  0  0  0  0
 18 46  1  0  0  0  0
 18 47  1  0  0  0  0
 19 48  1  0  0  0  0
 21 22  2  0  0  0  0
 23 28  1  0  0  0  0
 23 24  1  0  0  0  0
 24 25  2  0  0  0  0
 24 49  1  0  0  0  0
 25 26  1  0  0  0  0
 25 50  1  0  0  0  0
 26 27  2  0  0  0  0
 26 51  1  0  0  0  0
 27 28  1  0  0  0  0
 27 52  1  0  0  0  0
 28 29  2  0  0  0  0
 29 53  1  0  0  0  0
M  CHG  1  29   1
M  END
> <s_m_source_file>
AV-unprocessed.smi

> <i_m_source_file_index>
113

> <i_lp_mmshare_version>
43012

> <i_f3d_flags>
0

> <s_epik_input>
W2NIXTFbY0hdW2NIXVtjSF1jKGMxMiluYyhbQ0gzXSlbY0hdYzJbQ0gyXW4zYyg9TyljKFtDSDNdKVtjSF1uKGMzPU8pW0NAQEhdNFtDSDJdW0NAQEhdKFtPSF0pW0NASF0oTzQpW0NIMl1bT0hd

> <s_epik_cmdline>
J2VwaWtfcHl0aG9uJywgJy1waCcsICc3LjAnLCAnLXRuJywgJzgnLCAnLW1hJywgJzIwMCcsICctbWV0YWxfYmluZGluZycsICctaW1hZScsICc8aW5maWxlLm1hZT4nLCAnLW9tYWUnLCAnPG91dGZpbGUubWFlPic=

> <r_lp_tautomer_probability>
1

> <r_epik_Ionization_Penalty>
0.705471

> <r_epik_Ionization_Penalty_Charging>
0.70547

> <r_epik_Ionization_Penalty_Neutral>
1.19947e-07

> <r_epik_State_Penalty>
0.728574

> <r_epik_Charging_Adjusted_Penalty>
1.43404

> <i_epik_Tot_Q>
1

> <i_epik_Tot_abs_Q>
1

> <r_epik_Metal_State_Penalty>
4.61665

> <b_epik_Metal_Only>
0

> <s_epik_Chemistry_Notes>
This compound contains an acetal/aminal-like group ( X-CH(R)-Y where X, Y are N, S, or O) that may be acid/base labile, releasing an aldehyde.

> <s_lp_Force_Field>
OPLS_2005

> <r_lp_Energy>
43.7755

> <b_lp_Chiralities_Consistent>
1

> <s_lp_Variant>
AV-unprocessed.smi:113-12

> <Gold.Version>
5.8.1

> <Gold.Id.Protein>
6NUR|6NUR_protein|mol2

> <Gold.PLP.Fitness>
60.3124

> <Gold.PLP.PLP>
-48.7375

> <Gold.PLP.part.hbond>
-6.9942

> <Gold.PLP.part.metal>
0.0000

> <Gold.PLP.part.buried>
-4.0315

> <Gold.PLP.part.nonpolar>
-38.4652

> <Gold.PLP.part.repulsive>
0.1110

> <Gold.PLP.ligand.clash>
0.0000

> <Gold.PLP.ligand.torsion>
0.3939

> <Gold.PLP.Chemscore.Hbond>
4.1124

> <Gold.PLP.Chemscore.CHOScore>
0.0000

> <Gold.PLP.Chemscore.Metal>
0.0000

> <Gold.Chemscore.Hbonds>
donor molecule, donor type, donor heavy atom, donor atom, acceptor molecule, acceptor atom, score
      L1  H    29    53       P1  8028  2.00
      P1  H  6931  6943       L1    20  1.00
      P1  H 10752 10765       L1     8  1.00

> <Gold.PLP.Chemscore.Internal.Correction>
0.0255

> <Gold.Rescore>
     Score         DG    S(hbond)    S(metal)    S(lipo)     H(rot)  DE(clash)    DE(int)     intcor
     18.07     -21.48       2.81        0.00     122.40       3.01       1.70       1.70       ----

> <Gold.Chemscore.Fitness>
18.0739

> <Gold.Chemscore.DG>
-21.4780

> <Gold.Chemscore.ZeroCoef>
-5.4800

> <Gold.Chemscore.Hbond>
2.8107

> <Gold.Chemscore.Metal>
0.0000

> <Gold.Chemscore.Lipo>
122.4012

> <Gold.Chemscore.Internal_Hbond>
0.0000

> <Gold.Chemscore.DEClash>
1.7020

> <Gold.Chemscore.DEInternal>
1.7021

> <Gold.Chemscore.Rot>
3.0120

> <Gold.Chemscore.Internal.Correction>
   9.000000E+99

> <Gold.Chemscore.Hbonds>
donor molecule, donor type, donor heavy atom, donor atom, acceptor molecule, acceptor atom, score
      L1  H    29    53       P1  8028  1.00
      P1  H  6931  6943       L1    20  0.86
      P1  H 10752 10765       L1     8  0.97

> <Gold.Chemscore.Hbond.Weighted>
-9.3878

> <Gold.Chemscore.Metal.Weighted>
-0.0000

> <Gold.Chemscore.Lipo.Weighted>
-14.3209

> <Gold.Chemscore.Internal_Hbond.Weighted>
0.0000

> <Gold.Chemscore.DEClash.Weighted>
1.7020

> <Gold.Chemscore.DEInternal.Weighted>
1.7021

> <Gold.Chemscore.Rot.Weighted>
7.7108

> <Gold.Chemscore.Internal.Correction.Weighted>
   9.000000E+99

> <Gold.Protein.RotatedTorsions>
[ 6907 6896 6895 6894 ] final -168.37 input  -60.11 | X-H torsion
[ 7974 7965 7964 7962 ] final   -9.71 input  175.53 | X-H torsion
[ 8008 7997 7996 7995 ] final  170.49 input   59.86 | X-H torsion
[ 10167 10162 10161 10158 ] final   69.02 input  -65.29 | X-H torsion
[ 10718 10713 10712 10709 ] final  169.29 input   66.30 | X-H torsion
[ 10763 10752 10751 10750 ] final -163.03 input  -60.55 | X-H torsion
[ 11005 11000 10999 10996 ] final  169.58 input  -57.11 | X-H torsion

> <Gold.Protein.ActiveResidues>
 VAL166  LYS551  ARG553  GLY616  TRP617  ASP618  TYR619  PRO620  LYS621  CYS622 
 ASP623  PHE694  ASN695  SER759  ASP760  ASP761  ALA762  ILE779  LEU786  VAL792 
 PHE793  MET794  SER795  GLU796  ALA797  LYS798  CYS799  TRP800  GLU811  SER814 

> <Gold.Protein.RotatedAtoms>
  151.4745  133.3561  159.2828 H   0  0  0  0  0  0  0  0  0  0  0  0  # atno 6907 bound_to 6896
  150.8938  134.8347  159.7323 H   0  0  0  0  0  0  0  0  0  0  0  0  # atno 6908 bound_to 6896
  152.4839  134.4658  159.9671 H   0  0  0  0  0  0  0  0  0  0  0  0  # atno 6909 bound_to 6896
  146.2243  140.2656  142.8354 H   0  0  0  0  0  0  0  0  0  0  0  0  # atno 7974 bound_to 7965
  156.1360  140.1536  156.8993 H   0  0  0  0  0  0  0  0  0  0  0  0  # atno 8008 bound_to 7997
  154.4948  140.0841  156.7712 H   0  0  0  0  0  0  0  0  0  0  0  0  # atno 8009 bound_to 7997
  155.4167  140.3421  155.4270 H   0  0  0  0  0  0  0  0  0  0  0  0  # atno 8010 bound_to 7997
  140.0723  144.5142  150.7219 H   0  0  0  0  0  0  0  0  0  0  0  0  # atno 10167 bound_to 10162
  157.0248  131.0242  151.2763 H   0  0  0  0  0  0  0  0  0  0  0  0  # atno 10718 bound_to 10713
  154.7160  135.3016  154.9123 H   0  0  0  0  0  0  0  0  0  0  0  0  # atno 10763 bound_to 10752
  154.0010  135.6707  153.4763 H   0  0  0  0  0  0  0  0  0  0  0  0  # atno 10764 bound_to 10752
  153.0794  135.5017  154.8386 H   0  0  0  0  0  0  0  0  0  0  0  0  # atno 10765 bound_to 10752
  140.2993  134.7609  157.3903 H   0  0  0  0  0  0  0  0  0  0  0  0  # atno 11005 bound_to 11000
  144.9306  140.7971  143.5691 LP  0  0  0  0  0  0  0  0  0  0  0  0  # atno 17320 bound_to 7965
  145.2599  139.1996  143.4897 LP  0  0  0  0  0  0  0  0  0  0  0  0  # atno 17321 bound_to 7965
  140.7119  143.2512  151.4554 LP  0  0  0  0  0  0  0  0  0  0  0  0  # atno 17342 bound_to 10162
  139.5829  144.1670  152.1991 LP  0  0  0  0  0  0  0  0  0  0  0  0  # atno 17343 bound_to 10162
  157.5222  130.8005  149.7822 LP  0  0  0  0  0  0  0  0  0  0  0  0  # atno 17370 bound_to 10713
  156.0090  130.3842  150.2331 LP  0  0  0  0  0  0  0  0  0  0  0  0  # atno 17371 bound_to 10713
  140.1124  134.5328  155.8254 LP  0  0  0  0  0  0  0  0  0  0  0  0  # atno 17394 bound_to 11000
  141.2131  133.6729  156.6714 LP  0  0  0  0  0  0  0  0  0  0  0  0  # atno 17395 bound_to 11000

$$$$
