AV-unprocessed.smi:66|AV-procd|sdf|618|dock10
  -GOLD-   2262016513D 1   1.00000     0.00000
 Structure written by MMmdl.
 28 30  0  0  0  0  0  0  0  0  2 V2000
  152.2000  136.8597  158.9811 O   0  0  0  0  0  0  0  0  0  0  0  0
  152.7273  136.8164  157.8485 C   0  0  0  0  0  0  0  0  0  0  0  0
  153.0940  135.7756  157.2583 O   0  5  0  0  0  0  0  0  0  0  0  0
  152.9432  138.1585  157.1337 C   0  0  1  0  0  0  0  0  0  0  0  0
  152.2030  138.2173  155.7868 C   0  0  0  0  0  0  0  0  0  0  0  0
  151.9388  139.7081  155.6011 C   0  0  1  0  0  0  0  0  0  0  0  0
  150.8745  139.9673  154.7103 O   0  0  0  0  0  0  0  0  0  0  0  0
  151.6417  140.1862  157.0216 C   0  0  0  0  0  0  0  0  0  0  0  0
  152.4025  139.2943  157.8876 N   0  0  0  0  0  0  0  0  0  0  0  0
  152.9999  139.7827  159.0069 C   0  0  0  0  0  0  0  0  0  0  0  0
  153.8643  138.9946  159.7005 N   0  0  0  0  0  0  0  0  0  0  0  0
  154.4654  139.4495  160.8036 C   0  0  0  0  0  0  0  0  0  0  0  0
  154.3501  140.6452  161.3849 N   0  0  0  0  0  0  0  0  0  0  0  0
  153.4815  141.4379  160.6983 C   0  0  0  0  0  0  0  0  0  0  0  0
  153.1001  142.7297  160.9909 N   0  0  0  0  0  0  0  0  0  0  0  0
  152.2064  143.0915  160.0138 C   0  0  0  0  0  0  0  0  0  0  0  0
  151.9712  142.1682  159.1212 N   0  0  0  0  0  0  0  0  0  0  0  0
  152.7689  141.0953  159.5136 C   0  0  0  0  0  0  0  0  0  0  0  0
  153.4430  143.2519  161.7840 H   0  0  0  0  0  0  0  0  0  0  0  0
  154.0087  138.3191  156.9620 H   0  0  0  0  0  0  0  0  0  0  0  0
  152.7876  137.7919  154.9706 H   0  0  0  0  0  0  0  0  0  0  0  0
  151.2559  137.6761  155.8365 H   0  0  0  0  0  0  0  0  0  0  0  0
  152.8446  140.1928  155.2339 H   0  0  0  0  0  0  0  0  0  0  0  0
  150.0721  140.0019  155.2085 H   0  0  0  0  0  0  0  0  0  0  0  0
  151.9132  141.2359  157.1406 H   0  0  0  0  0  0  0  0  0  0  0  0
  150.5841  140.0759  157.2645 H   0  0  0  0  0  0  0  0  0  0  0  0
  155.1343  138.7544  161.2890 H   0  0  0  0  0  0  0  0  0  0  0  0
  151.7328  144.0619  159.9857 H   0  0  0  0  0  0  0  0  0  0  0  0
  1  2  2  0  0  0  0
  2  3  1  0  0  0  0
  2  4  1  0  0  0  0
  4  5  1  0  0  0  0
  4 20  1  0  0  0  0
  4  9  1  0  0  0  0
  5  6  1  0  0  0  0
  5 21  1  0  0  0  0
  5 22  1  0  0  0  0
  6  7  1  0  0  0  0
  6  8  1  0  0  0  0
  6 23  1  0  0  0  0
  7 24  1  0  0  0  0
  8 25  1  0  0  0  0
  8 26  1  0  0  0  0
  8  9  1  0  0  0  0
  9 10  1  0  0  0  0
 10 11  1  0  0  0  0
 10 18  2  0  0  0  0
 11 12  2  0  0  0  0
 12 27  1  0  0  0  0
 12 13  1  0  0  0  0
 13 14  2  0  0  0  0
 14 15  1  0  0  0  0
 14 18  1  0  0  0  0
 15 16  1  0  0  0  0
 15 19  1  0  0  0  0
 16 17  2  0  0  0  0
 16 28  1  0  0  0  0
 17 18  1  0  0  0  0
M  CHG  1   3  -1
M  END
> <s_m_source_file>
AV-unprocessed.smi

> <i_m_source_file_index>
66

> <i_lp_mmshare_version>
43012

> <i_f3d_flags>
0

> <s_epik_input>
Tz1DKFtPSF0pW0NAQEhdMVtDSDJdW0NAQEhdKFtPSF0pW0NIMl1OMWMobltjSF1uMiljKGMyMylbbkhdW2NIXW4z

> <s_epik_cmdline>
J2VwaWtfcHl0aG9uJywgJy1waCcsICc3LjAnLCAnLXRuJywgJzgnLCAnLW1hJywgJzIwMCcsICctbWV0YWxfYmluZGluZycsICctaW1hZScsICc8aW5maWxlLm1hZT4nLCAnLW9tYWUnLCAnPG91dGZpbGUubWFlPic=

> <r_lp_tautomer_probability>
0.955585

> <r_epik_Ionization_Penalty>
0.00455415

> <r_epik_Ionization_Penalty_Charging>
0.000248217

> <r_epik_Ionization_Penalty_Neutral>
0.00430593

> <r_epik_State_Penalty>
0.0207074

> <r_epik_Charging_Adjusted_Penalty>
0.0209557

> <i_epik_Tot_Q>
-1

> <i_epik_Tot_abs_Q>
1

> <r_epik_Metal_State_Penalty>
0.337372

> <b_epik_Metal_Only>
0

> <s_lp_Force_Field>
OPLS_2005

> <r_lp_Energy>
25.5493

> <b_lp_Chiralities_Consistent>
1

> <s_lp_Variant>
AV-unprocessed.smi:66-2

> <Gold.Version>
5.8.1

> <Gold.Id.Protein>
6NUR|6NUR_protein|mol2

> <Gold.PLP.Fitness>
43.0212

> <Gold.PLP.PLP>
-28.5403

> <Gold.PLP.part.hbond>
-3.0000

> <Gold.PLP.part.metal>
0.0000

> <Gold.PLP.part.buried>
-6.0743

> <Gold.PLP.part.nonpolar>
-20.6595

> <Gold.PLP.part.repulsive>
0.0427

> <Gold.PLP.ligand.clash>
0.0000

> <Gold.PLP.ligand.torsion>
0.1270

> <Gold.PLP.Chemscore.Hbond>
4.8398

> <Gold.PLP.Chemscore.CHOScore>
0.0000

> <Gold.PLP.Chemscore.Metal>
0.0000

> <Gold.Chemscore.Hbonds>
donor molecule, donor type, donor heavy atom, donor atom, acceptor molecule, acceptor atom, score
      P1  H  6896  6908       L1     1  1.78
      P1  H  7989  7998       L1     7  1.00
      P1  H 10752 10764       L1     3  2.00

> <Gold.PLP.Chemscore.Internal.Correction>
0.2158

> <Gold.Rescore>
     Score         DG    S(hbond)    S(metal)    S(lipo)     H(rot)  DE(clash)    DE(int)     intcor
     10.40     -13.64       2.68        0.00      32.38       1.78       0.00       3.24       ----

> <Gold.Chemscore.Fitness>
10.3976

> <Gold.Chemscore.DG>
-13.6399

> <Gold.Chemscore.ZeroCoef>
-5.4800

> <Gold.Chemscore.Hbond>
2.6762

> <Gold.Chemscore.Metal>
0.0000

> <Gold.Chemscore.Lipo>
32.3836

> <Gold.Chemscore.Internal_Hbond>
0.0000

> <Gold.Chemscore.DEClash>
0.0000

> <Gold.Chemscore.DEInternal>
3.2423

> <Gold.Chemscore.Rot>
1.7842

> <Gold.Chemscore.Internal.Correction>
   9.000000E+99

> <Gold.Chemscore.Hbonds>
donor molecule, donor type, donor heavy atom, donor atom, acceptor molecule, acceptor atom, score
      P1  H  6896  6908       L1     1  0.81
      P1  H  7989  7998       L1     7  0.35
      P1  H 10752 10764       L1     3  0.94

> <Gold.Chemscore.Hbond.Weighted>
-8.9387

> <Gold.Chemscore.Metal.Weighted>
-0.0000

> <Gold.Chemscore.Lipo.Weighted>
-3.7889

> <Gold.Chemscore.Internal_Hbond.Weighted>
0.0000

> <Gold.Chemscore.DEClash.Weighted>
0.0000

> <Gold.Chemscore.DEInternal.Weighted>
3.2423

> <Gold.Chemscore.Rot.Weighted>
4.5676

> <Gold.Chemscore.Internal.Correction.Weighted>
   9.000000E+99

> <Gold.Protein.RotatedTorsions>
[ 6907 6896 6895 6894 ] final -114.10 input  -60.11 | X-H torsion
[ 7974 7965 7964 7962 ] final  126.07 input  175.53 | X-H torsion
[ 8008 7997 7996 7995 ] final  -53.34 input   59.86 | X-H torsion
[ 10167 10162 10161 10158 ] final  127.13 input  -65.29 | X-H torsion
[ 10718 10713 10712 10709 ] final   56.07 input   66.30 | X-H torsion
[ 10763 10752 10751 10750 ] final   -5.63 input  -60.55 | X-H torsion
[ 11005 11000 10999 10996 ] final  132.29 input  -57.11 | X-H torsion

> <Gold.Protein.ActiveResidues>
 VAL166  LYS551  ARG553  GLY616  TRP617  ASP618  TYR619  PRO620  LYS621  CYS622 
 ASP623  PHE694  ASN695  SER759  ASP760  ASP761  ALA762  ILE779  LEU786  VAL792 
 PHE793  MET794  SER795  GLU796  ALA797  LYS798  CYS799  TRP800  GLU811  SER814 

> <Gold.Protein.RotatedAtoms>
  150.7877  133.8850  159.3296 H   0  0  0  0  0  0  0  0  0  0  0  0  # atno 6907 bound_to 6896
  151.6696  135.0976  160.0205 H   0  0  0  0  0  0  0  0  0  0  0  0  # atno 6908 bound_to 6896
  152.3945  133.6687  159.6300 H   0  0  0  0  0  0  0  0  0  0  0  0  # atno 6909 bound_to 6896
  145.0659  139.3768  143.4982 H   0  0  0  0  0  0  0  0  0  0  0  0  # atno 7974 bound_to 7965
  154.4131  140.1202  156.5139 H   0  0  0  0  0  0  0  0  0  0  0  0  # atno 8008 bound_to 7997
  155.6771  140.3496  155.4821 H   0  0  0  0  0  0  0  0  0  0  0  0  # atno 8009 bound_to 7997
  155.9583  140.1118  157.0908 H   0  0  0  0  0  0  0  0  0  0  0  0  # atno 8010 bound_to 7997
  139.5594  144.6871  151.4086 H   0  0  0  0  0  0  0  0  0  0  0  0  # atno 10167 bound_to 10162
  157.5399  130.8690  149.8808 H   0  0  0  0  0  0  0  0  0  0  0  0  # atno 10718 bound_to 10713
  153.4012  135.7005  153.6425 H   0  0  0  0  0  0  0  0  0  0  0  0  # atno 10763 bound_to 10752
  153.4957  135.3663  155.2515 H   0  0  0  0  0  0  0  0  0  0  0  0  # atno 10764 bound_to 10752
  154.8710  135.4100  154.3347 H   0  0  0  0  0  0  0  0  0  0  0  0  # atno 10765 bound_to 10752
  139.9781  134.9557  156.9561 H   0  0  0  0  0  0  0  0  0  0  0  0  # atno 11005 bound_to 11000
  146.3526  140.0380  142.8645 LP  0  0  0  0  0  0  0  0  0  0  0  0  # atno 17320 bound_to 7965
  145.1352  140.9540  143.4521 LP  0  0  0  0  0  0  0  0  0  0  0  0  # atno 17321 bound_to 7965
  140.6872  143.7946  150.7203 LP  0  0  0  0  0  0  0  0  0  0  0  0  # atno 17342 bound_to 10162
  140.1417  143.4435  152.2189 LP  0  0  0  0  0  0  0  0  0  0  0  0  # atno 17343 bound_to 10162
  156.0489  130.3722  150.1250 LP  0  0  0  0  0  0  0  0  0  0  0  0  # atno 17370 bound_to 10713
  156.9430  130.9750  151.3512 LP  0  0  0  0  0  0  0  0  0  0  0  0  # atno 17371 bound_to 10713
  140.5152  134.0962  155.7279 LP  0  0  0  0  0  0  0  0  0  0  0  0  # atno 17394 bound_to 11000
  141.1456  133.9060  157.2222 LP  0  0  0  0  0  0  0  0  0  0  0  0  # atno 17395 bound_to 11000

$$$$
