AV-unprocessed.smi:1574|AV-procd|sdf|6335|dock9
  -GOLD-   22720 6553D 1   1.00000     0.00000
 Structure written by MMmdl.
 40 41  0  0  0  0  0  0  0  0  1 V2000
  152.1842  144.7512  157.9993 C   0  0  0  0  0  0  0  0  0  0  0  0
  151.9343  143.8159  159.1931 C   0  0  2  0  0  0  0  0  0  0  0  0
  152.4721  144.4411  160.4961 C   0  0  0  0  0  0  0  0  0  0  0  0
  152.2394  143.5247  161.7069 C   0  0  0  0  0  0  0  0  0  0  0  0
  152.8635  142.1419  161.4772 C   0  0  0  0  0  0  0  0  0  0  0  0
  152.3261  141.5060  160.1881 C   0  0  0  0  0  0  0  0  0  0  0  0
  152.5493  142.4170  158.9622 C   0  0  1  0  0  0  0  0  0  0  0  0
  151.9042  141.8358  157.8372 O   0  0  0  0  0  0  0  0  0  0  0  0
  150.4853  141.8715  157.8901 C   0  0  0  0  0  0  0  0  0  0  0  0
  149.9418  141.9139  156.4547 C   0  0  0  0  0  0  0  0  0  0  0  0
  150.1214  140.6311  155.7837 N   0  0  0  0  0  0  0  0  0  0  0  0
  149.9013  140.4018  154.4797 C   0  0  0  0  0  0  0  0  0  0  0  0
  149.4423  141.2450  153.7100 O   0  0  0  0  0  0  0  0  0  0  0  0
  150.2705  139.0128  153.9595 C   0  0  0  0  0  0  0  0  0  0  0  0
  151.5532  138.5837  154.4859 N   0  0  0  0  0  0  0  0  0  0  0  0
  152.7345  139.2031  154.5301 C   0  0  0  0  0  0  0  0  0  0  0  0
  153.6614  138.4495  155.1015 N   0  0  0  0  0  0  0  0  0  0  0  0
  152.9731  137.2900  155.4174 N   0  0  0  0  0  0  0  0  0  0  0  0
  151.7223  137.3631  155.0530 N   0  0  0  0  0  0  0  0  0  0  0  0
  153.2509  144.8992  157.8275 H   0  0  0  0  0  0  0  0  0  0  0  0
  151.7353  145.7307  158.1676 H   0  0  0  0  0  0  0  0  0  0  0  0
  151.7528  144.3487  157.0826 H   0  0  0  0  0  0  0  0  0  0  0  0
  150.8550  143.6973  159.3016 H   0  0  0  0  0  0  0  0  0  0  0  0
  153.5395  144.6426  160.3950 H   0  0  0  0  0  0  0  0  0  0  0  0
  151.9925  145.4043  160.6732 H   0  0  0  0  0  0  0  0  0  0  0  0
  152.6606  143.9787  162.6042 H   0  0  0  0  0  0  0  0  0  0  0  0
  151.1687  143.4183  161.8864 H   0  0  0  0  0  0  0  0  0  0  0  0
  153.9486  142.2328  161.4164 H   0  0  0  0  0  0  0  0  0  0  0  0
  152.6521  141.4926  162.3272 H   0  0  0  0  0  0  0  0  0  0  0  0
  152.7960  140.5338  160.0431 H   0  0  0  0  0  0  0  0  0  0  0  0
  151.2598  141.3150  160.3010 H   0  0  0  0  0  0  0  0  0  0  0  0
  153.6183  142.5301  158.7708 H   0  0  0  0  0  0  0  0  0  0  0  0
  150.1211  140.9838  158.4084 H   0  0  0  0  0  0  0  0  0  0  0  0
  150.1249  142.7355  158.4487 H   0  0  0  0  0  0  0  0  0  0  0  0
  148.8773  142.1495  156.4677 H   0  0  0  0  0  0  0  0  0  0  0  0
  150.4315  142.7055  155.8855 H   0  0  0  0  0  0  0  0  0  0  0  0
  150.4959  139.8777  156.3421 H   0  0  0  0  0  0  0  0  0  0  0  0
  149.5080  138.2889  154.2502 H   0  0  0  0  0  0  0  0  0  0  0  0
  150.3129  139.0169  152.8692 H   0  0  0  0  0  0  0  0  0  0  0  0
  152.9139  140.1964  154.1461 H   0  0  0  0  0  0  0  0  0  0  0  0
  1  2  1  0  0  0  0
  1 20  1  0  0  0  0
  1 21  1  0  0  0  0
  1 22  1  0  0  0  0
  2  7  1  0  0  0  0
  2  3  1  0  0  0  0
  2 23  1  0  0  0  0
  3  4  1  0  0  0  0
  3 24  1  0  0  0  0
  3 25  1  0  0  0  0
  4  5  1  0  0  0  0
  4 26  1  0  0  0  0
  4 27  1  0  0  0  0
  5  6  1  0  0  0  0
  5 28  1  0  0  0  0
  5 29  1  0  0  0  0
  6  7  1  0  0  0  0
  6 30  1  0  0  0  0
  6 31  1  0  0  0  0
  7  8  1  0  0  0  0
  7 32  1  0  0  0  0
  8  9  1  0  0  0  0
  9 10  1  0  0  0  0
  9 33  1  0  0  0  0
  9 34  1  0  0  0  0
 10 11  1  0  0  0  0
 10 35  1  0  0  0  0
 10 36  1  0  0  0  0
 11 12  1  0  0  0  0
 11 37  1  0  0  0  0
 12 13  2  0  0  0  0
 12 14  1  0  0  0  0
 14 15  1  0  0  0  0
 14 38  1  0  0  0  0
 14 39  1  0  0  0  0
 15 19  1  0  0  0  0
 15 16  1  0  0  0  0
 16 17  2  0  0  0  0
 16 40  1  0  0  0  0
 17 18  1  0  0  0  0
 18 19  2  0  0  0  0
M  END
> <s_m_source_file>
AV-unprocessed.smi

> <i_m_source_file_index>
1574

> <i_lp_mmshare_version>
43012

> <i_f3d_flags>
0

> <s_epik_input>
W0NIM11bQ0BASF0xW0NIMl1bQ0gyXVtDSDJdW0NIMl1bQ0BIXTFPW0NIMl1bQ0gyXVtOSF1DKD1PKVtDSDJdbjJbY0hdbm5uMg==

> <s_epik_cmdline>
J2VwaWtfcHl0aG9uJywgJy1waCcsICc3LjAnLCAnLXRuJywgJzgnLCAnLW1hJywgJzIwMCcsICctbWV0YWxfYmluZGluZycsICctaW1hZScsICc8aW5maWxlLm1hZT4nLCAnLW9tYWUnLCAnPG91dGZpbGUubWFlPic=

> <r_lp_tautomer_probability>
1

> <r_epik_Ionization_Penalty>
1.44269e-06

> <r_epik_Ionization_Penalty_Charging>
0

> <r_epik_Ionization_Penalty_Neutral>
1.44269e-06

> <r_epik_State_Penalty>
-0

> <r_epik_Charging_Adjusted_Penalty>
0

> <i_epik_Tot_Q>
0

> <i_epik_Tot_abs_Q>
0

> <r_epik_Metal_State_Penalty>
-0

> <b_epik_Metal_Only>
0

> <s_lp_Force_Field>
OPLS_2005

> <r_lp_Energy>
11.219

> <b_lp_Chiralities_Consistent>
1

> <s_lp_Variant>
AV-unprocessed.smi:1574-1

> <Gold.Version>
5.8.1

> <Gold.Id.Protein>
6NUR|6NUR_protein|mol2

> <Gold.PLP.Fitness>
47.6799

> <Gold.PLP.PLP>
-44.0855

> <Gold.PLP.part.hbond>
-5.2252

> <Gold.PLP.part.metal>
0.0000

> <Gold.PLP.part.buried>
-3.2512

> <Gold.PLP.part.nonpolar>
-36.4366

> <Gold.PLP.part.repulsive>
2.6708

> <Gold.PLP.ligand.clash>
0.0000

> <Gold.PLP.ligand.torsion>
0.6036

> <Gold.PLP.Chemscore.Hbond>
1.5892

> <Gold.PLP.Chemscore.CHOScore>
0.0000

> <Gold.PLP.Chemscore.Metal>
0.0000

> <Gold.Chemscore.Hbonds>
donor molecule, donor type, donor heavy atom, donor atom, acceptor molecule, acceptor atom, score
      P1  H  7997  8008       L1    17  0.29
      P1  H  8011  8017       L1    13  0.90
      P1  H 10752 10763       L1    18  0.33

> <Gold.PLP.Chemscore.Internal.Correction>
0.0339

> <Gold.Rescore>
     Score         DG    S(hbond)    S(metal)    S(lipo)     H(rot)  DE(clash)    DE(int)     intcor
     12.27     -14.16       1.30        0.00     100.71       2.90       1.19       0.71       ----

> <Gold.Chemscore.Fitness>
12.2694

> <Gold.Chemscore.DG>
-14.1609

> <Gold.Chemscore.ZeroCoef>
-5.4800

> <Gold.Chemscore.Hbond>
1.2976

> <Gold.Chemscore.Metal>
0.0000

> <Gold.Chemscore.Lipo>
100.7130

> <Gold.Chemscore.Internal_Hbond>
0.0000

> <Gold.Chemscore.DEClash>
1.1864

> <Gold.Chemscore.DEInternal>
0.7051

> <Gold.Chemscore.Rot>
2.9050

> <Gold.Chemscore.Internal.Correction>
   9.000000E+99

> <Gold.Chemscore.Hbonds>
donor molecule, donor type, donor heavy atom, donor atom, acceptor molecule, acceptor atom, score
      P1  H  7997  8008       L1    17  0.02
      P1  H  8011  8017       L1    13  0.88
      P1  H 10752 10763       L1    18  0.08

> <Gold.Chemscore.Hbond.Weighted>
-4.3341

> <Gold.Chemscore.Metal.Weighted>
-0.0000

> <Gold.Chemscore.Lipo.Weighted>
-11.7834

> <Gold.Chemscore.Internal_Hbond.Weighted>
0.0000

> <Gold.Chemscore.DEClash.Weighted>
1.1864

> <Gold.Chemscore.DEInternal.Weighted>
0.7051

> <Gold.Chemscore.Rot.Weighted>
7.4367

> <Gold.Chemscore.Internal.Correction.Weighted>
   9.000000E+99

> <Gold.Protein.RotatedTorsions>
[ 6907 6896 6895 6894 ] final -163.00 input  -60.11 | X-H torsion
[ 7974 7965 7964 7962 ] final   57.12 input  175.53 | X-H torsion
[ 8008 7997 7996 7995 ] final  -35.56 input   59.86 | X-H torsion
[ 10167 10162 10161 10158 ] final   54.02 input  -65.29 | X-H torsion
[ 10718 10713 10712 10709 ] final -143.24 input   66.30 | X-H torsion
[ 10763 10752 10751 10750 ] final   96.41 input  -60.55 | X-H torsion
[ 11005 11000 10999 10996 ] final  104.72 input  -57.11 | X-H torsion

> <Gold.Protein.ActiveResidues>
 VAL166  LYS551  ARG553  GLY616  TRP617  ASP618  TYR619  PRO620  LYS621  CYS622 
 ASP623  PHE694  ASN695  SER759  ASP760  ASP761  ALA762  ILE779  LEU786  VAL792 
 PHE793  MET794  SER795  GLU796  ALA797  LYS798  CYS799  TRP800  GLU811  SER814 

> <Gold.Protein.RotatedAtoms>
  151.3892  133.3795  159.2718 H   0  0  0  0  0  0  0  0  0  0  0  0  # atno 6907 bound_to 6896
  150.9518  134.8918  159.7687 H   0  0  0  0  0  0  0  0  0  0  0  0  # atno 6908 bound_to 6896
  152.5115  134.3847  159.9415 H   0  0  0  0  0  0  0  0  0  0  0  0  # atno 6909 bound_to 6896
  145.9325  139.3819  143.0412 H   0  0  0  0  0  0  0  0  0  0  0  0  # atno 7974 bound_to 7965
  154.4092  140.1654  156.2232 H   0  0  0  0  0  0  0  0  0  0  0  0  # atno 8008 bound_to 7997
  155.9346  140.3412  155.6254 H   0  0  0  0  0  0  0  0  0  0  0  0  # atno 8009 bound_to 7997
  155.7064  140.0751  157.2380 H   0  0  0  0  0  0  0  0  0  0  0  0  # atno 8010 bound_to 7997
  140.2346  144.3650  150.6402 H   0  0  0  0  0  0  0  0  0  0  0  0  # atno 10167 bound_to 10162
  156.3556  130.7711  151.1871 H   0  0  0  0  0  0  0  0  0  0  0  0  # atno 10718 bound_to 10713
  153.2646  135.4219  155.0928 H   0  0  0  0  0  0  0  0  0  0  0  0  # atno 10763 bound_to 10752
  154.8433  135.3457  154.6329 H   0  0  0  0  0  0  0  0  0  0  0  0  # atno 10764 bound_to 10752
  153.6749  135.7042  153.5193 H   0  0  0  0  0  0  0  0  0  0  0  0  # atno 10765 bound_to 10752
  139.8794  134.9310  156.5405 H   0  0  0  0  0  0  0  0  0  0  0  0  # atno 11005 bound_to 11000
  145.8407  140.9582  143.0800 LP  0  0  0  0  0  0  0  0  0  0  0  0  # atno 17320 bound_to 7965
  144.6767  140.0281  143.7483 LP  0  0  0  0  0  0  0  0  0  0  0  0  # atno 17321 bound_to 7965
  140.6160  143.2172  151.6792 LP  0  0  0  0  0  0  0  0  0  0  0  0  # atno 17342 bound_to 10162
  139.5098  144.3564  152.0604 LP  0  0  0  0  0  0  0  0  0  0  0  0  # atno 17343 bound_to 10162
  157.7467  131.0415  150.4648 LP  0  0  0  0  0  0  0  0  0  0  0  0  # atno 17370 bound_to 10713
  156.4851  130.4082  149.6439 LP  0  0  0  0  0  0  0  0  0  0  0  0  # atno 17371 bound_to 10713
  140.8314  133.8276  155.8987 LP  0  0  0  0  0  0  0  0  0  0  0  0  # atno 17394 bound_to 11000
  140.9325  134.2004  157.4854 LP  0  0  0  0  0  0  0  0  0  0  0  0  # atno 17395 bound_to 11000

$$$$
