AV-unprocessed.smi:703|AV-procd|sdf|3426|dock1
  -GOLD-   22720 0413D 1   1.00000     0.00000
 Structure written by MMmdl.
 38 39  0  0  0  0  0  0  0  0  2 V2000
  146.8221  135.8367  154.5892 C   0  0  0  0  0  0  0  0  0  0  0  0
  148.0955  136.4716  155.1639 C   0  0  0  0  0  0  0  0  0  0  0  0
  148.6355  137.5381  154.2880 N   0  3  1  0  0  0  0  0  0  0  0  0
  147.7421  138.7032  154.1020 C   0  0  0  0  0  0  0  0  0  0  0  0
  148.6709  139.8813  153.8132 C   0  0  1  0  0  0  0  0  0  0  0  0
  148.0313  141.2714  153.9684 C   0  0  0  0  0  0  0  0  0  0  0  0
  149.8865  139.5844  154.6992 C   0  0  1  0  0  0  0  0  0  0  0  0
  149.6901  140.0901  156.0632 N   0  0  0  0  0  0  0  0  0  0  0  0
  151.0831  140.5496  156.9699 S   0  0  0  0  0  0  0  0  0  0  0  0
  150.8734  140.1195  158.3609 O   0  0  0  0  0  0  0  0  0  0  0  0
  152.2628  140.0808  156.2273 O   0  0  0  0  0  0  0  0  0  0  0  0
  151.0175  142.3893  156.9059 C   0  0  0  0  0  0  0  0  0  0  0  0
  151.3189  142.9482  158.2667 C   0  0  0  0  0  0  0  0  0  0  0  0
  152.2775  143.9364  158.6240 C   0  0  0  0  0  0  0  0  0  0  0  0
  152.1201  144.0591  159.9745 C   0  0  0  0  0  0  0  0  0  0  0  0
  151.1530  143.2173  160.4185 O   0  0  0  0  0  0  0  0  0  0  0  0
  150.6481  142.5114  159.3206 N   0  0  0  0  0  0  0  0  0  0  0  0
  149.9657  138.0479  154.7028 C   0  0  0  0  0  0  0  0  0  0  0  0
  146.4801  135.0187  155.2237 H   0  0  0  0  0  0  0  0  0  0  0  0
  146.9995  135.4307  153.5929 H   0  0  0  0  0  0  0  0  0  0  0  0
  146.0073  136.5577  154.5194 H   0  0  0  0  0  0  0  0  0  0  0  0
  147.9061  136.8696  156.1621 H   0  0  0  0  0  0  0  0  0  0  0  0
  148.8528  135.6943  155.2744 H   0  0  0  0  0  0  0  0  0  0  0  0
  147.0248  138.5329  153.2986 H   0  0  0  0  0  0  0  0  0  0  0  0
  147.1811  138.8907  155.0192 H   0  0  0  0  0  0  0  0  0  0  0  0
  149.0008  139.7889  152.7769 H   0  0  0  0  0  0  0  0  0  0  0  0
  147.6073  141.4174  154.9620 H   0  0  0  0  0  0  0  0  0  0  0  0
  147.2253  141.4087  153.2472 H   0  0  0  0  0  0  0  0  0  0  0  0
  148.7651  142.0597  153.7979 H   0  0  0  0  0  0  0  0  0  0  0  0
  150.7892  140.0344  154.2832 H   0  0  0  0  0  0  0  0  0  0  0  0
  148.9904  140.8322  156.0772 H   0  0  0  0  0  0  0  0  0  0  0  0
  151.7375  142.7354  156.1638 H   0  0  0  0  0  0  0  0  0  0  0  0
  150.0242  142.6885  156.5721 H   0  0  0  0  0  0  0  0  0  0  0  0
  152.9668  144.4737  157.9898 H   0  0  0  0  0  0  0  0  0  0  0  0
  152.5980  144.6712  160.7251 H   0  0  0  0  0  0  0  0  0  0  0  0
  150.2743  137.6543  155.6726 H   0  0  0  0  0  0  0  0  0  0  0  0
  150.6990  137.7050  153.9724 H   0  0  0  0  0  0  0  0  0  0  0  0
  148.7719  137.1311  153.3737 H   0  0  0  0  0  0  0  0  0  0  0  0
  1  2  1  0  0  0  0
  1 19  1  0  0  0  0
  1 20  1  0  0  0  0
  1 21  1  0  0  0  0
  2  3  1  0  0  0  0
  2 22  1  0  0  0  0
  2 23  1  0  0  0  0
  3 18  1  0  0  0  0
  3  4  1  0  0  0  0
  3 38  1  0  0  0  0
  4  5  1  0  0  0  0
  4 24  1  0  0  0  0
  4 25  1  0  0  0  0
  5  6  1  0  0  0  0
  5  7  1  0  0  0  0
  5 26  1  0  0  0  0
  6 27  1  0  0  0  0
  6 28  1  0  0  0  0
  6 29  1  0  0  0  0
  7  8  1  0  0  0  0
  7 18  1  0  0  0  0
  7 30  1  0  0  0  0
  8  9  1  0  0  0  0
  8 31  1  0  0  0  0
  9 10  2  0  0  0  0
  9 11  2  0  0  0  0
  9 12  1  0  0  0  0
 12 13  1  0  0  0  0
 12 32  1  0  0  0  0
 12 33  1  0  0  0  0
 13 17  2  0  0  0  0
 13 14  1  0  0  0  0
 14 15  2  0  0  0  0
 14 34  1  0  0  0  0
 15 16  1  0  0  0  0
 15 35  1  0  0  0  0
 16 17  1  0  0  0  0
 18 36  1  0  0  0  0
 18 37  1  0  0  0  0
M  CHG  1   3   1
M  END
> <s_m_source_file>
AV-unprocessed.smi

> <i_m_source_file_index>
703

> <i_lp_mmshare_version>
43012

> <i_f3d_flags>
0

> <s_epik_input>
W0NIM11bQ0gyXU4xW0NIMl1bQ0BASF0oW0NIM10pW0NASF0oW0NIMl0xKVtOSF1TKD1PKSg9TylbQ0gyXWMyW2NIXVtjSF1vbjI=

> <s_epik_cmdline>
J2VwaWtfcHl0aG9uJywgJy1waCcsICc3LjAnLCAnLXRuJywgJzgnLCAnLW1hJywgJzIwMCcsICctbWV0YWxfYmluZGluZycsICctaW1hZScsICc8aW5maWxlLm1hZT4nLCAnLW9tYWUnLCAnPG91dGZpbGUubWFlPic=

> <r_epik_Ionization_Penalty>
0.00324529

> <r_epik_Ionization_Penalty_Charging>
0.0019384

> <r_epik_Ionization_Penalty_Neutral>
0.00130689

> <r_epik_State_Penalty>
0.00218682

> <r_epik_Charging_Adjusted_Penalty>
0.00412522

> <i_epik_Tot_Q>
1

> <i_epik_Tot_abs_Q>
1

> <r_epik_Metal_State_Penalty>
0.310831

> <b_epik_Metal_Only>
0

> <s_lp_Force_Field>
OPLS_2005

> <r_lp_Energy>
19.6136

> <b_lp_Chiralities_Consistent>
1

> <s_lp_Variant>
AV-unprocessed.smi:703-1

> <Gold.Version>
5.8.1

> <Gold.Id.Protein>
6NUR|6NUR_protein|mol2

> <Gold.PLP.Fitness>
36.8024

> <Gold.PLP.PLP>
-29.7569

> <Gold.PLP.part.hbond>
-3.3537

> <Gold.PLP.part.metal>
0.0000

> <Gold.PLP.part.buried>
-0.9716

> <Gold.PLP.part.nonpolar>
-26.0834

> <Gold.PLP.part.repulsive>
0.1021

> <Gold.PLP.ligand.clash>
0.0000

> <Gold.PLP.ligand.torsion>
1.0940

> <Gold.PLP.Chemscore.Hbond>
3.0000

> <Gold.PLP.Chemscore.CHOScore>
0.0000

> <Gold.PLP.Chemscore.Metal>
0.0000

> <Gold.Chemscore.Hbonds>
donor molecule, donor type, donor heavy atom, donor atom, acceptor molecule, acceptor atom, score
      L1  H     3    38       P1  7948  2.00
      P1  H  7997  8009       L1    11  0.91

> <Gold.PLP.Chemscore.Internal.Correction>
0.2334

> <Gold.Rescore>
     Score         DG    S(hbond)    S(metal)    S(lipo)     H(rot)  DE(clash)    DE(int)     intcor
     12.92     -16.80       2.00        0.00      82.23       1.94       1.39       2.49       ----

> <Gold.Chemscore.Fitness>
12.9232

> <Gold.Chemscore.DG>
-16.7994

> <Gold.Chemscore.ZeroCoef>
-5.4800

> <Gold.Chemscore.Hbond>
1.9957

> <Gold.Chemscore.Metal>
0.0000

> <Gold.Chemscore.Lipo>
82.2260

> <Gold.Chemscore.Internal_Hbond>
0.0000

> <Gold.Chemscore.DEClash>
1.3876

> <Gold.Chemscore.DEInternal>
2.4886

> <Gold.Chemscore.Rot>
1.9400

> <Gold.Chemscore.Internal.Correction>
   9.000000E+99

> <Gold.Chemscore.Hbonds>
donor molecule, donor type, donor heavy atom, donor atom, acceptor molecule, acceptor atom, score
      L1  H     3    38       P1  7948  1.00
      P1  H  7997  8009       L1    11  0.87

> <Gold.Chemscore.Hbond.Weighted>
-6.6655

> <Gold.Chemscore.Metal.Weighted>
-0.0000

> <Gold.Chemscore.Lipo.Weighted>
-9.6204

> <Gold.Chemscore.Internal_Hbond.Weighted>
0.0000

> <Gold.Chemscore.DEClash.Weighted>
1.3876

> <Gold.Chemscore.DEInternal.Weighted>
2.4886

> <Gold.Chemscore.Rot.Weighted>
4.9665

> <Gold.Chemscore.Internal.Correction.Weighted>
   9.000000E+99

> <Gold.Protein.RotatedTorsions>
[ 6907 6896 6895 6894 ] final -115.83 input  -60.11 | X-H torsion
[ 7974 7965 7964 7962 ] final   22.62 input  175.53 | X-H torsion
[ 8008 7997 7996 7995 ] final -161.52 input   59.86 | X-H torsion
[ 10167 10162 10161 10158 ] final  141.64 input  -65.29 | X-H torsion
[ 10718 10713 10712 10709 ] final   -2.53 input   66.30 | X-H torsion
[ 10763 10752 10751 10750 ] final  113.58 input  -60.55 | X-H torsion
[ 11005 11000 10999 10996 ] final  154.14 input  -57.11 | X-H torsion

> <Gold.Protein.ActiveResidues>
 VAL166  LYS551  ARG553  GLY616  TRP617  ASP618  TYR619  PRO620  LYS621  CYS622 
 ASP623  PHE694  ASN695  SER759  ASP760  ASP761  ALA762  ILE779  LEU786  VAL792 
 PHE793  MET794  SER795  GLU796  ALA797  LYS798  CYS799  TRP800  GLU811  SER814 

> <Gold.Protein.RotatedAtoms>
  150.8008  133.8603  159.3229 H   0  0  0  0  0  0  0  0  0  0  0  0  # atno 6907 bound_to 6896
  151.6416  135.1010  160.0152 H   0  0  0  0  0  0  0  0  0  0  0  0  # atno 6908 bound_to 6896
  152.4095  133.6901  159.6420 H   0  0  0  0  0  0  0  0  0  0  0  0  # atno 6909 bound_to 6896
  146.2021  139.7859  142.8754 H   0  0  0  0  0  0  0  0  0  0  0  0  # atno 7974 bound_to 7965
  155.7933  140.0881  157.1997 H   0  0  0  0  0  0  0  0  0  0  0  0  # atno 8008 bound_to 7997
  154.3984  140.1486  156.3247 H   0  0  0  0  0  0  0  0  0  0  0  0  # atno 8009 bound_to 7997
  155.8536  140.3433  155.5712 H   0  0  0  0  0  0  0  0  0  0  0  0  # atno 8010 bound_to 7997
  139.5015  144.6158  151.6167 H   0  0  0  0  0  0  0  0  0  0  0  0  # atno 10167 bound_to 10162
  156.7895  130.5357  149.5738 H   0  0  0  0  0  0  0  0  0  0  0  0  # atno 10718 bound_to 10713
  153.4946  135.3651  155.2509 H   0  0  0  0  0  0  0  0  0  0  0  0  # atno 10763 bound_to 10752
  154.8750  135.3985  154.3549 H   0  0  0  0  0  0  0  0  0  0  0  0  # atno 10764 bound_to 10752
  153.4175  135.7079  153.6383 H   0  0  0  0  0  0  0  0  0  0  0  0  # atno 10765 bound_to 10752
  140.1461  134.8706  157.2395 H   0  0  0  0  0  0  0  0  0  0  0  0  # atno 11005 bound_to 11000
  145.3449  141.0295  143.3371 LP  0  0  0  0  0  0  0  0  0  0  0  0  # atno 17320 bound_to 7965
  144.8706  139.5043  143.6769 LP  0  0  0  0  0  0  0  0  0  0  0  0  # atno 17321 bound_to 7965
  140.5846  143.9887  150.6288 LP  0  0  0  0  0  0  0  0  0  0  0  0  # atno 17342 bound_to 10162
  140.3047  143.3237  152.0937 LP  0  0  0  0  0  0  0  0  0  0  0  0  # atno 17343 bound_to 10162
  156.1168  130.6081  151.0133 LP  0  0  0  0  0  0  0  0  0  0  0  0  # atno 17370 bound_to 10713
  157.6608  131.0881  150.7843 LP  0  0  0  0  0  0  0  0  0  0  0  0  # atno 17371 bound_to 10713
  140.2661  134.3514  155.7389 LP  0  0  0  0  0  0  0  0  0  0  0  0  # atno 17394 bound_to 11000
  141.2193  133.7397  156.9153 LP  0  0  0  0  0  0  0  0  0  0  0  0  # atno 17395 bound_to 11000

$$$$
