AV-unprocessed.smi:480|AV-procd|sdf|2679|dock5
  -GOLD-   2262023103D 1   1.00000     0.00000
 Structure written by MMmdl.
 47 49  0  0  0  0  0  0  0  0  2 V2000
  148.3736  141.5393  154.6395 C   0  0  0  0  0  0  0  0  0  0  0  0
  149.8431  141.1200  154.7539 C   0  0  0  0  0  0  0  0  0  0  0  0
  150.4591  141.6224  156.0193 C   0  0  0  0  0  0  0  0  0  0  0  0
  150.2786  142.8634  156.5536 N   0  3  0  0  0  0  0  0  0  0  0  0
  151.0227  142.9855  157.7276 C   0  0  0  0  0  0  0  0  0  0  0  0
  151.1575  144.0484  158.6154 C   0  0  0  0  0  0  0  0  0  0  0  0
  152.0044  143.8430  159.7245 C   0  0  0  0  0  0  0  0  0  0  0  0
  152.6780  142.6192  159.9175 C   0  0  0  0  0  0  0  0  0  0  0  0
  152.5335  141.5489  159.0103 C   0  0  0  0  0  0  0  0  0  0  0  0
  151.6941  141.7605  157.9171 C   0  0  0  0  0  0  0  0  0  0  0  0
  151.3181  140.9509  156.8400 N   0  0  0  0  0  0  0  0  0  0  0  0
  151.8606  139.5860  156.7474 C   0  0  0  0  0  0  0  0  0  0  0  0
  152.0668  139.1180  155.2925 C   0  0  1  0  0  0  0  0  0  0  0  0
  153.4323  138.8040  155.1010 O   0  0  0  0  0  0  0  0  0  0  0  0
  151.2267  137.8731  154.9672 C   0  0  0  0  0  0  0  0  0  0  0  0
  151.7325  136.7718  155.7102 O   0  0  0  0  0  0  0  0  0  0  0  0
  151.2601  135.5109  155.4141 C   0  0  0  0  0  0  0  0  0  0  0  0
  150.3471  135.2260  154.3673 C   0  0  0  0  0  0  0  0  0  0  0  0
  149.9186  133.9044  154.1345 C   0  0  0  0  0  0  0  0  0  0  0  0
  150.3928  132.8513  154.9410 C   0  0  0  0  0  0  0  0  0  0  0  0
  149.9333  131.4303  154.6887 C   0  0  0  0  0  0  0  0  0  0  0  0
  151.0613  130.5229  154.4296 C   0  0  0  0  0  0  0  0  0  0  0  0
  151.9486  129.8090  154.2256 N   0  0  0  0  0  0  0  0  0  0  0  0
  151.2996  133.1271  155.9828 C   0  0  0  0  0  0  0  0  0  0  0  0
  151.7277  134.4484  156.2146 C   0  0  0  0  0  0  0  0  0  0  0  0
  147.9347  141.1669  153.7137 H   0  0  0  0  0  0  0  0  0  0  0  0
  148.2710  142.6249  154.6427 H   0  0  0  0  0  0  0  0  0  0  0  0
  147.7859  141.1448  155.4691 H   0  0  0  0  0  0  0  0  0  0  0  0
  149.9239  140.0329  154.7254 H   0  0  0  0  0  0  0  0  0  0  0  0
  150.4091  141.4964  153.9015 H   0  0  0  0  0  0  0  0  0  0  0  0
  150.6426  144.9866  158.4695 H   0  0  0  0  0  0  0  0  0  0  0  0
  152.1403  144.6402  160.4410 H   0  0  0  0  0  0  0  0  0  0  0  0
  153.3186  142.4986  160.7793 H   0  0  0  0  0  0  0  0  0  0  0  0
  153.0528  140.6150  159.1671 H   0  0  0  0  0  0  0  0  0  0  0  0
  152.8061  139.5639  157.2903 H   0  0  0  0  0  0  0  0  0  0  0  0
  151.1879  138.9137  157.2817 H   0  0  0  0  0  0  0  0  0  0  0  0
  151.7947  139.9271  154.6142 H   0  0  0  0  0  0  0  0  0  0  0  0
  153.6323  138.8902  154.1812 H   0  0  0  0  0  0  0  0  0  0  0  0
  150.1701  138.0520  155.1762 H   0  0  0  0  0  0  0  0  0  0  0  0
  151.3230  137.6427  153.9050 H   0  0  0  0  0  0  0  0  0  0  0  0
  149.9606  136.0037  153.7264 H   0  0  0  0  0  0  0  0  0  0  0  0
  149.2244  133.7014  153.3322 H   0  0  0  0  0  0  0  0  0  0  0  0
  149.3816  131.0573  155.5521 H   0  0  0  0  0  0  0  0  0  0  0  0
  149.2608  131.3984  153.8311 H   0  0  0  0  0  0  0  0  0  0  0  0
  151.6702  132.3259  156.6054 H   0  0  0  0  0  0  0  0  0  0  0  0
  152.4241  134.6481  157.0158 H   0  0  0  0  0  0  0  0  0  0  0  0
  149.6875  143.5737  156.1415 H   0  0  0  0  0  0  0  0  0  0  0  0
  1  2  1  0  0  0  0
  1 26  1  0  0  0  0
  1 27  1  0  0  0  0
  1 28  1  0  0  0  0
  2  3  1  0  0  0  0
  2 29  1  0  0  0  0
  2 30  1  0  0  0  0
  3 11  1  0  0  0  0
  3  4  2  0  0  0  0
  4  5  1  0  0  0  0
  4 47  1  0  0  0  0
  5 10  2  0  0  0  0
  5  6  1  0  0  0  0
  6  7  2  0  0  0  0
  6 31  1  0  0  0  0
  7  8  1  0  0  0  0
  7 32  1  0  0  0  0
  8  9  2  0  0  0  0
  8 33  1  0  0  0  0
  9 10  1  0  0  0  0
  9 34  1  0  0  0  0
 10 11  1  0  0  0  0
 11 12  1  0  0  0  0
 12 13  1  0  0  0  0
 12 35  1  0  0  0  0
 12 36  1  0  0  0  0
 13 14  1  0  0  0  0
 13 15  1  0  0  0  0
 13 37  1  0  0  0  0
 14 38  1  0  0  0  0
 15 16  1  0  0  0  0
 15 39  1  0  0  0  0
 15 40  1  0  0  0  0
 16 17  1  0  0  0  0
 17 25  1  0  0  0  0
 17 18  2  0  0  0  0
 18 19  1  0  0  0  0
 18 41  1  0  0  0  0
 19 20  2  0  0  0  0
 19 42  1  0  0  0  0
 20 21  1  0  0  0  0
 20 24  1  0  0  0  0
 21 22  1  0  0  0  0
 21 43  1  0  0  0  0
 21 44  1  0  0  0  0
 22 23  3  0  0  0  0
 24 25  2  0  0  0  0
 24 45  1  0  0  0  0
 25 46  1  0  0  0  0
M  CHG  1   4   1
M  END
> <s_m_source_file>
AV-unprocessed.smi

> <i_m_source_file_index>
480

> <i_lp_mmshare_version>
43012

> <i_f3d_flags>
0

> <s_epik_input>
W2NIXTFbY0hdW2NIXVtjSF1jKGMxMiluKGMobjIpW0NIMl1bQ0gzXSlbQ0gyXVtDQEhdKFtPSF0pW0NIMl1PYzNbY0hdW2NIXWMoW0NIMl1DI04pW2NIXVtjSF0z

> <s_epik_cmdline>
J2VwaWtfcHl0aG9uJywgJy1waCcsICc3LjAnLCAnLXRuJywgJzgnLCAnLW1hJywgJzIwMCcsICctbWV0YWxfYmluZGluZycsICctaW1hZScsICc8aW5maWxlLm1hZT4nLCAnLW9tYWUnLCAnPG91dGZpbGUubWFlPic=

> <r_lp_tautomer_probability>
1

> <r_epik_Ionization_Penalty>
1.03158

> <r_epik_Ionization_Penalty_Charging>
1.03158

> <r_epik_Ionization_Penalty_Neutral>
2.3994e-06

> <r_epik_State_Penalty>
1.08278

> <r_epik_Charging_Adjusted_Penalty>
2.11436

> <i_epik_Tot_Q>
1

> <i_epik_Tot_abs_Q>
1

> <r_epik_Metal_State_Penalty>
5.07177

> <b_epik_Metal_Only>
0

> <s_lp_Force_Field>
OPLS_2005

> <r_lp_Energy>
21.7936

> <b_lp_Chiralities_Consistent>
1

> <s_lp_Variant>
AV-unprocessed.smi:480-4

> <Gold.Version>
5.8.1

> <Gold.Id.Protein>
6NUR|6NUR_protein|mol2

> <Gold.PLP.Fitness>
58.9062

> <Gold.PLP.PLP>
-52.5812

> <Gold.PLP.part.hbond>
-2.6178

> <Gold.PLP.part.metal>
0.0000

> <Gold.PLP.part.buried>
-3.2399

> <Gold.PLP.part.nonpolar>
-46.3956

> <Gold.PLP.part.repulsive>
0.1686

> <Gold.PLP.ligand.clash>
0.0000

> <Gold.PLP.ligand.torsion>
1.4453

> <Gold.PLP.Chemscore.Hbond>
3.0000

> <Gold.PLP.Chemscore.CHOScore>
0.0000

> <Gold.PLP.Chemscore.Metal>
0.0000

> <Gold.Chemscore.Hbonds>
donor molecule, donor type, donor heavy atom, donor atom, acceptor molecule, acceptor atom, score
      L1  H     4    47       P1  8028  1.72
      P1  H  7997  8008       L1    14  1.00

> <Gold.PLP.Chemscore.Internal.Correction>
0.2156

> <Gold.Rescore>
     Score         DG    S(hbond)    S(metal)    S(lipo)     H(rot)  DE(clash)    DE(int)     intcor
     16.76     -18.25       1.22        0.00     132.82       2.67       0.03       1.47       ----

> <Gold.Chemscore.Fitness>
16.7567

> <Gold.Chemscore.DG>
-18.2543

> <Gold.Chemscore.ZeroCoef>
-5.4800

> <Gold.Chemscore.Hbond>
1.2192

> <Gold.Chemscore.Metal>
0.0000

> <Gold.Chemscore.Lipo>
132.8204

> <Gold.Chemscore.Internal_Hbond>
0.0000

> <Gold.Chemscore.DEClash>
0.0285

> <Gold.Chemscore.DEInternal>
1.4691

> <Gold.Chemscore.Rot>
2.6710

> <Gold.Chemscore.Internal.Correction>
   9.000000E+99

> <Gold.Chemscore.Hbonds>
donor molecule, donor type, donor heavy atom, donor atom, acceptor molecule, acceptor atom, score
      L1  H     4    47       P1  8028  0.84
      P1  H  7997  8008       L1    14  0.29

> <Gold.Chemscore.Hbond.Weighted>
-4.0720

> <Gold.Chemscore.Metal.Weighted>
-0.0000

> <Gold.Chemscore.Lipo.Weighted>
-15.5400

> <Gold.Chemscore.Internal_Hbond.Weighted>
0.0000

> <Gold.Chemscore.DEClash.Weighted>
0.0285

> <Gold.Chemscore.DEInternal.Weighted>
1.4691

> <Gold.Chemscore.Rot.Weighted>
6.8377

> <Gold.Chemscore.Internal.Correction.Weighted>
   9.000000E+99

> <Gold.Protein.RotatedTorsions>
[ 6907 6896 6895 6894 ] final -172.43 input  -60.11 | X-H torsion
[ 7974 7965 7964 7962 ] final   17.07 input  175.53 | X-H torsion
[ 8008 7997 7996 7995 ] final  -20.40 input   59.86 | X-H torsion
[ 10167 10162 10161 10158 ] final  -49.50 input  -65.29 | X-H torsion
[ 10718 10713 10712 10709 ] final -139.71 input   66.30 | X-H torsion
[ 10763 10752 10751 10750 ] final   78.40 input  -60.55 | X-H torsion
[ 11005 11000 10999 10996 ] final   -0.29 input  -57.11 | X-H torsion

> <Gold.Protein.ActiveResidues>
 VAL166  LYS551  ARG553  GLY616  TRP617  ASP618  TYR619  PRO620  LYS621  CYS622 
 ASP623  PHE694  ASN695  SER759  ASP760  ASP761  ALA762  ILE779  LEU786  VAL792 
 PHE793  MET794  SER795  GLU796  ALA797  LYS798  CYS799  TRP800  GLU811  SER814 

> <Gold.Protein.RotatedAtoms>
  151.5399  133.3434  159.2933 H   0  0  0  0  0  0  0  0  0  0  0  0  # atno 6907 bound_to 6896
  150.8542  134.7878  159.7043 H   0  0  0  0  0  0  0  0  0  0  0  0  # atno 6908 bound_to 6896
  152.4580  134.5257  159.9847 H   0  0  0  0  0  0  0  0  0  0  0  0  # atno 6909 bound_to 6896
  146.2230  139.8656  142.8596 H   0  0  0  0  0  0  0  0  0  0  0  0  # atno 7974 bound_to 7965
  154.4772  140.2063  155.9849 H   0  0  0  0  0  0  0  0  0  0  0  0  # atno 8008 bound_to 7997
  156.1108  140.3229  155.8041 H   0  0  0  0  0  0  0  0  0  0  0  0  # atno 8009 bound_to 7997
  155.4637  140.0526  157.2978 H   0  0  0  0  0  0  0  0  0  0  0  0  # atno 8010 bound_to 7997
  140.6682  143.2695  151.4224 H   0  0  0  0  0  0  0  0  0  0  0  0  # atno 10167 bound_to 10162
  156.3139  130.7497  151.1579 H   0  0  0  0  0  0  0  0  0  0  0  0  # atno 10718 bound_to 10713
  153.0871  135.4878  154.8618 H   0  0  0  0  0  0  0  0  0  0  0  0  # atno 10763 bound_to 10752
  154.7224  135.3042  154.9028 H   0  0  0  0  0  0  0  0  0  0  0  0  # atno 10764 bound_to 10752
  153.9688  135.6803  153.4799 H   0  0  0  0  0  0  0  0  0  0  0  0  # atno 10765 bound_to 10752
  140.6346  133.9544  155.8293 H   0  0  0  0  0  0  0  0  0  0  0  0  # atno 11005 bound_to 11000
  145.2660  141.0093  143.3799 LP  0  0  0  0  0  0  0  0  0  0  0  0  # atno 17320 bound_to 7965
  144.9261  139.4354  143.6518 LP  0  0  0  0  0  0  0  0  0  0  0  0  # atno 17321 bound_to 7965
  139.5939  144.1439  152.2121 LP  0  0  0  0  0  0  0  0  0  0  0  0  # atno 17342 bound_to 10162
  140.0802  144.5707  150.7128 LP  0  0  0  0  0  0  0  0  0  0  0  0  # atno 17343 bound_to 10162
  157.7397  131.0526  150.5213 LP  0  0  0  0  0  0  0  0  0  0  0  0  # atno 17370 bound_to 10713
  156.5357  130.4195  149.6179 LP  0  0  0  0  0  0  0  0  0  0  0  0  # atno 17371 bound_to 10713
  141.0651  134.0289  157.3605 LP  0  0  0  0  0  0  0  0  0  0  0  0  # atno 17394 bound_to 11000
  139.9103  135.0188  156.7663 LP  0  0  0  0  0  0  0  0  0  0  0  0  # atno 17395 bound_to 11000

$$$$
