AV-unprocessed.smi:1691|AV-procd|sdf|6775|dock7
  -GOLD-   22720 7533D 1   1.00000     0.00000
 Structure written by MMmdl.
 44 45  0  0  0  0  0  0  0  0  2 V2000
  146.1284  139.0897  154.4593 C   0  0  0  0  0  0  0  0  0  0  0  0
  146.7217  138.0605  153.4761 C   0  0  0  0  0  0  0  0  0  0  0  0
  146.7944  138.6978  152.0749 C   0  0  0  0  0  0  0  0  0  0  0  0
  145.9338  136.7171  153.4945 C   0  0  1  0  0  0  0  0  0  0  0  0
  144.8186  136.6629  152.4115 C   0  0  0  0  0  0  0  0  0  0  0  0
  143.7723  137.6621  152.6095 N   0  0  0  0  0  0  0  0  0  0  0  0
  142.4961  137.4034  152.9281 C   0  0  0  0  0  0  0  0  0  0  0  0
  142.0507  136.2679  153.0917 O   0  0  0  0  0  0  0  0  0  0  0  0
  141.7866  138.5362  153.0545 N   0  0  0  0  0  0  0  0  0  0  0  0
  140.4183  138.6545  153.4040 C   0  0  0  0  0  0  0  0  0  0  0  0
  139.7461  139.7208  154.0705 C   0  0  0  0  0  0  0  0  0  0  0  0
  138.4554  139.4576  154.2151 N   0  0  0  0  0  0  0  0  0  0  0  0
  138.2975  138.2388  153.6520 N   0  0  0  0  0  0  0  0  0  0  0  0
  139.4663  137.7137  153.1466 C   0  0  0  0  0  0  0  0  0  0  0  0
  146.8920  135.5673  153.4417 N   0  3  0  0  0  0  0  0  0  0  0  0
  147.6697  135.3235  154.6815 C   0  0  0  0  0  0  0  0  0  0  0  0
  148.7806  134.2963  154.4065 C   0  0  0  0  0  0  0  0  0  0  0  0
  148.2081  133.0976  153.8963 O   0  0  0  0  0  0  0  0  0  0  0  0
  147.5307  133.3081  152.6626 C   0  0  0  0  0  0  0  0  0  0  0  0
  146.3735  134.2986  152.8715 C   0  0  0  0  0  0  0  0  0  0  0  0
  137.3960  137.7838  153.6214 H   0  0  0  0  0  0  0  0  0  0  0  0
  145.0838  139.3010  154.2285 H   0  0  0  0  0  0  0  0  0  0  0  0
  146.6724  140.0337  154.4157 H   0  0  0  0  0  0  0  0  0  0  0  0
  146.1801  138.7467  155.4926 H   0  0  0  0  0  0  0  0  0  0  0  0
  147.7481  137.8664  153.7888 H   0  0  0  0  0  0  0  0  0  0  0  0
  145.8007  138.8281  151.6450 H   0  0  0  0  0  0  0  0  0  0  0  0
  147.3874  138.0998  151.3836 H   0  0  0  0  0  0  0  0  0  0  0  0
  147.2668  139.6799  152.1141 H   0  0  0  0  0  0  0  0  0  0  0  0
  145.4370  136.6742  154.4652 H   0  0  0  0  0  0  0  0  0  0  0  0
  145.2368  136.8766  151.4290 H   0  0  0  0  0  0  0  0  0  0  0  0
  144.4082  135.6540  152.3469 H   0  0  0  0  0  0  0  0  0  0  0  0
  144.0409  138.6278  152.4881 H   0  0  0  0  0  0  0  0  0  0  0  0
  142.2757  139.4041  152.8919 H   0  0  0  0  0  0  0  0  0  0  0  0
  140.1317  140.6562  154.4481 H   0  0  0  0  0  0  0  0  0  0  0  0
  139.5139  136.7488  152.6639 H   0  0  0  0  0  0  0  0  0  0  0  0
  148.1136  136.2545  155.0354 H   0  0  0  0  0  0  0  0  0  0  0  0
  147.0256  134.9501  155.4761 H   0  0  0  0  0  0  0  0  0  0  0  0
  149.5123  134.6929  153.7008 H   0  0  0  0  0  0  0  0  0  0  0  0
  149.3178  134.0682  155.3275 H   0  0  0  0  0  0  0  0  0  0  0  0
  148.2281  133.6769  151.9085 H   0  0  0  0  0  0  0  0  0  0  0  0
  147.1473  132.3534  152.3025 H   0  0  0  0  0  0  0  0  0  0  0  0
  145.6384  133.8515  153.5385 H   0  0  0  0  0  0  0  0  0  0  0  0
  145.8742  134.4851  151.9210 H   0  0  0  0  0  0  0  0  0  0  0  0
  147.5911  135.8769  152.7817 H   0  0  0  0  0  0  0  0  0  0  0  0
  1  2  1  0  0  0  0
  1 22  1  0  0  0  0
  1 23  1  0  0  0  0
  1 24  1  0  0  0  0
  2  3  1  0  0  0  0
  2  4  1  0  0  0  0
  2 25  1  0  0  0  0
  3 26  1  0  0  0  0
  3 27  1  0  0  0  0
  3 28  1  0  0  0  0
  4  5  1  0  0  0  0
  4 15  1  0  0  0  0
  4 29  1  0  0  0  0
  5  6  1  0  0  0  0
  5 30  1  0  0  0  0
  5 31  1  0  0  0  0
  6  7  1  0  0  0  0
  6 32  1  0  0  0  0
  7  8  2  0  0  0  0
  7  9  1  0  0  0  0
  9 10  1  0  0  0  0
  9 33  1  0  0  0  0
 10 14  2  0  0  0  0
 10 11  1  0  0  0  0
 11 12  2  0  0  0  0
 11 34  1  0  0  0  0
 12 13  1  0  0  0  0
 13 21  1  0  0  0  0
 13 14  1  0  0  0  0
 14 35  1  0  0  0  0
 15 20  1  0  0  0  0
 15 16  1  0  0  0  0
 15 44  1  0  0  0  0
 16 17  1  0  0  0  0
 16 36  1  0  0  0  0
 16 37  1  0  0  0  0
 17 18  1  0  0  0  0
 17 38  1  0  0  0  0
 17 39  1  0  0  0  0
 18 19  1  0  0  0  0
 19 20  1  0  0  0  0
 19 40  1  0  0  0  0
 19 41  1  0  0  0  0
 20 42  1  0  0  0  0
 20 43  1  0  0  0  0
M  CHG  1  15   1
M  END
> <s_m_source_file>
AV-unprocessed.smi

> <i_m_source_file_index>
1691

> <i_lp_mmshare_version>
43012

> <i_f3d_flags>
0

> <s_epik_input>
W0NIMl0xW0NIMl1PW0NIMl1bQ0gyXU4xW0NASF0oW0NIXShbQ0gzXSlbQ0gzXSlbQ0gyXVtOSF1DKD1PKVtOSF1jMltjSF1uW25IXVtjSF0y

> <s_epik_cmdline>
J2VwaWtfcHl0aG9uJywgJy1waCcsICc3LjAnLCAnLXRuJywgJzgnLCAnLW1hJywgJzIwMCcsICctbWV0YWxfYmluZGluZycsICctaW1hZScsICc8aW5maWxlLm1hZT4nLCAnLW9tYWUnLCAnPG91dGZpbGUubWFlPic=

> <r_lp_tautomer_probability>
0.5

> <r_epik_Ionization_Penalty>
0.363378

> <r_epik_Ionization_Penalty_Charging>
0.363339

> <r_epik_Ionization_Penalty_Neutral>
3.97246e-05

> <r_epik_State_Penalty>
0.36031

> <r_epik_Charging_Adjusted_Penalty>
0.723649

> <i_epik_Tot_Q>
1

> <i_epik_Tot_abs_Q>
1

> <r_epik_Metal_State_Penalty>
0.360311

> <b_epik_Metal_Only>
0

> <s_lp_Force_Field>
OPLS_2005

> <r_lp_Energy>
33.682

> <b_lp_Chiralities_Consistent>
1

> <s_lp_Variant>
AV-unprocessed.smi:1691-2

> <Gold.Version>
5.8.1

> <Gold.Id.Protein>
6NUR|6NUR_protein|mol2

> <Gold.PLP.Fitness>
40.3057

> <Gold.PLP.PLP>
-28.3644

> <Gold.PLP.part.hbond>
-4.3727

> <Gold.PLP.part.metal>
0.0000

> <Gold.PLP.part.buried>
-1.8812

> <Gold.PLP.part.nonpolar>
-21.8657

> <Gold.PLP.part.repulsive>
0.3867

> <Gold.PLP.ligand.clash>
0.0000

> <Gold.PLP.ligand.torsion>
1.6740

> <Gold.PLP.Chemscore.Hbond>
4.0000

> <Gold.PLP.Chemscore.CHOScore>
1.0000

> <Gold.PLP.Chemscore.Metal>
0.0000

> <Gold.Chemscore.Hbonds>
donor molecule, donor type, donor heavy atom, donor atom, acceptor molecule, acceptor atom, score
      L1  H     6    32       P1 10175  1.00
      L1  H     9    33       P1 10175  1.00
      L1  H    15    44       P1  7948  2.00
      L1  C    14    35       P1 10187  1.00

> <Gold.PLP.Chemscore.Internal.Correction>
0.2893

> <Gold.Rescore>
     Score         DG    S(hbond)    S(metal)    S(lipo)     H(rot)  DE(clash)    DE(int)     intcor
     15.08     -17.73       2.93        0.00      61.43       1.84       0.02       2.64       ----

> <Gold.Chemscore.Fitness>
15.0817

> <Gold.Chemscore.DG>
-17.7328

> <Gold.Chemscore.ZeroCoef>
-5.4800

> <Gold.Chemscore.Hbond>
2.9289

> <Gold.Chemscore.Metal>
0.0000

> <Gold.Chemscore.Lipo>
61.4290

> <Gold.Chemscore.Internal_Hbond>
0.0000

> <Gold.Chemscore.DEClash>
0.0157

> <Gold.Chemscore.DEInternal>
2.6355

> <Gold.Chemscore.Rot>
1.8425

> <Gold.Chemscore.Internal.Correction>
   9.000000E+99

> <Gold.Chemscore.Hbonds>
donor molecule, donor type, donor heavy atom, donor atom, acceptor molecule, acceptor atom, score
      L1  H     6    32       P1 10175  0.95
      L1  H     9    33       P1 10175  0.92
      L1  H    15    44       P1  7948  1.00

> <Gold.Chemscore.Hbond.Weighted>
-9.7825

> <Gold.Chemscore.Metal.Weighted>
-0.0000

> <Gold.Chemscore.Lipo.Weighted>
-7.1872

> <Gold.Chemscore.Internal_Hbond.Weighted>
0.0000

> <Gold.Chemscore.DEClash.Weighted>
0.0157

> <Gold.Chemscore.DEInternal.Weighted>
2.6355

> <Gold.Chemscore.Rot.Weighted>
4.7168

> <Gold.Chemscore.Internal.Correction.Weighted>
   9.000000E+99

> <Gold.Protein.RotatedTorsions>
[ 6907 6896 6895 6894 ] final  115.42 input  -60.11 | X-H torsion
[ 7974 7965 7964 7962 ] final   41.97 input  175.53 | X-H torsion
[ 8008 7997 7996 7995 ] final   45.00 input   59.86 | X-H torsion
[ 10167 10162 10161 10158 ] final   69.45 input  -65.29 | X-H torsion
[ 10718 10713 10712 10709 ] final   24.91 input   66.30 | X-H torsion
[ 10763 10752 10751 10750 ] final  -36.17 input  -60.55 | X-H torsion
[ 11005 11000 10999 10996 ] final  119.50 input  -57.11 | X-H torsion

> <Gold.Protein.ActiveResidues>
 VAL166  LYS551  ARG553  GLY616  TRP617  ASP618  TYR619  PRO620  LYS621  CYS622 
 ASP623  PHE694  ASN695  SER759  ASP760  ASP761  ALA762  ILE779  LEU786  VAL792 
 PHE793  MET794  SER795  GLU796  ALA797  LYS798  CYS799  TRP800  GLU811  SER814 

> <Gold.Protein.RotatedAtoms>
  152.4742  133.8100  159.6997 H   0  0  0  0  0  0  0  0  0  0  0  0  # atno 6907 bound_to 6896
  150.8749  133.7443  159.2956 H   0  0  0  0  0  0  0  0  0  0  0  0  # atno 6908 bound_to 6896
  151.4966  135.1063  159.9870 H   0  0  0  0  0  0  0  0  0  0  0  0  # atno 6909 bound_to 6896
  146.0779  139.5354  142.9556 H   0  0  0  0  0  0  0  0  0  0  0  0  # atno 7974 bound_to 7965
  155.3287  140.3401  155.4240 H   0  0  0  0  0  0  0  0  0  0  0  0  # atno 8008 bound_to 7997
  156.1873  140.1685  156.8198 H   0  0  0  0  0  0  0  0  0  0  0  0  # atno 8009 bound_to 7997
  154.5400  140.0727  156.8477 H   0  0  0  0  0  0  0  0  0  0  0  0  # atno 8010 bound_to 7997
  140.0677  144.5179  150.7249 H   0  0  0  0  0  0  0  0  0  0  0  0  # atno 10167 bound_to 10162
  157.1862  130.6825  149.6132 H   0  0  0  0  0  0  0  0  0  0  0  0  # atno 10718 bound_to 10713
  153.8754  135.6827  153.4771 H   0  0  0  0  0  0  0  0  0  0  0  0  # atno 10763 bound_to 10752
  153.1264  135.4717  154.9276 H   0  0  0  0  0  0  0  0  0  0  0  0  # atno 10764 bound_to 10752
  154.7694  135.3234  154.8171 H   0  0  0  0  0  0  0  0  0  0  0  0  # atno 10765 bound_to 10752
  139.9149  134.9629  156.7665 H   0  0  0  0  0  0  0  0  0  0  0  0  # atno 11005 bound_to 11000
  145.6272  141.0311  143.1883 LP  0  0  0  0  0  0  0  0  0  0  0  0  # atno 17320 bound_to 7965
  144.7274  139.7833  143.7360 LP  0  0  0  0  0  0  0  0  0  0  0  0  # atno 17321 bound_to 7965
  140.7141  143.2529  151.4489 LP  0  0  0  0  0  0  0  0  0  0  0  0  # atno 17342 bound_to 10162
  139.5855  144.1614  152.2023 LP  0  0  0  0  0  0  0  0  0  0  0  0  # atno 17343 bound_to 10162
  155.9717  130.4630  150.6165 LP  0  0  0  0  0  0  0  0  0  0  0  0  # atno 17370 bound_to 10713
  157.3905  131.0795  151.1398 LP  0  0  0  0  0  0  0  0  0  0  0  0  # atno 17371 bound_to 10713
  140.6655  133.9606  155.7828 LP  0  0  0  0  0  0  0  0  0  0  0  0  # atno 17394 bound_to 11000
  141.0614  134.0341  157.3654 LP  0  0  0  0  0  0  0  0  0  0  0  0  # atno 17395 bound_to 11000

$$$$
