AV-unprocessed.smi:2702|AV-procd|sdf|10436|dock6
  -GOLD-   2272014473D 1   1.00000     0.00000
 Structure written by MMmdl.
 47 48  0  0  0  0  0  0  0  0  1 V2000
  143.1740  136.3390  153.1263 C   0  0  0  0  0  0  0  0  0  0  0  0
  144.1789  137.3369  153.1546 O   0  0  0  0  0  0  0  0  0  0  0  0
  144.8107  137.4364  154.4194 C   0  0  0  0  0  0  0  0  0  0  0  0
  145.7780  138.6025  154.4364 C   0  0  0  0  0  0  0  0  0  0  0  0
  145.6056  139.6620  155.2604 C   0  0  0  0  0  0  0  0  0  0  0  0
  146.5495  140.7793  155.2466 C   0  0  0  0  0  0  0  0  0  0  0  0
  146.4316  141.7565  155.9867 O   0  0  0  0  0  0  0  0  0  0  0  0
  147.5740  140.6559  154.3514 N   0  0  0  0  0  0  0  0  0  0  0  0
  148.6070  141.7000  154.2262 C   0  0  0  0  0  0  0  0  0  0  0  0
  149.8022  141.4705  155.1612 C   0  0  0  0  0  0  0  0  0  0  0  0
  150.4859  140.4510  155.0636 O   0  0  0  0  0  0  0  0  0  0  0  0
  150.0312  142.4277  156.0728 N   0  0  0  0  0  0  0  0  0  0  0  0
  151.1299  142.4334  157.0356 C   0  0  2  0  0  0  0  0  0  0  0  0
  151.2153  141.0640  157.7371 C   0  0  0  0  0  0  0  0  0  0  0  0
  152.3835  141.0209  158.7334 C   0  0  0  0  0  0  0  0  0  0  0  0
  152.3004  142.1696  159.7508 C   0  0  0  0  0  0  0  0  0  0  0  0
  152.2062  143.5396  159.0492 C   0  0  2  0  0  0  0  0  0  0  0  0
  152.2249  144.7003  160.0575 C   0  0  0  0  0  0  0  0  0  0  0  0
  151.0107  143.5954  158.0615 C   0  0  2  0  0  0  0  0  0  0  0  0
  149.6314  143.6535  158.7595 C   0  0  0  0  0  0  0  0  0  0  0  0
  147.6953  139.5384  153.5016 C   0  0  0  0  0  0  0  0  0  0  0  0
  146.8475  138.5599  153.5361 N   0  0  0  0  0  0  0  0  0  0  0  0
  142.7263  136.2980  152.1333 H   0  0  0  0  0  0  0  0  0  0  0  0
  142.3818  136.5567  153.8439 H   0  0  0  0  0  0  0  0  0  0  0  0
  143.5883  135.3549  153.3496 H   0  0  0  0  0  0  0  0  0  0  0  0
  144.0637  137.5780  155.2023 H   0  0  0  0  0  0  0  0  0  0  0  0
  145.3453  136.5127  154.6469 H   0  0  0  0  0  0  0  0  0  0  0  0
  144.7679  139.6869  155.9421 H   0  0  0  0  0  0  0  0  0  0  0  0
  148.9537  141.7442  153.1917 H   0  0  0  0  0  0  0  0  0  0  0  0
  148.2055  142.6939  154.4313 H   0  0  0  0  0  0  0  0  0  0  0  0
  149.4142  143.2269  156.0840 H   0  0  0  0  0  0  0  0  0  0  0  0
  152.0581  142.5666  156.4760 H   0  0  0  0  0  0  0  0  0  0  0  0
  150.2821  140.8467  158.2578 H   0  0  0  0  0  0  0  0  0  0  0  0
  151.3422  140.2732  156.9969 H   0  0  0  0  0  0  0  0  0  0  0  0
  152.3938  140.0629  159.2539 H   0  0  0  0  0  0  0  0  0  0  0  0
  153.3263  141.0856  158.1889 H   0  0  0  0  0  0  0  0  0  0  0  0
  151.4402  142.0214  160.4041 H   0  0  0  0  0  0  0  0  0  0  0  0
  153.1794  142.1428  160.3958 H   0  0  0  0  0  0  0  0  0  0  0  0
  153.1109  143.6504  158.4489 H   0  0  0  0  0  0  0  0  0  0  0  0
  151.4181  144.6179  160.7855 H   0  0  0  0  0  0  0  0  0  0  0  0
  152.1271  145.6619  159.5530 H   0  0  0  0  0  0  0  0  0  0  0  0
  153.1626  144.7158  160.6136 H   0  0  0  0  0  0  0  0  0  0  0  0
  151.1068  144.5286  157.5047 H   0  0  0  0  0  0  0  0  0  0  0  0
  149.4399  142.7687  159.3652 H   0  0  0  0  0  0  0  0  0  0  0  0
  148.8196  143.7377  158.0370 H   0  0  0  0  0  0  0  0  0  0  0  0
  149.5493  144.5227  159.4108 H   0  0  0  0  0  0  0  0  0  0  0  0
  148.5445  139.5590  152.8166 H   0  0  0  0  0  0  0  0  0  0  0  0
  1  2  1  0  0  0  0
  1 23  1  0  0  0  0
  1 24  1  0  0  0  0
  1 25  1  0  0  0  0
  2  3  1  0  0  0  0
  3  4  1  0  0  0  0
  3 26  1  0  0  0  0
  3 27  1  0  0  0  0
  4 22  1  0  0  0  0
  4  5  2  0  0  0  0
  5  6  1  0  0  0  0
  5 28  1  0  0  0  0
  6  7  2  0  0  0  0
  6  8  1  0  0  0  0
  8  9  1  0  0  0  0
  8 21  1  0  0  0  0
  9 10  1  0  0  0  0
  9 29  1  0  0  0  0
  9 30  1  0  0  0  0
 10 11  2  0  0  0  0
 10 12  1  0  0  0  0
 12 13  1  0  0  0  0
 12 31  1  0  0  0  0
 13 19  1  0  0  0  0
 13 14  1  0  0  0  0
 13 32  1  0  0  0  0
 14 15  1  0  0  0  0
 14 33  1  0  0  0  0
 14 34  1  0  0  0  0
 15 16  1  0  0  0  0
 15 35  1  0  0  0  0
 15 36  1  0  0  0  0
 16 17  1  0  0  0  0
 16 37  1  0  0  0  0
 16 38  1  0  0  0  0
 17 18  1  0  0  0  0
 17 19  1  0  0  0  0
 17 39  1  0  0  0  0
 18 40  1  0  0  0  0
 18 41  1  0  0  0  0
 18 42  1  0  0  0  0
 19 20  1  0  0  0  0
 19 43  1  0  0  0  0
 20 44  1  0  0  0  0
 20 45  1  0  0  0  0
 20 46  1  0  0  0  0
 21 22  2  0  0  0  0
 21 47  1  0  0  0  0
M  END
> <s_m_source_file>
AV-unprocessed.smi

> <i_m_source_file_index>
2702

> <i_lp_mmshare_version>
43012

> <i_f3d_flags>
0

> <s_epik_input>
W0NIM11PW0NIMl1jMVtjSF1jKD1PKW4oW2NIXW4xKVtDSDJdQyg9TylbTkhdW0NAQEhdMltDSDJdW0NIMl1bQ0gyXVtDQEBIXShbQ0gzXSlbQ0BIXTJbQ0gzXQ==

> <s_epik_cmdline>
J2VwaWtfcHl0aG9uJywgJy1waCcsICc3LjAnLCAnLXRuJywgJzgnLCAnLW1hJywgJzIwMCcsICctbWV0YWxfYmluZGluZycsICctaW1hZScsICc8aW5maWxlLm1hZT4nLCAnLW9tYWUnLCAnPG91dGZpbGUubWFlPic=

> <r_lp_tautomer_probability>
1

> <r_epik_Ionization_Penalty>
1.22164e-06

> <r_epik_Ionization_Penalty_Charging>
3.17988e-07

> <r_epik_Ionization_Penalty_Neutral>
9.03656e-07

> <r_epik_State_Penalty>
-0

> <r_epik_Charging_Adjusted_Penalty>
3.17988e-07

> <i_epik_Tot_Q>
0

> <i_epik_Tot_abs_Q>
0

> <r_epik_Metal_State_Penalty>
-0

> <b_epik_Metal_Only>
0

> <s_lp_Force_Field>
OPLS_2005

> <r_lp_Energy>
18.8167

> <b_lp_Chiralities_Consistent>
1

> <s_lp_Variant>
AV-unprocessed.smi:2702-7

> <Gold.Version>
5.8.1

> <Gold.Id.Protein>
6NUR|6NUR_protein|mol2

> <Gold.PLP.Fitness>
43.5378

> <Gold.PLP.PLP>
-35.4406

> <Gold.PLP.part.hbond>
-2.0000

> <Gold.PLP.part.metal>
0.0000

> <Gold.PLP.part.buried>
-4.0655

> <Gold.PLP.part.nonpolar>
-30.4274

> <Gold.PLP.part.repulsive>
0.6504

> <Gold.PLP.ligand.clash>
0.0000

> <Gold.PLP.ligand.torsion>
0.4761

> <Gold.PLP.Chemscore.Hbond>
2.0000

> <Gold.PLP.Chemscore.CHOScore>
1.0000

> <Gold.PLP.Chemscore.Metal>
0.0000

> <Gold.Chemscore.Hbonds>
donor molecule, donor type, donor heavy atom, donor atom, acceptor molecule, acceptor atom, score
      L1  H    12    31       P1  8028  1.00
      P1  H  7989  7998       L1    11  1.00
      L1  C    21    47       P1  7957  0.98

> <Gold.PLP.Chemscore.Internal.Correction>
0.0494

> <Gold.Rescore>
     Score         DG    S(hbond)    S(metal)    S(lipo)     H(rot)  DE(clash)    DE(int)     intcor
     14.80     -16.53       1.63        0.00      90.20       1.93       0.11       1.63       ----

> <Gold.Chemscore.Fitness>
14.7954

> <Gold.Chemscore.DG>
-16.5349

> <Gold.Chemscore.ZeroCoef>
-5.4800

> <Gold.Chemscore.Hbond>
1.6282

> <Gold.Chemscore.Metal>
0.0000

> <Gold.Chemscore.Lipo>
90.2026

> <Gold.Chemscore.Internal_Hbond>
0.0000

> <Gold.Chemscore.DEClash>
0.1087

> <Gold.Chemscore.DEInternal>
1.6309

> <Gold.Chemscore.Rot>
1.9284

> <Gold.Chemscore.Internal.Correction>
   9.000000E+99

> <Gold.Chemscore.Hbonds>
donor molecule, donor type, donor heavy atom, donor atom, acceptor molecule, acceptor atom, score
      L1  H    12    31       P1  8028  0.98
      P1  H  7989  7998       L1    11  0.28

> <Gold.Chemscore.Hbond.Weighted>
-5.4380

> <Gold.Chemscore.Metal.Weighted>
-0.0000

> <Gold.Chemscore.Lipo.Weighted>
-10.5537

> <Gold.Chemscore.Internal_Hbond.Weighted>
0.0000

> <Gold.Chemscore.DEClash.Weighted>
0.1087

> <Gold.Chemscore.DEInternal.Weighted>
1.6309

> <Gold.Chemscore.Rot.Weighted>
4.9368

> <Gold.Chemscore.Internal.Correction.Weighted>
   9.000000E+99

> <Gold.Protein.RotatedTorsions>
[ 6907 6896 6895 6894 ] final   66.21 input  -60.11 | X-H torsion
[ 7974 7965 7964 7962 ] final  173.68 input  175.53 | X-H torsion
[ 8008 7997 7996 7995 ] final  -99.48 input   59.86 | X-H torsion
[ 10167 10162 10161 10158 ] final  -51.31 input  -65.29 | X-H torsion
[ 10718 10713 10712 10709 ] final  146.51 input   66.30 | X-H torsion
[ 10763 10752 10751 10750 ] final -114.21 input  -60.55 | X-H torsion
[ 11005 11000 10999 10996 ] final -125.21 input  -57.11 | X-H torsion

> <Gold.Protein.ActiveResidues>
 VAL166  LYS551  ARG553  GLY616  TRP617  ASP618  TYR619  PRO620  LYS621  CYS622 
 ASP623  PHE694  ASN695  SER759  ASP760  ASP761  ALA762  ILE779  LEU786  VAL792 
 PHE793  MET794  SER795  GLU796  ALA797  LYS798  CYS799  TRP800  GLU811  SER814 

> <Gold.Protein.RotatedAtoms>
  152.4464  134.5485  159.9859 H   0  0  0  0  0  0  0  0  0  0  0  0  # atno 6907 bound_to 6896
  151.5569  133.3403  159.2971 H   0  0  0  0  0  0  0  0  0  0  0  0  # atno 6908 bound_to 6896
  150.8382  134.7696  159.6974 H   0  0  0  0  0  0  0  0  0  0  0  0  # atno 6909 bound_to 6896
  144.7238  139.9684  143.6436 H   0  0  0  0  0  0  0  0  0  0  0  0  # atno 7974 bound_to 7965
  154.8154  140.0447  157.1372 H   0  0  0  0  0  0  0  0  0  0  0  0  # atno 8008 bound_to 7997
  154.9320  140.3041  155.5143 H   0  0  0  0  0  0  0  0  0  0  0  0  # atno 8009 bound_to 7997
  156.2975  140.2321  156.4381 H   0  0  0  0  0  0  0  0  0  0  0  0  # atno 8010 bound_to 7997
  140.6595  143.2624  151.4485 H   0  0  0  0  0  0  0  0  0  0  0  0  # atno 10167 bound_to 10162
  157.3323  131.0922  151.1152 H   0  0  0  0  0  0  0  0  0  0  0  0  # atno 10718 bound_to 10713
  154.8430  135.4426  154.1470 H   0  0  0  0  0  0  0  0  0  0  0  0  # atno 10763 bound_to 10752
  153.2640  135.6939  153.7554 H   0  0  0  0  0  0  0  0  0  0  0  0  # atno 10764 bound_to 10752
  153.6820  135.3401  155.3156 H   0  0  0  0  0  0  0  0  0  0  0  0  # atno 10765 bound_to 10752
  140.9780  134.0713  157.3796 H   0  0  0  0  0  0  0  0  0  0  0  0  # atno 11005 bound_to 11000
  146.0582  139.3577  143.0597 LP  0  0  0  0  0  0  0  0  0  0  0  0  # atno 17320 bound_to 7965
  145.8127  140.9718  143.0940 LP  0  0  0  0  0  0  0  0  0  0  0  0  # atno 17321 bound_to 7965
  139.5825  144.1678  152.1986 LP  0  0  0  0  0  0  0  0  0  0  0  0  # atno 17342 bound_to 10162
  140.1008  144.5541  150.6990 LP  0  0  0  0  0  0  0  0  0  0  0  0  # atno 17343 bound_to 10162
  157.2396  130.6563  149.5884 LP  0  0  0  0  0  0  0  0  0  0  0  0  # atno 17370 bound_to 10713
  155.9697  130.4573  150.5956 LP  0  0  0  0  0  0  0  0  0  0  0  0  # atno 17371 bound_to 10713
  139.8938  135.0133  156.6920 LP  0  0  0  0  0  0  0  0  0  0  0  0  # atno 17394 bound_to 11000
  140.7229  133.9125  155.8159 LP  0  0  0  0  0  0  0  0  0  0  0  0  # atno 17395 bound_to 11000

$$$$
