AV-unprocessed.smi:196|AV-procd|sdf|1537|dock7
  -GOLD-   2262019393D 1   1.00000     0.00000
 Structure written by MMmdl.
 47 50  0  0  0  0  0  0  0  0  1 V2000
  145.3999  133.1932  161.7804 C   0  0  0  0  0  0  0  0  0  0  0  0
  145.7426  134.6214  161.3279 C   0  0  1  0  0  0  0  0  0  0  0  0
  144.7167  135.5351  161.7148 O   0  0  0  0  0  0  0  0  0  0  0  0
  145.2697  136.6005  162.4754 C   0  0  0  0  0  0  0  0  0  0  0  0
  146.7243  136.6720  162.0299 C   0  0  0  0  0  0  0  0  0  0  0  0
  147.0814  135.2056  161.8341 C   0  0  1  0  0  0  0  0  0  0  0  0
  147.4288  134.6576  163.0965 O   0  0  0  0  0  0  0  0  0  0  0  0
  148.2541  134.9649  160.8544 C   0  0  0  0  0  0  0  0  0  0  0  0
  148.1937  135.7969  159.6631 N   0  0  0  0  0  0  0  0  0  0  0  0
  147.1592  135.8625  158.7568 C   0  0  0  0  0  0  0  0  0  0  0  0
  147.3409  136.6883  157.7624 N   0  0  0  0  0  0  0  0  0  0  0  0
  148.5913  137.2406  158.0086 C   0  0  0  0  0  0  0  0  0  0  0  0
  149.3916  138.2032  157.3380 C   0  0  0  0  0  0  0  0  0  0  0  0
  148.9718  138.7829  156.1821 N   0  0  0  0  0  0  0  0  0  0  0  0
  149.8636  138.4641  155.0722 C   0  0  0  0  0  0  0  0  0  0  0  0
  150.7602  139.6962  154.8657 C   0  0  2  0  0  0  0  0  0  0  0  0
  152.0059  139.4598  155.2788 F   0  0  0  0  0  0  0  0  0  0  0  0
  150.1201  140.8076  155.7072 C   0  0  0  0  0  0  0  0  0  0  0  0
  148.7445  140.2319  156.0823 C   0  0  2  0  0  0  0  0  0  0  0  0
  148.0273  140.9225  157.2622 C   0  0  0  0  0  0  0  0  0  0  0  0
  147.8549  142.2443  157.1792 N   0  0  0  0  0  0  0  0  0  0  0  0
  147.5927  140.2757  158.2140 O   0  0  0  0  0  0  0  0  0  0  0  0
  150.6073  138.4937  157.8742 N   0  0  0  0  0  0  0  0  0  0  0  0
  151.0012  137.9034  159.0062 C   0  0  0  0  0  0  0  0  0  0  0  0
  150.3529  137.0015  159.7460 N   0  0  0  0  0  0  0  0  0  0  0  0
  149.1418  136.6926  159.2004 C   0  0  0  0  0  0  0  0  0  0  0  0
  150.8166  139.9651  153.8106 H   0  0  0  0  0  0  0  0  0  0  0  0
  148.0793  140.3669  155.2274 H   0  0  0  0  0  0  0  0  0  0  0  0
  146.1878  132.4936  161.5005 H   0  0  0  0  0  0  0  0  0  0  0  0
  144.4741  132.8537  161.3161 H   0  0  0  0  0  0  0  0  0  0  0  0
  145.2635  133.1356  162.8605 H   0  0  0  0  0  0  0  0  0  0  0  0
  145.7453  134.6383  160.2370 H   0  0  0  0  0  0  0  0  0  0  0  0
  144.7312  137.5332  162.3081 H   0  0  0  0  0  0  0  0  0  0  0  0
  145.2040  136.3537  163.5359 H   0  0  0  0  0  0  0  0  0  0  0  0
  146.7773  137.2025  161.0785 H   0  0  0  0  0  0  0  0  0  0  0  0
  147.3676  137.1928  162.7405 H   0  0  0  0  0  0  0  0  0  0  0  0
  147.5995  133.7351  162.9848 H   0  0  0  0  0  0  0  0  0  0  0  0
  149.2059  135.1497  161.3543 H   0  0  0  0  0  0  0  0  0  0  0  0
  148.2753  133.9214  160.5376 H   0  0  0  0  0  0  0  0  0  0  0  0
  146.2610  135.2704  158.8555 H   0  0  0  0  0  0  0  0  0  0  0  0
  150.4510  137.5565  155.2288 H   0  0  0  0  0  0  0  0  0  0  0  0
  149.2500  138.2919  154.1870 H   0  0  0  0  0  0  0  0  0  0  0  0
  150.7183  141.0068  156.5975 H   0  0  0  0  0  0  0  0  0  0  0  0
  150.0383  141.7421  155.1511 H   0  0  0  0  0  0  0  0  0  0  0  0
  147.3870  142.7405  157.9233 H   0  0  0  0  0  0  0  0  0  0  0  0
  148.1903  142.7419  156.3671 H   0  0  0  0  0  0  0  0  0  0  0  0
  151.9753  138.1944  159.3707 H   0  0  0  0  0  0  0  0  0  0  0  0
  1  2  1  0  0  0  0
  1 29  1  0  0  0  0
  1 30  1  0  0  0  0
  1 31  1  0  0  0  0
  2  6  1  0  0  0  0
  2  3  1  0  0  0  0
  2 32  1  0  0  0  0
  3  4  1  0  0  0  0
  4  5  1  0  0  0  0
  4 33  1  0  0  0  0
  4 34  1  0  0  0  0
  5  6  1  0  0  0  0
  5 35  1  0  0  0  0
  5 36  1  0  0  0  0
  6  7  1  0  0  0  0
  6  8  1  0  0  0  0
  7 37  1  0  0  0  0
  8  9  1  0  0  0  0
  8 38  1  0  0  0  0
  8 39  1  0  0  0  0
  9 26  1  0  0  0  0
  9 10  1  0  0  0  0
 10 11  2  0  0  0  0
 10 40  1  0  0  0  0
 11 12  1  0  0  0  0
 12 26  2  0  0  0  0
 12 13  1  0  0  0  0
 13 14  1  0  0  0  0
 13 23  2  0  0  0  0
 14 19  1  0  0  0  0
 14 15  1  0  0  0  0
 15 16  1  0  0  0  0
 15 41  1  0  0  0  0
 15 42  1  0  0  0  0
 16 27  1  0  0  0  0
 16 17  1  0  0  0  0
 16 18  1  0  0  0  0
 18 19  1  0  0  0  0
 18 43  1  0  0  0  0
 18 44  1  0  0  0  0
 19 28  1  0  0  0  0
 19 20  1  0  0  0  0
 20 21  1  0  0  0  0
 20 22  2  0  0  0  0
 21 45  1  0  0  0  0
 21 46  1  0  0  0  0
 23 24  1  0  0  0  0
 24 25  2  0  0  0  0
 24 47  1  0  0  0  0
 25 26  1  0  0  0  0
M  END
> <s_m_source_file>
AV-unprocessed.smi

> <i_m_source_file_index>
196

> <i_lp_mmshare_version>
43012

> <i_f3d_flags>
0

> <s_epik_input>
W0NIMl0xW0NIMl1PW0NAQEhdKFtDSDNdKVtDQEBdMShbT0hdKVtDSDJdbihbY0hdbjIpYyhjMjMpbltjSF1uYzNONFtDSDJdW0NASF0oRilbQ0gyXVtDQEhdNEMoPU8pW05IMl0=

> <s_epik_cmdline>
J2VwaWtfcHl0aG9uJywgJy1waCcsICc3LjAnLCAnLXRuJywgJzgnLCAnLW1hJywgJzIwMCcsICctbWV0YWxfYmluZGluZycsICctaW1hZScsICc8aW5maWxlLm1hZT4nLCAnLW9tYWUnLCAnPG91dGZpbGUubWFlPic=

> <r_lp_tautomer_probability>
1

> <r_epik_Ionization_Penalty>
0.000857933

> <r_epik_Ionization_Penalty_Charging>
0

> <r_epik_Ionization_Penalty_Neutral>
0.000857933

> <r_epik_State_Penalty>
0.000462053

> <r_epik_Charging_Adjusted_Penalty>
0.000462053

> <i_epik_Tot_Q>
0

> <i_epik_Tot_abs_Q>
0

> <r_epik_Metal_State_Penalty>
-0

> <b_epik_Metal_Only>
0

> <s_lp_Force_Field>
OPLS_2005

> <r_lp_Energy>
51.2848

> <b_lp_Chiralities_Consistent>
1

> <s_lp_Variant>
AV-unprocessed.smi:196-10

> <Gold.Version>
5.8.1

> <Gold.Id.Protein>
6NUR|6NUR_protein|mol2

> <Gold.PLP.Fitness>
39.9372

> <Gold.PLP.PLP>
-35.3928

> <Gold.PLP.part.hbond>
-3.4996

> <Gold.PLP.part.metal>
0.0000

> <Gold.PLP.part.buried>
-4.9763

> <Gold.PLP.part.nonpolar>
-26.7985

> <Gold.PLP.part.repulsive>
0.0383

> <Gold.PLP.ligand.clash>
0.0000

> <Gold.PLP.ligand.torsion>
0.2652

> <Gold.PLP.Chemscore.Hbond>
1.6720

> <Gold.PLP.Chemscore.CHOScore>
0.0000

> <Gold.PLP.Chemscore.Metal>
0.0000

> <Gold.Chemscore.Hbonds>
donor molecule, donor type, donor heavy atom, donor atom, acceptor molecule, acceptor atom, score
      L1  H    21    46       P1  8028  0.51
      P1  H  6896  6907       L1    25  0.86

> <Gold.PLP.Chemscore.Internal.Correction>
0.0588

> <Gold.Rescore>
     Score         DG    S(hbond)    S(metal)    S(lipo)     H(rot)  DE(clash)    DE(int)     intcor
      8.70     -11.42       1.77        0.00      66.71       3.04       1.27       1.45       ----

> <Gold.Chemscore.Fitness>
8.6995

> <Gold.Chemscore.DG>
-11.4162

> <Gold.Chemscore.ZeroCoef>
-5.4800

> <Gold.Chemscore.Hbond>
1.7714

> <Gold.Chemscore.Metal>
0.0000

> <Gold.Chemscore.Lipo>
66.7121

> <Gold.Chemscore.Internal_Hbond>
0.0000

> <Gold.Chemscore.DEClash>
1.2698

> <Gold.Chemscore.DEInternal>
1.4469

> <Gold.Chemscore.Rot>
3.0413

> <Gold.Chemscore.Internal.Correction>
   9.000000E+99

> <Gold.Chemscore.Hbonds>
donor molecule, donor type, donor heavy atom, donor atom, acceptor molecule, acceptor atom, score
      L1  H    21    46       P1  8028  0.37
      P1  H  6896  6907       L1    25  0.18

> <Gold.Chemscore.Hbond.Weighted>
-5.9165

> <Gold.Chemscore.Metal.Weighted>
-0.0000

> <Gold.Chemscore.Lipo.Weighted>
-7.8053

> <Gold.Chemscore.Internal_Hbond.Weighted>
0.0000

> <Gold.Chemscore.DEClash.Weighted>
1.2698

> <Gold.Chemscore.DEInternal.Weighted>
1.4469

> <Gold.Chemscore.Rot.Weighted>
7.7856

> <Gold.Chemscore.Internal.Correction.Weighted>
   9.000000E+99

> <Gold.Protein.RotatedTorsions>
[ 6907 6896 6895 6894 ] final  -24.90 input  -60.11 | X-H torsion
[ 7974 7965 7964 7962 ] final   98.91 input  175.53 | X-H torsion
[ 8008 7997 7996 7995 ] final   93.29 input   59.86 | X-H torsion
[ 10167 10162 10161 10158 ] final -115.72 input  -65.29 | X-H torsion
[ 10718 10713 10712 10709 ] final  103.77 input   66.30 | X-H torsion
[ 10763 10752 10751 10750 ] final -136.20 input  -60.55 | X-H torsion
[ 11005 11000 10999 10996 ] final   31.97 input  -57.11 | X-H torsion

> <Gold.Protein.ActiveResidues>
 VAL166  LYS551  ARG553  GLY616  TRP617  ASP618  TYR619  PRO620  LYS621  CYS622 
 ASP623  PHE694  ASN695  SER759  ASP760  ASP761  ALA762  ILE779  LEU786  VAL792 
 PHE793  MET794  SER795  GLU796  ALA797  LYS798  CYS799  TRP800  GLU811  SER814 

> <Gold.Protein.RotatedAtoms>
  151.1829  135.0369  159.8799 H   0  0  0  0  0  0  0  0  0  0  0  0  # atno 6907 bound_to 6896
  152.5444  134.1042  159.8341 H   0  0  0  0  0  0  0  0  0  0  0  0  # atno 6908 bound_to 6896
  151.1161  133.5090  159.2636 H   0  0  0  0  0  0  0  0  0  0  0  0  # atno 6909 bound_to 6896
  145.4059  139.2340  143.3274 H   0  0  0  0  0  0  0  0  0  0  0  0  # atno 7974 bound_to 7965
  156.0450  140.3315  155.7286 H   0  0  0  0  0  0  0  0  0  0  0  0  # atno 8008 bound_to 7997
  155.5687  140.0626  157.2829 H   0  0  0  0  0  0  0  0  0  0  0  0  # atno 8009 bound_to 7997
  154.4410  140.1864  156.0845 H   0  0  0  0  0  0  0  0  0  0  0  0  # atno 8010 bound_to 7997
  140.0870  143.4735  152.1892 H   0  0  0  0  0  0  0  0  0  0  0  0  # atno 10167 bound_to 10162
  157.6762  131.0787  150.5606 H   0  0  0  0  0  0  0  0  0  0  0  0  # atno 10718 bound_to 10713
  154.8688  135.3680  154.5023 H   0  0  0  0  0  0  0  0  0  0  0  0  # atno 10763 bound_to 10752
  153.5663  135.7022  153.5529 H   0  0  0  0  0  0  0  0  0  0  0  0  # atno 10764 bound_to 10752
  153.3583  135.4053  155.1662 H   0  0  0  0  0  0  0  0  0  0  0  0  # atno 10765 bound_to 10752
  140.2783  134.3002  155.7808 H   0  0  0  0  0  0  0  0  0  0  0  0  # atno 11005 bound_to 11000
  146.2729  140.4764  142.8807 LP  0  0  0  0  0  0  0  0  0  0  0  0  # atno 17320 bound_to 7965
  144.8342  140.6755  143.6271 LP  0  0  0  0  0  0  0  0  0  0  0  0  # atno 17321 bound_to 7965
  139.5747  144.7481  151.3798 LP  0  0  0  0  0  0  0  0  0  0  0  0  # atno 17342 bound_to 10162
  140.7048  143.7540  150.7464 LP  0  0  0  0  0  0  0  0  0  0  0  0  # atno 17343 bound_to 10162
  156.5909  130.4329  149.5937 LP  0  0  0  0  0  0  0  0  0  0  0  0  # atno 17370 bound_to 10713
  156.2584  130.6948  151.1709 LP  0  0  0  0  0  0  0  0  0  0  0  0  # atno 17371 bound_to 10713
  141.2167  133.7509  156.9441 LP  0  0  0  0  0  0  0  0  0  0  0  0  # atno 17394 bound_to 11000
  140.1307  134.9357  157.2333 LP  0  0  0  0  0  0  0  0  0  0  0  0  # atno 17395 bound_to 11000

$$$$
