AV-unprocessed.smi:1372|AV-procd|sdf|5583|dock3
  -GOLD-   22720 5183D 1   1.00000     0.00000
 Structure written by MMmdl.
 41 43  0  0  0  0  0  0  0  0  1 V2000
  154.5572  136.8274  158.5390 C   0  0  0  0  0  0  0  0  0  0  0  0
  152.8049  136.5626  158.0478 S   0  0  0  0  0  0  0  0  0  0  0  0
  152.7420  135.3576  157.2064 O   0  0  0  0  0  0  0  0  0  0  0  0
  151.9668  136.6514  159.2533 O   0  0  0  0  0  0  0  0  0  0  0  0
  152.4837  138.0440  156.9914 C   0  0  0  0  0  0  0  0  0  0  0  0
  152.4975  139.3031  157.8128 C   0  0  0  0  0  0  0  0  0  0  0  0
  153.5246  139.6088  158.6081 N   0  0  0  0  0  0  0  0  0  0  0  0
  153.1471  140.8194  159.1520 C   0  0  0  0  0  0  0  0  0  0  0  0
  153.8163  141.6656  160.0649 C   0  0  0  0  0  0  0  0  0  0  0  0
  153.2226  142.8740  160.4847 C   0  0  0  0  0  0  0  0  0  0  0  0
  151.9540  143.2521  159.9990 C   0  0  0  0  0  0  0  0  0  0  0  0
  151.2698  142.4218  159.0902 C   0  0  0  0  0  0  0  0  0  0  0  0
  151.8674  141.2167  158.6745 C   0  0  0  0  0  0  0  0  0  0  0  0
  151.4713  140.1957  157.8157 N   0  0  0  0  0  0  0  0  0  0  0  0
  150.2030  140.1472  157.0983 C   0  0  0  0  0  0  0  0  0  0  0  0
  150.2463  140.9006  155.7539 C   0  0  1  0  0  0  0  0  0  0  0  0
  150.9789  140.1573  154.8002 O   0  0  0  0  0  0  0  0  0  0  0  0
  148.8456  141.2345  155.2663 C   0  0  0  0  0  0  0  0  0  0  0  0
  148.5071  141.0415  153.9096 C   0  0  0  0  0  0  0  0  0  0  0  0
  147.2145  141.3583  153.4484 C   0  0  0  0  0  0  0  0  0  0  0  0
  146.2537  141.8720  154.3404 C   0  0  0  0  0  0  0  0  0  0  0  0
  146.5863  142.0698  155.6942 C   0  0  0  0  0  0  0  0  0  0  0  0
  147.8789  141.7534  156.1560 C   0  0  0  0  0  0  0  0  0  0  0  0
  154.8805  136.0076  159.1801 H   0  0  0  0  0  0  0  0  0  0  0  0
  154.6452  137.7679  159.0828 H   0  0  0  0  0  0  0  0  0  0  0  0
  155.1851  136.8602  157.6488 H   0  0  0  0  0  0  0  0  0  0  0  0
  153.2437  138.0586  156.2138 H   0  0  0  0  0  0  0  0  0  0  0  0
  151.5119  137.9285  156.5118 H   0  0  0  0  0  0  0  0  0  0  0  0
  154.7883  141.3841  160.4417 H   0  0  0  0  0  0  0  0  0  0  0  0
  153.7430  143.5137  161.1824 H   0  0  0  0  0  0  0  0  0  0  0  0
  151.5062  144.1794  160.3251 H   0  0  0  0  0  0  0  0  0  0  0  0
  150.2979  142.7087  158.7170 H   0  0  0  0  0  0  0  0  0  0  0  0
  149.8895  139.1123  156.9660 H   0  0  0  0  0  0  0  0  0  0  0  0
  149.4438  140.5977  157.7391 H   0  0  0  0  0  0  0  0  0  0  0  0
  150.7880  141.8367  155.8980 H   0  0  0  0  0  0  0  0  0  0  0  0
  150.6715  139.2638  154.8164 H   0  0  0  0  0  0  0  0  0  0  0  0
  149.2382  140.6514  153.2165 H   0  0  0  0  0  0  0  0  0  0  0  0
  146.9604  141.2083  152.4093 H   0  0  0  0  0  0  0  0  0  0  0  0
  145.2627  142.1154  153.9864 H   0  0  0  0  0  0  0  0  0  0  0  0
  145.8502  142.4652  156.3783 H   0  0  0  0  0  0  0  0  0  0  0  0
  148.1268  141.9122  157.1955 H   0  0  0  0  0  0  0  0  0  0  0  0
  1  2  1  0  0  0  0
  1 24  1  0  0  0  0
  1 25  1  0  0  0  0
  1 26  1  0  0  0  0
  2  3  2  0  0  0  0
  2  4  2  0  0  0  0
  2  5  1  0  0  0  0
  5  6  1  0  0  0  0
  5 27  1  0  0  0  0
  5 28  1  0  0  0  0
  6 14  1  0  0  0  0
  6  7  2  0  0  0  0
  7  8  1  0  0  0  0
  8 13  2  0  0  0  0
  8  9  1  0  0  0  0
  9 10  2  0  0  0  0
  9 29  1  0  0  0  0
 10 11  1  0  0  0  0
 10 30  1  0  0  0  0
 11 12  2  0  0  0  0
 11 31  1  0  0  0  0
 12 13  1  0  0  0  0
 12 32  1  0  0  0  0
 13 14  1  0  0  0  0
 14 15  1  0  0  0  0
 15 16  1  0  0  0  0
 15 33  1  0  0  0  0
 15 34  1  0  0  0  0
 16 17  1  0  0  0  0
 16 18  1  0  0  0  0
 16 35  1  0  0  0  0
 17 36  1  0  0  0  0
 18 23  1  0  0  0  0
 18 19  2  0  0  0  0
 19 20  1  0  0  0  0
 19 37  1  0  0  0  0
 20 21  2  0  0  0  0
 20 38  1  0  0  0  0
 21 22  1  0  0  0  0
 21 39  1  0  0  0  0
 22 23  2  0  0  0  0
 22 40  1  0  0  0  0
 23 41  1  0  0  0  0
M  END
> <s_m_source_file>
AV-unprocessed.smi

> <i_m_source_file_index>
1372

> <i_lp_mmshare_version>
43012

> <i_f3d_flags>
0

> <s_epik_input>
W2NIXTFbY0hdW2NIXVtjSF1jKGMxMiluKGMobjIpW0NIMl1TKD1PKSg9TylbQ0gzXSlbQ0gyXVtDQEhdKFtPSF0pYzNbY0hdW2NIXVtjSF1bY0hdW2NIXTM=

> <s_epik_cmdline>
J2VwaWtfcHl0aG9uJywgJy1waCcsICc3LjAnLCAnLXRuJywgJzgnLCAnLW1hJywgJzIwMCcsICctbWV0YWxfYmluZGluZycsICctaW1hZScsICc8aW5maWxlLm1hZT4nLCAnLW9tYWUnLCAnPG91dGZpbGUubWFlPic=

> <r_epik_Ionization_Penalty>
0.0151431

> <r_epik_Ionization_Penalty_Charging>
0

> <r_epik_Ionization_Penalty_Neutral>
0.0151431

> <r_epik_State_Penalty>
0.0118835

> <r_epik_Charging_Adjusted_Penalty>
0.0118835

> <i_epik_Tot_Q>
0

> <i_epik_Tot_abs_Q>
0

> <r_epik_Metal_State_Penalty>
1.20034e-05

> <b_epik_Metal_Only>
0

> <s_lp_Force_Field>
OPLS_2005

> <r_lp_Energy>
10.2865

> <b_lp_Chiralities_Consistent>
1

> <s_lp_Variant>
AV-unprocessed.smi:1372-2

> <Gold.Version>
5.8.1

> <Gold.Id.Protein>
6NUR|6NUR_protein|mol2

> <Gold.PLP.Fitness>
51.5619

> <Gold.PLP.PLP>
-41.3586

> <Gold.PLP.part.hbond>
-4.0259

> <Gold.PLP.part.metal>
0.0000

> <Gold.PLP.part.buried>
-4.5636

> <Gold.PLP.part.nonpolar>
-32.3390

> <Gold.PLP.part.repulsive>
0.0000

> <Gold.PLP.ligand.clash>
0.0000

> <Gold.PLP.ligand.torsion>
0.9781

> <Gold.PLP.Chemscore.Hbond>
3.9920

> <Gold.PLP.Chemscore.CHOScore>
0.0000

> <Gold.PLP.Chemscore.Metal>
0.0000

> <Gold.Chemscore.Hbonds>
donor molecule, donor type, donor heavy atom, donor atom, acceptor molecule, acceptor atom, score
      P1  H  6896  6908       L1     4  1.00
      P1  H  7989  7998       L1    17  1.00
      P1  H  7997  8009       L1     7  1.00
      P1  H 10752 10763       L1     3  0.84

> <Gold.PLP.Chemscore.Internal.Correction>
0.1834

> <Gold.Rescore>
     Score         DG    S(hbond)    S(metal)    S(lipo)     H(rot)  DE(clash)    DE(int)     intcor
     22.06     -23.07       3.20        0.00     110.06       2.33       0.18       0.83       ----

> <Gold.Chemscore.Fitness>
22.0635

> <Gold.Chemscore.DG>
-23.0700

> <Gold.Chemscore.ZeroCoef>
-5.4800

> <Gold.Chemscore.Hbond>
3.1974

> <Gold.Chemscore.Metal>
0.0000

> <Gold.Chemscore.Lipo>
110.0616

> <Gold.Chemscore.Internal_Hbond>
0.0000

> <Gold.Chemscore.DEClash>
0.1761

> <Gold.Chemscore.DEInternal>
0.8305

> <Gold.Chemscore.Rot>
2.3306

> <Gold.Chemscore.Internal.Correction>
   9.000000E+99

> <Gold.Chemscore.Hbonds>
donor molecule, donor type, donor heavy atom, donor atom, acceptor molecule, acceptor atom, score
      P1  H  6896  6908       L1     4  0.81
      P1  H  7989  7998       L1    17  0.97
      P1  H  7997  8009       L1     7  0.16
      P1  H 10752 10763       L1     3  0.79

> <Gold.Chemscore.Hbond.Weighted>
-10.6793

> <Gold.Chemscore.Metal.Weighted>
-0.0000

> <Gold.Chemscore.Lipo.Weighted>
-12.8772

> <Gold.Chemscore.Internal_Hbond.Weighted>
0.0000

> <Gold.Chemscore.DEClash.Weighted>
0.1761

> <Gold.Chemscore.DEInternal.Weighted>
0.8305

> <Gold.Chemscore.Rot.Weighted>
5.9664

> <Gold.Chemscore.Internal.Correction.Weighted>
   9.000000E+99

> <Gold.Protein.RotatedTorsions>
[ 6907 6896 6895 6894 ] final -113.41 input  -60.11 | X-H torsion
[ 7974 7965 7964 7962 ] final   35.53 input  175.53 | X-H torsion
[ 8008 7997 7996 7995 ] final  129.27 input   59.86 | X-H torsion
[ 10167 10162 10161 10158 ] final -162.71 input  -65.29 | X-H torsion
[ 10718 10713 10712 10709 ] final -139.47 input   66.30 | X-H torsion
[ 10763 10752 10751 10750 ] final   98.77 input  -60.55 | X-H torsion
[ 11005 11000 10999 10996 ] final   67.29 input  -57.11 | X-H torsion

> <Gold.Protein.ActiveResidues>
 VAL166  LYS551  ARG553  GLY616  TRP617  ASP618  TYR619  PRO620  LYS621  CYS622 
 ASP623  PHE694  ASN695  SER759  ASP760  ASP761  ALA762  ILE779  LEU786  VAL792 
 PHE793  MET794  SER795  GLU796  ALA797  LYS798  CYS799  TRP800  GLU811  SER814 

> <Gold.Protein.RotatedAtoms>
  150.7827  133.8949  159.3324 H   0  0  0  0  0  0  0  0  0  0  0  0  # atno 6907 bound_to 6896
  151.6808  135.0960  160.0225 H   0  0  0  0  0  0  0  0  0  0  0  0  # atno 6908 bound_to 6896
  152.3883  133.6603  159.6252 H   0  0  0  0  0  0  0  0  0  0  0  0  # atno 6909 bound_to 6896
  146.1276  139.6131  142.9248 H   0  0  0  0  0  0  0  0  0  0  0  0  # atno 7974 bound_to 7965
  156.2932  140.2624  156.2571 H   0  0  0  0  0  0  0  0  0  0  0  0  # atno 8008 bound_to 7997
  154.9825  140.0389  157.2302 H   0  0  0  0  0  0  0  0  0  0  0  0  # atno 8009 bound_to 7997
  154.7759  140.2786  155.6106 H   0  0  0  0  0  0  0  0  0  0  0  0  # atno 8010 bound_to 7997
  139.6373  144.0326  152.2064 H   0  0  0  0  0  0  0  0  0  0  0  0  # atno 10167 bound_to 10162
  156.3111  130.7482  151.1558 H   0  0  0  0  0  0  0  0  0  0  0  0  # atno 10718 bound_to 10713
  153.2931  135.4137  155.1185 H   0  0  0  0  0  0  0  0  0  0  0  0  # atno 10763 bound_to 10752
  154.8526  135.3523  154.5954 H   0  0  0  0  0  0  0  0  0  0  0  0  # atno 10764 bound_to 10752
  153.6377  135.7058  153.5311 H   0  0  0  0  0  0  0  0  0  0  0  0  # atno 10765 bound_to 10752
  139.9780  134.6791  156.0317 H   0  0  0  0  0  0  0  0  0  0  0  0  # atno 11005 bound_to 11000
  145.5331  141.0426  143.2372 LP  0  0  0  0  0  0  0  0  0  0  0  0  # atno 17320 bound_to 7965
  144.7658  139.6848  143.7215 LP  0  0  0  0  0  0  0  0  0  0  0  0  # atno 17321 bound_to 7965
  140.0007  144.6295  150.7732 LP  0  0  0  0  0  0  0  0  0  0  0  0  # atno 17342 bound_to 10162
  140.7472  143.2902  151.3351 LP  0  0  0  0  0  0  0  0  0  0  0  0  # atno 17343 bound_to 10162
  157.7391  131.0533  150.5253 LP  0  0  0  0  0  0  0  0  0  0  0  0  # atno 17370 bound_to 10713
  156.5392  130.4204  149.6162 LP  0  0  0  0  0  0  0  0  0  0  0  0  # atno 17371 bound_to 10713
  141.1455  133.6557  156.3854 LP  0  0  0  0  0  0  0  0  0  0  0  0  # atno 17394 bound_to 11000
  140.5155  134.6354  157.5300 LP  0  0  0  0  0  0  0  0  0  0  0  0  # atno 17395 bound_to 11000

$$$$
