AV-unprocessed.smi:110|AV-procd|sdf|1072|dock6
  -GOLD-   2262018153D 1   1.00000     0.00000
 Structure written by MMmdl.
 46 50  0  0  0  0  0  0  0  0  1 V2000
  145.3252  141.7887  154.5085 O   0  0  0  0  0  0  0  0  0  0  0  0
  146.6035  142.2069  154.0769 C   0  0  0  0  0  0  0  0  0  0  0  0
  147.7295  141.3428  154.6723 C   0  0  2  0  0  0  0  0  0  0  0  0
  148.9827  141.6733  154.0944 O   0  0  0  0  0  0  0  0  0  0  0  0
  149.8898  140.6521  154.3750 C   0  0  1  0  0  0  0  0  0  0  0  0
  150.6344  141.0013  155.6285 N   0  0  0  0  0  0  0  0  0  0  0  0
  150.8124  142.2267  156.2349 C   0  0  0  0  0  0  0  0  0  0  0  0
  151.5301  142.2092  157.3253 N   0  0  0  0  0  0  0  0  0  0  0  0
  151.9103  140.8798  157.4668 C   0  0  0  0  0  0  0  0  0  0  0  0
  152.6894  140.1545  158.4134 C   0  0  0  0  0  0  0  0  0  0  0  0
  153.2851  140.6981  159.5005 N   0  0  0  0  0  0  0  0  0  0  0  0
  154.3391  139.9450  160.1953 C   0  0  0  0  0  0  0  0  0  0  0  0
  154.4910  140.5494  161.6038 C   0  0  0  0  0  0  0  0  0  0  0  0
  153.5574  141.7133  161.5164 C   0  0  0  0  0  0  0  0  0  0  0  0
  153.3317  142.6989  162.4928 C   0  0  0  0  0  0  0  0  0  0  0  0
  152.4203  143.7341  162.1944 C   0  0  0  0  0  0  0  0  0  0  0  0
  151.7670  143.7718  160.9406 C   0  0  0  0  0  0  0  0  0  0  0  0
  152.0108  142.7714  159.9739 C   0  0  0  0  0  0  0  0  0  0  0  0
  152.9060  141.7275  160.2869 C   0  0  0  0  0  0  0  0  0  0  0  0
  152.8003  138.8126  158.2389 N   0  0  0  0  0  0  0  0  0  0  0  0
  152.2260  138.2211  157.1881 C   0  0  0  0  0  0  0  0  0  0  0  0
  151.4934  138.7716  156.2185 N   0  0  0  0  0  0  0  0  0  0  0  0
  151.3491  140.1154  156.4056 C   0  0  0  0  0  0  0  0  0  0  0  0
  149.0731  139.3570  154.5807 C   0  0  2  0  0  0  0  0  0  0  0  0
  149.3510  138.4086  153.5707 O   0  0  0  0  0  0  0  0  0  0  0  0
  147.6188  139.8240  154.4948 C   0  0  1  0  0  0  0  0  0  0  0  0
  146.8513  139.2695  155.5449 O   0  0  0  0  0  0  0  0  0  0  0  0
  147.8052  141.5738  155.7366 H   0  0  0  0  0  0  0  0  0  0  0  0
  150.6671  140.5875  153.6121 H   0  0  0  0  0  0  0  0  0  0  0  0
  149.2987  138.9197  155.5549 H   0  0  0  0  0  0  0  0  0  0  0  0
  147.1854  139.5617  153.5291 H   0  0  0  0  0  0  0  0  0  0  0  0
  144.9468  141.2378  153.8403 H   0  0  0  0  0  0  0  0  0  0  0  0
  146.6446  142.1906  152.9874 H   0  0  0  0  0  0  0  0  0  0  0  0
  146.7363  143.2443  154.3851 H   0  0  0  0  0  0  0  0  0  0  0  0
  150.3906  143.1437  155.8505 H   0  0  0  0  0  0  0  0  0  0  0  0
  154.0900  138.8842  160.2491 H   0  0  0  0  0  0  0  0  0  0  0  0
  155.2715  140.0412  159.6376 H   0  0  0  0  0  0  0  0  0  0  0  0
  154.1647  139.8588  162.3819 H   0  0  0  0  0  0  0  0  0  0  0  0
  155.5116  140.8727  161.8088 H   0  0  0  0  0  0  0  0  0  0  0  0
  153.8456  142.6681  163.4423 H   0  0  0  0  0  0  0  0  0  0  0  0
  152.2273  144.5064  162.9241 H   0  0  0  0  0  0  0  0  0  0  0  0
  151.0801  144.5749  160.7183 H   0  0  0  0  0  0  0  0  0  0  0  0
  151.5207  142.8168  159.0129 H   0  0  0  0  0  0  0  0  0  0  0  0
  152.3722  137.1535  157.1158 H   0  0  0  0  0  0  0  0  0  0  0  0
  149.4777  138.8703  152.7559 H   0  0  0  0  0  0  0  0  0  0  0  0
  146.4060  139.9721  155.9929 H   0  0  0  0  0  0  0  0  0  0  0  0
  1  2  1  0  0  0  0
  1 32  1  0  0  0  0
  2  3  1  0  0  0  0
  2 33  1  0  0  0  0
  2 34  1  0  0  0  0
  3 28  1  0  0  0  0
  3 26  1  0  0  0  0
  3  4  1  0  0  0  0
  4  5  1  0  0  0  0
  5 29  1  0  0  0  0
  5  6  1  0  0  0  0
  5 24  1  0  0  0  0
  6 23  1  0  0  0  0
  6  7  1  0  0  0  0
  7  8  2  0  0  0  0
  7 35  1  0  0  0  0
  8  9  1  0  0  0  0
  9 23  2  0  0  0  0
  9 10  1  0  0  0  0
 10 11  1  0  0  0  0
 10 20  2  0  0  0  0
 11 19  1  0  0  0  0
 11 12  1  0  0  0  0
 12 13  1  0  0  0  0
 12 36  1  0  0  0  0
 12 37  1  0  0  0  0
 13 14  1  0  0  0  0
 13 38  1  0  0  0  0
 13 39  1  0  0  0  0
 14 19  2  0  0  0  0
 14 15  1  0  0  0  0
 15 16  2  0  0  0  0
 15 40  1  0  0  0  0
 16 17  1  0  0  0  0
 16 41  1  0  0  0  0
 17 18  2  0  0  0  0
 17 42  1  0  0  0  0
 18 19  1  0  0  0  0
 18 43  1  0  0  0  0
 20 21  1  0  0  0  0
 21 22  2  0  0  0  0
 21 44  1  0  0  0  0
 22 23  1  0  0  0  0
 24 30  1  0  0  0  0
 24 25  1  0  0  0  0
 24 26  1  0  0  0  0
 25 45  1  0  0  0  0
 26 31  1  0  0  0  0
 26 27  1  0  0  0  0
 27 46  1  0  0  0  0
M  END
> <s_m_source_file>
AV-unprocessed.smi

> <i_m_source_file_index>
110

> <i_lp_mmshare_version>
43012

> <i_f3d_flags>
0

> <s_epik_input>
W09IXVtDSDJdW0NASF0xT1tDQEhdKFtDQEhdKFtPSF0pW0NAQEhdMVtPSF0pbihbY0hdbjIpYyhjMjMpbltjSF1uYzNOKFtDSDJdW0NIMl00KWMoYzQ1KVtjSF1bY0hdW2NIXVtjSF01

> <s_epik_cmdline>
J2VwaWtfcHl0aG9uJywgJy1waCcsICc3LjAnLCAnLXRuJywgJzgnLCAnLW1hJywgJzIwMCcsICctbWV0YWxfYmluZGluZycsICctaW1hZScsICc8aW5maWxlLm1hZT4nLCAnLW9tYWUnLCAnPG91dGZpbGUubWFlPic=

> <r_lp_tautomer_probability>
1

> <r_epik_Ionization_Penalty>
0.00068475

> <r_epik_Ionization_Penalty_Charging>
0

> <r_epik_Ionization_Penalty_Neutral>
0.00068475

> <r_epik_State_Penalty>
0.000417442

> <r_epik_Charging_Adjusted_Penalty>
0.000417442

> <i_epik_Tot_Q>
0

> <i_epik_Tot_abs_Q>
0

> <r_epik_Metal_State_Penalty>
-0

> <b_epik_Metal_Only>
0

> <s_epik_Chemistry_Notes>
This compound contains an acetal/aminal-like group ( X-CH(R)-Y where X, Y are N, S, or O) that may be acid/base labile, releasing an aldehyde.

> <s_lp_Force_Field>
OPLS_2005

> <r_lp_Energy>
55.1552

> <b_lp_Chiralities_Consistent>
1

> <s_lp_Variant>
AV-unprocessed.smi:110-10

> <Gold.Version>
5.8.1

> <Gold.Id.Protein>
6NUR|6NUR_protein|mol2

> <Gold.PLP.Fitness>
63.1204

> <Gold.PLP.PLP>
-53.9955

> <Gold.PLP.part.hbond>
-4.3006

> <Gold.PLP.part.metal>
0.0000

> <Gold.PLP.part.buried>
-2.3766

> <Gold.PLP.part.nonpolar>
-46.1828

> <Gold.PLP.part.repulsive>
0.2443

> <Gold.PLP.ligand.clash>
0.0042

> <Gold.PLP.ligand.torsion>
0.8017

> <Gold.PLP.Chemscore.Hbond>
2.5510

> <Gold.PLP.Chemscore.CHOScore>
1.0000

> <Gold.PLP.Chemscore.Metal>
0.0000

> <Gold.Chemscore.Hbonds>
donor molecule, donor type, donor heavy atom, donor atom, acceptor molecule, acceptor atom, score
      L1  H     1    32       P1 10175  1.00
      L1  H    25    45       P1  7957  1.00
      P1  H  8011  8017       L1     4  0.51
      L1  C     7    35       P1  8028  1.00

> <Gold.PLP.Chemscore.Internal.Correction>
0.0794

> <Gold.Rescore>
     Score         DG    S(hbond)    S(metal)    S(lipo)     H(rot)  DE(clash)    DE(int)     intcor
     11.76     -15.68       1.89        0.00     107.16       3.38       0.19       3.72       ----

> <Gold.Chemscore.Fitness>
11.7645

> <Gold.Chemscore.DG>
-15.6752

> <Gold.Chemscore.ZeroCoef>
-5.4800

> <Gold.Chemscore.Hbond>
1.8921

> <Gold.Chemscore.Metal>
0.0000

> <Gold.Chemscore.Lipo>
107.1612

> <Gold.Chemscore.Internal_Hbond>
0.0000

> <Gold.Chemscore.DEClash>
0.1901

> <Gold.Chemscore.DEInternal>
3.7206

> <Gold.Chemscore.Rot>
3.3837

> <Gold.Chemscore.Internal.Correction>
   9.000000E+99

> <Gold.Chemscore.Hbonds>
donor molecule, donor type, donor heavy atom, donor atom, acceptor molecule, acceptor atom, score
      L1  H     1    32       P1 10175  0.53
      L1  H    25    45       P1  7957  0.91
      P1  H  8011  8017       L1     4  0.15

> <Gold.Chemscore.Hbond.Weighted>
-6.3195

> <Gold.Chemscore.Metal.Weighted>
-0.0000

> <Gold.Chemscore.Lipo.Weighted>
-12.5379

> <Gold.Chemscore.Internal_Hbond.Weighted>
0.0000

> <Gold.Chemscore.DEClash.Weighted>
0.1901

> <Gold.Chemscore.DEInternal.Weighted>
3.7206

> <Gold.Chemscore.Rot.Weighted>
8.6622

> <Gold.Chemscore.Internal.Correction.Weighted>
   9.000000E+99

> <Gold.Protein.RotatedTorsions>
[ 6907 6896 6895 6894 ] final    1.18 input  -60.11 | X-H torsion
[ 7974 7965 7964 7962 ] final   89.77 input  175.53 | X-H torsion
[ 8008 7997 7996 7995 ] final   99.90 input   59.86 | X-H torsion
[ 10167 10162 10161 10158 ] final  -37.57 input  -65.29 | X-H torsion
[ 10718 10713 10712 10709 ] final  -17.47 input   66.30 | X-H torsion
[ 10763 10752 10751 10750 ] final  -80.66 input  -60.55 | X-H torsion
[ 11005 11000 10999 10996 ] final   85.75 input  -57.11 | X-H torsion

> <Gold.Protein.ActiveResidues>
 VAL166  LYS551  ARG553  GLY616  TRP617  ASP618  TYR619  PRO620  LYS621  CYS622 
 ASP623  PHE694  ASN695  SER759  ASP760  ASP761  ALA762  ILE779  LEU786  VAL792 
 PHE793  MET794  SER795  GLU796  ALA797  LYS798  CYS799  TRP800  GLU811  SER814 

> <Gold.Protein.RotatedAtoms>
  151.5884  135.1055  160.0033 H   0  0  0  0  0  0  0  0  0  0  0  0  # atno 6907 bound_to 6896
  152.4318  133.7287  159.6586 H   0  0  0  0  0  0  0  0  0  0  0  0  # atno 6908 bound_to 6896
  150.8212  133.8179  159.3161 H   0  0  0  0  0  0  0  0  0  0  0  0  # atno 6909 bound_to 6896
  145.5279  139.2282  143.2635 H   0  0  0  0  0  0  0  0  0  0  0  0  # atno 7974 bound_to 7965
  156.1151  140.3221  155.8128 H   0  0  0  0  0  0  0  0  0  0  0  0  # atno 8008 bound_to 7997
  155.4604  140.0539  157.3008 H   0  0  0  0  0  0  0  0  0  0  0  0  # atno 8009 bound_to 7997
  154.4787  140.2043  155.9829 H   0  0  0  0  0  0  0  0  0  0  0  0  # atno 8010 bound_to 7997
  140.7115  143.3333  151.2520 H   0  0  0  0  0  0  0  0  0  0  0  0  # atno 10167 bound_to 10162
  156.5730  130.4754  149.6354 H   0  0  0  0  0  0  0  0  0  0  0  0  # atno 10718 bound_to 10713
  154.5540  135.5653  153.6947 H   0  0  0  0  0  0  0  0  0  0  0  0  # atno 10763 bound_to 10752
  152.9998  135.6257  154.2336 H   0  0  0  0  0  0  0  0  0  0  0  0  # atno 10764 bound_to 10752
  154.2271  135.2867  155.2883 H   0  0  0  0  0  0  0  0  0  0  0  0  # atno 10765 bound_to 10752
  139.8963  134.8308  156.2625 H   0  0  0  0  0  0  0  0  0  0  0  0  # atno 11005 bound_to 11000
  146.2063  140.6094  142.9079 LP  0  0  0  0  0  0  0  0  0  0  0  0  # atno 17320 bound_to 7965
  144.7641  140.5490  143.6715 LP  0  0  0  0  0  0  0  0  0  0  0  0  # atno 17321 bound_to 7965
  139.6821  143.9836  152.2814 LP  0  0  0  0  0  0  0  0  0  0  0  0  # atno 17342 bound_to 10162
  139.9470  144.6645  150.8210 LP  0  0  0  0  0  0  0  0  0  0  0  0  # atno 17343 bound_to 10162
  156.2698  130.7010  151.1804 LP  0  0  0  0  0  0  0  0  0  0  0  0  # atno 17370 bound_to 10713
  157.7344  131.0582  150.5527 LP  0  0  0  0  0  0  0  0  0  0  0  0  # atno 17371 bound_to 10713
  141.0153  133.7072  156.1179 LP  0  0  0  0  0  0  0  0  0  0  0  0  # atno 17394 bound_to 11000
  140.7310  134.4255  157.5566 LP  0  0  0  0  0  0  0  0  0  0  0  0  # atno 17395 bound_to 11000

$$$$
