AV-unprocessed.smi:2944|AV-procd|sdf|11275|dock5
  -GOLD-   2272016163D 1   1.00000     0.00000
 Structure written by MMmdl.
 45 47  0  0  0  0  0  0  0  0  2 V2000
  155.8786  139.8782  159.8267 C   0  0  0  0  0  0  0  0  0  0  0  0
  154.6118  139.8250  159.1955 O   0  0  0  0  0  0  0  0  0  0  0  0
  153.6865  140.7405  159.7584 C   0  0  0  0  0  0  0  0  0  0  0  0
  152.3027  140.5592  159.1182 C   0  0  0  0  0  0  0  0  0  0  0  0
  151.7820  141.8110  158.5483 N   0  0  0  0  0  0  0  0  0  0  0  0
  151.2049  142.0565  157.3393 C   0  0  0  0  0  0  0  0  0  0  0  0
  150.9019  140.8863  156.0581 S   0  0  0  0  0  0  0  0  0  0  0  0
  149.2051  141.2451  155.5119 C   0  0  1  0  0  0  0  0  0  0  0  0
  148.7983  140.2843  154.3854 C   0  0  0  0  0  0  0  0  0  0  0  0
  148.2042  141.1660  156.6852 C   0  0  0  0  0  0  0  0  0  0  0  0
  148.5774  140.5802  157.7039 O   0  0  0  0  0  0  0  0  0  0  0  0
  146.9770  141.7530  156.6373 N   0  0  0  0  0  0  0  0  0  0  0  0
  146.4647  142.3024  155.3807 C   0  0  0  0  0  0  0  0  0  0  0  0
  145.0712  142.8109  155.7272 C   0  0  0  0  0  0  0  0  0  0  0  0
  144.9982  142.5374  157.1404 N   0  0  0  0  0  0  0  0  0  0  0  0
  146.0943  141.9648  157.6436 C   0  0  0  0  0  0  0  0  0  0  0  0
  146.2251  141.7081  158.8396 O   0  0  0  0  0  0  0  0  0  0  0  0
  150.8809  143.3772  157.2925 N   0  3  0  0  0  0  0  0  0  0  0  0
  151.2566  143.9905  158.4885 C   0  0  0  0  0  0  0  0  0  0  0  0
  151.1372  145.3112  158.9100 C   0  0  0  0  0  0  0  0  0  0  0  0
  151.6193  145.6095  160.2013 C   0  0  0  0  0  0  0  0  0  0  0  0
  152.1895  144.6134  161.0204 C   0  0  0  0  0  0  0  0  0  0  0  0
  152.3055  143.2777  160.5824 C   0  0  0  0  0  0  0  0  0  0  0  0
  151.8317  142.9907  159.3021 C   0  0  0  0  0  0  0  0  0  0  0  0
  156.5461  139.1467  159.3713 H   0  0  0  0  0  0  0  0  0  0  0  0
  155.8010  139.6487  160.8901 H   0  0  0  0  0  0  0  0  0  0  0  0
  156.3329  140.8628  159.7125 H   0  0  0  0  0  0  0  0  0  0  0  0
  153.6204  140.5905  160.8368 H   0  0  0  0  0  0  0  0  0  0  0  0
  154.0328  141.7598  159.5962 H   0  0  0  0  0  0  0  0  0  0  0  0
  152.3284  139.7944  158.3422 H   0  0  0  0  0  0  0  0  0  0  0  0
  151.5888  140.2116  159.8656 H   0  0  0  0  0  0  0  0  0  0  0  0
  149.2665  142.2539  155.1130 H   0  0  0  0  0  0  0  0  0  0  0  0
  147.7981  140.5101  154.0134 H   0  0  0  0  0  0  0  0  0  0  0  0
  148.8019  139.2474  154.7236 H   0  0  0  0  0  0  0  0  0  0  0  0
  149.4847  140.3602  153.5418 H   0  0  0  0  0  0  0  0  0  0  0  0
  147.1005  143.1161  155.0265 H   0  0  0  0  0  0  0  0  0  0  0  0
  146.4212  141.5357  154.6052 H   0  0  0  0  0  0  0  0  0  0  0  0
  144.9610  143.8781  155.5316 H   0  0  0  0  0  0  0  0  0  0  0  0
  144.2916  142.2676  155.1921 H   0  0  0  0  0  0  0  0  0  0  0  0
  144.1979  142.7998  157.6980 H   0  0  0  0  0  0  0  0  0  0  0  0
  150.6978  146.0757  158.2859 H   0  0  0  0  0  0  0  0  0  0  0  0
  151.5484  146.6219  160.5721 H   0  0  0  0  0  0  0  0  0  0  0  0
  152.5449  144.8789  162.0055 H   0  0  0  0  0  0  0  0  0  0  0  0
  152.7387  142.5228  161.2216 H   0  0  0  0  0  0  0  0  0  0  0  0
  150.4354  143.8223  156.5005 H   0  0  0  0  0  0  0  0  0  0  0  0
  1  2  1  0  0  0  0
  1 25  1  0  0  0  0
  1 26  1  0  0  0  0
  1 27  1  0  0  0  0
  2  3  1  0  0  0  0
  3  4  1  0  0  0  0
  3 28  1  0  0  0  0
  3 29  1  0  0  0  0
  4  5  1  0  0  0  0
  4 30  1  0  0  0  0
  4 31  1  0  0  0  0
  5 24  1  0  0  0  0
  5  6  1  0  0  0  0
  6  7  1  0  0  0  0
  6 18  2  0  0  0  0
  7  8  1  0  0  0  0
  8  9  1  0  0  0  0
  8 10  1  0  0  0  0
  8 32  1  0  0  0  0
  9 33  1  0  0  0  0
  9 34  1  0  0  0  0
  9 35  1  0  0  0  0
 10 11  2  0  0  0  0
 10 12  1  0  0  0  0
 12 16  1  0  0  0  0
 12 13  1  0  0  0  0
 13 14  1  0  0  0  0
 13 36  1  0  0  0  0
 13 37  1  0  0  0  0
 14 15  1  0  0  0  0
 14 38  1  0  0  0  0
 14 39  1  0  0  0  0
 15 16  1  0  0  0  0
 15 40  1  0  0  0  0
 16 17  2  0  0  0  0
 18 19  1  0  0  0  0
 18 45  1  0  0  0  0
 19 24  2  0  0  0  0
 19 20  1  0  0  0  0
 20 21  2  0  0  0  0
 20 41  1  0  0  0  0
 21 22  1  0  0  0  0
 21 42  1  0  0  0  0
 22 23  2  0  0  0  0
 22 43  1  0  0  0  0
 23 24  1  0  0  0  0
 23 44  1  0  0  0  0
M  CHG  1  18   1
M  END
> <s_m_source_file>
AV-unprocessed.smi

> <i_m_source_file_index>
2944

> <i_lp_mmshare_version>
43012

> <i_f3d_flags>
0

> <s_epik_input>
W2NIXTFbY0hdW2NIXVtjSF1jKGMxMiluKFtDSDJdW0NIMl1PW0NIM10pYyhuMilTW0NASF0oW0NIM10pQyg9TylOM1tDSDJdW0NIMl1bTkhdQzM9Tw==

> <s_epik_cmdline>
J2VwaWtfcHl0aG9uJywgJy1waCcsICc3LjAnLCAnLXRuJywgJzgnLCAnLW1hJywgJzIwMCcsICctbWV0YWxfYmluZGluZycsICctaW1hZScsICc8aW5maWxlLm1hZT4nLCAnLW9tYWUnLCAnPG91dGZpbGUubWFlPic=

> <r_lp_tautomer_probability>
0.9999

> <r_epik_Ionization_Penalty>
1.88808

> <r_epik_Ionization_Penalty_Charging>
1.88806

> <r_epik_Ionization_Penalty_Neutral>
2.68145e-05

> <r_epik_State_Penalty>
2.00836

> <r_epik_Charging_Adjusted_Penalty>
3.89641

> <i_epik_Tot_Q>
1

> <i_epik_Tot_abs_Q>
1

> <r_epik_Metal_State_Penalty>
2.03272

> <b_epik_Metal_Only>
0

> <s_lp_Force_Field>
OPLS_2005

> <r_lp_Energy>
44.4651

> <b_lp_Chiralities_Consistent>
1

> <s_lp_Variant>
AV-unprocessed.smi:2944-4

> <Gold.Version>
5.8.1

> <Gold.Id.Protein>
6NUR|6NUR_protein|mol2

> <Gold.PLP.Fitness>
56.9084

> <Gold.PLP.PLP>
-47.7104

> <Gold.PLP.part.hbond>
-3.0000

> <Gold.PLP.part.metal>
0.0000

> <Gold.PLP.part.buried>
-8.0396

> <Gold.PLP.part.nonpolar>
-37.9904

> <Gold.PLP.part.repulsive>
0.0150

> <Gold.PLP.ligand.clash>
0.0000

> <Gold.PLP.ligand.torsion>
1.2153

> <Gold.PLP.Chemscore.Hbond>
3.8160

> <Gold.PLP.Chemscore.CHOScore>
0.0000

> <Gold.PLP.Chemscore.Metal>
0.0000

> <Gold.Chemscore.Hbonds>
donor molecule, donor type, donor heavy atom, donor atom, acceptor molecule, acceptor atom, score
      L1  H    18    45       P1  8028  2.00
      P1  H  6934  6946       L1    17  0.55
      P1  H  7997  8008       L1     2  1.00

> <Gold.PLP.Chemscore.Internal.Correction>
0.1807

> <Gold.Rescore>
     Score         DG    S(hbond)    S(metal)    S(lipo)     H(rot)  DE(clash)    DE(int)     intcor
     18.68     -21.46       2.36        0.00     119.52       2.30       0.13       2.65       ----

> <Gold.Chemscore.Fitness>
18.6844

> <Gold.Chemscore.DG>
-21.4623

> <Gold.Chemscore.ZeroCoef>
-5.4800

> <Gold.Chemscore.Hbond>
2.3605

> <Gold.Chemscore.Metal>
0.0000

> <Gold.Chemscore.Lipo>
119.5162

> <Gold.Chemscore.Internal_Hbond>
0.0000

> <Gold.Chemscore.DEClash>
0.1322

> <Gold.Chemscore.DEInternal>
2.6457

> <Gold.Chemscore.Rot>
2.2988

> <Gold.Chemscore.Internal.Correction>
   9.000000E+99

> <Gold.Chemscore.Hbonds>
donor molecule, donor type, donor heavy atom, donor atom, acceptor molecule, acceptor atom, score
      L1  H    18    45       P1  8028  0.94
      P1  H  6934  6946       L1    17  0.55
      P1  H  7997  8008       L1     2  0.37

> <Gold.Chemscore.Hbond.Weighted>
-7.8839

> <Gold.Chemscore.Metal.Weighted>
-0.0000

> <Gold.Chemscore.Lipo.Weighted>
-13.9834

> <Gold.Chemscore.Internal_Hbond.Weighted>
0.0000

> <Gold.Chemscore.DEClash.Weighted>
0.1322

> <Gold.Chemscore.DEInternal.Weighted>
2.6457

> <Gold.Chemscore.Rot.Weighted>
5.8850

> <Gold.Chemscore.Internal.Correction.Weighted>
   9.000000E+99

> <Gold.Protein.RotatedTorsions>
[ 6907 6896 6895 6894 ] final  -88.77 input  -60.11 | X-H torsion
[ 7974 7965 7964 7962 ] final  -61.55 input  175.53 | X-H torsion
[ 8008 7997 7996 7995 ] final -116.71 input   59.86 | X-H torsion
[ 10167 10162 10161 10158 ] final   12.15 input  -65.29 | X-H torsion
[ 10718 10713 10712 10709 ] final -118.65 input   66.30 | X-H torsion
[ 10763 10752 10751 10750 ] final  -93.79 input  -60.55 | X-H torsion
[ 11005 11000 10999 10996 ] final  -58.18 input  -57.11 | X-H torsion

> <Gold.Protein.ActiveResidues>
 VAL166  LYS551  ARG553  GLY616  TRP617  ASP618  TYR619  PRO620  LYS621  CYS622 
 ASP623  PHE694  ASN695  SER759  ASP760  ASP761  ALA762  ILE779  LEU786  VAL792 
 PHE793  MET794  SER795  GLU796  ALA797  LYS798  CYS799  TRP800  GLU811  SER814 

> <Gold.Protein.RotatedAtoms>
  150.6870  134.2691  159.4580 H   0  0  0  0  0  0  0  0  0  0  0  0  # atno 6907 bound_to 6896
  152.0614  134.9589  160.0584 H   0  0  0  0  0  0  0  0  0  0  0  0  # atno 6908 bound_to 6896
  152.1014  133.4217  159.4626 H   0  0  0  0  0  0  0  0  0  0  0  0  # atno 6909 bound_to 6896
  145.8021  140.8649  143.0226 H   0  0  0  0  0  0  0  0  0  0  0  0  # atno 7974 bound_to 7965
  155.0722  140.0393  157.2612 H   0  0  0  0  0  0  0  0  0  0  0  0  # atno 8008 bound_to 7997
  154.6973  140.2666  155.6729 H   0  0  0  0  0  0  0  0  0  0  0  0  # atno 8009 bound_to 7997
  156.2749  140.2747  156.1572 H   0  0  0  0  0  0  0  0  0  0  0  0  # atno 8010 bound_to 7997
  140.6087  143.8454  150.7041 H   0  0  0  0  0  0  0  0  0  0  0  0  # atno 10167 bound_to 10162
  156.1122  130.6258  150.9317 H   0  0  0  0  0  0  0  0  0  0  0  0  # atno 10718 bound_to 10713
  154.6993  135.5181  153.8503 H   0  0  0  0  0  0  0  0  0  0  0  0  # atno 10763 bound_to 10752
  153.0691  135.6595  154.0297 H   0  0  0  0  0  0  0  0  0  0  0  0  # atno 10764 bound_to 10752
  154.0158  135.2998  155.3366 H   0  0  0  0  0  0  0  0  0  0  0  0  # atno 10765 bound_to 10752
  141.1196  133.6611  156.4881 H   0  0  0  0  0  0  0  0  0  0  0  0  # atno 11005 bound_to 11000
  144.6767  140.0274  143.7483 LP  0  0  0  0  0  0  0  0  0  0  0  0  # atno 17320 bound_to 7965
  145.9866  139.2982  143.1010 LP  0  0  0  0  0  0  0  0  0  0  0  0  # atno 17321 bound_to 7965
  140.2017  143.3954  152.1786 LP  0  0  0  0  0  0  0  0  0  0  0  0  # atno 17342 bound_to 10162
  139.5344  144.7194  151.4943 LP  0  0  0  0  0  0  0  0  0  0  0  0  # atno 17343 bound_to 10162
  157.6304  131.0921  150.8453 LP  0  0  0  0  0  0  0  0  0  0  0  0  # atno 17370 bound_to 10713
  156.8562  130.5097  149.5307 LP  0  0  0  0  0  0  0  0  0  0  0  0  # atno 17371 bound_to 10713
  140.4545  134.6898  157.5056 LP  0  0  0  0  0  0  0  0  0  0  0  0  # atno 17394 bound_to 11000
  140.0144  134.6642  155.9332 LP  0  0  0  0  0  0  0  0  0  0  0  0  # atno 17395 bound_to 11000

$$$$
