AV-unprocessed.smi:753|AV-procd|sdf|3602|dock3
  -GOLD-   22720 0593D 1   1.00000     0.00000
 Structure written by MMmdl.
 43 45  0  0  0  0  0  0  0  0  1 V2000
  143.1908  146.4495  154.9142 C   0  0  0  0  0  0  0  0  0  0  0  0
  144.1166  145.2908  154.6081 C   0  0  0  0  0  0  0  0  0  0  0  0
  144.6375  145.1029  153.3104 C   0  0  0  0  0  0  0  0  0  0  0  0
  145.4935  144.0078  153.0838 C   0  0  0  0  0  0  0  0  0  0  0  0
  145.7942  143.1467  154.1588 C   0  0  0  0  0  0  0  0  0  0  0  0
  146.7039  141.9501  153.9663 C   0  0  0  0  0  0  0  0  0  0  0  0
  147.2741  141.4396  155.2989 C   0  0  0  0  0  0  0  0  0  0  0  0
  148.3210  142.3202  155.8005 N   0  0  0  0  0  0  0  0  0  0  0  0
  149.3810  141.9237  156.5247 C   0  0  0  0  0  0  0  0  0  0  0  0
  149.5722  140.7575  156.8639 O   0  0  0  0  0  0  0  0  0  0  0  0
  150.2344  142.9085  156.8572 N   0  0  0  0  0  0  0  0  0  0  0  0
  151.4724  142.8058  157.6338 C   0  0  1  0  0  0  0  0  0  0  0  0
  152.2431  144.1441  157.6614 C   0  0  0  0  0  0  0  0  0  0  0  0
  152.3685  144.4386  159.1680 C   0  0  2  0  0  0  0  0  0  0  0  0
  153.3343  143.4259  159.8133 C   0  0  0  0  0  0  0  0  0  0  0  0
  152.5148  142.1202  159.8095 C   0  0  0  0  0  0  0  0  0  0  0  0
  151.1996  142.5528  159.1363 C   0  0  1  0  0  0  0  0  0  0  0  0
  151.0203  143.9629  159.6905 C   0  0  0  0  0  0  0  0  0  0  0  0
  145.2201  143.4228  155.4175 C   0  0  0  0  0  0  0  0  0  0  0  0
  144.3985  144.4701  155.6442 N   0  0  0  0  0  0  0  0  0  0  0  0
  143.0484  147.0835  154.0388 H   0  0  0  0  0  0  0  0  0  0  0  0
  143.6035  147.0637  155.7151 H   0  0  0  0  0  0  0  0  0  0  0  0
  142.2147  146.0807  155.2304 H   0  0  0  0  0  0  0  0  0  0  0  0
  144.3885  145.7790  152.5057 H   0  0  0  0  0  0  0  0  0  0  0  0
  145.9085  143.8332  152.1019 H   0  0  0  0  0  0  0  0  0  0  0  0
  146.1459  141.1578  153.4650 H   0  0  0  0  0  0  0  0  0  0  0  0
  147.5160  142.2279  153.2927 H   0  0  0  0  0  0  0  0  0  0  0  0
  146.4843  141.3935  156.0491 H   0  0  0  0  0  0  0  0  0  0  0  0
  147.6584  140.4239  155.1882 H   0  0  0  0  0  0  0  0  0  0  0  0
  148.2425  143.3000  155.5704 H   0  0  0  0  0  0  0  0  0  0  0  0
  149.9873  143.8380  156.5496 H   0  0  0  0  0  0  0  0  0  0  0  0
  152.1030  142.0225  157.2086 H   0  0  0  0  0  0  0  0  0  0  0  0
  153.2161  144.0705  157.1744 H   0  0  0  0  0  0  0  0  0  0  0  0
  151.6860  144.9399  157.1643 H   0  0  0  0  0  0  0  0  0  0  0  0
  152.6093  145.4780  159.3920 H   0  0  0  0  0  0  0  0  0  0  0  0
  154.2680  143.3334  159.2576 H   0  0  0  0  0  0  0  0  0  0  0  0
  153.5798  143.7198  160.8346 H   0  0  0  0  0  0  0  0  0  0  0  0
  153.0143  141.3139  159.2713 H   0  0  0  0  0  0  0  0  0  0  0  0
  152.3335  141.7792  160.8296 H   0  0  0  0  0  0  0  0  0  0  0  0
  150.3719  141.8716  159.3375 H   0  0  0  0  0  0  0  0  0  0  0  0
  150.9421  143.9944  160.7787 H   0  0  0  0  0  0  0  0  0  0  0  0
  150.1735  144.4965  159.2550 H   0  0  0  0  0  0  0  0  0  0  0  0
  145.4222  142.7844  156.2648 H   0  0  0  0  0  0  0  0  0  0  0  0
  1  2  1  0  0  0  0
  1 21  1  0  0  0  0
  1 22  1  0  0  0  0
  1 23  1  0  0  0  0
  2 20  1  0  0  0  0
  2  3  2  0  0  0  0
  3  4  1  0  0  0  0
  3 24  1  0  0  0  0
  4  5  2  0  0  0  0
  4 25  1  0  0  0  0
  5  6  1  0  0  0  0
  5 19  1  0  0  0  0
  6  7  1  0  0  0  0
  6 26  1  0  0  0  0
  6 27  1  0  0  0  0
  7  8  1  0  0  0  0
  7 28  1  0  0  0  0
  7 29  1  0  0  0  0
  8  9  1  0  0  0  0
  8 30  1  0  0  0  0
  9 10  2  0  0  0  0
  9 11  1  0  0  0  0
 11 12  1  0  0  0  0
 11 31  1  0  0  0  0
 12 17  1  0  0  0  0
 12 13  1  0  0  0  0
 12 32  1  0  0  0  0
 13 14  1  0  0  0  0
 13 33  1  0  0  0  0
 13 34  1  0  0  0  0
 14 18  1  0  0  0  0
 14 15  1  0  0  0  0
 14 35  1  0  0  0  0
 15 16  1  0  0  0  0
 15 36  1  0  0  0  0
 15 37  1  0  0  0  0
 16 17  1  0  0  0  0
 16 38  1  0  0  0  0
 16 39  1  0  0  0  0
 17 18  1  0  0  0  0
 17 40  1  0  0  0  0
 18 41  1  0  0  0  0
 18 42  1  0  0  0  0
 19 20  2  0  0  0  0
 19 43  1  0  0  0  0
M  END
> <s_m_source_file>
AV-unprocessed.smi

> <i_m_source_file_index>
753

> <i_lp_mmshare_version>
43012

> <i_f3d_flags>
0

> <s_epik_input>
W0NIM11jMVtjSF1bY0hdYyhbY0hdbjEpW0NIMl1bQ0gyXVtOSF1DKD1PKVtOSF1bQ0BIXShbQ0gyXVtDQEBIXTIzKVtDQEBIXShbQ0gyXTMpW0NIMl1bQ0gyXTI=

> <s_epik_cmdline>
J2VwaWtfcHl0aG9uJywgJy1waCcsICc3LjAnLCAnLXRuJywgJzgnLCAnLW1hJywgJzIwMCcsICctbWV0YWxfYmluZGluZycsICctaW1hZScsICc8aW5maWxlLm1hZT4nLCAnLW9tYWUnLCAnPG91dGZpbGUubWFlPic=

> <r_epik_Ionization_Penalty>
0.0569047

> <r_epik_Ionization_Penalty_Charging>
0

> <r_epik_Ionization_Penalty_Neutral>
0.0569047

> <r_epik_State_Penalty>
0.0490541

> <r_epik_Charging_Adjusted_Penalty>
0.0490541

> <i_epik_Tot_Q>
0

> <i_epik_Tot_abs_Q>
0

> <r_epik_Metal_State_Penalty>
0.0447357

> <b_epik_Metal_Only>
0

> <s_lp_Force_Field>
OPLS_2005

> <r_lp_Energy>
50.3887

> <b_lp_Chiralities_Consistent>
1

> <s_lp_Variant>
AV-unprocessed.smi:753-4

> <Gold.Version>
5.8.1

> <Gold.Id.Protein>
6NUR|6NUR_protein|mol2

> <Gold.PLP.Fitness>
50.3021

> <Gold.PLP.PLP>
-45.7641

> <Gold.PLP.part.hbond>
-1.7655

> <Gold.PLP.part.metal>
0.0000

> <Gold.PLP.part.buried>
-5.7686

> <Gold.PLP.part.nonpolar>
-38.0056

> <Gold.PLP.part.repulsive>
0.2971

> <Gold.PLP.ligand.clash>
0.0000

> <Gold.PLP.ligand.torsion>
0.5979

> <Gold.PLP.Chemscore.Hbond>
1.9040

> <Gold.PLP.Chemscore.CHOScore>
0.0000

> <Gold.PLP.Chemscore.Metal>
0.0000

> <Gold.Chemscore.Hbonds>
donor molecule, donor type, donor heavy atom, donor atom, acceptor molecule, acceptor atom, score
      L1  H     8    30       P1  8028  0.98
      L1  H    11    31       P1  8028  0.91

> <Gold.PLP.Chemscore.Internal.Correction>
0.0219

> <Gold.Rescore>
     Score         DG    S(hbond)    S(metal)    S(lipo)     H(rot)  DE(clash)    DE(int)     intcor
     22.48     -23.41       1.86        0.00     131.52       1.43       0.34       0.59       ----

> <Gold.Chemscore.Fitness>
22.4826

> <Gold.Chemscore.DG>
-23.4149

> <Gold.Chemscore.ZeroCoef>
-5.4800

> <Gold.Chemscore.Hbond>
1.8580

> <Gold.Chemscore.Metal>
0.0000

> <Gold.Chemscore.Lipo>
131.5186

> <Gold.Chemscore.Internal_Hbond>
0.0000

> <Gold.Chemscore.DEClash>
0.3375

> <Gold.Chemscore.DEInternal>
0.5949

> <Gold.Chemscore.Rot>
1.4291

> <Gold.Chemscore.Internal.Correction>
   9.000000E+99

> <Gold.Chemscore.Hbonds>
donor molecule, donor type, donor heavy atom, donor atom, acceptor molecule, acceptor atom, score
      L1  H     8    30       P1  8028  0.78
      L1  H    11    31       P1  8028  0.88

> <Gold.Chemscore.Hbond.Weighted>
-6.2058

> <Gold.Chemscore.Metal.Weighted>
-0.0000

> <Gold.Chemscore.Lipo.Weighted>
-15.3877

> <Gold.Chemscore.Internal_Hbond.Weighted>
0.0000

> <Gold.Chemscore.DEClash.Weighted>
0.3375

> <Gold.Chemscore.DEInternal.Weighted>
0.5949

> <Gold.Chemscore.Rot.Weighted>
3.6585

> <Gold.Chemscore.Internal.Correction.Weighted>
   9.000000E+99

> <Gold.Protein.RotatedTorsions>
[ 6907 6896 6895 6894 ] final   19.41 input  -60.11 | X-H torsion
[ 7974 7965 7964 7962 ] final  -53.05 input  175.53 | X-H torsion
[ 8008 7997 7996 7995 ] final  -45.45 input   59.86 | X-H torsion
[ 10167 10162 10161 10158 ] final   73.15 input  -65.29 | X-H torsion
[ 10718 10713 10712 10709 ] final  -29.07 input   66.30 | X-H torsion
[ 10763 10752 10751 10750 ] final -146.17 input  -60.55 | X-H torsion
[ 11005 11000 10999 10996 ] final   51.77 input  -57.11 | X-H torsion

> <Gold.Protein.ActiveResidues>
 VAL166  LYS551  ARG553  GLY616  TRP617  ASP618  TYR619  PRO620  LYS621  CYS622 
 ASP623  PHE694  ASN695  SER759  ASP760  ASP761  ALA762  ILE779  LEU786  VAL792 
 PHE793  MET794  SER795  GLU796  ALA797  LYS798  CYS799  TRP800  GLU811  SER814 

> <Gold.Protein.RotatedAtoms>
  151.8805  135.0455  160.0488 H   0  0  0  0  0  0  0  0  0  0  0  0  # atno 6907 bound_to 6896
  152.2516  133.5216  159.5337 H   0  0  0  0  0  0  0  0  0  0  0  0  # atno 6908 bound_to 6896
  150.7086  134.0868  159.3960 H   0  0  0  0  0  0  0  0  0  0  0  0  # atno 6909 bound_to 6896
  145.9011  140.7993  142.9742 H   0  0  0  0  0  0  0  0  0  0  0  0  # atno 7974 bound_to 7965
  154.4001  140.1396  156.3850 H   0  0  0  0  0  0  0  0  0  0  0  0  # atno 8008 bound_to 7997
  155.7968  140.3477  155.5359 H   0  0  0  0  0  0  0  0  0  0  0  0  # atno 8009 bound_to 7997
  155.8524  140.0943  157.1657 H   0  0  0  0  0  0  0  0  0  0  0  0  # atno 8010 bound_to 7997
  140.0276  144.5491  150.7532 H   0  0  0  0  0  0  0  0  0  0  0  0  # atno 10167 bound_to 10162
  156.4172  130.4419  149.7210 H   0  0  0  0  0  0  0  0  0  0  0  0  # atno 10718 bound_to 10713
  154.8349  135.3394  154.6619 H   0  0  0  0  0  0  0  0  0  0  0  0  # atno 10763 bound_to 10752
  153.7234  135.6956  153.5011 H   0  0  0  0  0  0  0  0  0  0  0  0  # atno 10764 bound_to 10752
  153.2364  135.4399  155.0604 H   0  0  0  0  0  0  0  0  0  0  0  0  # atno 10765 bound_to 10752
  140.0905  134.5216  155.8857 H   0  0  0  0  0  0  0  0  0  0  0  0  # atno 11005 bound_to 11000
  144.6736  140.1679  143.7417 LP  0  0  0  0  0  0  0  0  0  0  0  0  # atno 17320 bound_to 7965
  145.8789  139.2312  143.1617 LP  0  0  0  0  0  0  0  0  0  0  0  0  # atno 17321 bound_to 7965
  140.7316  143.2696  151.3931 LP  0  0  0  0  0  0  0  0  0  0  0  0  # atno 17342 bound_to 10162
  139.6098  144.1123  152.2286 LP  0  0  0  0  0  0  0  0  0  0  0  0  # atno 17343 bound_to 10162
  156.4165  130.7747  151.2763 LP  0  0  0  0  0  0  0  0  0  0  0  0  # atno 17370 bound_to 10713
  157.7508  131.0196  150.3672 LP  0  0  0  0  0  0  0  0  0  0  0  0  # atno 17371 bound_to 10713
  141.2076  133.6666  156.6317 LP  0  0  0  0  0  0  0  0  0  0  0  0  # atno 17394 bound_to 11000
  140.3359  134.7889  157.4361 LP  0  0  0  0  0  0  0  0  0  0  0  0  # atno 17395 bound_to 11000

$$$$
