AV-unprocessed.smi:25|AV-procd|sdf|182|dock6
  -GOLD-   2262015443D 1   1.00000     0.00000
 Structure written by MMmdl.
 47 50  0  0  0  0  0  0  0  0  1 V2000
  148.7499  133.6063  157.5799 C   0  0  0  0  0  0  0  0  0  0  0  0
  147.5871  134.4822  158.0896 C   0  0  1  0  0  0  0  0  0  0  0  0
  146.7654  133.7448  159.1701 C   0  0  0  0  0  0  0  0  0  0  0  0
  146.9392  134.6069  160.3812 C   0  0  0  0  0  0  0  0  0  0  0  0
  146.4273  134.3382  161.6622 C   0  0  0  0  0  0  0  0  0  0  0  0
  146.6878  135.2613  162.6939 C   0  0  0  0  0  0  0  0  0  0  0  0
  147.4461  136.4225  162.4299 C   0  0  0  0  0  0  0  0  0  0  0  0
  147.9530  136.6760  161.1365 C   0  0  0  0  0  0  0  0  0  0  0  0
  147.6920  135.7465  160.0998 C   0  0  0  0  0  0  0  0  0  0  0  0
  148.0658  135.7350  158.7206 N   0  0  0  0  0  0  0  0  0  0  0  0
  148.6340  136.7146  157.9644 C   0  0  0  0  0  0  0  0  0  0  0  0
  149.1387  137.7091  158.4914 O   0  0  0  0  0  0  0  0  0  0  0  0
  148.6920  136.6099  156.4285 C   0  0  0  0  0  0  0  0  0  0  0  0
  149.4984  137.6767  155.7902 N   0  0  0  0  0  0  0  0  0  0  0  0
  150.8485  137.4066  155.4555 C   0  0  0  0  0  0  0  0  0  0  0  0
  151.3636  136.3148  155.7005 O   0  0  0  0  0  0  0  0  0  0  0  0
  151.5649  138.4981  154.8067 C   0  0  0  0  0  0  0  0  0  0  0  0
  152.8293  138.3105  154.3918 F   0  0  0  0  0  0  0  0  0  0  0  0
  150.9724  139.6916  154.5985 C   0  0  0  0  0  0  0  0  0  0  0  0
  149.6779  139.9704  155.0002 N   0  0  0  0  0  0  0  0  0  0  0  0
  149.0124  141.2939  154.6826 C   0  0  1  0  0  0  0  0  0  0  0  0
  147.8431  141.1894  153.6874 C   0  0  0  0  0  0  0  0  0  0  0  0
  146.6358  141.3608  154.5882 C   0  0  0  0  0  0  0  0  0  0  0  0
  147.1887  142.2789  155.6712 C   0  0  0  0  0  0  0  0  0  0  0  0
  148.5145  141.8109  155.8805 O   0  0  0  0  0  0  0  0  0  0  0  0
  148.8927  138.9362  155.5584 C   0  0  0  0  0  0  0  0  0  0  0  0
  147.7093  139.1278  155.8477 O   0  0  0  0  0  0  0  0  0  0  0  0
  148.3773  132.6671  157.1707 H   0  0  0  0  0  0  0  0  0  0  0  0
  149.4430  133.3648  158.3866 H   0  0  0  0  0  0  0  0  0  0  0  0
  149.3192  134.0967  156.7905 H   0  0  0  0  0  0  0  0  0  0  0  0
  146.9261  134.7231  157.2548 H   0  0  0  0  0  0  0  0  0  0  0  0
  145.7096  133.6886  158.9027 H   0  0  0  0  0  0  0  0  0  0  0  0
  147.1277  132.7348  159.3661 H   0  0  0  0  0  0  0  0  0  0  0  0
  145.8492  133.4458  161.8516 H   0  0  0  0  0  0  0  0  0  0  0  0
  146.3075  135.0800  163.6883 H   0  0  0  0  0  0  0  0  0  0  0  0
  147.6418  137.1244  163.2272 H   0  0  0  0  0  0  0  0  0  0  0  0
  148.5244  137.5764  161.0047 H   0  0  0  0  0  0  0  0  0  0  0  0
  149.0779  135.6257  156.1627 H   0  0  0  0  0  0  0  0  0  0  0  0
  147.6759  136.6512  156.0357 H   0  0  0  0  0  0  0  0  0  0  0  0
  151.5505  140.4459  154.0893 H   0  0  0  0  0  0  0  0  0  0  0  0
  149.7934  141.9383  154.2763 H   0  0  0  0  0  0  0  0  0  0  0  0
  147.9103  142.0313  152.9970 H   0  0  0  0  0  0  0  0  0  0  0  0
  147.8531  140.2730  153.0974 H   0  0  0  0  0  0  0  0  0  0  0  0
  145.7739  141.7830  154.0714 H   0  0  0  0  0  0  0  0  0  0  0  0
  146.3385  140.4061  155.0226 H   0  0  0  0  0  0  0  0  0  0  0  0
  147.2251  143.3108  155.3187 H   0  0  0  0  0  0  0  0  0  0  0  0
  146.6031  142.2500  156.5900 H   0  0  0  0  0  0  0  0  0  0  0  0
  1  2  1  0  0  0  0
  1 28  1  0  0  0  0
  1 29  1  0  0  0  0
  1 30  1  0  0  0  0
  2 10  1  0  0  0  0
  2  3  1  0  0  0  0
  2 31  1  0  0  0  0
  3  4  1  0  0  0  0
  3 32  1  0  0  0  0
  3 33  1  0  0  0  0
  4  9  2  0  0  0  0
  4  5  1  0  0  0  0
  5  6  2  0  0  0  0
  5 34  1  0  0  0  0
  6  7  1  0  0  0  0
  6 35  1  0  0  0  0
  7  8  2  0  0  0  0
  7 36  1  0  0  0  0
  8  9  1  0  0  0  0
  8 37  1  0  0  0  0
  9 10  1  0  0  0  0
 10 11  1  0  0  0  0
 11 12  2  0  0  0  0
 11 13  1  0  0  0  0
 13 14  1  0  0  0  0
 13 38  1  0  0  0  0
 13 39  1  0  0  0  0
 14 26  1  0  0  0  0
 14 15  1  0  0  0  0
 15 16  2  0  0  0  0
 15 17  1  0  0  0  0
 17 18  1  0  0  0  0
 17 19  2  0  0  0  0
 19 20  1  0  0  0  0
 19 40  1  0  0  0  0
 20 21  1  0  0  0  0
 20 26  1  0  0  0  0
 21 25  1  0  0  0  0
 21 22  1  0  0  0  0
 21 41  1  0  0  0  0
 22 23  1  0  0  0  0
 22 42  1  0  0  0  0
 22 43  1  0  0  0  0
 23 24  1  0  0  0  0
 23 44  1  0  0  0  0
 23 45  1  0  0  0  0
 24 25  1  0  0  0  0
 24 46  1  0  0  0  0
 24 47  1  0  0  0  0
 26 27  2  0  0  0  0
M  END
> <s_m_source_file>
AV-unprocessed.smi

> <i_m_source_file_index>
25

> <i_lp_mmshare_version>
43012

> <i_f3d_flags>
0

> <s_epik_input>
W2NIXTFbY0hdW2NIXVtjSF1jKGMxMilOKFtDQEhdKFtDSDNdKVtDSDJdMilDKD1PKVtDSDJdbjNjKD1PKWMoRilbY0hdbihjMz1PKVtDQEBIXTRbQ0gyXVtDSDJdW0NIMl1PNA==

> <s_epik_cmdline>
J2VwaWtfcHl0aG9uJywgJy1waCcsICc3LjAnLCAnLXRuJywgJzgnLCAnLW1hJywgJzIwMCcsICctbWV0YWxfYmluZGluZycsICctaW1hZScsICc8aW5maWxlLm1hZT4nLCAnLW9tYWUnLCAnPG91dGZpbGUubWFlPic=

> <r_lp_tautomer_probability>
1

> <r_epik_Ionization_Penalty>
1.67943e-06

> <r_epik_Ionization_Penalty_Charging>
3.79603e-09

> <r_epik_Ionization_Penalty_Neutral>
1.67563e-06

> <r_epik_State_Penalty>
-0

> <r_epik_Charging_Adjusted_Penalty>
3.79603e-09

> <i_epik_Tot_Q>
0

> <i_epik_Tot_abs_Q>
0

> <r_epik_Metal_State_Penalty>
-0

> <b_epik_Metal_Only>
0

> <s_epik_Chemistry_Notes>
This compound contains an acetal/aminal-like group ( X-CH(R)-Y where X, Y are N, S, or O) that may be acid/base labile, releasing an aldehyde.

> <s_lp_Force_Field>
OPLS_2005

> <r_lp_Energy>
55.1146

> <b_lp_Chiralities_Consistent>
1

> <s_lp_Variant>
AV-unprocessed.smi:25-4

> <Gold.Version>
5.8.1

> <Gold.Id.Protein>
6NUR|6NUR_protein|mol2

> <Gold.PLP.Fitness>
43.8038

> <Gold.PLP.PLP>
-41.5981

> <Gold.PLP.part.hbond>
-1.0000

> <Gold.PLP.part.metal>
0.0000

> <Gold.PLP.part.buried>
-1.5783

> <Gold.PLP.part.nonpolar>
-39.3051

> <Gold.PLP.part.repulsive>
0.1652

> <Gold.PLP.ligand.clash>
0.0000

> <Gold.PLP.ligand.torsion>
0.4850

> <Gold.PLP.Chemscore.Hbond>
1.0000

> <Gold.PLP.Chemscore.CHOScore>
0.0000

> <Gold.PLP.Chemscore.Metal>
0.0000

> <Gold.Chemscore.Hbonds>
donor molecule, donor type, donor heavy atom, donor atom, acceptor molecule, acceptor atom, score
      P1  H 10752 10763       L1    16  1.00

> <Gold.PLP.Chemscore.Internal.Correction>
0.1758

> <Gold.Rescore>
     Score         DG    S(hbond)    S(metal)    S(lipo)     H(rot)  DE(clash)    DE(int)     intcor
      9.27     -14.32       0.99        0.00      81.17       1.55       0.06       4.99       ----

> <Gold.Chemscore.Fitness>
9.2702

> <Gold.Chemscore.DG>
-14.3159

> <Gold.Chemscore.ZeroCoef>
-5.4800

> <Gold.Chemscore.Hbond>
0.9892

> <Gold.Chemscore.Metal>
0.0000

> <Gold.Chemscore.Lipo>
81.1720

> <Gold.Chemscore.Internal_Hbond>
0.0000

> <Gold.Chemscore.DEClash>
0.0588

> <Gold.Chemscore.DEInternal>
4.9869

> <Gold.Chemscore.Rot>
1.5489

> <Gold.Chemscore.Internal.Correction>
   9.000000E+99

> <Gold.Chemscore.Hbonds>
donor molecule, donor type, donor heavy atom, donor atom, acceptor molecule, acceptor atom, score
      P1  H 10752 10763       L1    16  0.94

> <Gold.Chemscore.Hbond.Weighted>
-3.3039

> <Gold.Chemscore.Metal.Weighted>
-0.0000

> <Gold.Chemscore.Lipo.Weighted>
-9.4971

> <Gold.Chemscore.Internal_Hbond.Weighted>
0.0000

> <Gold.Chemscore.DEClash.Weighted>
0.0588

> <Gold.Chemscore.DEInternal.Weighted>
4.9869

> <Gold.Chemscore.Rot.Weighted>
3.9651

> <Gold.Chemscore.Internal.Correction.Weighted>
   9.000000E+99

> <Gold.Protein.RotatedTorsions>
[ 6907 6896 6895 6894 ] final  116.78 input  -60.11 | X-H torsion
[ 7974 7965 7964 7962 ] final -114.24 input  175.53 | X-H torsion
[ 8008 7997 7996 7995 ] final  103.14 input   59.86 | X-H torsion
[ 10167 10162 10161 10158 ] final -136.60 input  -65.29 | X-H torsion
[ 10718 10713 10712 10709 ] final   77.93 input   66.30 | X-H torsion
[ 10763 10752 10751 10750 ] final   77.17 input  -60.55 | X-H torsion
[ 11005 11000 10999 10996 ] final   92.17 input  -57.11 | X-H torsion

> <Gold.Protein.ActiveResidues>
 VAL166  LYS551  ARG553  GLY616  TRP617  ASP618  TYR619  PRO620  LYS621  CYS622 
 ASP623  PHE694  ASN695  SER759  ASP760  ASP761  ALA762  ILE779  LEU786  VAL792 
 PHE793  MET794  SER795  GLU796  ALA797  LYS798  CYS799  TRP800  GLU811  SER814 

> <Gold.Protein.RotatedAtoms>
  152.4656  133.7915  159.6904 H   0  0  0  0  0  0  0  0  0  0  0  0  # atno 6907 bound_to 6896
  150.8619  133.7622  159.2996 H   0  0  0  0  0  0  0  0  0  0  0  0  # atno 6908 bound_to 6896
  151.5185  135.1070  159.9924 H   0  0  0  0  0  0  0  0  0  0  0  0  # atno 6909 bound_to 6896
  145.1225  140.8677  143.3806 H   0  0  0  0  0  0  0  0  0  0  0  0  # atno 7974 bound_to 7965
  156.1457  140.3169  155.8566 H   0  0  0  0  0  0  0  0  0  0  0  0  # atno 8008 bound_to 7997
  155.4069  140.0503  157.3051 H   0  0  0  0  0  0  0  0  0  0  0  0  # atno 8009 bound_to 7997
  154.5014  140.2131  155.9351 H   0  0  0  0  0  0  0  0  0  0  0  0  # atno 8010 bound_to 7997
  139.8662  143.7015  152.2645 H   0  0  0  0  0  0  0  0  0  0  0  0  # atno 10167 bound_to 10162
  157.6728  130.9845  150.1713 H   0  0  0  0  0  0  0  0  0  0  0  0  # atno 10718 bound_to 10713
  153.0779  135.4924  154.8442 H   0  0  0  0  0  0  0  0  0  0  0  0  # atno 10763 bound_to 10752
  154.7112  135.3020  154.9197 H   0  0  0  0  0  0  0  0  0  0  0  0  # atno 10764 bound_to 10752
  153.9890  135.6780  153.4806 H   0  0  0  0  0  0  0  0  0  0  0  0  # atno 10765 bound_to 10752
  139.8827  134.8717  156.3534 H   0  0  0  0  0  0  0  0  0  0  0  0  # atno 11005 bound_to 11000
  145.0725  139.3021  143.5825 LP  0  0  0  0  0  0  0  0  0  0  0  0  # atno 17320 bound_to 7965
  146.3520  140.0204  142.8659 LP  0  0  0  0  0  0  0  0  0  0  0  0  # atno 17321 bound_to 7965
  139.7327  144.7578  151.0776 LP  0  0  0  0  0  0  0  0  0  0  0  0  # atno 17342 bound_to 10162
  140.7768  143.5068  150.9702 LP  0  0  0  0  0  0  0  0  0  0  0  0  # atno 17343 bound_to 10162
  156.2466  130.3696  149.8278 LP  0  0  0  0  0  0  0  0  0  0  0  0  # atno 17370 bound_to 10713
  156.6062  130.8567  151.3443 LP  0  0  0  0  0  0  0  0  0  0  0  0  # atno 17371 bound_to 10713
  140.9579  133.7408  156.0360 LP  0  0  0  0  0  0  0  0  0  0  0  0  # atno 17394 bound_to 11000
  140.8026  134.3491  157.5435 LP  0  0  0  0  0  0  0  0  0  0  0  0  # atno 17395 bound_to 11000

$$$$
