AV-unprocessed.smi:781|AV-procd|sdf|3708|dock1
  -GOLD-   22720 1133D 1   1.00000     0.00000
 Structure written by MMmdl.
 38 40  0  0  0  0  0  0  0  0  1 V2000
  152.5689  132.5967  157.0921 C   0  0  0  0  0  0  0  0  0  0  0  0
  151.6494  133.5174  156.3652 C   0  0  0  0  0  0  0  0  0  0  0  0
  150.5686  133.3042  155.5565 C   0  0  0  0  0  0  0  0  0  0  0  0
  150.1657  134.6205  155.2073 C   0  0  0  0  0  0  0  0  0  0  0  0
  149.0499  134.8391  154.3599 N   0  0  0  0  0  0  0  0  0  0  0  0
  147.8161  134.3202  154.4795 C   0  0  0  0  0  0  0  0  0  0  0  0
  147.4486  133.5604  155.3757 O   0  0  0  0  0  0  0  0  0  0  0  0
  147.0143  134.7411  153.4915 N   0  0  0  0  0  0  0  0  0  0  0  0
  145.6057  134.3738  153.3421 C   0  0  1  0  0  0  0  0  0  0  0  0
  144.7068  135.5538  152.8886 C   0  0  1  0  0  0  0  0  0  0  0  0
  145.3040  136.2738  151.6607 C   0  0  0  0  0  0  0  0  0  0  0  0
  145.1179  135.2349  150.5405 C   0  0  0  0  0  0  0  0  0  0  0  0
  144.4066  134.0707  151.2621 C   0  0  2  0  0  0  0  0  0  0  0  0
  143.5270  134.8285  152.2497 C   0  0  0  0  0  0  0  0  0  0  0  0
  145.3520  133.3174  152.2298 C   0  0  1  0  0  0  0  0  0  0  0  0
  146.5919  132.6528  151.5897 C   0  0  0  0  0  0  0  0  0  0  0  0
  146.1960  131.6240  150.7078 O   0  0  0  0  0  0  0  0  0  0  0  0
  150.9308  135.5531  155.7537 N   0  0  0  0  0  0  0  0  0  0  0  0
  151.8848  134.8509  156.4997 O   0  0  0  0  0  0  0  0  0  0  0  0
  152.5725  131.6083  156.6328 H   0  0  0  0  0  0  0  0  0  0  0  0
  152.2610  132.4860  158.1317 H   0  0  0  0  0  0  0  0  0  0  0  0
  153.5904  132.9773  157.0800 H   0  0  0  0  0  0  0  0  0  0  0  0
  150.1387  132.3579  155.2638 H   0  0  0  0  0  0  0  0  0  0  0  0
  149.2085  135.4578  153.5787 H   0  0  0  0  0  0  0  0  0  0  0  0
  147.3977  135.3655  152.7977 H   0  0  0  0  0  0  0  0  0  0  0  0
  145.2411  133.9763  154.2914 H   0  0  0  0  0  0  0  0  0  0  0  0
  144.4393  136.2324  153.6993 H   0  0  0  0  0  0  0  0  0  0  0  0
  144.7345  137.1767  151.4360 H   0  0  0  0  0  0  0  0  0  0  0  0
  146.3437  136.5741  151.7888 H   0  0  0  0  0  0  0  0  0  0  0  0
  144.4810  135.6416  149.7540 H   0  0  0  0  0  0  0  0  0  0  0  0
  146.0583  134.9449  150.0746 H   0  0  0  0  0  0  0  0  0  0  0  0
  143.8608  133.4104  150.5875 H   0  0  0  0  0  0  0  0  0  0  0  0
  142.9909  134.1789  152.9440 H   0  0  0  0  0  0  0  0  0  0  0  0
  142.8127  135.4996  151.7689 H   0  0  0  0  0  0  0  0  0  0  0  0
  144.7712  132.5120  152.6837 H   0  0  0  0  0  0  0  0  0  0  0  0
  147.2130  133.3675  151.0510 H   0  0  0  0  0  0  0  0  0  0  0  0
  147.2194  132.2107  152.3642 H   0  0  0  0  0  0  0  0  0  0  0  0
  146.9710  131.2299  150.3375 H   0  0  0  0  0  0  0  0  0  0  0  0
  1  2  1  0  0  0  0
  1 20  1  0  0  0  0
  1 21  1  0  0  0  0
  1 22  1  0  0  0  0
  2 19  1  0  0  0  0
  2  3  2  0  0  0  0
  3  4  1  0  0  0  0
  3 23  1  0  0  0  0
  4  5  1  0  0  0  0
  4 18  2  0  0  0  0
  5  6  1  0  0  0  0
  5 24  1  0  0  0  0
  6  7  2  0  0  0  0
  6  8  1  0  0  0  0
  8  9  1  0  0  0  0
  8 25  1  0  0  0  0
  9 15  1  0  0  0  0
  9 10  1  0  0  0  0
  9 26  1  0  0  0  0
 10 14  1  0  0  0  0
 10 11  1  0  0  0  0
 10 27  1  0  0  0  0
 11 12  1  0  0  0  0
 11 28  1  0  0  0  0
 11 29  1  0  0  0  0
 12 13  1  0  0  0  0
 12 30  1  0  0  0  0
 12 31  1  0  0  0  0
 13 14  1  0  0  0  0
 13 15  1  0  0  0  0
 13 32  1  0  0  0  0
 14 33  1  0  0  0  0
 14 34  1  0  0  0  0
 15 16  1  0  0  0  0
 15 35  1  0  0  0  0
 16 17  1  0  0  0  0
 16 36  1  0  0  0  0
 16 37  1  0  0  0  0
 17 38  1  0  0  0  0
 18 19  1  0  0  0  0
M  END
> <s_m_source_file>
AV-unprocessed.smi

> <i_m_source_file_index>
781

> <i_lp_mmshare_version>
43012

> <i_f3d_flags>
0

> <s_epik_input>
W0NIM11jMVtjSF1jKG5vMSlbTkhdQyg9TylbTkhdW0NASF0oW0NAQEhdMjMpW0NASF0oW0NIMl1bT0hdKVtDQEBIXShbQ0gyXTMpW0NIMl1bQ0gyXTI=

> <s_epik_cmdline>
J2VwaWtfcHl0aG9uJywgJy1waCcsICc3LjAnLCAnLXRuJywgJzgnLCAnLW1hJywgJzIwMCcsICctbWV0YWxfYmluZGluZycsICctaW1hZScsICc8aW5maWxlLm1hZT4nLCAnLW9tYWUnLCAnPG91dGZpbGUubWFlPic=

> <r_lp_tautomer_probability>
1

> <r_epik_Ionization_Penalty>
2.32222e-05

> <r_epik_Ionization_Penalty_Charging>
0

> <r_epik_Ionization_Penalty_Neutral>
2.32222e-05

> <r_epik_State_Penalty>
-0

> <r_epik_Charging_Adjusted_Penalty>
0

> <i_epik_Tot_Q>
0

> <i_epik_Tot_abs_Q>
0

> <r_epik_Metal_State_Penalty>
-0

> <b_epik_Metal_Only>
0

> <s_lp_Force_Field>
OPLS_2005

> <r_lp_Energy>
48.8521

> <b_lp_Chiralities_Consistent>
1

> <s_lp_Variant>
AV-unprocessed.smi:781-2

> <Gold.Version>
5.8.1

> <Gold.Id.Protein>
6NUR|6NUR_protein|mol2

> <Gold.PLP.Fitness>
35.1786

> <Gold.PLP.PLP>
-25.7181

> <Gold.PLP.part.hbond>
-4.2751

> <Gold.PLP.part.metal>
0.0000

> <Gold.PLP.part.buried>
-3.1860

> <Gold.PLP.part.nonpolar>
-17.6383

> <Gold.PLP.part.repulsive>
0.0901

> <Gold.PLP.ligand.clash>
0.0000

> <Gold.PLP.ligand.torsion>
0.7070

> <Gold.PLP.Chemscore.Hbond>
3.6201

> <Gold.PLP.Chemscore.CHOScore>
0.0000

> <Gold.PLP.Chemscore.Metal>
0.0000

> <Gold.Chemscore.Hbonds>
donor molecule, donor type, donor heavy atom, donor atom, acceptor molecule, acceptor atom, score
      L1  H     5    24       P1  7948  1.00
      L1  H     8    25       P1  7948  1.00
      L1  H    17    38       P1 10747  0.99
      P1  H 10752 10763       L1    19  0.62

> <Gold.PLP.Chemscore.Internal.Correction>
0.0143

> <Gold.Rescore>
     Score         DG    S(hbond)    S(metal)    S(lipo)     H(rot)  DE(clash)    DE(int)     intcor
     14.47     -15.34       2.47        0.00      54.51       1.86       0.20       0.67       ----

> <Gold.Chemscore.Fitness>
14.4732

> <Gold.Chemscore.DG>
-15.3438

> <Gold.Chemscore.ZeroCoef>
-5.4800

> <Gold.Chemscore.Hbond>
2.4684

> <Gold.Chemscore.Metal>
0.0000

> <Gold.Chemscore.Lipo>
54.5081

> <Gold.Chemscore.Internal_Hbond>
0.0000

> <Gold.Chemscore.DEClash>
0.2031

> <Gold.Chemscore.DEInternal>
0.6675

> <Gold.Chemscore.Rot>
1.8587

> <Gold.Chemscore.Internal.Correction>
   9.000000E+99

> <Gold.Chemscore.Hbonds>
donor molecule, donor type, donor heavy atom, donor atom, acceptor molecule, acceptor atom, score
      L1  H     5    24       P1  7948  0.44
      L1  H     8    25       P1  7948  0.93
      L1  H    17    38       P1 10747  0.90
      P1  H 10752 10763       L1    19  0.05

> <Gold.Chemscore.Hbond.Weighted>
-8.2446

> <Gold.Chemscore.Metal.Weighted>
-0.0000

> <Gold.Chemscore.Lipo.Weighted>
-6.3774

> <Gold.Chemscore.Internal_Hbond.Weighted>
0.0000

> <Gold.Chemscore.DEClash.Weighted>
0.2031

> <Gold.Chemscore.DEInternal.Weighted>
0.6675

> <Gold.Chemscore.Rot.Weighted>
4.7583

> <Gold.Chemscore.Internal.Correction.Weighted>
   9.000000E+99

> <Gold.Protein.RotatedTorsions>
[ 6907 6896 6895 6894 ] final   60.27 input  -60.11 | X-H torsion
[ 7974 7965 7964 7962 ] final -133.65 input  175.53 | X-H torsion
[ 8008 7997 7996 7995 ] final -176.38 input   59.86 | X-H torsion
[ 10167 10162 10161 10158 ] final  -34.53 input  -65.29 | X-H torsion
[ 10718 10713 10712 10709 ] final   73.08 input   66.30 | X-H torsion
[ 10763 10752 10751 10750 ] final  113.43 input  -60.55 | X-H torsion
[ 11005 11000 10999 10996 ] final  154.34 input  -57.11 | X-H torsion

> <Gold.Protein.ActiveResidues>
 VAL166  LYS551  ARG553  GLY616  TRP617  ASP618  TYR619  PRO620  LYS621  CYS622 
 ASP623  PHE694  ASN695  SER759  ASP760  ASP761  ALA762  ILE779  LEU786  VAL792 
 PHE793  MET794  SER795  GLU796  ALA797  LYS798  CYS799  TRP800  GLU811  SER814 

> <Gold.Protein.RotatedAtoms>
  152.3988  134.6320  160.0077 H   0  0  0  0  0  0  0  0  0  0  0  0  # atno 6907 bound_to 6896
  151.6531  133.3314  159.3164 H   0  0  0  0  0  0  0  0  0  0  0  0  # atno 6908 bound_to 6896
  150.7892  134.6944  159.6560 H   0  0  0  0  0  0  0  0  0  0  0  0  # atno 6909 bound_to 6896
  144.9173  140.6971  143.4987 H   0  0  0  0  0  0  0  0  0  0  0  0  # atno 7974 bound_to 7965
  155.9941  140.1207  157.0610 H   0  0  0  0  0  0  0  0  0  0  0  0  # atno 8008 bound_to 7997
  154.4221  140.1120  156.5675 H   0  0  0  0  0  0  0  0  0  0  0  0  # atno 8009 bound_to 7997
  155.6302  140.3473  155.4682 H   0  0  0  0  0  0  0  0  0  0  0  0  # atno 8010 bound_to 7997
  140.7184  143.3541  151.2094 H   0  0  0  0  0  0  0  0  0  0  0  0  # atno 10167 bound_to 10162
  157.6531  130.9610  150.1019 H   0  0  0  0  0  0  0  0  0  0  0  0  # atno 10718 bound_to 10713
  153.4924  135.3656  155.2498 H   0  0  0  0  0  0  0  0  0  0  0  0  # atno 10763 bound_to 10752
  154.8751  135.3980  154.3573 H   0  0  0  0  0  0  0  0  0  0  0  0  # atno 10764 bound_to 10752
  153.4195  135.7080  153.6369 H   0  0  0  0  0  0  0  0  0  0  0  0  # atno 10765 bound_to 10752
  140.1480  134.8694  157.2418 H   0  0  0  0  0  0  0  0  0  0  0  0  # atno 11005 bound_to 11000
  145.3354  139.1747  143.4514 LP  0  0  0  0  0  0  0  0  0  0  0  0  # atno 17320 bound_to 7965
  146.3188  140.3388  142.8646 LP  0  0  0  0  0  0  0  0  0  0  0  0  # atno 17321 bound_to 7965
  139.7079  143.9425  152.2935 LP  0  0  0  0  0  0  0  0  0  0  0  0  # atno 17342 bound_to 10162
  139.9140  144.6839  150.8532 LP  0  0  0  0  0  0  0  0  0  0  0  0  # atno 17343 bound_to 10162
  156.1939  130.3656  149.8874 LP  0  0  0  0  0  0  0  0  0  0  0  0  # atno 17370 bound_to 10713
  156.6796  130.8852  151.3574 LP  0  0  0  0  0  0  0  0  0  0  0  0  # atno 17371 bound_to 10713
  140.2639  134.3539  155.7397 LP  0  0  0  0  0  0  0  0  0  0  0  0  # atno 17394 bound_to 11000
  141.2195  133.7385  156.9122 LP  0  0  0  0  0  0  0  0  0  0  0  0  # atno 17395 bound_to 11000

$$$$
