AV-unprocessed.smi:3019|AV-procd|sdf|11494|dock1
  -GOLD-   2272016433D 1   1.00000     0.00000
 Structure written by MMmdl.
 30 31  0  0  0  0  0  0  0  0  3 V2000
  152.5198  141.7774  160.2819 C   0  0  0  0  0  0  0  0  0  0  0  0
  152.7152  142.3540  158.8731 C   0  0  0  0  0  0  0  0  0  0  0  0
  152.1217  143.7600  158.7098 C   0  0  0  0  0  0  0  0  0  0  0  0
  152.2038  141.4052  157.8060 C   0  0  0  0  0  0  0  0  0  0  0  0
  152.6054  140.1345  157.6233 N   0  5  0  0  0  0  0  0  0  0  0  0
  151.9544  139.6003  156.6106 N   0  0  0  0  0  0  0  0  0  0  0  0
  151.1444  140.5688  156.1573 C   0  0  0  0  0  0  0  0  0  0  0  0
  150.1650  140.4020  155.0143 C   0  0  1  0  0  0  0  0  0  0  0  0
  150.2080  138.9663  154.4559 C   0  0  0  0  0  0  0  0  0  0  0  0
  149.2362  138.8146  153.3559 N   0  3  0  0  0  0  0  0  0  0  0  0
  147.8774  139.2111  153.7727 C   0  0  0  0  0  0  0  0  0  0  0  0
  147.8992  140.6353  154.3521 C   0  0  0  0  0  0  0  0  0  0  0  0
  148.8317  140.6998  155.4250 O   0  0  0  0  0  0  0  0  0  0  0  0
  151.2777  141.6819  156.8922 N   0  0  0  0  0  0  0  0  0  0  0  0
  153.0157  140.8114  160.3808 H   0  0  0  0  0  0  0  0  0  0  0  0
  151.4625  141.6341  160.5063 H   0  0  0  0  0  0  0  0  0  0  0  0
  152.9346  142.4422  161.0398 H   0  0  0  0  0  0  0  0  0  0  0  0
  153.7906  142.4441  158.7138 H   0  0  0  0  0  0  0  0  0  0  0  0
  152.3428  144.1652  157.7219 H   0  0  0  0  0  0  0  0  0  0  0  0
  152.5310  144.4484  159.4494 H   0  0  0  0  0  0  0  0  0  0  0  0
  151.0381  143.7472  158.8298 H   0  0  0  0  0  0  0  0  0  0  0  0
  150.4547  141.1084  154.2339 H   0  0  0  0  0  0  0  0  0  0  0  0
  151.2057  138.7263  154.0873 H   0  0  0  0  0  0  0  0  0  0  0  0
  149.9733  138.2468  155.2419 H   0  0  0  0  0  0  0  0  0  0  0  0
  149.5247  139.4049  152.5887 H   0  0  0  0  0  0  0  0  0  0  0  0
  147.2044  139.1541  152.9170 H   0  0  0  0  0  0  0  0  0  0  0  0
  147.5115  138.5060  154.5202 H   0  0  0  0  0  0  0  0  0  0  0  0
  148.1592  141.3657  153.5844 H   0  0  0  0  0  0  0  0  0  0  0  0
  146.9113  140.9043  154.7258 H   0  0  0  0  0  0  0  0  0  0  0  0
  149.2274  137.8529  153.0475 H   0  0  0  0  0  0  0  0  0  0  0  0
  1  2  1  0  0  0  0
  1 15  1  0  0  0  0
  1 16  1  0  0  0  0
  1 17  1  0  0  0  0
  2  3  1  0  0  0  0
  2  4  1  0  0  0  0
  2 18  1  0  0  0  0
  3 19  1  0  0  0  0
  3 20  1  0  0  0  0
  3 21  1  0  0  0  0
  4 14  2  0  0  0  0
  4  5  1  0  0  0  0
  5  6  1  0  0  0  0
  6  7  2  0  0  0  0
  7  8  1  0  0  0  0
  7 14  1  0  0  0  0
  8 13  1  0  0  0  0
  8  9  1  0  0  0  0
  8 22  1  0  0  0  0
  9 10  1  0  0  0  0
  9 23  1  0  0  0  0
  9 24  1  0  0  0  0
 10 11  1  0  0  0  0
 10 25  1  0  0  0  0
 10 30  1  0  0  0  0
 11 12  1  0  0  0  0
 11 26  1  0  0  0  0
 11 27  1  0  0  0  0
 12 13  1  0  0  0  0
 12 28  1  0  0  0  0
 12 29  1  0  0  0  0
M  CHG  1   5  -1
M  CHG  1  10   1
M  END
> <s_m_source_file>
AV-unprocessed.smi

> <i_m_source_file_index>
3019

> <i_lp_mmshare_version>
43012

> <i_f3d_flags>
0

> <s_epik_input>
W0NIM11bQ0hdKFtDSDNdKWMxbltuSF1jKG4xKVtDQEBIXTJbQ0gyXVtOSF1bQ0gyXVtDSDJdTzI=

> <s_epik_cmdline>
J2VwaWtfcHl0aG9uJywgJy1waCcsICc3LjAnLCAnLXRuJywgJzgnLCAnLW1hJywgJzIwMCcsICctbWV0YWxfYmluZGluZycsICctaW1hZScsICc8aW5maWxlLm1hZT4nLCAnLW9tYWUnLCAnPG91dGZpbGUubWFlPic=

> <r_lp_tautomer_probability>
0.948284

> <r_epik_Ionization_Penalty>
5.01189

> <r_epik_Ionization_Penalty_Charging>
5.01189

> <r_epik_Ionization_Penalty_Neutral>
1.51292e-13

> <r_epik_State_Penalty>
2.75157

> <r_epik_Charging_Adjusted_Penalty>
7.76346

> <i_epik_Tot_Q>
0

> <i_epik_Tot_abs_Q>
2

> <r_epik_Metal_State_Penalty>
0.54282

> <b_epik_Metal_Only>
1

> <s_lp_Force_Field>
OPLS_2005

> <r_lp_Energy>
3.4393

> <b_lp_Chiralities_Consistent>
1

> <s_lp_Variant>
AV-unprocessed.smi:3019-10

> <Gold.Version>
5.8.1

> <Gold.Id.Protein>
6NUR|6NUR_protein|mol2

> <Gold.PLP.Fitness>
40.5621

> <Gold.PLP.PLP>
-25.6085

> <Gold.PLP.part.hbond>
-3.0000

> <Gold.PLP.part.metal>
0.0000

> <Gold.PLP.part.buried>
-2.4332

> <Gold.PLP.part.nonpolar>
-19.4277

> <Gold.PLP.part.repulsive>
0.2230

> <Gold.PLP.ligand.clash>
0.0000

> <Gold.PLP.ligand.torsion>
0.0592

> <Gold.PLP.Chemscore.Hbond>
5.0000

> <Gold.PLP.Chemscore.CHOScore>
0.0000

> <Gold.PLP.Chemscore.Metal>
0.0000

> <Gold.Chemscore.Hbonds>
donor molecule, donor type, donor heavy atom, donor atom, acceptor molecule, acceptor atom, score
      L1  H    10    25       P1  7957  1.00
      L1  H    10    30       P1  7948  2.00
      P1  H  7997  8009       L1     5  1.98

> <Gold.PLP.Chemscore.Internal.Correction>
0.0720

> <Gold.Rescore>
     Score         DG    S(hbond)    S(metal)    S(lipo)     H(rot)  DE(clash)    DE(int)     intcor
     16.37     -16.91       2.33        0.00      58.67       1.26       0.43       0.10       ----

> <Gold.Chemscore.Fitness>
16.3738

> <Gold.Chemscore.DG>
-16.9051

> <Gold.Chemscore.ZeroCoef>
-5.4800

> <Gold.Chemscore.Hbond>
2.3330

> <Gold.Chemscore.Metal>
0.0000

> <Gold.Chemscore.Lipo>
58.6736

> <Gold.Chemscore.Internal_Hbond>
0.0000

> <Gold.Chemscore.DEClash>
0.4273

> <Gold.Chemscore.DEInternal>
0.1039

> <Gold.Chemscore.Rot>
1.2625

> <Gold.Chemscore.Internal.Correction>
   9.000000E+99

> <Gold.Chemscore.Hbonds>
donor molecule, donor type, donor heavy atom, donor atom, acceptor molecule, acceptor atom, score
      L1  H    10    25       P1  7957  0.96
      L1  H    10    30       P1  7948  0.95
      P1  H  7997  8009       L1     5  0.18

> <Gold.Chemscore.Hbond.Weighted>
-7.7923

> <Gold.Chemscore.Metal.Weighted>
-0.0000

> <Gold.Chemscore.Lipo.Weighted>
-6.8648

> <Gold.Chemscore.Internal_Hbond.Weighted>
0.0000

> <Gold.Chemscore.DEClash.Weighted>
0.4273

> <Gold.Chemscore.DEInternal.Weighted>
0.1039

> <Gold.Chemscore.Rot.Weighted>
3.2320

> <Gold.Chemscore.Internal.Correction.Weighted>
   9.000000E+99

> <Gold.Protein.RotatedTorsions>
[ 6907 6896 6895 6894 ] final  126.20 input  -60.11 | X-H torsion
[ 7974 7965 7964 7962 ] final   46.70 input  175.53 | X-H torsion
[ 8008 7997 7996 7995 ] final  163.07 input   59.86 | X-H torsion
[ 10167 10162 10161 10158 ] final -146.45 input  -65.29 | X-H torsion
[ 10718 10713 10712 10709 ] final  -50.48 input   66.30 | X-H torsion
[ 10763 10752 10751 10750 ] final -118.47 input  -60.55 | X-H torsion
[ 11005 11000 10999 10996 ] final   -5.32 input  -57.11 | X-H torsion

> <Gold.Protein.ActiveResidues>
 VAL166  LYS551  ARG553  GLY616  TRP617  ASP618  TYR619  PRO620  LYS621  CYS622 
 ASP623  PHE694  ASN695  SER759  ASP760  ASP761  ALA762  ILE779  LEU786  VAL792 
 PHE793  MET794  SER795  GLU796  ALA797  LYS798  CYS799  TRP800  GLU811  SER814 

> <Gold.Protein.RotatedAtoms>
  152.3924  133.6698  159.6248 H   0  0  0  0  0  0  0  0  0  0  0  0  # atno 6907 bound_to 6896
  150.7830  133.8931  159.3328 H   0  0  0  0  0  0  0  0  0  0  0  0  # atno 6908 bound_to 6896
  151.6715  135.0977  160.0250 H   0  0  0  0  0  0  0  0  0  0  0  0  # atno 6909 bound_to 6896
  146.0365  139.4827  142.9805 H   0  0  0  0  0  0  0  0  0  0  0  0  # atno 7974 bound_to 7965
  156.1985  140.1733  156.7949 H   0  0  0  0  0  0  0  0  0  0  0  0  # atno 8008 bound_to 7997
  154.5560  140.0708  156.8775 H   0  0  0  0  0  0  0  0  0  0  0  0  # atno 8009 bound_to 7997
  155.2938  140.3357  155.4253 H   0  0  0  0  0  0  0  0  0  0  0  0  # atno 8010 bound_to 7997
  139.7712  143.8235  152.2625 H   0  0  0  0  0  0  0  0  0  0  0  0  # atno 10167 bound_to 10162
  156.1797  130.4150  149.9525 H   0  0  0  0  0  0  0  0  0  0  0  0  # atno 10718 bound_to 10713
  154.8588  135.4273  154.2144 H   0  0  0  0  0  0  0  0  0  0  0  0  # atno 10763 bound_to 10752
  153.3163  135.6979  153.7076 H   0  0  0  0  0  0  0  0  0  0  0  0  # atno 10764 bound_to 10752
  153.6149  135.3512  155.2965 H   0  0  0  0  0  0  0  0  0  0  0  0  # atno 10765 bound_to 10752
  140.6899  133.9080  155.8611 H   0  0  0  0  0  0  0  0  0  0  0  0  # atno 11005 bound_to 11000
  145.6955  141.0152  143.1532 LP  0  0  0  0  0  0  0  0  0  0  0  0  # atno 17320 bound_to 7965
  144.7054  139.8582  143.7431 LP  0  0  0  0  0  0  0  0  0  0  0  0  # atno 17321 bound_to 7965
  139.8270  144.7271  150.9499 LP  0  0  0  0  0  0  0  0  0  0  0  0  # atno 17342 bound_to 10162
  140.7814  143.4106  151.1000 LP  0  0  0  0  0  0  0  0  0  0  0  0  # atno 17343 bound_to 10162
  156.7300  130.9039  151.3625 LP  0  0  0  0  0  0  0  0  0  0  0  0  # atno 17370 bound_to 10713
  157.6859  130.9185  150.0386 LP  0  0  0  0  0  0  0  0  0  0  0  0  # atno 17371 bound_to 10713
  141.0250  134.0836  157.4079 LP  0  0  0  0  0  0  0  0  0  0  0  0  # atno 17394 bound_to 11000
  139.8926  135.0126  156.6857 LP  0  0  0  0  0  0  0  0  0  0  0  0  # atno 17395 bound_to 11000

$$$$
