AV-unprocessed.smi:1191|AV-procd|sdf|4984|dock1
  -GOLD-   22720 3583D 1   1.00000     0.00000
 Structure written by MMmdl.
 47 48  0  0  0  0  0  0  0  0  2 V2000
  154.8241  141.1113  160.5367 C   0  0  0  0  0  0  0  0  0  0  0  0
  153.7938  141.7440  159.6483 C   0  0  0  0  0  0  0  0  0  0  0  0
  153.3968  143.1090  159.5909 C   0  0  0  0  0  0  0  0  0  0  0  0
  152.4361  143.1407  158.6197 C   0  0  0  0  0  0  0  0  0  0  0  0
  151.6350  144.2878  158.0976 C   0  0  0  0  0  0  0  0  0  0  0  0
  152.2971  141.8461  158.1499 N   0  0  0  0  0  0  0  0  0  0  0  0
  151.4086  141.3314  157.1190 C   0  0  0  0  0  0  0  0  0  0  0  0
  151.7968  139.9086  156.7115 C   0  0  0  0  0  0  0  0  0  0  0  0
  152.8841  139.6920  156.1765 O   0  0  0  0  0  0  0  0  0  0  0  0
  150.9062  138.9422  156.9829 N   0  0  0  0  0  0  0  0  0  0  0  0
  151.1078  137.5251  156.7074 C   0  0  0  0  0  0  0  0  0  0  0  0
  150.8897  137.2091  155.2149 C   0  0  0  0  0  0  0  0  0  0  0  0
  149.4518  137.1118  154.8577 N   0  3  1  0  0  0  0  0  0  0  0  0
  148.7096  136.2058  155.7720 C   0  0  0  0  0  0  0  0  0  0  0  0
  147.2611  136.0057  155.2994 C   0  0  0  0  0  0  0  0  0  0  0  0
  146.5379  137.3512  155.1616 C   0  0  0  0  0  0  0  0  0  0  0  0
  147.3308  138.2896  154.2365 C   0  0  1  0  0  0  0  0  0  0  0  0
  146.6425  139.6551  154.0997 C   0  0  0  0  0  0  0  0  0  0  0  0
  148.7816  138.4352  154.7387 C   0  0  0  0  0  0  0  0  0  0  0  0
  153.1324  140.9940  158.7827 N   0  0  0  0  0  0  0  0  0  0  0  0
  155.2125  141.8267  161.2617 H   0  0  0  0  0  0  0  0  0  0  0  0
  155.6669  140.7378  159.9546 H   0  0  0  0  0  0  0  0  0  0  0  0
  154.4029  140.2728  161.0921 H   0  0  0  0  0  0  0  0  0  0  0  0
  153.7634  143.9399  160.1752 H   0  0  0  0  0  0  0  0  0  0  0  0
  151.9788  145.2287  158.5274 H   0  0  0  0  0  0  0  0  0  0  0  0
  150.5806  144.1710  158.3483 H   0  0  0  0  0  0  0  0  0  0  0  0
  151.7219  144.3644  157.0138 H   0  0  0  0  0  0  0  0  0  0  0  0
  150.3827  141.3670  157.4879 H   0  0  0  0  0  0  0  0  0  0  0  0
  151.4516  141.9808  156.2432 H   0  0  0  0  0  0  0  0  0  0  0  0
  150.0342  139.2069  157.4185 H   0  0  0  0  0  0  0  0  0  0  0  0
  152.1235  137.2799  157.0146 H   0  0  0  0  0  0  0  0  0  0  0  0
  150.4409  136.9241  157.3283 H   0  0  0  0  0  0  0  0  0  0  0  0
  151.3446  138.0074  154.6264 H   0  0  0  0  0  0  0  0  0  0  0  0
  151.4056  136.2897  154.9335 H   0  0  0  0  0  0  0  0  0  0  0  0
  149.2062  135.2356  155.8161 H   0  0  0  0  0  0  0  0  0  0  0  0
  148.7237  136.6156  156.7832 H   0  0  0  0  0  0  0  0  0  0  0  0
  147.2559  135.4857  154.3405 H   0  0  0  0  0  0  0  0  0  0  0  0
  146.7254  135.3656  156.0011 H   0  0  0  0  0  0  0  0  0  0  0  0
  145.5322  137.1931  154.7701 H   0  0  0  0  0  0  0  0  0  0  0  0
  146.4216  137.8075  156.1457 H   0  0  0  0  0  0  0  0  0  0  0  0
  147.3618  137.8378  153.2436 H   0  0  0  0  0  0  0  0  0  0  0  0
  146.5779  140.1658  155.0610 H   0  0  0  0  0  0  0  0  0  0  0  0
  145.6291  139.5463  153.7123 H   0  0  0  0  0  0  0  0  0  0  0  0
  147.1880  140.3038  153.4137 H   0  0  0  0  0  0  0  0  0  0  0  0
  148.7979  138.9383  155.7071 H   0  0  0  0  0  0  0  0  0  0  0  0
  149.3297  139.0718  154.0454 H   0  0  0  0  0  0  0  0  0  0  0  0
  149.4148  136.6790  153.9457 H   0  0  0  0  0  0  0  0  0  0  0  0
  1  2  1  0  0  0  0
  1 21  1  0  0  0  0
  1 22  1  0  0  0  0
  1 23  1  0  0  0  0
  2 20  2  0  0  0  0
  2  3  1  0  0  0  0
  3  4  2  0  0  0  0
  3 24  1  0  0  0  0
  4  5  1  0  0  0  0
  4  6  1  0  0  0  0
  5 25  1  0  0  0  0
  5 26  1  0  0  0  0
  5 27  1  0  0  0  0
  6  7  1  0  0  0  0
  6 20  1  0  0  0  0
  7  8  1  0  0  0  0
  7 28  1  0  0  0  0
  7 29  1  0  0  0  0
  8  9  2  0  0  0  0
  8 10  1  0  0  0  0
 10 11  1  0  0  0  0
 10 30  1  0  0  0  0
 11 12  1  0  0  0  0
 11 31  1  0  0  0  0
 11 32  1  0  0  0  0
 12 13  1  0  0  0  0
 12 33  1  0  0  0  0
 12 34  1  0  0  0  0
 13 19  1  0  0  0  0
 13 14  1  0  0  0  0
 13 47  1  0  0  0  0
 14 15  1  0  0  0  0
 14 35  1  0  0  0  0
 14 36  1  0  0  0  0
 15 16  1  0  0  0  0
 15 37  1  0  0  0  0
 15 38  1  0  0  0  0
 16 17  1  0  0  0  0
 16 39  1  0  0  0  0
 16 40  1  0  0  0  0
 17 18  1  0  0  0  0
 17 19  1  0  0  0  0
 17 41  1  0  0  0  0
 18 42  1  0  0  0  0
 18 43  1  0  0  0  0
 18 44  1  0  0  0  0
 19 45  1  0  0  0  0
 19 46  1  0  0  0  0
M  CHG  1  13   1
M  END
> <s_m_source_file>
AV-unprocessed.smi

> <i_m_source_file_index>
1191

> <i_lp_mmshare_version>
43012

> <i_f3d_flags>
0

> <s_epik_input>
W0NIM11jMVtjSF1jKFtDSDNdKW4objEpW0NIMl1DKD1PKVtOSF1bQ0gyXVtDSDJdTjJbQ0gyXVtDSDJdW0NIMl1bQ0BASF0oW0NIM10pW0NIMl0y

> <s_epik_cmdline>
J2VwaWtfcHl0aG9uJywgJy1waCcsICc3LjAnLCAnLXRuJywgJzgnLCAnLW1hJywgJzIwMCcsICctbWV0YWxfYmluZGluZycsICctaW1hZScsICc8aW5maWxlLm1hZT4nLCAnLW9tYWUnLCAnPG91dGZpbGUubWFlPic=

> <r_lp_tautomer_probability>
1

> <r_epik_Ionization_Penalty>
0.00249932

> <r_epik_Ionization_Penalty_Charging>
0.00230623

> <r_epik_Ionization_Penalty_Neutral>
0.000193092

> <r_epik_State_Penalty>
-0

> <r_epik_Charging_Adjusted_Penalty>
0.00230623

> <i_epik_Tot_Q>
1

> <i_epik_Tot_abs_Q>
1

> <r_epik_Metal_State_Penalty>
-0

> <b_epik_Metal_Only>
0

> <s_lp_Force_Field>
OPLS_2005

> <r_lp_Energy>
14.3844

> <b_lp_Chiralities_Consistent>
1

> <s_lp_Variant>
AV-unprocessed.smi:1191-1

> <Gold.Version>
5.8.1

> <Gold.Id.Protein>
6NUR|6NUR_protein|mol2

> <Gold.PLP.Fitness>
45.0383

> <Gold.PLP.PLP>
-36.8453

> <Gold.PLP.part.hbond>
-2.0000

> <Gold.PLP.part.metal>
0.0000

> <Gold.PLP.part.buried>
-3.2633

> <Gold.PLP.part.nonpolar>
-31.2697

> <Gold.PLP.part.repulsive>
0.0127

> <Gold.PLP.ligand.clash>
0.0000

> <Gold.PLP.ligand.torsion>
0.4508

> <Gold.PLP.Chemscore.Hbond>
3.0000

> <Gold.PLP.Chemscore.CHOScore>
0.0000

> <Gold.PLP.Chemscore.Metal>
0.0000

> <Gold.Chemscore.Hbonds>
donor molecule, donor type, donor heavy atom, donor atom, acceptor molecule, acceptor atom, score
      L1  H    13    47       P1  7948  1.37
      P1  H  7997  8010       L1     9  1.00

> <Gold.PLP.Chemscore.Internal.Correction>
0.0947

> <Gold.Rescore>
     Score         DG    S(hbond)    S(metal)    S(lipo)     H(rot)  DE(clash)    DE(int)     intcor
     16.97     -19.04       1.99        0.00      95.63       1.67       0.12       1.95       ----

> <Gold.Chemscore.Fitness>
16.9679

> <Gold.Chemscore.DG>
-19.0400

> <Gold.Chemscore.ZeroCoef>
-5.4800

> <Gold.Chemscore.Hbond>
1.9867

> <Gold.Chemscore.Metal>
0.0000

> <Gold.Chemscore.Lipo>
95.6272

> <Gold.Chemscore.Internal_Hbond>
0.0000

> <Gold.Chemscore.DEClash>
0.1195

> <Gold.Chemscore.DEInternal>
1.9526

> <Gold.Chemscore.Rot>
1.6657

> <Gold.Chemscore.Internal.Correction>
   9.000000E+99

> <Gold.Chemscore.Hbonds>
donor molecule, donor type, donor heavy atom, donor atom, acceptor molecule, acceptor atom, score
      L1  H    13    47       P1  7948  0.62
      P1  H  7997  8010       L1     9  0.95

> <Gold.Chemscore.Hbond.Weighted>
-6.6357

> <Gold.Chemscore.Metal.Weighted>
-0.0000

> <Gold.Chemscore.Lipo.Weighted>
-11.1884

> <Gold.Chemscore.Internal_Hbond.Weighted>
0.0000

> <Gold.Chemscore.DEClash.Weighted>
0.1195

> <Gold.Chemscore.DEInternal.Weighted>
1.9526

> <Gold.Chemscore.Rot.Weighted>
4.2641

> <Gold.Chemscore.Internal.Correction.Weighted>
   9.000000E+99

> <Gold.Protein.RotatedTorsions>
[ 6907 6896 6895 6894 ] final  -34.04 input  -60.11 | X-H torsion
[ 7974 7965 7964 7962 ] final   43.95 input  175.53 | X-H torsion
[ 8008 7997 7996 7995 ] final   67.78 input   59.86 | X-H torsion
[ 10167 10162 10161 10158 ] final  -34.72 input  -65.29 | X-H torsion
[ 10718 10713 10712 10709 ] final  -29.66 input   66.30 | X-H torsion
[ 10763 10752 10751 10750 ] final -158.59 input  -60.55 | X-H torsion
[ 11005 11000 10999 10996 ] final -137.19 input  -57.11 | X-H torsion

> <Gold.Protein.ActiveResidues>
 VAL166  LYS551  ARG553  GLY616  TRP617  ASP618  TYR619  PRO620  LYS621  CYS622 
 ASP623  PHE694  ASN695  SER759  ASP760  ASP761  ALA762  ILE779  LEU786  VAL792 
 PHE793  MET794  SER795  GLU796  ALA797  LYS798  CYS799  TRP800  GLU811  SER814 

> <Gold.Protein.RotatedAtoms>
  151.0578  134.9716  159.8244 H   0  0  0  0  0  0  0  0  0  0  0  0  # atno 6907 bound_to 6896
  152.5391  134.2456  159.8889 H   0  0  0  0  0  0  0  0  0  0  0  0  # atno 6908 bound_to 6896
  151.2475  133.4324  159.2643 H   0  0  0  0  0  0  0  0  0  0  0  0  # atno 6909 bound_to 6896
  146.0611  139.5129  142.9657 H   0  0  0  0  0  0  0  0  0  0  0  0  # atno 7974 bound_to 7965
  155.6981  140.3495  155.4921 H   0  0  0  0  0  0  0  0  0  0  0  0  # atno 8008 bound_to 7997
  155.9465  140.1111  157.1035 H   0  0  0  0  0  0  0  0  0  0  0  0  # atno 8009 bound_to 7997
  154.4113  140.1202  156.4982 H   0  0  0  0  0  0  0  0  0  0  0  0  # atno 8010 bound_to 7997
  140.7180  143.3528  151.2120 H   0  0  0  0  0  0  0  0  0  0  0  0  # atno 10167 bound_to 10162
  156.4097  130.4406  149.7261 H   0  0  0  0  0  0  0  0  0  0  0  0  # atno 10718 bound_to 10713
  154.7544  135.3101  154.8497 H   0  0  0  0  0  0  0  0  0  0  0  0  # atno 10763 bound_to 10752
  153.9275  135.6789  153.4750 H   0  0  0  0  0  0  0  0  0  0  0  0  # atno 10764 bound_to 10752
  153.1141  135.4852  154.9015 H   0  0  0  0  0  0  0  0  0  0  0  0  # atno 10765 bound_to 10752
  140.8735  134.2022  157.4636 H   0  0  0  0  0  0  0  0  0  0  0  0  # atno 11005 bound_to 11000
  145.6558  141.0252  143.1735 LP  0  0  0  0  0  0  0  0  0  0  0  0  # atno 17320 bound_to 7965
  144.7175  139.8143  143.7393 LP  0  0  0  0  0  0  0  0  0  0  0  0  # atno 17321 bound_to 7965
  139.7063  143.9450  152.2928 LP  0  0  0  0  0  0  0  0  0  0  0  0  # atno 17342 bound_to 10162
  139.9160  144.6828  150.8511 LP  0  0  0  0  0  0  0  0  0  0  0  0  # atno 17343 bound_to 10162
  156.4245  130.7785  151.2803 LP  0  0  0  0  0  0  0  0  0  0  0  0  # atno 17370 bound_to 10713
  157.7506  131.0173  150.3578 LP  0  0  0  0  0  0  0  0  0  0  0  0  # atno 17371 bound_to 10713
  139.8714  134.9785  156.4999 LP  0  0  0  0  0  0  0  0  0  0  0  0  # atno 17394 bound_to 11000
  140.8546  133.8106  155.9203 LP  0  0  0  0  0  0  0  0  0  0  0  0  # atno 17395 bound_to 11000

$$$$
