AV-unprocessed.smi:3249|AV-procd|sdf|12424|dock6
  -GOLD-   2272018313D 1   1.00000     0.00000
 Structure written by MMmdl.
 44 45  0  0  0  0  0  0  0  0  2 V2000
  147.0335  139.7996  153.3708 C   0  0  0  0  0  0  0  0  0  0  0  0
  148.4068  139.7503  153.9758 C   0  0  0  0  0  0  0  0  0  0  0  0
  149.2156  140.8424  154.4001 C   0  0  0  0  0  0  0  0  0  0  0  0
  150.3815  140.4570  154.8923 N   0  0  0  0  0  0  0  0  0  0  0  0
  150.3596  139.1084  154.8034 N   0  0  0  0  0  0  0  0  0  0  0  0
  151.5020  138.3244  155.2559 C   0  0  1  0  0  0  0  0  0  0  0  0
  152.7306  138.6327  154.3787 C   0  0  0  0  0  0  0  0  0  0  0  0
  151.7783  138.5151  156.7720 C   0  0  1  0  0  0  0  0  0  0  0  0
  152.9923  137.7102  157.2706 C   0  0  0  0  0  0  0  0  0  0  0  0
  151.9956  139.9462  157.0816 N   0  3  0  0  0  0  0  0  0  0  0  0
  152.0415  140.2711  158.5221 C   0  0  0  0  0  0  0  0  0  0  0  0
  152.5709  141.6935  158.7507 C   0  0  1  0  0  0  0  0  0  0  0  0
  151.8733  142.7190  157.8359 C   0  0  0  0  0  0  0  0  0  0  0  0
  152.3571  144.1392  158.1504 C   0  0  0  0  0  0  0  0  0  0  0  0
  152.1927  144.4208  159.6477 C   0  0  0  0  0  0  0  0  0  0  0  0
  152.8615  143.3125  160.4761 C   0  0  0  0  0  0  0  0  0  0  0  0
  152.3262  142.0433  160.1117 O   0  0  0  0  0  0  0  0  0  0  0  0
  149.1787  138.6572  154.2511 C   0  0  0  0  0  0  0  0  0  0  0  0
  146.7702  140.8058  153.0438 H   0  0  0  0  0  0  0  0  0  0  0  0
  146.2704  139.4826  154.0815 H   0  0  0  0  0  0  0  0  0  0  0  0
  146.9531  139.1488  152.4999 H   0  0  0  0  0  0  0  0  0  0  0  0
  148.9913  141.8983  154.3645 H   0  0  0  0  0  0  0  0  0  0  0  0
  151.2411  137.2772  155.0946 H   0  0  0  0  0  0  0  0  0  0  0  0
  153.5578  137.9568  154.5952 H   0  0  0  0  0  0  0  0  0  0  0  0
  153.0859  139.6523  154.5313 H   0  0  0  0  0  0  0  0  0  0  0  0
  152.4928  138.5197  153.3203 H   0  0  0  0  0  0  0  0  0  0  0  0
  150.9101  138.1590  157.3298 H   0  0  0  0  0  0  0  0  0  0  0  0
  152.8396  136.6363  157.1624 H   0  0  0  0  0  0  0  0  0  0  0  0
  153.1785  137.8993  158.3283 H   0  0  0  0  0  0  0  0  0  0  0  0
  153.8964  137.9752  156.7214 H   0  0  0  0  0  0  0  0  0  0  0  0
  152.8753  140.2286  156.6729 H   0  0  0  0  0  0  0  0  0  0  0  0
  151.0358  140.1833  158.9347 H   0  0  0  0  0  0  0  0  0  0  0  0
  152.6675  139.5446  159.0422 H   0  0  0  0  0  0  0  0  0  0  0  0
  153.6453  141.7093  158.5577 H   0  0  0  0  0  0  0  0  0  0  0  0
  152.0648  142.4854  156.7880 H   0  0  0  0  0  0  0  0  0  0  0  0
  150.7929  142.6633  157.9761 H   0  0  0  0  0  0  0  0  0  0  0  0
  153.4063  144.2407  157.8702 H   0  0  0  0  0  0  0  0  0  0  0  0
  151.8020  144.8703  157.5621 H   0  0  0  0  0  0  0  0  0  0  0  0
  152.6203  145.3918  159.8988 H   0  0  0  0  0  0  0  0  0  0  0  0
  151.1319  144.4720  159.8968 H   0  0  0  0  0  0  0  0  0  0  0  0
  153.9432  143.3177  160.3330 H   0  0  0  0  0  0  0  0  0  0  0  0
  152.6810  143.4787  161.5383 H   0  0  0  0  0  0  0  0  0  0  0  0
  148.9857  137.6052  154.1004 H   0  0  0  0  0  0  0  0  0  0  0  0
  151.2566  140.4822  156.6500 H   0  0  0  0  0  0  0  0  0  0  0  0
  1  2  1  0  0  0  0
  1 19  1  0  0  0  0
  1 20  1  0  0  0  0
  1 21  1  0  0  0  0
  2 18  2  0  0  0  0
  2  3  1  0  0  0  0
  3  4  2  0  0  0  0
  3 22  1  0  0  0  0
  4  5  1  0  0  0  0
  5  6  1  0  0  0  0
  5 18  1  0  0  0  0
  6  7  1  0  0  0  0
  6  8  1  0  0  0  0
  6 23  1  0  0  0  0
  7 24  1  0  0  0  0
  7 25  1  0  0  0  0
  7 26  1  0  0  0  0
  8  9  1  0  0  0  0
  8 10  1  0  0  0  0
  8 27  1  0  0  0  0
  9 28  1  0  0  0  0
  9 29  1  0  0  0  0
  9 30  1  0  0  0  0
 10 11  1  0  0  0  0
 10 31  1  0  0  0  0
 10 44  1  0  0  0  0
 11 12  1  0  0  0  0
 11 32  1  0  0  0  0
 11 33  1  0  0  0  0
 12 17  1  0  0  0  0
 12 13  1  0  0  0  0
 12 34  1  0  0  0  0
 13 14  1  0  0  0  0
 13 35  1  0  0  0  0
 13 36  1  0  0  0  0
 14 15  1  0  0  0  0
 14 37  1  0  0  0  0
 14 38  1  0  0  0  0
 15 16  1  0  0  0  0
 15 39  1  0  0  0  0
 15 40  1  0  0  0  0
 16 17  1  0  0  0  0
 16 41  1  0  0  0  0
 16 42  1  0  0  0  0
 18 43  1  0  0  0  0
M  CHG  1  10   1
M  END
> <s_m_source_file>
AV-unprocessed.smi

> <i_m_source_file_index>
3249

> <i_lp_mmshare_version>
43012

> <i_f3d_flags>
0

> <s_epik_input>
W0NIM11jMVtjSF1ubihbY0hdMSlbQ0BIXShbQ0gzXSlbQ0BIXShbQ0gzXSlbTkhdW0NIMl1bQ0BASF0yW0NIMl1bQ0gyXVtDSDJdW0NIMl1PMg==

> <s_epik_cmdline>
J2VwaWtfcHl0aG9uJywgJy1waCcsICc3LjAnLCAnLXRuJywgJzgnLCAnLW1hJywgJzIwMCcsICctbWV0YWxfYmluZGluZycsICctaW1hZScsICc8aW5maWxlLm1hZT4nLCAnLW9tYWUnLCAnPG91dGZpbGUubWFlPic=

> <r_lp_tautomer_probability>
1

> <r_epik_Ionization_Penalty>
0.00659207

> <r_epik_Ionization_Penalty_Charging>
0.00656881

> <r_epik_Ionization_Penalty_Neutral>
2.32662e-05

> <r_epik_State_Penalty>
0.0048654

> <r_epik_Charging_Adjusted_Penalty>
0.0114342

> <i_epik_Tot_Q>
1

> <i_epik_Tot_abs_Q>
1

> <r_epik_Metal_State_Penalty>
-0

> <b_epik_Metal_Only>
0

> <s_lp_Force_Field>
OPLS_2005

> <r_lp_Energy>
18.7987

> <b_lp_Chiralities_Consistent>
1

> <s_lp_Variant>
AV-unprocessed.smi:3249-8

> <Gold.Version>
5.8.1

> <Gold.Id.Protein>
6NUR|6NUR_protein|mol2

> <Gold.PLP.Fitness>
44.5118

> <Gold.PLP.PLP>
-39.0896

> <Gold.PLP.part.hbond>
-1.1882

> <Gold.PLP.part.metal>
0.0000

> <Gold.PLP.part.buried>
-3.8411

> <Gold.PLP.part.nonpolar>
-34.4188

> <Gold.PLP.part.repulsive>
0.1908

> <Gold.PLP.ligand.clash>
0.0000

> <Gold.PLP.ligand.torsion>
0.1964

> <Gold.PLP.Chemscore.Hbond>
0.9424

> <Gold.PLP.Chemscore.CHOScore>
0.9661

> <Gold.PLP.Chemscore.Metal>
0.0000

> <Gold.Chemscore.Hbonds>
donor molecule, donor type, donor heavy atom, donor atom, acceptor molecule, acceptor atom, score
      P1  H  7989  7998       L1     4  1.00
      L1  C    18    43       P1  7948  0.78

> <Gold.PLP.Chemscore.Internal.Correction>
0.0893

> <Gold.Rescore>
     Score         DG    S(hbond)    S(metal)    S(lipo)     H(rot)  DE(clash)    DE(int)     intcor
     16.86     -17.44       0.81        0.00     112.75       1.53       0.18       0.41       ----

> <Gold.Chemscore.Fitness>
16.8559

> <Gold.Chemscore.DG>
-17.4419

> <Gold.Chemscore.ZeroCoef>
-5.4800

> <Gold.Chemscore.Hbond>
0.8070

> <Gold.Chemscore.Metal>
0.0000

> <Gold.Chemscore.Lipo>
112.7497

> <Gold.Chemscore.Internal_Hbond>
0.0000

> <Gold.Chemscore.DEClash>
0.1775

> <Gold.Chemscore.DEInternal>
0.4085

> <Gold.Chemscore.Rot>
1.5333

> <Gold.Chemscore.Internal.Correction>
   9.000000E+99

> <Gold.Chemscore.Hbonds>
donor molecule, donor type, donor heavy atom, donor atom, acceptor molecule, acceptor atom, score
      P1  H  7989  7998       L1     4  0.11

> <Gold.Chemscore.Hbond.Weighted>
-2.6953

> <Gold.Chemscore.Metal.Weighted>
-0.0000

> <Gold.Chemscore.Lipo.Weighted>
-13.1917

> <Gold.Chemscore.Internal_Hbond.Weighted>
0.0000

> <Gold.Chemscore.DEClash.Weighted>
0.1775

> <Gold.Chemscore.DEInternal.Weighted>
0.4085

> <Gold.Chemscore.Rot.Weighted>
3.9252

> <Gold.Chemscore.Internal.Correction.Weighted>
   9.000000E+99

> <Gold.Protein.RotatedTorsions>
[ 6907 6896 6895 6894 ] final   91.63 input  -60.11 | X-H torsion
[ 7974 7965 7964 7962 ] final -132.43 input  175.53 | X-H torsion
[ 8008 7997 7996 7995 ] final -127.41 input   59.86 | X-H torsion
[ 10167 10162 10161 10158 ] final  155.11 input  -65.29 | X-H torsion
[ 10718 10713 10712 10709 ] final   47.09 input   66.30 | X-H torsion
[ 10763 10752 10751 10750 ] final  175.90 input  -60.55 | X-H torsion
[ 11005 11000 10999 10996 ] final  130.60 input  -57.11 | X-H torsion

> <Gold.Protein.ActiveResidues>
 VAL166  LYS551  ARG553  GLY616  TRP617  ASP618  TYR619  PRO620  LYS621  CYS622 
 ASP623  PHE694  ASN695  SER759  ASP760  ASP761  ALA762  ILE779  LEU786  VAL792 
 PHE793  MET794  SER795  GLU796  ALA797  LYS798  CYS799  TRP800  GLU811  SER814 

> <Gold.Protein.RotatedAtoms>
  152.5450  134.1628  159.8564 H   0  0  0  0  0  0  0  0  0  0  0  0  # atno 6907 bound_to 6896
  151.1644  133.4817  159.2601 H   0  0  0  0  0  0  0  0  0  0  0  0  # atno 6908 bound_to 6896
  151.1339  135.0156  159.8650 H   0  0  0  0  0  0  0  0  0  0  0  0  # atno 6909 bound_to 6896
  144.9287  140.7102  143.4920 H   0  0  0  0  0  0  0  0  0  0  0  0  # atno 7974 bound_to 7965
  155.2457  140.0430  157.2980 H   0  0  0  0  0  0  0  0  0  0  0  0  # atno 8008 bound_to 7997
  154.5800  140.2398  155.8036 H   0  0  0  0  0  0  0  0  0  0  0  0  # atno 8009 bound_to 7997
  156.2186  140.2977  155.9907 H   0  0  0  0  0  0  0  0  0  0  0  0  # atno 8010 bound_to 7997
  139.4822  144.5128  151.7998 H   0  0  0  0  0  0  0  0  0  0  0  0  # atno 10167 bound_to 10162
  157.4549  130.8161  149.7826 H   0  0  0  0  0  0  0  0  0  0  0  0  # atno 10718 bound_to 10713
  154.4739  135.2772  155.1622 H   0  0  0  0  0  0  0  0  0  0  0  0  # atno 10763 bound_to 10752
  154.3360  135.6180  153.5577 H   0  0  0  0  0  0  0  0  0  0  0  0  # atno 10764 bound_to 10752
  152.9867  135.5777  154.5125 H   0  0  0  0  0  0  0  0  0  0  0  0  # atno 10765 bound_to 10752
  139.9681  134.9585  156.9317 H   0  0  0  0  0  0  0  0  0  0  0  0  # atno 11005 bound_to 11000
  145.3178  139.1798  143.4604 LP  0  0  0  0  0  0  0  0  0  0  0  0  # atno 17320 bound_to 7965
  146.3237  140.3191  142.8632 LP  0  0  0  0  0  0  0  0  0  0  0  0  # atno 17321 bound_to 7965
  140.4633  144.1691  150.5909 LP  0  0  0  0  0  0  0  0  0  0  0  0  # atno 17342 bound_to 10162
  140.4461  143.2506  151.9409 LP  0  0  0  0  0  0  0  0  0  0  0  0  # atno 17343 bound_to 10162
  156.0003  130.3884  150.2632 LP  0  0  0  0  0  0  0  0  0  0  0  0  # atno 17370 bound_to 10713
  157.0806  131.0142  151.3158 LP  0  0  0  0  0  0  0  0  0  0  0  0  # atno 17371 bound_to 10713
  140.5352  134.0774  155.7326 LP  0  0  0  0  0  0  0  0  0  0  0  0  # atno 17394 bound_to 11000
  141.1361  133.9219  157.2431 LP  0  0  0  0  0  0  0  0  0  0  0  0  # atno 17395 bound_to 11000

$$$$
