AV-unprocessed.smi:1390|AV-procd|sdf|5656|dock10
  -GOLD-   22720 5283D 1   1.00000     0.00000
 Structure written by MMmdl.
 44 45  0  0  0  0  0  0  0  0  1 V2000
  151.8521  145.3922  159.3877 C   0  0  0  0  0  0  0  0  0  0  0  0
  152.4501  143.9825  159.3391 C   0  0  2  0  0  0  0  0  0  0  0  0
  151.8092  143.1186  158.2357 C   0  0  0  0  0  0  0  0  0  0  0  0
  152.3467  141.7653  158.2866 N   0  0  0  0  0  0  0  0  0  0  0  0
  151.9020  140.9470  157.2397 C   0  0  0  0  0  0  0  0  0  0  0  0
  150.7910  141.3032  156.4405 C   0  0  0  0  0  0  0  0  0  0  0  0
  150.3923  140.4304  155.4103 C   0  0  0  0  0  0  0  0  0  0  0  0
  151.1077  139.2322  155.2124 C   0  0  0  0  0  0  0  0  0  0  0  0
  150.7008  138.2757  154.1021 C   0  0  0  0  0  0  0  0  0  0  0  0
  149.5586  137.4390  154.4492 N   0  0  0  0  0  0  0  0  0  0  0  0
  149.4552  136.6981  155.5625 C   0  0  0  0  0  0  0  0  0  0  0  0
  150.3460  136.6163  156.4077 O   0  0  0  0  0  0  0  0  0  0  0  0
  148.1546  135.9163  155.7452 C   0  0  0  0  0  0  0  0  0  0  0  0
  148.0857  134.8884  154.7686 O   0  0  0  0  0  0  0  0  0  0  0  0
  148.9712  133.8131  155.0373 C   0  0  0  0  0  0  0  0  0  0  0  0
  148.6540  132.6440  154.0969 C   0  0  0  0  0  0  0  0  0  0  0  0
  148.9301  133.0013  152.8433 F   0  0  0  0  0  0  0  0  0  0  0  0
  149.3956  131.5829  154.4128 F   0  0  0  0  0  0  0  0  0  0  0  0
  147.3616  132.3273  154.1768 F   0  0  0  0  0  0  0  0  0  0  0  0
  152.2101  138.9745  156.0586 C   0  0  0  0  0  0  0  0  0  0  0  0
  152.5982  139.8056  157.0488 N   0  0  0  0  0  0  0  0  0  0  0  0
  152.2044  141.1532  159.6010 C   0  0  0  0  0  0  0  0  0  0  0  0
  152.8251  142.0630  160.6744 C   0  0  0  0  0  0  0  0  0  0  0  0
  152.2335  143.3575  160.6026 O   0  0  0  0  0  0  0  0  0  0  0  0
  152.0105  145.9178  158.4456 H   0  0  0  0  0  0  0  0  0  0  0  0
  152.3132  145.9835  160.1792 H   0  0  0  0  0  0  0  0  0  0  0  0
  150.7789  145.3597  159.5773 H   0  0  0  0  0  0  0  0  0  0  0  0
  153.5239  144.0667  159.1624 H   0  0  0  0  0  0  0  0  0  0  0  0
  150.7264  143.0912  158.3666 H   0  0  0  0  0  0  0  0  0  0  0  0
  152.0054  143.5543  157.2550 H   0  0  0  0  0  0  0  0  0  0  0  0
  150.2521  142.2238  156.6108 H   0  0  0  0  0  0  0  0  0  0  0  0
  149.5472  140.6787  154.7851 H   0  0  0  0  0  0  0  0  0  0  0  0
  150.4558  138.8433  153.2033 H   0  0  0  0  0  0  0  0  0  0  0  0
  151.5642  137.6529  153.8622 H   0  0  0  0  0  0  0  0  0  0  0  0
  148.7785  137.4389  153.8077 H   0  0  0  0  0  0  0  0  0  0  0  0
  148.1335  135.4923  156.7501 H   0  0  0  0  0  0  0  0  0  0  0  0
  147.3025  136.5910  155.6468 H   0  0  0  0  0  0  0  0  0  0  0  0
  150.0039  134.1350  154.8935 H   0  0  0  0  0  0  0  0  0  0  0  0
  148.8686  133.4953  156.0763 H   0  0  0  0  0  0  0  0  0  0  0  0
  152.8042  138.0799  155.9432 H   0  0  0  0  0  0  0  0  0  0  0  0
  151.1490  140.9898  159.8223 H   0  0  0  0  0  0  0  0  0  0  0  0
  152.6918  140.1774  159.6084 H   0  0  0  0  0  0  0  0  0  0  0  0
  152.6511  141.6465  161.6666 H   0  0  0  0  0  0  0  0  0  0  0  0
  153.9059  142.1379  160.5448 H   0  0  0  0  0  0  0  0  0  0  0  0
  1  2  1  0  0  0  0
  1 25  1  0  0  0  0
  1 26  1  0  0  0  0
  1 27  1  0  0  0  0
  2 24  1  0  0  0  0
  2  3  1  0  0  0  0
  2 28  1  0  0  0  0
  3  4  1  0  0  0  0
  3 29  1  0  0  0  0
  3 30  1  0  0  0  0
  4  5  1  0  0  0  0
  4 22  1  0  0  0  0
  5 21  1  0  0  0  0
  5  6  2  0  0  0  0
  6  7  1  0  0  0  0
  6 31  1  0  0  0  0
  7  8  2  0  0  0  0
  7 32  1  0  0  0  0
  8  9  1  0  0  0  0
  8 20  1  0  0  0  0
  9 10  1  0  0  0  0
  9 33  1  0  0  0  0
  9 34  1  0  0  0  0
 10 11  1  0  0  0  0
 10 35  1  0  0  0  0
 11 12  2  0  0  0  0
 11 13  1  0  0  0  0
 13 14  1  0  0  0  0
 13 36  1  0  0  0  0
 13 37  1  0  0  0  0
 14 15  1  0  0  0  0
 15 16  1  0  0  0  0
 15 38  1  0  0  0  0
 15 39  1  0  0  0  0
 16 17  1  0  0  0  0
 16 18  1  0  0  0  0
 16 19  1  0  0  0  0
 20 21  2  0  0  0  0
 20 40  1  0  0  0  0
 22 23  1  0  0  0  0
 22 41  1  0  0  0  0
 22 42  1  0  0  0  0
 23 24  1  0  0  0  0
 23 43  1  0  0  0  0
 23 44  1  0  0  0  0
M  END
> <s_m_source_file>
AV-unprocessed.smi

> <i_m_source_file_index>
1390

> <i_lp_mmshare_version>
43012

> <i_f3d_flags>
0

> <s_epik_input>
W0NIM11bQ0BASF0xW0NIMl1OKFtDSDJdW0NIMl1PMSljMltjSF1bY0hdYyhbY0hdbjIpW0NIMl1bTkhdQyg9TylbQ0gyXU9bQ0gyXUMoRikoRilG

> <s_epik_cmdline>
J2VwaWtfcHl0aG9uJywgJy1waCcsICc3LjAnLCAnLXRuJywgJzgnLCAnLW1hJywgJzIwMCcsICctbWV0YWxfYmluZGluZycsICctaW1hZScsICc8aW5maWxlLm1hZT4nLCAnLW9tYWUnLCAnPG91dGZpbGUubWFlPic=

> <r_lp_tautomer_probability>
1

> <r_epik_Ionization_Penalty>
0.00481831

> <r_epik_Ionization_Penalty_Charging>
0

> <r_epik_Ionization_Penalty_Neutral>
0.00481831

> <r_epik_State_Penalty>
0.00349373

> <r_epik_Charging_Adjusted_Penalty>
0.00349373

> <i_epik_Tot_Q>
0

> <i_epik_Tot_abs_Q>
0

> <r_epik_Metal_State_Penalty>
-0

> <b_epik_Metal_Only>
0

> <s_lp_Force_Field>
OPLS_2005

> <r_lp_Energy>
18.3567

> <b_lp_Chiralities_Consistent>
1

> <s_lp_Variant>
AV-unprocessed.smi:1390-1

> <Gold.Version>
5.8.1

> <Gold.Id.Protein>
6NUR|6NUR_protein|mol2

> <Gold.PLP.Fitness>
47.8455

> <Gold.PLP.PLP>
-45.6617

> <Gold.PLP.part.hbond>
-2.0000

> <Gold.PLP.part.metal>
0.0000

> <Gold.PLP.part.buried>
-5.3943

> <Gold.PLP.part.nonpolar>
-38.6302

> <Gold.PLP.part.repulsive>
0.1832

> <Gold.PLP.ligand.clash>
0.0499

> <Gold.PLP.ligand.torsion>
0.6841

> <Gold.PLP.Chemscore.Hbond>
1.1258

> <Gold.PLP.Chemscore.CHOScore>
0.0000

> <Gold.PLP.Chemscore.Metal>
0.0000

> <Gold.Chemscore.Hbonds>
donor molecule, donor type, donor heavy atom, donor atom, acceptor molecule, acceptor atom, score
      L1  H    10    35       P1  7948  0.13
      P1  H  7997  8008       L1    21  1.00

> <Gold.PLP.Chemscore.Internal.Correction>
0.2244

> <Gold.Rescore>
     Score         DG    S(hbond)    S(metal)    S(lipo)     H(rot)  DE(clash)    DE(int)     intcor
     11.91     -13.53       0.90        0.00      99.26       2.57       0.06       1.57       ----

> <Gold.Chemscore.Fitness>
11.9080

> <Gold.Chemscore.DG>
-13.5296

> <Gold.Chemscore.ZeroCoef>
-5.4800

> <Gold.Chemscore.Hbond>
0.8997

> <Gold.Chemscore.Metal>
0.0000

> <Gold.Chemscore.Lipo>
99.2556

> <Gold.Chemscore.Internal_Hbond>
0.0000

> <Gold.Chemscore.DEClash>
0.0563

> <Gold.Chemscore.DEInternal>
1.5652

> <Gold.Chemscore.Rot>
2.5657

> <Gold.Chemscore.Internal.Correction>
   9.000000E+99

> <Gold.Chemscore.Hbonds>
donor molecule, donor type, donor heavy atom, donor atom, acceptor molecule, acceptor atom, score
      L1  H    10    35       P1  7948  0.13
      P1  H  7997  8008       L1    21  0.22

> <Gold.Chemscore.Hbond.Weighted>
-3.0049

> <Gold.Chemscore.Metal.Weighted>
-0.0000

> <Gold.Chemscore.Lipo.Weighted>
-11.6129

> <Gold.Chemscore.Internal_Hbond.Weighted>
0.0000

> <Gold.Chemscore.DEClash.Weighted>
0.0563

> <Gold.Chemscore.DEInternal.Weighted>
1.5652

> <Gold.Chemscore.Rot.Weighted>
6.5682

> <Gold.Chemscore.Internal.Correction.Weighted>
   9.000000E+99

> <Gold.Protein.RotatedTorsions>
[ 6907 6896 6895 6894 ] final  -53.03 input  -60.11 | X-H torsion
[ 7974 7965 7964 7962 ] final -164.06 input  175.53 | X-H torsion
[ 8008 7997 7996 7995 ] final  -54.23 input   59.86 | X-H torsion
[ 10167 10162 10161 10158 ] final  -43.64 input  -65.29 | X-H torsion
[ 10718 10713 10712 10709 ] final  105.21 input   66.30 | X-H torsion
[ 10763 10752 10751 10750 ] final  144.93 input  -60.55 | X-H torsion
[ 11005 11000 10999 10996 ] final  165.72 input  -57.11 | X-H torsion

> <Gold.Protein.ActiveResidues>
 VAL166  LYS551  ARG553  GLY616  TRP617  ASP618  TYR619  PRO620  LYS621  CYS622 
 ASP623  PHE694  ASN695  SER759  ASP760  ASP761  ALA762  ILE779  LEU786  VAL792 
 PHE793  MET794  SER795  GLU796  ALA797  LYS798  CYS799  TRP800  GLU811  SER814 

> <Gold.Protein.RotatedAtoms>
  150.8464  134.7774  159.6973 H   0  0  0  0  0  0  0  0  0  0  0  0  # atno 6907 bound_to 6896
  152.4540  134.5330  159.9826 H   0  0  0  0  0  0  0  0  0  0  0  0  # atno 6908 bound_to 6896
  151.5459  133.3387  159.2980 H   0  0  0  0  0  0  0  0  0  0  0  0  # atno 6909 bound_to 6896
  144.7307  140.3016  143.6203 H   0  0  0  0  0  0  0  0  0  0  0  0  # atno 7974 bound_to 7965
  154.4156  140.1181  156.5282 H   0  0  0  0  0  0  0  0  0  0  0  0  # atno 8008 bound_to 7997
  155.6633  140.3496  155.4771 H   0  0  0  0  0  0  0  0  0  0  0  0  # atno 8009 bound_to 7997
  155.9695  140.1138  157.0815 H   0  0  0  0  0  0  0  0  0  0  0  0  # atno 8010 bound_to 7997
  140.6926  143.2972  151.3381 H   0  0  0  0  0  0  0  0  0  0  0  0  # atno 10167 bound_to 10162
  157.6713  131.0822  150.5823 H   0  0  0  0  0  0  0  0  0  0  0  0  # atno 10718 bound_to 10713
  153.9970  135.2927  155.3406 H   0  0  0  0  0  0  0  0  0  0  0  0  # atno 10763 bound_to 10752
  154.7181  135.5121  153.8773 H   0  0  0  0  0  0  0  0  0  0  0  0  # atno 10764 bound_to 10752
  153.0783  135.6671  154.0216 H   0  0  0  0  0  0  0  0  0  0  0  0  # atno 10765 bound_to 10752
  140.2590  134.7917  157.3573 H   0  0  0  0  0  0  0  0  0  0  0  0  # atno 11005 bound_to 11000
  145.7754  139.1872  143.2188 LP  0  0  0  0  0  0  0  0  0  0  0  0  # atno 17320 bound_to 7965
  146.0877  140.7692  142.9611 LP  0  0  0  0  0  0  0  0  0  0  0  0  # atno 17321 bound_to 7965
  139.6346  144.0656  152.2505 LP  0  0  0  0  0  0  0  0  0  0  0  0  # atno 17342 bound_to 10162
  140.0141  144.6202  150.7622 LP  0  0  0  0  0  0  0  0  0  0  0  0  # atno 17343 bound_to 10162
  156.6123  130.4383  149.5854 LP  0  0  0  0  0  0  0  0  0  0  0  0  # atno 17370 bound_to 10713
  156.2420  130.6857  151.1565 LP  0  0  0  0  0  0  0  0  0  0  0  0  # atno 17371 bound_to 10713
  140.1483  134.4883  155.7980 LP  0  0  0  0  0  0  0  0  0  0  0  0  # atno 17394 bound_to 11000
  141.2192  133.6852  156.7333 LP  0  0  0  0  0  0  0  0  0  0  0  0  # atno 17395 bound_to 11000

$$$$
