AV-unprocessed.smi:2061|AV-procd|sdf|8376|dock2
  -GOLD-   2272011 53D 1   1.00000     0.00000
 Structure written by MMmdl.
 44 45  0  0  0  0  0  0  0  0  2 V2000
  147.8856  134.3293  154.6600 C   0  0  0  0  0  0  0  0  0  0  0  0
  148.9729  135.3203  154.8993 C   0  0  0  0  0  0  0  0  0  0  0  0
  150.3230  135.1944  155.0647 C   0  0  0  0  0  0  0  0  0  0  0  0
  150.7544  136.5366  155.2488 C   0  0  0  0  0  0  0  0  0  0  0  0
  152.0165  136.9363  155.4682 N   0  5  0  0  0  0  0  0  0  0  0  0
  152.2972  138.2501  155.6294 C   0  0  0  0  0  0  0  0  0  0  0  0
  153.2131  138.8741  155.0885 O   0  0  0  0  0  0  0  0  0  0  0  0
  151.4680  138.8792  156.4749 N   0  0  0  0  0  0  0  0  0  0  0  0
  151.5404  140.2879  156.8568 C   0  0  0  0  0  0  0  0  0  0  0  0
  150.6694  140.6412  158.0988 C   0  0  2  0  0  0  0  0  0  0  0  0
  149.3087  141.2014  157.6105 C   0  0  0  0  0  0  0  0  0  0  0  0
  151.3487  141.5453  159.0573 N   0  0  0  0  0  0  0  0  0  0  0  0
  152.6854  141.0656  159.4278 C   0  0  0  0  0  0  0  0  0  0  0  0
  153.4310  141.9978  160.4036 C   0  0  2  0  0  0  0  0  0  0  0  0
  152.8878  141.9363  161.8415 C   0  0  0  0  0  0  0  0  0  0  0  0
  153.4536  143.3312  159.8995 O   0  0  0  0  0  0  0  0  0  0  0  0
  152.1778  143.8561  159.5494 C   0  0  1  0  0  0  0  0  0  0  0  0
  152.3855  145.2593  158.9695 C   0  0  0  0  0  0  0  0  0  0  0  0
  151.4880  142.9127  158.5477 C   0  0  0  0  0  0  0  0  0  0  0  0
  149.7521  137.3988  155.2156 N   0  0  0  0  0  0  0  0  0  0  0  0
  148.6068  136.6275  154.9850 O   0  0  0  0  0  0  0  0  0  0  0  0
  147.6821  133.7560  155.5644 H   0  0  0  0  0  0  0  0  0  0  0  0
  148.1670  133.6308  153.8719 H   0  0  0  0  0  0  0  0  0  0  0  0
  146.9620  134.8240  154.3581 H   0  0  0  0  0  0  0  0  0  0  0  0
  150.9103  134.2887  155.0529 H   0  0  0  0  0  0  0  0  0  0  0  0
  150.7312  138.3309  156.8937 H   0  0  0  0  0  0  0  0  0  0  0  0
  152.5945  140.5103  157.0160 H   0  0  0  0  0  0  0  0  0  0  0  0
  151.2259  140.8861  156.0014 H   0  0  0  0  0  0  0  0  0  0  0  0
  150.4579  139.7055  158.6186 H   0  0  0  0  0  0  0  0  0  0  0  0
  148.8373  140.5612  156.8658 H   0  0  0  0  0  0  0  0  0  0  0  0
  149.4266  142.1894  157.1647 H   0  0  0  0  0  0  0  0  0  0  0  0
  148.5793  141.2781  158.4154 H   0  0  0  0  0  0  0  0  0  0  0  0
  152.6307  140.0849  159.8967 H   0  0  0  0  0  0  0  0  0  0  0  0
  153.2873  140.9457  158.5256 H   0  0  0  0  0  0  0  0  0  0  0  0
  154.4709  141.6725  160.4453 H   0  0  0  0  0  0  0  0  0  0  0  0
  152.9974  140.9329  162.2537 H   0  0  0  0  0  0  0  0  0  0  0  0
  151.8302  142.1938  161.8923 H   0  0  0  0  0  0  0  0  0  0  0  0
  153.4315  142.6217  162.4920 H   0  0  0  0  0  0  0  0  0  0  0  0
  151.5631  143.9458  160.4455 H   0  0  0  0  0  0  0  0  0  0  0  0
  151.4342  145.7132  158.6906 H   0  0  0  0  0  0  0  0  0  0  0  0
  153.0160  145.2293  158.0804 H   0  0  0  0  0  0  0  0  0  0  0  0
  152.8653  145.9145  159.6968 H   0  0  0  0  0  0  0  0  0  0  0  0
  152.0424  142.9017  157.6078 H   0  0  0  0  0  0  0  0  0  0  0  0
  150.5132  143.3457  158.3352 H   0  0  0  0  0  0  0  0  0  0  0  0
  1  2  1  0  0  0  0
  1 22  1  0  0  0  0
  1 23  1  0  0  0  0
  1 24  1  0  0  0  0
  2 21  1  0  0  0  0
  2  3  2  0  0  0  0
  3  4  1  0  0  0  0
  3 25  1  0  0  0  0
  4  5  1  0  0  0  0
  4 20  2  0  0  0  0
  5  6  1  0  0  0  0
  6  7  2  0  0  0  0
  6  8  1  0  0  0  0
  8  9  1  0  0  0  0
  8 26  1  0  0  0  0
  9 10  1  0  0  0  0
  9 27  1  0  0  0  0
  9 28  1  0  0  0  0
 10 11  1  0  0  0  0
 10 12  1  0  0  0  0
 10 29  1  0  0  0  0
 11 30  1  0  0  0  0
 11 31  1  0  0  0  0
 11 32  1  0  0  0  0
 12 19  1  0  0  0  0
 12 13  1  0  0  0  0
 13 14  1  0  0  0  0
 13 33  1  0  0  0  0
 13 34  1  0  0  0  0
 14 15  1  0  0  0  0
 14 16  1  0  0  0  0
 14 35  1  0  0  0  0
 15 36  1  0  0  0  0
 15 37  1  0  0  0  0
 15 38  1  0  0  0  0
 16 17  1  0  0  0  0
 17 18  1  0  0  0  0
 17 19  1  0  0  0  0
 17 39  1  0  0  0  0
 18 40  1  0  0  0  0
 18 41  1  0  0  0  0
 18 42  1  0  0  0  0
 19 43  1  0  0  0  0
 19 44  1  0  0  0  0
 20 21  1  0  0  0  0
M  CHG  1   5  -1
M  END
> <s_m_source_file>
AV-unprocessed.smi

> <i_m_source_file_index>
2061

> <i_lp_mmshare_version>
43012

> <i_f3d_flags>
0

> <s_epik_input>
W0NIM11jMVtjSF1jKG5vMSlbTkhdQyg9TylbTkhdW0NIMl1bQ0BIXShbQ0gzXSlOMltDSDJdW0NAQEhdKFtDSDNdKU9bQ0BASF0oW0NIM10pW0NIMl0y

> <s_epik_cmdline>
J2VwaWtfcHl0aG9uJywgJy1waCcsICc3LjAnLCAnLXRuJywgJzgnLCAnLW1hJywgJzIwMCcsICctbWV0YWxfYmluZGluZycsICctaW1hZScsICc8aW5maWxlLm1hZT4nLCAnLW9tYWUnLCAnPG91dGZpbGUubWFlPic=

> <r_epik_Ionization_Penalty>
6.88367

> <r_epik_Ionization_Penalty_Charging>
6.57198

> <r_epik_Ionization_Penalty_Neutral>
0.311681

> <r_epik_State_Penalty>
6.77619

> <r_epik_Charging_Adjusted_Penalty>
13.3482

> <i_epik_Tot_Q>
-1

> <i_epik_Tot_abs_Q>
1

> <r_epik_Metal_State_Penalty>
2.70524

> <b_epik_Metal_Only>
1

> <s_lp_Force_Field>
OPLS_2005

> <r_lp_Energy>
24.3932

> <b_lp_Chiralities_Consistent>
1

> <s_lp_Variant>
AV-unprocessed.smi:2061-17

> <Gold.Version>
5.8.1

> <Gold.Id.Protein>
6NUR|6NUR_protein|mol2

> <Gold.PLP.Fitness>
42.8683

> <Gold.PLP.PLP>
-36.5934

> <Gold.PLP.part.hbond>
-2.0000

> <Gold.PLP.part.metal>
0.0000

> <Gold.PLP.part.buried>
-6.0615

> <Gold.PLP.part.nonpolar>
-29.3328

> <Gold.PLP.part.repulsive>
0.3575

> <Gold.PLP.ligand.clash>
0.4123

> <Gold.PLP.ligand.torsion>
1.0981

> <Gold.PLP.Chemscore.Hbond>
2.9433

> <Gold.PLP.Chemscore.CHOScore>
0.0000

> <Gold.PLP.Chemscore.Metal>
0.0000

> <Gold.Chemscore.Hbonds>
donor molecule, donor type, donor heavy atom, donor atom, acceptor molecule, acceptor atom, score
      P1  H  7997  8008       L1     7  1.00
      P1  H 10752 10764       L1     5  1.98

> <Gold.PLP.Chemscore.Internal.Correction>
0.0536

> <Gold.Rescore>
     Score         DG    S(hbond)    S(metal)    S(lipo)     H(rot)  DE(clash)    DE(int)     intcor
     13.53     -16.33       1.28        0.00      89.38       1.52       0.16       2.64       ----

> <Gold.Chemscore.Fitness>
13.5279

> <Gold.Chemscore.DG>
-16.3253

> <Gold.Chemscore.ZeroCoef>
-5.4800

> <Gold.Chemscore.Hbond>
1.2803

> <Gold.Chemscore.Metal>
0.0000

> <Gold.Chemscore.Lipo>
89.3834

> <Gold.Chemscore.Internal_Hbond>
0.0000

> <Gold.Chemscore.DEClash>
0.1560

> <Gold.Chemscore.DEInternal>
2.6414

> <Gold.Chemscore.Rot>
1.5190

> <Gold.Chemscore.Internal.Correction>
   9.000000E+99

> <Gold.Chemscore.Hbonds>
donor molecule, donor type, donor heavy atom, donor atom, acceptor molecule, acceptor atom, score
      P1  H  7997  8008       L1     7  0.95
      P1  H 10752 10764       L1     5  0.28

> <Gold.Chemscore.Hbond.Weighted>
-4.2761

> <Gold.Chemscore.Metal.Weighted>
-0.0000

> <Gold.Chemscore.Lipo.Weighted>
-10.4579

> <Gold.Chemscore.Internal_Hbond.Weighted>
0.0000

> <Gold.Chemscore.DEClash.Weighted>
0.1560

> <Gold.Chemscore.DEInternal.Weighted>
2.6414

> <Gold.Chemscore.Rot.Weighted>
3.8886

> <Gold.Chemscore.Internal.Correction.Weighted>
   9.000000E+99

> <Gold.Protein.RotatedTorsions>
[ 6907 6896 6895 6894 ] final  -66.88 input  -60.11 | X-H torsion
[ 7974 7965 7964 7962 ] final  144.32 input  175.53 | X-H torsion
[ 8008 7997 7996 7995 ] final  -10.35 input   59.86 | X-H torsion
[ 10167 10162 10161 10158 ] final    6.22 input  -65.29 | X-H torsion
[ 10718 10713 10712 10709 ] final -102.45 input   66.30 | X-H torsion
[ 10763 10752 10751 10750 ] final  -55.58 input  -60.55 | X-H torsion
[ 11005 11000 10999 10996 ] final  147.99 input  -57.11 | X-H torsion

> <Gold.Protein.ActiveResidues>
 VAL166  LYS551  ARG553  GLY616  TRP617  ASP618  TYR619  PRO620  LYS621  CYS622 
 ASP623  PHE694  ASN695  SER759  ASP760  ASP761  ALA762  ILE779  LEU786  VAL792 
 PHE793  MET794  SER795  GLU796  ALA797  LYS798  CYS799  TRP800  GLU811  SER814 

> <Gold.Protein.RotatedAtoms>
  150.7440  134.5959  159.6011 H   0  0  0  0  0  0  0  0  0  0  0  0  # atno 6907 bound_to 6896
  152.3334  134.7226  160.0292 H   0  0  0  0  0  0  0  0  0  0  0  0  # atno 6908 bound_to 6896
  151.7703  133.3305  159.3479 H   0  0  0  0  0  0  0  0  0  0  0  0  # atno 6909 bound_to 6896
  144.8845  139.5649  143.5827 H   0  0  0  0  0  0  0  0  0  0  0  0  # atno 7974 bound_to 7965
  154.5563  140.2331  155.8406 H   0  0  0  0  0  0  0  0  0  0  0  0  # atno 8008 bound_to 7997
  156.1991  140.3057  155.9448 H   0  0  0  0  0  0  0  0  0  0  0  0  # atno 8009 bound_to 7997
  155.2974  140.0429  157.3018 H   0  0  0  0  0  0  0  0  0  0  0  0  # atno 8010 bound_to 7997
  140.6440  143.7707  150.7470 H   0  0  0  0  0  0  0  0  0  0  0  0  # atno 10167 bound_to 10162
  156.0229  130.5420  150.7110 H   0  0  0  0  0  0  0  0  0  0  0  0  # atno 10718 bound_to 10713
  154.1931  135.6424  153.5065 H   0  0  0  0  0  0  0  0  0  0  0  0  # atno 10763 bound_to 10752
  153.0030  135.5433  154.6394 H   0  0  0  0  0  0  0  0  0  0  0  0  # atno 10764 bound_to 10752
  154.5788  135.2923  155.0726 H   0  0  0  0  0  0  0  0  0  0  0  0  # atno 10765 bound_to 10752
  140.0922  134.9034  157.1668 H   0  0  0  0  0  0  0  0  0  0  0  0  # atno 11005 bound_to 11000
  146.3016  139.7444  142.9087 LP  0  0  0  0  0  0  0  0  0  0  0  0  # atno 17320 bound_to 7965
  145.3893  141.0370  143.3133 LP  0  0  0  0  0  0  0  0  0  0  0  0  # atno 17321 bound_to 7965
  140.1344  143.4497  152.2234 LP  0  0  0  0  0  0  0  0  0  0  0  0  # atno 17342 bound_to 10162
  139.5649  144.7429  151.4049 LP  0  0  0  0  0  0  0  0  0  0  0  0  # atno 17343 bound_to 10162
  157.4748  131.0896  151.0602 LP  0  0  0  0  0  0  0  0  0  0  0  0  # atno 17370 bound_to 10713
  157.1052  130.5998  149.5469 LP  0  0  0  0  0  0  0  0  0  0  0  0  # atno 17371 bound_to 10713
  140.3336  134.2782  155.7223 LP  0  0  0  0  0  0  0  0  0  0  0  0  # atno 17394 bound_to 11000
  141.2081  133.7787  157.0078 LP  0  0  0  0  0  0  0  0  0  0  0  0  # atno 17395 bound_to 11000

$$$$
