AV-unprocessed.smi:2119|AV-procd|sdf|8631|dock6
  -GOLD-   2272011373D 1   1.00000     0.00000
 Structure written by MMmdl.
 47 49  0  0  0  0  0  0  0  0  1 V2000
  150.1760  134.9208  155.9803 O   0  0  0  0  0  0  0  0  0  0  0  0
  149.8509  135.2864  154.8512 C   0  0  0  0  0  0  0  0  0  0  0  0
  149.0814  134.5554  154.0348 N   0  0  0  0  0  0  0  0  0  0  0  0
  148.5236  133.2513  154.3732 C   0  0  0  0  0  0  0  0  0  0  0  0
  148.1158  132.4552  153.1052 C   0  0  1  0  0  0  0  0  0  0  0  0
  148.4354  130.9323  153.2341 C   0  0  2  0  0  0  0  0  0  0  0  0
  147.4840  130.0922  154.0922 C   0  0  0  0  0  0  0  0  0  0  0  0
  148.4167  129.3041  155.0115 C   0  0  0  0  0  0  0  0  0  0  0  0
  149.6448  129.2571  154.3037 O   0  0  0  0  0  0  0  0  0  0  0  0
  149.8374  130.5387  153.7274 C   0  0  0  0  0  0  0  0  0  0  0  0
  146.7746  132.7758  152.5757 N   0  0  0  0  0  0  0  0  0  0  0  0
  146.3349  131.8657  151.5199 C   0  0  0  0  0  0  0  0  0  0  0  0
  144.8818  132.1392  151.1002 C   0  0  0  0  0  0  0  0  0  0  0  0
  144.7614  133.4931  150.6782 O   0  0  0  0  0  0  0  0  0  0  0  0
  145.1269  134.4177  151.6969 C   0  0  0  0  0  0  0  0  0  0  0  0
  146.5751  134.1600  152.1505 C   0  0  0  0  0  0  0  0  0  0  0  0
  150.2181  136.4393  154.2657 N   0  0  0  0  0  0  0  0  0  0  0  0
  151.0070  137.4988  154.7920 C   0  0  0  0  0  0  0  0  0  0  0  0
  152.0536  137.3327  155.7320 C   0  0  0  0  0  0  0  0  0  0  0  0
  152.7471  138.4713  156.1857 C   0  0  0  0  0  0  0  0  0  0  0  0
  152.3661  139.7334  155.6909 C   0  0  0  0  0  0  0  0  0  0  0  0
  151.3641  139.9083  154.8040 N   0  0  0  0  0  0  0  0  0  0  0  0
  150.7043  138.8122  154.3731 C   0  0  0  0  0  0  0  0  0  0  0  0
  148.8650  134.9236  153.1201 H   0  0  0  0  0  0  0  0  0  0  0  0
  149.2494  132.6876  154.9610 H   0  0  0  0  0  0  0  0  0  0  0  0
  147.6653  133.4265  155.0208 H   0  0  0  0  0  0  0  0  0  0  0  0
  148.8074  132.7893  152.3300 H   0  0  0  0  0  0  0  0  0  0  0  0
  148.3604  130.5158  152.2283 H   0  0  0  0  0  0  0  0  0  0  0  0
  146.7580  130.6659  154.6674 H   0  0  0  0  0  0  0  0  0  0  0  0
  146.9197  129.4104  153.4546 H   0  0  0  0  0  0  0  0  0  0  0  0
  148.5645  129.8314  155.9551 H   0  0  0  0  0  0  0  0  0  0  0  0
  148.0422  128.3049  155.2348 H   0  0  0  0  0  0  0  0  0  0  0  0
  150.5645  130.4936  152.9164 H   0  0  0  0  0  0  0  0  0  0  0  0
  150.2320  131.2178  154.4803 H   0  0  0  0  0  0  0  0  0  0  0  0
  146.9707  131.9678  150.6408 H   0  0  0  0  0  0  0  0  0  0  0  0
  146.4240  130.8324  151.8569 H   0  0  0  0  0  0  0  0  0  0  0  0
  144.5941  131.4824  150.2792 H   0  0  0  0  0  0  0  0  0  0  0  0
  144.1961  131.9426  151.9257 H   0  0  0  0  0  0  0  0  0  0  0  0
  145.0265  135.4322  151.3108 H   0  0  0  0  0  0  0  0  0  0  0  0
  144.4394  134.3278  152.5394 H   0  0  0  0  0  0  0  0  0  0  0  0
  146.7872  134.8424  152.9692 H   0  0  0  0  0  0  0  0  0  0  0  0
  147.2577  134.4060  151.3363 H   0  0  0  0  0  0  0  0  0  0  0  0
  149.9239  136.5597  153.3074 H   0  0  0  0  0  0  0  0  0  0  0  0
  152.3317  136.3675  156.1246 H   0  0  0  0  0  0  0  0  0  0  0  0
  153.5504  138.3795  156.9014 H   0  0  0  0  0  0  0  0  0  0  0  0
  152.8766  140.6264  156.0201 H   0  0  0  0  0  0  0  0  0  0  0  0
  149.9069  138.9911  153.6663 H   0  0  0  0  0  0  0  0  0  0  0  0
  1  2  2  0  0  0  0
  2  3  1  0  0  0  0
  2 17  1  0  0  0  0
  3  4  1  0  0  0  0
  3 24  1  0  0  0  0
  4  5  1  0  0  0  0
  4 25  1  0  0  0  0
  4 26  1  0  0  0  0
  5  6  1  0  0  0  0
  5 11  1  0  0  0  0
  5 27  1  0  0  0  0
  6 10  1  0  0  0  0
  6  7  1  0  0  0  0
  6 28  1  0  0  0  0
  7  8  1  0  0  0  0
  7 29  1  0  0  0  0
  7 30  1  0  0  0  0
  8  9  1  0  0  0  0
  8 31  1  0  0  0  0
  8 32  1  0  0  0  0
  9 10  1  0  0  0  0
 10 33  1  0  0  0  0
 10 34  1  0  0  0  0
 11 16  1  0  0  0  0
 11 12  1  0  0  0  0
 12 13  1  0  0  0  0
 12 35  1  0  0  0  0
 12 36  1  0  0  0  0
 13 14  1  0  0  0  0
 13 37  1  0  0  0  0
 13 38  1  0  0  0  0
 14 15  1  0  0  0  0
 15 16  1  0  0  0  0
 15 39  1  0  0  0  0
 15 40  1  0  0  0  0
 16 41  1  0  0  0  0
 16 42  1  0  0  0  0
 17 18  1  0  0  0  0
 17 43  1  0  0  0  0
 18 23  1  0  0  0  0
 18 19  2  0  0  0  0
 19 20  1  0  0  0  0
 19 44  1  0  0  0  0
 20 21  2  0  0  0  0
 20 45  1  0  0  0  0
 21 22  1  0  0  0  0
 21 46  1  0  0  0  0
 22 23  2  0  0  0  0
 23 47  1  0  0  0  0
M  END
> <s_m_source_file>
AV-unprocessed.smi

> <i_m_source_file_index>
2119

> <i_lp_mmshare_version>
43012

> <i_f3d_flags>
0

> <s_epik_input>
W2NIXTFuW2NIXVtjSF1bY0hdYzFbTkhdQyg9TylbTkhdW0NIMl1bQ0BIXShbQ0BASF0yW0NIMl1bQ0gyXU9bQ0gyXTIpTjNbQ0gyXVtDSDJdT1tDSDJdW0NIMl0z

> <s_epik_cmdline>
J2VwaWtfcHl0aG9uJywgJy1waCcsICc3LjAnLCAnLXRuJywgJzgnLCAnLW1hJywgJzIwMCcsICctbWV0YWxfYmluZGluZycsICctaW1hZScsICc8aW5maWxlLm1hZT4nLCAnLW9tYWUnLCAnPG91dGZpbGUubWFlPic=

> <r_epik_Ionization_Penalty>
0.129787

> <r_epik_Ionization_Penalty_Charging>
0

> <r_epik_Ionization_Penalty_Neutral>
0.129787

> <r_epik_State_Penalty>
0.121311

> <r_epik_Charging_Adjusted_Penalty>
0.121311

> <i_epik_Tot_Q>
0

> <i_epik_Tot_abs_Q>
0

> <r_epik_Metal_State_Penalty>
0.117931

> <b_epik_Metal_Only>
0

> <s_lp_Force_Field>
OPLS_2005

> <r_lp_Energy>
56.2921

> <b_lp_Chiralities_Consistent>
1

> <s_lp_Variant>
AV-unprocessed.smi:2119-2

> <Gold.Version>
5.8.1

> <Gold.Id.Protein>
6NUR|6NUR_protein|mol2

> <Gold.PLP.Fitness>
44.2290

> <Gold.PLP.PLP>
-34.3942

> <Gold.PLP.part.hbond>
-3.8598

> <Gold.PLP.part.metal>
0.0000

> <Gold.PLP.part.buried>
-3.1002

> <Gold.PLP.part.nonpolar>
-27.0853

> <Gold.PLP.part.repulsive>
0.4570

> <Gold.PLP.ligand.clash>
0.0000

> <Gold.PLP.ligand.torsion>
1.0413

> <Gold.PLP.Chemscore.Hbond>
2.9920

> <Gold.PLP.Chemscore.CHOScore>
0.8575

> <Gold.PLP.Chemscore.Metal>
0.0000

> <Gold.Chemscore.Hbonds>
donor molecule, donor type, donor heavy atom, donor atom, acceptor molecule, acceptor atom, score
      L1  H     3    24       P1  7948  1.00
      L1  H    17    43       P1  7948  0.80
      P1  H  7989  7998       L1    22  1.00
      L1  C    23    47       P1  7957  0.51

> <Gold.PLP.Chemscore.Internal.Correction>
0.3688

> <Gold.Rescore>
     Score         DG    S(hbond)    S(metal)    S(lipo)     H(rot)  DE(clash)    DE(int)     intcor
     14.96     -16.56       1.54        0.00      86.85       1.65       0.51       1.10       ----

> <Gold.Chemscore.Fitness>
14.9579

> <Gold.Chemscore.DG>
-16.5602

> <Gold.Chemscore.ZeroCoef>
-5.4800

> <Gold.Chemscore.Hbond>
1.5404

> <Gold.Chemscore.Metal>
0.0000

> <Gold.Chemscore.Lipo>
86.8490

> <Gold.Chemscore.Internal_Hbond>
0.0000

> <Gold.Chemscore.DEClash>
0.5054

> <Gold.Chemscore.DEInternal>
1.0968

> <Gold.Chemscore.Rot>
1.6508

> <Gold.Chemscore.Internal.Correction>
   9.000000E+99

> <Gold.Chemscore.Hbonds>
donor molecule, donor type, donor heavy atom, donor atom, acceptor molecule, acceptor atom, score
      L1  H     3    24       P1  7948  0.25
      L1  H    17    43       P1  7948  0.12
      P1  H  7989  7998       L1    22  0.62

> <Gold.Chemscore.Hbond.Weighted>
-5.1450

> <Gold.Chemscore.Metal.Weighted>
-0.0000

> <Gold.Chemscore.Lipo.Weighted>
-10.1613

> <Gold.Chemscore.Internal_Hbond.Weighted>
0.0000

> <Gold.Chemscore.DEClash.Weighted>
0.5054

> <Gold.Chemscore.DEInternal.Weighted>
1.0968

> <Gold.Chemscore.Rot.Weighted>
4.2262

> <Gold.Chemscore.Internal.Correction.Weighted>
   9.000000E+99

> <Gold.Protein.RotatedTorsions>
[ 6907 6896 6895 6894 ] final   85.58 input  -60.11 | X-H torsion
[ 7974 7965 7964 7962 ] final  -99.94 input  175.53 | X-H torsion
[ 8008 7997 7996 7995 ] final   15.50 input   59.86 | X-H torsion
[ 10167 10162 10161 10158 ] final    0.88 input  -65.29 | X-H torsion
[ 10718 10713 10712 10709 ] final  149.99 input   66.30 | X-H torsion
[ 10763 10752 10751 10750 ] final -132.46 input  -60.55 | X-H torsion
[ 11005 11000 10999 10996 ] final -162.78 input  -57.11 | X-H torsion

> <Gold.Protein.ActiveResidues>
 VAL166  LYS551  ARG553  GLY616  TRP617  ASP618  TYR619  PRO620  LYS621  CYS622 
 ASP623  PHE694  ASN695  SER759  ASP760  ASP761  ALA762  ILE779  LEU786  VAL792 
 PHE793  MET794  SER795  GLU796  ALA797  LYS798  CYS799  TRP800  GLU811  SER814 

> <Gold.Protein.RotatedAtoms>
  152.5377  134.2564  159.8918 H   0  0  0  0  0  0  0  0  0  0  0  0  # atno 6907 bound_to 6896
  151.2525  133.4336  159.2620 H   0  0  0  0  0  0  0  0  0  0  0  0  # atno 6908 bound_to 6896
  151.0526  134.9697  159.8275 H   0  0  0  0  0  0  0  0  0  0  0  0  # atno 6909 bound_to 6896
  145.3010  140.9377  143.2823 H   0  0  0  0  0  0  0  0  0  0  0  0  # atno 7974 bound_to 7965
  154.8635  140.2948  155.5524 H   0  0  0  0  0  0  0  0  0  0  0  0  # atno 8008 bound_to 7997
  156.3020  140.2473  156.3545 H   0  0  0  0  0  0  0  0  0  0  0  0  # atno 8009 bound_to 7997
  154.8893  140.0395  157.1818 H   0  0  0  0  0  0  0  0  0  0  0  0  # atno 8010 bound_to 7997
  140.6709  143.7052  150.7920 H   0  0  0  0  0  0  0  0  0  0  0  0  # atno 10167 bound_to 10162
  157.2891  131.0850  151.1475 H   0  0  0  0  0  0  0  0  0  0  0  0  # atno 10718 bound_to 10713
  154.8743  135.3797  154.4413 H   0  0  0  0  0  0  0  0  0  0  0  0  # atno 10763 bound_to 10752
  153.5097  135.7030  153.5792 H   0  0  0  0  0  0  0  0  0  0  0  0  # atno 10764 bound_to 10752
  153.4087  135.3930  155.2002 H   0  0  0  0  0  0  0  0  0  0  0  0  # atno 10765 bound_to 10752
  140.6055  134.4904  157.5210 H   0  0  0  0  0  0  0  0  0  0  0  0  # atno 11005 bound_to 11000
  144.9093  139.4549  143.6594 LP  0  0  0  0  0  0  0  0  0  0  0  0  # atno 17320 bound_to 7965
  146.3152  139.7892  142.8989 LP  0  0  0  0  0  0  0  0  0  0  0  0  # atno 17321 bound_to 7965
  140.0737  143.5036  152.2566 LP  0  0  0  0  0  0  0  0  0  0  0  0  # atno 17342 bound_to 10162
  139.5976  144.7572  151.3247 LP  0  0  0  0  0  0  0  0  0  0  0  0  # atno 17343 bound_to 10162
  157.2879  130.6781  149.6099 LP  0  0  0  0  0  0  0  0  0  0  0  0  # atno 17370 bound_to 10713
  155.9666  130.4430  150.5403 LP  0  0  0  0  0  0  0  0  0  0  0  0  # atno 17371 bound_to 10713
  139.9214  134.8141  156.1199 LP  0  0  0  0  0  0  0  0  0  0  0  0  # atno 17394 bound_to 11000
  141.0844  133.6740  156.2404 LP  0  0  0  0  0  0  0  0  0  0  0  0  # atno 17395 bound_to 11000

$$$$
