AV-unprocessed.smi:3303|AV-procd|sdf|12674|dock8
  -GOLD-   2272019 13D 1   1.00000     0.00000
 Structure written by MMmdl.
 44 45  0  0  0  0  0  0  0  0  2 V2000
  151.8137  138.0905  154.8247 C   0  0  0  0  0  0  0  0  0  0  0  0
  151.0290  139.4033  154.6642 C   0  0  1  0  0  0  0  0  0  0  0  0
  149.5305  139.1535  154.4009 C   0  0  0  0  0  0  0  0  0  0  0  0
  148.8524  140.4201  154.1235 N   0  0  0  0  0  0  0  0  0  0  0  0
  147.4901  140.1830  153.6621 C   0  0  0  0  0  0  0  0  0  0  0  0
  148.9215  141.3790  155.2370 C   0  0  1  0  0  0  0  0  0  0  0  0
  148.0647  140.9939  156.4655 C   0  0  0  0  0  0  0  0  0  0  0  0
  150.4035  141.6584  155.5832 C   0  0  0  0  0  0  0  0  0  0  0  0
  151.2387  140.3830  155.8384 C   0  0  1  0  0  0  0  0  0  0  0  0
  150.9235  139.7457  157.1392 N   0  3  0  0  0  0  0  0  0  0  0  0
  151.7093  140.2292  158.2928 C   0  0  0  0  0  0  0  0  0  0  0  0
  151.7118  141.7625  158.3489 C   0  0  0  0  0  0  0  0  0  0  0  0
  152.0556  142.2828  159.7315 C   0  0  0  0  0  0  0  0  0  0  0  0
  152.9973  141.6136  160.5419 C   0  0  0  0  0  0  0  0  0  0  0  0
  153.2858  142.1464  161.8134 C   0  0  0  0  0  0  0  0  0  0  0  0
  152.6261  143.3215  162.2220 C   0  0  0  0  0  0  0  0  0  0  0  0
  151.7031  143.9144  161.3379 C   0  0  0  0  0  0  0  0  0  0  0  0
  151.4199  143.4122  160.1164 N   0  0  0  0  0  0  0  0  0  0  0  0
  151.4422  137.4955  155.6594 H   0  0  0  0  0  0  0  0  0  0  0  0
  152.8733  138.2834  154.9949 H   0  0  0  0  0  0  0  0  0  0  0  0
  151.7325  137.4779  153.9263 H   0  0  0  0  0  0  0  0  0  0  0  0
  151.4303  139.8883  153.7722 H   0  0  0  0  0  0  0  0  0  0  0  0
  149.4260  138.5001  153.5334 H   0  0  0  0  0  0  0  0  0  0  0  0
  149.0629  138.6363  155.2390 H   0  0  0  0  0  0  0  0  0  0  0  0
  146.9861  141.1263  153.4487 H   0  0  0  0  0  0  0  0  0  0  0  0
  146.9026  139.6351  154.3994 H   0  0  0  0  0  0  0  0  0  0  0  0
  147.4994  139.5981  152.7419 H   0  0  0  0  0  0  0  0  0  0  0  0
  148.5107  142.3171  154.8613 H   0  0  0  0  0  0  0  0  0  0  0  0
  148.2255  141.6991  157.2816 H   0  0  0  0  0  0  0  0  0  0  0  0
  148.2867  139.9985  156.8462 H   0  0  0  0  0  0  0  0  0  0  0  0
  147.0000  141.0241  156.2342 H   0  0  0  0  0  0  0  0  0  0  0  0
  150.8491  142.1852  154.7380 H   0  0  0  0  0  0  0  0  0  0  0  0
  150.4741  142.3572  156.4160 H   0  0  0  0  0  0  0  0  0  0  0  0
  152.2946  140.6570  155.8613 H   0  0  0  0  0  0  0  0  0  0  0  0
  149.9399  139.8726  157.3307 H   0  0  0  0  0  0  0  0  0  0  0  0
  151.2865  139.8260  159.2139 H   0  0  0  0  0  0  0  0  0  0  0  0
  152.7338  139.8655  158.2200 H   0  0  0  0  0  0  0  0  0  0  0  0
  152.4318  142.1622  157.6330 H   0  0  0  0  0  0  0  0  0  0  0  0
  150.7361  142.1497  158.0518 H   0  0  0  0  0  0  0  0  0  0  0  0
  153.4896  140.7149  160.2001 H   0  0  0  0  0  0  0  0  0  0  0  0
  154.0008  141.6636  162.4630 H   0  0  0  0  0  0  0  0  0  0  0  0
  152.8228  143.7583  163.1901 H   0  0  0  0  0  0  0  0  0  0  0  0
  151.1797  144.8167  161.6184 H   0  0  0  0  0  0  0  0  0  0  0  0
  151.1057  138.7568  157.0439 H   0  0  0  0  0  0  0  0  0  0  0  0
  1  2  1  0  0  0  0
  1 19  1  0  0  0  0
  1 20  1  0  0  0  0
  1 21  1  0  0  0  0
  2  9  1  0  0  0  0
  2  3  1  0  0  0  0
  2 22  1  0  0  0  0
  3  4  1  0  0  0  0
  3 23  1  0  0  0  0
  3 24  1  0  0  0  0
  4  5  1  0  0  0  0
  4  6  1  0  0  0  0
  5 25  1  0  0  0  0
  5 26  1  0  0  0  0
  5 27  1  0  0  0  0
  6  7  1  0  0  0  0
  6  8  1  0  0  0  0
  6 28  1  0  0  0  0
  7 29  1  0  0  0  0
  7 30  1  0  0  0  0
  7 31  1  0  0  0  0
  8  9  1  0  0  0  0
  8 32  1  0  0  0  0
  8 33  1  0  0  0  0
  9 10  1  0  0  0  0
  9 34  1  0  0  0  0
 10 11  1  0  0  0  0
 10 35  1  0  0  0  0
 10 44  1  0  0  0  0
 11 12  1  0  0  0  0
 11 36  1  0  0  0  0
 11 37  1  0  0  0  0
 12 13  1  0  0  0  0
 12 38  1  0  0  0  0
 12 39  1  0  0  0  0
 13 18  1  0  0  0  0
 13 14  2  0  0  0  0
 14 15  1  0  0  0  0
 14 40  1  0  0  0  0
 15 16  2  0  0  0  0
 15 41  1  0  0  0  0
 16 17  1  0  0  0  0
 16 42  1  0  0  0  0
 17 18  2  0  0  0  0
 17 43  1  0  0  0  0
M  CHG  1  10   1
M  END
> <s_m_source_file>
AV-unprocessed.smi

> <i_m_source_file_index>
3303

> <i_lp_mmshare_version>
43012

> <i_f3d_flags>
0

> <s_epik_input>
W0NIM11bQ0BASF0xW0NIMl1OKFtDSDNdKVtDQEBIXShbQ0gzXSlbQ0gyXVtDQEhdMVtOSF1bQ0gyXVtDSDJdYzJbY0hdW2NIXVtjSF1bY0hdbjI=

> <s_epik_cmdline>
J2VwaWtfcHl0aG9uJywgJy1waCcsICc3LjAnLCAnLXRuJywgJzgnLCAnLW1hJywgJzIwMCcsICctbWV0YWxfYmluZGluZycsICctaW1hZScsICc8aW5maWxlLm1hZT4nLCAnLW9tYWUnLCAnPG91dGZpbGUubWFlPic=

> <r_epik_Ionization_Penalty>
1.37325

> <r_epik_Ionization_Penalty_Charging>
0.000251572

> <r_epik_Ionization_Penalty_Neutral>
1.373

> <r_epik_State_Penalty>
1.46343

> <r_epik_Charging_Adjusted_Penalty>
1.46368

> <i_epik_Tot_Q>
1

> <i_epik_Tot_abs_Q>
1

> <r_epik_Metal_State_Penalty>
1.46331

> <b_epik_Metal_Only>
0

> <s_lp_Force_Field>
OPLS_2005

> <r_lp_Energy>
24.8067

> <b_lp_Chiralities_Consistent>
1

> <s_lp_Variant>
AV-unprocessed.smi:3303-18

> <Gold.Version>
5.8.1

> <Gold.Id.Protein>
6NUR|6NUR_protein|mol2

> <Gold.PLP.Fitness>
40.2950

> <Gold.PLP.PLP>
-41.9814

> <Gold.PLP.part.hbond>
0.0000

> <Gold.PLP.part.metal>
0.0000

> <Gold.PLP.part.buried>
-3.6755

> <Gold.PLP.part.nonpolar>
-37.2627

> <Gold.PLP.part.repulsive>
0.2167

> <Gold.PLP.ligand.clash>
0.0000

> <Gold.PLP.ligand.torsion>
0.8491

> <Gold.PLP.Chemscore.Hbond>
0.0000

> <Gold.PLP.Chemscore.CHOScore>
0.0000

> <Gold.PLP.Chemscore.Metal>
0.0000

> <Gold.PLP.Chemscore.Internal.Correction>
0.0117

> <Gold.Rescore>
     Score         DG    S(hbond)    S(metal)    S(lipo)     H(rot)  DE(clash)    DE(int)     intcor
     15.12     -15.92       0.00        0.00     118.33       1.33       0.06       0.74       ----

> <Gold.Chemscore.Fitness>
15.1244

> <Gold.Chemscore.DG>
-15.9201

> <Gold.Chemscore.ZeroCoef>
-5.4800

> <Gold.Chemscore.Hbond>
0.0000

> <Gold.Chemscore.Metal>
0.0000

> <Gold.Chemscore.Lipo>
118.3284

> <Gold.Chemscore.Internal_Hbond>
0.0000

> <Gold.Chemscore.DEClash>
0.0589

> <Gold.Chemscore.DEInternal>
0.7368

> <Gold.Chemscore.Rot>
1.3298

> <Gold.Chemscore.Internal.Correction>
   9.000000E+99

> <Gold.Chemscore.Hbond.Weighted>
-0.0000

> <Gold.Chemscore.Metal.Weighted>
-0.0000

> <Gold.Chemscore.Lipo.Weighted>
-13.8444

> <Gold.Chemscore.Internal_Hbond.Weighted>
0.0000

> <Gold.Chemscore.DEClash.Weighted>
0.0589

> <Gold.Chemscore.DEInternal.Weighted>
0.7368

> <Gold.Chemscore.Rot.Weighted>
3.4043

> <Gold.Chemscore.Internal.Correction.Weighted>
   9.000000E+99

> <Gold.Protein.RotatedTorsions>
[ 6907 6896 6895 6894 ] final   61.99 input  -60.11 | X-H torsion
[ 7974 7965 7964 7962 ] final  -21.27 input  175.53 | X-H torsion
[ 8008 7997 7996 7995 ] final -107.19 input   59.86 | X-H torsion
[ 10167 10162 10161 10158 ] final -149.04 input  -65.29 | X-H torsion
[ 10718 10713 10712 10709 ] final  -70.32 input   66.30 | X-H torsion
[ 10763 10752 10751 10750 ] final -159.11 input  -60.55 | X-H torsion
[ 11005 11000 10999 10996 ] final  -39.13 input  -57.11 | X-H torsion

> <Gold.Protein.ActiveResidues>
 VAL166  LYS551  ARG553  GLY616  TRP617  ASP618  TYR619  PRO620  LYS621  CYS622 
 ASP623  PHE694  ASN695  SER759  ASP760  ASP761  ALA762  ILE779  LEU786  VAL792 
 PHE793  MET794  SER795  GLU796  ALA797  LYS798  CYS799  TRP800  GLU811  SER814 

> <Gold.Protein.RotatedAtoms>
  152.4135  134.6083  160.0018 H   0  0  0  0  0  0  0  0  0  0  0  0  # atno 6907 bound_to 6896
  151.6253  133.3330  159.3105 H   0  0  0  0  0  0  0  0  0  0  0  0  # atno 6908 bound_to 6896
  150.8024  134.7167  159.6679 H   0  0  0  0  0  0  0  0  0  0  0  0  # atno 6909 bound_to 6896
  146.1742  140.4317  142.8520 H   0  0  0  0  0  0  0  0  0  0  0  0  # atno 7974 bound_to 7965
  154.9257  140.0406  157.2021 H   0  0  0  0  0  0  0  0  0  0  0  0  # atno 8008 bound_to 7997
  154.8210  140.2883  155.5765 H   0  0  0  0  0  0  0  0  0  0  0  0  # atno 8009 bound_to 7997
  156.2980  140.2519  156.3117 H   0  0  0  0  0  0  0  0  0  0  0  0  # atno 8010 bound_to 7997
  139.7478  143.8565  152.2579 H   0  0  0  0  0  0  0  0  0  0  0  0  # atno 10167 bound_to 10162
  156.0413  130.4329  150.2278 H   0  0  0  0  0  0  0  0  0  0  0  0  # atno 10718 bound_to 10713
  154.7502  135.3090  154.8572 H   0  0  0  0  0  0  0  0  0  0  0  0  # atno 10763 bound_to 10752
  153.9361  135.6780  153.4749 H   0  0  0  0  0  0  0  0  0  0  0  0  # atno 10764 bound_to 10752
  153.1098  135.4872  154.8943 H   0  0  0  0  0  0  0  0  0  0  0  0  # atno 10765 bound_to 10752
  141.0079  133.6922  156.2146 H   0  0  0  0  0  0  0  0  0  0  0  0  # atno 11005 bound_to 11000
  144.8211  140.6550  143.6352 LP  0  0  0  0  0  0  0  0  0  0  0  0  # atno 17320 bound_to 7965
  145.4256  139.1557  143.4050 LP  0  0  0  0  0  0  0  0  0  0  0  0  # atno 17321 bound_to 7965
  139.8534  144.7153  150.9187 LP  0  0  0  0  0  0  0  0  0  0  0  0  # atno 17342 bound_to 10162
  140.7794  143.3880  151.1360 LP  0  0  0  0  0  0  0  0  0  0  0  0  # atno 17343 bound_to 10162
  157.0373  131.0025  151.3294 LP  0  0  0  0  0  0  0  0  0  0  0  0  # atno 17370 bound_to 10713
  157.5235  130.8013  149.7835 LP  0  0  0  0  0  0  0  0  0  0  0  0  # atno 17371 bound_to 10713
  140.6782  134.4796  157.5588 LP  0  0  0  0  0  0  0  0  0  0  0  0  # atno 17394 bound_to 11000
  139.9074  134.8420  156.1656 LP  0  0  0  0  0  0  0  0  0  0  0  0  # atno 17395 bound_to 11000

$$$$
