AV-unprocessed.smi:1999|AV-procd|sdf|8093|dock9
  -GOLD-   2272010313D 1   1.00000     0.00000
 Structure written by MMmdl.
 38 39  0  0  0  0  0  0  0  0  1 V2000
  138.3799  136.6867  154.4788 C   0  0  0  0  0  0  0  0  0  0  0  0
  139.8471  136.8585  154.2825 C   0  0  0  0  0  0  0  0  0  0  0  0
  140.7284  135.8827  154.5326 N   0  0  0  0  0  0  0  0  0  0  0  0
  142.0346  136.2739  154.2731 N   0  0  0  0  0  0  0  0  0  0  0  0
  142.0993  137.5374  153.8312 C   0  0  0  0  0  0  0  0  0  0  0  0
  143.3117  138.1937  153.4910 N   0  0  0  0  0  0  0  0  0  0  0  0
  144.5712  137.8208  153.7792 C   0  0  0  0  0  0  0  0  0  0  0  0
  144.8890  136.8058  154.3995 O   0  0  0  0  0  0  0  0  0  0  0  0
  145.4589  138.7034  153.2973 N   0  0  0  0  0  0  0  0  0  0  0  0
  146.9100  138.6072  153.4294 C   0  0  1  0  0  0  0  0  0  0  0  0
  147.5748  139.7848  152.6956 C   0  0  0  0  0  0  0  0  0  0  0  0
  147.2662  138.5769  154.9301 C   0  0  0  0  0  0  0  0  0  0  0  0
  148.6728  138.8147  155.2570 N   0  0  0  0  0  0  0  0  0  0  0  0
  149.0074  140.2363  155.3220 C   0  0  0  0  0  0  0  0  0  0  0  0
  150.4972  140.4621  155.6347 C   0  0  0  0  0  0  0  0  0  0  0  0
  151.2985  139.7939  154.6661 O   0  0  0  0  0  0  0  0  0  0  0  0
  151.0354  138.3961  154.6084 C   0  0  0  0  0  0  0  0  0  0  0  0
  149.5487  138.1666  154.2868 C   0  0  0  0  0  0  0  0  0  0  0  0
  140.5541  138.3596  153.6972 S   0  0  0  0  0  0  0  0  0  0  0  0
  138.1844  136.0239  155.3223 H   0  0  0  0  0  0  0  0  0  0  0  0
  137.9324  136.2564  153.5829 H   0  0  0  0  0  0  0  0  0  0  0  0
  137.9103  137.6501  154.6776 H   0  0  0  0  0  0  0  0  0  0  0  0
  143.2071  139.0496  152.9666 H   0  0  0  0  0  0  0  0  0  0  0  0
  145.1046  139.5063  152.7988 H   0  0  0  0  0  0  0  0  0  0  0  0
  147.2339  137.6749  152.9662 H   0  0  0  0  0  0  0  0  0  0  0  0
  148.6618  139.7201  152.7488 H   0  0  0  0  0  0  0  0  0  0  0  0
  147.2771  140.7409  153.1272 H   0  0  0  0  0  0  0  0  0  0  0  0
  147.3029  139.7965  151.6397 H   0  0  0  0  0  0  0  0  0  0  0  0
  146.6569  139.3301  155.4318 H   0  0  0  0  0  0  0  0  0  0  0  0
  146.9581  137.6190  155.3528 H   0  0  0  0  0  0  0  0  0  0  0  0
  148.7595  140.7190  154.3755 H   0  0  0  0  0  0  0  0  0  0  0  0
  148.4161  140.7313  156.0913 H   0  0  0  0  0  0  0  0  0  0  0  0
  150.7312  141.5266  155.6180 H   0  0  0  0  0  0  0  0  0  0  0  0
  150.7411  140.0958  156.6332 H   0  0  0  0  0  0  0  0  0  0  0  0
  151.6640  137.9464  153.8396 H   0  0  0  0  0  0  0  0  0  0  0  0
  151.3030  137.9279  155.5570 H   0  0  0  0  0  0  0  0  0  0  0  0
  149.3479  137.0949  154.2642 H   0  0  0  0  0  0  0  0  0  0  0  0
  149.3355  138.5448  153.2858 H   0  0  0  0  0  0  0  0  0  0  0  0
  1  2  1  0  0  0  0
  1 20  1  0  0  0  0
  1 21  1  0  0  0  0
  1 22  1  0  0  0  0
  2 19  1  0  0  0  0
  2  3  2  0  0  0  0
  3  4  1  0  0  0  0
  4  5  2  0  0  0  0
  5  6  1  0  0  0  0
  5 19  1  0  0  0  0
  6  7  1  0  0  0  0
  6 23  1  0  0  0  0
  7  8  2  0  0  0  0
  7  9  1  0  0  0  0
  9 10  1  0  0  0  0
  9 24  1  0  0  0  0
 10 11  1  0  0  0  0
 10 12  1  0  0  0  0
 10 25  1  0  0  0  0
 11 26  1  0  0  0  0
 11 27  1  0  0  0  0
 11 28  1  0  0  0  0
 12 13  1  0  0  0  0
 12 29  1  0  0  0  0
 12 30  1  0  0  0  0
 13 18  1  0  0  0  0
 13 14  1  0  0  0  0
 14 15  1  0  0  0  0
 14 31  1  0  0  0  0
 14 32  1  0  0  0  0
 15 16  1  0  0  0  0
 15 33  1  0  0  0  0
 15 34  1  0  0  0  0
 16 17  1  0  0  0  0
 17 18  1  0  0  0  0
 17 35  1  0  0  0  0
 17 36  1  0  0  0  0
 18 37  1  0  0  0  0
 18 38  1  0  0  0  0
M  END
> <s_m_source_file>
AV-unprocessed.smi

> <i_m_source_file_index>
1999

> <i_lp_mmshare_version>
43012

> <i_f3d_flags>
0

> <s_epik_input>
W0NIM11jMW5uYyhzMSlbTkhdQyg9TylbTkhdW0NASF0oW0NIM10pW0NIMl1OMltDSDJdW0NIMl1PW0NIMl1bQ0gyXTI=

> <s_epik_cmdline>
J2VwaWtfcHl0aG9uJywgJy1waCcsICc3LjAnLCAnLXRuJywgJzgnLCAnLW1hJywgJzIwMCcsICctbWV0YWxfYmluZGluZycsICctaW1hZScsICc8aW5maWxlLm1hZT4nLCAnLW9tYWUnLCAnPG91dGZpbGUubWFlPic=

> <r_lp_tautomer_probability>
1

> <r_epik_Ionization_Penalty>
0.221412

> <r_epik_Ionization_Penalty_Charging>
0

> <r_epik_Ionization_Penalty_Neutral>
0.221412

> <r_epik_State_Penalty>
0.209349

> <r_epik_Charging_Adjusted_Penalty>
0.209349

> <i_epik_Tot_Q>
0

> <i_epik_Tot_abs_Q>
0

> <r_epik_Metal_State_Penalty>
0.56886

> <b_epik_Metal_Only>
0

> <s_lp_Force_Field>
OPLS_2005

> <r_lp_Energy>
22.0732

> <b_lp_Chiralities_Consistent>
1

> <s_lp_Variant>
AV-unprocessed.smi:1999-2

> <Gold.Version>
5.8.1

> <Gold.Id.Protein>
6NUR|6NUR_protein|mol2

> <Gold.PLP.Fitness>
33.7893

> <Gold.PLP.PLP>
-23.5101

> <Gold.PLP.part.hbond>
-3.7936

> <Gold.PLP.part.metal>
0.0000

> <Gold.PLP.part.buried>
-0.4799

> <Gold.PLP.part.nonpolar>
-20.7271

> <Gold.PLP.part.repulsive>
0.2468

> <Gold.PLP.ligand.clash>
0.0000

> <Gold.PLP.ligand.torsion>
0.3904

> <Gold.PLP.Chemscore.Hbond>
3.6713

> <Gold.PLP.Chemscore.CHOScore>
0.0000

> <Gold.PLP.Chemscore.Metal>
0.0000

> <Gold.Chemscore.Hbonds>
donor molecule, donor type, donor heavy atom, donor atom, acceptor molecule, acceptor atom, score
      L1  H     6    23       P1 10175  0.99
      L1  H     9    24       P1 10175  0.90
      P1  H  7989  7998       L1    16  1.00
      P1  H 11000 11005       L1     3  0.83

> <Gold.PLP.Chemscore.Internal.Correction>
0.0462

> <Gold.Rescore>
     Score         DG    S(hbond)    S(metal)    S(lipo)     H(rot)  DE(clash)    DE(int)     intcor
     15.62     -20.57       3.75        0.00      56.51       1.58       1.32       3.62       ----

> <Gold.Chemscore.Fitness>
15.6247

> <Gold.Chemscore.DG>
-20.5682

> <Gold.Chemscore.ZeroCoef>
-5.4800

> <Gold.Chemscore.Hbond>
3.7517

> <Gold.Chemscore.Metal>
0.0000

> <Gold.Chemscore.Lipo>
56.5116

> <Gold.Chemscore.Internal_Hbond>
0.0000

> <Gold.Chemscore.DEClash>
1.3191

> <Gold.Chemscore.DEInternal>
3.6245

> <Gold.Chemscore.Rot>
1.5837

> <Gold.Chemscore.Internal.Correction>
   9.000000E+99

> <Gold.Chemscore.Hbonds>
donor molecule, donor type, donor heavy atom, donor atom, acceptor molecule, acceptor atom, score
      L1  H     6    23       P1 10175  0.91
      L1  H     9    24       P1 10175  0.88
      P1  H  7989  7998       L1    16  0.65
      P1  H 11000 11005       L1     3  0.64

> <Gold.Chemscore.Hbond.Weighted>
-12.5306

> <Gold.Chemscore.Metal.Weighted>
-0.0000

> <Gold.Chemscore.Lipo.Weighted>
-6.6119

> <Gold.Chemscore.Internal_Hbond.Weighted>
0.0000

> <Gold.Chemscore.DEClash.Weighted>
1.3191

> <Gold.Chemscore.DEInternal.Weighted>
3.6245

> <Gold.Chemscore.Rot.Weighted>
4.0542

> <Gold.Chemscore.Internal.Correction.Weighted>
   9.000000E+99

> <Gold.Protein.RotatedTorsions>
[ 6907 6896 6895 6894 ] final   40.79 input  -60.11 | X-H torsion
[ 7974 7965 7964 7962 ] final   64.61 input  175.53 | X-H torsion
[ 8008 7997 7996 7995 ] final  159.27 input   59.86 | X-H torsion
[ 10167 10162 10161 10158 ] final   86.99 input  -65.29 | X-H torsion
[ 10718 10713 10712 10709 ] final   24.32 input   66.30 | X-H torsion
[ 10763 10752 10751 10750 ] final -104.36 input  -60.55 | X-H torsion
[ 11005 11000 10999 10996 ] final   59.73 input  -57.11 | X-H torsion

> <Gold.Protein.ActiveResidues>
 VAL166  LYS551  ARG553  GLY616  TRP617  ASP618  TYR619  PRO620  LYS621  CYS622 
 ASP623  PHE694  ASN695  SER759  ASP760  ASP761  ALA762  ILE779  LEU786  VAL792 
 PHE793  MET794  SER795  GLU796  ALA797  LYS798  CYS799  TRP800  GLU811  SER814 

> <Gold.Protein.RotatedAtoms>
  152.1870  134.8705  160.0520 H   0  0  0  0  0  0  0  0  0  0  0  0  # atno 6907 bound_to 6896
  151.9608  133.3689  159.4043 H   0  0  0  0  0  0  0  0  0  0  0  0  # atno 6908 bound_to 6896
  150.6928  134.4166  159.5230 H   0  0  0  0  0  0  0  0  0  0  0  0  # atno 6909 bound_to 6896
  145.8481  139.3237  143.0891 H   0  0  0  0  0  0  0  0  0  0  0  0  # atno 7974 bound_to 7965
  156.2249  140.1836  156.7386 H   0  0  0  0  0  0  0  0  0  0  0  0  # atno 8008 bound_to 7997
  154.5925  140.0648  156.9287 H   0  0  0  0  0  0  0  0  0  0  0  0  # atno 8009 bound_to 7997
  155.2311  140.3315  155.4306 H   0  0  0  0  0  0  0  0  0  0  0  0  # atno 8010 bound_to 7997
  139.8819  144.6435  150.8833 H   0  0  0  0  0  0  0  0  0  0  0  0  # atno 10167 bound_to 10162
  157.1782  130.6790  149.6103 H   0  0  0  0  0  0  0  0  0  0  0  0  # atno 10718 bound_to 10713
  154.7872  135.4789  153.9973 H   0  0  0  0  0  0  0  0  0  0  0  0  # atno 10763 bound_to 10752
  153.1578  135.6803  153.8794 H   0  0  0  0  0  0  0  0  0  0  0  0  # atno 10764 bound_to 10752
  153.8417  135.3178  155.3404 H   0  0  0  0  0  0  0  0  0  0  0  0  # atno 10765 bound_to 10752
  140.0283  134.6050  155.9542 H   0  0  0  0  0  0  0  0  0  0  0  0  # atno 11005 bound_to 11000
  145.9388  140.8994  143.0318 LP  0  0  0  0  0  0  0  0  0  0  0  0  # atno 17320 bound_to 7965
  144.6730  140.1520  143.7429 LP  0  0  0  0  0  0  0  0  0  0  0  0  # atno 17321 bound_to 7965
  140.7743  143.3579  151.1886 LP  0  0  0  0  0  0  0  0  0  0  0  0  # atno 17342 bound_to 10162
  139.7188  143.9257  152.2977 LP  0  0  0  0  0  0  0  0  0  0  0  0  # atno 17343 bound_to 10162
  155.9728  130.4656  150.6259 LP  0  0  0  0  0  0  0  0  0  0  0  0  # atno 17370 bound_to 10713
  157.3978  131.0805  151.1336 LP  0  0  0  0  0  0  0  0  0  0  0  0  # atno 17371 bound_to 10713
  141.1816  133.6547  156.5042 LP  0  0  0  0  0  0  0  0  0  0  0  0  # atno 17394 bound_to 11000
  140.4269  134.7137  157.4921 LP  0  0  0  0  0  0  0  0  0  0  0  0  # atno 17395 bound_to 11000

$$$$
