AV-unprocessed.smi:749|AV-procd|sdf|3586|dock7
  -GOLD-   22720 0583D 1   1.00000     0.00000
 Structure written by MMmdl.
 42 43  0  0  0  0  0  0  0  0  2 V2000
  153.1564  141.7892  160.9361 C   0  0  0  0  0  0  0  0  0  0  0  0
  152.3328  142.3363  159.8565 N   0  0  0  0  0  0  0  0  0  0  0  0
  152.0268  141.3897  158.7727 C   0  0  0  0  0  0  0  0  0  0  0  0
  151.4912  142.0515  157.4917 C   0  0  1  0  0  0  0  0  0  0  0  0
  150.9369  141.0318  156.6062 N   0  0  0  0  0  0  0  0  0  0  0  0
  151.5732  139.9349  156.1500 C   0  0  0  0  0  0  0  0  0  0  0  0
  152.7400  139.7396  156.4883 O   0  0  0  0  0  0  0  0  0  0  0  0
  150.8843  139.0955  155.3317 N   0  5  0  0  0  0  0  0  0  0  0  0
  150.9045  137.7590  155.4770 C   0  0  0  0  0  0  0  0  0  0  0  0
  149.8420  136.8702  155.1600 C   0  0  0  0  0  0  0  0  0  0  0  0
  150.3503  135.6402  155.4772 C   0  0  0  0  0  0  0  0  0  0  0  0
  149.8041  134.2426  155.3949 C   0  0  0  0  0  0  0  0  0  0  0  0
  150.8314  133.2211  155.9227 C   0  0  0  0  0  0  0  0  0  0  0  0
  149.4751  133.8907  153.9319 C   0  0  0  0  0  0  0  0  0  0  0  0
  148.5244  134.1273  156.2443 C   0  0  0  0  0  0  0  0  0  0  0  0
  151.6173  135.7747  155.9594 O   0  0  0  0  0  0  0  0  0  0  0  0
  151.9614  137.1309  155.9623 N   0  0  0  0  0  0  0  0  0  0  0  0
  150.4280  143.0920  157.8572 C   0  0  0  0  0  0  0  0  0  0  0  0
  151.0248  144.1681  158.7720 C   0  0  0  0  0  0  0  0  0  0  0  0
  151.8545  143.6018  159.9348 C   0  0  0  0  0  0  0  0  0  0  0  0
  152.0849  144.3379  160.8948 O   0  0  0  0  0  0  0  0  0  0  0  0
  154.1030  142.3265  161.0029 H   0  0  0  0  0  0  0  0  0  0  0  0
  153.3845  140.7332  160.7857 H   0  0  0  0  0  0  0  0  0  0  0  0
  152.6456  141.8757  161.8961 H   0  0  0  0  0  0  0  0  0  0  0  0
  152.9157  140.8070  158.5266 H   0  0  0  0  0  0  0  0  0  0  0  0
  151.2896  140.6834  159.1585 H   0  0  0  0  0  0  0  0  0  0  0  0
  152.3227  142.5521  156.9913 H   0  0  0  0  0  0  0  0  0  0  0  0
  149.9824  141.1666  156.3064 H   0  0  0  0  0  0  0  0  0  0  0  0
  148.8672  137.1013  154.7574 H   0  0  0  0  0  0  0  0  0  0  0  0
  150.4452  132.2027  155.8681 H   0  0  0  0  0  0  0  0  0  0  0  0
  151.0886  133.4169  156.9646 H   0  0  0  0  0  0  0  0  0  0  0  0
  151.7557  133.2511  155.3442 H   0  0  0  0  0  0  0  0  0  0  0  0
  150.3616  133.9576  153.3005 H   0  0  0  0  0  0  0  0  0  0  0  0
  148.7256  134.5658  153.5174 H   0  0  0  0  0  0  0  0  0  0  0  0
  149.0843  132.8764  153.8436 H   0  0  0  0  0  0  0  0  0  0  0  0
  148.1130  133.1179  156.2109 H   0  0  0  0  0  0  0  0  0  0  0  0
  147.7479  134.8072  155.8915 H   0  0  0  0  0  0  0  0  0  0  0  0
  148.7208  134.3687  157.2897 H   0  0  0  0  0  0  0  0  0  0  0  0
  150.0292  143.5611  156.9570 H   0  0  0  0  0  0  0  0  0  0  0  0
  149.5851  142.6088  158.3537 H   0  0  0  0  0  0  0  0  0  0  0  0
  151.6778  144.8178  158.1880 H   0  0  0  0  0  0  0  0  0  0  0  0
  150.2295  144.8010  159.1674 H   0  0  0  0  0  0  0  0  0  0  0  0
  1  2  1  0  0  0  0
  1 22  1  0  0  0  0
  1 23  1  0  0  0  0
  1 24  1  0  0  0  0
  2 20  1  0  0  0  0
  2  3  1  0  0  0  0
  3  4  1  0  0  0  0
  3 25  1  0  0  0  0
  3 26  1  0  0  0  0
  4  5  1  0  0  0  0
  4 18  1  0  0  0  0
  4 27  1  0  0  0  0
  5  6  1  0  0  0  0
  5 28  1  0  0  0  0
  6  7  2  0  0  0  0
  6  8  1  0  0  0  0
  8  9  1  0  0  0  0
  9 17  2  0  0  0  0
  9 10  1  0  0  0  0
 10 11  2  0  0  0  0
 10 29  1  0  0  0  0
 11 12  1  0  0  0  0
 11 16  1  0  0  0  0
 12 13  1  0  0  0  0
 12 14  1  0  0  0  0
 12 15  1  0  0  0  0
 13 30  1  0  0  0  0
 13 31  1  0  0  0  0
 13 32  1  0  0  0  0
 14 33  1  0  0  0  0
 14 34  1  0  0  0  0
 14 35  1  0  0  0  0
 15 36  1  0  0  0  0
 15 37  1  0  0  0  0
 15 38  1  0  0  0  0
 16 17  1  0  0  0  0
 18 19  1  0  0  0  0
 18 39  1  0  0  0  0
 18 40  1  0  0  0  0
 19 20  1  0  0  0  0
 19 41  1  0  0  0  0
 19 42  1  0  0  0  0
 20 21  2  0  0  0  0
M  CHG  1   8  -1
M  END
> <s_m_source_file>
AV-unprocessed.smi

> <i_m_source_file_index>
749

> <i_lp_mmshare_version>
43012

> <i_f3d_flags>
0

> <s_epik_input>
Tz1DMVtDSDJdW0NIMl1bQ0BASF0oW0NIMl1OMVtDSDNdKVtOSF1DKD1PKVtOSF1jMltjSF1jKG9uMilDKFtDSDNdKShbQ0gzXSlbQ0gzXQ==

> <s_epik_cmdline>
J2VwaWtfcHl0aG9uJywgJy1waCcsICc3LjAnLCAnLXRuJywgJzgnLCAnLW1hJywgJzIwMCcsICctbWV0YWxfYmluZGluZycsICctaW1hZScsICc8aW5maWxlLm1hZT4nLCAnLW9tYWUnLCAnPG91dGZpbGUubWFlPic=

> <r_lp_tautomer_probability>
1

> <r_epik_Ionization_Penalty>
6.47858

> <r_epik_Ionization_Penalty_Charging>
6.47844

> <r_epik_Ionization_Penalty_Neutral>
0.000138814

> <r_epik_State_Penalty>
6.47843

> <r_epik_Charging_Adjusted_Penalty>
12.9569

> <i_epik_Tot_Q>
-1

> <i_epik_Tot_abs_Q>
1

> <r_epik_Metal_State_Penalty>
2.40644

> <b_epik_Metal_Only>
1

> <s_lp_Force_Field>
OPLS_2005

> <r_lp_Energy>
10.0232

> <b_lp_Chiralities_Consistent>
1

> <s_lp_Variant>
AV-unprocessed.smi:749-3

> <Gold.Version>
5.8.1

> <Gold.Id.Protein>
6NUR|6NUR_protein|mol2

> <Gold.PLP.Fitness>
39.1866

> <Gold.PLP.PLP>
-35.8389

> <Gold.PLP.part.hbond>
-2.8582

> <Gold.PLP.part.metal>
0.0000

> <Gold.PLP.part.buried>
-5.2516

> <Gold.PLP.part.nonpolar>
-27.9457

> <Gold.PLP.part.repulsive>
0.2657

> <Gold.PLP.ligand.clash>
0.0000

> <Gold.PLP.ligand.torsion>
0.5949

> <Gold.PLP.Chemscore.Hbond>
1.5000

> <Gold.PLP.Chemscore.CHOScore>
0.0000

> <Gold.PLP.Chemscore.Metal>
0.0000

> <Gold.Chemscore.Hbonds>
donor molecule, donor type, donor heavy atom, donor atom, acceptor molecule, acceptor atom, score
      P1  H  7997  8008       L1     7  1.00
      P1  H 10752 10764       L1    16  0.40

> <Gold.PLP.Chemscore.Internal.Correction>
0.0375

> <Gold.Rescore>
     Score         DG    S(hbond)    S(metal)    S(lipo)     H(rot)  DE(clash)    DE(int)     intcor
     12.45     -14.59       1.04        0.00      74.96       1.22       0.11       2.03       ----

> <Gold.Chemscore.Fitness>
12.4546

> <Gold.Chemscore.DG>
-14.5946

> <Gold.Chemscore.ZeroCoef>
-5.4800

> <Gold.Chemscore.Hbond>
1.0382

> <Gold.Chemscore.Metal>
0.0000

> <Gold.Chemscore.Lipo>
74.9554

> <Gold.Chemscore.Internal_Hbond>
0.0000

> <Gold.Chemscore.DEClash>
0.1064

> <Gold.Chemscore.DEInternal>
2.0336

> <Gold.Chemscore.Rot>
1.2198

> <Gold.Chemscore.Internal.Correction>
   9.000000E+99

> <Gold.Chemscore.Hbonds>
donor molecule, donor type, donor heavy atom, donor atom, acceptor molecule, acceptor atom, score
      P1  H  7997  8008       L1     7  0.97
      P1  H 10752 10764       L1    16  0.01

> <Gold.Chemscore.Hbond.Weighted>
-3.4676

> <Gold.Chemscore.Metal.Weighted>
-0.0000

> <Gold.Chemscore.Lipo.Weighted>
-8.7698

> <Gold.Chemscore.Internal_Hbond.Weighted>
0.0000

> <Gold.Chemscore.DEClash.Weighted>
0.1064

> <Gold.Chemscore.DEInternal.Weighted>
2.0336

> <Gold.Chemscore.Rot.Weighted>
3.1228

> <Gold.Chemscore.Internal.Correction.Weighted>
   9.000000E+99

> <Gold.Protein.RotatedTorsions>
[ 6907 6896 6895 6894 ] final -140.09 input  -60.11 | X-H torsion
[ 7974 7965 7964 7962 ] final   56.38 input  175.53 | X-H torsion
[ 8008 7997 7996 7995 ] final  -30.77 input   59.86 | X-H torsion
[ 10167 10162 10161 10158 ] final -173.56 input  -65.29 | X-H torsion
[ 10718 10713 10712 10709 ] final -147.54 input   66.30 | X-H torsion
[ 10763 10752 10751 10750 ] final  -16.88 input  -60.55 | X-H torsion
[ 11005 11000 10999 10996 ] final   84.11 input  -57.11 | X-H torsion

> <Gold.Protein.ActiveResidues>
 VAL166  LYS551  ARG553  GLY616  TRP617  ASP618  TYR619  PRO620  LYS621  CYS622 
 ASP623  PHE694  ASN695  SER759  ASP760  ASP761  ALA762  ILE779  LEU786  VAL792 
 PHE793  MET794  SER795  GLU796  ALA797  LYS798  CYS799  TRP800  GLU811  SER814 

> <Gold.Protein.RotatedAtoms>
  151.0562  133.5583  159.2637 H   0  0  0  0  0  0  0  0  0  0  0  0  # atno 6907 bound_to 6896
  151.2575  135.0642  159.9095 H   0  0  0  0  0  0  0  0  0  0  0  0  # atno 6908 bound_to 6896
  152.5390  134.0312  159.8079 H   0  0  0  0  0  0  0  0  0  0  0  0  # atno 6909 bound_to 6896
  145.9404  139.3883  143.0367 H   0  0  0  0  0  0  0  0  0  0  0  0  # atno 7974 bound_to 7965
  154.4238  140.1782  156.1459 H   0  0  0  0  0  0  0  0  0  0  0  0  # atno 8008 bound_to 7997
  155.9954  140.3365  155.6769 H   0  0  0  0  0  0  0  0  0  0  0  0  # atno 8009 bound_to 7997
  155.6316  140.0670  157.2638 H   0  0  0  0  0  0  0  0  0  0  0  0  # atno 8010 bound_to 7997
  139.5681  144.1706  152.1343 H   0  0  0  0  0  0  0  0  0  0  0  0  # atno 10167 bound_to 10162
  156.4088  130.7971  151.2187 H   0  0  0  0  0  0  0  0  0  0  0  0  # atno 10718 bound_to 10713
  153.5654  135.7009  153.5528 H   0  0  0  0  0  0  0  0  0  0  0  0  # atno 10763 bound_to 10752
  153.3392  135.4026  155.1558 H   0  0  0  0  0  0  0  0  0  0  0  0  # atno 10764 bound_to 10752
  154.8641  135.3738  154.5173 H   0  0  0  0  0  0  0  0  0  0  0  0  # atno 10765 bound_to 10752
  139.9010  134.8193  156.2401 H   0  0  0  0  0  0  0  0  0  0  0  0  # atno 11005 bound_to 11000
  145.8307  140.9632  143.0850 LP  0  0  0  0  0  0  0  0  0  0  0  0  # atno 17320 bound_to 7965
  144.6778  140.0159  143.7484 LP  0  0  0  0  0  0  0  0  0  0  0  0  # atno 17321 bound_to 7965
  140.1233  144.5353  150.6848 LP  0  0  0  0  0  0  0  0  0  0  0  0  # atno 17342 bound_to 10162
  140.6965  143.2407  151.4985 LP  0  0  0  0  0  0  0  0  0  0  0  0  # atno 17343 bound_to 10162
  157.7506  131.0264  150.3960 LP  0  0  0  0  0  0  0  0  0  0  0  0  # atno 17370 bound_to 10713
  156.4254  130.3961  149.6796 LP  0  0  0  0  0  0  0  0  0  0  0  0  # atno 17371 bound_to 10713
  141.0290  133.6999  156.1398 LP  0  0  0  0  0  0  0  0  0  0  0  0  # atno 17394 bound_to 11000
  140.7123  134.4448  157.5581 LP  0  0  0  0  0  0  0  0  0  0  0  0  # atno 17395 bound_to 11000

$$$$
