AV-unprocessed.smi:1033|AV-procd|sdf|4507|dock8
  -GOLD-   22720 2513D 1   1.00000     0.00000
 Structure written by MMmdl.
 57 59  0  0  0  0  0  0  0  0  3 V2000
  152.1911  143.7106  159.1294 C   0  0  0  0  0  0  0  0  0  0  0  0
  151.9370  142.5642  158.1661 C   0  0  0  0  0  0  0  0  0  0  0  0
  151.0891  142.7753  157.0555 C   0  0  0  0  0  0  0  0  0  0  0  0
  150.8241  141.7349  156.1388 C   0  0  0  0  0  0  0  0  0  0  0  0
  150.0383  141.7193  154.9993 N   0  0  0  0  0  0  0  0  0  0  0  0
  150.1929  140.4662  154.5833 C   0  0  0  0  0  0  0  0  0  0  0  0
  151.0015  139.6708  155.3104 N   0  0  0  0  0  0  0  0  0  0  0  0
  151.3315  138.2819  155.0477 C   0  0  0  0  0  0  0  0  0  0  0  0
  150.0825  137.3816  154.9662 C   0  0  1  0  0  0  0  0  0  0  0  0
  149.4036  137.6891  153.7658 O   0  0  0  0  0  0  0  0  0  0  0  0
  150.4038  135.8708  154.9843 C   0  0  0  0  0  0  0  0  0  0  0  0
  149.3445  135.0601  154.3308 N   0  3  2  0  0  0  0  0  0  0  0  0
  148.0384  135.1125  155.0367 C   0  0  0  0  0  0  0  0  0  0  0  0
  146.9614  134.3258  154.2688 C   0  0  0  0  0  0  0  0  0  0  0  0
  147.3828  132.9220  154.0381 N   0  3  1  0  0  0  0  0  0  0  0  0
  146.3223  132.1121  153.3840 C   0  0  0  0  0  0  0  0  0  0  0  0
  146.7180  130.6299  153.2352 C   0  0  2  0  0  0  0  0  0  0  0  0
  146.1364  130.0017  151.9622 C   0  0  0  0  0  0  0  0  0  0  0  0
  146.2293  129.9075  154.3472 O   0  0  0  0  0  0  0  0  0  0  0  0
  148.6898  132.8693  153.3335 C   0  0  0  0  0  0  0  0  0  0  0  0
  149.7667  133.6566  154.1012 C   0  0  0  0  0  0  0  0  0  0  0  0
  151.4372  140.4676  156.3637 C   0  0  0  0  0  0  0  0  0  0  0  0
  152.2815  140.2446  157.4659 C   0  0  0  0  0  0  0  0  0  0  0  0
  152.5359  141.2953  158.3720 C   0  0  0  0  0  0  0  0  0  0  0  0
  153.4488  141.0451  159.5593 C   0  0  0  0  0  0  0  0  0  0  0  0
  151.6338  144.6030  158.8428 H   0  0  0  0  0  0  0  0  0  0  0  0
  153.2503  143.9682  159.1453 H   0  0  0  0  0  0  0  0  0  0  0  0
  151.8848  143.4367  160.1393 H   0  0  0  0  0  0  0  0  0  0  0  0
  150.6313  143.7412  156.8993 H   0  0  0  0  0  0  0  0  0  0  0  0
  149.6979  140.1090  153.6919 H   0  0  0  0  0  0  0  0  0  0  0  0
  151.8941  138.2368  154.1141 H   0  0  0  0  0  0  0  0  0  0  0  0
  152.0020  137.9313  155.8340 H   0  0  0  0  0  0  0  0  0  0  0  0
  149.4222  137.6357  155.7941 H   0  0  0  0  0  0  0  0  0  0  0  0
  149.1495  136.8815  153.3446 H   0  0  0  0  0  0  0  0  0  0  0  0
  151.3574  135.7162  154.4766 H   0  0  0  0  0  0  0  0  0  0  0  0
  150.5421  135.5068  156.0031 H   0  0  0  0  0  0  0  0  0  0  0  0
  148.1508  134.7034  156.0423 H   0  0  0  0  0  0  0  0  0  0  0  0
  147.7081  136.1441  155.1533 H   0  0  0  0  0  0  0  0  0  0  0  0
  146.0311  134.3424  154.8381 H   0  0  0  0  0  0  0  0  0  0  0  0
  146.7565  134.8065  153.3107 H   0  0  0  0  0  0  0  0  0  0  0  0
  145.4034  132.1663  153.9705 H   0  0  0  0  0  0  0  0  0  0  0  0
  146.0862  132.5459  152.4109 H   0  0  0  0  0  0  0  0  0  0  0  0
  147.8014  130.5204  153.2066 H   0  0  0  0  0  0  0  0  0  0  0  0
  146.5087  130.5080  151.0711 H   0  0  0  0  0  0  0  0  0  0  0  0
  145.0475  130.0619  151.9480 H   0  0  0  0  0  0  0  0  0  0  0  0
  146.4123  128.9497  151.8806 H   0  0  0  0  0  0  0  0  0  0  0  0
  145.2842  129.9379  154.3383 H   0  0  0  0  0  0  0  0  0  0  0  0
  149.0206  131.8376  153.2191 H   0  0  0  0  0  0  0  0  0  0  0  0
  148.5782  133.2770  152.3275 H   0  0  0  0  0  0  0  0  0  0  0  0
  150.6969  133.6404  153.5315 H   0  0  0  0  0  0  0  0  0  0  0  0
  149.9719  133.1768  155.0597 H   0  0  0  0  0  0  0  0  0  0  0  0
  152.7271  139.2723  157.6156 H   0  0  0  0  0  0  0  0  0  0  0  0
  153.8453  140.0293  159.5508 H   0  0  0  0  0  0  0  0  0  0  0  0
  152.9048  141.1835  160.4940 H   0  0  0  0  0  0  0  0  0  0  0  0
  154.2939  141.7337  159.5442 H   0  0  0  0  0  0  0  0  0  0  0  0
  147.5199  132.5129  154.9520 H   0  0  0  0  0  0  0  0  0  0  0  0
  149.2059  135.4684  153.4167 H   0  0  0  0  0  0  0  0  0  0  0  0
  1  2  1  0  0  0  0
  1 26  1  0  0  0  0
  1 27  1  0  0  0  0
  1 28  1  0  0  0  0
  2 24  1  0  0  0  0
  2  3  2  0  0  0  0
  3  4  1  0  0  0  0
  3 29  1  0  0  0  0
  4 22  2  0  0  0  0
  4  5  1  0  0  0  0
  5  6  2  0  0  0  0
  6  7  1  0  0  0  0
  6 30  1  0  0  0  0
  7  8  1  0  0  0  0
  7 22  1  0  0  0  0
  8  9  1  0  0  0  0
  8 31  1  0  0  0  0
  8 32  1  0  0  0  0
  9 10  1  0  0  0  0
  9 11  1  0  0  0  0
  9 33  1  0  0  0  0
 10 34  1  0  0  0  0
 11 12  1  0  0  0  0
 11 35  1  0  0  0  0
 11 36  1  0  0  0  0
 12 21  1  0  0  0  0
 12 13  1  0  0  0  0
 12 57  1  0  0  0  0
 13 14  1  0  0  0  0
 13 37  1  0  0  0  0
 13 38  1  0  0  0  0
 14 15  1  0  0  0  0
 14 39  1  0  0  0  0
 14 40  1  0  0  0  0
 15 16  1  0  0  0  0
 15 20  1  0  0  0  0
 15 56  1  0  0  0  0
 16 17  1  0  0  0  0
 16 41  1  0  0  0  0
 16 42  1  0  0  0  0
 17 18  1  0  0  0  0
 17 19  1  0  0  0  0
 17 43  1  0  0  0  0
 18 44  1  0  0  0  0
 18 45  1  0  0  0  0
 18 46  1  0  0  0  0
 19 47  1  0  0  0  0
 20 21  1  0  0  0  0
 20 48  1  0  0  0  0
 20 49  1  0  0  0  0
 21 50  1  0  0  0  0
 21 51  1  0  0  0  0
 22 23  1  0  0  0  0
 23 24  2  0  0  0  0
 23 52  1  0  0  0  0
 24 25  1  0  0  0  0
 25 53  1  0  0  0  0
 25 54  1  0  0  0  0
 25 55  1  0  0  0  0
M  CHG  1  12   1
M  CHG  1  15   1
M  END
> <s_m_source_file>
AV-unprocessed.smi

> <i_m_source_file_index>
1033

> <i_lp_mmshare_version>
43012

> <i_f3d_flags>
0

> <s_epik_input>
W0NIM11jKFtjSF0xKWMoW0NIM10pW2NIXWMoYzEyKW4oW2NIXW4yKVtDSDJdW0NASF0oW09IXSlbQ0gyXU4zW0NIMl1bQ0gyXU4oW0NIMl1bQ0gyXTMpW0NIMl1bQ0BIXShbQ0gzXSlbT0hd

> <s_epik_cmdline>
J2VwaWtfcHl0aG9uJywgJy1waCcsICc3LjAnLCAnLXRuJywgJzgnLCAnLW1hJywgJzIwMCcsICctbWV0YWxfYmluZGluZycsICctaW1hZScsICc8aW5maWxlLm1hZT4nLCAnLW9tYWUnLCAnPG91dGZpbGUubWFlPic=

> <r_epik_Ionization_Penalty>
3.16016

> <r_epik_Ionization_Penalty_Charging>
3.07679

> <r_epik_Ionization_Penalty_Neutral>
0.083365

> <r_epik_State_Penalty>
2.09701

> <r_epik_Charging_Adjusted_Penalty>
5.1738

> <i_epik_Tot_Q>
2

> <i_epik_Tot_abs_Q>
2

> <r_epik_Metal_State_Penalty>
2.02534

> <b_epik_Metal_Only>
0

> <s_lp_Force_Field>
OPLS_2005

> <r_lp_Energy>
25.863

> <b_lp_Chiralities_Consistent>
1

> <s_lp_Variant>
AV-unprocessed.smi:1033-18

> <Gold.Version>
5.8.1

> <Gold.Id.Protein>
6NUR|6NUR_protein|mol2

> <Gold.PLP.Fitness>
57.0519

> <Gold.PLP.PLP>
-44.4451

> <Gold.PLP.part.hbond>
-3.5710

> <Gold.PLP.part.metal>
0.0000

> <Gold.PLP.part.buried>
-1.3792

> <Gold.PLP.part.nonpolar>
-38.8260

> <Gold.PLP.part.repulsive>
0.1710

> <Gold.PLP.ligand.clash>
0.0000

> <Gold.PLP.ligand.torsion>
0.8461

> <Gold.PLP.Chemscore.Hbond>
3.8000

> <Gold.PLP.Chemscore.CHOScore>
0.9265

> <Gold.PLP.Chemscore.Metal>
0.0000

> <Gold.Chemscore.Hbonds>
donor molecule, donor type, donor heavy atom, donor atom, acceptor molecule, acceptor atom, score
      L1  H    10    34       P1  7948  0.80
      L1  H    12    57       P1  7948  2.00
      L1  H    19    47       P1 10956  0.86
      L1  C     6    30       P1  7957  1.00

> <Gold.PLP.Chemscore.Internal.Correction>
0.1194

> <Gold.Rescore>
     Score         DG    S(hbond)    S(metal)    S(lipo)     H(rot)  DE(clash)    DE(int)     intcor
     16.94     -18.94       2.31        0.00     117.78       3.14       0.00       1.99       ----

> <Gold.Chemscore.Fitness>
16.9448

> <Gold.Chemscore.DG>
-18.9405

> <Gold.Chemscore.ZeroCoef>
-5.4800

> <Gold.Chemscore.Hbond>
2.3096

> <Gold.Chemscore.Metal>
0.0000

> <Gold.Chemscore.Lipo>
117.7752

> <Gold.Chemscore.Internal_Hbond>
0.0000

> <Gold.Chemscore.DEClash>
0.0042

> <Gold.Chemscore.DEInternal>
1.9915

> <Gold.Chemscore.Rot>
3.1380

> <Gold.Chemscore.Internal.Correction>
   9.000000E+99

> <Gold.Chemscore.Hbonds>
donor molecule, donor type, donor heavy atom, donor atom, acceptor molecule, acceptor atom, score
      L1  H    10    34       P1  7948  0.78
      L1  H    12    57       P1  7948  0.40
      L1  H    19    47       P1 10956  0.51

> <Gold.Chemscore.Hbond.Weighted>
-7.7140

> <Gold.Chemscore.Metal.Weighted>
-0.0000

> <Gold.Chemscore.Lipo.Weighted>
-13.7797

> <Gold.Chemscore.Internal_Hbond.Weighted>
0.0000

> <Gold.Chemscore.DEClash.Weighted>
0.0042

> <Gold.Chemscore.DEInternal.Weighted>
1.9915

> <Gold.Chemscore.Rot.Weighted>
8.0332

> <Gold.Chemscore.Internal.Correction.Weighted>
   9.000000E+99

> <Gold.Protein.RotatedTorsions>
[ 6907 6896 6895 6894 ] final -116.80 input  -60.11 | X-H torsion
[ 7974 7965 7964 7962 ] final  -97.84 input  175.53 | X-H torsion
[ 8008 7997 7996 7995 ] final  123.00 input   59.86 | X-H torsion
[ 10167 10162 10161 10158 ] final -107.39 input  -65.29 | X-H torsion
[ 10718 10713 10712 10709 ] final  -97.18 input   66.30 | X-H torsion
[ 10763 10752 10751 10750 ] final    9.66 input  -60.55 | X-H torsion
[ 11005 11000 10999 10996 ] final   27.86 input  -57.11 | X-H torsion

> <Gold.Protein.ActiveResidues>
 VAL166  LYS551  ARG553  GLY616  TRP617  ASP618  TYR619  PRO620  LYS621  CYS622 
 ASP623  PHE694  ASN695  SER759  ASP760  ASP761  ALA762  ILE779  LEU786  VAL792 
 PHE793  MET794  SER795  GLU796  ALA797  LYS798  CYS799  TRP800  GLU811  SER814 

> <Gold.Protein.RotatedAtoms>
  150.8085  133.8465  159.3193 H   0  0  0  0  0  0  0  0  0  0  0  0  # atno 6907 bound_to 6896
  151.6257  135.1026  160.0120 H   0  0  0  0  0  0  0  0  0  0  0  0  # atno 6908 bound_to 6896
  152.4177  133.7024  159.6488 H   0  0  0  0  0  0  0  0  0  0  0  0  # atno 6909 bound_to 6896
  145.3285  140.9436  143.2675 H   0  0  0  0  0  0  0  0  0  0  0  0  # atno 7974 bound_to 7965
  156.2749  140.2773  156.1558 H   0  0  0  0  0  0  0  0  0  0  0  0  # atno 8008 bound_to 7997
  155.0806  140.0388  157.2655 H   0  0  0  0  0  0  0  0  0  0  0  0  # atno 8009 bound_to 7997
  154.6967  140.2640  155.6764 H   0  0  0  0  0  0  0  0  0  0  0  0  # atno 8010 bound_to 7997
  140.1774  143.3994  152.1308 H   0  0  0  0  0  0  0  0  0  0  0  0  # atno 10167 bound_to 10162
  156.0078  130.5183  150.6337 H   0  0  0  0  0  0  0  0  0  0  0  0  # atno 10718 bound_to 10713
  153.2116  135.6870  153.8106 H   0  0  0  0  0  0  0  0  0  0  0  0  # atno 10763 bound_to 10752
  153.7337  135.3248  155.3292 H   0  0  0  0  0  0  0  0  0  0  0  0  # atno 10764 bound_to 10752
  154.8225  135.4642  154.0927 H   0  0  0  0  0  0  0  0  0  0  0  0  # atno 10765 bound_to 10752
  140.3217  134.2536  155.7716 H   0  0  0  0  0  0  0  0  0  0  0  0  # atno 11005 bound_to 11000
  144.8883  139.4809  143.6690 LP  0  0  0  0  0  0  0  0  0  0  0  0  # atno 17320 bound_to 7965
  146.3055  139.7565  142.9059 LP  0  0  0  0  0  0  0  0  0  0  0  0  # atno 17321 bound_to 7965
  139.5311  144.7160  151.5054 LP  0  0  0  0  0  0  0  0  0  0  0  0  # atno 17342 bound_to 10162
  140.6542  143.8634  150.6817 LP  0  0  0  0  0  0  0  0  0  0  0  0  # atno 17343 bound_to 10162
  157.4130  131.0826  151.1203 LP  0  0  0  0  0  0  0  0  0  0  0  0  # atno 17370 bound_to 10713
  157.1829  130.6317  149.5678 LP  0  0  0  0  0  0  0  0  0  0  0  0  # atno 17371 bound_to 10713
  141.2085  133.7776  157.0056 LP  0  0  0  0  0  0  0  0  0  0  0  0  # atno 17394 bound_to 11000
  140.0936  134.9578  157.1814 LP  0  0  0  0  0  0  0  0  0  0  0  0  # atno 17395 bound_to 11000

$$$$
