AV-unprocessed.smi:2061|AV-procd|sdf|8385|dock10
  -GOLD-   2272011 63D 1   1.00000     0.00000
 Structure written by MMmdl.
 45 46  0  0  0  0  0  0  0  0  3 V2000
  149.2613  141.0178  155.3751 C   0  0  0  0  0  0  0  0  0  0  0  0
  150.1191  139.8059  155.2431 C   0  0  0  0  0  0  0  0  0  0  0  0
  149.8465  138.4682  155.2860 C   0  0  0  0  0  0  0  0  0  0  0  0
  151.1194  137.8702  155.0781 C   0  0  0  0  0  0  0  0  0  0  0  0
  151.3761  136.5535  155.0433 N   0  5  0  0  0  0  0  0  0  0  0  0
  150.4641  135.6705  155.5092 C   0  0  0  0  0  0  0  0  0  0  0  0
  150.4462  135.1612  156.6320 O   0  0  0  0  0  0  0  0  0  0  0  0
  149.5213  135.3487  154.6112 N   0  0  0  0  0  0  0  0  0  0  0  0
  148.4099  134.4227  154.8157 C   0  0  0  0  0  0  0  0  0  0  0  0
  148.2764  133.3755  153.6790 C   0  0  1  0  0  0  0  0  0  0  0  0
  147.9234  131.9800  154.2507 C   0  0  0  0  0  0  0  0  0  0  0  0
  147.2986  133.8650  152.6521 N   0  3  1  0  0  0  0  0  0  0  0  0
  146.8993  132.8024  151.6917 C   0  0  0  0  0  0  0  0  0  0  0  0
  146.0385  133.3817  150.5570 C   0  0  1  0  0  0  0  0  0  0  0  0
  145.5629  132.2962  149.5852 C   0  0  0  0  0  0  0  0  0  0  0  0
  144.8865  134.0034  151.1148 O   0  0  0  0  0  0  0  0  0  0  0  0
  145.1699  135.0477  152.0428 C   0  0  2  0  0  0  0  0  0  0  0  0
  145.7095  136.3117  151.3491 C   0  0  0  0  0  0  0  0  0  0  0  0
  146.0776  134.5344  153.1795 C   0  0  0  0  0  0  0  0  0  0  0  0
  152.0825  138.7658  154.9414 N   0  0  0  0  0  0  0  0  0  0  0  0
  151.4484  140.0102  155.0394 O   0  0  0  0  0  0  0  0  0  0  0  0
  148.8353  141.0801  156.3763 H   0  0  0  0  0  0  0  0  0  0  0  0
  148.4404  140.9881  154.6587 H   0  0  0  0  0  0  0  0  0  0  0  0
  149.8340  141.9277  155.1939 H   0  0  0  0  0  0  0  0  0  0  0  0
  148.8890  137.9922  155.4354 H   0  0  0  0  0  0  0  0  0  0  0  0
  149.5821  135.7929  153.7065 H   0  0  0  0  0  0  0  0  0  0  0  0
  148.4903  133.9182  155.7800 H   0  0  0  0  0  0  0  0  0  0  0  0
  147.5200  135.0451  154.8839 H   0  0  0  0  0  0  0  0  0  0  0  0
  149.2466  133.2719  153.1900 H   0  0  0  0  0  0  0  0  0  0  0  0
  148.6535  131.6489  154.9884 H   0  0  0  0  0  0  0  0  0  0  0  0
  147.9247  131.2075  153.4819 H   0  0  0  0  0  0  0  0  0  0  0  0
  146.9470  131.9831  154.7361 H   0  0  0  0  0  0  0  0  0  0  0  0
  147.7711  132.3217  151.2525 H   0  0  0  0  0  0  0  0  0  0  0  0
  146.3475  132.0243  152.2219 H   0  0  0  0  0  0  0  0  0  0  0  0
  146.6186  134.1099  149.9898 H   0  0  0  0  0  0  0  0  0  0  0  0
  146.4078  131.7905  149.1171 H   0  0  0  0  0  0  0  0  0  0  0  0
  144.9523  132.7255  148.7903 H   0  0  0  0  0  0  0  0  0  0  0  0
  144.9624  131.5429  150.0958 H   0  0  0  0  0  0  0  0  0  0  0  0
  144.2117  135.3214  152.4856 H   0  0  0  0  0  0  0  0  0  0  0  0
  145.7837  137.1381  152.0562 H   0  0  0  0  0  0  0  0  0  0  0  0
  145.0449  136.6273  150.5445 H   0  0  0  0  0  0  0  0  0  0  0  0
  146.7019  136.1609  150.9250 H   0  0  0  0  0  0  0  0  0  0  0  0
  145.5262  133.8271  153.8012 H   0  0  0  0  0  0  0  0  0  0  0  0
  146.3323  135.3869  153.8084 H   0  0  0  0  0  0  0  0  0  0  0  0
  147.7887  134.5717  152.1221 H   0  0  0  0  0  0  0  0  0  0  0  0
  1  2  1  0  0  0  0
  1 22  1  0  0  0  0
  1 23  1  0  0  0  0
  1 24  1  0  0  0  0
  2 21  1  0  0  0  0
  2  3  2  0  0  0  0
  3  4  1  0  0  0  0
  3 25  1  0  0  0  0
  4  5  1  0  0  0  0
  4 20  2  0  0  0  0
  5  6  1  0  0  0  0
  6  7  2  0  0  0  0
  6  8  1  0  0  0  0
  8  9  1  0  0  0  0
  8 26  1  0  0  0  0
  9 10  1  0  0  0  0
  9 27  1  0  0  0  0
  9 28  1  0  0  0  0
 10 11  1  0  0  0  0
 10 12  1  0  0  0  0
 10 29  1  0  0  0  0
 11 30  1  0  0  0  0
 11 31  1  0  0  0  0
 11 32  1  0  0  0  0
 12 19  1  0  0  0  0
 12 13  1  0  0  0  0
 12 45  1  0  0  0  0
 13 14  1  0  0  0  0
 13 33  1  0  0  0  0
 13 34  1  0  0  0  0
 14 15  1  0  0  0  0
 14 16  1  0  0  0  0
 14 35  1  0  0  0  0
 15 36  1  0  0  0  0
 15 37  1  0  0  0  0
 15 38  1  0  0  0  0
 16 17  1  0  0  0  0
 17 18  1  0  0  0  0
 17 19  1  0  0  0  0
 17 39  1  0  0  0  0
 18 40  1  0  0  0  0
 18 41  1  0  0  0  0
 18 42  1  0  0  0  0
 19 43  1  0  0  0  0
 19 44  1  0  0  0  0
 20 21  1  0  0  0  0
M  CHG  1   5  -1
M  CHG  1  12   1
M  END
> <s_m_source_file>
AV-unprocessed.smi

> <i_m_source_file_index>
2061

> <i_lp_mmshare_version>
43012

> <i_f3d_flags>
0

> <s_epik_input>
W0NIM11jMVtjSF1jKG5vMSlbTkhdQyg9TylbTkhdW0NIMl1bQ0BIXShbQ0gzXSlOMltDSDJdW0NAQEhdKFtDSDNdKU9bQ0BASF0oW0NIM10pW0NIMl0y

> <s_epik_cmdline>
J2VwaWtfcHl0aG9uJywgJy1waCcsICc3LjAnLCAnLXRuJywgJzgnLCAnLW1hJywgJzIwMCcsICctbWV0YWxfYmluZGluZycsICctaW1hZScsICc8aW5maWxlLm1hZT4nLCAnLW9tYWUnLCAnPG91dGZpbGUubWFlPic=

> <r_epik_Ionization_Penalty>
6.73511

> <r_epik_Ionization_Penalty_Charging>
6.73502

> <r_epik_Ionization_Penalty_Neutral>
9.50841e-05

> <r_epik_State_Penalty>
6.93549

> <r_epik_Charging_Adjusted_Penalty>
13.6705

> <i_epik_Tot_Q>
0

> <i_epik_Tot_abs_Q>
2

> <r_epik_Metal_State_Penalty>
2.87211

> <b_epik_Metal_Only>
1

> <s_lp_Force_Field>
OPLS_2005

> <r_lp_Energy>
11.2627

> <b_lp_Chiralities_Consistent>
1

> <s_lp_Variant>
AV-unprocessed.smi:2061-26

> <Gold.Version>
5.8.1

> <Gold.Id.Protein>
6NUR|6NUR_protein|mol2

> <Gold.PLP.Fitness>
49.4976

> <Gold.PLP.PLP>
-35.3555

> <Gold.PLP.part.hbond>
-3.8285

> <Gold.PLP.part.metal>
0.0000

> <Gold.PLP.part.buried>
-4.1696

> <Gold.PLP.part.nonpolar>
-28.5317

> <Gold.PLP.part.repulsive>
0.4380

> <Gold.PLP.ligand.clash>
0.0000

> <Gold.PLP.ligand.torsion>
1.6762

> <Gold.PLP.Chemscore.Hbond>
5.8000

> <Gold.PLP.Chemscore.CHOScore>
0.0000

> <Gold.PLP.Chemscore.Metal>
0.0000

> <Gold.Chemscore.Hbonds>
donor molecule, donor type, donor heavy atom, donor atom, acceptor molecule, acceptor atom, score
      L1  H     8    26       P1  7948  1.00
      L1  H    12    45       P1  7948  2.00
      P1  H  7989  7998       L1    21  1.00
      P1  H 10752 10765       L1     5  1.92

> <Gold.PLP.Chemscore.Internal.Correction>
0.0945

> <Gold.Rescore>
     Score         DG    S(hbond)    S(metal)    S(lipo)     H(rot)  DE(clash)    DE(int)     intcor
     17.48     -19.12       3.09        0.00      62.36       1.56       0.13       1.51       ----

> <Gold.Chemscore.Fitness>
17.4845

> <Gold.Chemscore.DG>
-19.1183

> <Gold.Chemscore.ZeroCoef>
-5.4800

> <Gold.Chemscore.Hbond>
3.0908

> <Gold.Chemscore.Metal>
0.0000

> <Gold.Chemscore.Lipo>
62.3567

> <Gold.Chemscore.Internal_Hbond>
0.0000

> <Gold.Chemscore.DEClash>
0.1280

> <Gold.Chemscore.DEInternal>
1.5057

> <Gold.Chemscore.Rot>
1.5550

> <Gold.Chemscore.Internal.Correction>
   9.000000E+99

> <Gold.Chemscore.Hbonds>
donor molecule, donor type, donor heavy atom, donor atom, acceptor molecule, acceptor atom, score
      L1  H     8    26       P1  7948  0.29
      L1  H    12    45       P1  7948  0.43
      P1  H  7989  7998       L1    21  0.45
      P1  H 10752 10765       L1     5  0.77

> <Gold.Chemscore.Hbond.Weighted>
-10.3234

> <Gold.Chemscore.Metal.Weighted>
-0.0000

> <Gold.Chemscore.Lipo.Weighted>
-7.2957

> <Gold.Chemscore.Internal_Hbond.Weighted>
0.0000

> <Gold.Chemscore.DEClash.Weighted>
0.1280

> <Gold.Chemscore.DEInternal.Weighted>
1.5057

> <Gold.Chemscore.Rot.Weighted>
3.9809

> <Gold.Chemscore.Internal.Correction.Weighted>
   9.000000E+99

> <Gold.Protein.RotatedTorsions>
[ 6907 6896 6895 6894 ] final   79.22 input  -60.11 | X-H torsion
[ 7974 7965 7964 7962 ] final   90.46 input  175.53 | X-H torsion
[ 8008 7997 7996 7995 ] final  -88.62 input   59.86 | X-H torsion
[ 10167 10162 10161 10158 ] final    7.85 input  -65.29 | X-H torsion
[ 10718 10713 10712 10709 ] final   68.76 input   66.30 | X-H torsion
[ 10763 10752 10751 10750 ] final  156.90 input  -60.55 | X-H torsion
[ 11005 11000 10999 10996 ] final   88.23 input  -57.11 | X-H torsion

> <Gold.Protein.ActiveResidues>
 VAL166  LYS551  ARG553  GLY616  TRP617  ASP618  TYR619  PRO620  LYS621  CYS622 
 ASP623  PHE694  ASN695  SER759  ASP760  ASP761  ALA762  ILE779  LEU786  VAL792 
 PHE793  MET794  SER795  GLU796  ALA797  LYS798  CYS799  TRP800  GLU811  SER814 

> <Gold.Protein.RotatedAtoms>
  152.5190  134.3544  159.9262 H   0  0  0  0  0  0  0  0  0  0  0  0  # atno 6907 bound_to 6896
  151.3495  133.3924  159.2686 H   0  0  0  0  0  0  0  0  0  0  0  0  # atno 6908 bound_to 6896
  150.9738  134.9125  159.7862 H   0  0  0  0  0  0  0  0  0  0  0  0  # atno 6909 bound_to 6896
  145.5187  139.2278  143.2684 H   0  0  0  0  0  0  0  0  0  0  0  0  # atno 7974 bound_to 7965
  154.6769  140.0551  157.0225 H   0  0  0  0  0  0  0  0  0  0  0  0  # atno 8008 bound_to 7997
  155.1007  140.3228  155.4529 H   0  0  0  0  0  0  0  0  0  0  0  0  # atno 8009 bound_to 7997
  156.2679  140.2031  156.6133 H   0  0  0  0  0  0  0  0  0  0  0  0  # atno 8010 bound_to 7997
  140.6348  143.7911  150.7344 H   0  0  0  0  0  0  0  0  0  0  0  0  # atno 10167 bound_to 10162
  157.6307  130.9390  150.0421 H   0  0  0  0  0  0  0  0  0  0  0  0  # atno 10718 bound_to 10713
  154.1916  135.2794  155.3020 H   0  0  0  0  0  0  0  0  0  0  0  0  # atno 10763 bound_to 10752
  154.5924  135.5555  153.7295 H   0  0  0  0  0  0  0  0  0  0  0  0  # atno 10764 bound_to 10752
  153.0111  135.6371  154.2055 H   0  0  0  0  0  0  0  0  0  0  0  0  # atno 10765 bound_to 10752
  139.8901  134.8474  156.2971 H   0  0  0  0  0  0  0  0  0  0  0  0  # atno 11005 bound_to 11000
  146.2120  140.5998  142.9055 LP  0  0  0  0  0  0  0  0  0  0  0  0  # atno 17320 bound_to 7965
  144.7688  140.5590  143.6685 LP  0  0  0  0  0  0  0  0  0  0  0  0  # atno 17321 bound_to 7965
  140.1530  143.4341  152.2118 LP  0  0  0  0  0  0  0  0  0  0  0  0  # atno 17342 bound_to 10162
  139.5559  144.7372  151.4296 LP  0  0  0  0  0  0  0  0  0  0  0  0  # atno 17343 bound_to 10162
  156.1509  130.3642  149.9439 LP  0  0  0  0  0  0  0  0  0  0  0  0  # atno 17370 bound_to 10713
  156.7459  130.9097  151.3635 LP  0  0  0  0  0  0  0  0  0  0  0  0  # atno 17371 bound_to 10713
  140.9938  133.7192  156.0854 LP  0  0  0  0  0  0  0  0  0  0  0  0  # atno 17394 bound_to 11000
  140.7590  134.3961  157.5529 LP  0  0  0  0  0  0  0  0  0  0  0  0  # atno 17395 bound_to 11000

$$$$
