AV-unprocessed.smi:2525|AV-procd|sdf|9932|dock10
  -GOLD-   2272013573D 1   1.00000     0.00000
 Structure written by MMmdl.
 44 45  0  0  0  0  0  0  0  0  1 V2000
  146.9600  141.4756  153.5140 C   0  0  0  0  0  0  0  0  0  0  0  0
  148.4380  141.3828  153.9378 C   0  0  0  0  0  0  0  0  0  0  0  0
  148.8005  140.2967  154.9907 C   0  0  0  0  0  0  0  0  0  0  0  0
  147.8557  140.4298  156.2048 C   0  0  0  0  0  0  0  0  0  0  0  0
  147.8800  141.8051  156.8917 C   0  0  0  0  0  0  0  0  0  0  0  0
  149.0261  138.8434  154.4870 C   0  0  1  0  0  0  0  0  0  0  0  0
  148.3317  138.4917  153.2546 N   0  0  0  0  0  0  0  0  0  0  0  0
  146.9998  138.5056  153.0957 C   0  0  0  0  0  0  0  0  0  0  0  0
  146.2140  138.8500  153.9778 O   0  0  0  0  0  0  0  0  0  0  0  0
  146.4721  138.0765  151.7255 C   0  0  0  0  0  0  0  0  0  0  0  0
  145.8409  136.7695  151.7878 N   0  0  0  0  0  0  0  0  0  0  0  0
  145.5899  135.8856  150.7583 C   0  0  0  0  0  0  0  0  0  0  0  0
  144.9744  134.8381  151.3817 C   0  0  0  0  0  0  0  0  0  0  0  0
  144.8785  135.1220  152.7428 N   0  0  0  0  0  0  0  0  0  0  0  0
  145.4032  136.2840  152.9750 N   0  0  0  0  0  0  0  0  0  0  0  0
  150.5025  139.1704  154.2452 C   0  0  2  0  0  0  0  0  0  0  0  0
  151.5503  138.0743  154.3962 C   0  0  0  0  0  0  0  0  0  0  0  0
  150.3198  140.2529  155.3247 C   0  0  2  0  0  0  0  0  0  0  0  0
  150.5682  139.7588  156.6370 O   0  0  0  0  0  0  0  0  0  0  0  0
  150.6086  140.7807  157.6181 C   0  0  0  0  0  0  0  0  0  0  0  0
  146.8478  142.1749  152.6854 H   0  0  0  0  0  0  0  0  0  0  0  0
  146.3274  141.8412  154.3223 H   0  0  0  0  0  0  0  0  0  0  0  0
  146.5622  140.5178  153.1848 H   0  0  0  0  0  0  0  0  0  0  0  0
  149.0234  141.2329  153.0312 H   0  0  0  0  0  0  0  0  0  0  0  0
  148.7497  142.3634  154.2981 H   0  0  0  0  0  0  0  0  0  0  0  0
  146.8325  140.1762  155.9302 H   0  0  0  0  0  0  0  0  0  0  0  0
  148.1164  139.6833  156.9556 H   0  0  0  0  0  0  0  0  0  0  0  0
  147.2461  141.8007  157.7786 H   0  0  0  0  0  0  0  0  0  0  0  0
  147.5130  142.5939  156.2359 H   0  0  0  0  0  0  0  0  0  0  0  0
  148.8873  142.0740  157.2098 H   0  0  0  0  0  0  0  0  0  0  0  0
  148.9161  138.1037  155.2841 H   0  0  0  0  0  0  0  0  0  0  0  0
  148.9023  138.1990  152.4746 H   0  0  0  0  0  0  0  0  0  0  0  0
  145.7417  138.8002  151.3615 H   0  0  0  0  0  0  0  0  0  0  0  0
  147.2911  138.0560  151.0045 H   0  0  0  0  0  0  0  0  0  0  0  0
  145.8538  136.0738  149.7280 H   0  0  0  0  0  0  0  0  0  0  0  0
  144.5950  133.9146  150.9695 H   0  0  0  0  0  0  0  0  0  0  0  0
  150.6229  139.6601  153.2770 H   0  0  0  0  0  0  0  0  0  0  0  0
  151.4627  137.5630  155.3552 H   0  0  0  0  0  0  0  0  0  0  0  0
  152.5596  138.4797  154.3254 H   0  0  0  0  0  0  0  0  0  0  0  0
  151.4431  137.3217  153.6147 H   0  0  0  0  0  0  0  0  0  0  0  0
  150.8311  141.1933  155.1106 H   0  0  0  0  0  0  0  0  0  0  0  0
  150.8408  140.3452  158.5898 H   0  0  0  0  0  0  0  0  0  0  0  0
  149.6433  141.2822  157.6973 H   0  0  0  0  0  0  0  0  0  0  0  0
  151.3708  141.5265  157.3922 H   0  0  0  0  0  0  0  0  0  0  0  0
  1  2  1  0  0  0  0
  1 21  1  0  0  0  0
  1 22  1  0  0  0  0
  1 23  1  0  0  0  0
  2  3  1  0  0  0  0
  2 24  1  0  0  0  0
  2 25  1  0  0  0  0
  3 18  1  0  0  0  0
  3  4  1  0  0  0  0
  3  6  1  0  0  0  0
  4  5  1  0  0  0  0
  4 26  1  0  0  0  0
  4 27  1  0  0  0  0
  5 28  1  0  0  0  0
  5 29  1  0  0  0  0
  5 30  1  0  0  0  0
  6  7  1  0  0  0  0
  6 16  1  0  0  0  0
  6 31  1  0  0  0  0
  7  8  1  0  0  0  0
  7 32  1  0  0  0  0
  8  9  2  0  0  0  0
  8 10  1  0  0  0  0
 10 11  1  0  0  0  0
 10 33  1  0  0  0  0
 10 34  1  0  0  0  0
 11 15  1  0  0  0  0
 11 12  1  0  0  0  0
 12 13  2  0  0  0  0
 12 35  1  0  0  0  0
 13 14  1  0  0  0  0
 13 36  1  0  0  0  0
 14 15  2  0  0  0  0
 16 17  1  0  0  0  0
 16 18  1  0  0  0  0
 16 37  1  0  0  0  0
 17 38  1  0  0  0  0
 17 39  1  0  0  0  0
 17 40  1  0  0  0  0
 18 19  1  0  0  0  0
 18 41  1  0  0  0  0
 19 20  1  0  0  0  0
 20 42  1  0  0  0  0
 20 43  1  0  0  0  0
 20 44  1  0  0  0  0
M  END
> <s_m_source_file>
AV-unprocessed.smi

> <i_m_source_file_index>
2525

> <i_lp_mmshare_version>
43012

> <i_f3d_flags>
0

> <s_epik_input>
W0NIM11PW0NAQEhdMVtDQEhdKFtDSDNdKVtDQEBIXShDMShbQ0gyXVtDSDNdKVtDSDJdW0NIM10pW05IXUMoPU8pW0NIMl1uMltjSF1bY0hdbm4y

> <s_epik_cmdline>
J2VwaWtfcHl0aG9uJywgJy1waCcsICc3LjAnLCAnLXRuJywgJzgnLCAnLW1hJywgJzIwMCcsICctbWV0YWxfYmluZGluZycsICctaW1hZScsICc8aW5maWxlLm1hZT4nLCAnLW9tYWUnLCAnPG91dGZpbGUubWFlPic=

> <r_lp_tautomer_probability>
1

> <r_epik_Ionization_Penalty>
1.18045e-06

> <r_epik_Ionization_Penalty_Charging>
0

> <r_epik_Ionization_Penalty_Neutral>
1.18045e-06

> <r_epik_State_Penalty>
-0

> <r_epik_Charging_Adjusted_Penalty>
0

> <i_epik_Tot_Q>
0

> <i_epik_Tot_abs_Q>
0

> <r_epik_Metal_State_Penalty>
-0

> <b_epik_Metal_Only>
0

> <s_lp_Force_Field>
OPLS_2005

> <r_lp_Energy>
28.9829

> <b_lp_Chiralities_Consistent>
1

> <s_lp_Variant>
AV-unprocessed.smi:2525-7

> <Gold.Version>
5.8.1

> <Gold.Id.Protein>
6NUR|6NUR_protein|mol2

> <Gold.PLP.Fitness>
36.4578

> <Gold.PLP.PLP>
-33.1675

> <Gold.PLP.part.hbond>
-2.0000

> <Gold.PLP.part.metal>
0.0000

> <Gold.PLP.part.buried>
-0.4524

> <Gold.PLP.part.nonpolar>
-31.5033

> <Gold.PLP.part.repulsive>
0.3904

> <Gold.PLP.ligand.clash>
0.0152

> <Gold.PLP.ligand.torsion>
0.9761

> <Gold.PLP.Chemscore.Hbond>
0.5280

> <Gold.PLP.Chemscore.CHOScore>
0.9955

> <Gold.PLP.Chemscore.Metal>
0.0000

> <Gold.Chemscore.Hbonds>
donor molecule, donor type, donor heavy atom, donor atom, acceptor molecule, acceptor atom, score
      L1  H     7    32       P1  7948  0.46
      L1  C    12    35       P1  7921  1.00

> <Gold.PLP.Chemscore.Internal.Correction>
0.6872

> <Gold.Rescore>
     Score         DG    S(hbond)    S(metal)    S(lipo)     H(rot)  DE(clash)    DE(int)     intcor
      8.75     -11.97       0.74        0.00      77.55       1.98       0.38       2.84       ----

> <Gold.Chemscore.Fitness>
8.7482

> <Gold.Chemscore.DG>
-11.9682

> <Gold.Chemscore.ZeroCoef>
-5.4800

> <Gold.Chemscore.Hbond>
0.7447

> <Gold.Chemscore.Metal>
0.0000

> <Gold.Chemscore.Lipo>
77.5540

> <Gold.Chemscore.Internal_Hbond>
0.0000

> <Gold.Chemscore.DEClash>
0.3758

> <Gold.Chemscore.DEInternal>
2.8442

> <Gold.Chemscore.Rot>
1.9817

> <Gold.Chemscore.Internal.Correction>
   9.000000E+99

> <Gold.Chemscore.Hbonds>
donor molecule, donor type, donor heavy atom, donor atom, acceptor molecule, acceptor atom, score
      L1  H     7    32       P1  7948  0.43

> <Gold.Chemscore.Hbond.Weighted>
-2.4874

> <Gold.Chemscore.Metal.Weighted>
-0.0000

> <Gold.Chemscore.Lipo.Weighted>
-9.0738

> <Gold.Chemscore.Internal_Hbond.Weighted>
0.0000

> <Gold.Chemscore.DEClash.Weighted>
0.3758

> <Gold.Chemscore.DEInternal.Weighted>
2.8442

> <Gold.Chemscore.Rot.Weighted>
5.0731

> <Gold.Chemscore.Internal.Correction.Weighted>
   9.000000E+99

> <Gold.Protein.RotatedTorsions>
[ 6907 6896 6895 6894 ] final   88.36 input  -60.11 | X-H torsion
[ 7974 7965 7964 7962 ] final -115.26 input  175.53 | X-H torsion
[ 8008 7997 7996 7995 ] final   63.71 input   59.86 | X-H torsion
[ 10167 10162 10161 10158 ] final  -50.35 input  -65.29 | X-H torsion
[ 10718 10713 10712 10709 ] final -115.93 input   66.30 | X-H torsion
[ 10763 10752 10751 10750 ] final  -24.87 input  -60.55 | X-H torsion
[ 11005 11000 10999 10996 ] final  -33.33 input  -57.11 | X-H torsion

> <Gold.Protein.ActiveResidues>
 VAL166  LYS551  ARG553  GLY616  TRP617  ASP618  TYR619  PRO620  LYS621  CYS622 
 ASP623  PHE694  ASN695  SER759  ASP760  ASP761  ALA762  ILE779  LEU786  VAL792 
 PHE793  MET794  SER795  GLU796  ALA797  LYS798  CYS799  TRP800  GLU811  SER814 

> <Gold.Protein.RotatedAtoms>
  152.5424  134.2133  159.8758 H   0  0  0  0  0  0  0  0  0  0  0  0  # atno 6907 bound_to 6896
  151.2114  133.4547  159.2606 H   0  0  0  0  0  0  0  0  0  0  0  0  # atno 6908 bound_to 6896
  151.0893  134.9919  159.8450 H   0  0  0  0  0  0  0  0  0  0  0  0  # atno 6909 bound_to 6896
  145.1105  140.8609  143.3872 H   0  0  0  0  0  0  0  0  0  0  0  0  # atno 7974 bound_to 7965
  155.6345  140.3496  155.4694 H   0  0  0  0  0  0  0  0  0  0  0  0  # atno 8008 bound_to 7997
  155.9976  140.1206  157.0602 H   0  0  0  0  0  0  0  0  0  0  0  0  # atno 8009 bound_to 7997
  154.4238  140.1107  156.5638 H   0  0  0  0  0  0  0  0  0  0  0  0  # atno 8010 bound_to 7997
  140.6641  143.2661  151.4347 H   0  0  0  0  0  0  0  0  0  0  0  0  # atno 10167 bound_to 10162
  156.0929  130.6108  150.8970 H   0  0  0  0  0  0  0  0  0  0  0  0  # atno 10718 bound_to 10713
  153.6908  135.6962  153.5090 H   0  0  0  0  0  0  0  0  0  0  0  0  # atno 10763 bound_to 10752
  153.2415  135.4304  155.0702 H   0  0  0  0  0  0  0  0  0  0  0  0  # atno 10764 bound_to 10752
  154.8373  135.3509  154.6449 H   0  0  0  0  0  0  0  0  0  0  0  0  # atno 10765 bound_to 10752
  140.9626  133.7155  156.1394 H   0  0  0  0  0  0  0  0  0  0  0  0  # atno 11005 bound_to 11000
  145.0852  139.2930  143.5763 LP  0  0  0  0  0  0  0  0  0  0  0  0  # atno 17320 bound_to 7965
  146.3526  140.0371  142.8646 LP  0  0  0  0  0  0  0  0  0  0  0  0  # atno 17321 bound_to 7965
  139.5884  144.1552  152.2058 LP  0  0  0  0  0  0  0  0  0  0  0  0  # atno 17342 bound_to 10162
  140.0899  144.5629  150.7062 LP  0  0  0  0  0  0  0  0  0  0  0  0  # atno 17343 bound_to 10162
  157.6083  131.0938  150.8840 LP  0  0  0  0  0  0  0  0  0  0  0  0  # atno 17370 bound_to 10713
  156.8984  130.5238  149.5283 LP  0  0  0  0  0  0  0  0  0  0  0  0  # atno 17371 bound_to 10713
  140.7445  134.4113  157.5550 LP  0  0  0  0  0  0  0  0  0  0  0  0  # atno 17394 bound_to 11000
  139.8883  134.8859  156.2480 LP  0  0  0  0  0  0  0  0  0  0  0  0  # atno 17395 bound_to 11000

$$$$
