AV-unprocessed.smi:1491|AV-procd|sdf|6035|dock7
  -GOLD-   22720 6143D 1   1.00000     0.00000
 Structure written by MMmdl.
 38 39  0  0  0  0  0  0  0  0  1 V2000
  144.7491  137.0875  153.3744 O   0  0  0  0  0  0  0  0  0  0  0  0
  145.8849  136.7215  153.0716 C   0  0  0  0  0  0  0  0  0  0  0  0
  146.1619  135.5702  152.4431 N   0  0  0  0  0  0  0  0  0  0  0  0
  145.1695  134.6053  151.9782 C   0  0  0  0  0  0  0  0  0  0  0  0
  145.8280  133.3337  151.4123 C   0  0  0  0  0  0  0  0  0  0  0  0
  145.2140  132.8895  150.1748 N   0  0  0  0  0  0  0  0  0  0  0  0
  144.0107  133.3228  149.6329 C   0  0  0  0  0  0  0  0  0  0  0  0
  143.8325  132.6224  148.4614 C   0  0  0  0  0  0  0  0  0  0  0  0
  144.9091  131.7618  148.2612 N   0  0  0  0  0  0  0  0  0  0  0  0
  145.6858  131.9759  149.3156 C   0  0  0  0  0  0  0  0  0  0  0  0
  146.9945  137.4320  153.3163 N   0  0  0  0  0  0  0  0  0  0  0  0
  147.0314  138.7423  153.9582 C   0  0  2  0  0  0  0  0  0  0  0  0
  146.9806  139.8447  152.8852 C   0  0  0  0  0  0  0  0  0  0  0  0
  147.0694  141.2467  153.5129 C   0  0  0  0  0  0  0  0  0  0  0  0
  148.3097  141.4056  154.4123 C   0  0  2  0  0  0  0  0  0  0  0  0
  149.4815  141.4257  153.6212 O   0  0  0  0  0  0  0  0  0  0  0  0
  148.3974  140.2799  155.4602 C   0  0  0  0  0  0  0  0  0  0  0  0
  148.2974  138.8814  154.8263 C   0  0  0  0  0  0  0  0  0  0  0  0
  147.1287  135.3596  152.2434 H   0  0  0  0  0  0  0  0  0  0  0  0
  144.5480  134.3371  152.8326 H   0  0  0  0  0  0  0  0  0  0  0  0
  144.4963  135.0502  151.2433 H   0  0  0  0  0  0  0  0  0  0  0  0
  146.8924  133.4984  151.2396 H   0  0  0  0  0  0  0  0  0  0  0  0
  145.7514  132.5229  152.1376 H   0  0  0  0  0  0  0  0  0  0  0  0
  143.3950  134.0674  150.1156 H   0  0  0  0  0  0  0  0  0  0  0  0
  143.0187  132.6712  147.7530 H   0  0  0  0  0  0  0  0  0  0  0  0
  146.6185  131.4533  149.4685 H   0  0  0  0  0  0  0  0  0  0  0  0
  147.8807  137.0443  153.0272 H   0  0  0  0  0  0  0  0  0  0  0  0
  146.1529  138.8556  154.5968 H   0  0  0  0  0  0  0  0  0  0  0  0
  147.7990  139.7109  152.1762 H   0  0  0  0  0  0  0  0  0  0  0  0
  146.0584  139.7618  152.3089 H   0  0  0  0  0  0  0  0  0  0  0  0
  147.0679  142.0082  152.7324 H   0  0  0  0  0  0  0  0  0  0  0  0
  146.1736  141.4225  154.1097 H   0  0  0  0  0  0  0  0  0  0  0  0
  148.2565  142.3669  154.9245 H   0  0  0  0  0  0  0  0  0  0  0  0
  149.4858  140.6573  153.0712 H   0  0  0  0  0  0  0  0  0  0  0  0
  149.3216  140.3662  156.0329 H   0  0  0  0  0  0  0  0  0  0  0  0
  147.5844  140.3997  156.1775 H   0  0  0  0  0  0  0  0  0  0  0  0
  148.2977  138.1253  155.6123 H   0  0  0  0  0  0  0  0  0  0  0  0
  149.1840  138.6929  154.2192 H   0  0  0  0  0  0  0  0  0  0  0  0
  1  2  2  0  0  0  0
  2  3  1  0  0  0  0
  2 11  1  0  0  0  0
  3  4  1  0  0  0  0
  3 19  1  0  0  0  0
  4  5  1  0  0  0  0
  4 20  1  0  0  0  0
  4 21  1  0  0  0  0
  5  6  1  0  0  0  0
  5 22  1  0  0  0  0
  5 23  1  0  0  0  0
  6 10  1  0  0  0  0
  6  7  1  0  0  0  0
  7  8  2  0  0  0  0
  7 24  1  0  0  0  0
  8  9  1  0  0  0  0
  8 25  1  0  0  0  0
  9 10  2  0  0  0  0
 10 26  1  0  0  0  0
 11 12  1  0  0  0  0
 11 27  1  0  0  0  0
 12 18  1  0  0  0  0
 12 13  1  0  0  0  0
 12 28  1  0  0  0  0
 13 14  1  0  0  0  0
 13 29  1  0  0  0  0
 13 30  1  0  0  0  0
 14 15  1  0  0  0  0
 14 31  1  0  0  0  0
 14 32  1  0  0  0  0
 15 16  1  0  0  0  0
 15 17  1  0  0  0  0
 15 33  1  0  0  0  0
 16 34  1  0  0  0  0
 17 18  1  0  0  0  0
 17 35  1  0  0  0  0
 17 36  1  0  0  0  0
 18 37  1  0  0  0  0
 18 38  1  0  0  0  0
M  END
> <s_m_source_file>
AV-unprocessed.smi

> <i_m_source_file_index>
1491

> <i_lp_mmshare_version>
43012

> <i_f3d_flags>
0

> <s_epik_input>
W0NIMl0xW0NIMl1bQ0BIXShbT0hdKVtDSDJdW0NIMl1bQ0BIXTFbTkhdQyg9TylbTkhdW0NIMl1bQ0gyXW4yW2NIXVtjSF1uW2NIXTI=

> <s_epik_cmdline>
J2VwaWtfcHl0aG9uJywgJy1waCcsICc3LjAnLCAnLXRuJywgJzgnLCAnLW1hJywgJzIwMCcsICctbWV0YWxfYmluZGluZycsICctaW1hZScsICc8aW5maWxlLm1hZT4nLCAnLW9tYWUnLCAnPG91dGZpbGUubWFlPic=

> <r_lp_tautomer_probability>
1

> <r_epik_Ionization_Penalty>
0.623245

> <r_epik_Ionization_Penalty_Charging>
0.623187

> <r_epik_Ionization_Penalty_Neutral>
5.75214e-05

> <r_epik_State_Penalty>
0.639392

> <r_epik_Charging_Adjusted_Penalty>
1.26258

> <i_epik_Tot_Q>
0

> <i_epik_Tot_abs_Q>
0

> <r_epik_Metal_State_Penalty>
0.307266

> <b_epik_Metal_Only>
0

> <s_lp_Force_Field>
OPLS_2005

> <r_lp_Energy>
9.71392

> <b_lp_Chiralities_Consistent>
1

> <s_lp_Variant>
AV-unprocessed.smi:1491-4

> <Gold.Version>
5.8.1

> <Gold.Id.Protein>
6NUR|6NUR_protein|mol2

> <Gold.PLP.Fitness>
47.1777

> <Gold.PLP.PLP>
-30.5751

> <Gold.PLP.part.hbond>
-6.9835

> <Gold.PLP.part.metal>
0.0000

> <Gold.PLP.part.buried>
2.5895

> <Gold.PLP.part.nonpolar>
-24.4370

> <Gold.PLP.part.repulsive>
0.4017

> <Gold.PLP.ligand.clash>
0.0000

> <Gold.PLP.ligand.torsion>
0.8294

> <Gold.PLP.Chemscore.Hbond>
3.2433

> <Gold.PLP.Chemscore.CHOScore>
2.8374

> <Gold.PLP.Chemscore.Metal>
0.0000

> <Gold.Chemscore.Hbonds>
donor molecule, donor type, donor heavy atom, donor atom, acceptor molecule, acceptor atom, score
      L1  H     3    19       P1  7948  0.88
      L1  H    11    27       P1  7948  1.00
      L1  H    16    34       P1  7957  0.85
      P1  H  8011  8017       L1    16  0.51
      L1  C     7    24       P1 10186  0.87
      L1  C     8    25       P1 10195  0.87
      L1  C    10    26       P1 10747  0.98

> <Gold.PLP.Chemscore.Internal.Correction>
0.0194

> <Gold.Rescore>
     Score         DG    S(hbond)    S(metal)    S(lipo)     H(rot)  DE(clash)    DE(int)     intcor
     14.63     -16.38       2.88        0.00      67.12       2.57       1.04       0.71       ----

> <Gold.Chemscore.Fitness>
14.6261

> <Gold.Chemscore.DG>
-16.3783

> <Gold.Chemscore.ZeroCoef>
-5.4800

> <Gold.Chemscore.Hbond>
2.8845

> <Gold.Chemscore.Metal>
0.0000

> <Gold.Chemscore.Lipo>
67.1205

> <Gold.Chemscore.Internal_Hbond>
0.0000

> <Gold.Chemscore.DEClash>
1.0405

> <Gold.Chemscore.DEInternal>
0.7117

> <Gold.Chemscore.Rot>
2.5738

> <Gold.Chemscore.Internal.Correction>
   9.000000E+99

> <Gold.Chemscore.Hbonds>
donor molecule, donor type, donor heavy atom, donor atom, acceptor molecule, acceptor atom, score
      L1  H     3    19       P1  7948  0.81
      L1  H    11    27       P1  7948  0.97
      L1  H    16    34       P1  7957  0.81
      P1  H  8011  8017       L1    16  0.04

> <Gold.Chemscore.Hbond.Weighted>
-9.6342

> <Gold.Chemscore.Metal.Weighted>
-0.0000

> <Gold.Chemscore.Lipo.Weighted>
-7.8531

> <Gold.Chemscore.Internal_Hbond.Weighted>
0.0000

> <Gold.Chemscore.DEClash.Weighted>
1.0405

> <Gold.Chemscore.DEInternal.Weighted>
0.7117

> <Gold.Chemscore.Rot.Weighted>
6.5890

> <Gold.Chemscore.Internal.Correction.Weighted>
   9.000000E+99

> <Gold.Protein.RotatedTorsions>
[ 6907 6896 6895 6894 ] final  -27.71 input  -60.11 | X-H torsion
[ 7974 7965 7964 7962 ] final  -20.15 input  175.53 | X-H torsion
[ 8008 7997 7996 7995 ] final  -43.89 input   59.86 | X-H torsion
[ 10167 10162 10161 10158 ] final  -61.04 input  -65.29 | X-H torsion
[ 10718 10713 10712 10709 ] final  153.25 input   66.30 | X-H torsion
[ 10763 10752 10751 10750 ] final   64.35 input  -60.55 | X-H torsion
[ 11005 11000 10999 10996 ] final -117.39 input  -57.11 | X-H torsion

> <Gold.Protein.ActiveResidues>
 VAL166  LYS551  ARG553  GLY616  TRP617  ASP618  TYR619  PRO620  LYS621  CYS622 
 ASP623  PHE694  ASN695  SER759  ASP760  ASP761  ALA762  ILE779  LEU786  VAL792 
 PHE793  MET794  SER795  GLU796  ALA797  LYS798  CYS799  TRP800  GLU811  SER814 

> <Gold.Protein.RotatedAtoms>
  151.1431  135.0190  159.8634 H   0  0  0  0  0  0  0  0  0  0  0  0  # atno 6907 bound_to 6896
  152.5452  134.1475  159.8515 H   0  0  0  0  0  0  0  0  0  0  0  0  # atno 6908 bound_to 6896
  151.1553  133.4835  159.2627 H   0  0  0  0  0  0  0  0  0  0  0  0  # atno 6909 bound_to 6896
  146.1803  140.4162  142.8497 H   0  0  0  0  0  0  0  0  0  0  0  0  # atno 7974 bound_to 7965
  154.3997  140.1436  156.3594 H   0  0  0  0  0  0  0  0  0  0  0  0  # atno 8008 bound_to 7997
  155.8195  140.3470  155.5485 H   0  0  0  0  0  0  0  0  0  0  0  0  # atno 8009 bound_to 7997
  155.8302  140.0911  157.1787 H   0  0  0  0  0  0  0  0  0  0  0  0  # atno 8010 bound_to 7997
  140.6032  143.2366  151.5881 H   0  0  0  0  0  0  0  0  0  0  0  0  # atno 10167 bound_to 10162
  157.2472  131.0771  151.1754 H   0  0  0  0  0  0  0  0  0  0  0  0  # atno 10718 bound_to 10713
  153.0052  135.5396  154.6496 H   0  0  0  0  0  0  0  0  0  0  0  0  # atno 10763 bound_to 10752
  154.5732  135.2843  155.0809 H   0  0  0  0  0  0  0  0  0  0  0  0  # atno 10764 bound_to 10752
  154.1967  135.6491  153.5128 H   0  0  0  0  0  0  0  0  0  0  0  0  # atno 10765 bound_to 10752
  141.0358  133.9912  157.3073 H   0  0  0  0  0  0  0  0  0  0  0  0  # atno 11005 bound_to 11000
  144.8305  140.6698  143.6294 LP  0  0  0  0  0  0  0  0  0  0  0  0  # atno 17320 bound_to 7965
  145.4094  139.1583  143.4134 LP  0  0  0  0  0  0  0  0  0  0  0  0  # atno 17321 bound_to 7965
  139.5306  144.2928  152.1138 LP  0  0  0  0  0  0  0  0  0  0  0  0  # atno 17342 bound_to 10162
  140.2113  144.4560  150.6384 LP  0  0  0  0  0  0  0  0  0  0  0  0  # atno 17343 bound_to 10162
  157.3317  130.6988  149.6328 LP  0  0  0  0  0  0  0  0  0  0  0  0  # atno 17370 bound_to 10713
  155.9667  130.4305  150.4882 LP  0  0  0  0  0  0  0  0  0  0  0  0  # atno 17371 bound_to 10713
  139.9239  135.0201  156.8165 LP  0  0  0  0  0  0  0  0  0  0  0  0  # atno 17394 bound_to 11000
  140.6325  133.9892  155.7669 LP  0  0  0  0  0  0  0  0  0  0  0  0  # atno 17395 bound_to 11000

$$$$
