AV-unprocessed.smi:1584|AV-procd|sdf|6367|dock5
  -GOLD-   22720 6593D 1   1.00000     0.00000
 Structure written by MMmdl.
 39 40  0  0  0  0  0  0  0  0  1 V2000
  147.4352  134.8458  155.0858 C   0  0  0  0  0  0  0  0  0  0  0  0
  146.9224  136.2939  155.0230 C   0  0  2  0  0  0  0  0  0  0  0  0
  145.5742  136.4312  154.2818 C   0  0  0  0  0  0  0  0  0  0  0  0
  145.5922  135.8164  152.9667 N   0  0  0  0  0  0  0  0  0  0  0  0
  145.3523  136.4085  151.7447 C   0  0  0  0  0  0  0  0  0  0  0  0
  145.4812  135.4396  150.7913 C   0  0  0  0  0  0  0  0  0  0  0  0
  145.8086  134.2730  151.5375 C   0  0  0  0  0  0  0  0  0  0  0  0
  145.8762  134.5018  152.8391 N   0  0  0  0  0  0  0  0  0  0  0  0
  147.9350  137.1317  154.3868 N   0  0  0  0  0  0  0  0  0  0  0  0
  148.5528  138.1764  154.9606 C   0  0  0  0  0  0  0  0  0  0  0  0
  148.3245  138.5411  156.1145 O   0  0  0  0  0  0  0  0  0  0  0  0
  149.5935  138.9149  154.1006 C   0  0  1  0  0  0  0  0  0  0  0  0
  149.2289  140.3857  153.8546 C   0  0  0  0  0  0  0  0  0  0  0  0
  149.4407  141.2474  155.1067 C   0  0  0  0  0  0  0  0  0  0  0  0
  150.7461  141.0312  155.7425 N   0  0  0  0  0  0  0  0  0  0  0  0
  151.1896  142.1118  156.6255 C   0  0  0  0  0  0  0  0  0  0  0  0
  151.4948  139.9105  155.6022 C   0  0  0  0  0  0  0  0  0  0  0  0
  152.5674  139.7602  156.1878 O   0  0  0  0  0  0  0  0  0  0  0  0
  151.0243  138.7776  154.6697 C   0  0  0  0  0  0  0  0  0  0  0  0
  146.7498  134.2025  155.6378 H   0  0  0  0  0  0  0  0  0  0  0  0
  148.4016  134.7931  155.5886 H   0  0  0  0  0  0  0  0  0  0  0  0
  147.5554  134.4245  154.0872 H   0  0  0  0  0  0  0  0  0  0  0  0
  146.7896  136.6352  156.0515 H   0  0  0  0  0  0  0  0  0  0  0  0
  144.7745  135.9624  154.8565 H   0  0  0  0  0  0  0  0  0  0  0  0
  145.3041  137.4836  154.1779 H   0  0  0  0  0  0  0  0  0  0  0  0
  145.1110  137.4578  151.6580 H   0  0  0  0  0  0  0  0  0  0  0  0
  145.3609  135.5477  149.7236 H   0  0  0  0  0  0  0  0  0  0  0  0
  145.9983  133.2738  151.1741 H   0  0  0  0  0  0  0  0  0  0  0  0
  148.1849  136.8987  153.4365 H   0  0  0  0  0  0  0  0  0  0  0  0
  149.5940  138.4223  153.1266 H   0  0  0  0  0  0  0  0  0  0  0  0
  149.8504  140.7731  153.0460 H   0  0  0  0  0  0  0  0  0  0  0  0
  148.1977  140.4756  153.5104 H   0  0  0  0  0  0  0  0  0  0  0  0
  149.3294  142.2967  154.8300 H   0  0  0  0  0  0  0  0  0  0  0  0
  148.6631  141.0412  155.8431 H   0  0  0  0  0  0  0  0  0  0  0  0
  151.4152  141.7316  157.6232 H   0  0  0  0  0  0  0  0  0  0  0  0
  150.4320  142.8877  156.7412 H   0  0  0  0  0  0  0  0  0  0  0  0
  152.0893  142.5830  156.2276 H   0  0  0  0  0  0  0  0  0  0  0  0
  151.1475  137.8242  155.1864 H   0  0  0  0  0  0  0  0  0  0  0  0
  151.7268  138.7493  153.8360 H   0  0  0  0  0  0  0  0  0  0  0  0
  1  2  1  0  0  0  0
  1 20  1  0  0  0  0
  1 21  1  0  0  0  0
  1 22  1  0  0  0  0
  2  3  1  0  0  0  0
  2  9  1  0  0  0  0
  2 23  1  0  0  0  0
  3  4  1  0  0  0  0
  3 24  1  0  0  0  0
  3 25  1  0  0  0  0
  4  8  1  0  0  0  0
  4  5  1  0  0  0  0
  5  6  2  0  0  0  0
  5 26  1  0  0  0  0
  6  7  1  0  0  0  0
  6 27  1  0  0  0  0
  7  8  2  0  0  0  0
  7 28  1  0  0  0  0
  9 10  1  0  0  0  0
  9 29  1  0  0  0  0
 10 11  2  0  0  0  0
 10 12  1  0  0  0  0
 12 19  1  0  0  0  0
 12 13  1  0  0  0  0
 12 30  1  0  0  0  0
 13 14  1  0  0  0  0
 13 31  1  0  0  0  0
 13 32  1  0  0  0  0
 14 15  1  0  0  0  0
 14 33  1  0  0  0  0
 14 34  1  0  0  0  0
 15 16  1  0  0  0  0
 15 17  1  0  0  0  0
 16 35  1  0  0  0  0
 16 36  1  0  0  0  0
 16 37  1  0  0  0  0
 17 18  2  0  0  0  0
 17 19  1  0  0  0  0
 19 38  1  0  0  0  0
 19 39  1  0  0  0  0
M  END
> <s_m_source_file>
AV-unprocessed.smi

> <i_m_source_file_index>
1584

> <i_lp_mmshare_version>
43012

> <i_f3d_flags>
0

> <s_epik_input>
bjFbY0hdW2NIXVtjSF1uMVtDSDJdW0NAQEhdKFtDSDNdKVtOSF1DKD1PKVtDQEBIXTJbQ0gyXVtDSDJdTihbQ0gzXSlDKD1PKVtDSDJdMg==

> <s_epik_cmdline>
J2VwaWtfcHl0aG9uJywgJy1waCcsICc3LjAnLCAnLXRuJywgJzgnLCAnLW1hJywgJzIwMCcsICctbWV0YWxfYmluZGluZycsICctaW1hZScsICc8aW5maWxlLm1hZT4nLCAnLW9tYWUnLCAnPG91dGZpbGUubWFlPic=

> <r_lp_tautomer_probability>
1

> <r_epik_Ionization_Penalty>
0.000299422

> <r_epik_Ionization_Penalty_Charging>
0

> <r_epik_Ionization_Penalty_Neutral>
0.000299422

> <r_epik_State_Penalty>
-0

> <r_epik_Charging_Adjusted_Penalty>
0

> <i_epik_Tot_Q>
0

> <i_epik_Tot_abs_Q>
0

> <r_epik_Metal_State_Penalty>
-0

> <b_epik_Metal_Only>
0

> <s_lp_Force_Field>
OPLS_2005

> <r_lp_Energy>
12.5002

> <b_lp_Chiralities_Consistent>
1

> <s_lp_Variant>
AV-unprocessed.smi:1584-3

> <Gold.Version>
5.8.1

> <Gold.Id.Protein>
6NUR|6NUR_protein|mol2

> <Gold.PLP.Fitness>
38.2982

> <Gold.PLP.PLP>
-29.3924

> <Gold.PLP.part.hbond>
-2.0000

> <Gold.PLP.part.metal>
0.0000

> <Gold.PLP.part.buried>
1.2665

> <Gold.PLP.part.nonpolar>
-27.4186

> <Gold.PLP.part.repulsive>
0.0910

> <Gold.PLP.ligand.clash>
0.0000

> <Gold.PLP.ligand.torsion>
0.0796

> <Gold.PLP.Chemscore.Hbond>
2.0000

> <Gold.PLP.Chemscore.CHOScore>
1.0000

> <Gold.PLP.Chemscore.Metal>
0.0000

> <Gold.Chemscore.Hbonds>
donor molecule, donor type, donor heavy atom, donor atom, acceptor molecule, acceptor atom, score
      L1  H     9    29       P1  7948  1.00
      P1  H  7997  8008       L1    18  1.00
      L1  C     5    26       P1 10171  0.95

> <Gold.PLP.Chemscore.Internal.Correction>
0.0650

> <Gold.Rescore>
     Score         DG    S(hbond)    S(metal)    S(lipo)     H(rot)  DE(clash)    DE(int)     intcor
     12.77     -15.05       2.00        0.00      61.38       1.67       0.22       2.06       ----

> <Gold.Chemscore.Fitness>
12.7715

> <Gold.Chemscore.DG>
-15.0549

> <Gold.Chemscore.ZeroCoef>
-5.4800

> <Gold.Chemscore.Hbond>
1.9993

> <Gold.Chemscore.Metal>
0.0000

> <Gold.Chemscore.Lipo>
61.3786

> <Gold.Chemscore.Internal_Hbond>
0.0000

> <Gold.Chemscore.DEClash>
0.2238

> <Gold.Chemscore.DEInternal>
2.0597

> <Gold.Chemscore.Rot>
1.6734

> <Gold.Chemscore.Internal.Correction>
   9.000000E+99

> <Gold.Chemscore.Hbonds>
donor molecule, donor type, donor heavy atom, donor atom, acceptor molecule, acceptor atom, score
      L1  H     9    29       P1  7948  1.00
      P1  H  7997  8008       L1    18  1.00

> <Gold.Chemscore.Hbond.Weighted>
-6.6776

> <Gold.Chemscore.Metal.Weighted>
-0.0000

> <Gold.Chemscore.Lipo.Weighted>
-7.1813

> <Gold.Chemscore.Internal_Hbond.Weighted>
0.0000

> <Gold.Chemscore.DEClash.Weighted>
0.2238

> <Gold.Chemscore.DEInternal.Weighted>
2.0597

> <Gold.Chemscore.Rot.Weighted>
4.2840

> <Gold.Chemscore.Internal.Correction.Weighted>
   9.000000E+99

> <Gold.Protein.RotatedTorsions>
[ 6907 6896 6895 6894 ] final    2.75 input  -60.11 | X-H torsion
[ 7974 7965 7964 7962 ] final -143.25 input  175.53 | X-H torsion
[ 8008 7997 7996 7995 ] final  -38.51 input   59.86 | X-H torsion
[ 10167 10162 10161 10158 ] final -156.40 input  -65.29 | X-H torsion
[ 10718 10713 10712 10709 ] final  103.56 input   66.30 | X-H torsion
[ 10763 10752 10751 10750 ] final -105.57 input  -60.55 | X-H torsion
[ 11005 11000 10999 10996 ] final   42.10 input  -57.11 | X-H torsion

> <Gold.Protein.ActiveResidues>
 VAL166  LYS551  ARG553  GLY616  TRP617  ASP618  TYR619  PRO620  LYS621  CYS622 
 ASP623  PHE694  ASN695  SER759  ASP760  ASP761  ALA762  ILE779  LEU786  VAL792 
 PHE793  MET794  SER795  GLU796  ALA797  LYS798  CYS799  TRP800  GLU811  SER814 

> <Gold.Protein.RotatedAtoms>
  151.6139  135.1038  160.0086 H   0  0  0  0  0  0  0  0  0  0  0  0  # atno 6907 bound_to 6896
  152.4194  133.7087  159.6477 H   0  0  0  0  0  0  0  0  0  0  0  0  # atno 6908 bound_to 6896
  150.8081  133.8398  159.3217 H   0  0  0  0  0  0  0  0  0  0  0  0  # atno 6909 bound_to 6896
  144.8383  140.5857  143.5469 H   0  0  0  0  0  0  0  0  0  0  0  0  # atno 7974 bound_to 7965
  154.4036  140.1576  156.2712 H   0  0  0  0  0  0  0  0  0  0  0  0  # atno 8008 bound_to 7997
  155.8951  140.3436  155.5963 H   0  0  0  0  0  0  0  0  0  0  0  0  # atno 8009 bound_to 7997
  155.7513  140.0805  157.2190 H   0  0  0  0  0  0  0  0  0  0  0  0  # atno 8010 bound_to 7997
  139.6853  143.9512  152.2358 H   0  0  0  0  0  0  0  0  0  0  0  0  # atno 10167 bound_to 10162
  157.6768  131.0782  150.5573 H   0  0  0  0  0  0  0  0  0  0  0  0  # atno 10718 bound_to 10713
  154.7955  135.4744  154.0152 H   0  0  0  0  0  0  0  0  0  0  0  0  # atno 10763 bound_to 10752
  153.1697  135.6823  153.8632 H   0  0  0  0  0  0  0  0  0  0  0  0  # atno 10764 bound_to 10752
  153.8218  135.3203  155.3389 H   0  0  0  0  0  0  0  0  0  0  0  0  # atno 10765 bound_to 10752
  140.1771  134.4150  155.8222 H   0  0  0  0  0  0  0  0  0  0  0  0  # atno 11005 bound_to 11000
  145.4748  139.1500  143.3794 LP  0  0  0  0  0  0  0  0  0  0  0  0  # atno 17320 bound_to 7965
  146.2679  140.4883  142.8826 LP  0  0  0  0  0  0  0  0  0  0  0  0  # atno 17321 bound_to 7965
  139.9313  144.6740  150.8360 LP  0  0  0  0  0  0  0  0  0  0  0  0  # atno 17342 bound_to 10162
  140.7665  143.3307  151.2417 LP  0  0  0  0  0  0  0  0  0  0  0  0  # atno 17343 bound_to 10162
  156.5877  130.4321  149.5950 LP  0  0  0  0  0  0  0  0  0  0  0  0  # atno 17370 bound_to 10713
  156.2609  130.6962  151.1730 LP  0  0  0  0  0  0  0  0  0  0  0  0  # atno 17371 bound_to 10713
  141.2221  133.6983  156.7866 LP  0  0  0  0  0  0  0  0  0  0  0  0  # atno 17394 bound_to 11000
  140.2310  134.8686  157.3476 LP  0  0  0  0  0  0  0  0  0  0  0  0  # atno 17395 bound_to 11000

$$$$
