AV-unprocessed.smi:1775|AV-procd|sdf|7172|dock1
  -GOLD-   22720 8413D 1   1.00000     0.00000
 Structure written by MMmdl.
 37 39  0  0  0  0  0  0  0  0  2 V2000
  152.7253  138.2608  160.1586 O   0  0  0  0  0  0  0  0  0  0  0  0
  153.7629  138.8904  160.3642 C   0  0  0  0  0  0  0  0  0  0  0  0
  153.9763  140.1805  160.0485 N   0  0  0  0  0  0  0  0  0  0  0  0
  153.0968  141.1119  159.4717 C   0  0  0  0  0  0  0  0  0  0  0  0
  152.8063  142.3339  159.9979 C   0  0  0  0  0  0  0  0  0  0  0  0
  151.8959  143.2673  159.3465 C   0  0  0  0  0  0  0  0  0  0  0  0
  151.4730  144.5937  159.9528 C   0  0  0  0  0  0  0  0  0  0  0  0
  150.1449  144.6932  160.0109 F   0  0  0  0  0  0  0  0  0  0  0  0
  151.9598  144.7328  161.1860 F   0  0  0  0  0  0  0  0  0  0  0  0
  151.9326  145.5987  159.2090 F   0  0  0  0  0  0  0  0  0  0  0  0
  151.3788  142.7602  158.1701 C   0  0  0  0  0  0  0  0  0  0  0  0
  151.6359  141.5789  157.5671 N   0  5  0  0  0  0  0  0  0  0  0  0
  152.4913  140.7151  158.1836 C   0  0  0  0  0  0  0  0  0  0  0  0
  152.7675  139.6205  157.6911 O   0  0  0  0  0  0  0  0  0  0  0  0
  154.8568  138.3543  160.9270 N   0  0  0  0  0  0  0  0  0  0  0  0
  155.0218  136.9760  161.3845 C   0  0  0  0  0  0  0  0  0  0  0  0
  154.9312  135.9454  160.2690 C   0  0  0  0  0  0  0  0  0  0  0  0
  155.4164  134.5293  160.4693 C   0  0  0  0  0  0  0  0  0  0  0  0
  156.1674  135.4648  159.5485 C   0  0  0  0  0  0  0  0  0  0  0  0
  154.1154  136.6004  162.5475 C   0  0  0  0  0  0  0  0  0  0  0  0
  154.4845  136.9516  163.9684 C   0  0  0  0  0  0  0  0  0  0  0  0
  154.4962  135.5077  163.5180 C   0  0  0  0  0  0  0  0  0  0  0  0
  154.9088  140.5335  160.2059 H   0  0  0  0  0  0  0  0  0  0  0  0
  153.2653  142.6625  160.9159 H   0  0  0  0  0  0  0  0  0  0  0  0
  150.6448  143.3991  157.6342 H   0  0  0  0  0  0  0  0  0  0  0  0
  155.6565  138.9588  161.0459 H   0  0  0  0  0  0  0  0  0  0  0  0
  156.0448  136.9390  161.7617 H   0  0  0  0  0  0  0  0  0  0  0  0
  154.0393  136.0463  159.6532 H   0  0  0  0  0  0  0  0  0  0  0  0
  155.8874  134.2791  161.4176 H   0  0  0  0  0  0  0  0  0  0  0  0
  154.8357  133.7308  160.0119 H   0  0  0  0  0  0  0  0  0  0  0  0
  156.0871  135.2909  158.4773 H   0  0  0  0  0  0  0  0  0  0  0  0
  157.1304  135.8400  159.8892 H   0  0  0  0  0  0  0  0  0  0  0  0
  153.0546  136.6570  162.3104 H   0  0  0  0  0  0  0  0  0  0  0  0
  155.4454  137.4330  164.1380 H   0  0  0  0  0  0  0  0  0  0  0  0
  153.6810  137.2679  164.6304 H   0  0  0  0  0  0  0  0  0  0  0  0
  153.7005  134.8606  163.8814 H   0  0  0  0  0  0  0  0  0  0  0  0
  155.4665  135.0305  163.3961 H   0  0  0  0  0  0  0  0  0  0  0  0
  1  2  2  0  0  0  0
  2  3  1  0  0  0  0
  2 15  1  0  0  0  0
  3  4  1  0  0  0  0
  3 23  1  0  0  0  0
  4 13  1  0  0  0  0
  4  5  2  0  0  0  0
  5  6  1  0  0  0  0
  5 24  1  0  0  0  0
  6  7  1  0  0  0  0
  6 11  2  0  0  0  0
  7  8  1  0  0  0  0
  7  9  1  0  0  0  0
  7 10  1  0  0  0  0
 11 12  1  0  0  0  0
 11 25  1  0  0  0  0
 12 13  1  0  0  0  0
 13 14  2  0  0  0  0
 15 16  1  0  0  0  0
 15 26  1  0  0  0  0
 16 17  1  0  0  0  0
 16 20  1  0  0  0  0
 16 27  1  0  0  0  0
 17 19  1  0  0  0  0
 17 18  1  0  0  0  0
 17 28  1  0  0  0  0
 18 19  1  0  0  0  0
 18 29  1  0  0  0  0
 18 30  1  0  0  0  0
 19 31  1  0  0  0  0
 19 32  1  0  0  0  0
 20 22  1  0  0  0  0
 20 21  1  0  0  0  0
 20 33  1  0  0  0  0
 21 22  1  0  0  0  0
 21 34  1  0  0  0  0
 21 35  1  0  0  0  0
 22 36  1  0  0  0  0
 22 37  1  0  0  0  0
M  CHG  1  12  -1
M  END
> <s_m_source_file>
AV-unprocessed.smi

> <i_m_source_file_index>
1775

> <i_lp_mmshare_version>
43012

> <i_f3d_flags>
0

> <s_epik_input>
W0NIMl0xW0NIMl1bQ0hdMVtDSF0oW0NIXTJbQ0gyXVtDSDJdMilbTkhdQyg9TylbTkhdYzNbY0hdYyhDKEYpKEYpRilbY0hdW25IXWMzPU8=

> <s_epik_cmdline>
J2VwaWtfcHl0aG9uJywgJy1waCcsICc3LjAnLCAnLXRuJywgJzgnLCAnLW1hJywgJzIwMCcsICctbWV0YWxfYmluZGluZycsICctaW1hZScsICc8aW5maWxlLm1hZT4nLCAnLW9tYWUnLCAnPG91dGZpbGUubWFlPic=

> <r_lp_tautomer_probability>
1

> <r_epik_Ionization_Penalty>
3.19177

> <r_epik_Ionization_Penalty_Charging>
0.180322

> <r_epik_Ionization_Penalty_Neutral>
3.01145

> <r_epik_State_Penalty>
3.00772

> <r_epik_Charging_Adjusted_Penalty>
3.18804

> <i_epik_Tot_Q>
-1

> <i_epik_Tot_abs_Q>
1

> <r_epik_Metal_State_Penalty>
0.454354

> <b_epik_Metal_Only>
1

> <s_lp_Force_Field>
OPLS_2005

> <r_lp_Energy>
38.3623

> <b_lp_Chiralities_Consistent>
1

> <s_lp_Variant>
AV-unprocessed.smi:1775-2

> <Gold.Version>
5.8.1

> <Gold.Id.Protein>
6NUR|6NUR_protein|mol2

> <Gold.PLP.Fitness>
41.8348

> <Gold.PLP.PLP>
-40.4139

> <Gold.PLP.part.hbond>
-1.0000

> <Gold.PLP.part.metal>
0.0000

> <Gold.PLP.part.buried>
-2.5185

> <Gold.PLP.part.nonpolar>
-36.3130

> <Gold.PLP.part.repulsive>
0.0806

> <Gold.PLP.ligand.clash>
0.0000

> <Gold.PLP.ligand.torsion>
1.8352

> <Gold.PLP.Chemscore.Hbond>
0.9500

> <Gold.PLP.Chemscore.CHOScore>
0.0000

> <Gold.PLP.Chemscore.Metal>
0.0000

> <Gold.Chemscore.Hbonds>
donor molecule, donor type, donor heavy atom, donor atom, acceptor molecule, acceptor atom, score
      P1  H  7997  8009       L1    14  0.95

> <Gold.PLP.Chemscore.Internal.Correction>
2.2413

> <Gold.Rescore>
     Score         DG    S(hbond)    S(metal)    S(lipo)     H(rot)  DE(clash)    DE(int)     intcor
     10.08     -15.03       0.90        0.00      88.51       1.49       0.75       4.20       ----

> <Gold.Chemscore.Fitness>
10.0775

> <Gold.Chemscore.DG>
-15.0304

> <Gold.Chemscore.ZeroCoef>
-5.4800

> <Gold.Chemscore.Hbond>
0.8983

> <Gold.Chemscore.Metal>
0.0000

> <Gold.Chemscore.Lipo>
88.5064

> <Gold.Chemscore.Internal_Hbond>
0.0000

> <Gold.Chemscore.DEClash>
0.7495

> <Gold.Chemscore.DEInternal>
4.2035

> <Gold.Chemscore.Rot>
1.4864

> <Gold.Chemscore.Internal.Correction>
   9.000000E+99

> <Gold.Chemscore.Hbonds>
donor molecule, donor type, donor heavy atom, donor atom, acceptor molecule, acceptor atom, score
      P1  H  7997  8009       L1    14  0.20

> <Gold.Chemscore.Hbond.Weighted>
-3.0003

> <Gold.Chemscore.Metal.Weighted>
-0.0000

> <Gold.Chemscore.Lipo.Weighted>
-10.3553

> <Gold.Chemscore.Internal_Hbond.Weighted>
0.0000

> <Gold.Chemscore.DEClash.Weighted>
0.7495

> <Gold.Chemscore.DEInternal.Weighted>
4.2035

> <Gold.Chemscore.Rot.Weighted>
3.8052

> <Gold.Chemscore.Internal.Correction.Weighted>
   9.000000E+99

> <Gold.Protein.RotatedTorsions>
[ 6907 6896 6895 6894 ] final   -0.98 input  -60.11 | X-H torsion
[ 7974 7965 7964 7962 ] final   78.38 input  175.53 | X-H torsion
[ 8008 7997 7996 7995 ] final  152.73 input   59.86 | X-H torsion
[ 10167 10162 10161 10158 ] final -135.33 input  -65.29 | X-H torsion
[ 10718 10713 10712 10709 ] final   46.03 input   66.30 | X-H torsion
[ 10763 10752 10751 10750 ] final  -64.69 input  -60.55 | X-H torsion
[ 11005 11000 10999 10996 ] final -170.21 input  -57.11 | X-H torsion

> <Gold.Protein.ActiveResidues>
 VAL166  LYS551  ARG553  GLY616  TRP617  ASP618  TYR619  PRO620  LYS621  CYS622 
 ASP623  PHE694  ASN695  SER759  ASP760  ASP761  ALA762  ILE779  LEU786  VAL792 
 PHE793  MET794  SER795  GLU796  ALA797  LYS798  CYS799  TRP800  GLU811  SER814 

> <Gold.Protein.RotatedAtoms>
  151.5535  135.1067  159.9955 H   0  0  0  0  0  0  0  0  0  0  0  0  # atno 6907 bound_to 6896
  152.4480  133.7570  159.6736 H   0  0  0  0  0  0  0  0  0  0  0  0  # atno 6908 bound_to 6896
  150.8401  133.7882  159.3088 H   0  0  0  0  0  0  0  0  0  0  0  0  # atno 6909 bound_to 6896
  145.6778  139.2515  143.1831 H   0  0  0  0  0  0  0  0  0  0  0  0  # atno 7974 bound_to 7965
  156.2615  140.2013  156.6380 H   0  0  0  0  0  0  0  0  0  0  0  0  # atno 8008 bound_to 7997
  154.6632  140.0558  157.0109 H   0  0  0  0  0  0  0  0  0  0  0  0  # atno 8009 bound_to 7997
  155.1246  140.3228  155.4492 H   0  0  0  0  0  0  0  0  0  0  0  0  # atno 8010 bound_to 7997
  139.8790  143.6863  152.2630 H   0  0  0  0  0  0  0  0  0  0  0  0  # atno 10167 bound_to 10162
  157.4439  130.8097  149.7721 H   0  0  0  0  0  0  0  0  0  0  0  0  # atno 10718 bound_to 10713
  154.3339  135.6171  153.5564 H   0  0  0  0  0  0  0  0  0  0  0  0  # atno 10763 bound_to 10752
  152.9809  135.5753  154.4930 H   0  0  0  0  0  0  0  0  0  0  0  0  # atno 10764 bound_to 10752
  154.4622  135.2856  155.1681 H   0  0  0  0  0  0  0  0  0  0  0  0  # atno 10765 bound_to 10752
  140.5220  134.5699  157.5050 H   0  0  0  0  0  0  0  0  0  0  0  0  # atno 11005 bound_to 11000
  146.0990  140.7566  142.9558 LP  0  0  0  0  0  0  0  0  0  0  0  0  # atno 17320 bound_to 7965
  144.7036  140.3757  143.7136 LP  0  0  0  0  0  0  0  0  0  0  0  0  # atno 17321 bound_to 7965
  139.7213  144.7602  151.0950 LP  0  0  0  0  0  0  0  0  0  0  0  0  # atno 17342 bound_to 10162
  140.7748  143.5204  150.9544 LP  0  0  0  0  0  0  0  0  0  0  0  0  # atno 17343 bound_to 10162
  155.9959  130.3909  150.2799 LP  0  0  0  0  0  0  0  0  0  0  0  0  # atno 17370 bound_to 10713
  157.0966  131.0184  151.3101 LP  0  0  0  0  0  0  0  0  0  0  0  0  # atno 17371 bound_to 10713
  139.9600  134.7468  156.0257 LP  0  0  0  0  0  0  0  0  0  0  0  0  # atno 17394 bound_to 11000
  141.1329  133.6582  156.3512 LP  0  0  0  0  0  0  0  0  0  0  0  0  # atno 17395 bound_to 11000

$$$$
