AV-unprocessed.smi:2623|AV-procd|sdf|10232|dock8
  -GOLD-   2272014243D 1   1.00000     0.00000
 Structure written by MMmdl.
 41 43  0  0  0  0  0  0  0  0  2 V2000
  148.4274  142.0471  155.1043 O   0  0  0  0  0  0  0  0  0  0  0  0
  148.9192  140.9530  155.8496 C   0  0  0  0  0  0  0  0  0  0  0  0
  149.9181  141.3493  156.8903 C   0  0  0  0  0  0  0  0  0  0  0  0
  150.3394  142.6172  157.1653 N   0  3  0  0  0  0  0  0  0  0  0  0
  151.2801  142.5923  158.1955 C   0  0  0  0  0  0  0  0  0  0  0  0
  151.9841  143.6211  158.8136 C   0  0  0  0  0  0  0  0  0  0  0  0
  152.8774  143.2487  159.8398 C   0  0  0  0  0  0  0  0  0  0  0  0
  153.0437  141.8995  160.2150 C   0  0  0  0  0  0  0  0  0  0  0  0
  152.3240  140.8653  159.5810 C   0  0  0  0  0  0  0  0  0  0  0  0
  151.4428  141.2424  158.5683 C   0  0  0  0  0  0  0  0  0  0  0  0
  150.5822  140.5135  157.7402 N   0  0  0  0  0  0  0  0  0  0  0  0
  150.5193  139.0503  157.8832 C   0  0  0  0  0  0  0  0  0  0  0  0
  149.1606  138.5541  158.4183 C   0  0  1  0  0  0  0  0  0  0  0  0
  148.3665  138.1312  157.3273 O   0  0  0  0  0  0  0  0  0  0  0  0
  149.3245  137.3781  159.3943 C   0  0  0  0  0  0  0  0  0  0  0  0
  148.3641  137.5077  160.4344 O   0  0  0  0  0  0  0  0  0  0  0  0
  147.8898  136.3601  161.0330 C   0  0  0  0  0  0  0  0  0  0  0  0
  147.4295  136.4750  162.3613 C   0  0  0  0  0  0  0  0  0  0  0  0
  146.9282  135.3541  163.0509 C   0  0  0  0  0  0  0  0  0  0  0  0
  146.8824  134.1000  162.4148 C   0  0  0  0  0  0  0  0  0  0  0  0
  147.3391  133.9702  161.0900 C   0  0  0  0  0  0  0  0  0  0  0  0
  147.8400  135.0918  160.4002 C   0  0  0  0  0  0  0  0  0  0  0  0
  148.8867  142.8268  155.3782 H   0  0  0  0  0  0  0  0  0  0  0  0
  148.0792  140.4494  156.3284 H   0  0  0  0  0  0  0  0  0  0  0  0
  149.3808  140.2383  155.1677 H   0  0  0  0  0  0  0  0  0  0  0  0
  151.8586  144.6549  158.5271 H   0  0  0  0  0  0  0  0  0  0  0  0
  153.4464  144.0130  160.3490 H   0  0  0  0  0  0  0  0  0  0  0  0
  153.7375  141.6524  161.0057 H   0  0  0  0  0  0  0  0  0  0  0  0
  152.4580  139.8349  159.8761 H   0  0  0  0  0  0  0  0  0  0  0  0
  150.7252  138.6108  156.9065 H   0  0  0  0  0  0  0  0  0  0  0  0
  151.3342  138.7359  158.5367 H   0  0  0  0  0  0  0  0  0  0  0  0
  148.6518  139.3760  158.9230 H   0  0  0  0  0  0  0  0  0  0  0  0
  148.4825  137.2002  157.2151 H   0  0  0  0  0  0  0  0  0  0  0  0
  149.2298  136.4241  158.8724 H   0  0  0  0  0  0  0  0  0  0  0  0
  150.3197  137.4174  159.8403 H   0  0  0  0  0  0  0  0  0  0  0  0
  147.4604  137.4340  162.8574 H   0  0  0  0  0  0  0  0  0  0  0  0
  146.5789  135.4572  164.0677 H   0  0  0  0  0  0  0  0  0  0  0  0
  146.4978  133.2393  162.9421 H   0  0  0  0  0  0  0  0  0  0  0  0
  147.3053  133.0081  160.6004 H   0  0  0  0  0  0  0  0  0  0  0  0
  148.1803  134.9515  159.3857 H   0  0  0  0  0  0  0  0  0  0  0  0
  150.0018  143.4372  156.6778 H   0  0  0  0  0  0  0  0  0  0  0  0
  1  2  1  0  0  0  0
  1 23  1  0  0  0  0
  2  3  1  0  0  0  0
  2 24  1  0  0  0  0
  2 25  1  0  0  0  0
  3 11  1  0  0  0  0
  3  4  2  0  0  0  0
  4  5  1  0  0  0  0
  4 41  1  0  0  0  0
  5 10  2  0  0  0  0
  5  6  1  0  0  0  0
  6  7  2  0  0  0  0
  6 26  1  0  0  0  0
  7  8  1  0  0  0  0
  7 27  1  0  0  0  0
  8  9  2  0  0  0  0
  8 28  1  0  0  0  0
  9 10  1  0  0  0  0
  9 29  1  0  0  0  0
 10 11  1  0  0  0  0
 11 12  1  0  0  0  0
 12 13  1  0  0  0  0
 12 30  1  0  0  0  0
 12 31  1  0  0  0  0
 13 14  1  0  0  0  0
 13 15  1  0  0  0  0
 13 32  1  0  0  0  0
 14 33  1  0  0  0  0
 15 16  1  0  0  0  0
 15 34  1  0  0  0  0
 15 35  1  0  0  0  0
 16 17  1  0  0  0  0
 17 22  1  0  0  0  0
 17 18  2  0  0  0  0
 18 19  1  0  0  0  0
 18 36  1  0  0  0  0
 19 20  2  0  0  0  0
 19 37  1  0  0  0  0
 20 21  1  0  0  0  0
 20 38  1  0  0  0  0
 21 22  2  0  0  0  0
 21 39  1  0  0  0  0
 22 40  1  0  0  0  0
M  CHG  1   4   1
M  END
> <s_m_source_file>
AV-unprocessed.smi

> <i_m_source_file_index>
2623

> <i_lp_mmshare_version>
43012

> <i_f3d_flags>
0

> <s_epik_input>
W2NIXTFbY0hdW2NIXVtjSF1jKGMxMiluKGMobjIpW0NIMl1bT0hdKVtDSDJdW0NASF0oW09IXSlbQ0gyXU9jM1tjSF1bY0hdW2NIXVtjSF1bY0hdMw==

> <s_epik_cmdline>
J2VwaWtfcHl0aG9uJywgJy1waCcsICc3LjAnLCAnLXRuJywgJzgnLCAnLW1hJywgJzIwMCcsICctbWV0YWxfYmluZGluZycsICctaW1hZScsICc8aW5maWxlLm1hZT4nLCAnLW9tYWUnLCAnPG91dGZpbGUubWFlPic=

> <r_lp_tautomer_probability>
1

> <r_epik_Ionization_Penalty>
1.40416

> <r_epik_Ionization_Penalty_Charging>
1.4033

> <r_epik_Ionization_Penalty_Neutral>
0.000858184

> <r_epik_State_Penalty>
1.48564

> <r_epik_Charging_Adjusted_Penalty>
2.88894

> <i_epik_Tot_Q>
1

> <i_epik_Tot_abs_Q>
1

> <r_epik_Metal_State_Penalty>
5.52809

> <b_epik_Metal_Only>
0

> <s_lp_Force_Field>
OPLS_2005

> <r_lp_Energy>
19.2357

> <b_lp_Chiralities_Consistent>
1

> <s_lp_Variant>
AV-unprocessed.smi:2623-4

> <Gold.Version>
5.8.1

> <Gold.Id.Protein>
6NUR|6NUR_protein|mol2

> <Gold.PLP.Fitness>
56.3191

> <Gold.PLP.PLP>
-48.0575

> <Gold.PLP.part.hbond>
-4.0000

> <Gold.PLP.part.metal>
0.0000

> <Gold.PLP.part.buried>
-6.2564

> <Gold.PLP.part.nonpolar>
-38.9262

> <Gold.PLP.part.repulsive>
0.0161

> <Gold.PLP.ligand.clash>
0.0000

> <Gold.PLP.ligand.torsion>
1.6397

> <Gold.PLP.Chemscore.Hbond>
3.8374

> <Gold.PLP.Chemscore.CHOScore>
0.0000

> <Gold.PLP.Chemscore.Metal>
0.0000

> <Gold.Chemscore.Hbonds>
donor molecule, donor type, donor heavy atom, donor atom, acceptor molecule, acceptor atom, score
      L1  H     1    23       P1  8028  0.96
      L1  H     4    41       P1  8028  2.00
      P1  H  6931  6943       L1    16  0.52
      P1  H  6934  6947       L1    16  0.50

> <Gold.PLP.Chemscore.Internal.Correction>
0.0286

> <Gold.Rescore>
     Score         DG    S(hbond)    S(metal)    S(lipo)     H(rot)  DE(clash)    DE(int)     intcor
     17.64     -19.36       2.44        0.00     117.39       3.13       0.01       1.70       ----

> <Gold.Chemscore.Fitness>
17.6429

> <Gold.Chemscore.DG>
-19.3582

> <Gold.Chemscore.ZeroCoef>
-5.4800

> <Gold.Chemscore.Hbond>
2.4423

> <Gold.Chemscore.Metal>
0.0000

> <Gold.Chemscore.Lipo>
117.3932

> <Gold.Chemscore.Internal_Hbond>
0.0000

> <Gold.Chemscore.DEClash>
0.0149

> <Gold.Chemscore.DEInternal>
1.7004

> <Gold.Chemscore.Rot>
3.1305

> <Gold.Chemscore.Internal.Correction>
   9.000000E+99

> <Gold.Chemscore.Hbonds>
donor molecule, donor type, donor heavy atom, donor atom, acceptor molecule, acceptor atom, score
      L1  H     1    23       P1  8028  0.92
      L1  H     4    41       P1  8028  0.98
      P1  H  6931  6943       L1    16  0.08
      P1  H  6934  6947       L1    16  0.37

> <Gold.Chemscore.Hbond.Weighted>
-8.1573

> <Gold.Chemscore.Metal.Weighted>
-0.0000

> <Gold.Chemscore.Lipo.Weighted>
-13.7350

> <Gold.Chemscore.Internal_Hbond.Weighted>
0.0000

> <Gold.Chemscore.DEClash.Weighted>
0.0149

> <Gold.Chemscore.DEInternal.Weighted>
1.7004

> <Gold.Chemscore.Rot.Weighted>
8.0141

> <Gold.Chemscore.Internal.Correction.Weighted>
   9.000000E+99

> <Gold.Protein.RotatedTorsions>
[ 6907 6896 6895 6894 ] final   -0.31 input  -60.11 | X-H torsion
[ 7974 7965 7964 7962 ] final  111.90 input  175.53 | X-H torsion
[ 8008 7997 7996 7995 ] final  176.80 input   59.86 | X-H torsion
[ 10167 10162 10161 10158 ] final  -10.83 input  -65.29 | X-H torsion
[ 10718 10713 10712 10709 ] final -170.92 input   66.30 | X-H torsion
[ 10763 10752 10751 10750 ] final -171.31 input  -60.55 | X-H torsion
[ 11005 11000 10999 10996 ] final   63.46 input  -57.11 | X-H torsion

> <Gold.Protein.ActiveResidues>
 VAL166  LYS551  ARG553  GLY616  TRP617  ASP618  TYR619  PRO620  LYS621  CYS622 
 ASP623  PHE694  ASN695  SER759  ASP760  ASP761  ALA762  ILE779  LEU786  VAL792 
 PHE793  MET794  SER795  GLU796  ALA797  LYS798  CYS799  TRP800  GLU811  SER814 

> <Gold.Protein.RotatedAtoms>
  151.5643  135.1064  159.9979 H   0  0  0  0  0  0  0  0  0  0  0  0  # atno 6907 bound_to 6896
  152.4432  133.7482  159.6690 H   0  0  0  0  0  0  0  0  0  0  0  0  # atno 6908 bound_to 6896
  150.8341  133.7974  159.3110 H   0  0  0  0  0  0  0  0  0  0  0  0  # atno 6909 bound_to 6896
  145.2364  139.2797  143.4141 H   0  0  0  0  0  0  0  0  0  0  0  0  # atno 7974 bound_to 7965
  156.0725  140.1374  156.9811 H   0  0  0  0  0  0  0  0  0  0  0  0  # atno 8008 bound_to 7997
  154.4540  140.0969  156.6753 H   0  0  0  0  0  0  0  0  0  0  0  0  # atno 8009 bound_to 7997
  155.5205  140.3456  155.4408 H   0  0  0  0  0  0  0  0  0  0  0  0  # atno 8010 bound_to 7997
  140.7123  143.5705  150.9097 H   0  0  0  0  0  0  0  0  0  0  0  0  # atno 10167 bound_to 10162
  156.7333  130.9314  151.3106 H   0  0  0  0  0  0  0  0  0  0  0  0  # atno 10718 bound_to 10713
  154.6319  135.2887  155.0206 H   0  0  0  0  0  0  0  0  0  0  0  0  # atno 10763 bound_to 10752
  154.1364  135.6525  153.4936 H   0  0  0  0  0  0  0  0  0  0  0  0  # atno 10764 bound_to 10752
  153.0284  135.5322  154.7150 H   0  0  0  0  0  0  0  0  0  0  0  0  # atno 10765 bound_to 10752
  140.0023  134.6423  155.9911 H   0  0  0  0  0  0  0  0  0  0  0  0  # atno 11005 bound_to 11000
  146.3340  140.2714  142.8606 LP  0  0  0  0  0  0  0  0  0  0  0  0  # atno 17320 bound_to 7965
  144.9629  140.8293  143.5502 LP  0  0  0  0  0  0  0  0  0  0  0  0  # atno 17321 bound_to 7965
  139.9431  143.6358  152.3048 LP  0  0  0  0  0  0  0  0  0  0  0  0  # atno 17342 bound_to 10162
  139.6850  144.7652  151.1539 LP  0  0  0  0  0  0  0  0  0  0  0  0  # atno 17343 bound_to 10162
  157.6850  130.9176  150.0362 LP  0  0  0  0  0  0  0  0  0  0  0  0  # atno 17370 bound_to 10713
  156.1514  130.3642  149.9432 LP  0  0  0  0  0  0  0  0  0  0  0  0  # atno 17371 bound_to 10713
  141.1651  133.6537  156.4452 LP  0  0  0  0  0  0  0  0  0  0  0  0  # atno 17394 bound_to 11000
  140.4705  134.6758  157.5127 LP  0  0  0  0  0  0  0  0  0  0  0  0  # atno 17395 bound_to 11000

$$$$
