AV-unprocessed.smi:2893|AV-procd|sdf|11123|dock7
  -GOLD-   2272015593D 1   1.00000     0.00000
 Structure written by MMmdl.
 37 39  0  0  0  0  0  0  0  0  1 V2000
  156.3400  133.8157  156.7840 C   0  0  0  0  0  0  0  0  0  0  0  0
  156.5462  134.2631  158.2371 C   0  0  0  0  0  0  0  0  0  0  0  0
  156.0150  135.6012  158.4665 N   0  0  0  0  0  0  0  0  0  0  0  0
  154.9588  135.8947  159.2445 C   0  0  0  0  0  0  0  0  0  0  0  0
  154.3054  135.0410  159.8457 O   0  0  0  0  0  0  0  0  0  0  0  0
  154.5768  137.3492  159.3113 C   0  0  0  0  0  0  0  0  0  0  0  0
  153.4225  137.7472  160.0199 C   0  0  0  0  0  0  0  0  0  0  0  0
  153.1188  139.1187  160.0629 C   0  0  0  0  0  0  0  0  0  0  0  0
  153.9910  140.0037  159.4016 C   0  0  0  0  0  0  0  0  0  0  0  0
  153.7112  141.3771  159.4288 N   0  0  0  0  0  0  0  0  0  0  0  0
  152.4949  141.8793  160.0610 C   0  0  1  0  0  0  0  0  0  0  0  0
  152.7441  143.0858  160.9693 C   0  0  0  0  0  0  0  0  0  0  0  0
  151.7400  144.1086  160.4185 C   0  0  1  0  0  0  0  0  0  0  0  0
  152.2130  144.6997  159.0843 C   0  0  0  0  0  0  0  0  0  0  0  0
  152.0031  143.5236  158.1328 C   0  0  0  0  0  0  0  0  0  0  0  0
  151.4491  142.4431  159.0778 C   0  0  2  0  0  0  0  0  0  0  0  0
  150.7015  143.2547  159.9679 O   0  0  0  0  0  0  0  0  0  0  0  0
  155.0875  139.5622  158.7385 N   0  0  0  0  0  0  0  0  0  0  0  0
  155.3773  138.2575  158.6978 N   0  0  0  0  0  0  0  0  0  0  0  0
  156.7106  132.8014  156.6354 H   0  0  0  0  0  0  0  0  0  0  0  0
  156.8709  134.4664  156.0885 H   0  0  0  0  0  0  0  0  0  0  0  0
  155.2836  133.8265  156.5144 H   0  0  0  0  0  0  0  0  0  0  0  0
  156.0343  133.5743  158.9093 H   0  0  0  0  0  0  0  0  0  0  0  0
  157.6045  134.2248  158.5001 H   0  0  0  0  0  0  0  0  0  0  0  0
  156.4831  136.3667  158.0024 H   0  0  0  0  0  0  0  0  0  0  0  0
  152.7844  137.0302  160.5157 H   0  0  0  0  0  0  0  0  0  0  0  0
  152.2464  139.4762  160.5900 H   0  0  0  0  0  0  0  0  0  0  0  0
  154.1960  141.9843  158.7841 H   0  0  0  0  0  0  0  0  0  0  0  0
  152.0434  141.0856  160.6581 H   0  0  0  0  0  0  0  0  0  0  0  0
  152.5139  142.8322  162.0046 H   0  0  0  0  0  0  0  0  0  0  0  0
  153.7683  143.4605  160.9341 H   0  0  0  0  0  0  0  0  0  0  0  0
  151.4247  144.8566  161.1465 H   0  0  0  0  0  0  0  0  0  0  0  0
  151.5903  145.5453  158.7899 H   0  0  0  0  0  0  0  0  0  0  0  0
  153.2500  145.0350  159.1222 H   0  0  0  0  0  0  0  0  0  0  0  0
  151.2657  143.7807  157.3717 H   0  0  0  0  0  0  0  0  0  0  0  0
  152.9175  143.2195  157.6230 H   0  0  0  0  0  0  0  0  0  0  0  0
  150.8579  141.6787  158.5729 H   0  0  0  0  0  0  0  0  0  0  0  0
  1  2  1  0  0  0  0
  1 20  1  0  0  0  0
  1 21  1  0  0  0  0
  1 22  1  0  0  0  0
  2  3  1  0  0  0  0
  2 23  1  0  0  0  0
  2 24  1  0  0  0  0
  3  4  1  0  0  0  0
  3 25  1  0  0  0  0
  4  5  2  0  0  0  0
  4  6  1  0  0  0  0
  6 19  1  0  0  0  0
  6  7  2  0  0  0  0
  7  8  1  0  0  0  0
  7 26  1  0  0  0  0
  8  9  2  0  0  0  0
  8 27  1  0  0  0  0
  9 10  1  0  0  0  0
  9 18  1  0  0  0  0
 10 11  1  0  0  0  0
 10 28  1  0  0  0  0
 11 16  1  0  0  0  0
 11 12  1  0  0  0  0
 11 29  1  0  0  0  0
 12 13  1  0  0  0  0
 12 30  1  0  0  0  0
 12 31  1  0  0  0  0
 13 17  1  0  0  0  0
 13 14  1  0  0  0  0
 13 32  1  0  0  0  0
 14 15  1  0  0  0  0
 14 33  1  0  0  0  0
 14 34  1  0  0  0  0
 15 16  1  0  0  0  0
 15 35  1  0  0  0  0
 15 36  1  0  0  0  0
 16 17  1  0  0  0  0
 16 37  1  0  0  0  0
 18 19  2  0  0  0  0
M  END
> <s_m_source_file>
AV-unprocessed.smi

> <i_m_source_file_index>
2893

> <i_lp_mmshare_version>
43012

> <i_f3d_flags>
0

> <s_epik_input>
W0NIM11bQ0gyXVtOSF1DKD1PKWMxW2NIXVtjSF1jKG5uMSlbTkhdW0NASF0oW0NIMl1bQ0BASF0yMylbQ0BASF0oTzMpW0NIMl1bQ0gyXTI=

> <s_epik_cmdline>
J2VwaWtfcHl0aG9uJywgJy1waCcsICc3LjAnLCAnLXRuJywgJzgnLCAnLW1hJywgJzIwMCcsICctbWV0YWxfYmluZGluZycsICctaW1hZScsICc8aW5maWxlLm1hZT4nLCAnLW9tYWUnLCAnPG91dGZpbGUubWFlPic=

> <r_lp_tautomer_probability>
1

> <r_epik_Ionization_Penalty>
0.00432031

> <r_epik_Ionization_Penalty_Charging>
0

> <r_epik_Ionization_Penalty_Neutral>
0.00432031

> <r_epik_State_Penalty>
-0

> <r_epik_Charging_Adjusted_Penalty>
0

> <i_epik_Tot_Q>
0

> <i_epik_Tot_abs_Q>
0

> <r_epik_Metal_State_Penalty>
-0

> <b_epik_Metal_Only>
0

> <s_lp_Force_Field>
OPLS_2005

> <r_lp_Energy>
51.8171

> <b_lp_Chiralities_Consistent>
1

> <s_lp_Variant>
AV-unprocessed.smi:2893-2

> <Gold.Version>
5.8.1

> <Gold.Id.Protein>
6NUR|6NUR_protein|mol2

> <Gold.PLP.Fitness>
36.8499

> <Gold.PLP.PLP>
-31.1678

> <Gold.PLP.part.hbond>
-3.4176

> <Gold.PLP.part.metal>
0.0000

> <Gold.PLP.part.buried>
-3.6152

> <Gold.PLP.part.nonpolar>
-24.2988

> <Gold.PLP.part.repulsive>
0.1548

> <Gold.PLP.ligand.clash>
0.0000

> <Gold.PLP.ligand.torsion>
0.1677

> <Gold.PLP.Chemscore.Hbond>
2.0000

> <Gold.PLP.Chemscore.CHOScore>
0.0000

> <Gold.PLP.Chemscore.Metal>
0.0000

> <Gold.Chemscore.Hbonds>
donor molecule, donor type, donor heavy atom, donor atom, acceptor molecule, acceptor atom, score
      P1  H  6896  6907       L1     5  1.00
      P1  H  7997  8008       L1    18  0.83

> <Gold.PLP.Chemscore.Internal.Correction>
0.0174

> <Gold.Rescore>
     Score         DG    S(hbond)    S(metal)    S(lipo)     H(rot)  DE(clash)    DE(int)     intcor
     18.89     -19.06       1.95        0.00      86.74       1.21       0.07       0.09       ----

> <Gold.Chemscore.Fitness>
18.8911

> <Gold.Chemscore.DG>
-19.0553

> <Gold.Chemscore.ZeroCoef>
-5.4800

> <Gold.Chemscore.Hbond>
1.9505

> <Gold.Chemscore.Metal>
0.0000

> <Gold.Chemscore.Lipo>
86.7374

> <Gold.Chemscore.Internal_Hbond>
0.0000

> <Gold.Chemscore.DEClash>
0.0706

> <Gold.Chemscore.DEInternal>
0.0936

> <Gold.Chemscore.Rot>
1.2061

> <Gold.Chemscore.Internal.Correction>
   9.000000E+99

> <Gold.Chemscore.Hbonds>
donor molecule, donor type, donor heavy atom, donor atom, acceptor molecule, acceptor atom, score
      P1  H  6896  6907       L1     5  1.00
      P1  H  7997  8008       L1    18  0.36

> <Gold.Chemscore.Hbond.Weighted>
-6.5147

> <Gold.Chemscore.Metal.Weighted>
-0.0000

> <Gold.Chemscore.Lipo.Weighted>
-10.1483

> <Gold.Chemscore.Internal_Hbond.Weighted>
0.0000

> <Gold.Chemscore.DEClash.Weighted>
0.0706

> <Gold.Chemscore.DEInternal.Weighted>
0.0936

> <Gold.Chemscore.Rot.Weighted>
3.0876

> <Gold.Chemscore.Internal.Correction.Weighted>
   9.000000E+99

> <Gold.Protein.RotatedTorsions>
[ 6907 6896 6895 6894 ] final   82.07 input  -60.11 | X-H torsion
[ 7974 7965 7964 7962 ] final -166.25 input  175.53 | X-H torsion
[ 8008 7997 7996 7995 ] final -132.21 input   59.86 | X-H torsion
[ 10167 10162 10161 10158 ] final   24.42 input  -65.29 | X-H torsion
[ 10718 10713 10712 10709 ] final   39.79 input   66.30 | X-H torsion
[ 10763 10752 10751 10750 ] final  -27.09 input  -60.55 | X-H torsion
[ 11005 11000 10999 10996 ] final  156.70 input  -57.11 | X-H torsion

> <Gold.Protein.ActiveResidues>
 VAL166  LYS551  ARG553  GLY616  TRP617  ASP618  TYR619  PRO620  LYS621  CYS622 
 ASP623  PHE694  ASN695  SER759  ASP760  ASP761  ALA762  ILE779  LEU786  VAL792 
 PHE793  MET794  SER795  GLU796  ALA797  LYS798  CYS799  TRP800  GLU811  SER814 

> <Gold.Protein.RotatedAtoms>
  152.5288  134.3107  159.9112 H   0  0  0  0  0  0  0  0  0  0  0  0  # atno 6907 bound_to 6896
  151.3056  133.4096  159.2650 H   0  0  0  0  0  0  0  0  0  0  0  0  # atno 6908 bound_to 6896
  151.0082  134.9392  159.8049 H   0  0  0  0  0  0  0  0  0  0  0  0  # atno 6909 bound_to 6896
  144.7250  140.2694  143.6253 H   0  0  0  0  0  0  0  0  0  0  0  0  # atno 7974 bound_to 7965
  155.3251  140.0464  157.3040 H   0  0  0  0  0  0  0  0  0  0  0  0  # atno 8008 bound_to 7997
  154.5358  140.2272  155.8690 H   0  0  0  0  0  0  0  0  0  0  0  0  # atno 8009 bound_to 7997
  156.1834  140.3068  155.9198 H   0  0  0  0  0  0  0  0  0  0  0  0  # atno 8010 bound_to 7997
  140.5189  144.0035  150.6407 H   0  0  0  0  0  0  0  0  0  0  0  0  # atno 10167 bound_to 10162
  157.3746  130.7720  149.7145 H   0  0  0  0  0  0  0  0  0  0  0  0  # atno 10718 bound_to 10713
  153.7265  135.6941  153.5000 H   0  0  0  0  0  0  0  0  0  0  0  0  # atno 10763 bound_to 10752
  153.2166  135.4384  155.0440 H   0  0  0  0  0  0  0  0  0  0  0  0  # atno 10764 bound_to 10752
  154.8267  135.3450  154.6797 H   0  0  0  0  0  0  0  0  0  0  0  0  # atno 10765 bound_to 10752
  140.1700  134.8550  157.2678 H   0  0  0  0  0  0  0  0  0  0  0  0  # atno 11005 bound_to 11000
  145.8058  139.1983  143.2022 LP  0  0  0  0  0  0  0  0  0  0  0  0  # atno 17320 bound_to 7965
  146.0638  140.7942  142.9722 LP  0  0  0  0  0  0  0  0  0  0  0  0  # atno 17321 bound_to 7965
  140.3379  143.3037  152.0619 LP  0  0  0  0  0  0  0  0  0  0  0  0  # atno 17342 bound_to 10162
  139.4917  144.6463  151.6771 LP  0  0  0  0  0  0  0  0  0  0  0  0  # atno 17343 bound_to 10162
  155.9762  130.4078  150.3792 LP  0  0  0  0  0  0  0  0  0  0  0  0  # atno 17370 bound_to 10713
  157.1887  131.0410  151.2711 LP  0  0  0  0  0  0  0  0  0  0  0  0  # atno 17371 bound_to 10713
  140.2389  134.3819  155.7489 LP  0  0  0  0  0  0  0  0  0  0  0  0  # atno 17394 bound_to 11000
  141.2216  133.7254  156.8758 LP  0  0  0  0  0  0  0  0  0  0  0  0  # atno 17395 bound_to 11000

$$$$
