AV-unprocessed.smi:46|AV-procd|sdf|420|dock3
  -GOLD-   2262016293D 1   1.00000     0.00000
 Structure written by MMmdl.
 35 36  0  0  0  0  0  0  0  0  2 V2000
  153.8508  142.0368  160.3527 C   0  0  0  0  0  0  0  0  0  0  0  0
  152.8932  143.2254  160.1808 C   0  0  0  0  0  0  0  0  0  0  0  0
  152.1231  143.5389  161.4729 C   0  0  0  0  0  0  0  0  0  0  0  0
  151.9791  142.9929  159.0728 N   0  0  0  0  0  0  0  0  0  0  0  0
  151.1832  141.8934  158.8256 C   0  0  0  0  0  0  0  0  0  0  0  0
  150.5093  142.1190  157.6562 C   0  0  0  0  0  0  0  0  0  0  0  0
  149.5080  141.2489  156.9246 C   0  0  1  0  0  0  0  0  0  0  0  0
  148.1864  141.9675  156.6236 C   0  0  0  0  0  0  0  0  0  0  0  0
  148.3723  142.6553  155.3329 N   0  3  0  0  0  0  0  0  0  0  0  0
  149.5114  142.0260  154.6360 C   0  0  0  0  0  0  0  0  0  0  0  0
  149.9731  140.8495  155.5129 C   0  0  1  0  0  0  0  0  0  0  0  0
  151.4683  140.5062  155.3600 C   0  0  0  0  0  0  0  0  0  0  0  0
  151.7440  140.1399  154.0252 O   0  0  0  0  0  0  0  0  0  0  0  0
  150.9772  143.4040  157.2576 C   0  0  0  0  0  0  0  0  0  0  0  0
  151.8523  143.9217  158.1024 N   0  0  0  0  0  0  0  0  0  0  0  0
  149.3087  140.3527  157.5140 H   0  0  0  0  0  0  0  0  0  0  0  0
  149.3858  139.9761  155.2220 H   0  0  0  0  0  0  0  0  0  0  0  0
  154.5762  142.2303  161.1434 H   0  0  0  0  0  0  0  0  0  0  0  0
  154.4082  141.8471  159.4349 H   0  0  0  0  0  0  0  0  0  0  0  0
  153.3137  141.1238  160.6111 H   0  0  0  0  0  0  0  0  0  0  0  0
  153.4965  144.1024  159.9384 H   0  0  0  0  0  0  0  0  0  0  0  0
  152.8085  143.7702  162.2889 H   0  0  0  0  0  0  0  0  0  0  0  0
  151.5064  142.6968  161.7881 H   0  0  0  0  0  0  0  0  0  0  0  0
  151.4684  144.4007  161.3391 H   0  0  0  0  0  0  0  0  0  0  0  0
  151.1650  141.0495  159.4990 H   0  0  0  0  0  0  0  0  0  0  0  0
  147.3949  141.2297  156.4856 H   0  0  0  0  0  0  0  0  0  0  0  0
  147.8672  142.6456  157.4158 H   0  0  0  0  0  0  0  0  0  0  0  0
  147.5308  142.5857  154.7786 H   0  0  0  0  0  0  0  0  0  0  0  0
  149.2291  141.7014  153.6341 H   0  0  0  0  0  0  0  0  0  0  0  0
  150.3013  142.7712  154.5350 H   0  0  0  0  0  0  0  0  0  0  0  0
  152.1053  141.3475  155.6348 H   0  0  0  0  0  0  0  0  0  0  0  0
  151.7330  139.6711  156.0093 H   0  0  0  0  0  0  0  0  0  0  0  0
  151.4529  139.2504  153.8903 H   0  0  0  0  0  0  0  0  0  0  0  0
  150.7040  143.9748  156.3821 H   0  0  0  0  0  0  0  0  0  0  0  0
  148.5911  143.6274  155.4979 H   0  0  0  0  0  0  0  0  0  0  0  0
  1  2  1  0  0  0  0
  1 18  1  0  0  0  0
  1 19  1  0  0  0  0
  1 20  1  0  0  0  0
  2  3  1  0  0  0  0
  2  4  1  0  0  0  0
  2 21  1  0  0  0  0
  3 22  1  0  0  0  0
  3 23  1  0  0  0  0
  3 24  1  0  0  0  0
  4 15  1  0  0  0  0
  4  5  1  0  0  0  0
  5  6  2  0  0  0  0
  5 25  1  0  0  0  0
  6  7  1  0  0  0  0
  6 14  1  0  0  0  0
  7 16  1  0  0  0  0
  7 11  1  0  0  0  0
  7  8  1  0  0  0  0
  8  9  1  0  0  0  0
  8 26  1  0  0  0  0
  8 27  1  0  0  0  0
  9 10  1  0  0  0  0
  9 28  1  0  0  0  0
  9 35  1  0  0  0  0
 10 11  1  0  0  0  0
 10 29  1  0  0  0  0
 10 30  1  0  0  0  0
 11 17  1  0  0  0  0
 11 12  1  0  0  0  0
 12 13  1  0  0  0  0
 12 31  1  0  0  0  0
 12 32  1  0  0  0  0
 13 33  1  0  0  0  0
 14 15  2  0  0  0  0
 14 34  1  0  0  0  0
M  CHG  1   9   1
M  END
> <s_m_source_file>
AV-unprocessed.smi

> <i_m_source_file_index>
46

> <i_lp_mmshare_version>
43012

> <i_f3d_flags>
0

> <s_epik_input>
W0NIM11bQ0hdKFtDSDNdKW4xW2NIXWMoW2NIXW4xKVtDQEBIXTJbQ0gyXVtOSF1bQ0gyXVtDQEhdMltDSDJdW09IXQ==

> <s_epik_cmdline>
J2VwaWtfcHl0aG9uJywgJy1waCcsICc3LjAnLCAnLXRuJywgJzgnLCAnLW1hJywgJzIwMCcsICctbWV0YWxfYmluZGluZycsICctaW1hZScsICc8aW5maWxlLm1hZT4nLCAnLW9tYWUnLCAnPG91dGZpbGUubWFlPic=

> <r_lp_tautomer_probability>
1

> <r_epik_Ionization_Penalty>
0.000236226

> <r_epik_Ionization_Penalty_Charging>
0.00021985

> <r_epik_Ionization_Penalty_Neutral>
1.63752e-05

> <r_epik_State_Penalty>
-0

> <r_epik_Charging_Adjusted_Penalty>
0.00021985

> <i_epik_Tot_Q>
1

> <i_epik_Tot_abs_Q>
1

> <r_epik_Metal_State_Penalty>
-0

> <b_epik_Metal_Only>
0

> <s_lp_Force_Field>
OPLS_2005

> <r_lp_Energy>
33.3547

> <b_lp_Chiralities_Consistent>
1

> <s_lp_Variant>
AV-unprocessed.smi:46-2

> <Gold.Version>
5.8.1

> <Gold.Id.Protein>
6NUR|6NUR_protein|mol2

> <Gold.PLP.Fitness>
44.1481

> <Gold.PLP.PLP>
-32.6158

> <Gold.PLP.part.hbond>
-2.0000

> <Gold.PLP.part.metal>
0.0000

> <Gold.PLP.part.buried>
-4.0656

> <Gold.PLP.part.nonpolar>
-27.6595

> <Gold.PLP.part.repulsive>
0.1487

> <Gold.PLP.ligand.clash>
0.0000

> <Gold.PLP.ligand.torsion>
0.2615

> <Gold.PLP.Chemscore.Hbond>
3.0000

> <Gold.PLP.Chemscore.CHOScore>
1.0000

> <Gold.PLP.Chemscore.Metal>
0.0000

> <Gold.Chemscore.Hbonds>
donor molecule, donor type, donor heavy atom, donor atom, acceptor molecule, acceptor atom, score
      L1  C    14    34       P1  8028  1.00

> <Gold.PLP.Chemscore.Internal.Correction>
0.0553

> <Gold.Rescore>
     Score         DG    S(hbond)    S(metal)    S(lipo)     H(rot)  DE(clash)    DE(int)     intcor
     16.38     -16.67       1.89        0.00      83.32       1.90       0.00       0.29       ----

> <Gold.Chemscore.Fitness>
16.3772

> <Gold.Chemscore.DG>
-16.6677

> <Gold.Chemscore.ZeroCoef>
-5.4800

> <Gold.Chemscore.Hbond>
1.8853

> <Gold.Chemscore.Metal>
0.0000

> <Gold.Chemscore.Lipo>
83.3231

> <Gold.Chemscore.Internal_Hbond>
0.0000

> <Gold.Chemscore.DEClash>
0.0000

> <Gold.Chemscore.DEInternal>
0.2905

> <Gold.Chemscore.Rot>
1.8976

> <Gold.Chemscore.Internal.Correction>
   9.000000E+99

> <Gold.Chemscore.Hbonds>
donor molecule, donor type, donor heavy atom, donor atom, acceptor molecule, acceptor atom, score
      L1  H     9    35       P1  8028  0.06

> <Gold.Chemscore.Hbond.Weighted>
-6.2968

> <Gold.Chemscore.Metal.Weighted>
-0.0000

> <Gold.Chemscore.Lipo.Weighted>
-9.7488

> <Gold.Chemscore.Internal_Hbond.Weighted>
0.0000

> <Gold.Chemscore.DEClash.Weighted>
0.0000

> <Gold.Chemscore.DEInternal.Weighted>
0.2905

> <Gold.Chemscore.Rot.Weighted>
4.8579

> <Gold.Chemscore.Internal.Correction.Weighted>
   9.000000E+99

> <Gold.Protein.RotatedTorsions>
[ 6907 6896 6895 6894 ] final  142.41 input  -60.11 | X-H torsion
[ 7974 7965 7964 7962 ] final -172.27 input  175.53 | X-H torsion
[ 8008 7997 7996 7995 ] final  -61.62 input   59.86 | X-H torsion
[ 10167 10162 10161 10158 ] final -155.72 input  -65.29 | X-H torsion
[ 10718 10713 10712 10709 ] final -128.39 input   66.30 | X-H torsion
[ 10763 10752 10751 10750 ] final   -8.20 input  -60.55 | X-H torsion
[ 11005 11000 10999 10996 ] final  138.98 input  -57.11 | X-H torsion

> <Gold.Protein.ActiveResidues>
 VAL166  LYS551  ARG553  GLY616  TRP617  ASP618  TYR619  PRO620  LYS621  CYS622 
 ASP623  PHE694  ASN695  SER759  ASP760  ASP761  ALA762  ILE779  LEU786  VAL792 
 PHE793  MET794  SER795  GLU796  ALA797  LYS798  CYS799  TRP800  GLU811  SER814 

> <Gold.Protein.RotatedAtoms>
  152.2190  133.4969  159.5151 H   0  0  0  0  0  0  0  0  0  0  0  0  # atno 6907 bound_to 6896
  150.7008  134.1367  159.4099 H   0  0  0  0  0  0  0  0  0  0  0  0  # atno 6908 bound_to 6896
  151.9287  135.0266  160.0578 H   0  0  0  0  0  0  0  0  0  0  0  0  # atno 6909 bound_to 6896
  144.7148  140.1797  143.6359 H   0  0  0  0  0  0  0  0  0  0  0  0  # atno 7974 bound_to 7965
  154.4457  140.1014  156.6459 H   0  0  0  0  0  0  0  0  0  0  0  0  # atno 8008 bound_to 7997
  155.5450  140.3484  155.4437 H   0  0  0  0  0  0  0  0  0  0  0  0  # atno 8009 bound_to 7997
  156.0570  140.1317  156.9974 H   0  0  0  0  0  0  0  0  0  0  0  0  # atno 8010 bound_to 7997
  139.6908  143.9424  152.2384 H   0  0  0  0  0  0  0  0  0  0  0  0  # atno 10167 bound_to 10162
  156.1946  130.6817  151.0466 H   0  0  0  0  0  0  0  0  0  0  0  0  # atno 10718 bound_to 10713
  153.4371  135.7013  153.6193 H   0  0  0  0  0  0  0  0  0  0  0  0  # atno 10763 bound_to 10752
  153.4583  135.3742  155.2324 H   0  0  0  0  0  0  0  0  0  0  0  0  # atno 10764 bound_to 10752
  154.8727  135.4014  154.3764 H   0  0  0  0  0  0  0  0  0  0  0  0  # atno 10765 bound_to 10752
  140.0222  134.9391  157.0497 H   0  0  0  0  0  0  0  0  0  0  0  0  # atno 11005 bound_to 11000
  145.8868  139.2353  143.1573 LP  0  0  0  0  0  0  0  0  0  0  0  0  # atno 17320 bound_to 7965
  145.9942  140.8576  143.0051 LP  0  0  0  0  0  0  0  0  0  0  0  0  # atno 17321 bound_to 7965
  139.9239  144.6783  150.8432 LP  0  0  0  0  0  0  0  0  0  0  0  0  # atno 17342 bound_to 10162
  140.7682  143.3355  151.2317 LP  0  0  0  0  0  0  0  0  0  0  0  0  # atno 17343 bound_to 10162
  157.6950  131.0797  150.6997 LP  0  0  0  0  0  0  0  0  0  0  0  0  # atno 17370 bound_to 10713
  156.7053  130.4635  149.5562 LP  0  0  0  0  0  0  0  0  0  0  0  0  # atno 17371 bound_to 10713
  140.4368  134.1723  155.7171 LP  0  0  0  0  0  0  0  0  0  0  0  0  # atno 17394 bound_to 11000
  141.1781  133.8472  157.1354 LP  0  0  0  0  0  0  0  0  0  0  0  0  # atno 17395 bound_to 11000

$$$$
