AV-unprocessed.smi:1545|AV-procd|sdf|6216|dock10
  -GOLD-   22720 6393D 1   1.00000     0.00000
 Structure written by MMmdl.
 41 43  0  0  0  0  0  0  0  0  1 V2000
  151.7018  136.5640  155.7107 O   0  0  0  0  0  0  0  0  0  0  0  0
  150.8055  137.6228  155.4503 C   0  0  0  0  0  0  0  0  0  0  0  0
  151.5555  138.9624  155.4231 C   0  0  0  0  0  0  0  0  0  0  0  0
  151.9303  139.4059  156.7534 N   0  0  0  0  0  0  0  0  0  0  0  0
  151.9567  140.6632  157.3455 C   0  0  0  0  0  0  0  0  0  0  0  0
  151.6058  141.7874  156.7244 N   0  0  0  0  0  0  0  0  0  0  0  0
  151.8002  142.7387  157.7079 C   0  0  0  0  0  0  0  0  0  0  0  0
  151.6057  144.1383  157.6812 C   0  0  0  0  0  0  0  0  0  0  0  0
  151.8747  144.9184  158.8248 C   0  0  0  0  0  0  0  0  0  0  0  0
  152.3406  144.3121  160.0096 C   0  0  0  0  0  0  0  0  0  0  0  0
  152.5414  142.9193  160.0589 C   0  0  0  0  0  0  0  0  0  0  0  0
  152.2726  142.1443  158.9146 C   0  0  0  0  0  0  0  0  0  0  0  0
  152.3599  140.7842  158.6322 N   0  0  0  0  0  0  0  0  0  0  0  0
  152.7912  139.7292  159.5398 C   0  0  0  0  0  0  0  0  0  0  0  0
  154.3079  139.7683  159.8128 C   0  0  2  0  0  0  0  0  0  0  0  0
  155.0030  139.0996  158.7780 O   0  0  0  0  0  0  0  0  0  0  0  0
  154.6396  139.2073  161.1865 C   0  0  0  0  0  0  0  0  0  0  0  0
  155.2672  140.0275  162.1488 C   0  0  0  0  0  0  0  0  0  0  0  0
  155.5694  139.5189  163.4270 C   0  0  0  0  0  0  0  0  0  0  0  0
  155.2430  138.1883  163.7514 C   0  0  0  0  0  0  0  0  0  0  0  0
  154.6134  137.3663  162.7972 C   0  0  0  0  0  0  0  0  0  0  0  0
  154.2960  136.0876  163.1094 F   0  0  0  0  0  0  0  0  0  0  0  0
  154.3117  137.8739  161.5184 C   0  0  0  0  0  0  0  0  0  0  0  0
  151.2194  135.8484  156.0956 H   0  0  0  0  0  0  0  0  0  0  0  0
  150.2583  137.4442  154.5236 H   0  0  0  0  0  0  0  0  0  0  0  0
  150.0732  137.6331  156.2578 H   0  0  0  0  0  0  0  0  0  0  0  0
  152.4800  138.8432  154.8581 H   0  0  0  0  0  0  0  0  0  0  0  0
  150.9749  139.7325  154.9134 H   0  0  0  0  0  0  0  0  0  0  0  0
  152.1860  138.6495  157.3711 H   0  0  0  0  0  0  0  0  0  0  0  0
  151.2484  144.6118  156.7787 H   0  0  0  0  0  0  0  0  0  0  0  0
  151.7222  145.9872  158.7922 H   0  0  0  0  0  0  0  0  0  0  0  0
  152.5438  144.9171  160.8810 H   0  0  0  0  0  0  0  0  0  0  0  0
  152.8966  142.4532  160.9658 H   0  0  0  0  0  0  0  0  0  0  0  0
  152.2365  139.8293  160.4737 H   0  0  0  0  0  0  0  0  0  0  0  0
  152.5030  138.7648  159.1202 H   0  0  0  0  0  0  0  0  0  0  0  0
  154.6442  140.8056  159.7851 H   0  0  0  0  0  0  0  0  0  0  0  0
  154.4802  138.3677  158.4888 H   0  0  0  0  0  0  0  0  0  0  0  0
  155.5187  141.0508  161.9109 H   0  0  0  0  0  0  0  0  0  0  0  0
  156.0505  140.1503  164.1594 H   0  0  0  0  0  0  0  0  0  0  0  0
  155.4740  137.7993  164.7321 H   0  0  0  0  0  0  0  0  0  0  0  0
  153.8254  137.2364  160.7947 H   0  0  0  0  0  0  0  0  0  0  0  0
  1  2  1  0  0  0  0
  1 24  1  0  0  0  0
  2  3  1  0  0  0  0
  2 25  1  0  0  0  0
  2 26  1  0  0  0  0
  3  4  1  0  0  0  0
  3 27  1  0  0  0  0
  3 28  1  0  0  0  0
  4  5  1  0  0  0  0
  4 29  1  0  0  0  0
  5 13  1  0  0  0  0
  5  6  2  0  0  0  0
  6  7  1  0  0  0  0
  7 12  2  0  0  0  0
  7  8  1  0  0  0  0
  8  9  2  0  0  0  0
  8 30  1  0  0  0  0
  9 10  1  0  0  0  0
  9 31  1  0  0  0  0
 10 11  2  0  0  0  0
 10 32  1  0  0  0  0
 11 12  1  0  0  0  0
 11 33  1  0  0  0  0
 12 13  1  0  0  0  0
 13 14  1  0  0  0  0
 14 15  1  0  0  0  0
 14 34  1  0  0  0  0
 14 35  1  0  0  0  0
 15 16  1  0  0  0  0
 15 17  1  0  0  0  0
 15 36  1  0  0  0  0
 16 37  1  0  0  0  0
 17 23  1  0  0  0  0
 17 18  2  0  0  0  0
 18 19  1  0  0  0  0
 18 38  1  0  0  0  0
 19 20  2  0  0  0  0
 19 39  1  0  0  0  0
 20 21  1  0  0  0  0
 20 40  1  0  0  0  0
 21 22  1  0  0  0  0
 21 23  2  0  0  0  0
 23 41  1  0  0  0  0
M  END
> <s_m_source_file>
AV-unprocessed.smi

> <i_m_source_file_index>
1545

> <i_lp_mmshare_version>
43012

> <i_f3d_flags>
0

> <s_epik_input>
W09IXVtDSDJdW0NIMl1bTkhdYyhuMSluKGMoYzEyKVtjSF1bY0hdW2NIXVtjSF0yKVtDSDJdW0NASF0oW09IXSljM1tjSF1bY0hdW2NIXWMoRilbY0hdMw==

> <s_epik_cmdline>
J2VwaWtfcHl0aG9uJywgJy1waCcsICc3LjAnLCAnLXRuJywgJzgnLCAnLW1hJywgJzIwMCcsICctbWV0YWxfYmluZGluZycsICctaW1hZScsICc8aW5maWxlLm1hZT4nLCAnLW9tYWUnLCAnPG91dGZpbGUubWFlPic=

> <r_epik_Ionization_Penalty>
1.30972

> <r_epik_Ionization_Penalty_Charging>
0

> <r_epik_Ionization_Penalty_Neutral>
1.30972

> <r_epik_State_Penalty>
1.38438

> <r_epik_Charging_Adjusted_Penalty>
1.38438

> <i_epik_Tot_Q>
0

> <i_epik_Tot_abs_Q>
0

> <r_epik_Metal_State_Penalty>
0.00551145

> <b_epik_Metal_Only>
0

> <s_lp_Force_Field>
OPLS_2005

> <r_lp_Energy>
9.7293

> <b_lp_Chiralities_Consistent>
1

> <s_lp_Variant>
AV-unprocessed.smi:1545-3

> <Gold.Version>
5.8.1

> <Gold.Id.Protein>
6NUR|6NUR_protein|mol2

> <Gold.PLP.Fitness>
50.7988

> <Gold.PLP.PLP>
-46.0424

> <Gold.PLP.part.hbond>
-2.0000

> <Gold.PLP.part.metal>
0.0000

> <Gold.PLP.part.buried>
-3.2586

> <Gold.PLP.part.nonpolar>
-41.0439

> <Gold.PLP.part.repulsive>
0.1464

> <Gold.PLP.ligand.clash>
0.0000

> <Gold.PLP.ligand.torsion>
0.6427

> <Gold.PLP.Chemscore.Hbond>
2.0000

> <Gold.PLP.Chemscore.CHOScore>
0.0000

> <Gold.PLP.Chemscore.Metal>
0.0000

> <Gold.Chemscore.Hbonds>
donor molecule, donor type, donor heavy atom, donor atom, acceptor molecule, acceptor atom, score
      P1  H  7997  8010       L1    16  1.00
      P1  H 10752 10764       L1     1  0.90

> <Gold.PLP.Chemscore.Internal.Correction>
0.0419

> <Gold.Rescore>
     Score         DG    S(hbond)    S(metal)    S(lipo)     H(rot)  DE(clash)    DE(int)     intcor
     17.02     -18.07       1.61        0.00     129.14       3.08       0.29       0.76       ----

> <Gold.Chemscore.Fitness>
17.0247

> <Gold.Chemscore.DG>
-18.0704

> <Gold.Chemscore.ZeroCoef>
-5.4800

> <Gold.Chemscore.Hbond>
1.6076

> <Gold.Chemscore.Metal>
0.0000

> <Gold.Chemscore.Lipo>
129.1356

> <Gold.Chemscore.Internal_Hbond>
0.0000

> <Gold.Chemscore.DEClash>
0.2887

> <Gold.Chemscore.DEInternal>
0.7570

> <Gold.Chemscore.Rot>
3.0812

> <Gold.Chemscore.Internal.Correction>
   9.000000E+99

> <Gold.Chemscore.Hbonds>
donor molecule, donor type, donor heavy atom, donor atom, acceptor molecule, acceptor atom, score
      P1  H  7997  8010       L1    16  0.31
      P1  H 10752 10764       L1     1  0.18

> <Gold.Chemscore.Hbond.Weighted>
-5.3693

> <Gold.Chemscore.Metal.Weighted>
-0.0000

> <Gold.Chemscore.Lipo.Weighted>
-15.1089

> <Gold.Chemscore.Internal_Hbond.Weighted>
0.0000

> <Gold.Chemscore.DEClash.Weighted>
0.2887

> <Gold.Chemscore.DEInternal.Weighted>
0.7570

> <Gold.Chemscore.Rot.Weighted>
7.8878

> <Gold.Chemscore.Internal.Correction.Weighted>
   9.000000E+99

> <Gold.Protein.RotatedTorsions>
[ 6907 6896 6895 6894 ] final  160.80 input  -60.11 | X-H torsion
[ 7974 7965 7964 7962 ] final  -58.90 input  175.53 | X-H torsion
[ 8008 7997 7996 7995 ] final   -2.12 input   59.86 | X-H torsion
[ 10167 10162 10161 10158 ] final -151.33 input  -65.29 | X-H torsion
[ 10718 10713 10712 10709 ] final  177.78 input   66.30 | X-H torsion
[ 10763 10752 10751 10750 ] final  -48.74 input  -60.55 | X-H torsion
[ 11005 11000 10999 10996 ] final -108.75 input  -57.11 | X-H torsion

> <Gold.Protein.ActiveResidues>
 VAL166  LYS551  ARG553  GLY616  TRP617  ASP618  TYR619  PRO620  LYS621  CYS622 
 ASP623  PHE694  ASN695  SER759  ASP760  ASP761  ALA762  ILE779  LEU786  VAL792 
 PHE793  MET794  SER795  GLU796  ALA797  LYS798  CYS799  TRP800  GLU811  SER814 

> <Gold.Protein.RotatedAtoms>
  151.9651  133.3708  159.4049 H   0  0  0  0  0  0  0  0  0  0  0  0  # atno 6907 bound_to 6896
  150.6958  134.4199  159.5209 H   0  0  0  0  0  0  0  0  0  0  0  0  # atno 6908 bound_to 6896
  152.1894  134.8685  160.0570 H   0  0  0  0  0  0  0  0  0  0  0  0  # atno 6909 bound_to 6896
  145.8339  140.8462  143.0069 H   0  0  0  0  0  0  0  0  0  0  0  0  # atno 7974 bound_to 7965
  154.6392  140.2542  155.7342 H   0  0  0  0  0  0  0  0  0  0  0  0  # atno 8008 bound_to 7997
  156.2520  140.2891  156.0699 H   0  0  0  0  0  0  0  0  0  0  0  0  # atno 8009 bound_to 7997
  155.1623  140.0384  157.2835 H   0  0  0  0  0  0  0  0  0  0  0  0  # atno 8010 bound_to 7997
  139.7276  143.8858  152.2524 H   0  0  0  0  0  0  0  0  0  0  0  0  # atno 10167 bound_to 10162
  156.9003  130.9876  151.3036 H   0  0  0  0  0  0  0  0  0  0  0  0  # atno 10718 bound_to 10713
  154.0826  135.6589  153.4840 H   0  0  0  0  0  0  0  0  0  0  0  0  # atno 10763 bound_to 10752
  153.0350  135.5183  154.7458 H   0  0  0  0  0  0  0  0  0  0  0  0  # atno 10764 bound_to 10752
  154.6558  135.3008  154.9897 H   0  0  0  0  0  0  0  0  0  0  0  0  # atno 10765 bound_to 10752
  141.0885  133.9097  157.2130 H   0  0  0  0  0  0  0  0  0  0  0  0  # atno 11005 bound_to 11000
  144.6738  140.0712  143.7473 LP  0  0  0  0  0  0  0  0  0  0  0  0  # atno 17320 bound_to 7965
  145.9540  139.2754  143.1195 LP  0  0  0  0  0  0  0  0  0  0  0  0  # atno 17321 bound_to 7965
  139.8772  144.7037  150.8919 LP  0  0  0  0  0  0  0  0  0  0  0  0  # atno 17342 bound_to 10162
  140.7765  143.3690  151.1684 LP  0  0  0  0  0  0  0  0  0  0  0  0  # atno 17343 bound_to 10162
  157.6030  130.8527  149.8832 LP  0  0  0  0  0  0  0  0  0  0  0  0  # atno 17370 bound_to 10713
  156.0585  130.3704  150.1035 LP  0  0  0  0  0  0  0  0  0  0  0  0  # atno 17371 bound_to 10713
  139.9707  135.0129  156.9504 LP  0  0  0  0  0  0  0  0  0  0  0  0  # atno 17394 bound_to 11000
  140.5307  134.0816  155.7315 LP  0  0  0  0  0  0  0  0  0  0  0  0  # atno 17395 bound_to 11000

$$$$
