AV-unprocessed.smi:1848|AV-procd|sdf|7519|dock5
  -GOLD-   22720 9223D 1   1.00000     0.00000
 Structure written by MMmdl.
 31 31  0  0  0  0  0  0  0  0  1 V2000
  151.7678  145.5801  159.9859 C   0  0  0  0  0  0  0  0  0  0  0  0
  151.9420  145.0456  158.9019 C   0  0  0  0  0  0  0  0  0  0  0  0
  152.1660  144.3932  157.6005 C   0  0  0  0  0  0  0  0  0  0  0  0
  152.1592  142.9375  157.6911 N   0  0  0  0  0  0  0  0  0  0  0  0
  151.0755  142.1558  157.5625 C   0  0  0  0  0  0  0  0  0  0  0  0
  149.9440  142.5995  157.3617 O   0  0  0  0  0  0  0  0  0  0  0  0
  151.3154  140.6462  157.7075 C   0  0  0  0  0  0  0  0  0  0  0  0
  151.0859  139.8980  156.4597 N   0  0  0  0  0  0  0  0  0  0  0  0
  149.8520  140.1002  155.8093 C   0  0  0  0  0  0  0  0  0  0  0  0
  149.5343  139.4722  154.6555 C   0  0  0  0  0  0  0  0  0  0  0  0
  148.2645  139.6667  153.9494 C   0  0  0  0  0  0  0  0  0  0  0  0
  147.5079  140.6204  154.1375 O   0  0  0  0  0  0  0  0  0  0  0  0
  147.9741  138.7038  153.0574 N   0  0  0  0  0  0  0  0  0  0  0  0
  146.7720  138.6736  152.2379 C   0  0  0  0  0  0  0  0  0  0  0  0
  150.5201  138.5649  154.1001 C   0  0  0  0  0  0  0  0  0  0  0  0
  151.7038  138.3718  154.7141 C   0  0  0  0  0  0  0  0  0  0  0  0
  152.0457  139.0609  155.9612 C   0  0  0  0  0  0  0  0  0  0  0  0
  153.1285  138.8957  156.5235 O   0  0  0  0  0  0  0  0  0  0  0  0
  151.6161  146.0429  160.9350 H   0  0  0  0  0  0  0  0  0  0  0  0
  151.4137  144.7506  156.8954 H   0  0  0  0  0  0  0  0  0  0  0  0
  153.1363  144.7181  157.2249 H   0  0  0  0  0  0  0  0  0  0  0  0
  153.0478  142.4897  157.8621 H   0  0  0  0  0  0  0  0  0  0  0  0
  152.3309  140.4741  158.0695 H   0  0  0  0  0  0  0  0  0  0  0  0
  150.6660  140.2742  158.5011 H   0  0  0  0  0  0  0  0  0  0  0  0
  149.2054  140.8030  156.3148 H   0  0  0  0  0  0  0  0  0  0  0  0
  148.6286  137.9433  152.9448 H   0  0  0  0  0  0  0  0  0  0  0  0
  146.7763  137.7865  151.6048 H   0  0  0  0  0  0  0  0  0  0  0  0
  146.7187  139.5524  151.5941 H   0  0  0  0  0  0  0  0  0  0  0  0
  145.8777  138.6427  152.8616 H   0  0  0  0  0  0  0  0  0  0  0  0
  150.3174  138.0322  153.1819 H   0  0  0  0  0  0  0  0  0  0  0  0
  152.4204  137.6921  154.2771 H   0  0  0  0  0  0  0  0  0  0  0  0
  1  2  3  0  0  0  0
  1 19  1  0  0  0  0
  2  3  1  0  0  0  0
  3  4  1  0  0  0  0
  3 20  1  0  0  0  0
  3 21  1  0  0  0  0
  4  5  1  0  0  0  0
  4 22  1  0  0  0  0
  5  6  2  0  0  0  0
  5  7  1  0  0  0  0
  7  8  1  0  0  0  0
  7 23  1  0  0  0  0
  7 24  1  0  0  0  0
  8 17  1  0  0  0  0
  8  9  1  0  0  0  0
  9 10  2  0  0  0  0
  9 25  1  0  0  0  0
 10 11  1  0  0  0  0
 10 15  1  0  0  0  0
 11 12  2  0  0  0  0
 11 13  1  0  0  0  0
 13 14  1  0  0  0  0
 13 26  1  0  0  0  0
 14 27  1  0  0  0  0
 14 28  1  0  0  0  0
 14 29  1  0  0  0  0
 15 16  2  0  0  0  0
 15 30  1  0  0  0  0
 16 17  1  0  0  0  0
 16 31  1  0  0  0  0
 17 18  2  0  0  0  0
M  END
> <s_m_source_file>
AV-unprocessed.smi

> <i_m_source_file_index>
1848

> <i_lp_mmshare_version>
43012

> <i_f3d_flags>
0

> <s_epik_input>
W0NIXSNDW0NIMl1bTkhdQyg9TylbQ0gyXW4xW2NIXWMoQyg9TylbTkhdW0NIM10pW2NIXVtjSF1jMT1P

> <s_epik_cmdline>
J2VwaWtfcHl0aG9uJywgJy1waCcsICc3LjAnLCAnLXRuJywgJzgnLCAnLW1hJywgJzIwMCcsICctbWV0YWxfYmluZGluZycsICctaW1hZScsICc8aW5maWxlLm1hZT4nLCAnLW9tYWUnLCAnPG91dGZpbGUubWFlPic=

> <r_lp_tautomer_probability>
1

> <r_epik_Ionization_Penalty>
5.04952e-07

> <r_epik_Ionization_Penalty_Charging>
3.86163e-08

> <r_epik_Ionization_Penalty_Neutral>
4.66336e-07

> <r_epik_State_Penalty>
-0

> <r_epik_Charging_Adjusted_Penalty>
3.86163e-08

> <i_epik_Tot_Q>
0

> <i_epik_Tot_abs_Q>
0

> <r_epik_Metal_State_Penalty>
-0

> <b_epik_Metal_Only>
0

> <s_lp_Force_Field>
OPLS_2005

> <r_lp_Energy>
14.316

> <b_lp_Chiralities_Consistent>
1

> <s_lp_Variant>
AV-unprocessed.smi:1848-1

> <Gold.Version>
5.8.1

> <Gold.Id.Protein>
6NUR|6NUR_protein|mol2

> <Gold.PLP.Fitness>
43.7430

> <Gold.PLP.PLP>
-39.0634

> <Gold.PLP.part.hbond>
-3.0000

> <Gold.PLP.part.metal>
0.0000

> <Gold.PLP.part.buried>
-2.6912

> <Gold.PLP.part.nonpolar>
-35.0874

> <Gold.PLP.part.repulsive>
1.4855

> <Gold.PLP.ligand.clash>
0.0000

> <Gold.PLP.ligand.torsion>
0.4339

> <Gold.PLP.Chemscore.Hbond>
1.8406

> <Gold.PLP.Chemscore.CHOScore>
0.0000

> <Gold.PLP.Chemscore.Metal>
0.0000

> <Gold.Chemscore.Hbonds>
donor molecule, donor type, donor heavy atom, donor atom, acceptor molecule, acceptor atom, score
      L1  H    13    26       P1  7948  0.85
      P1  H  7997  8008       L1    18  1.00

> <Gold.PLP.Chemscore.Internal.Correction>
0.0255

> <Gold.Rescore>
     Score         DG    S(hbond)    S(metal)    S(lipo)     H(rot)  DE(clash)    DE(int)     intcor
     13.90     -16.99       1.79        0.00      82.87       1.62       1.53       1.57       ----

> <Gold.Chemscore.Fitness>
13.8968

> <Gold.Chemscore.DG>
-16.9904

> <Gold.Chemscore.ZeroCoef>
-5.4800

> <Gold.Chemscore.Hbond>
1.7876

> <Gold.Chemscore.Metal>
0.0000

> <Gold.Chemscore.Lipo>
82.8669

> <Gold.Chemscore.Internal_Hbond>
0.0000

> <Gold.Chemscore.DEClash>
1.5286

> <Gold.Chemscore.DEInternal>
1.5651

> <Gold.Chemscore.Rot>
1.6233

> <Gold.Chemscore.Internal.Correction>
   9.000000E+99

> <Gold.Chemscore.Hbonds>
donor molecule, donor type, donor heavy atom, donor atom, acceptor molecule, acceptor atom, score
      L1  H    13    26       P1  7948  0.79
      P1  H  7997  8008       L1    18  0.93

> <Gold.Chemscore.Hbond.Weighted>
-5.9706

> <Gold.Chemscore.Metal.Weighted>
-0.0000

> <Gold.Chemscore.Lipo.Weighted>
-9.6954

> <Gold.Chemscore.Internal_Hbond.Weighted>
0.0000

> <Gold.Chemscore.DEClash.Weighted>
1.5286

> <Gold.Chemscore.DEInternal.Weighted>
1.5651

> <Gold.Chemscore.Rot.Weighted>
4.1557

> <Gold.Chemscore.Internal.Correction.Weighted>
   9.000000E+99

> <Gold.Protein.RotatedTorsions>
[ 6907 6896 6895 6894 ] final -165.16 input  -60.11 | X-H torsion
[ 7974 7965 7964 7962 ] final  -74.48 input  175.53 | X-H torsion
[ 8008 7997 7996 7995 ] final  -40.18 input   59.86 | X-H torsion
[ 10167 10162 10161 10158 ] final -105.31 input  -65.29 | X-H torsion
[ 10718 10713 10712 10709 ] final  179.75 input   66.30 | X-H torsion
[ 10763 10752 10751 10750 ] final  120.24 input  -60.55 | X-H torsion
[ 11005 11000 10999 10996 ] final -119.48 input  -57.11 | X-H torsion

> <Gold.Protein.ActiveResidues>
 VAL166  LYS551  ARG553  GLY616  TRP617  ASP618  TYR619  PRO620  LYS621  CYS622 
 ASP623  PHE694  ASN695  SER759  ASP760  ASP761  ALA762  ILE779  LEU786  VAL792 
 PHE793  MET794  SER795  GLU796  ALA797  LYS798  CYS799  TRP800  GLU811  SER814 

> <Gold.Protein.RotatedAtoms>
  151.4233  133.3692  159.2758 H   0  0  0  0  0  0  0  0  0  0  0  0  # atno 6907 bound_to 6896
  150.9278  134.8695  159.7542 H   0  0  0  0  0  0  0  0  0  0  0  0  # atno 6908 bound_to 6896
  152.5013  134.4175  159.9521 H   0  0  0  0  0  0  0  0  0  0  0  0  # atno 6909 bound_to 6896
  145.6385  140.9318  143.1048 H   0  0  0  0  0  0  0  0  0  0  0  0  # atno 7974 bound_to 7965
  154.4015  140.1532  156.2985 H   0  0  0  0  0  0  0  0  0  0  0  0  # atno 8008 bound_to 7997
  155.8722  140.3448  155.5807 H   0  0  0  0  0  0  0  0  0  0  0  0  # atno 8009 bound_to 7997
  155.7761  140.0837  157.2073 H   0  0  0  0  0  0  0  0  0  0  0  0  # atno 8010 bound_to 7997
  140.1999  143.3826  152.1138 H   0  0  0  0  0  0  0  0  0  0  0  0  # atno 10167 bound_to 10162
  156.8712  130.9784  151.3073 H   0  0  0  0  0  0  0  0  0  0  0  0  # atno 10718 bound_to 10713
  153.5954  135.3458  155.2926 H   0  0  0  0  0  0  0  0  0  0  0  0  # atno 10763 bound_to 10752
  154.8645  135.4215  154.2470 H   0  0  0  0  0  0  0  0  0  0  0  0  # atno 10764 bound_to 10752
  153.3287  135.7043  153.7038 H   0  0  0  0  0  0  0  0  0  0  0  0  # atno 10765 bound_to 10752
  141.0212  134.0121  157.3279 H   0  0  0  0  0  0  0  0  0  0  0  0  # atno 11005 bound_to 11000
  144.7166  139.8174  143.7396 LP  0  0  0  0  0  0  0  0  0  0  0  0  # atno 17320 bound_to 7965
  146.1300  139.4333  143.0175 LP  0  0  0  0  0  0  0  0  0  0  0  0  # atno 17321 bound_to 7965
  139.5221  144.7055  151.5367 LP  0  0  0  0  0  0  0  0  0  0  0  0  # atno 17342 bound_to 10162
  140.6397  143.8913  150.6680 LP  0  0  0  0  0  0  0  0  0  0  0  0  # atno 17343 bound_to 10162
  157.6195  130.8644  149.9084 LP  0  0  0  0  0  0  0  0  0  0  0  0  # atno 17370 bound_to 10713
  156.0726  130.3683  150.0745 LP  0  0  0  0  0  0  0  0  0  0  0  0  # atno 17371 bound_to 10713
  139.9147  135.0195  156.7834 LP  0  0  0  0  0  0  0  0  0  0  0  0  # atno 17394 bound_to 11000
  140.6569  133.9680  155.7784 LP  0  0  0  0  0  0  0  0  0  0  0  0  # atno 17395 bound_to 11000

$$$$
