AV-unprocessed.smi:705|AV-procd|sdf|3450|dock4
  -GOLD-   22720 0433D 1   1.00000     0.00000
 Structure written by MMmdl.
 28 29  0  0  0  0  0  0  0  0  3 V2000
  149.7272  138.0668  153.7940 N   0  0  0  0  0  0  0  0  0  0  0  0
  150.6853  137.7077  154.6519 C   0  0  0  0  0  0  0  0  0  0  0  0
  151.1336  136.5642  154.7160 O   0  0  0  0  0  0  0  0  0  0  0  0
  151.1880  138.7996  155.5482 C   0  0  0  0  0  0  0  0  0  0  0  0
  150.5675  140.0689  155.6691 C   0  0  0  0  0  0  0  0  0  0  0  0
  151.4643  140.6521  156.6379 C   0  0  0  0  0  0  0  0  0  0  0  0
  151.1778  142.0664  157.1044 C   0  0  2  0  0  0  0  0  0  0  0  0
  152.2480  142.5670  158.0918 C   0  0  0  0  0  0  0  0  0  0  0  0
  151.9070  143.9830  158.5809 C   0  0  0  0  0  0  0  0  0  0  0  0
  150.4855  144.0347  159.1656 C   0  0  0  0  0  0  0  0  0  0  0  0
  149.4953  143.5509  158.1790 N   0  3  0  0  0  0  0  0  0  0  0  0
  149.7680  142.1728  157.7169 C   0  0  0  0  0  0  0  0  0  0  0  0
  152.4554  139.8175  157.0034 N   0  0  0  0  0  0  0  0  0  0  0  0
  152.2748  138.6917  156.3352 N   0  5  0  0  0  0  0  0  0  0  0  0
  149.3345  137.3926  153.1550 H   0  0  0  0  0  0  0  0  0  0  0  0
  149.4071  139.0253  153.7995 H   0  0  0  0  0  0  0  0  0  0  0  0
  149.6873  140.4719  155.1834 H   0  0  0  0  0  0  0  0  0  0  0  0
  151.2077  142.7163  156.2281 H   0  0  0  0  0  0  0  0  0  0  0  0
  152.3077  141.8924  158.9472 H   0  0  0  0  0  0  0  0  0  0  0  0
  153.2314  142.5601  157.6204 H   0  0  0  0  0  0  0  0  0  0  0  0
  152.6314  144.3031  159.3304 H   0  0  0  0  0  0  0  0  0  0  0  0
  151.9889  144.6862  157.7509 H   0  0  0  0  0  0  0  0  0  0  0  0
  150.4230  143.4227  160.0667 H   0  0  0  0  0  0  0  0  0  0  0  0
  150.2320  145.0549  159.4543 H   0  0  0  0  0  0  0  0  0  0  0  0
  148.5751  143.5795  158.5943 H   0  0  0  0  0  0  0  0  0  0  0  0
  149.0125  141.8900  156.9833 H   0  0  0  0  0  0  0  0  0  0  0  0
  149.6645  141.4886  158.5606 H   0  0  0  0  0  0  0  0  0  0  0  0
  149.5119  144.1653  157.3777 H   0  0  0  0  0  0  0  0  0  0  0  0
  1  2  1  0  0  0  0
  1 15  1  0  0  0  0
  1 16  1  0  0  0  0
  2  3  2  0  0  0  0
  2  4  1  0  0  0  0
  4 14  1  0  0  0  0
  4  5  2  0  0  0  0
  5  6  1  0  0  0  0
  5 17  1  0  0  0  0
  6  7  1  0  0  0  0
  6 13  2  0  0  0  0
  7 12  1  0  0  0  0
  7  8  1  0  0  0  0
  7 18  1  0  0  0  0
  8  9  1  0  0  0  0
  8 19  1  0  0  0  0
  8 20  1  0  0  0  0
  9 10  1  0  0  0  0
  9 21  1  0  0  0  0
  9 22  1  0  0  0  0
 10 11  1  0  0  0  0
 10 23  1  0  0  0  0
 10 24  1  0  0  0  0
 11 12  1  0  0  0  0
 11 25  1  0  0  0  0
 11 28  1  0  0  0  0
 12 26  1  0  0  0  0
 12 27  1  0  0  0  0
 13 14  1  0  0  0  0
M  CHG  1  11   1
M  CHG  1  14  -1
M  END
> <s_m_source_file>
AV-unprocessed.smi

> <i_m_source_file_index>
705

> <i_lp_mmshare_version>
43012

> <i_f3d_flags>
0

> <s_epik_input>
W05IMl1DKD1PKWMxW2NIXWMoW25IXW4xKVtDQEBIXTJbQ0gyXVtDSDJdW0NIMl1bTkhdW0NIMl0y

> <s_epik_cmdline>
J2VwaWtfcHl0aG9uJywgJy1waCcsICc3LjAnLCAnLXRuJywgJzgnLCAnLW1hJywgJzIwMCcsICctbWV0YWxfYmluZGluZycsICctaW1hZScsICc8aW5maWxlLm1hZT4nLCAnLW9tYWUnLCAnPG91dGZpbGUubWFlPic=

> <r_lp_tautomer_probability>
0.5

> <r_epik_Ionization_Penalty>
8.1602

> <r_epik_Ionization_Penalty_Charging>
5.25561

> <r_epik_Ionization_Penalty_Neutral>
2.90459

> <r_epik_State_Penalty>
5.66605

> <r_epik_Charging_Adjusted_Penalty>
10.9217

> <i_epik_Tot_Q>
0

> <i_epik_Tot_abs_Q>
2

> <r_epik_Metal_State_Penalty>
1.68656

> <b_epik_Metal_Only>
1

> <s_lp_Force_Field>
OPLS_2005

> <r_lp_Energy>
5.1844

> <b_lp_Chiralities_Consistent>
1

> <s_lp_Variant>
AV-unprocessed.smi:705-5

> <Gold.Version>
5.8.1

> <Gold.Id.Protein>
6NUR|6NUR_protein|mol2

> <Gold.PLP.Fitness>
41.7725

> <Gold.PLP.PLP>
-27.0199

> <Gold.PLP.part.hbond>
-6.3518

> <Gold.PLP.part.metal>
0.0000

> <Gold.PLP.part.buried>
-4.6042

> <Gold.PLP.part.nonpolar>
-17.0845

> <Gold.PLP.part.repulsive>
1.0523

> <Gold.PLP.ligand.clash>
0.0000

> <Gold.PLP.ligand.torsion>
0.0593

> <Gold.PLP.Chemscore.Hbond>
4.9500

> <Gold.PLP.Chemscore.CHOScore>
0.0000

> <Gold.PLP.Chemscore.Metal>
0.0000

> <Gold.Chemscore.Hbonds>
donor molecule, donor type, donor heavy atom, donor atom, acceptor molecule, acceptor atom, score
      L1  H     1    15       P1  7948  1.00
      L1  H    11    28       P1  8028  1.90
      P1  H  7997  8009       L1    13  1.00
      P1  H 10752 10763       L1     3  0.52

> <Gold.PLP.Chemscore.Internal.Correction>
0.0213

> <Gold.Rescore>
     Score         DG    S(hbond)    S(metal)    S(lipo)     H(rot)  DE(clash)    DE(int)     intcor
     19.94     -21.12       3.37        0.00      59.34       1.00       0.97       0.20       ----

> <Gold.Chemscore.Fitness>
19.9421

> <Gold.Chemscore.DG>
-21.1198

> <Gold.Chemscore.ZeroCoef>
-5.4800

> <Gold.Chemscore.Hbond>
3.3703

> <Gold.Chemscore.Metal>
0.0000

> <Gold.Chemscore.Lipo>
59.3424

> <Gold.Chemscore.Internal_Hbond>
0.0000

> <Gold.Chemscore.DEClash>
0.9740

> <Gold.Chemscore.DEInternal>
0.2036

> <Gold.Chemscore.Rot>
1.0000

> <Gold.Chemscore.Internal.Correction>
   9.000000E+99

> <Gold.Chemscore.Hbonds>
donor molecule, donor type, donor heavy atom, donor atom, acceptor molecule, acceptor atom, score
      L1  H     1    15       P1  7948  0.96
      L1  H    11    28       P1  8028  0.21
      P1  H  7997  8009       L1    13  0.28
      P1  H 10752 10763       L1     3  0.50

> <Gold.Chemscore.Hbond.Weighted>
-11.2567

> <Gold.Chemscore.Metal.Weighted>
-0.0000

> <Gold.Chemscore.Lipo.Weighted>
-6.9431

> <Gold.Chemscore.Internal_Hbond.Weighted>
0.0000

> <Gold.Chemscore.DEClash.Weighted>
0.9740

> <Gold.Chemscore.DEInternal.Weighted>
0.2036

> <Gold.Chemscore.Rot.Weighted>
2.5600

> <Gold.Chemscore.Internal.Correction.Weighted>
   9.000000E+99

> <Gold.Protein.RotatedTorsions>
[ 6907 6896 6895 6894 ] final  166.38 input  -60.11 | X-H torsion
[ 7974 7965 7964 7962 ] final   29.96 input  175.53 | X-H torsion
[ 8008 7997 7996 7995 ] final  169.49 input   59.86 | X-H torsion
[ 10167 10162 10161 10158 ] final   35.35 input  -65.29 | X-H torsion
[ 10718 10713 10712 10709 ] final   82.34 input   66.30 | X-H torsion
[ 10763 10752 10751 10750 ] final   24.50 input  -60.55 | X-H torsion
[ 11005 11000 10999 10996 ] final -136.80 input  -57.11 | X-H torsion

> <Gold.Protein.ActiveResidues>
 VAL166  LYS551  ARG553  GLY616  TRP617  ASP618  TYR619  PRO620  LYS621  CYS622 
 ASP623  PHE694  ASN695  SER759  ASP760  ASP761  ALA762  ILE779  LEU786  VAL792 
 PHE793  MET794  SER795  GLU796  ALA797  LYS798  CYS799  TRP800  GLU811  SER814 

> <Gold.Protein.RotatedAtoms>
  151.8799  133.3493  159.3762 H   0  0  0  0  0  0  0  0  0  0  0  0  # atno 6907 bound_to 6896
  150.7130  134.5029  159.5579 H   0  0  0  0  0  0  0  0  0  0  0  0  # atno 6908 bound_to 6896
  152.2579  134.8065  160.0486 H   0  0  0  0  0  0  0  0  0  0  0  0  # atno 6909 bound_to 6896
  146.1641  139.6853  142.9013 H   0  0  0  0  0  0  0  0  0  0  0  0  # atno 7974 bound_to 7965
  156.1453  140.1563  156.8857 H   0  0  0  0  0  0  0  0  0  0  0  0  # atno 8008 bound_to 7997
  154.5023  140.0822  156.7860 H   0  0  0  0  0  0  0  0  0  0  0  0  # atno 8009 bound_to 7997
  155.4001  140.3414  155.4258 H   0  0  0  0  0  0  0  0  0  0  0  0  # atno 8010 bound_to 7997
  140.4230  144.1432  150.6150 H   0  0  0  0  0  0  0  0  0  0  0  0  # atno 10167 bound_to 10162
  157.6855  131.0043  150.2360 H   0  0  0  0  0  0  0  0  0  0  0  0  # atno 10718 bound_to 10713
  153.0759  135.6604  154.0146 H   0  0  0  0  0  0  0  0  0  0  0  0  # atno 10763 bound_to 10752
  153.9780  135.2958  155.3424 H   0  0  0  0  0  0  0  0  0  0  0  0  # atno 10764 bound_to 10752
  154.7147  135.5190  153.8791 H   0  0  0  0  0  0  0  0  0  0  0  0  # atno 10765 bound_to 10752
  140.8771  134.1978  157.4615 H   0  0  0  0  0  0  0  0  0  0  0  0  # atno 11005 bound_to 11000
  145.4514  141.0428  143.2802 LP  0  0  0  0  0  0  0  0  0  0  0  0  # atno 17320 bound_to 7965
  144.8067  139.6038  143.7047 LP  0  0  0  0  0  0  0  0  0  0  0  0  # atno 17321 bound_to 7965
  140.4512  143.2486  151.9345 LP  0  0  0  0  0  0  0  0  0  0  0  0  # atno 17342 bound_to 10162
  139.4783  144.5560  151.8313 LP  0  0  0  0  0  0  0  0  0  0  0  0  # atno 17343 bound_to 10162
  156.2984  130.3755  149.7774 LP  0  0  0  0  0  0  0  0  0  0  0  0  # atno 17370 bound_to 10713
  156.5412  130.8300  151.3269 LP  0  0  0  0  0  0  0  0  0  0  0  0  # atno 17371 bound_to 10713
  139.8716  134.9800  156.5061 LP  0  0  0  0  0  0  0  0  0  0  0  0  # atno 17394 bound_to 11000
  140.8505  133.8135  155.9164 LP  0  0  0  0  0  0  0  0  0  0  0  0  # atno 17395 bound_to 11000

$$$$
