AV-unprocessed.smi:287|AV-procd|sdf|2186|dock3
  -GOLD-   2262021563D 1   1.00000     0.00000
 Structure written by MMmdl.
 55 58  0  0  0  0  0  0  0  0  1 V2000
  151.4734  142.4479  158.4168 C   0  0  0  0  0  0  0  0  0  0  0  0
  150.4720  141.9761  157.4192 C   0  0  0  0  0  0  0  0  0  0  0  0
  150.5664  141.3916  156.1902 C   0  0  0  0  0  0  0  0  0  0  0  0
  149.2376  141.1576  155.7256 C   0  0  0  0  0  0  0  0  0  0  0  0
  148.8563  140.5110  154.4003 C   0  0  2  0  0  0  0  0  0  0  0  0
  149.3228  139.0460  154.3800 C   0  0  0  0  0  0  0  0  0  0  0  0
  149.4856  141.1203  153.2896 O   0  0  0  0  0  0  0  0  0  0  0  0
  147.3373  140.5913  154.1246 C   0  0  0  0  0  0  0  0  0  0  0  0
  146.9152  139.7178  153.0344 N   0  0  0  0  0  0  0  0  0  0  0  0
  146.3079  138.5429  153.2992 C   0  0  0  0  0  0  0  0  0  0  0  0
  145.8989  138.2327  154.5570 N   0  0  0  0  0  0  0  0  0  0  0  0
  145.2929  137.0649  154.7916 C   0  0  0  0  0  0  0  0  0  0  0  0
  145.0037  136.0872  153.9299 N   0  0  0  0  0  0  0  0  0  0  0  0
  145.4161  136.3933  152.6658 C   0  0  0  0  0  0  0  0  0  0  0  0
  146.0720  137.5928  152.2729 C   0  0  0  0  0  0  0  0  0  0  0  0
  146.3402  137.5594  150.9109 N   0  0  0  0  0  0  0  0  0  0  0  0
  145.8651  136.4060  150.5245 C   0  0  0  0  0  0  0  0  0  0  0  0
  145.2932  135.6400  151.5161 N   0  0  0  0  0  0  0  0  0  0  0  0
  144.6632  134.2931  151.3779 C   0  0  2  0  0  0  0  0  0  0  0  0
  145.3463  133.4105  152.2097 O   0  0  0  0  0  0  0  0  0  0  0  0
  145.3528  132.1298  151.5993 C   0  0  2  0  0  0  0  0  0  0  0  0
  146.4051  131.2126  152.2474 C   0  0  0  0  0  0  0  0  0  0  0  0
  146.6676  130.1041  151.4133 O   0  0  0  0  0  0  0  0  0  0  0  0
  145.5180  132.4425  150.1036 C   0  0  2  0  0  0  0  0  0  0  0  0
  146.8793  132.5925  149.7480 O   0  0  0  0  0  0  0  0  0  0  0  0
  144.7736  133.7667  149.9342 C   0  0  1  0  0  0  0  0  0  0  0  0
  143.4940  133.5182  149.3870 O   0  0  0  0  0  0  0  0  0  0  0  0
  148.4271  141.6436  156.7235 C   0  0  0  0  0  0  0  0  0  0  0  0
  146.9483  141.7370  156.9069 C   0  0  0  0  0  0  0  0  0  0  0  0
  149.1677  142.1385  157.7545 O   0  0  0  0  0  0  0  0  0  0  0  0
  143.6354  134.4219  151.7217 H   0  0  0  0  0  0  0  0  0  0  0  0
  144.3613  131.7013  151.7589 H   0  0  0  0  0  0  0  0  0  0  0  0
  145.1049  131.6451  149.4843 H   0  0  0  0  0  0  0  0  0  0  0  0
  145.3089  134.4688  149.2925 H   0  0  0  0  0  0  0  0  0  0  0  0
  152.4822  142.1575  158.1225 H   0  0  0  0  0  0  0  0  0  0  0  0
  151.2725  142.0198  159.3990 H   0  0  0  0  0  0  0  0  0  0  0  0
  151.4465  143.5337  158.5077 H   0  0  0  0  0  0  0  0  0  0  0  0
  151.4876  141.1482  155.6818 H   0  0  0  0  0  0  0  0  0  0  0  0
  148.8634  138.4732  155.1864 H   0  0  0  0  0  0  0  0  0  0  0  0
  150.4044  138.9721  154.5013 H   0  0  0  0  0  0  0  0  0  0  0  0
  149.0610  138.5556  153.4415 H   0  0  0  0  0  0  0  0  0  0  0  0
  149.7296  140.4445  152.6760 H   0  0  0  0  0  0  0  0  0  0  0  0
  146.7630  140.3780  155.0275 H   0  0  0  0  0  0  0  0  0  0  0  0
  147.0916  141.6137  153.8331 H   0  0  0  0  0  0  0  0  0  0  0  0
  147.0298  140.0883  152.1015 H   0  0  0  0  0  0  0  0  0  0  0  0
  144.9970  136.8891  155.8152 H   0  0  0  0  0  0  0  0  0  0  0  0
  145.9196  136.0807  149.4959 H   0  0  0  0  0  0  0  0  0  0  0  0
  147.3318  131.7464  152.4586 H   0  0  0  0  0  0  0  0  0  0  0  0
  146.0329  130.8395  153.2017 H   0  0  0  0  0  0  0  0  0  0  0  0
  147.3367  130.3473  150.7919 H   0  0  0  0  0  0  0  0  0  0  0  0
  147.3330  131.7898  149.9594 H   0  0  0  0  0  0  0  0  0  0  0  0
  142.8693  134.0815  149.8175 H   0  0  0  0  0  0  0  0  0  0  0  0
  146.4886  142.2692  156.0741 H   0  0  0  0  0  0  0  0  0  0  0  0
  146.6963  142.2695  157.8244 H   0  0  0  0  0  0  0  0  0  0  0  0
  146.5033  140.7435  156.9626 H   0  0  0  0  0  0  0  0  0  0  0  0
  1  2  1  0  0  0  0
  1 35  1  0  0  0  0
  1 36  1  0  0  0  0
  1 37  1  0  0  0  0
  2 30  1  0  0  0  0
  2  3  2  0  0  0  0
  3  4  1  0  0  0  0
  3 38  1  0  0  0  0
  4  5  1  0  0  0  0
  4 28  2  0  0  0  0
  5  6  1  0  0  0  0
  5  7  1  0  0  0  0
  5  8  1  0  0  0  0
  6 39  1  0  0  0  0
  6 40  1  0  0  0  0
  6 41  1  0  0  0  0
  7 42  1  0  0  0  0
  8  9  1  0  0  0  0
  8 43  1  0  0  0  0
  8 44  1  0  0  0  0
  9 10  1  0  0  0  0
  9 45  1  0  0  0  0
 10 15  1  0  0  0  0
 10 11  2  0  0  0  0
 11 12  1  0  0  0  0
 12 13  2  0  0  0  0
 12 46  1  0  0  0  0
 13 14  1  0  0  0  0
 14 18  1  0  0  0  0
 14 15  2  0  0  0  0
 15 16  1  0  0  0  0
 16 17  2  0  0  0  0
 17 18  1  0  0  0  0
 17 47  1  0  0  0  0
 18 19  1  0  0  0  0
 19 31  1  0  0  0  0
 19 26  1  0  0  0  0
 19 20  1  0  0  0  0
 20 21  1  0  0  0  0
 21 32  1  0  0  0  0
 21 22  1  0  0  0  0
 21 24  1  0  0  0  0
 22 23  1  0  0  0  0
 22 48  1  0  0  0  0
 22 49  1  0  0  0  0
 23 50  1  0  0  0  0
 24 33  1  0  0  0  0
 24 25  1  0  0  0  0
 24 26  1  0  0  0  0
 25 51  1  0  0  0  0
 26 34  1  0  0  0  0
 26 27  1  0  0  0  0
 27 52  1  0  0  0  0
 28 29  1  0  0  0  0
 28 30  1  0  0  0  0
 29 53  1  0  0  0  0
 29 54  1  0  0  0  0
 29 55  1  0  0  0  0
M  END
> <s_m_source_file>
AV-unprocessed.smi

> <i_m_source_file_index>
287

> <i_lp_mmshare_version>
43012

> <i_f3d_flags>
0

> <s_epik_input>
W0NIM11jMVtjSF1jKGMobzEpW0NIM10pW0NAQF0oW0NIM10pKFtPSF0pW0NIMl1bTkhdYyhuW2NIXW4yKWMoYzIzKW5bY0hdbjNbQ0BASF00T1tDQEhdKFtDSDJdW09IXSlbQ0BASF0oW09IXSlbQ0BIXTRbT0hd

> <s_epik_cmdline>
J2VwaWtfcHl0aG9uJywgJy1waCcsICc3LjAnLCAnLXRuJywgJzgnLCAnLW1hJywgJzIwMCcsICctbWV0YWxfYmluZGluZycsICctaW1hZScsICc8aW5maWxlLm1hZT4nLCAnLW9tYWUnLCAnPG91dGZpbGUubWFlPic=

> <r_lp_tautomer_probability>
1

> <r_epik_Ionization_Penalty>
0.000992612

> <r_epik_Ionization_Penalty_Charging>
0

> <r_epik_Ionization_Penalty_Neutral>
0.000992612

> <r_epik_State_Penalty>
-0

> <r_epik_Charging_Adjusted_Penalty>
0

> <i_epik_Tot_Q>
0

> <i_epik_Tot_abs_Q>
0

> <r_epik_Metal_State_Penalty>
-0

> <b_epik_Metal_Only>
0

> <s_epik_Chemistry_Notes>
This compound contains an acetal/aminal-like group ( X-CH(R)-Y where X, Y are N, S, or O) that may be acid/base labile, releasing an aldehyde.

> <s_lp_Force_Field>
OPLS_2005

> <r_lp_Energy>
38.0531

> <b_lp_Chiralities_Consistent>
1

> <s_lp_Variant>
AV-unprocessed.smi:287-10

> <Gold.Version>
5.8.1

> <Gold.Id.Protein>
6NUR|6NUR_protein|mol2

> <Gold.PLP.Fitness>
61.0417

> <Gold.PLP.PLP>
-42.8979

> <Gold.PLP.part.hbond>
-8.0638

> <Gold.PLP.part.metal>
0.0000

> <Gold.PLP.part.buried>
-3.0870

> <Gold.PLP.part.nonpolar>
-34.5220

> <Gold.PLP.part.repulsive>
2.8410

> <Gold.PLP.ligand.clash>
0.0000

> <Gold.PLP.ligand.torsion>
0.5522

> <Gold.PLP.Chemscore.Hbond>
5.3675

> <Gold.PLP.Chemscore.CHOScore>
1.0000

> <Gold.PLP.Chemscore.Metal>
0.0000

> <Gold.Chemscore.Hbonds>
donor molecule, donor type, donor heavy atom, donor atom, acceptor molecule, acceptor atom, score
      L1  H     7    42       P1  7957  0.83
      L1  H    23    50       P1 10747  1.00
      L1  H    25    51       P1 10747  0.98
      L1  H    27    52       P1 10186  0.67
      P1  H  7954  7966       L1    16  0.81
      P1  H  8011  8017       L1     7  0.85
      L1  C    17    47       P1  7921  1.00

> <Gold.PLP.Chemscore.Internal.Correction>
0.1457

> <Gold.Rescore>
     Score         DG    S(hbond)    S(metal)    S(lipo)     H(rot)  DE(clash)    DE(int)     intcor
     12.99     -17.55       4.42        0.00      92.28       5.27       2.71       1.84       ----

> <Gold.Chemscore.Fitness>
12.9937

> <Gold.Chemscore.DG>
-17.5484

> <Gold.Chemscore.ZeroCoef>
-5.4800

> <Gold.Chemscore.Hbond>
4.4177

> <Gold.Chemscore.Metal>
0.0000

> <Gold.Chemscore.Lipo>
92.2849

> <Gold.Chemscore.Internal_Hbond>
0.0000

> <Gold.Chemscore.DEClash>
2.7122

> <Gold.Chemscore.DEInternal>
1.8425

> <Gold.Chemscore.Rot>
5.2672

> <Gold.Chemscore.Internal.Correction>
   9.000000E+99

> <Gold.Chemscore.Hbonds>
donor molecule, donor type, donor heavy atom, donor atom, acceptor molecule, acceptor atom, score
      L1  H     7    42       P1  7957  0.80
      L1  H    23    50       P1 10747  0.99
      L1  H    25    51       P1 10747  0.93
      L1  H    27    52       P1 10186  0.68
      P1  H  7954  7966       L1    16  0.48
      P1  H  8011  8017       L1     7  0.14

> <Gold.Chemscore.Hbond.Weighted>
-14.7550

> <Gold.Chemscore.Metal.Weighted>
-0.0000

> <Gold.Chemscore.Lipo.Weighted>
-10.7973

> <Gold.Chemscore.Internal_Hbond.Weighted>
0.0000

> <Gold.Chemscore.DEClash.Weighted>
2.7122

> <Gold.Chemscore.DEInternal.Weighted>
1.8425

> <Gold.Chemscore.Rot.Weighted>
13.4839

> <Gold.Chemscore.Internal.Correction.Weighted>
   9.000000E+99

> <Gold.Protein.RotatedTorsions>
[ 6907 6896 6895 6894 ] final -108.78 input  -60.11 | X-H torsion
[ 7974 7965 7964 7962 ] final -124.28 input  175.53 | X-H torsion
[ 8008 7997 7996 7995 ] final   89.37 input   59.86 | X-H torsion
[ 10167 10162 10161 10158 ] final  158.96 input  -65.29 | X-H torsion
[ 10718 10713 10712 10709 ] final -124.79 input   66.30 | X-H torsion
[ 10763 10752 10751 10750 ] final  -34.33 input  -60.55 | X-H torsion
[ 11005 11000 10999 10996 ] final   32.23 input  -57.11 | X-H torsion

> <Gold.Protein.ActiveResidues>
 VAL166  LYS551  ARG553  GLY616  TRP617  ASP618  TYR619  PRO620  LYS621  CYS622 
 ASP623  PHE694  ASN695  SER759  ASP760  ASP761  ALA762  ILE779  LEU786  VAL792 
 PHE793  MET794  SER795  GLU796  ALA797  LYS798  CYS799  TRP800  GLU811  SER814 

> <Gold.Protein.RotatedAtoms>
  150.7522  133.9627  159.3520 H   0  0  0  0  0  0  0  0  0  0  0  0  # atno 6907 bound_to 6896
  151.7554  135.0821  160.0347 H   0  0  0  0  0  0  0  0  0  0  0  0  # atno 6908 bound_to 6896
  152.3438  133.6061  159.5932 H   0  0  0  0  0  0  0  0  0  0  0  0  # atno 6909 bound_to 6896
  145.0098  140.7895  143.4446 H   0  0  0  0  0  0  0  0  0  0  0  0  # atno 7974 bound_to 7965
  155.9991  140.3361  155.6828 H   0  0  0  0  0  0  0  0  0  0  0  0  # atno 8008 bound_to 7997
  155.6315  140.0685  157.2665 H   0  0  0  0  0  0  0  0  0  0  0  0  # atno 8009 bound_to 7997
  154.4243  140.1759  156.1465 H   0  0  0  0  0  0  0  0  0  0  0  0  # atno 8010 bound_to 7997
  139.4829  144.4775  151.8491 H   0  0  0  0  0  0  0  0  0  0  0  0  # atno 10167 bound_to 10162
  156.1618  130.6607  151.0061 H   0  0  0  0  0  0  0  0  0  0  0  0  # atno 10718 bound_to 10713
  153.8450  135.6854  153.4798 H   0  0  0  0  0  0  0  0  0  0  0  0  # atno 10763 bound_to 10752
  153.1431  135.4649  154.9523 H   0  0  0  0  0  0  0  0  0  0  0  0  # atno 10764 bound_to 10752
  154.7828  135.3274  154.7900 H   0  0  0  0  0  0  0  0  0  0  0  0  # atno 10765 bound_to 10752
  140.2756  134.3032  155.7815 H   0  0  0  0  0  0  0  0  0  0  0  0  # atno 11005 bound_to 11000
  145.2039  139.2238  143.5178 LP  0  0  0  0  0  0  0  0  0  0  0  0  # atno 17320 bound_to 7965
  146.3468  140.1862  142.8589 LP  0  0  0  0  0  0  0  0  0  0  0  0  # atno 17321 bound_to 7965
  140.4248  144.2194  150.5887 LP  0  0  0  0  0  0  0  0  0  0  0  0  # atno 17342 bound_to 10162
  140.4838  143.2370  151.8918 LP  0  0  0  0  0  0  0  0  0  0  0  0  # atno 17343 bound_to 10162
  157.6738  131.0855  150.7545 LP  0  0  0  0  0  0  0  0  0  0  0  0  # atno 17370 bound_to 10713
  156.7607  130.4798  149.5437 LP  0  0  0  0  0  0  0  0  0  0  0  0  # atno 17371 bound_to 10713
  141.2171  133.7493  156.9402 LP  0  0  0  0  0  0  0  0  0  0  0  0  # atno 17394 bound_to 11000
  140.1332  134.9342  157.2365 LP  0  0  0  0  0  0  0  0  0  0  0  0  # atno 17395 bound_to 11000

$$$$
