AV-unprocessed.smi:1868|AV-procd|sdf|7584|dock5
  -GOLD-   22720 9293D 1   1.00000     0.00000
 Structure written by MMmdl.
 47 49  0  0  0  0  0  0  0  0  2 V2000
  152.5929  137.8870  155.7297 C   0  0  0  0  0  0  0  0  0  0  0  0
  152.1865  139.1342  156.4486 C   0  0  0  0  0  0  0  0  0  0  0  0
  152.6286  139.4236  157.6722 N   0  0  0  0  0  0  0  0  0  0  0  0
  152.0242  140.6376  157.9345 C   0  0  0  0  0  0  0  0  0  0  0  0
  152.0921  141.4706  159.0739 C   0  0  0  0  0  0  0  0  0  0  0  0
  151.3730  142.6830  159.1157 C   0  0  0  0  0  0  0  0  0  0  0  0
  150.5777  143.0794  158.0212 C   0  0  0  0  0  0  0  0  0  0  0  0
  150.4961  142.2646  156.8757 C   0  0  0  0  0  0  0  0  0  0  0  0
  151.2155  141.0548  156.8392 C   0  0  0  0  0  0  0  0  0  0  0  0
  151.3440  140.0404  155.8942 N   0  0  0  0  0  0  0  0  0  0  0  0
  150.7023  139.9859  154.5878 C   0  0  0  0  0  0  0  0  0  0  0  0
  149.4802  139.0450  154.5550 C   0  0  2  0  0  0  0  0  0  0  0  0
  149.9248  137.7821  154.1034 O   0  0  0  0  0  0  0  0  0  0  0  0
  148.3480  139.5305  153.6229 C   0  0  0  0  0  0  0  0  0  0  0  0
  147.5375  138.4121  153.0778 N   0  3  2  0  0  0  0  0  0  0  0  0
  146.6706  138.8434  151.9514 C   0  0  0  0  0  0  0  0  0  0  0  0
  145.9511  137.6436  151.3128 C   0  0  0  0  0  0  0  0  0  0  0  0
  145.1271  136.8671  152.3534 C   0  0  1  0  0  0  0  0  0  0  0  0
  144.4315  135.6479  151.7320 C   0  0  0  0  0  0  0  0  0  0  0  0
  146.0396  136.4669  153.5250 C   0  0  0  0  0  0  0  0  0  0  0  0
  146.7579  137.6903  154.1186 C   0  0  0  0  0  0  0  0  0  0  0  0
  153.3052  137.3174  156.3277 H   0  0  0  0  0  0  0  0  0  0  0  0
  153.0670  138.1335  154.7796 H   0  0  0  0  0  0  0  0  0  0  0  0
  151.7247  137.2562  155.5416 H   0  0  0  0  0  0  0  0  0  0  0  0
  152.6987  141.1761  159.9176 H   0  0  0  0  0  0  0  0  0  0  0  0
  151.4326  143.3122  159.9918 H   0  0  0  0  0  0  0  0  0  0  0  0
  150.0308  144.0101  158.0616 H   0  0  0  0  0  0  0  0  0  0  0  0
  149.8869  142.5673  156.0373 H   0  0  0  0  0  0  0  0  0  0  0  0
  150.4043  140.9979  154.3103 H   0  0  0  0  0  0  0  0  0  0  0  0
  151.4409  139.6781  153.8469 H   0  0  0  0  0  0  0  0  0  0  0  0
  149.1085  138.9221  155.5708 H   0  0  0  0  0  0  0  0  0  0  0  0
  149.4360  137.5489  153.3282 H   0  0  0  0  0  0  0  0  0  0  0  0
  147.6795  140.2213  154.1376 H   0  0  0  0  0  0  0  0  0  0  0  0
  148.7979  140.0967  152.8057 H   0  0  0  0  0  0  0  0  0  0  0  0
  145.9433  139.5743  152.3092 H   0  0  0  0  0  0  0  0  0  0  0  0
  147.2739  139.3411  151.1913 H   0  0  0  0  0  0  0  0  0  0  0  0
  145.3035  137.9915  150.5071 H   0  0  0  0  0  0  0  0  0  0  0  0
  146.6863  136.9816  150.8531 H   0  0  0  0  0  0  0  0  0  0  0  0
  144.3515  137.5316  152.7376 H   0  0  0  0  0  0  0  0  0  0  0  0
  145.1560  134.9417  151.3246 H   0  0  0  0  0  0  0  0  0  0  0  0
  143.7660  135.9465  150.9215 H   0  0  0  0  0  0  0  0  0  0  0  0
  143.8314  135.1185  152.4726 H   0  0  0  0  0  0  0  0  0  0  0  0
  145.4541  135.9741  154.3021 H   0  0  0  0  0  0  0  0  0  0  0  0
  146.7795  135.7390  153.1880 H   0  0  0  0  0  0  0  0  0  0  0  0
  147.4125  137.3577  154.9233 H   0  0  0  0  0  0  0  0  0  0  0  0
  146.0307  138.3695  154.5667 H   0  0  0  0  0  0  0  0  0  0  0  0
  148.1962  137.7526  152.6881 H   0  0  0  0  0  0  0  0  0  0  0  0
  1  2  1  0  0  0  0
  1 22  1  0  0  0  0
  1 23  1  0  0  0  0
  1 24  1  0  0  0  0
  2 10  1  0  0  0  0
  2  3  2  0  0  0  0
  3  4  1  0  0  0  0
  4  9  2  0  0  0  0
  4  5  1  0  0  0  0
  5  6  2  0  0  0  0
  5 25  1  0  0  0  0
  6  7  1  0  0  0  0
  6 26  1  0  0  0  0
  7  8  2  0  0  0  0
  7 27  1  0  0  0  0
  8  9  1  0  0  0  0
  8 28  1  0  0  0  0
  9 10  1  0  0  0  0
 10 11  1  0  0  0  0
 11 12  1  0  0  0  0
 11 29  1  0  0  0  0
 11 30  1  0  0  0  0
 12 13  1  0  0  0  0
 12 14  1  0  0  0  0
 12 31  1  0  0  0  0
 13 32  1  0  0  0  0
 14 15  1  0  0  0  0
 14 33  1  0  0  0  0
 14 34  1  0  0  0  0
 15 21  1  0  0  0  0
 15 16  1  0  0  0  0
 15 47  1  0  0  0  0
 16 17  1  0  0  0  0
 16 35  1  0  0  0  0
 16 36  1  0  0  0  0
 17 18  1  0  0  0  0
 17 37  1  0  0  0  0
 17 38  1  0  0  0  0
 18 19  1  0  0  0  0
 18 20  1  0  0  0  0
 18 39  1  0  0  0  0
 19 40  1  0  0  0  0
 19 41  1  0  0  0  0
 19 42  1  0  0  0  0
 20 21  1  0  0  0  0
 20 43  1  0  0  0  0
 20 44  1  0  0  0  0
 21 45  1  0  0  0  0
 21 46  1  0  0  0  0
M  CHG  1  15   1
M  END
> <s_m_source_file>
AV-unprocessed.smi

> <i_m_source_file_index>
1868

> <i_lp_mmshare_version>
43012

> <i_f3d_flags>
0

> <s_epik_input>
W2NIXTFbY0hdW2NIXVtjSF1jKGMxMiluKGMobjIpW0NIM10pW0NIMl1bQ0BIXShbT0hdKVtDSDJdTjNbQ0gyXVtDSDJdW0NIXShbQ0gzXSlbQ0gyXVtDSDJdMw==

> <s_epik_cmdline>
J2VwaWtfcHl0aG9uJywgJy1waCcsICc3LjAnLCAnLXRuJywgJzgnLCAnLW1hJywgJzIwMCcsICctbWV0YWxfYmluZGluZycsICctaW1hZScsICc8aW5maWxlLm1hZT4nLCAnLW9tYWUnLCAnPG91dGZpbGUubWFlPic=

> <r_epik_Ionization_Penalty>
0.101157

> <r_epik_Ionization_Penalty_Charging>
0.00181365

> <r_epik_Ionization_Penalty_Neutral>
0.0993436

> <r_epik_State_Penalty>
0.0871902

> <r_epik_Charging_Adjusted_Penalty>
0.0890039

> <i_epik_Tot_Q>
1

> <i_epik_Tot_abs_Q>
1

> <r_epik_Metal_State_Penalty>
9.24346e-05

> <b_epik_Metal_Only>
0

> <s_lp_Force_Field>
OPLS_2005

> <r_lp_Energy>
22.6133

> <b_lp_Chiralities_Consistent>
1

> <s_lp_Variant>
AV-unprocessed.smi:1868-1

> <Gold.Version>
5.8.1

> <Gold.Id.Protein>
6NUR|6NUR_protein|mol2

> <Gold.PLP.Fitness>
43.6505

> <Gold.PLP.PLP>
-34.0412

> <Gold.PLP.part.hbond>
-3.8440

> <Gold.PLP.part.metal>
0.0000

> <Gold.PLP.part.buried>
9.4070

> <Gold.PLP.part.nonpolar>
-39.8013

> <Gold.PLP.part.repulsive>
0.0461

> <Gold.PLP.ligand.clash>
0.0000

> <Gold.PLP.ligand.torsion>
1.0985

> <Gold.PLP.Chemscore.Hbond>
3.9272

> <Gold.PLP.Chemscore.CHOScore>
0.0000

> <Gold.PLP.Chemscore.Metal>
0.0000

> <Gold.Chemscore.Hbonds>
donor molecule, donor type, donor heavy atom, donor atom, acceptor molecule, acceptor atom, score
      L1  H    13    32       P1  7948  1.00
      L1  H    15    47       P1  7948  2.00
      P1  H  7997  8009       L1     3  0.47

> <Gold.PLP.Chemscore.Internal.Correction>
0.0247

> <Gold.Rescore>
     Score         DG    S(hbond)    S(metal)    S(lipo)     H(rot)  DE(clash)    DE(int)     intcor
     14.54     -19.67       1.83        0.00     111.12       1.92       4.03       1.10       ----

> <Gold.Chemscore.Fitness>
14.5428

> <Gold.Chemscore.DG>
-19.6724

> <Gold.Chemscore.ZeroCoef>
-5.4800

> <Gold.Chemscore.Hbond>
1.8283

> <Gold.Chemscore.Metal>
0.0000

> <Gold.Chemscore.Lipo>
111.1154

> <Gold.Chemscore.Internal_Hbond>
0.0000

> <Gold.Chemscore.DEClash>
4.0304

> <Gold.Chemscore.DEInternal>
1.0993

> <Gold.Chemscore.Rot>
1.9198

> <Gold.Chemscore.Internal.Correction>
   9.000000E+99

> <Gold.Chemscore.Hbonds>
donor molecule, donor type, donor heavy atom, donor atom, acceptor molecule, acceptor atom, score
      L1  H    13    32       P1  7948  0.86
      L1  H    15    47       P1  7948  1.00
      P1  H  7997  8009       L1     3  0.03

> <Gold.Chemscore.Hbond.Weighted>
-6.1067

> <Gold.Chemscore.Metal.Weighted>
-0.0000

> <Gold.Chemscore.Lipo.Weighted>
-13.0005

> <Gold.Chemscore.Internal_Hbond.Weighted>
0.0000

> <Gold.Chemscore.DEClash.Weighted>
4.0304

> <Gold.Chemscore.DEInternal.Weighted>
1.0993

> <Gold.Chemscore.Rot.Weighted>
4.9147

> <Gold.Chemscore.Internal.Correction.Weighted>
   9.000000E+99

> <Gold.Protein.RotatedTorsions>
[ 6907 6896 6895 6894 ] final  176.46 input  -60.11 | X-H torsion
[ 7974 7965 7964 7962 ] final -151.32 input  175.53 | X-H torsion
[ 8008 7997 7996 7995 ] final  147.43 input   59.86 | X-H torsion
[ 10167 10162 10161 10158 ] final   84.58 input  -65.29 | X-H torsion
[ 10718 10713 10712 10709 ] final  127.45 input   66.30 | X-H torsion
[ 10763 10752 10751 10750 ] final   90.06 input  -60.55 | X-H torsion
[ 11005 11000 10999 10996 ] final  113.55 input  -57.11 | X-H torsion

> <Gold.Protein.ActiveResidues>
 VAL166  LYS551  ARG553  GLY616  TRP617  ASP618  TYR619  PRO620  LYS621  CYS622 
 ASP623  PHE694  ASN695  SER759  ASP760  ASP761  ALA762  ILE779  LEU786  VAL792 
 PHE793  MET794  SER795  GLU796  ALA797  LYS798  CYS799  TRP800  GLU811  SER814 

> <Gold.Protein.RotatedAtoms>
  151.7198  133.3314  159.3312 H   0  0  0  0  0  0  0  0  0  0  0  0  # atno 6907 bound_to 6896
  150.7657  134.6458  159.6271 H   0  0  0  0  0  0  0  0  0  0  0  0  # atno 6908 bound_to 6896
  152.3659  134.6808  160.0244 H   0  0  0  0  0  0  0  0  0  0  0  0  # atno 6909 bound_to 6896
  144.7857  140.4814  143.5808 H   0  0  0  0  0  0  0  0  0  0  0  0  # atno 7974 bound_to 7965
  156.2825  140.2156  156.5536 H   0  0  0  0  0  0  0  0  0  0  0  0  # atno 8008 bound_to 7997
  154.7271  140.0498  157.0715 H   0  0  0  0  0  0  0  0  0  0  0  0  # atno 8009 bound_to 7997
  155.0402  140.3145  155.4730 H   0  0  0  0  0  0  0  0  0  0  0  0  # atno 8010 bound_to 7997
  139.9066  144.6297  150.8581 H   0  0  0  0  0  0  0  0  0  0  0  0  # atno 10167 bound_to 10162
  157.5331  131.1098  150.8977 H   0  0  0  0  0  0  0  0  0  0  0  0  # atno 10718 bound_to 10713
  153.1935  135.4448  155.0179 H   0  0  0  0  0  0  0  0  0  0  0  0  # atno 10763 bound_to 10752
  154.8105  135.3292  154.7321 H   0  0  0  0  0  0  0  0  0  0  0  0  # atno 10764 bound_to 10752
  153.7772  135.6980  153.4950 H   0  0  0  0  0  0  0  0  0  0  0  0  # atno 10765 bound_to 10752
  139.8956  134.9552  156.6755 H   0  0  0  0  0  0  0  0  0  0  0  0  # atno 11005 bound_to 11000
  145.5929  139.1497  143.3172 LP  0  0  0  0  0  0  0  0  0  0  0  0  # atno 17320 bound_to 7965
  146.2087  140.6054  142.9069 LP  0  0  0  0  0  0  0  0  0  0  0  0  # atno 17321 bound_to 7965
  140.7695  143.3397  151.2234 LP  0  0  0  0  0  0  0  0  0  0  0  0  # atno 17342 bound_to 10162
  139.6979  143.9582  152.2891 LP  0  0  0  0  0  0  0  0  0  0  0  0  # atno 17343 bound_to 10162
  156.9553  130.5435  149.5284 LP  0  0  0  0  0  0  0  0  0  0  0  0  # atno 17370 bound_to 10713
  156.0438  130.5517  150.8833 LP  0  0  0  0  0  0  0  0  0  0  0  0  # atno 17371 bound_to 10713
  140.7340  133.9035  155.8231 LP  0  0  0  0  0  0  0  0  0  0  0  0  # atno 17394 bound_to 11000
  141.0131  134.0993  157.4201 LP  0  0  0  0  0  0  0  0  0  0  0  0  # atno 17395 bound_to 11000

$$$$
