AV-unprocessed.smi:1250|AV-procd|sdf|5255|dock10
  -GOLD-   22720 4363D 1   1.00000     0.00000
 Structure written by MMmdl.
 41 42  0  0  0  0  0  0  0  0  1 V2000
  144.9009  141.7510  155.5557 C   0  0  0  0  0  0  0  0  0  0  0  0
  146.2407  142.3902  155.1405 C   0  0  0  0  0  0  0  0  0  0  0  0
  146.0347  143.2262  153.8640 C   0  0  0  0  0  0  0  0  0  0  0  0
  147.3706  141.3384  154.9800 C   0  0  1  0  0  0  0  0  0  0  0  0
  147.4567  140.7491  153.5594 C   0  0  0  0  0  0  0  0  0  0  0  0
  148.6648  141.9276  155.3219 N   0  0  0  0  0  0  0  0  0  0  0  0
  149.5312  141.4404  156.2245 C   0  0  0  0  0  0  0  0  0  0  0  0
  149.3262  140.4212  156.8836 O   0  0  0  0  0  0  0  0  0  0  0  0
  150.8332  142.2203  156.4112 C   0  0  0  0  0  0  0  0  0  0  0  0
  151.6445  141.6213  157.5240 C   0  0  0  0  0  0  0  0  0  0  0  0
  152.2581  140.3918  157.5277 C   0  0  0  0  0  0  0  0  0  0  0  0
  153.0974  140.0837  159.0222 S   0  0  0  0  0  0  0  0  0  0  0  0
  152.5678  141.6644  159.6061 C   0  0  0  0  0  0  0  0  0  0  0  0
  152.8491  142.2294  160.8858 N   0  0  0  0  0  0  0  0  0  0  0  0
  152.2164  143.4651  161.3372 C   0  0  0  0  0  0  0  0  0  0  0  0
  152.5817  143.6081  162.8185 C   0  0  0  0  0  0  0  0  0  0  0  0
  153.7328  142.6307  163.0469 C   0  0  0  0  0  0  0  0  0  0  0  0
  153.7058  141.7528  161.8065 C   0  0  0  0  0  0  0  0  0  0  0  0
  154.4110  140.7489  161.7153 O   0  0  0  0  0  0  0  0  0  0  0  0
  151.8269  142.3326  158.7152 N   0  0  0  0  0  0  0  0  0  0  0  0
  144.5754  141.0087  154.8264 H   0  0  0  0  0  0  0  0  0  0  0  0
  144.1151  142.5026  155.6356 H   0  0  0  0  0  0  0  0  0  0  0  0
  144.9668  141.2585  156.5259 H   0  0  0  0  0  0  0  0  0  0  0  0
  146.5289  143.0784  155.9365 H   0  0  0  0  0  0  0  0  0  0  0  0
  145.8124  142.5908  153.0063 H   0  0  0  0  0  0  0  0  0  0  0  0
  146.9139  143.8224  153.6223 H   0  0  0  0  0  0  0  0  0  0  0  0
  145.2051  143.9242  153.9813 H   0  0  0  0  0  0  0  0  0  0  0  0
  147.1634  140.5216  155.6743 H   0  0  0  0  0  0  0  0  0  0  0  0
  146.5582  140.1921  153.2964 H   0  0  0  0  0  0  0  0  0  0  0  0
  148.2929  140.0544  153.4716 H   0  0  0  0  0  0  0  0  0  0  0  0
  147.5982  141.5314  152.8130 H   0  0  0  0  0  0  0  0  0  0  0  0
  148.9230  142.7703  154.8287 H   0  0  0  0  0  0  0  0  0  0  0  0
  151.3898  142.2223  155.4728 H   0  0  0  0  0  0  0  0  0  0  0  0
  150.5988  143.2626  156.6306 H   0  0  0  0  0  0  0  0  0  0  0  0
  152.2701  139.6530  156.7399 H   0  0  0  0  0  0  0  0  0  0  0  0
  152.6109  144.3021  160.7590 H   0  0  0  0  0  0  0  0  0  0  0  0
  151.1346  143.4365  161.1992 H   0  0  0  0  0  0  0  0  0  0  0  0
  152.8556  144.6327  163.0718 H   0  0  0  0  0  0  0  0  0  0  0  0
  151.7316  143.3307  163.4432 H   0  0  0  0  0  0  0  0  0  0  0  0
  154.6903  143.1493  163.1019 H   0  0  0  0  0  0  0  0  0  0  0  0
  153.5997  142.0426  163.9557 H   0  0  0  0  0  0  0  0  0  0  0  0
  1  2  1  0  0  0  0
  1 21  1  0  0  0  0
  1 22  1  0  0  0  0
  1 23  1  0  0  0  0
  2  3  1  0  0  0  0
  2  4  1  0  0  0  0
  2 24  1  0  0  0  0
  3 25  1  0  0  0  0
  3 26  1  0  0  0  0
  3 27  1  0  0  0  0
  4  5  1  0  0  0  0
  4  6  1  0  0  0  0
  4 28  1  0  0  0  0
  5 29  1  0  0  0  0
  5 30  1  0  0  0  0
  5 31  1  0  0  0  0
  6  7  1  0  0  0  0
  6 32  1  0  0  0  0
  7  8  2  0  0  0  0
  7  9  1  0  0  0  0
  9 10  1  0  0  0  0
  9 33  1  0  0  0  0
  9 34  1  0  0  0  0
 10 20  1  0  0  0  0
 10 11  2  0  0  0  0
 11 12  1  0  0  0  0
 11 35  1  0  0  0  0
 12 13  1  0  0  0  0
 13 14  1  0  0  0  0
 13 20  2  0  0  0  0
 14 18  1  0  0  0  0
 14 15  1  0  0  0  0
 15 16  1  0  0  0  0
 15 36  1  0  0  0  0
 15 37  1  0  0  0  0
 16 17  1  0  0  0  0
 16 38  1  0  0  0  0
 16 39  1  0  0  0  0
 17 18  1  0  0  0  0
 17 40  1  0  0  0  0
 17 41  1  0  0  0  0
 18 19  2  0  0  0  0
M  END
> <s_m_source_file>
AV-unprocessed.smi

> <i_m_source_file_index>
1250

> <i_lp_mmshare_version>
43012

> <i_f3d_flags>
0

> <s_epik_input>
W0NIM11bQ0hdKFtDSDNdKVtDQEhdKFtDSDNdKVtOSF1DKD1PKVtDSDJdYzFbY0hdc2MobjEpTjJbQ0gyXVtDSDJdW0NIMl1DMj1P

> <s_epik_cmdline>
J2VwaWtfcHl0aG9uJywgJy1waCcsICc3LjAnLCAnLXRuJywgJzgnLCAnLW1hJywgJzIwMCcsICctbWV0YWxfYmluZGluZycsICctaW1hZScsICc8aW5maWxlLm1hZT4nLCAnLW9tYWUnLCAnPG91dGZpbGUubWFlPic=

> <r_lp_tautomer_probability>
1

> <r_epik_Ionization_Penalty>
3.03552e-05

> <r_epik_Ionization_Penalty_Charging>
0

> <r_epik_Ionization_Penalty_Neutral>
3.03552e-05

> <r_epik_State_Penalty>
-0

> <r_epik_Charging_Adjusted_Penalty>
0

> <i_epik_Tot_Q>
0

> <i_epik_Tot_abs_Q>
0

> <r_epik_Metal_State_Penalty>
-0

> <b_epik_Metal_Only>
0

> <s_lp_Force_Field>
OPLS_2005

> <r_lp_Energy>
19.4329

> <b_lp_Chiralities_Consistent>
1

> <s_lp_Variant>
AV-unprocessed.smi:1250-2

> <Gold.Version>
5.8.1

> <Gold.Id.Protein>
6NUR|6NUR_protein|mol2

> <Gold.PLP.Fitness>
43.6869

> <Gold.PLP.PLP>
-43.9656

> <Gold.PLP.part.hbond>
-1.0000

> <Gold.PLP.part.metal>
0.0000

> <Gold.PLP.part.buried>
-3.6727

> <Gold.PLP.part.nonpolar>
-39.2585

> <Gold.PLP.part.repulsive>
0.1783

> <Gold.PLP.ligand.clash>
0.0000

> <Gold.PLP.ligand.torsion>
0.8703

> <Gold.PLP.Chemscore.Hbond>
0.4758

> <Gold.PLP.Chemscore.CHOScore>
0.0000

> <Gold.PLP.Chemscore.Metal>
0.0000

> <Gold.Chemscore.Hbonds>
donor molecule, donor type, donor heavy atom, donor atom, acceptor molecule, acceptor atom, score
      L1  H     6    32       P1  8028  0.42

> <Gold.PLP.Chemscore.Internal.Correction>
0.0346

> <Gold.Rescore>
     Score         DG    S(hbond)    S(metal)    S(lipo)     H(rot)  DE(clash)    DE(int)     intcor
     10.29     -13.96       0.56        0.00      90.99       1.58       1.13       2.54       ----

> <Gold.Chemscore.Fitness>
10.2903

> <Gold.Chemscore.DG>
-13.9576

> <Gold.Chemscore.ZeroCoef>
-5.4800

> <Gold.Chemscore.Hbond>
0.5600

> <Gold.Chemscore.Metal>
0.0000

> <Gold.Chemscore.Lipo>
90.9891

> <Gold.Chemscore.Internal_Hbond>
0.0000

> <Gold.Chemscore.DEClash>
1.1311

> <Gold.Chemscore.DEInternal>
2.5362

> <Gold.Chemscore.Rot>
1.5775

> <Gold.Chemscore.Internal.Correction>
   9.000000E+99

> <Gold.Chemscore.Hbonds>
donor molecule, donor type, donor heavy atom, donor atom, acceptor molecule, acceptor atom, score
      L1  H     6    32       P1  8028  0.42

> <Gold.Chemscore.Hbond.Weighted>
-1.8704

> <Gold.Chemscore.Metal.Weighted>
-0.0000

> <Gold.Chemscore.Lipo.Weighted>
-10.6457

> <Gold.Chemscore.Internal_Hbond.Weighted>
0.0000

> <Gold.Chemscore.DEClash.Weighted>
1.1311

> <Gold.Chemscore.DEInternal.Weighted>
2.5362

> <Gold.Chemscore.Rot.Weighted>
4.0385

> <Gold.Chemscore.Internal.Correction.Weighted>
   9.000000E+99

> <Gold.Protein.RotatedTorsions>
[ 6907 6896 6895 6894 ] final  171.49 input  -60.11 | X-H torsion
[ 7974 7965 7964 7962 ] final  141.87 input  175.53 | X-H torsion
[ 8008 7997 7996 7995 ] final  -39.12 input   59.86 | X-H torsion
[ 10167 10162 10161 10158 ] final  -66.12 input  -65.29 | X-H torsion
[ 10718 10713 10712 10709 ] final    9.26 input   66.30 | X-H torsion
[ 10763 10752 10751 10750 ] final    7.48 input  -60.55 | X-H torsion
[ 11005 11000 10999 10996 ] final  115.72 input  -57.11 | X-H torsion

> <Gold.Protein.ActiveResidues>
 VAL166  LYS551  ARG553  GLY616  TRP617  ASP618  TYR619  PRO620  LYS621  CYS622 
 ASP623  PHE694  ASN695  SER759  ASP760  ASP761  ALA762  ILE779  LEU786  VAL792 
 PHE793  MET794  SER795  GLU796  ALA797  LYS798  CYS799  TRP800  GLU811  SER814 

> <Gold.Protein.RotatedAtoms>
  151.7994  133.3368  159.3522 H   0  0  0  0  0  0  0  0  0  0  0  0  # atno 6907 bound_to 6896
  150.7364  134.5768  159.5927 H   0  0  0  0  0  0  0  0  0  0  0  0  # atno 6908 bound_to 6896
  152.3154  134.7448  160.0378 H   0  0  0  0  0  0  0  0  0  0  0  0  # atno 6909 bound_to 6896
  144.9058  139.5360  143.5732 H   0  0  0  0  0  0  0  0  0  0  0  0  # atno 7974 bound_to 7965
  154.4027  140.1560  156.2812 H   0  0  0  0  0  0  0  0  0  0  0  0  # atno 8008 bound_to 7997
  155.8868  140.3441  155.5905 H   0  0  0  0  0  0  0  0  0  0  0  0  # atno 8009 bound_to 7997
  155.7604  140.0817  157.2148 H   0  0  0  0  0  0  0  0  0  0  0  0  # atno 8010 bound_to 7997
  140.5680  143.2316  151.6596 H   0  0  0  0  0  0  0  0  0  0  0  0  # atno 10167 bound_to 10162
  156.9637  130.5942  149.5664 H   0  0  0  0  0  0  0  0  0  0  0  0  # atno 10718 bound_to 10713
  153.2358  135.6898  153.7838 H   0  0  0  0  0  0  0  0  0  0  0  0  # atno 10763 bound_to 10752
  153.6985  135.3301  155.3220 H   0  0  0  0  0  0  0  0  0  0  0  0  # atno 10764 bound_to 10752
  154.8334  135.4562  154.1261 H   0  0  0  0  0  0  0  0  0  0  0  0  # atno 10765 bound_to 10752
  139.9019  134.9588  156.7089 H   0  0  0  0  0  0  0  0  0  0  0  0  # atno 11005 bound_to 11000
  146.3133  139.7824  142.9003 LP  0  0  0  0  0  0  0  0  0  0  0  0  # atno 17320 bound_to 7965
  145.3538  141.0313  143.3323 LP  0  0  0  0  0  0  0  0  0  0  0  0  # atno 17321 bound_to 7965
  139.5103  144.3548  152.0618 LP  0  0  0  0  0  0  0  0  0  0  0  0  # atno 17342 bound_to 10162
  140.2682  144.3993  150.6160 LP  0  0  0  0  0  0  0  0  0  0  0  0  # atno 17343 bound_to 10162
  156.0311  130.5402  150.8537 LP  0  0  0  0  0  0  0  0  0  0  0  0  # atno 17370 bound_to 10713
  157.5640  131.0946  150.9517 LP  0  0  0  0  0  0  0  0  0  0  0  0  # atno 17371 bound_to 10713
  140.7092  133.9238  155.8073 LP  0  0  0  0  0  0  0  0  0  0  0  0  # atno 17394 bound_to 11000
  141.0313  134.0752  157.4010 LP  0  0  0  0  0  0  0  0  0  0  0  0  # atno 17395 bound_to 11000

$$$$
