AV-unprocessed.smi:2637|AV-procd|sdf|10261|dock3
  -GOLD-   2272014273D 1   1.00000     0.00000
 Structure written by MMmdl.
 40 41  0  0  0  0  0  0  0  0  1 V2000
  150.7345  142.0015  156.4016 C   0  0  0  0  0  0  0  0  0  0  0  0
  150.3988  140.8125  155.5504 C   0  0  0  0  0  0  0  0  0  0  0  0
  149.1488  140.4909  154.9458 C   0  0  0  0  0  0  0  0  0  0  0  0
  149.4202  139.3160  154.2993 C   0  0  0  0  0  0  0  0  0  0  0  0
  148.5927  138.5427  153.5470 N   0  0  0  0  0  0  0  0  0  0  0  0
  147.2501  138.4777  153.5706 C   0  0  0  0  0  0  0  0  0  0  0  0
  146.5155  139.1448  154.2994 O   0  0  0  0  0  0  0  0  0  0  0  0
  146.7956  137.5737  152.6904 N   0  0  0  0  0  0  0  0  0  0  0  0
  145.3924  137.2374  152.4676 C   0  0  0  0  0  0  0  0  0  0  0  0
  145.1147  135.7403  152.6879 C   0  0  0  0  0  0  0  0  0  0  0  0
  146.1818  134.8094  152.0807 C   0  0  0  0  0  0  0  0  0  0  0  0
  145.5701  133.6759  151.3805 N   0  0  0  0  0  0  0  0  0  0  0  0
  144.5773  133.7894  150.4871 C   0  0  0  0  0  0  0  0  0  0  0  0
  144.0352  134.8341  150.1276 O   0  0  0  0  0  0  0  0  0  0  0  0
  144.1807  132.4265  149.9355 C   0  0  0  0  0  0  0  0  0  0  0  0
  145.1350  131.4696  150.6571 C   0  0  0  0  0  0  0  0  0  0  0  0
  145.9570  132.4019  151.5366 C   0  0  0  0  0  0  0  0  0  0  0  0
  146.8551  131.9979  152.2750 O   0  0  0  0  0  0  0  0  0  0  0  0
  150.7380  138.9814  154.5192 N   0  0  0  0  0  0  0  0  0  0  0  0
  151.4906  137.8364  154.0447 C   0  0  0  0  0  0  0  0  0  0  0  0
  151.3398  139.9112  155.2920 N   0  0  0  0  0  0  0  0  0  0  0  0
  149.8837  142.6778  156.4869 H   0  0  0  0  0  0  0  0  0  0  0  0
  151.5657  142.5662  155.9784 H   0  0  0  0  0  0  0  0  0  0  0  0
  151.0168  141.6949  157.4090 H   0  0  0  0  0  0  0  0  0  0  0  0
  148.2227  141.0438  154.9921 H   0  0  0  0  0  0  0  0  0  0  0  0
  149.0555  137.9320  152.8902 H   0  0  0  0  0  0  0  0  0  0  0  0
  147.4732  137.0714  152.1354 H   0  0  0  0  0  0  0  0  0  0  0  0
  144.7337  137.8428  153.0926 H   0  0  0  0  0  0  0  0  0  0  0  0
  145.1528  137.4988  151.4367 H   0  0  0  0  0  0  0  0  0  0  0  0
  145.0513  135.5551  153.7610 H   0  0  0  0  0  0  0  0  0  0  0  0
  144.1338  135.4916  152.2804 H   0  0  0  0  0  0  0  0  0  0  0  0
  146.8176  135.3608  151.3868 H   0  0  0  0  0  0  0  0  0  0  0  0
  146.8498  134.4512  152.8660 H   0  0  0  0  0  0  0  0  0  0  0  0
  143.1371  132.2103  150.1665 H   0  0  0  0  0  0  0  0  0  0  0  0
  144.3162  132.3971  148.8537 H   0  0  0  0  0  0  0  0  0  0  0  0
  144.5977  130.7427  151.2670 H   0  0  0  0  0  0  0  0  0  0  0  0
  145.7801  130.9358  149.9586 H   0  0  0  0  0  0  0  0  0  0  0  0
  150.9059  136.9265  154.1833 H   0  0  0  0  0  0  0  0  0  0  0  0
  152.4269  137.7384  154.5958 H   0  0  0  0  0  0  0  0  0  0  0  0
  151.7129  137.9603  152.9844 H   0  0  0  0  0  0  0  0  0  0  0  0
  1  2  1  0  0  0  0
  1 22  1  0  0  0  0
  1 23  1  0  0  0  0
  1 24  1  0  0  0  0
  2 21  2  0  0  0  0
  2  3  1  0  0  0  0
  3  4  2  0  0  0  0
  3 25  1  0  0  0  0
  4  5  1  0  0  0  0
  4 19  1  0  0  0  0
  5  6  1  0  0  0  0
  5 26  1  0  0  0  0
  6  7  2  0  0  0  0
  6  8  1  0  0  0  0
  8  9  1  0  0  0  0
  8 27  1  0  0  0  0
  9 10  1  0  0  0  0
  9 28  1  0  0  0  0
  9 29  1  0  0  0  0
 10 11  1  0  0  0  0
 10 30  1  0  0  0  0
 10 31  1  0  0  0  0
 11 12  1  0  0  0  0
 11 32  1  0  0  0  0
 11 33  1  0  0  0  0
 12 17  1  0  0  0  0
 12 13  1  0  0  0  0
 13 14  2  0  0  0  0
 13 15  1  0  0  0  0
 15 16  1  0  0  0  0
 15 34  1  0  0  0  0
 15 35  1  0  0  0  0
 16 17  1  0  0  0  0
 16 36  1  0  0  0  0
 16 37  1  0  0  0  0
 17 18  2  0  0  0  0
 19 20  1  0  0  0  0
 19 21  1  0  0  0  0
 20 38  1  0  0  0  0
 20 39  1  0  0  0  0
 20 40  1  0  0  0  0
M  END
> <s_m_source_file>
AV-unprocessed.smi

> <i_m_source_file_index>
2637

> <i_lp_mmshare_version>
43012

> <i_f3d_flags>
0

> <s_epik_input>
W0NIM11jMVtjSF1jKG4objEpW0NIM10pW05IXUMoPU8pW05IXVtDSDJdW0NIMl1bQ0gyXU4yQyg9TylbQ0gyXVtDSDJdQzI9Tw==

> <s_epik_cmdline>
J2VwaWtfcHl0aG9uJywgJy1waCcsICc3LjAnLCAnLXRuJywgJzgnLCAnLW1hJywgJzIwMCcsICctbWV0YWxfYmluZGluZycsICctaW1hZScsICc8aW5maWxlLm1hZT4nLCAnLW9tYWUnLCAnPG91dGZpbGUubWFlPic=

> <r_lp_tautomer_probability>
1

> <r_epik_Ionization_Penalty>
9.41646e-05

> <r_epik_Ionization_Penalty_Charging>
0

> <r_epik_Ionization_Penalty_Neutral>
9.41646e-05

> <r_epik_State_Penalty>
-0

> <r_epik_Charging_Adjusted_Penalty>
0

> <i_epik_Tot_Q>
0

> <i_epik_Tot_abs_Q>
0

> <r_epik_Metal_State_Penalty>
-0

> <b_epik_Metal_Only>
0

> <s_lp_Force_Field>
OPLS_2005

> <r_lp_Energy>
13.5658

> <b_lp_Chiralities_Consistent>
1

> <s_lp_Variant>
AV-unprocessed.smi:2637-1

> <Gold.Version>
5.8.1

> <Gold.Id.Protein>
6NUR|6NUR_protein|mol2

> <Gold.PLP.Fitness>
43.2053

> <Gold.PLP.PLP>
-38.3880

> <Gold.PLP.part.hbond>
-4.0000

> <Gold.PLP.part.metal>
0.0000

> <Gold.PLP.part.buried>
-3.6431

> <Gold.PLP.part.nonpolar>
-31.8793

> <Gold.PLP.part.repulsive>
0.8501

> <Gold.PLP.ligand.clash>
0.0000

> <Gold.PLP.ligand.torsion>
0.6280

> <Gold.PLP.Chemscore.Hbond>
2.0035

> <Gold.PLP.Chemscore.CHOScore>
0.0000

> <Gold.PLP.Chemscore.Metal>
0.0000

> <Gold.Chemscore.Hbonds>
donor molecule, donor type, donor heavy atom, donor atom, acceptor molecule, acceptor atom, score
      L1  H     5    26       P1  7948  0.96
      L1  H     8    27       P1  7948  1.00
      P1  H  7989  7998       L1    21  0.08

> <Gold.PLP.Chemscore.Internal.Correction>
0.0629

> <Gold.Rescore>
     Score         DG    S(hbond)    S(metal)    S(lipo)     H(rot)  DE(clash)    DE(int)     intcor
     12.24     -13.85       1.88        0.00      63.17       2.07       0.35       1.27       ----

> <Gold.Chemscore.Fitness>
12.2374

> <Gold.Chemscore.DG>
-13.8517

> <Gold.Chemscore.ZeroCoef>
-5.4800

> <Gold.Chemscore.Hbond>
1.8804

> <Gold.Chemscore.Metal>
0.0000

> <Gold.Chemscore.Lipo>
63.1678

> <Gold.Chemscore.Internal_Hbond>
0.0000

> <Gold.Chemscore.DEClash>
0.3470

> <Gold.Chemscore.DEInternal>
1.2672

> <Gold.Chemscore.Rot>
2.0701

> <Gold.Chemscore.Internal.Correction>
   9.000000E+99

> <Gold.Chemscore.Hbonds>
donor molecule, donor type, donor heavy atom, donor atom, acceptor molecule, acceptor atom, score
      L1  H     5    26       P1  7948  0.91
      L1  H     8    27       P1  7948  0.98

> <Gold.Chemscore.Hbond.Weighted>
-6.2805

> <Gold.Chemscore.Metal.Weighted>
-0.0000

> <Gold.Chemscore.Lipo.Weighted>
-7.3906

> <Gold.Chemscore.Internal_Hbond.Weighted>
0.0000

> <Gold.Chemscore.DEClash.Weighted>
0.3470

> <Gold.Chemscore.DEInternal.Weighted>
1.2672

> <Gold.Chemscore.Rot.Weighted>
5.2995

> <Gold.Chemscore.Internal.Correction.Weighted>
   9.000000E+99

> <Gold.Protein.RotatedTorsions>
[ 6907 6896 6895 6894 ] final -120.79 input  -60.11 | X-H torsion
[ 7974 7965 7964 7962 ] final  162.92 input  175.53 | X-H torsion
[ 8008 7997 7996 7995 ] final  117.57 input   59.86 | X-H torsion
[ 10167 10162 10161 10158 ] final -141.66 input  -65.29 | X-H torsion
[ 10718 10713 10712 10709 ] final  112.29 input   66.30 | X-H torsion
[ 10763 10752 10751 10750 ] final  -20.64 input  -60.55 | X-H torsion
[ 11005 11000 10999 10996 ] final  112.42 input  -57.11 | X-H torsion

> <Gold.Protein.ActiveResidues>
 VAL166  LYS551  ARG553  GLY616  TRP617  ASP618  TYR619  PRO620  LYS621  CYS622 
 ASP623  PHE694  ASN695  SER759  ASP760  ASP761  ALA762  ILE779  LEU786  VAL792 
 PHE793  MET794  SER795  GLU796  ALA797  LYS798  CYS799  TRP800  GLU811  SER814 

> <Gold.Protein.RotatedAtoms>
  150.8425  133.7913  159.3055 H   0  0  0  0  0  0  0  0  0  0  0  0  # atno 6907 bound_to 6896
  151.5610  135.1064  159.9982 H   0  0  0  0  0  0  0  0  0  0  0  0  # atno 6908 bound_to 6896
  152.4486  133.7542  159.6767 H   0  0  0  0  0  0  0  0  0  0  0  0  # atno 6909 bound_to 6896
  144.7614  139.8109  143.6331 H   0  0  0  0  0  0  0  0  0  0  0  0  # atno 7974 bound_to 7965
  156.2501  140.2893  156.0698 H   0  0  0  0  0  0  0  0  0  0  0  0  # atno 8008 bound_to 7997
  155.1683  140.0401  157.2875 H   0  0  0  0  0  0  0  0  0  0  0  0  # atno 8009 bound_to 7997
  154.6344  140.2507  155.7403 H   0  0  0  0  0  0  0  0  0  0  0  0  # atno 8010 bound_to 7997
  139.8163  143.7634  152.2665 H   0  0  0  0  0  0  0  0  0  0  0  0  # atno 10167 bound_to 10162
  157.6400  131.0965  150.6873 H   0  0  0  0  0  0  0  0  0  0  0  0  # atno 10718 bound_to 10713
  153.6235  135.6992  153.5301 H   0  0  0  0  0  0  0  0  0  0  0  0  # atno 10763 bound_to 10752
  153.2918  135.4155  155.1173 H   0  0  0  0  0  0  0  0  0  0  0  0  # atno 10764 bound_to 10752
  154.8538  135.3627  154.5776 H   0  0  0  0  0  0  0  0  0  0  0  0  # atno 10765 bound_to 10752
  139.8927  134.9529  156.6583 H   0  0  0  0  0  0  0  0  0  0  0  0  # atno 11005 bound_to 11000
  146.1680  139.4818  142.9946 LP  0  0  0  0  0  0  0  0  0  0  0  0  # atno 17320 bound_to 7965
  145.6609  141.0241  143.1709 LP  0  0  0  0  0  0  0  0  0  0  0  0  # atno 17321 bound_to 7965
  139.7799  144.7448  151.0103 LP  0  0  0  0  0  0  0  0  0  0  0  0  # atno 17342 bound_to 10162
  140.7815  143.4553  151.0354 LP  0  0  0  0  0  0  0  0  0  0  0  0  # atno 17343 bound_to 10162
  156.7198  130.4677  149.5526 LP  0  0  0  0  0  0  0  0  0  0  0  0  # atno 17370 bound_to 10713
  156.1673  130.6414  151.0794 LP  0  0  0  0  0  0  0  0  0  0  0  0  # atno 17371 bound_to 10713
  140.7466  133.8932  155.8317 LP  0  0  0  0  0  0  0  0  0  0  0  0  # atno 17394 bound_to 11000
  141.0034  134.1119  157.4294 LP  0  0  0  0  0  0  0  0  0  0  0  0  # atno 17395 bound_to 11000

$$$$
