AV-unprocessed.smi:283|AV-procd|sdf|2133|dock5
  -GOLD-   2262021453D 1   1.00000     0.00000
 Structure written by MMmdl.
 48 51  0  0  0  0  0  0  0  0  1 V2000
  151.7323  143.6868  158.0030 C   0  0  0  0  0  0  0  0  0  0  0  0
  151.9519  142.3102  158.6447 C   0  0  2  0  0  0  0  0  0  0  0  0
  150.7333  141.5100  158.5338 N   0  0  0  0  0  0  0  0  0  0  0  0
  150.6233  140.5314  157.6073 C   0  0  0  0  0  0  0  0  0  0  0  0
  151.3094  140.5906  156.4361 N   0  0  0  0  0  0  0  0  0  0  0  0
  151.1786  139.6118  155.5362 C   0  0  0  0  0  0  0  0  0  0  0  0
  150.4280  138.5110  155.6056 N   0  0  0  0  0  0  0  0  0  0  0  0
  149.7323  138.4470  156.7776 C   0  0  0  0  0  0  0  0  0  0  0  0
  149.7780  139.4123  157.8222 C   0  0  0  0  0  0  0  0  0  0  0  0
  148.9470  139.0206  158.8633 N   0  0  0  0  0  0  0  0  0  0  0  0
  148.4398  137.8896  158.4527 C   0  0  0  0  0  0  0  0  0  0  0  0
  148.8544  137.4708  157.2078 N   0  0  0  0  0  0  0  0  0  0  0  0
  148.4295  136.2339  156.4825 C   0  0  2  0  0  0  0  0  0  0  0  0
  148.9811  135.1260  157.1270 O   0  0  0  0  0  0  0  0  0  0  0  0
  149.4494  134.2169  156.1441 C   0  0  2  0  0  0  0  0  0  0  0  0
  150.3766  133.1227  156.7149 C   0  0  0  0  0  0  0  0  0  0  0  0
  151.6692  133.5869  157.0430 O   0  0  0  0  0  0  0  0  0  0  0  0
  149.9060  135.0819  154.9592 C   0  0  2  0  0  0  0  0  0  0  0  0
  151.2331  135.5518  155.0864 O   0  0  0  0  0  0  0  0  0  0  0  0
  148.9353  136.2582  155.0239 C   0  0  1  0  0  0  0  0  0  0  0  0
  147.8718  136.0486  154.1157 O   0  0  0  0  0  0  0  0  0  0  0  0
  152.4798  142.4642  160.0731 C   0  0  0  0  0  0  0  0  0  0  0  0
  152.1113  143.5929  160.8418 C   0  0  0  0  0  0  0  0  0  0  0  0
  152.5907  143.7549  162.1551 C   0  0  0  0  0  0  0  0  0  0  0  0
  153.4514  142.7926  162.7126 C   0  0  0  0  0  0  0  0  0  0  0  0
  153.8334  141.6712  161.9536 C   0  0  0  0  0  0  0  0  0  0  0  0
  153.3551  141.5030  160.6386 C   0  0  0  0  0  0  0  0  0  0  0  0
  153.8680  140.1121  159.7487 Cl  0  0  0  0  0  0  0  0  0  0  0  0
  147.3420  136.2241  156.5695 H   0  0  0  0  0  0  0  0  0  0  0  0
  148.5507  133.6952  155.8091 H   0  0  0  0  0  0  0  0  0  0  0  0
  149.8417  134.5317  154.0193 H   0  0  0  0  0  0  0  0  0  0  0  0
  149.4126  137.2107  154.7858 H   0  0  0  0  0  0  0  0  0  0  0  0
  152.6542  144.2692  158.0002 H   0  0  0  0  0  0  0  0  0  0  0  0
  150.9778  144.2609  158.5419 H   0  0  0  0  0  0  0  0  0  0  0  0
  151.4026  143.5907  156.9681 H   0  0  0  0  0  0  0  0  0  0  0  0
  152.7034  141.7946  158.0477 H   0  0  0  0  0  0  0  0  0  0  0  0
  150.0568  141.6391  159.2722 H   0  0  0  0  0  0  0  0  0  0  0  0
  151.7566  139.7266  154.6312 H   0  0  0  0  0  0  0  0  0  0  0  0
  147.7372  137.3270  159.0502 H   0  0  0  0  0  0  0  0  0  0  0  0
  149.9266  132.6792  157.6035 H   0  0  0  0  0  0  0  0  0  0  0  0
  150.4867  132.3210  155.9843 H   0  0  0  0  0  0  0  0  0  0  0  0
  151.8190  134.4038  156.5921 H   0  0  0  0  0  0  0  0  0  0  0  0
  151.4870  135.4895  155.9947 H   0  0  0  0  0  0  0  0  0  0  0  0
  148.2070  136.1375  153.2367 H   0  0  0  0  0  0  0  0  0  0  0  0
  151.4558  144.3446  160.4275 H   0  0  0  0  0  0  0  0  0  0  0  0
  152.2988  144.6188  162.7338 H   0  0  0  0  0  0  0  0  0  0  0  0
  153.8211  142.9159  163.7199 H   0  0  0  0  0  0  0  0  0  0  0  0
  154.4987  140.9366  162.3830 H   0  0  0  0  0  0  0  0  0  0  0  0
  1  2  1  0  0  0  0
  1 33  1  0  0  0  0
  1 34  1  0  0  0  0
  1 35  1  0  0  0  0
  2  3  1  0  0  0  0
  2 22  1  0  0  0  0
  2 36  1  0  0  0  0
  3  4  1  0  0  0  0
  3 37  1  0  0  0  0
  4  9  1  0  0  0  0
  4  5  2  0  0  0  0
  5  6  1  0  0  0  0
  6  7  2  0  0  0  0
  6 38  1  0  0  0  0
  7  8  1  0  0  0  0
  8 12  1  0  0  0  0
  8  9  2  0  0  0  0
  9 10  1  0  0  0  0
 10 11  2  0  0  0  0
 11 12  1  0  0  0  0
 11 39  1  0  0  0  0
 12 13  1  0  0  0  0
 13 29  1  0  0  0  0
 13 20  1  0  0  0  0
 13 14  1  0  0  0  0
 14 15  1  0  0  0  0
 15 30  1  0  0  0  0
 15 16  1  0  0  0  0
 15 18  1  0  0  0  0
 16 17  1  0  0  0  0
 16 40  1  0  0  0  0
 16 41  1  0  0  0  0
 17 42  1  0  0  0  0
 18 31  1  0  0  0  0
 18 19  1  0  0  0  0
 18 20  1  0  0  0  0
 19 43  1  0  0  0  0
 20 32  1  0  0  0  0
 20 21  1  0  0  0  0
 21 44  1  0  0  0  0
 22 27  1  0  0  0  0
 22 23  2  0  0  0  0
 23 24  1  0  0  0  0
 23 45  1  0  0  0  0
 24 25  2  0  0  0  0
 24 46  1  0  0  0  0
 25 26  1  0  0  0  0
 25 47  1  0  0  0  0
 26 27  2  0  0  0  0
 26 48  1  0  0  0  0
 27 28  1  0  0  0  0
M  END
> <s_m_source_file>
AV-unprocessed.smi

> <i_m_source_file_index>
283

> <i_lp_mmshare_version>
43012

> <i_f3d_flags>
0

> <s_epik_input>
Q2xjMVtjSF1bY0hdW2NIXVtjSF1jMVtDQEhdKFtDSDNdKVtOSF1jKG5bY0hdbjIpYyhjMjMpbltjSF1uM1tDQEBIXTRPW0NASF0oW0NIMl1bT0hdKVtDQEBIXShbT0hdKVtDQEhdNFtPSF0=

> <s_epik_cmdline>
J2VwaWtfcHl0aG9uJywgJy1waCcsICc3LjAnLCAnLXRuJywgJzgnLCAnLW1hJywgJzIwMCcsICctbWV0YWxfYmluZGluZycsICctaW1hZScsICc8aW5maWxlLm1hZT4nLCAnLW9tYWUnLCAnPG91dGZpbGUubWFlPic=

> <r_lp_tautomer_probability>
1

> <r_epik_Ionization_Penalty>
0.000266407

> <r_epik_Ionization_Penalty_Charging>
0

> <r_epik_Ionization_Penalty_Neutral>
0.000266407

> <r_epik_State_Penalty>
-0

> <r_epik_Charging_Adjusted_Penalty>
0

> <i_epik_Tot_Q>
0

> <i_epik_Tot_abs_Q>
0

> <r_epik_Metal_State_Penalty>
-0

> <b_epik_Metal_Only>
0

> <s_epik_Chemistry_Notes>
This compound contains an acetal/aminal-like group ( X-CH(R)-Y where X, Y are N, S, or O) that may be acid/base labile, releasing an aldehyde.

> <s_lp_Force_Field>
OPLS_2005

> <r_lp_Energy>
46.8878

> <b_lp_Chiralities_Consistent>
1

> <s_lp_Variant>
AV-unprocessed.smi:283-9

> <Gold.Version>
5.8.1

> <Gold.Id.Protein>
6NUR|6NUR_protein|mol2

> <Gold.PLP.Fitness>
48.5434

> <Gold.PLP.PLP>
-43.5742

> <Gold.PLP.part.hbond>
-4.3084

> <Gold.PLP.part.metal>
0.0000

> <Gold.PLP.part.buried>
-3.3969

> <Gold.PLP.part.nonpolar>
-37.2681

> <Gold.PLP.part.repulsive>
0.1724

> <Gold.PLP.ligand.clash>
0.0000

> <Gold.PLP.ligand.torsion>
1.3299

> <Gold.PLP.Chemscore.Hbond>
2.5200

> <Gold.PLP.Chemscore.CHOScore>
0.0000

> <Gold.PLP.Chemscore.Metal>
0.0000

> <Gold.Chemscore.Hbonds>
donor molecule, donor type, donor heavy atom, donor atom, acceptor molecule, acceptor atom, score
      L1  H    21    44       P1  7948  1.00
      P1  H  6896  6908       L1    17  0.26
      P1  H 10752 10763       L1    19  0.70

> <Gold.PLP.Chemscore.Internal.Correction>
0.0691

> <Gold.Rescore>
     Score         DG    S(hbond)    S(metal)    S(lipo)     H(rot)  DE(clash)    DE(int)     intcor
     12.18     -15.36       2.10        0.00     114.25       4.10       0.47       2.71       ----

> <Gold.Chemscore.Fitness>
12.1787

> <Gold.Chemscore.DG>
-15.3581

> <Gold.Chemscore.ZeroCoef>
-5.4800

> <Gold.Chemscore.Hbond>
2.0954

> <Gold.Chemscore.Metal>
0.0000

> <Gold.Chemscore.Lipo>
114.2504

> <Gold.Chemscore.Internal_Hbond>
0.0000

> <Gold.Chemscore.DEClash>
0.4694

> <Gold.Chemscore.DEInternal>
2.7100

> <Gold.Chemscore.Rot>
4.0968

> <Gold.Chemscore.Internal.Correction>
   9.000000E+99

> <Gold.Chemscore.Hbonds>
donor molecule, donor type, donor heavy atom, donor atom, acceptor molecule, acceptor atom, score
      L1  H    21    44       P1  7948  0.96
      P1  H  6896  6908       L1    17  0.04
      P1  H 10752 10763       L1    19  0.07

> <Gold.Chemscore.Hbond.Weighted>
-6.9988

> <Gold.Chemscore.Metal.Weighted>
-0.0000

> <Gold.Chemscore.Lipo.Weighted>
-13.3673

> <Gold.Chemscore.Internal_Hbond.Weighted>
0.0000

> <Gold.Chemscore.DEClash.Weighted>
0.4694

> <Gold.Chemscore.DEInternal.Weighted>
2.7100

> <Gold.Chemscore.Rot.Weighted>
10.4879

> <Gold.Chemscore.Internal.Correction.Weighted>
   9.000000E+99

> <Gold.Protein.RotatedTorsions>
[ 6907 6896 6895 6894 ] final   70.33 input  -60.11 | X-H torsion
[ 7974 7965 7964 7962 ] final   77.98 input  175.53 | X-H torsion
[ 8008 7997 7996 7995 ] final   95.21 input   59.86 | X-H torsion
[ 10167 10162 10161 10158 ] final  -53.77 input  -65.29 | X-H torsion
[ 10718 10713 10712 10709 ] final   16.82 input   66.30 | X-H torsion
[ 10763 10752 10751 10750 ] final   52.98 input  -60.55 | X-H torsion
[ 11005 11000 10999 10996 ] final  134.85 input  -57.11 | X-H torsion

> <Gold.Protein.ActiveResidues>
 VAL166  LYS551  ARG553  GLY616  TRP617  ASP618  TYR619  PRO620  LYS621  CYS622 
 ASP623  PHE694  ASN695  SER759  ASP760  ASP761  ALA762  ILE779  LEU786  VAL792 
 PHE793  MET794  SER795  GLU796  ALA797  LYS798  CYS799  TRP800  GLU811  SER814 

> <Gold.Protein.RotatedAtoms>
  152.4742  134.4885  159.9687 H   0  0  0  0  0  0  0  0  0  0  0  0  # atno 6907 bound_to 6896
  151.4904  133.3520  159.2860 H   0  0  0  0  0  0  0  0  0  0  0  0  # atno 6908 bound_to 6896
  150.8771  134.8182  159.7259 H   0  0  0  0  0  0  0  0  0  0  0  0  # atno 6909 bound_to 6896
  145.6830  139.2529  143.1803 H   0  0  0  0  0  0  0  0  0  0  0  0  # atno 7974 bound_to 7965
  156.0664  140.3289  155.7523 H   0  0  0  0  0  0  0  0  0  0  0  0  # atno 8008 bound_to 7997
  155.5374  140.0598  157.2894 H   0  0  0  0  0  0  0  0  0  0  0  0  # atno 8009 bound_to 7997
  154.4507  140.1917  156.0545 H   0  0  0  0  0  0  0  0  0  0  0  0  # atno 8010 bound_to 7997
  140.6467  143.2540  151.4839 H   0  0  0  0  0  0  0  0  0  0  0  0  # atno 10167 bound_to 10162
  157.0733  130.6357  149.5810 H   0  0  0  0  0  0  0  0  0  0  0  0  # atno 10718 bound_to 10713
  152.9792  135.5794  154.4666 H   0  0  0  0  0  0  0  0  0  0  0  0  # atno 10763 bound_to 10752
  154.4235  135.2772  155.1962 H   0  0  0  0  0  0  0  0  0  0  0  0  # atno 10764 bound_to 10752
  154.3701  135.6170  153.5789 H   0  0  0  0  0  0  0  0  0  0  0  0  # atno 10765 bound_to 10752
  139.9941  134.9504  156.9925 H   0  0  0  0  0  0  0  0  0  0  0  0  # atno 11005 bound_to 11000
  146.0947  140.7614  142.9578 LP  0  0  0  0  0  0  0  0  0  0  0  0  # atno 17320 bound_to 7965
  144.7020  140.3693  143.7148 LP  0  0  0  0  0  0  0  0  0  0  0  0  # atno 17321 bound_to 7965
  139.5678  144.2000  152.1791 LP  0  0  0  0  0  0  0  0  0  0  0  0  # atno 17342 bound_to 10162
  140.1287  144.5308  150.6816 LP  0  0  0  0  0  0  0  0  0  0  0  0  # atno 17343 bound_to 10162
  155.9944  130.5008  150.7419 LP  0  0  0  0  0  0  0  0  0  0  0  0  # atno 17370 bound_to 10713
  157.4860  131.0906  151.0481 LP  0  0  0  0  0  0  0  0  0  0  0  0  # atno 17371 bound_to 10713
  140.4851  134.1250  155.7223 LP  0  0  0  0  0  0  0  0  0  0  0  0  # atno 17394 bound_to 11000
  141.1590  133.8828  157.1899 LP  0  0  0  0  0  0  0  0  0  0  0  0  # atno 17395 bound_to 11000

$$$$
