AV-unprocessed.smi:1361|AV-procd|sdf|5556|dock2
  -GOLD-   22720 5143D 1   1.00000     0.00000
 Structure written by MMmdl.
 46 47  0  0  0  0  0  0  0  0  1 V2000
  151.3358  143.1374  157.3683 C   0  0  0  0  0  0  0  0  0  0  0  0
  150.8451  142.0004  156.4987 C   0  0  0  0  0  0  0  0  0  0  0  0
  149.7489  142.3292  155.7186 N   0  0  0  0  0  0  0  0  0  0  0  0
  149.2358  141.3559  154.8795 C   0  0  0  0  0  0  0  0  0  0  0  0
  148.0440  141.8032  154.0507 C   0  0  0  0  0  0  0  0  0  0  0  0
  149.7821  140.1144  154.8273 C   0  0  0  0  0  0  0  0  0  0  0  0
  149.2524  139.0162  153.9080 C   0  0  0  0  0  0  0  0  0  0  0  0
  147.9710  138.3278  154.3805 C   0  0  0  0  0  0  0  0  0  0  0  0
  147.4323  138.6833  155.4283 O   0  0  0  0  0  0  0  0  0  0  0  0
  147.4957  137.3469  153.5974 N   0  0  0  0  0  0  0  0  0  0  0  0
  146.2970  136.5525  153.8559 C   0  0  0  0  0  0  0  0  0  0  0  0
  146.6929  135.0766  154.0857 C   0  0  0  0  0  0  0  0  0  0  0  0
  145.5115  134.0893  154.1185 C   0  0  0  0  0  0  0  0  0  0  0  0
  145.4878  133.0799  152.9556 C   0  0  0  0  0  0  0  0  0  0  0  0
  145.7792  133.6270  151.5424 C   0  0  0  0  0  0  0  0  0  0  0  0
  144.9328  134.8291  151.0872 C   0  0  0  0  0  0  0  0  0  0  0  0
  145.5562  136.2161  151.3559 C   0  0  0  0  0  0  0  0  0  0  0  0
  145.2546  136.8142  152.7432 C   0  0  0  0  0  0  0  0  0  0  0  0
  150.9435  139.8169  155.6990 C   0  0  0  0  0  0  0  0  0  0  0  0
  151.4705  138.7053  155.7137 O   0  0  0  0  0  0  0  0  0  0  0  0
  151.4337  140.8436  156.5221 N   0  0  0  0  0  0  0  0  0  0  0  0
  149.3135  143.2405  155.7254 H   0  0  0  0  0  0  0  0  0  0  0  0
  152.2805  142.8805  157.8493 H   0  0  0  0  0  0  0  0  0  0  0  0
  150.6058  143.3602  158.1468 H   0  0  0  0  0  0  0  0  0  0  0  0
  151.4923  144.0361  156.7708 H   0  0  0  0  0  0  0  0  0  0  0  0
  148.2630  141.7164  152.9864 H   0  0  0  0  0  0  0  0  0  0  0  0
  147.7815  142.8423  154.2531 H   0  0  0  0  0  0  0  0  0  0  0  0
  147.1715  141.1897  154.2760 H   0  0  0  0  0  0  0  0  0  0  0  0
  150.0097  138.2484  153.7468 H   0  0  0  0  0  0  0  0  0  0  0  0
  149.0867  139.4451  152.9191 H   0  0  0  0  0  0  0  0  0  0  0  0
  148.0078  137.1286  152.7551 H   0  0  0  0  0  0  0  0  0  0  0  0
  145.8426  136.9170  154.7793 H   0  0  0  0  0  0  0  0  0  0  0  0
  147.4369  134.7659  153.3531 H   0  0  0  0  0  0  0  0  0  0  0  0
  147.2160  135.0137  155.0409 H   0  0  0  0  0  0  0  0  0  0  0  0
  145.5547  133.5240  155.0501 H   0  0  0  0  0  0  0  0  0  0  0  0
  144.5605  134.6167  154.1689 H   0  0  0  0  0  0  0  0  0  0  0  0
  146.2157  132.2948  153.1643 H   0  0  0  0  0  0  0  0  0  0  0  0
  144.5171  132.5828  152.9528 H   0  0  0  0  0  0  0  0  0  0  0  0
  146.8392  133.8507  151.4221 H   0  0  0  0  0  0  0  0  0  0  0  0
  145.5948  132.8076  150.8467 H   0  0  0  0  0  0  0  0  0  0  0  0
  144.8217  134.7421  150.0056 H   0  0  0  0  0  0  0  0  0  0  0  0
  143.9185  134.7654  151.4827 H   0  0  0  0  0  0  0  0  0  0  0  0
  146.6269  136.2155  151.1489 H   0  0  0  0  0  0  0  0  0  0  0  0
  145.1263  136.8978  150.6210 H   0  0  0  0  0  0  0  0  0  0  0  0
  144.2608  136.5058  153.0670 H   0  0  0  0  0  0  0  0  0  0  0  0
  145.1687  137.8960  152.6291 H   0  0  0  0  0  0  0  0  0  0  0  0
  1 23  1  0  0  0  0
  1 24  1  0  0  0  0
  1 25  1  0  0  0  0
  1  2  1  0  0  0  0
  2  3  1  0  0  0  0
  2 21  2  0  0  0  0
  3  4  1  0  0  0  0
  3 22  1  0  0  0  0
  4  6  2  0  0  0  0
  4  5  1  0  0  0  0
  5 26  1  0  0  0  0
  5 27  1  0  0  0  0
  5 28  1  0  0  0  0
  6 19  1  0  0  0  0
  6  7  1  0  0  0  0
  7  8  1  0  0  0  0
  7 29  1  0  0  0  0
  7 30  1  0  0  0  0
  8  9  2  0  0  0  0
  8 10  1  0  0  0  0
 10 11  1  0  0  0  0
 10 31  1  0  0  0  0
 11 18  1  0  0  0  0
 11 12  1  0  0  0  0
 11 32  1  0  0  0  0
 12 13  1  0  0  0  0
 12 33  1  0  0  0  0
 12 34  1  0  0  0  0
 13 14  1  0  0  0  0
 13 35  1  0  0  0  0
 13 36  1  0  0  0  0
 14 15  1  0  0  0  0
 14 37  1  0  0  0  0
 14 38  1  0  0  0  0
 15 16  1  0  0  0  0
 15 39  1  0  0  0  0
 15 40  1  0  0  0  0
 16 17  1  0  0  0  0
 16 41  1  0  0  0  0
 16 42  1  0  0  0  0
 17 18  1  0  0  0  0
 17 43  1  0  0  0  0
 17 44  1  0  0  0  0
 18 45  1  0  0  0  0
 18 46  1  0  0  0  0
 19 20  2  0  0  0  0
 19 21  1  0  0  0  0
M  END
> <s_m_source_file>
AV-unprocessed.smi

> <i_m_source_file_index>
1361

> <i_lp_mmshare_version>
43012

> <i_f3d_flags>
0

> <s_epik_input>
W0NIM11jMW5jKFtDSDNdKWMoYyg9TylbbkhdMSlbQ0gyXUMoPU8pW05IXVtDSF0yW0NIMl1bQ0gyXVtDSDJdW0NIMl1bQ0gyXVtDSDJdW0NIMl0y

> <s_epik_cmdline>
J2VwaWtfcHl0aG9uJywgJy1waCcsICc3LjAnLCAnLXRuJywgJzgnLCAnLW1hJywgJzIwMCcsICctbWV0YWxfYmluZGluZycsICctaW1hZScsICc8aW5maWxlLm1hZT4nLCAnLW9tYWUnLCAnPG91dGZpbGUubWFlPic=

> <r_lp_tautomer_probability>
0.156392

> <r_epik_Ionization_Penalty>
0.0140222

> <r_epik_Ionization_Penalty_Charging>
0.0138986

> <r_epik_Ionization_Penalty_Neutral>
0.000123575

> <r_epik_State_Penalty>
1.53084

> <r_epik_Charging_Adjusted_Penalty>
1.54474

> <i_epik_Tot_Q>
0

> <i_epik_Tot_abs_Q>
0

> <r_epik_Metal_State_Penalty>
1.70646

> <b_epik_Metal_Only>
0

> <s_lp_Force_Field>
OPLS_2005

> <r_lp_Energy>
27.031

> <b_lp_Chiralities_Consistent>
1

> <s_lp_Variant>
AV-unprocessed.smi:1361-2

> <Gold.Version>
5.8.1

> <Gold.Id.Protein>
6NUR|6NUR_protein|mol2

> <Gold.PLP.Fitness>
38.6003

> <Gold.PLP.PLP>
-33.0559

> <Gold.PLP.part.hbond>
-1.8098

> <Gold.PLP.part.metal>
0.0000

> <Gold.PLP.part.buried>
-3.6574

> <Gold.PLP.part.nonpolar>
-28.5514

> <Gold.PLP.part.repulsive>
0.1976

> <Gold.PLP.ligand.clash>
0.0000

> <Gold.PLP.ligand.torsion>
0.2463

> <Gold.PLP.Chemscore.Hbond>
2.0000

> <Gold.PLP.Chemscore.CHOScore>
0.0000

> <Gold.PLP.Chemscore.Metal>
0.0000

> <Gold.Chemscore.Hbonds>
donor molecule, donor type, donor heavy atom, donor atom, acceptor molecule, acceptor atom, score
      L1  H     3    22       P1  8028  1.00
      L1  H    10    31       P1  7948  1.00

> <Gold.PLP.Chemscore.Internal.Correction>
0.0369

> <Gold.Rescore>
     Score         DG    S(hbond)    S(metal)    S(lipo)     H(rot)  DE(clash)    DE(int)     intcor
     15.77     -16.22       1.93        0.00      68.76       1.47       0.11       0.34       ----

> <Gold.Chemscore.Fitness>
15.7677

> <Gold.Chemscore.DG>
-16.2203

> <Gold.Chemscore.ZeroCoef>
-5.4800

> <Gold.Chemscore.Hbond>
1.9329

> <Gold.Chemscore.Metal>
0.0000

> <Gold.Chemscore.Lipo>
68.7610

> <Gold.Chemscore.Internal_Hbond>
0.0000

> <Gold.Chemscore.DEClash>
0.1124

> <Gold.Chemscore.DEInternal>
0.3401

> <Gold.Chemscore.Rot>
1.4690

> <Gold.Chemscore.Internal.Correction>
   9.000000E+99

> <Gold.Chemscore.Hbonds>
donor molecule, donor type, donor heavy atom, donor atom, acceptor molecule, acceptor atom, score
      L1  H     3    22       P1  8028  0.94
      L1  H    10    31       P1  7948  0.95

> <Gold.Chemscore.Hbond.Weighted>
-6.4559

> <Gold.Chemscore.Metal.Weighted>
-0.0000

> <Gold.Chemscore.Lipo.Weighted>
-8.0450

> <Gold.Chemscore.Internal_Hbond.Weighted>
0.0000

> <Gold.Chemscore.DEClash.Weighted>
0.1124

> <Gold.Chemscore.DEInternal.Weighted>
0.3401

> <Gold.Chemscore.Rot.Weighted>
3.7607

> <Gold.Chemscore.Internal.Correction.Weighted>
   9.000000E+99

> <Gold.Protein.RotatedTorsions>
[ 6907 6896 6895 6894 ] final -146.10 input  -60.11 | X-H torsion
[ 7974 7965 7964 7962 ] final -109.31 input  175.53 | X-H torsion
[ 8008 7997 7996 7995 ] final -171.41 input   59.86 | X-H torsion
[ 10167 10162 10161 10158 ] final -164.58 input  -65.29 | X-H torsion
[ 10718 10713 10712 10709 ] final  159.79 input   66.30 | X-H torsion
[ 10763 10752 10751 10750 ] final  114.98 input  -60.55 | X-H torsion
[ 11005 11000 10999 10996 ] final    6.61 input  -57.11 | X-H torsion

> <Gold.Protein.ActiveResidues>
 VAL166  LYS551  ARG553  GLY616  TRP617  ASP618  TYR619  PRO620  LYS621  CYS622 
 ASP623  PHE694  ASN695  SER759  ASP760  ASP761  ALA762  ILE779  LEU786  VAL792 
 PHE793  MET794  SER795  GLU796  ALA797  LYS798  CYS799  TRP800  GLU811  SER814 

> <Gold.Protein.RotatedAtoms>
  151.1370  133.4997  159.2597 H   0  0  0  0  0  0  0  0  0  0  0  0  # atno 6907 bound_to 6896
  151.1696  135.0311  159.8755 H   0  0  0  0  0  0  0  0  0  0  0  0  # atno 6908 bound_to 6896
  152.5461  134.1235  159.8462 H   0  0  0  0  0  0  0  0  0  0  0  0  # atno 6909 bound_to 6896
  145.1821  140.8976  143.3474 H   0  0  0  0  0  0  0  0  0  0  0  0  # atno 7974 bound_to 7965
  155.9312  140.1091  157.1131 H   0  0  0  0  0  0  0  0  0  0  0  0  # atno 8008 bound_to 7997
  154.4071  140.1237  156.4870 H   0  0  0  0  0  0  0  0  0  0  0  0  # atno 8009 bound_to 7997
  155.7078  140.3471  155.4963 H   0  0  0  0  0  0  0  0  0  0  0  0  # atno 8010 bound_to 7997
  139.6241  144.0568  152.1959 H   0  0  0  0  0  0  0  0  0  0  0  0  # atno 10167 bound_to 10162
  157.1593  131.0583  151.2240 H   0  0  0  0  0  0  0  0  0  0  0  0  # atno 10718 bound_to 10713
  153.5153  135.3609  155.2606 H   0  0  0  0  0  0  0  0  0  0  0  0  # atno 10763 bound_to 10752
  154.8739  135.4032  154.3322 H   0  0  0  0  0  0  0  0  0  0  0  0  # atno 10764 bound_to 10752
  153.3982  135.7074  153.6512 H   0  0  0  0  0  0  0  0  0  0  0  0  # atno 10765 bound_to 10752
  140.5575  134.0224  155.7959 H   0  0  0  0  0  0  0  0  0  0  0  0  # atno 11005 bound_to 11000
  145.0126  139.3496  143.6112 LP  0  0  0  0  0  0  0  0  0  0  0  0  # atno 17320 bound_to 7965
  146.3451  139.9394  142.8743 LP  0  0  0  0  0  0  0  0  0  0  0  0  # atno 17321 bound_to 7965
  140.0217  144.6148  150.7561 LP  0  0  0  0  0  0  0  0  0  0  0  0  # atno 17342 bound_to 10162
  140.7400  143.2798  151.3631 LP  0  0  0  0  0  0  0  0  0  0  0  0  # atno 17343 bound_to 10162
  157.4147  130.7404  149.6866 LP  0  0  0  0  0  0  0  0  0  0  0  0  # atno 17370 bound_to 10713
  155.9756  130.4086  150.3834 LP  0  0  0  0  0  0  0  0  0  0  0  0  # atno 17371 bound_to 10713
  141.1135  133.9579  157.2867 LP  0  0  0  0  0  0  0  0  0  0  0  0  # atno 17394 bound_to 11000
  139.9424  135.0189  156.8750 LP  0  0  0  0  0  0  0  0  0  0  0  0  # atno 17395 bound_to 11000

$$$$
