AV-unprocessed.smi:92|AV-procd|sdf|848|dock2
  -GOLD-   2262017283D 1   1.00000     0.00000
 Structure written by MMmdl.
 61 64  0  0  0  0  0  0  0  0  2 V2000
  147.3993  134.4228  162.2179 C   0  0  0  0  0  0  0  0  0  0  0  0
  146.0560  135.1292  162.4509 C   0  0  0  0  0  0  0  0  0  0  0  0
  145.3651  135.4687  161.1813 N   0  3  1  0  0  0  0  0  0  0  0  0
  146.1264  136.4579  160.3759 C   0  0  0  0  0  0  0  0  0  0  0  0
  145.3255  136.9065  159.1436 C   0  0  0  0  0  0  0  0  0  0  0  0
  144.9119  135.6931  158.2886 C   0  0  2  0  0  0  0  0  0  0  0  0
  144.2522  136.0619  157.0256 N   0  0  0  0  0  0  0  0  0  0  0  0
  142.9363  136.7047  157.0094 C   0  0  0  0  0  0  0  0  0  0  0  0
  144.5556  135.2847  155.9518 C   0  0  0  0  0  0  0  0  0  0  0  0
  145.5979  134.4151  156.0358 N   0  0  0  0  0  0  0  0  0  0  0  0
  145.9348  133.6597  154.9872 C   0  0  0  0  0  0  0  0  0  0  0  0
  145.3733  133.6150  153.7788 N   0  0  0  0  0  0  0  0  0  0  0  0
  144.3212  134.4777  153.6852 C   0  0  0  0  0  0  0  0  0  0  0  0
  143.8490  135.3407  154.7156 C   0  0  0  0  0  0  0  0  0  0  0  0
  142.7517  136.0610  154.2584 N   0  0  0  0  0  0  0  0  0  0  0  0
  142.5912  135.6561  153.0286 C   0  0  0  0  0  0  0  0  0  0  0  0
  143.4912  134.7073  152.5988 N   0  0  0  0  0  0  0  0  0  0  0  0
  143.5318  134.0988  151.2976 C   0  0  0  0  0  0  0  0  0  0  0  0
  143.8358  132.6082  151.1246 C   0  0  0  0  0  0  0  0  0  0  0  0
  144.5486  132.9199  149.7874 C   0  0  0  0  0  0  0  0  0  0  0  0
  145.8519  132.1453  149.5073 C   0  0  0  0  0  0  0  0  0  0  0  0
  146.7605  132.2013  150.5890 O   0  0  0  0  0  0  0  0  0  0  0  0
  143.6483  132.7615  148.5479 C   0  0  0  0  0  0  0  0  0  0  0  0
  143.4881  133.9854  147.8592 O   0  0  0  0  0  0  0  0  0  0  0  0
  144.6856  134.3639  150.3265 C   0  0  0  0  0  0  0  0  0  0  0  0
  144.1483  134.6463  159.1443 C   0  0  2  0  0  0  0  0  0  0  0  0
  142.7203  135.0468  159.5606 C   0  0  0  0  0  0  0  0  0  0  0  0
  145.0010  134.2721  160.3748 C   0  0  0  0  0  0  0  0  0  0  0  0
  147.8363  134.1095  163.1663 H   0  0  0  0  0  0  0  0  0  0  0  0
  148.1258  135.0704  161.7283 H   0  0  0  0  0  0  0  0  0  0  0  0
  147.2739  133.5314  161.6025 H   0  0  0  0  0  0  0  0  0  0  0  0
  145.4266  134.4562  163.0346 H   0  0  0  0  0  0  0  0  0  0  0  0
  146.1910  136.0268  163.0562 H   0  0  0  0  0  0  0  0  0  0  0  0
  146.3588  137.3320  160.9855 H   0  0  0  0  0  0  0  0  0  0  0  0
  147.0794  136.0233  160.0695 H   0  0  0  0  0  0  0  0  0  0  0  0
  144.4500  137.4662  159.4736 H   0  0  0  0  0  0  0  0  0  0  0  0
  145.9283  137.5944  158.5494 H   0  0  0  0  0  0  0  0  0  0  0  0
  145.8546  135.2238  158.0144 H   0  0  0  0  0  0  0  0  0  0  0  0
  142.7124  137.0895  156.0134 H   0  0  0  0  0  0  0  0  0  0  0  0
  142.9039  137.5571  157.6865 H   0  0  0  0  0  0  0  0  0  0  0  0
  142.1393  136.0176  157.2870 H   0  0  0  0  0  0  0  0  0  0  0  0
  146.7747  132.9976  155.1364 H   0  0  0  0  0  0  0  0  0  0  0  0
  141.8033  136.0424  152.3982 H   0  0  0  0  0  0  0  0  0  0  0  0
  142.5832  134.3403  150.8145 H   0  0  0  0  0  0  0  0  0  0  0  0
  144.4995  132.2206  151.8981 H   0  0  0  0  0  0  0  0  0  0  0  0
  142.9489  131.9803  151.0332 H   0  0  0  0  0  0  0  0  0  0  0  0
  145.6420  131.0952  149.3017 H   0  0  0  0  0  0  0  0  0  0  0  0
  146.3638  132.5417  148.6299 H   0  0  0  0  0  0  0  0  0  0  0  0
  147.5456  131.7342  150.3473 H   0  0  0  0  0  0  0  0  0  0  0  0
  144.0583  132.0228  147.8582 H   0  0  0  0  0  0  0  0  0  0  0  0
  142.6561  132.4031  148.8232 H   0  0  0  0  0  0  0  0  0  0  0  0
  144.3355  134.3949  147.7723 H   0  0  0  0  0  0  0  0  0  0  0  0
  144.4826  135.1485  149.5973 H   0  0  0  0  0  0  0  0  0  0  0  0
  145.6330  134.5504  150.8330 H   0  0  0  0  0  0  0  0  0  0  0  0
  144.0499  133.7364  158.5505 H   0  0  0  0  0  0  0  0  0  0  0  0
  142.6932  136.0119  160.0660 H   0  0  0  0  0  0  0  0  0  0  0  0
  142.2915  134.3093  160.2394 H   0  0  0  0  0  0  0  0  0  0  0  0
  142.0561  135.0938  158.6992 H   0  0  0  0  0  0  0  0  0  0  0  0
  145.9151  133.7714  160.0508 H   0  0  0  0  0  0  0  0  0  0  0  0
  144.4574  133.5498  160.9826 H   0  0  0  0  0  0  0  0  0  0  0  0
  144.5010  135.9232  161.4403 H   0  0  0  0  0  0  0  0  0  0  0  0
  1  2  1  0  0  0  0
  1 29  1  0  0  0  0
  1 30  1  0  0  0  0
  1 31  1  0  0  0  0
  2  3  1  0  0  0  0
  2 32  1  0  0  0  0
  2 33  1  0  0  0  0
  3 28  1  0  0  0  0
  3  4  1  0  0  0  0
  3 61  1  0  0  0  0
  4  5  1  0  0  0  0
  4 34  1  0  0  0  0
  4 35  1  0  0  0  0
  5  6  1  0  0  0  0
  5 36  1  0  0  0  0
  5 37  1  0  0  0  0
  6  7  1  0  0  0  0
  6 26  1  0  0  0  0
  6 38  1  0  0  0  0
  7  8  1  0  0  0  0
  7  9  1  0  0  0  0
  8 39  1  0  0  0  0
  8 40  1  0  0  0  0
  8 41  1  0  0  0  0
  9 14  1  0  0  0  0
  9 10  2  0  0  0  0
 10 11  1  0  0  0  0
 11 12  2  0  0  0  0
 11 42  1  0  0  0  0
 12 13  1  0  0  0  0
 13 17  1  0  0  0  0
 13 14  2  0  0  0  0
 14 15  1  0  0  0  0
 15 16  2  0  0  0  0
 16 17  1  0  0  0  0
 16 43  1  0  0  0  0
 17 18  1  0  0  0  0
 18 25  1  0  0  0  0
 18 19  1  0  0  0  0
 18 44  1  0  0  0  0
 19 20  1  0  0  0  0
 19 45  1  0  0  0  0
 19 46  1  0  0  0  0
 20 21  1  0  0  0  0
 20 23  1  0  0  0  0
 20 25  1  0  0  0  0
 21 22  1  0  0  0  0
 21 47  1  0  0  0  0
 21 48  1  0  0  0  0
 22 49  1  0  0  0  0
 23 24  1  0  0  0  0
 23 50  1  0  0  0  0
 23 51  1  0  0  0  0
 24 52  1  0  0  0  0
 25 53  1  0  0  0  0
 25 54  1  0  0  0  0
 26 27  1  0  0  0  0
 26 28  1  0  0  0  0
 26 55  1  0  0  0  0
 27 56  1  0  0  0  0
 27 57  1  0  0  0  0
 27 58  1  0  0  0  0
 28 59  1  0  0  0  0
 28 60  1  0  0  0  0
M  CHG  1   3   1
M  END
> <s_m_source_file>
AV-unprocessed.smi

> <i_m_source_file_index>
92

> <i_lp_mmshare_version>
43012

> <i_f3d_flags>
0

> <s_epik_input>
W0NIM11bQ0gyXU4xW0NIMl1bQ0gyXVtDQEhdKFtDQEBIXShbQ0gzXSlbQ0gyXTEpTihbQ0gzXSljKG5bY0hdbjIpYyhjMjMpbltjSF1uM1tDSF0oW0NIMl00KVtDSDJdQzQoW0NIMl1bT0hdKVtDSDJdW09IXQ==

> <s_epik_cmdline>
J2VwaWtfcHl0aG9uJywgJy1waCcsICc3LjAnLCAnLXRuJywgJzgnLCAnLW1hJywgJzIwMCcsICctbWV0YWxfYmluZGluZycsICctaW1hZScsICc8aW5maWxlLm1hZT4nLCAnLW9tYWUnLCAnPG91dGZpbGUubWFlPic=

> <r_lp_tautomer_probability>
1

> <r_epik_Ionization_Penalty>
0.00235514

> <r_epik_Ionization_Penalty_Charging>
0.00137877

> <r_epik_Ionization_Penalty_Neutral>
0.000976366

> <r_epik_State_Penalty>
-0

> <r_epik_Charging_Adjusted_Penalty>
0.00137877

> <i_epik_Tot_Q>
1

> <i_epik_Tot_abs_Q>
1

> <r_epik_Metal_State_Penalty>
-0

> <b_epik_Metal_Only>
0

> <s_lp_Force_Field>
OPLS_2005

> <r_lp_Energy>
56.4815

> <b_lp_Chiralities_Consistent>
1

> <s_lp_Variant>
AV-unprocessed.smi:92-8

> <Gold.Version>
5.8.1

> <Gold.Id.Protein>
6NUR|6NUR_protein|mol2

> <Gold.PLP.Fitness>
44.7518

> <Gold.PLP.PLP>
-38.1473

> <Gold.PLP.part.hbond>
-4.9895

> <Gold.PLP.part.metal>
0.0000

> <Gold.PLP.part.buried>
-4.9205

> <Gold.PLP.part.nonpolar>
-28.1902

> <Gold.PLP.part.repulsive>
0.1957

> <Gold.PLP.ligand.clash>
0.0000

> <Gold.PLP.ligand.torsion>
1.8769

> <Gold.PLP.Chemscore.Hbond>
3.0000

> <Gold.PLP.Chemscore.CHOScore>
0.0000

> <Gold.PLP.Chemscore.Metal>
0.0000

> <Gold.Chemscore.Hbonds>
donor molecule, donor type, donor heavy atom, donor atom, acceptor molecule, acceptor atom, score
      L1  H    22    49       P1 10747  1.00
      L1  H    24    52       P1  7921  1.00
      P1  H 10192 10197       L1    24  1.00

> <Gold.PLP.Chemscore.Internal.Correction>
1.3583

> <Gold.Rescore>
     Score         DG    S(hbond)    S(metal)    S(lipo)     H(rot)  DE(clash)    DE(int)     intcor
     13.35     -17.21       2.96        0.00      86.36       3.22       0.03       3.83       ----

> <Gold.Chemscore.Fitness>
13.3500

> <Gold.Chemscore.DG>
-17.2076

> <Gold.Chemscore.ZeroCoef>
-5.4800

> <Gold.Chemscore.Hbond>
2.9556

> <Gold.Chemscore.Metal>
0.0000

> <Gold.Chemscore.Lipo>
86.3611

> <Gold.Chemscore.Internal_Hbond>
0.0000

> <Gold.Chemscore.DEClash>
0.0288

> <Gold.Chemscore.DEInternal>
3.8288

> <Gold.Chemscore.Rot>
3.2219

> <Gold.Chemscore.Internal.Correction>
   9.000000E+99

> <Gold.Chemscore.Hbonds>
donor molecule, donor type, donor heavy atom, donor atom, acceptor molecule, acceptor atom, score
      L1  H    22    49       P1 10747  1.00
      L1  H    24    52       P1  7921  1.00
      P1  H 10192 10197       L1    24  0.78

> <Gold.Chemscore.Hbond.Weighted>
-9.8716

> <Gold.Chemscore.Metal.Weighted>
-0.0000

> <Gold.Chemscore.Lipo.Weighted>
-10.1043

> <Gold.Chemscore.Internal_Hbond.Weighted>
0.0000

> <Gold.Chemscore.DEClash.Weighted>
0.0288

> <Gold.Chemscore.DEInternal.Weighted>
3.8288

> <Gold.Chemscore.Rot.Weighted>
8.2482

> <Gold.Chemscore.Internal.Correction.Weighted>
   9.000000E+99

> <Gold.Protein.RotatedTorsions>
[ 6907 6896 6895 6894 ] final -140.46 input  -60.11 | X-H torsion
[ 7974 7965 7964 7962 ] final  -38.18 input  175.53 | X-H torsion
[ 8008 7997 7996 7995 ] final   -8.07 input   59.86 | X-H torsion
[ 10167 10162 10161 10158 ] final -113.76 input  -65.29 | X-H torsion
[ 10718 10713 10712 10709 ] final   11.20 input   66.30 | X-H torsion
[ 10763 10752 10751 10750 ] final   -8.77 input  -60.55 | X-H torsion
[ 11005 11000 10999 10996 ] final  -77.97 input  -57.11 | X-H torsion

> <Gold.Protein.ActiveResidues>
 VAL166  LYS551  ARG553  GLY616  TRP617  ASP618  TYR619  PRO620  LYS621  CYS622 
 ASP623  PHE694  ASN695  SER759  ASP760  ASP761  ALA762  ILE779  LEU786  VAL792 
 PHE793  MET794  SER795  GLU796  ALA797  LYS798  CYS799  TRP800  GLU811  SER814 

> <Gold.Protein.RotatedAtoms>
  151.0610  133.5544  159.2634 H   0  0  0  0  0  0  0  0  0  0  0  0  # atno 6907 bound_to 6896
  151.2520  135.0624  159.9075 H   0  0  0  0  0  0  0  0  0  0  0  0  # atno 6908 bound_to 6896
  152.5397  134.0369  159.8103 H   0  0  0  0  0  0  0  0  0  0  0  0  # atno 6909 bound_to 6896
  146.0509  140.6482  142.9042 H   0  0  0  0  0  0  0  0  0  0  0  0  # atno 7974 bound_to 7965
  154.5777  140.2391  155.8099 H   0  0  0  0  0  0  0  0  0  0  0  0  # atno 8008 bound_to 7997
  156.2156  140.3013  155.9787 H   0  0  0  0  0  0  0  0  0  0  0  0  # atno 8009 bound_to 7997
  155.2597  140.0414  157.2986 H   0  0  0  0  0  0  0  0  0  0  0  0  # atno 8010 bound_to 7997
  140.1083  143.4550  152.1769 H   0  0  0  0  0  0  0  0  0  0  0  0  # atno 10167 bound_to 10162
  156.9921  130.6046  149.5687 H   0  0  0  0  0  0  0  0  0  0  0  0  # atno 10718 bound_to 10713
  153.4452  135.7014  153.6144 H   0  0  0  0  0  0  0  0  0  0  0  0  # atno 10763 bound_to 10752
  153.4502  135.3760  155.2279 H   0  0  0  0  0  0  0  0  0  0  0  0  # atno 10764 bound_to 10752
  154.8728  135.3995  154.3856 H   0  0  0  0  0  0  0  0  0  0  0  0  # atno 10765 bound_to 10752
  141.1663  133.7044  156.7901 H   0  0  0  0  0  0  0  0  0  0  0  0  # atno 11005 bound_to 11000
  144.7122  140.4081  143.7071 LP  0  0  0  0  0  0  0  0  0  0  0  0  # atno 17320 bound_to 7965
  145.6725  139.1602  143.2746 LP  0  0  0  0  0  0  0  0  0  0  0  0  # atno 17321 bound_to 7965
  139.5633  144.7419  151.4093 LP  0  0  0  0  0  0  0  0  0  0  0  0  # atno 17342 bound_to 10162
  140.6940  143.7794  150.7298 LP  0  0  0  0  0  0  0  0  0  0  0  0  # atno 17343 bound_to 10162
  156.0203  130.5298  150.8256 LP  0  0  0  0  0  0  0  0  0  0  0  0  # atno 17370 bound_to 10713
  157.5451  131.0942  150.9774 LP  0  0  0  0  0  0  0  0  0  0  0  0  # atno 17371 bound_to 10713
  140.2332  134.8670  157.3498 LP  0  0  0  0  0  0  0  0  0  0  0  0  # atno 17394 bound_to 11000
  140.1870  134.4418  155.7738 LP  0  0  0  0  0  0  0  0  0  0  0  0  # atno 17395 bound_to 11000

$$$$
