AV-unprocessed.smi:2252|AV-procd|sdf|9110|dock7
  -GOLD-   2272012313D 1   1.00000     0.00000
 Structure written by MMmdl.
 45 47  0  0  0  0  0  0  0  0  4 V2000
  152.8486  141.8736  159.7802 C   0  0  0  0  0  0  0  0  0  0  0  0
  152.2766  142.8873  158.8930 N   0  0  0  0  0  0  0  0  0  0  0  0
  152.5477  144.2314  158.9163 C   0  0  0  0  0  0  0  0  0  0  0  0
  151.8143  144.7984  157.9078 C   0  0  0  0  0  0  0  0  0  0  0  0
  151.1267  143.7780  157.3104 N   0  3  0  0  0  0  0  0  0  0  0  0
  151.3972  142.6111  157.9132 C   0  0  0  0  0  0  0  0  0  0  0  0
  150.8264  141.2699  157.5303 C   0  0  0  0  0  0  0  0  0  0  0  0
  151.4192  140.6446  156.2481 C   0  0  0  0  0  0  0  0  0  0  0  0
  150.3681  140.2122  155.3268 N   0  5  0  0  0  0  0  0  0  0  0  0
  150.3109  138.9692  154.7669 C   0  0  0  0  0  0  0  0  0  0  0  0
  151.2093  138.2731  154.2846 O   0  0  0  0  0  0  0  0  0  0  0  0
  148.8734  138.4093  154.7542 C   0  0  1  0  0  0  0  0  0  0  0  0
  148.0166  139.1606  153.7091 C   0  0  0  0  0  0  0  0  0  0  0  0
  147.7653  140.6480  153.8379 C   0  0  0  0  0  0  0  0  0  0  0  0
  146.6351  139.6767  154.0529 C   0  0  0  0  0  0  0  0  0  0  0  0
  148.8401  136.9319  154.5456 N   0  3  0  0  0  0  0  0  0  0  0  0
  149.8035  136.1520  155.3512 C   0  0  0  0  0  0  0  0  0  0  0  0
  149.3171  134.7107  155.2459 C   0  0  0  0  0  0  0  0  0  0  0  0
  147.7952  134.8354  155.1716 C   0  0  0  0  0  0  0  0  0  0  0  0
  147.5225  136.2864  154.7489 C   0  0  0  0  0  0  0  0  0  0  0  0
  153.3796  142.3605  160.5984 H   0  0  0  0  0  0  0  0  0  0  0  0
  153.5428  141.2523  159.2136 H   0  0  0  0  0  0  0  0  0  0  0  0
  152.0506  141.2549  160.1875 H   0  0  0  0  0  0  0  0  0  0  0  0
  153.2284  144.6738  159.6291 H   0  0  0  0  0  0  0  0  0  0  0  0
  151.7334  145.8237  157.5773 H   0  0  0  0  0  0  0  0  0  0  0  0
  151.0149  140.6115  158.3787 H   0  0  0  0  0  0  0  0  0  0  0  0
  149.7435  141.3656  157.4527 H   0  0  0  0  0  0  0  0  0  0  0  0
  152.0726  141.3769  155.7734 H   0  0  0  0  0  0  0  0  0  0  0  0
  152.0744  139.8197  156.5304 H   0  0  0  0  0  0  0  0  0  0  0  0
  148.4460  138.6016  155.7402 H   0  0  0  0  0  0  0  0  0  0  0  0
  148.1504  138.7992  152.6906 H   0  0  0  0  0  0  0  0  0  0  0  0
  148.1658  141.1554  154.7135 H   0  0  0  0  0  0  0  0  0  0  0  0
  147.7490  141.2380  152.9240 H   0  0  0  0  0  0  0  0  0  0  0  0
  145.8708  139.6144  153.2810 H   0  0  0  0  0  0  0  0  0  0  0  0
  146.2783  139.5479  155.0730 H   0  0  0  0  0  0  0  0  0  0  0  0
  150.8281  136.2631  154.9948 H   0  0  0  0  0  0  0  0  0  0  0  0
  149.7673  136.4828  156.3904 H   0  0  0  0  0  0  0  0  0  0  0  0
  149.6935  134.2646  154.3242 H   0  0  0  0  0  0  0  0  0  0  0  0
  149.6523  134.0907  156.0777 H   0  0  0  0  0  0  0  0  0  0  0  0
  147.3725  134.1189  154.4665 H   0  0  0  0  0  0  0  0  0  0  0  0
  147.3479  134.6408  156.1471 H   0  0  0  0  0  0  0  0  0  0  0  0
  146.9742  136.7905  155.5456 H   0  0  0  0  0  0  0  0  0  0  0  0
  146.9226  136.3430  153.8402 H   0  0  0  0  0  0  0  0  0  0  0  0
  149.0946  136.7742  153.5807 H   0  0  0  0  0  0  0  0  0  0  0  0
  150.4923  143.8851  156.5290 H   0  0  0  0  0  0  0  0  0  0  0  0
  1  2  1  0  0  0  0
  1 21  1  0  0  0  0
  1 22  1  0  0  0  0
  1 23  1  0  0  0  0
  2  6  1  0  0  0  0
  2  3  1  0  0  0  0
  3  4  2  0  0  0  0
  3 24  1  0  0  0  0
  4  5  1  0  0  0  0
  4 25  1  0  0  0  0
  5  6  2  0  0  0  0
  5 45  1  0  0  0  0
  6  7  1  0  0  0  0
  7  8  1  0  0  0  0
  7 26  1  0  0  0  0
  7 27  1  0  0  0  0
  8  9  1  0  0  0  0
  8 28  1  0  0  0  0
  8 29  1  0  0  0  0
  9 10  1  0  0  0  0
 10 11  2  0  0  0  0
 10 12  1  0  0  0  0
 12 13  1  0  0  0  0
 12 16  1  0  0  0  0
 12 30  1  0  0  0  0
 13 15  1  0  0  0  0
 13 14  1  0  0  0  0
 13 31  1  0  0  0  0
 14 15  1  0  0  0  0
 14 32  1  0  0  0  0
 14 33  1  0  0  0  0
 15 34  1  0  0  0  0
 15 35  1  0  0  0  0
 16 20  1  0  0  0  0
 16 17  1  0  0  0  0
 16 44  1  0  0  0  0
 17 18  1  0  0  0  0
 17 36  1  0  0  0  0
 17 37  1  0  0  0  0
 18 19  1  0  0  0  0
 18 38  1  0  0  0  0
 18 39  1  0  0  0  0
 19 20  1  0  0  0  0
 19 40  1  0  0  0  0
 19 41  1  0  0  0  0
 20 42  1  0  0  0  0
 20 43  1  0  0  0  0
M  CHG  1   5   1
M  CHG  1   9  -1
M  CHG  1  16   1
M  END
> <s_m_source_file>
AV-unprocessed.smi

> <i_m_source_file_index>
2252

> <i_lp_mmshare_version>
43012

> <i_f3d_flags>
0

> <s_epik_input>
W0NIM11uMVtjSF1bY0hdbmMxW0NIMl1bQ0gyXVtOSF1DKD1PKVtDQEhdKFtDSF0yW0NIMl1bQ0gyXTIpTjNbQ0gyXVtDSDJdW0NIMl1bQ0gyXTM=

> <s_epik_cmdline>
J2VwaWtfcHl0aG9uJywgJy1waCcsICc3LjAnLCAnLXRuJywgJzgnLCAnLW1hJywgJzIwMCcsICctbWV0YWxfYmluZGluZycsICctaW1hZScsICc8aW5maWxlLm1hZT4nLCAnLW9tYWUnLCAnPG91dGZpbGUubWFlPic=

> <r_lp_tautomer_probability>
1

> <r_epik_Ionization_Penalty>
5.88052

> <r_epik_Ionization_Penalty_Charging>
5.85424

> <r_epik_Ionization_Penalty_Neutral>
0.026272

> <r_epik_State_Penalty>
5.94961

> <r_epik_Charging_Adjusted_Penalty>
11.8039

> <i_epik_Tot_Q>
1

> <i_epik_Tot_abs_Q>
3

> <r_epik_Metal_State_Penalty>
2.20001

> <b_epik_Metal_Only>
1

> <s_lp_Force_Field>
OPLS_2005

> <r_lp_Energy>
30.4817

> <b_lp_Chiralities_Consistent>
1

> <s_lp_Variant>
AV-unprocessed.smi:2252-8

> <Gold.Version>
5.8.1

> <Gold.Id.Protein>
6NUR|6NUR_protein|mol2

> <Gold.PLP.Fitness>
46.5705

> <Gold.PLP.PLP>
-37.2893

> <Gold.PLP.part.hbond>
-2.3994

> <Gold.PLP.part.metal>
0.0000

> <Gold.PLP.part.buried>
-4.0209

> <Gold.PLP.part.nonpolar>
-31.0916

> <Gold.PLP.part.repulsive>
0.2657

> <Gold.PLP.ligand.clash>
0.0000

> <Gold.PLP.ligand.torsion>
2.0453

> <Gold.PLP.Chemscore.Hbond>
4.0457

> <Gold.PLP.Chemscore.CHOScore>
0.0000

> <Gold.PLP.Chemscore.Metal>
0.0000

> <Gold.Chemscore.Hbonds>
donor molecule, donor type, donor heavy atom, donor atom, acceptor molecule, acceptor atom, score
      L1  H     5    45       P1  8028  2.00
      L1  H    16    44       P1  7948  2.00
      P1  H  7989  7998       L1     9  0.06

> <Gold.PLP.Chemscore.Internal.Correction>
1.2348

> <Gold.Rescore>
     Score         DG    S(hbond)    S(metal)    S(lipo)     H(rot)  DE(clash)    DE(int)     intcor
     13.01     -16.55       1.94        0.00      82.60       1.98       0.03       3.52       ----

> <Gold.Chemscore.Fitness>
13.0058

> <Gold.Chemscore.DG>
-16.5550

> <Gold.Chemscore.ZeroCoef>
-5.4800

> <Gold.Chemscore.Hbond>
1.9408

> <Gold.Chemscore.Metal>
0.0000

> <Gold.Chemscore.Lipo>
82.5980

> <Gold.Chemscore.Internal_Hbond>
0.0000

> <Gold.Chemscore.DEClash>
0.0310

> <Gold.Chemscore.DEInternal>
3.5182

> <Gold.Chemscore.Rot>
1.9809

> <Gold.Chemscore.Internal.Correction>
   9.000000E+99

> <Gold.Chemscore.Hbonds>
donor molecule, donor type, donor heavy atom, donor atom, acceptor molecule, acceptor atom, score
      L1  H     5    45       P1  8028  0.92
      L1  H    16    44       P1  7948  0.99

> <Gold.Chemscore.Hbond.Weighted>
-6.4821

> <Gold.Chemscore.Metal.Weighted>
-0.0000

> <Gold.Chemscore.Lipo.Weighted>
-9.6640

> <Gold.Chemscore.Internal_Hbond.Weighted>
0.0000

> <Gold.Chemscore.DEClash.Weighted>
0.0310

> <Gold.Chemscore.DEInternal.Weighted>
3.5182

> <Gold.Chemscore.Rot.Weighted>
5.0711

> <Gold.Chemscore.Internal.Correction.Weighted>
   9.000000E+99

> <Gold.Protein.RotatedTorsions>
[ 6907 6896 6895 6894 ] final  -32.56 input  -60.11 | X-H torsion
[ 7974 7965 7964 7962 ] final -120.72 input  175.53 | X-H torsion
[ 8008 7997 7996 7995 ] final -130.86 input   59.86 | X-H torsion
[ 10167 10162 10161 10158 ] final  130.62 input  -65.29 | X-H torsion
[ 10718 10713 10712 10709 ] final -116.76 input   66.30 | X-H torsion
[ 10763 10752 10751 10750 ] final   98.73 input  -60.55 | X-H torsion
[ 11005 11000 10999 10996 ] final   55.90 input  -57.11 | X-H torsion

> <Gold.Protein.ActiveResidues>
 VAL166  LYS551  ARG553  GLY616  TRP617  ASP618  TYR619  PRO620  LYS621  CYS622 
 ASP623  PHE694  ASN695  SER759  ASP760  ASP761  ALA762  ILE779  LEU786  VAL792 
 PHE793  MET794  SER795  GLU796  ALA797  LYS798  CYS799  TRP800  GLU811  SER814 

> <Gold.Protein.RotatedAtoms>
  151.0772  134.9835  159.8337 H   0  0  0  0  0  0  0  0  0  0  0  0  # atno 6907 bound_to 6896
  152.5415  134.2226  159.8803 H   0  0  0  0  0  0  0  0  0  0  0  0  # atno 6908 bound_to 6896
  151.2254  133.4436  159.2635 H   0  0  0  0  0  0  0  0  0  0  0  0  # atno 6909 bound_to 6896
  145.0482  140.8198  143.4225 H   0  0  0  0  0  0  0  0  0  0  0  0  # atno 7974 bound_to 7965
  155.3027  140.0453  157.3030 H   0  0  0  0  0  0  0  0  0  0  0  0  # atno 8008 bound_to 7997
  154.5477  140.2308  155.8502 H   0  0  0  0  0  0  0  0  0  0  0  0  # atno 8009 bound_to 7997
  156.1939  140.3043  155.9395 H   0  0  0  0  0  0  0  0  0  0  0  0  # atno 8010 bound_to 7997
  139.5421  144.6740  151.4590 H   0  0  0  0  0  0  0  0  0  0  0  0  # atno 10167 bound_to 10162
  156.0986  130.6153  150.9077 H   0  0  0  0  0  0  0  0  0  0  0  0  # atno 10718 bound_to 10713
  153.2927  135.4138  155.1181 H   0  0  0  0  0  0  0  0  0  0  0  0  # atno 10763 bound_to 10752
  154.8525  135.3522  154.5960 H   0  0  0  0  0  0  0  0  0  0  0  0  # atno 10764 bound_to 10752
  153.6382  135.7058  153.5309 H   0  0  0  0  0  0  0  0  0  0  0  0  # atno 10765 bound_to 10752
  140.0570  134.5655  155.9196 H   0  0  0  0  0  0  0  0  0  0  0  0  # atno 11005 bound_to 11000
  145.1560  139.2486  143.5416 LP  0  0  0  0  0  0  0  0  0  0  0  0  # atno 17320 bound_to 7965
  146.3515  140.1275  142.8598 LP  0  0  0  0  0  0  0  0  0  0  0  0  # atno 17321 bound_to 7965
  140.6656  143.8406  150.6937 LP  0  0  0  0  0  0  0  0  0  0  0  0  # atno 17342 bound_to 10162
  140.1814  143.4112  152.1930 LP  0  0  0  0  0  0  0  0  0  0  0  0  # atno 17343 bound_to 10162
  157.6152  131.0934  150.8724 LP  0  0  0  0  0  0  0  0  0  0  0  0  # atno 17370 bound_to 10713
  156.8856  130.5195  149.5288 LP  0  0  0  0  0  0  0  0  0  0  0  0  # atno 17371 bound_to 10713
  141.1956  133.6588  156.5653 LP  0  0  0  0  0  0  0  0  0  0  0  0  # atno 17394 bound_to 11000
  140.3828  134.7508  157.4672 LP  0  0  0  0  0  0  0  0  0  0  0  0  # atno 17395 bound_to 11000

$$$$
