AV-unprocessed.smi:910|AV-procd|sdf|4133|dock10
  -GOLD-   22720 2 43D 1   1.00000     0.00000
 Structure written by MMmdl.
 45 46  0  0  0  0  0  0  0  0  2 V2000
  147.5443  144.7786  161.6443 C   0  0  0  0  0  0  0  0  0  0  0  0
  146.9330  144.2287  160.3947 C   0  0  0  0  0  0  0  0  0  0  0  0
  147.4221  143.0902  159.7739 N   0  0  0  0  0  0  0  0  0  0  0  0
  146.6400  142.8909  158.7109 C   0  0  0  0  0  0  0  0  0  0  0  0
  146.7432  141.8840  157.8289 N   0  5  0  0  0  0  0  0  0  0  0  0
  147.9395  141.2802  157.6489 C   0  0  0  0  0  0  0  0  0  0  0  0
  148.2101  140.1070  157.9165 O   0  0  0  0  0  0  0  0  0  0  0  0
  148.8866  142.0904  157.1535 N   0  0  0  0  0  0  0  0  0  0  0  0
  150.2973  141.7520  156.9865 C   0  0  0  0  0  0  0  0  0  0  0  0
  150.8868  141.1865  158.2882 C   0  0  0  0  0  0  0  0  0  0  0  0
  151.0831  142.2555  159.2014 O   0  0  0  0  0  0  0  0  0  0  0  0
  152.2768  143.0084  159.0299 C   0  0  1  0  0  0  0  0  0  0  0  0
  152.0212  144.2556  158.1541 C   0  0  0  0  0  0  0  0  0  0  0  0
  151.0311  145.2266  158.8190 C   0  0  0  0  0  0  0  0  0  0  0  0
  151.5031  145.6315  160.2231 C   0  0  0  0  0  0  0  0  0  0  0  0
  151.7746  144.3997  161.1012 C   0  0  0  0  0  0  0  0  0  0  0  0
  152.7721  143.4308  160.4316 C   0  0  1  0  0  0  0  0  0  0  0  0
  153.0778  142.2190  161.3258 C   0  0  0  0  0  0  0  0  0  0  0  0
  145.6780  143.8498  158.5947 O   0  0  0  0  0  0  0  0  0  0  0  0
  145.8701  144.6842  159.6619 C   0  0  0  0  0  0  0  0  0  0  0  0
  144.9493  145.8465  159.8148 C   0  0  0  0  0  0  0  0  0  0  0  0
  148.3602  145.4629  161.4117 H   0  0  0  0  0  0  0  0  0  0  0  0
  147.9467  143.9829  162.2717 H   0  0  0  0  0  0  0  0  0  0  0  0
  146.8109  145.3259  162.2367 H   0  0  0  0  0  0  0  0  0  0  0  0
  148.6174  143.0398  156.9419 H   0  0  0  0  0  0  0  0  0  0  0  0
  150.4397  141.0536  156.1602 H   0  0  0  0  0  0  0  0  0  0  0  0
  150.8266  142.6649  156.7137 H   0  0  0  0  0  0  0  0  0  0  0  0
  150.2018  140.4606  158.7279 H   0  0  0  0  0  0  0  0  0  0  0  0
  151.8175  140.6634  158.0707 H   0  0  0  0  0  0  0  0  0  0  0  0
  153.0370  142.3809  158.5615 H   0  0  0  0  0  0  0  0  0  0  0  0
  152.9666  144.7726  157.9862 H   0  0  0  0  0  0  0  0  0  0  0  0
  151.6583  143.9767  157.1659 H   0  0  0  0  0  0  0  0  0  0  0  0
  150.9074  146.1147  158.1993 H   0  0  0  0  0  0  0  0  0  0  0  0
  150.0482  144.7606  158.8848 H   0  0  0  0  0  0  0  0  0  0  0  0
  152.4113  146.2301  160.1437 H   0  0  0  0  0  0  0  0  0  0  0  0
  150.7531  146.2664  160.6960 H   0  0  0  0  0  0  0  0  0  0  0  0
  152.1601  144.7219  162.0688 H   0  0  0  0  0  0  0  0  0  0  0  0
  150.8344  143.8846  161.3030 H   0  0  0  0  0  0  0  0  0  0  0  0
  153.7117  143.9691  160.2980 H   0  0  0  0  0  0  0  0  0  0  0  0
  152.1783  141.6383  161.5328 H   0  0  0  0  0  0  0  0  0  0  0  0
  153.4950  142.5340  162.2823 H   0  0  0  0  0  0  0  0  0  0  0  0
  153.8018  141.5553  160.8527 H   0  0  0  0  0  0  0  0  0  0  0  0
  144.3138  145.7213  160.6915 H   0  0  0  0  0  0  0  0  0  0  0  0
  144.3048  145.9535  158.9420 H   0  0  0  0  0  0  0  0  0  0  0  0
  145.5132  146.7717  159.9341 H   0  0  0  0  0  0  0  0  0  0  0  0
  1 22  1  0  0  0  0
  1 23  1  0  0  0  0
  1 24  1  0  0  0  0
  1  2  1  0  0  0  0
  2  3  1  0  0  0  0
  2 20  2  0  0  0  0
  3  4  2  0  0  0  0
  4 19  1  0  0  0  0
  4  5  1  0  0  0  0
  5  6  1  0  0  0  0
  6  8  1  0  0  0  0
  6  7  2  0  0  0  0
  8  9  1  0  0  0  0
  8 25  1  0  0  0  0
  9 10  1  0  0  0  0
  9 26  1  0  0  0  0
  9 27  1  0  0  0  0
 10 11  1  0  0  0  0
 10 28  1  0  0  0  0
 10 29  1  0  0  0  0
 11 12  1  0  0  0  0
 12 17  1  0  0  0  0
 12 13  1  0  0  0  0
 12 30  1  0  0  0  0
 13 14  1  0  0  0  0
 13 31  1  0  0  0  0
 13 32  1  0  0  0  0
 14 15  1  0  0  0  0
 14 33  1  0  0  0  0
 14 34  1  0  0  0  0
 15 16  1  0  0  0  0
 15 35  1  0  0  0  0
 15 36  1  0  0  0  0
 16 17  1  0  0  0  0
 16 37  1  0  0  0  0
 16 38  1  0  0  0  0
 17 18  1  0  0  0  0
 17 39  1  0  0  0  0
 18 40  1  0  0  0  0
 18 41  1  0  0  0  0
 18 42  1  0  0  0  0
 19 20  1  0  0  0  0
 20 21  1  0  0  0  0
 21 43  1  0  0  0  0
 21 44  1  0  0  0  0
 21 45  1  0  0  0  0
M  CHG  1   5  -1
M  END
> <s_m_source_file>
AV-unprocessed.smi

> <i_m_source_file_index>
910

> <i_lp_mmshare_version>
43012

> <i_f3d_flags>
0

> <s_epik_input>
W0NIM11jMW5jKG9jMVtDSDNdKVtOSF1DKD1PKVtOSF1bQ0gyXVtDSDJdT1tDQEBIXTJbQ0gyXVtDSDJdW0NIMl1bQ0gyXVtDQEhdMltDSDNd

> <s_epik_cmdline>
J2VwaWtfcHl0aG9uJywgJy1waCcsICc3LjAnLCAnLXRuJywgJzgnLCAnLW1hJywgJzIwMCcsICctbWV0YWxfYmluZGluZycsICctaW1hZScsICc8aW5maWxlLm1hZT4nLCAnLW9tYWUnLCAnPG91dGZpbGUubWFlPic=

> <r_lp_tautomer_probability>
0.107061

> <r_epik_Ionization_Penalty>
10.1763

> <r_epik_Ionization_Penalty_Charging>
7.13067

> <r_epik_Ionization_Penalty_Neutral>
3.04564

> <r_epik_State_Penalty>
5.57927

> <r_epik_Charging_Adjusted_Penalty>
12.7099

> <i_epik_Tot_Q>
-1

> <i_epik_Tot_abs_Q>
1

> <r_epik_Metal_State_Penalty>
1.52303

> <b_epik_Metal_Only>
1

> <s_lp_Force_Field>
OPLS_2005

> <r_lp_Energy>
4.58121

> <b_lp_Chiralities_Consistent>
1

> <s_lp_Variant>
AV-unprocessed.smi:910-18

> <Gold.Version>
5.8.1

> <Gold.Id.Protein>
6NUR|6NUR_protein|mol2

> <Gold.PLP.Fitness>
49.2690

> <Gold.PLP.PLP>
-46.8640

> <Gold.PLP.part.hbond>
-2.8376

> <Gold.PLP.part.metal>
0.0000

> <Gold.PLP.part.buried>
-6.9573

> <Gold.PLP.part.nonpolar>
-37.9679

> <Gold.PLP.part.repulsive>
1.1985

> <Gold.PLP.ligand.clash>
0.0000

> <Gold.PLP.ligand.torsion>
1.4184

> <Gold.PLP.Chemscore.Hbond>
1.7267

> <Gold.PLP.Chemscore.CHOScore>
0.0000

> <Gold.PLP.Chemscore.Metal>
0.0000

> <Gold.Chemscore.Hbonds>
donor molecule, donor type, donor heavy atom, donor atom, acceptor molecule, acceptor atom, score
      L1  H     8    25       P1  8028  0.74
      P1  H  6933  6944       L1     3  0.61

> <Gold.PLP.Chemscore.Internal.Correction>
0.0618

> <Gold.Rescore>
     Score         DG    S(hbond)    S(metal)    S(lipo)     H(rot)  DE(clash)    DE(int)     intcor
     15.59     -18.35       0.98        0.00     117.46       1.62       0.05       2.71       ----

> <Gold.Chemscore.Fitness>
15.5928

> <Gold.Chemscore.DG>
-18.3539

> <Gold.Chemscore.ZeroCoef>
-5.4800

> <Gold.Chemscore.Hbond>
0.9790

> <Gold.Chemscore.Metal>
0.0000

> <Gold.Chemscore.Lipo>
117.4636

> <Gold.Chemscore.Internal_Hbond>
0.0000

> <Gold.Chemscore.DEClash>
0.0523

> <Gold.Chemscore.DEInternal>
2.7088

> <Gold.Chemscore.Rot>
1.6169

> <Gold.Chemscore.Internal.Correction>
   9.000000E+99

> <Gold.Chemscore.Hbonds>
donor molecule, donor type, donor heavy atom, donor atom, acceptor molecule, acceptor atom, score
      L1  H     8    25       P1  8028  0.46
      P1  H  6933  6944       L1     3  0.10

> <Gold.Chemscore.Hbond.Weighted>
-3.2699

> <Gold.Chemscore.Metal.Weighted>
-0.0000

> <Gold.Chemscore.Lipo.Weighted>
-13.7432

> <Gold.Chemscore.Internal_Hbond.Weighted>
0.0000

> <Gold.Chemscore.DEClash.Weighted>
0.0523

> <Gold.Chemscore.DEInternal.Weighted>
2.7088

> <Gold.Chemscore.Rot.Weighted>
4.1393

> <Gold.Chemscore.Internal.Correction.Weighted>
   9.000000E+99

> <Gold.Protein.RotatedTorsions>
[ 6907 6896 6895 6894 ] final  115.24 input  -60.11 | X-H torsion
[ 7974 7965 7964 7962 ] final  157.73 input  175.53 | X-H torsion
[ 8008 7997 7996 7995 ] final   35.60 input   59.86 | X-H torsion
[ 10167 10162 10161 10158 ] final   27.47 input  -65.29 | X-H torsion
[ 10718 10713 10712 10709 ] final   14.76 input   66.30 | X-H torsion
[ 10763 10752 10751 10750 ] final  157.48 input  -60.55 | X-H torsion
[ 11005 11000 10999 10996 ] final  171.59 input  -57.11 | X-H torsion

> <Gold.Protein.ActiveResidues>
 VAL166  LYS551  ARG553  GLY616  TRP617  ASP618  TYR619  PRO620  LYS621  CYS622 
 ASP623  PHE694  ASN695  SER759  ASP760  ASP761  ALA762  ILE779  LEU786  VAL792 
 PHE793  MET794  SER795  GLU796  ALA797  LYS798  CYS799  TRP800  GLU811  SER814 

> <Gold.Protein.RotatedAtoms>
  152.4754  133.8125  159.7010 H   0  0  0  0  0  0  0  0  0  0  0  0  # atno 6907 bound_to 6896
  150.8767  133.7419  159.2951 H   0  0  0  0  0  0  0  0  0  0  0  0  # atno 6908 bound_to 6896
  151.4936  135.1062  159.9862 H   0  0  0  0  0  0  0  0  0  0  0  0  # atno 6909 bound_to 6896
  144.7886  139.7381  143.6230 H   0  0  0  0  0  0  0  0  0  0  0  0  # atno 7974 bound_to 7965
  155.1737  140.3294  155.4388 H   0  0  0  0  0  0  0  0  0  0  0  0  # atno 8008 bound_to 7997
  156.2501  140.1939  156.6789 H   0  0  0  0  0  0  0  0  0  0  0  0  # atno 8009 bound_to 7997
  154.6320  140.0581  156.9729 H   0  0  0  0  0  0  0  0  0  0  0  0  # atno 8010 bound_to 7997
  140.4935  144.0428  150.6306 H   0  0  0  0  0  0  0  0  0  0  0  0  # atno 10167 bound_to 10162
  157.0438  130.6242  149.5755 H   0  0  0  0  0  0  0  0  0  0  0  0  # atno 10718 bound_to 10713
  154.2008  135.2790  155.2991 H   0  0  0  0  0  0  0  0  0  0  0  0  # atno 10763 bound_to 10752
  154.5855  135.5576  153.7231 H   0  0  0  0  0  0  0  0  0  0  0  0  # atno 10764 bound_to 10752
  153.0088  135.6355  154.2147 H   0  0  0  0  0  0  0  0  0  0  0  0  # atno 10765 bound_to 10752
  140.3206  134.7441  157.4061 H   0  0  0  0  0  0  0  0  0  0  0  0  # atno 11005 bound_to 11000
  146.2129  139.5497  142.9669 LP  0  0  0  0  0  0  0  0  0  0  0  0  # atno 17320 bound_to 7965
  145.5854  141.0377  143.2099 LP  0  0  0  0  0  0  0  0  0  0  0  0  # atno 17321 bound_to 7965
  140.3704  143.2857  152.0284 LP  0  0  0  0  0  0  0  0  0  0  0  0  # atno 17342 bound_to 10162
  139.4856  144.6234  151.7211 LP  0  0  0  0  0  0  0  0  0  0  0  0  # atno 17343 bound_to 10162
  156.0029  130.5112  150.7729 LP  0  0  0  0  0  0  0  0  0  0  0  0  # atno 17370 bound_to 10713
  157.5084  131.0923  151.0229 LP  0  0  0  0  0  0  0  0  0  0  0  0  # atno 17371 bound_to 10713
  140.0945  134.5556  155.8411 LP  0  0  0  0  0  0  0  0  0  0  0  0  # atno 17394 bound_to 11000
  141.2087  133.6677  156.6392 LP  0  0  0  0  0  0  0  0  0  0  0  0  # atno 17395 bound_to 11000

$$$$
