AV-unprocessed.smi:1231|AV-procd|sdf|5164|dock3
  -GOLD-   22720 4233D 1   1.00000     0.00000
 Structure written by MMmdl.
 43 44  0  0  0  0  0  0  0  0  2 V2000
  148.6015  141.6949  154.3994 C   0  0  0  0  0  0  0  0  0  0  0  0
  149.1567  140.3323  154.8286 C   0  0  1  0  0  0  0  0  0  0  0  0
  148.7559  139.2092  153.8498 C   0  0  0  0  0  0  0  0  0  0  0  0
  149.3719  137.9151  154.2322 N   0  3  2  0  0  0  0  0  0  0  0  0
  148.6930  137.2500  155.3756 C   0  0  0  0  0  0  0  0  0  0  0  0
  147.2667  136.7842  155.0237 C   0  0  0  0  0  0  0  0  0  0  0  0
  147.2303  136.1048  153.7336 N   0  0  0  0  0  0  0  0  0  0  0  0
  146.2646  135.2595  153.3442 C   0  0  0  0  0  0  0  0  0  0  0  0
  145.2936  134.9763  154.0468 O   0  0  0  0  0  0  0  0  0  0  0  0
  146.5010  134.7797  152.1105 N   0  0  0  0  0  0  0  0  0  0  0  0
  145.7052  133.8797  151.3527 C   0  0  0  0  0  0  0  0  0  0  0  0
  146.4281  132.9998  150.5158 C   0  0  0  0  0  0  0  0  0  0  0  0
  145.7303  132.0680  149.7230 C   0  0  0  0  0  0  0  0  0  0  0  0
  144.3258  132.0409  149.7870 C   0  0  0  0  0  0  0  0  0  0  0  0
  143.6833  132.9527  150.6446 C   0  0  0  0  0  0  0  0  0  0  0  0
  144.3500  133.8467  151.4051 N   0  0  0  0  0  0  0  0  0  0  0  0
  150.8416  138.0692  154.3848 C   0  0  0  0  0  0  0  0  0  0  0  0
  151.1985  139.2339  155.3336 C   0  0  1  0  0  0  0  0  0  0  0  0
  152.7097  139.4798  155.3949 C   0  0  0  0  0  0  0  0  0  0  0  0
  150.5766  140.4260  154.8657 O   0  0  0  0  0  0  0  0  0  0  0  0
  147.5120  141.6801  154.3590 H   0  0  0  0  0  0  0  0  0  0  0  0
  148.9694  141.9790  153.4130 H   0  0  0  0  0  0  0  0  0  0  0  0
  148.8967  142.4748  155.1018 H   0  0  0  0  0  0  0  0  0  0  0  0
  148.7837  140.1099  155.8297 H   0  0  0  0  0  0  0  0  0  0  0  0
  147.6711  139.1132  153.7886 H   0  0  0  0  0  0  0  0  0  0  0  0
  149.0959  139.4644  152.8450 H   0  0  0  0  0  0  0  0  0  0  0  0
  149.2954  136.4190  155.7420 H   0  0  0  0  0  0  0  0  0  0  0  0
  148.6173  137.9559  156.2038 H   0  0  0  0  0  0  0  0  0  0  0  0
  146.9035  136.0915  155.7832 H   0  0  0  0  0  0  0  0  0  0  0  0
  146.5639  137.6174  155.0036 H   0  0  0  0  0  0  0  0  0  0  0  0
  147.9942  136.2848  153.0982 H   0  0  0  0  0  0  0  0  0  0  0  0
  147.3478  135.0936  151.6598 H   0  0  0  0  0  0  0  0  0  0  0  0
  147.5075  133.0332  150.4792 H   0  0  0  0  0  0  0  0  0  0  0  0
  146.2643  131.3868  149.0771 H   0  0  0  0  0  0  0  0  0  0  0  0
  143.7557  131.3405  149.1948 H   0  0  0  0  0  0  0  0  0  0  0  0
  142.6061  132.9660  150.7221 H   0  0  0  0  0  0  0  0  0  0  0  0
  151.3025  137.1426  154.7245 H   0  0  0  0  0  0  0  0  0  0  0  0
  151.2601  138.2687  153.3974 H   0  0  0  0  0  0  0  0  0  0  0  0
  150.8497  139.0208  156.3449 H   0  0  0  0  0  0  0  0  0  0  0  0
  153.2368  138.5966  155.7569 H   0  0  0  0  0  0  0  0  0  0  0  0
  152.9425  140.3046  156.0689 H   0  0  0  0  0  0  0  0  0  0  0  0
  153.1105  139.7296  154.4120 H   0  0  0  0  0  0  0  0  0  0  0  0
  149.2264  137.2983  153.4457 H   0  0  0  0  0  0  0  0  0  0  0  0
  1  2  1  0  0  0  0
  1 21  1  0  0  0  0
  1 22  1  0  0  0  0
  1 23  1  0  0  0  0
  2 20  1  0  0  0  0
  2  3  1  0  0  0  0
  2 24  1  0  0  0  0
  3  4  1  0  0  0  0
  3 25  1  0  0  0  0
  3 26  1  0  0  0  0
  4  5  1  0  0  0  0
  4 17  1  0  0  0  0
  4 43  1  0  0  0  0
  5  6  1  0  0  0  0
  5 27  1  0  0  0  0
  5 28  1  0  0  0  0
  6  7  1  0  0  0  0
  6 29  1  0  0  0  0
  6 30  1  0  0  0  0
  7  8  1  0  0  0  0
  7 31  1  0  0  0  0
  8  9  2  0  0  0  0
  8 10  1  0  0  0  0
 10 11  1  0  0  0  0
 10 32  1  0  0  0  0
 11 16  1  0  0  0  0
 11 12  2  0  0  0  0
 12 13  1  0  0  0  0
 12 33  1  0  0  0  0
 13 14  2  0  0  0  0
 13 34  1  0  0  0  0
 14 15  1  0  0  0  0
 14 35  1  0  0  0  0
 15 16  2  0  0  0  0
 15 36  1  0  0  0  0
 17 18  1  0  0  0  0
 17 37  1  0  0  0  0
 17 38  1  0  0  0  0
 18 19  1  0  0  0  0
 18 20  1  0  0  0  0
 18 39  1  0  0  0  0
 19 40  1  0  0  0  0
 19 41  1  0  0  0  0
 19 42  1  0  0  0  0
M  CHG  1   4   1
M  END
> <s_m_source_file>
AV-unprocessed.smi

> <i_m_source_file_index>
1231

> <i_lp_mmshare_version>
43012

> <i_f3d_flags>
0

> <s_epik_input>
W0NIM11bQ0BASF0xW0NIMl1OKFtDSDJdW0NASF0oTzEpW0NIM10pW0NIMl1bQ0gyXVtOSF1DKD1PKVtOSF1jMltjSF1bY0hdW2NIXVtjSF1uMg==

> <s_epik_cmdline>
J2VwaWtfcHl0aG9uJywgJy1waCcsICc3LjAnLCAnLXRuJywgJzgnLCAnLW1hJywgJzIwMCcsICctbWV0YWxfYmluZGluZycsICctaW1hZScsICc8aW5maWxlLm1hZT4nLCAnLW9tYWUnLCAnPG91dGZpbGUubWFlPic=

> <r_epik_Ionization_Penalty>
0.602565

> <r_epik_Ionization_Penalty_Charging>
0.602531

> <r_epik_Ionization_Penalty_Neutral>
3.43186e-05

> <r_epik_State_Penalty>
0.617039

> <r_epik_Charging_Adjusted_Penalty>
1.21957

> <i_epik_Tot_Q>
1

> <i_epik_Tot_abs_Q>
1

> <r_epik_Metal_State_Penalty>
0.617041

> <b_epik_Metal_Only>
0

> <s_lp_Force_Field>
OPLS_2005

> <r_lp_Energy>
17.2402

> <b_lp_Chiralities_Consistent>
1

> <s_lp_Variant>
AV-unprocessed.smi:1231-5

> <Gold.Version>
5.8.1

> <Gold.Id.Protein>
6NUR|6NUR_protein|mol2

> <Gold.PLP.Fitness>
51.8404

> <Gold.PLP.PLP>
-35.0122

> <Gold.PLP.part.hbond>
-4.0000

> <Gold.PLP.part.metal>
0.0000

> <Gold.PLP.part.buried>
0.8521

> <Gold.PLP.part.nonpolar>
-31.6389

> <Gold.PLP.part.repulsive>
0.3090

> <Gold.PLP.ligand.clash>
0.0000

> <Gold.PLP.ligand.torsion>
0.4963

> <Gold.PLP.Chemscore.Hbond>
4.9280

> <Gold.PLP.Chemscore.CHOScore>
1.0000

> <Gold.PLP.Chemscore.Metal>
0.0000

> <Gold.Chemscore.Hbonds>
donor molecule, donor type, donor heavy atom, donor atom, acceptor molecule, acceptor atom, score
      L1  H     4    43       P1  7948  2.00
      L1  H     7    31       P1  7948  1.00
      L1  H    10    32       P1  7948  0.93
      P1  H  7989  7998       L1    20  1.00
      L1  C    15    36       P1 10186  0.98

> <Gold.PLP.Chemscore.Internal.Correction>
0.0368

> <Gold.Rescore>
     Score         DG    S(hbond)    S(metal)    S(lipo)     H(rot)  DE(clash)    DE(int)     intcor
     21.15     -23.54       3.59        0.00      85.92       1.55       1.18       1.21       ----

> <Gold.Chemscore.Fitness>
21.1516

> <Gold.Chemscore.DG>
-23.5422

> <Gold.Chemscore.ZeroCoef>
-5.4800

> <Gold.Chemscore.Hbond>
3.5897

> <Gold.Chemscore.Metal>
0.0000

> <Gold.Chemscore.Lipo>
85.9151

> <Gold.Chemscore.Internal_Hbond>
0.0000

> <Gold.Chemscore.DEClash>
1.1819

> <Gold.Chemscore.DEInternal>
1.2087

> <Gold.Chemscore.Rot>
1.5546

> <Gold.Chemscore.Internal.Correction>
   9.000000E+99

> <Gold.Chemscore.Hbonds>
donor molecule, donor type, donor heavy atom, donor atom, acceptor molecule, acceptor atom, score
      L1  H     4    43       P1  7948  0.99
      L1  H     7    31       P1  7948  0.97
      L1  H    10    32       P1  7948  0.76
      P1  H  7989  7998       L1    20  0.34

> <Gold.Chemscore.Hbond.Weighted>
-11.9898

> <Gold.Chemscore.Metal.Weighted>
-0.0000

> <Gold.Chemscore.Lipo.Weighted>
-10.0521

> <Gold.Chemscore.Internal_Hbond.Weighted>
0.0000

> <Gold.Chemscore.DEClash.Weighted>
1.1819

> <Gold.Chemscore.DEInternal.Weighted>
1.2087

> <Gold.Chemscore.Rot.Weighted>
3.9797

> <Gold.Chemscore.Internal.Correction.Weighted>
   9.000000E+99

> <Gold.Protein.RotatedTorsions>
[ 6907 6896 6895 6894 ] final  152.99 input  -60.11 | X-H torsion
[ 7974 7965 7964 7962 ] final -136.70 input  175.53 | X-H torsion
[ 8008 7997 7996 7995 ] final   12.76 input   59.86 | X-H torsion
[ 10167 10162 10161 10158 ] final  123.27 input  -65.29 | X-H torsion
[ 10718 10713 10712 10709 ] final  -79.15 input   66.30 | X-H torsion
[ 10763 10752 10751 10750 ] final  -44.53 input  -60.55 | X-H torsion
[ 11005 11000 10999 10996 ] final   76.96 input  -57.11 | X-H torsion

> <Gold.Protein.ActiveResidues>
 VAL166  LYS551  ARG553  GLY616  TRP617  ASP618  TYR619  PRO620  LYS621  CYS622 
 ASP623  PHE694  ASN695  SER759  ASP760  ASP761  ALA762  ILE779  LEU786  VAL792 
 PHE793  MET794  SER795  GLU796  ALA797  LYS798  CYS799  TRP800  GLU811  SER814 

> <Gold.Protein.RotatedAtoms>
  152.0789  133.4143  159.4492 H   0  0  0  0  0  0  0  0  0  0  0  0  # atno 6907 bound_to 6896
  150.6862  134.3005  159.4713 H   0  0  0  0  0  0  0  0  0  0  0  0  # atno 6908 bound_to 6896
  152.0845  134.9449  160.0623 H   0  0  0  0  0  0  0  0  0  0  0  0  # atno 6909 bound_to 6896
  144.8904  140.6634  143.5149 H   0  0  0  0  0  0  0  0  0  0  0  0  # atno 7974 bound_to 7965
  154.8251  140.2890  155.5760 H   0  0  0  0  0  0  0  0  0  0  0  0  # atno 8008 bound_to 7997
  156.3001  140.2542  156.3096 H   0  0  0  0  0  0  0  0  0  0  0  0  # atno 8009 bound_to 7997
  154.9294  140.0384  157.2029 H   0  0  0  0  0  0  0  0  0  0  0  0  # atno 8010 bound_to 7997
  139.5809  144.6986  151.3530 H   0  0  0  0  0  0  0  0  0  0  0  0  # atno 10167 bound_to 10162
  156.0100  130.4537  150.3604 H   0  0  0  0  0  0  0  0  0  0  0  0  # atno 10718 bound_to 10713
  154.0136  135.6678  153.4767 H   0  0  0  0  0  0  0  0  0  0  0  0  # atno 10763 bound_to 10752
  153.0610  135.5028  154.8090 H   0  0  0  0  0  0  0  0  0  0  0  0  # atno 10764 bound_to 10752
  154.6981  135.3073  154.9346 H   0  0  0  0  0  0  0  0  0  0  0  0  # atno 10765 bound_to 10752
  139.9275  134.7644  156.1462 H   0  0  0  0  0  0  0  0  0  0  0  0  # atno 11005 bound_to 11000
  145.3793  139.1640  143.4289 LP  0  0  0  0  0  0  0  0  0  0  0  0  # atno 17320 bound_to 7965
  146.3050  140.3872  142.8690 LP  0  0  0  0  0  0  0  0  0  0  0  0  # atno 17321 bound_to 7965
  140.7088  143.7445  150.7529 LP  0  0  0  0  0  0  0  0  0  0  0  0  # atno 17342 bound_to 10162
  140.0978  143.4817  152.2443 LP  0  0  0  0  0  0  0  0  0  0  0  0  # atno 17343 bound_to 10162
  157.1693  131.0364  151.2803 LP  0  0  0  0  0  0  0  0  0  0  0  0  # atno 17370 bound_to 10713
  157.4243  130.7455  149.6938 LP  0  0  0  0  0  0  0  0  0  0  0  0  # atno 17371 bound_to 10713
  141.0842  133.6741  156.2401 LP  0  0  0  0  0  0  0  0  0  0  0  0  # atno 17394 bound_to 11000
  140.6295  134.5279  157.5558 LP  0  0  0  0  0  0  0  0  0  0  0  0  # atno 17395 bound_to 11000

$$$$
