AV-unprocessed.smi:283|AV-procd|sdf|2156|dock10
  -GOLD-   2262021503D 1   1.00000     0.00000
 Structure written by MMmdl.
 48 51  0  0  0  0  0  0  0  0  1 V2000
  152.5239  139.8645  159.1545 C   0  0  0  0  0  0  0  0  0  0  0  0
  152.5626  141.2534  158.4917 C   0  0  1  0  0  0  0  0  0  0  0  0
  151.5044  141.3935  157.4918 N   0  0  0  0  0  0  0  0  0  0  0  0
  151.3154  140.4738  156.5197 C   0  0  0  0  0  0  0  0  0  0  0  0
  152.3636  139.8582  155.9130 N   0  0  0  0  0  0  0  0  0  0  0  0
  152.1444  138.9543  154.9535 C   0  0  0  0  0  0  0  0  0  0  0  0
  150.9801  138.5345  154.4532 N   0  0  0  0  0  0  0  0  0  0  0  0
  149.9242  139.1582  155.0516 C   0  0  0  0  0  0  0  0  0  0  0  0
  150.0087  140.1264  156.0901 C   0  0  0  0  0  0  0  0  0  0  0  0
  148.7331  140.5240  156.4663 N   0  0  0  0  0  0  0  0  0  0  0  0
  147.9446  139.8235  155.6964 C   0  0  0  0  0  0  0  0  0  0  0  0
  148.5791  138.9990  154.7895 N   0  0  0  0  0  0  0  0  0  0  0  0
  147.9797  138.0588  153.7860 C   0  0  1  0  0  0  0  0  0  0  0  0
  147.1047  137.2034  154.4641 O   0  0  0  0  0  0  0  0  0  0  0  0
  145.7445  137.5611  154.2264 C   0  0  1  0  0  0  0  0  0  0  0  0
  145.2523  138.5535  155.2980 C   0  0  0  0  0  0  0  0  0  0  0  0
  144.0277  139.1355  154.9048 O   0  0  0  0  0  0  0  0  0  0  0  0
  145.7787  138.1447  152.8118 C   0  0  2  0  0  0  0  0  0  0  0  0
  145.6321  137.0829  151.8837 O   0  0  0  0  0  0  0  0  0  0  0  0
  147.1453  138.8240  152.7388 C   0  0  2  0  0  0  0  0  0  0  0  0
  147.6949  138.7698  151.4358 O   0  0  0  0  0  0  0  0  0  0  0  0
  152.5046  142.3427  159.5612 C   0  0  0  0  0  0  0  0  0  0  0  0
  152.7343  142.0125  160.9178 C   0  0  0  0  0  0  0  0  0  0  0  0
  152.6923  143.0041  161.9159 C   0  0  0  0  0  0  0  0  0  0  0  0
  152.4250  144.3401  161.5684 C   0  0  0  0  0  0  0  0  0  0  0  0
  152.2069  144.6829  160.2214 C   0  0  0  0  0  0  0  0  0  0  0  0
  152.2497  143.6949  159.2172 C   0  0  0  0  0  0  0  0  0  0  0  0
  151.9936  144.1811  157.5774 Cl  0  0  0  0  0  0  0  0  0  0  0  0
  148.8309  137.5109  153.3799 H   0  0  0  0  0  0  0  0  0  0  0  0
  145.1301  136.6606  154.2783 H   0  0  0  0  0  0  0  0  0  0  0  0
  144.9681  138.8525  152.6355 H   0  0  0  0  0  0  0  0  0  0  0  0
  147.0414  139.8666  153.0433 H   0  0  0  0  0  0  0  0  0  0  0  0
  153.3420  139.7498  159.8661 H   0  0  0  0  0  0  0  0  0  0  0  0
  152.6171  139.0618  158.4238 H   0  0  0  0  0  0  0  0  0  0  0  0
  151.5902  139.7107  159.6964 H   0  0  0  0  0  0  0  0  0  0  0  0
  153.5095  141.3609  157.9644 H   0  0  0  0  0  0  0  0  0  0  0  0
  150.9073  142.2003  157.6019 H   0  0  0  0  0  0  0  0  0  0  0  0
  153.0277  138.5056  154.5235 H   0  0  0  0  0  0  0  0  0  0  0  0
  146.8697  139.8986  155.7717 H   0  0  0  0  0  0  0  0  0  0  0  0
  145.0890  138.0330  156.2417 H   0  0  0  0  0  0  0  0  0  0  0  0
  145.9823  139.3417  155.4840 H   0  0  0  0  0  0  0  0  0  0  0  0
  144.1963  139.7460  154.2033 H   0  0  0  0  0  0  0  0  0  0  0  0
  145.7929  137.4213  151.0161 H   0  0  0  0  0  0  0  0  0  0  0  0
  147.9606  137.8794  151.2628 H   0  0  0  0  0  0  0  0  0  0  0  0
  152.9502  140.9938  161.2046 H   0  0  0  0  0  0  0  0  0  0  0  0
  152.8676  142.7394  162.9483 H   0  0  0  0  0  0  0  0  0  0  0  0
  152.3919  145.1023  162.3328 H   0  0  0  0  0  0  0  0  0  0  0  0
  152.0083  145.7113  159.9572 H   0  0  0  0  0  0  0  0  0  0  0  0
  1  2  1  0  0  0  0
  1 33  1  0  0  0  0
  1 34  1  0  0  0  0
  1 35  1  0  0  0  0
  2  3  1  0  0  0  0
  2 22  1  0  0  0  0
  2 36  1  0  0  0  0
  3  4  1  0  0  0  0
  3 37  1  0  0  0  0
  4  9  1  0  0  0  0
  4  5  2  0  0  0  0
  5  6  1  0  0  0  0
  6  7  2  0  0  0  0
  6 38  1  0  0  0  0
  7  8  1  0  0  0  0
  8 12  1  0  0  0  0
  8  9  2  0  0  0  0
  9 10  1  0  0  0  0
 10 11  2  0  0  0  0
 11 12  1  0  0  0  0
 11 39  1  0  0  0  0
 12 13  1  0  0  0  0
 13 29  1  0  0  0  0
 13 20  1  0  0  0  0
 13 14  1  0  0  0  0
 14 15  1  0  0  0  0
 15 30  1  0  0  0  0
 15 16  1  0  0  0  0
 15 18  1  0  0  0  0
 16 17  1  0  0  0  0
 16 40  1  0  0  0  0
 16 41  1  0  0  0  0
 17 42  1  0  0  0  0
 18 31  1  0  0  0  0
 18 19  1  0  0  0  0
 18 20  1  0  0  0  0
 19 43  1  0  0  0  0
 20 32  1  0  0  0  0
 20 21  1  0  0  0  0
 21 44  1  0  0  0  0
 22 27  1  0  0  0  0
 22 23  2  0  0  0  0
 23 24  1  0  0  0  0
 23 45  1  0  0  0  0
 24 25  2  0  0  0  0
 24 46  1  0  0  0  0
 25 26  1  0  0  0  0
 25 47  1  0  0  0  0
 26 27  2  0  0  0  0
 26 48  1  0  0  0  0
 27 28  1  0  0  0  0
M  END
> <s_m_source_file>
AV-unprocessed.smi

> <i_m_source_file_index>
283

> <i_lp_mmshare_version>
43012

> <i_f3d_flags>
0

> <s_epik_input>
Q2xjMVtjSF1bY0hdW2NIXVtjSF1jMVtDQEhdKFtDSDNdKVtOSF1jKG5bY0hdbjIpYyhjMjMpbltjSF1uM1tDQEBIXTRPW0NASF0oW0NIMl1bT0hdKVtDQEBIXShbT0hdKVtDQEhdNFtPSF0=

> <s_epik_cmdline>
J2VwaWtfcHl0aG9uJywgJy1waCcsICc3LjAnLCAnLXRuJywgJzgnLCAnLW1hJywgJzIwMCcsICctbWV0YWxfYmluZGluZycsICctaW1hZScsICc8aW5maWxlLm1hZT4nLCAnLW9tYWUnLCAnPG91dGZpbGUubWFlPic=

> <r_lp_tautomer_probability>
1

> <r_epik_Ionization_Penalty>
0.000266407

> <r_epik_Ionization_Penalty_Charging>
0

> <r_epik_Ionization_Penalty_Neutral>
0.000266407

> <r_epik_State_Penalty>
-0

> <r_epik_Charging_Adjusted_Penalty>
0

> <i_epik_Tot_Q>
0

> <i_epik_Tot_abs_Q>
0

> <r_epik_Metal_State_Penalty>
-0

> <b_epik_Metal_Only>
0

> <s_epik_Chemistry_Notes>
This compound contains an acetal/aminal-like group ( X-CH(R)-Y where X, Y are N, S, or O) that may be acid/base labile, releasing an aldehyde.

> <s_lp_Force_Field>
OPLS_2005

> <r_lp_Energy>
46.4468

> <b_lp_Chiralities_Consistent>
1

> <s_lp_Variant>
AV-unprocessed.smi:283-32

> <Gold.Version>
5.8.1

> <Gold.Id.Protein>
6NUR|6NUR_protein|mol2

> <Gold.PLP.Fitness>
53.5535

> <Gold.PLP.PLP>
-46.2531

> <Gold.PLP.part.hbond>
-4.9516

> <Gold.PLP.part.metal>
0.0000

> <Gold.PLP.part.buried>
-0.2512

> <Gold.PLP.part.nonpolar>
-39.9220

> <Gold.PLP.part.repulsive>
0.3641

> <Gold.PLP.ligand.clash>
0.0000

> <Gold.PLP.ligand.torsion>
0.8355

> <Gold.PLP.Chemscore.Hbond>
2.9508

> <Gold.PLP.Chemscore.CHOScore>
0.0000

> <Gold.PLP.Chemscore.Metal>
0.0000

> <Gold.Chemscore.Hbonds>
donor molecule, donor type, donor heavy atom, donor atom, acceptor molecule, acceptor atom, score
      L1  H    17    42       P1 10175  0.96
      L1  H    21    44       P1  7948  0.99
      P1  H  7997  8009       L1     5  1.00

> <Gold.PLP.Chemscore.Internal.Correction>
0.1191

> <Gold.Rescore>
     Score         DG    S(hbond)    S(metal)    S(lipo)     H(rot)  DE(clash)    DE(int)     intcor
     13.17     -17.10       2.55        0.00     116.12       4.10       0.99       2.93       ----

> <Gold.Chemscore.Fitness>
13.1740

> <Gold.Chemscore.DG>
-17.0984

> <Gold.Chemscore.ZeroCoef>
-5.4800

> <Gold.Chemscore.Hbond>
2.5509

> <Gold.Chemscore.Metal>
0.0000

> <Gold.Chemscore.Lipo>
116.1209

> <Gold.Chemscore.Internal_Hbond>
0.0000

> <Gold.Chemscore.DEClash>
0.9929

> <Gold.Chemscore.DEInternal>
2.9314

> <Gold.Chemscore.Rot>
4.0968

> <Gold.Chemscore.Internal.Correction>
   9.000000E+99

> <Gold.Chemscore.Hbonds>
donor molecule, donor type, donor heavy atom, donor atom, acceptor molecule, acceptor atom, score
      L1  H    17    42       P1 10175  0.92
      L1  H    21    44       P1  7948  0.92
      P1  H  7997  8009       L1     5  0.81

> <Gold.Chemscore.Hbond.Weighted>
-8.5201

> <Gold.Chemscore.Metal.Weighted>
-0.0000

> <Gold.Chemscore.Lipo.Weighted>
-13.5861

> <Gold.Chemscore.Internal_Hbond.Weighted>
0.0000

> <Gold.Chemscore.DEClash.Weighted>
0.9929

> <Gold.Chemscore.DEInternal.Weighted>
2.9314

> <Gold.Chemscore.Rot.Weighted>
10.4879

> <Gold.Chemscore.Internal.Correction.Weighted>
   9.000000E+99

> <Gold.Protein.RotatedTorsions>
[ 6907 6896 6895 6894 ] final   72.66 input  -60.11 | X-H torsion
[ 7974 7965 7964 7962 ] final   90.97 input  175.53 | X-H torsion
[ 8008 7997 7996 7995 ] final -159.24 input   59.86 | X-H torsion
[ 10167 10162 10161 10158 ] final -153.57 input  -65.29 | X-H torsion
[ 10718 10713 10712 10709 ] final  113.15 input   66.30 | X-H torsion
[ 10763 10752 10751 10750 ] final -160.19 input  -60.55 | X-H torsion
[ 11005 11000 10999 10996 ] final  -76.80 input  -57.11 | X-H torsion

> <Gold.Protein.ActiveResidues>
 VAL166  LYS551  ARG553  GLY616  TRP617  ASP618  TYR619  PRO620  LYS621  CYS622 
 ASP623  PHE694  ASN695  SER759  ASP760  ASP761  ALA762  ILE779  LEU786  VAL792 
 PHE793  MET794  SER795  GLU796  ALA797  LYS798  CYS799  TRP800  GLU811  SER814 

> <Gold.Protein.RotatedAtoms>
  152.4880  134.4538  159.9582 H   0  0  0  0  0  0  0  0  0  0  0  0  # atno 6907 bound_to 6896
  151.4531  133.3606  159.2806 H   0  0  0  0  0  0  0  0  0  0  0  0  # atno 6908 bound_to 6896
  150.9008  134.8444  159.7419 H   0  0  0  0  0  0  0  0  0  0  0  0  # atno 6909 bound_to 6896
  145.5119  139.2277  143.2720 H   0  0  0  0  0  0  0  0  0  0  0  0  # atno 7974 bound_to 7965
  155.7596  140.0837  157.2161 H   0  0  0  0  0  0  0  0  0  0  0  0  # atno 8008 bound_to 7997
  154.4004  140.1545  156.2874 H   0  0  0  0  0  0  0  0  0  0  0  0  # atno 8009 bound_to 7997
  155.8852  140.3418  155.5919 H   0  0  0  0  0  0  0  0  0  0  0  0  # atno 8010 bound_to 7997
  139.7086  143.9145  152.2459 H   0  0  0  0  0  0  0  0  0  0  0  0  # atno 10167 bound_to 10162
  157.6354  131.0979  150.6999 H   0  0  0  0  0  0  0  0  0  0  0  0  # atno 10718 bound_to 10713
  154.7411  135.3069  154.8726 H   0  0  0  0  0  0  0  0  0  0  0  0  # atno 10763 bound_to 10752
  153.9540  135.6760  153.4748 H   0  0  0  0  0  0  0  0  0  0  0  0  # atno 10764 bound_to 10752
  153.1010  135.4912  154.8791 H   0  0  0  0  0  0  0  0  0  0  0  0  # atno 10765 bound_to 10752
  141.1656  133.6998  156.7724 H   0  0  0  0  0  0  0  0  0  0  0  0  # atno 11005 bound_to 11000
  146.2161  140.5926  142.9038 LP  0  0  0  0  0  0  0  0  0  0  0  0  # atno 17320 bound_to 7965
  144.7723  140.5663  143.6662 LP  0  0  0  0  0  0  0  0  0  0  0  0  # atno 17321 bound_to 7965
  139.9008  144.6913  150.8667 LP  0  0  0  0  0  0  0  0  0  0  0  0  # atno 17342 bound_to 10162
  140.7728  143.3515  151.2005 LP  0  0  0  0  0  0  0  0  0  0  0  0  # atno 17343 bound_to 10162
  156.7331  130.4716  149.5495 LP  0  0  0  0  0  0  0  0  0  0  0  0  # atno 17370 bound_to 10713
  156.1589  130.6360  151.0693 LP  0  0  0  0  0  0  0  0  0  0  0  0  # atno 17371 bound_to 10713
  140.2454  134.8581  157.3615 LP  0  0  0  0  0  0  0  0  0  0  0  0  # atno 17394 bound_to 11000
  140.1755  134.4555  155.7805 LP  0  0  0  0  0  0  0  0  0  0  0  0  # atno 17395 bound_to 11000

$$$$
