AV-unprocessed.smi:503|AV-procd|sdf|2746|dock8
  -GOLD-   2262023213D 1   1.00000     0.00000
 Structure written by MMmdl.
 44 45  0  0  0  0  0  0  0  0  1 V2000
  152.0249  139.0257  158.1120 O   0  0  0  0  0  0  0  0  0  0  0  0
  151.0374  139.7383  157.9256 C   0  0  0  0  0  0  0  0  0  0  0  0
  149.7275  139.1472  157.3849 C   0  0  0  0  0  0  0  0  0  0  0  0
  149.0230  140.0407  156.4500 N   0  0  0  0  0  0  0  0  0  0  0  0
  147.7241  140.4499  156.8109 C   0  0  0  0  0  0  0  0  0  0  0  0
  146.9700  141.2588  156.0419 C   0  0  0  0  0  0  0  0  0  0  0  0
  145.5952  141.7338  156.4867 C   0  0  0  0  0  0  0  0  0  0  0  0
  144.7580  140.7068  156.6350 F   0  0  0  0  0  0  0  0  0  0  0  0
  145.6914  142.3634  157.6569 F   0  0  0  0  0  0  0  0  0  0  0  0
  145.0668  142.5809  155.6024 F   0  0  0  0  0  0  0  0  0  0  0  0
  147.5766  141.7286  154.8119 C   0  0  0  0  0  0  0  0  0  0  0  0
  148.8228  141.3577  154.4580 C   0  0  0  0  0  0  0  0  0  0  0  0
  149.6234  140.4626  155.2967 C   0  0  0  0  0  0  0  0  0  0  0  0
  150.7622  140.1153  154.9832 O   0  0  0  0  0  0  0  0  0  0  0  0
  151.0305  141.0603  158.1553 N   0  0  0  0  0  0  0  0  0  0  0  0
  152.1560  141.8439  158.6607 C   0  0  0  0  0  0  0  0  0  0  0  0
  152.5176  141.3511  160.0786 C   0  0  0  0  0  0  0  0  0  0  0  0
  153.5324  142.2212  160.8475 C   0  0  0  0  0  0  0  0  0  0  0  0
  152.9090  143.1259  161.9304 C   0  0  0  0  0  0  0  0  0  0  0  0
  152.0442  144.3060  161.4410 C   0  0  0  0  0  0  0  0  0  0  0  0
  150.7034  143.9009  160.7947 C   0  0  0  0  0  0  0  0  0  0  0  0
  150.6699  143.9430  159.2544 C   0  0  0  0  0  0  0  0  0  0  0  0
  151.8899  143.3609  158.5133 C   0  0  0  0  0  0  0  0  0  0  0  0
  149.9370  138.1892  156.9048 H   0  0  0  0  0  0  0  0  0  0  0  0
  149.0876  138.9049  158.2345 H   0  0  0  0  0  0  0  0  0  0  0  0
  147.3831  140.0704  157.7633 H   0  0  0  0  0  0  0  0  0  0  0  0
  147.0210  142.3874  154.1609 H   0  0  0  0  0  0  0  0  0  0  0  0
  149.2424  141.7270  153.5336 H   0  0  0  0  0  0  0  0  0  0  0  0
  150.1770  141.5662  157.9670 H   0  0  0  0  0  0  0  0  0  0  0  0
  153.0255  141.6239  158.0378 H   0  0  0  0  0  0  0  0  0  0  0  0
  151.6241  141.1930  160.6811 H   0  0  0  0  0  0  0  0  0  0  0  0
  152.9452  140.3531  159.9706 H   0  0  0  0  0  0  0  0  0  0  0  0
  154.2194  141.5460  161.3589 H   0  0  0  0  0  0  0  0  0  0  0  0
  154.1621  142.7964  160.1689 H   0  0  0  0  0  0  0  0  0  0  0  0
  152.3307  142.5153  162.6249 H   0  0  0  0  0  0  0  0  0  0  0  0
  153.7251  143.5399  162.5236 H   0  0  0  0  0  0  0  0  0  0  0  0
  151.8132  144.9106  162.3187 H   0  0  0  0  0  0  0  0  0  0  0  0
  152.6160  144.9675  160.7902 H   0  0  0  0  0  0  0  0  0  0  0  0
  150.3806  142.9278  161.1612 H   0  0  0  0  0  0  0  0  0  0  0  0
  149.9340  144.5880  161.1482 H   0  0  0  0  0  0  0  0  0  0  0  0
  149.7577  143.4599  158.9028 H   0  0  0  0  0  0  0  0  0  0  0  0
  150.5771  144.9872  158.9535 H   0  0  0  0  0  0  0  0  0  0  0  0
  152.7852  143.9234  158.7722 H   0  0  0  0  0  0  0  0  0  0  0  0
  151.7508  143.5716  157.4521 H   0  0  0  0  0  0  0  0  0  0  0  0
  1  2  2  0  0  0  0
  2  3  1  0  0  0  0
  2 15  1  0  0  0  0
  3  4  1  0  0  0  0
  3 24  1  0  0  0  0
  3 25  1  0  0  0  0
  4 13  1  0  0  0  0
  4  5  1  0  0  0  0
  5  6  2  0  0  0  0
  5 26  1  0  0  0  0
  6  7  1  0  0  0  0
  6 11  1  0  0  0  0
  7  8  1  0  0  0  0
  7  9  1  0  0  0  0
  7 10  1  0  0  0  0
 11 12  2  0  0  0  0
 11 27  1  0  0  0  0
 12 13  1  0  0  0  0
 12 28  1  0  0  0  0
 13 14  2  0  0  0  0
 15 16  1  0  0  0  0
 15 29  1  0  0  0  0
 16 23  1  0  0  0  0
 16 17  1  0  0  0  0
 16 30  1  0  0  0  0
 17 18  1  0  0  0  0
 17 31  1  0  0  0  0
 17 32  1  0  0  0  0
 18 19  1  0  0  0  0
 18 33  1  0  0  0  0
 18 34  1  0  0  0  0
 19 20  1  0  0  0  0
 19 35  1  0  0  0  0
 19 36  1  0  0  0  0
 20 21  1  0  0  0  0
 20 37  1  0  0  0  0
 20 38  1  0  0  0  0
 21 22  1  0  0  0  0
 21 39  1  0  0  0  0
 21 40  1  0  0  0  0
 22 23  1  0  0  0  0
 22 41  1  0  0  0  0
 22 42  1  0  0  0  0
 23 43  1  0  0  0  0
 23 44  1  0  0  0  0
M  END
> <s_m_source_file>
AV-unprocessed.smi

> <i_m_source_file_index>
503

> <i_lp_mmshare_version>
43012

> <i_f3d_flags>
0

> <s_epik_input>
Tz1jMVtjSF1bY0hdYyhDKEYpKEYpRilbY0hdbjFbQ0gyXUMoPU8pW05IXVtDSF0yW0NIMl1bQ0gyXVtDSDJdW0NIMl1bQ0gyXVtDSDJdW0NIMl0y

> <s_epik_cmdline>
J2VwaWtfcHl0aG9uJywgJy1waCcsICc3LjAnLCAnLXRuJywgJzgnLCAnLW1hJywgJzIwMCcsICctbWV0YWxfYmluZGluZycsICctaW1hZScsICc8aW5maWxlLm1hZT4nLCAnLW9tYWUnLCAnPG91dGZpbGUubWFlPic=

> <r_lp_tautomer_probability>
1

> <r_epik_Ionization_Penalty>
3.93819e-08

> <r_epik_Ionization_Penalty_Charging>
1.9167e-08

> <r_epik_Ionization_Penalty_Neutral>
2.02148e-08

> <r_epik_State_Penalty>
-0

> <r_epik_Charging_Adjusted_Penalty>
1.9167e-08

> <i_epik_Tot_Q>
0

> <i_epik_Tot_abs_Q>
0

> <r_epik_Metal_State_Penalty>
-0

> <b_epik_Metal_Only>
0

> <s_lp_Force_Field>
OPLS_2005

> <r_lp_Energy>
31.4462

> <b_lp_Chiralities_Consistent>
1

> <s_lp_Variant>
AV-unprocessed.smi:503-1

> <Gold.Version>
5.8.1

> <Gold.Id.Protein>
6NUR|6NUR_protein|mol2

> <Gold.PLP.Fitness>
45.5433

> <Gold.PLP.PLP>
-43.2956

> <Gold.PLP.part.hbond>
-1.0000

> <Gold.PLP.part.metal>
0.0000

> <Gold.PLP.part.buried>
-2.0776

> <Gold.PLP.part.nonpolar>
-39.0726

> <Gold.PLP.part.repulsive>
0.1296

> <Gold.PLP.ligand.clash>
0.0000

> <Gold.PLP.ligand.torsion>
0.4204

> <Gold.PLP.Chemscore.Hbond>
1.0000

> <Gold.PLP.Chemscore.CHOScore>
0.0000

> <Gold.PLP.Chemscore.Metal>
0.0000

> <Gold.Chemscore.Hbonds>
donor molecule, donor type, donor heavy atom, donor atom, acceptor molecule, acceptor atom, score
      P1  H  7989  7998       L1    14  1.00

> <Gold.PLP.Chemscore.Internal.Correction>
0.0886

> <Gold.Rescore>
     Score         DG    S(hbond)    S(metal)    S(lipo)     H(rot)  DE(clash)    DE(int)     intcor
     14.17     -17.53       0.97        0.00     108.47       1.51       1.38       1.98       ----

> <Gold.Chemscore.Fitness>
14.1731

> <Gold.Chemscore.DG>
-17.5327

> <Gold.Chemscore.ZeroCoef>
-5.4800

> <Gold.Chemscore.Hbond>
0.9685

> <Gold.Chemscore.Metal>
0.0000

> <Gold.Chemscore.Lipo>
108.4723

> <Gold.Chemscore.Internal_Hbond>
0.0000

> <Gold.Chemscore.DEClash>
1.3805

> <Gold.Chemscore.DEInternal>
1.9791

> <Gold.Chemscore.Rot>
1.5131

> <Gold.Chemscore.Internal.Correction>
   9.000000E+99

> <Gold.Chemscore.Hbonds>
donor molecule, donor type, donor heavy atom, donor atom, acceptor molecule, acceptor atom, score
      P1  H  7989  7998       L1    14  0.98

> <Gold.Chemscore.Hbond.Weighted>
-3.2348

> <Gold.Chemscore.Metal.Weighted>
-0.0000

> <Gold.Chemscore.Lipo.Weighted>
-12.6913

> <Gold.Chemscore.Internal_Hbond.Weighted>
0.0000

> <Gold.Chemscore.DEClash.Weighted>
1.3805

> <Gold.Chemscore.DEInternal.Weighted>
1.9791

> <Gold.Chemscore.Rot.Weighted>
3.8734

> <Gold.Chemscore.Internal.Correction.Weighted>
   9.000000E+99

> <Gold.Protein.RotatedTorsions>
[ 6907 6896 6895 6894 ] final -117.02 input  -60.11 | X-H torsion
[ 7974 7965 7964 7962 ] final -126.66 input  175.53 | X-H torsion
[ 8008 7997 7996 7995 ] final   31.59 input   59.86 | X-H torsion
[ 10167 10162 10161 10158 ] final -115.18 input  -65.29 | X-H torsion
[ 10718 10713 10712 10709 ] final  140.18 input   66.30 | X-H torsion
[ 10763 10752 10751 10750 ] final  -41.98 input  -60.55 | X-H torsion
[ 11005 11000 10999 10996 ] final  132.04 input  -57.11 | X-H torsion

> <Gold.Protein.ActiveResidues>
 VAL166  LYS551  ARG553  GLY616  TRP617  ASP618  TYR619  PRO620  LYS621  CYS622 
 ASP623  PHE694  ASN695  SER759  ASP760  ASP761  ALA762  ILE779  LEU786  VAL792 
 PHE793  MET794  SER795  GLU796  ALA797  LYS798  CYS799  TRP800  GLU811  SER814 

> <Gold.Protein.RotatedAtoms>
  150.8103  133.8434  159.3185 H   0  0  0  0  0  0  0  0  0  0  0  0  # atno 6907 bound_to 6896
  151.6222  135.1029  160.0113 H   0  0  0  0  0  0  0  0  0  0  0  0  # atno 6908 bound_to 6896
  152.4195  133.7052  159.6504 H   0  0  0  0  0  0  0  0  0  0  0  0  # atno 6909 bound_to 6896
  144.9849  140.7677  143.4589 H   0  0  0  0  0  0  0  0  0  0  0  0  # atno 7974 bound_to 7965
  155.1089  140.3237  155.4527 H   0  0  0  0  0  0  0  0  0  0  0  0  # atno 8008 bound_to 7997
  156.2696  140.2047  156.6161 H   0  0  0  0  0  0  0  0  0  0  0  0  # atno 8009 bound_to 7997
  154.6772  140.0530  157.0214 H   0  0  0  0  0  0  0  0  0  0  0  0  # atno 8010 bound_to 7997
  140.0929  143.4683  152.1859 H   0  0  0  0  0  0  0  0  0  0  0  0  # atno 10167 bound_to 10162
  157.4061  131.1022  151.0502 H   0  0  0  0  0  0  0  0  0  0  0  0  # atno 10718 bound_to 10713
  153.9715  135.6728  153.4747 H   0  0  0  0  0  0  0  0  0  0  0  0  # atno 10763 bound_to 10752
  153.0790  135.4933  154.8461 H   0  0  0  0  0  0  0  0  0  0  0  0  # atno 10764 bound_to 10752
  154.7216  135.3118  154.8999 H   0  0  0  0  0  0  0  0  0  0  0  0  # atno 10765 bound_to 10752
  139.9766  134.9561  156.9524 H   0  0  0  0  0  0  0  0  0  0  0  0  # atno 11005 bound_to 11000
  145.2367  139.2090  143.5014 LP  0  0  0  0  0  0  0  0  0  0  0  0  # atno 17320 bound_to 7965
  146.3417  140.2255  142.8592 LP  0  0  0  0  0  0  0  0  0  0  0  0  # atno 17321 bound_to 7965
  139.5714  144.7465  151.3879 LP  0  0  0  0  0  0  0  0  0  0  0  0  # atno 17342 bound_to 10162
  140.7019  143.7610  150.7417 LP  0  0  0  0  0  0  0  0  0  0  0  0  # atno 17343 bound_to 10162
  157.1483  130.6173  149.5575 LP  0  0  0  0  0  0  0  0  0  0  0  0  # atno 17370 bound_to 10713
  155.9837  130.4858  150.6946 LP  0  0  0  0  0  0  0  0  0  0  0  0  # atno 17371 bound_to 10713
  140.5182  134.0933  155.7286 LP  0  0  0  0  0  0  0  0  0  0  0  0  # atno 17394 bound_to 11000
  141.1442  133.9084  157.2254 LP  0  0  0  0  0  0  0  0  0  0  0  0  # atno 17395 bound_to 11000

$$$$
