AV-unprocessed.smi:3249|AV-procd|sdf|12423|dock5
  -GOLD-   2272018313D 1   1.00000     0.00000
 Structure written by MMmdl.
 44 45  0  0  0  0  0  0  0  0  2 V2000
  146.5732  139.9263  153.4633 C   0  0  0  0  0  0  0  0  0  0  0  0
  147.9311  140.0825  154.0845 C   0  0  0  0  0  0  0  0  0  0  0  0
  148.5077  141.2577  154.6437 C   0  0  0  0  0  0  0  0  0  0  0  0
  149.7242  141.0548  155.1221 N   0  0  0  0  0  0  0  0  0  0  0  0
  149.9773  139.7521  154.8713 N   0  0  0  0  0  0  0  0  0  0  0  0
  151.2421  139.1670  155.3035 C   0  0  2  0  0  0  0  0  0  0  0  0
  151.3293  137.7050  154.8265 C   0  0  0  0  0  0  0  0  0  0  0  0
  151.4258  139.3321  156.8348 C   0  0  1  0  0  0  0  0  0  0  0  0
  152.7684  138.7676  157.3362 C   0  0  0  0  0  0  0  0  0  0  0  0
  151.3147  140.7641  157.2005 N   0  3  0  0  0  0  0  0  0  0  0  0
  151.1401  141.0408  158.6414 C   0  0  0  0  0  0  0  0  0  0  0  0
  151.5832  142.4707  158.9789 C   0  0  1  0  0  0  0  0  0  0  0  0
  151.0645  143.4923  157.9484 C   0  0  0  0  0  0  0  0  0  0  0  0
  151.4489  144.9175  158.3620 C   0  0  0  0  0  0  0  0  0  0  0  0
  150.9828  145.1825  159.7972 C   0  0  0  0  0  0  0  0  0  0  0  0
  151.4900  144.0771  160.7368 C   0  0  0  0  0  0  0  0  0  0  0  0
  151.0616  142.8033  160.2640 O   0  0  0  0  0  0  0  0  0  0  0  0
  148.9050  139.1397  154.2534 C   0  0  0  0  0  0  0  0  0  0  0  0
  146.0799  140.8879  153.3198 H   0  0  0  0  0  0  0  0  0  0  0  0
  145.9154  139.3174  154.0836 H   0  0  0  0  0  0  0  0  0  0  0  0
  146.6303  139.4468  152.4861 H   0  0  0  0  0  0  0  0  0  0  0  0
  148.0775  142.2454  154.7220 H   0  0  0  0  0  0  0  0  0  0  0  0
  152.0445  139.7141  154.8043 H   0  0  0  0  0  0  0  0  0  0  0  0
  152.3268  137.2919  154.9738 H   0  0  0  0  0  0  0  0  0  0  0  0
  151.1108  137.6294  153.7607 H   0  0  0  0  0  0  0  0  0  0  0  0
  150.6219  137.0665  155.3564 H   0  0  0  0  0  0  0  0  0  0  0  0
  150.6166  138.7905  157.3281 H   0  0  0  0  0  0  0  0  0  0  0  0
  152.8435  137.6945  157.1638 H   0  0  0  0  0  0  0  0  0  0  0  0
  152.8925  138.9176  158.4084 H   0  0  0  0  0  0  0  0  0  0  0  0
  153.6109  139.2457  156.8356 H   0  0  0  0  0  0  0  0  0  0  0  0
  152.1279  141.2571  156.8596 H   0  0  0  0  0  0  0  0  0  0  0  0
  150.0860  140.9182  158.8942 H   0  0  0  0  0  0  0  0  0  0  0  0
  151.7004  140.3208  159.2383 H   0  0  0  0  0  0  0  0  0  0  0  0
  152.6739  142.5080  159.0077 H   0  0  0  0  0  0  0  0  0  0  0  0
  151.4666  143.2716  156.9589 H   0  0  0  0  0  0  0  0  0  0  0  0
  149.9791  143.4162  157.8684 H   0  0  0  0  0  0  0  0  0  0  0  0
  152.5309  145.0398  158.2982 H   0  0  0  0  0  0  0  0  0  0  0  0
  151.0099  145.6447  157.6784 H   0  0  0  0  0  0  0  0  0  0  0  0
  151.3346  146.1576  160.1352 H   0  0  0  0  0  0  0  0  0  0  0  0
  149.8930  145.2145  159.8288 H   0  0  0  0  0  0  0  0  0  0  0  0
  152.5780  144.1011  160.8152 H   0  0  0  0  0  0  0  0  0  0  0  0
  151.0956  144.2303  161.7414 H   0  0  0  0  0  0  0  0  0  0  0  0
  148.9206  138.0922  153.9903 H   0  0  0  0  0  0  0  0  0  0  0  0
  150.5013  141.1318  156.7267 H   0  0  0  0  0  0  0  0  0  0  0  0
  1  2  1  0  0  0  0
  1 19  1  0  0  0  0
  1 20  1  0  0  0  0
  1 21  1  0  0  0  0
  2 18  2  0  0  0  0
  2  3  1  0  0  0  0
  3  4  2  0  0  0  0
  3 22  1  0  0  0  0
  4  5  1  0  0  0  0
  5  6  1  0  0  0  0
  5 18  1  0  0  0  0
  6  7  1  0  0  0  0
  6  8  1  0  0  0  0
  6 23  1  0  0  0  0
  7 24  1  0  0  0  0
  7 25  1  0  0  0  0
  7 26  1  0  0  0  0
  8  9  1  0  0  0  0
  8 10  1  0  0  0  0
  8 27  1  0  0  0  0
  9 28  1  0  0  0  0
  9 29  1  0  0  0  0
  9 30  1  0  0  0  0
 10 11  1  0  0  0  0
 10 31  1  0  0  0  0
 10 44  1  0  0  0  0
 11 12  1  0  0  0  0
 11 32  1  0  0  0  0
 11 33  1  0  0  0  0
 12 17  1  0  0  0  0
 12 13  1  0  0  0  0
 12 34  1  0  0  0  0
 13 14  1  0  0  0  0
 13 35  1  0  0  0  0
 13 36  1  0  0  0  0
 14 15  1  0  0  0  0
 14 37  1  0  0  0  0
 14 38  1  0  0  0  0
 15 16  1  0  0  0  0
 15 39  1  0  0  0  0
 15 40  1  0  0  0  0
 16 17  1  0  0  0  0
 16 41  1  0  0  0  0
 16 42  1  0  0  0  0
 18 43  1  0  0  0  0
M  CHG  1  10   1
M  END
> <s_m_source_file>
AV-unprocessed.smi

> <i_m_source_file_index>
3249

> <i_lp_mmshare_version>
43012

> <i_f3d_flags>
0

> <s_epik_input>
W0NIM11jMVtjSF1ubihbY0hdMSlbQ0BIXShbQ0gzXSlbQ0BIXShbQ0gzXSlbTkhdW0NIMl1bQ0BASF0yW0NIMl1bQ0gyXVtDSDJdW0NIMl1PMg==

> <s_epik_cmdline>
J2VwaWtfcHl0aG9uJywgJy1waCcsICc3LjAnLCAnLXRuJywgJzgnLCAnLW1hJywgJzIwMCcsICctbWV0YWxfYmluZGluZycsICctaW1hZScsICc8aW5maWxlLm1hZT4nLCAnLW9tYWUnLCAnPG91dGZpbGUubWFlPic=

> <r_lp_tautomer_probability>
1

> <r_epik_Ionization_Penalty>
0.00659207

> <r_epik_Ionization_Penalty_Charging>
0.00656881

> <r_epik_Ionization_Penalty_Neutral>
2.32662e-05

> <r_epik_State_Penalty>
0.0048654

> <r_epik_Charging_Adjusted_Penalty>
0.0114342

> <i_epik_Tot_Q>
1

> <i_epik_Tot_abs_Q>
1

> <r_epik_Metal_State_Penalty>
-0

> <b_epik_Metal_Only>
0

> <s_lp_Force_Field>
OPLS_2005

> <r_lp_Energy>
17.4327

> <b_lp_Chiralities_Consistent>
1

> <s_lp_Variant>
AV-unprocessed.smi:3249-7

> <Gold.Version>
5.8.1

> <Gold.Id.Protein>
6NUR|6NUR_protein|mol2

> <Gold.PLP.Fitness>
46.0826

> <Gold.PLP.PLP>
-43.6717

> <Gold.PLP.part.hbond>
-1.8356

> <Gold.PLP.part.metal>
0.0000

> <Gold.PLP.part.buried>
-0.6064

> <Gold.PLP.part.nonpolar>
-39.8407

> <Gold.PLP.part.repulsive>
0.2461

> <Gold.PLP.ligand.clash>
0.0000

> <Gold.PLP.ligand.torsion>
0.3491

> <Gold.PLP.Chemscore.Hbond>
0.0000

> <Gold.PLP.Chemscore.CHOScore>
1.0000

> <Gold.PLP.Chemscore.Metal>
0.0000

> <Gold.Chemscore.Hbonds>
donor molecule, donor type, donor heavy atom, donor atom, acceptor molecule, acceptor atom, score
      L1  C     3    22       P1  8028  0.47
      L1  C    18    43       P1  7948  0.30

> <Gold.PLP.Chemscore.Internal.Correction>
0.1091

> <Gold.Rescore>
     Score         DG    S(hbond)    S(metal)    S(lipo)     H(rot)  DE(clash)    DE(int)     intcor
     15.29     -15.84       0.00        0.00     122.06       1.53       0.14       0.40       ----

> <Gold.Chemscore.Fitness>
15.2911

> <Gold.Chemscore.DG>
-15.8355

> <Gold.Chemscore.ZeroCoef>
-5.4800

> <Gold.Chemscore.Hbond>
0.0000

> <Gold.Chemscore.Metal>
0.0000

> <Gold.Chemscore.Lipo>
122.0573

> <Gold.Chemscore.Internal_Hbond>
0.0000

> <Gold.Chemscore.DEClash>
0.1405

> <Gold.Chemscore.DEInternal>
0.4039

> <Gold.Chemscore.Rot>
1.5333

> <Gold.Chemscore.Internal.Correction>
   9.000000E+99

> <Gold.Chemscore.Hbond.Weighted>
-0.0000

> <Gold.Chemscore.Metal.Weighted>
-0.0000

> <Gold.Chemscore.Lipo.Weighted>
-14.2807

> <Gold.Chemscore.Internal_Hbond.Weighted>
0.0000

> <Gold.Chemscore.DEClash.Weighted>
0.1405

> <Gold.Chemscore.DEInternal.Weighted>
0.4039

> <Gold.Chemscore.Rot.Weighted>
3.9252

> <Gold.Chemscore.Internal.Correction.Weighted>
   9.000000E+99

> <Gold.Protein.RotatedTorsions>
[ 6907 6896 6895 6894 ] final  -37.82 input  -60.11 | X-H torsion
[ 7974 7965 7964 7962 ] final -161.32 input  175.53 | X-H torsion
[ 8008 7997 7996 7995 ] final  128.74 input   59.86 | X-H torsion
[ 10167 10162 10161 10158 ] final  -57.26 input  -65.29 | X-H torsion
[ 10718 10713 10712 10709 ] final -174.89 input   66.30 | X-H torsion
[ 10763 10752 10751 10750 ] final   -1.82 input  -60.55 | X-H torsion
[ 11005 11000 10999 10996 ] final -178.63 input  -57.11 | X-H torsion

> <Gold.Protein.ActiveResidues>
 VAL166  LYS551  ARG553  GLY616  TRP617  ASP618  TYR619  PRO620  LYS621  CYS622 
 ASP623  PHE694  ASN695  SER759  ASP760  ASP761  ALA762  ILE779  LEU786  VAL792 
 PHE793  MET794  SER795  GLU796  ALA797  LYS798  CYS799  TRP800  GLU811  SER814 

> <Gold.Protein.RotatedAtoms>
  151.0100  134.9389  159.8001 H   0  0  0  0  0  0  0  0  0  0  0  0  # atno 6907 bound_to 6896
  152.5300  134.3041  159.9099 H   0  0  0  0  0  0  0  0  0  0  0  0  # atno 6908 bound_to 6896
  151.3047  133.4065  159.2676 H   0  0  0  0  0  0  0  0  0  0  0  0  # atno 6909 bound_to 6896
  144.7395  140.3414  143.6134 H   0  0  0  0  0  0  0  0  0  0  0  0  # atno 7974 bound_to 7965
  156.2921  140.2637  156.2485 H   0  0  0  0  0  0  0  0  0  0  0  0  # atno 8008 bound_to 7997
  154.9906  140.0388  157.2336 H   0  0  0  0  0  0  0  0  0  0  0  0  # atno 8009 bound_to 7997
  154.7689  140.2774  155.6158 H   0  0  0  0  0  0  0  0  0  0  0  0  # atno 8010 bound_to 7997
  140.6268  143.2442  151.5342 H   0  0  0  0  0  0  0  0  0  0  0  0  # atno 10167 bound_to 10162
  156.7918  130.9521  151.3120 H   0  0  0  0  0  0  0  0  0  0  0  0  # atno 10718 bound_to 10713
  153.3499  135.6985  153.6797 H   0  0  0  0  0  0  0  0  0  0  0  0  # atno 10763 bound_to 10752
  153.5528  135.3550  155.2767 H   0  0  0  0  0  0  0  0  0  0  0  0  # atno 10764 bound_to 10752
  154.8651  135.4230  154.2732 H   0  0  0  0  0  0  0  0  0  0  0  0  # atno 10765 bound_to 10752
  140.4276  134.6548  157.4696 H   0  0  0  0  0  0  0  0  0  0  0  0  # atno 11005 bound_to 11000
  145.7370  139.1753  143.2398 LP  0  0  0  0  0  0  0  0  0  0  0  0  # atno 17320 bound_to 7965
  146.1163  140.7365  142.9479 LP  0  0  0  0  0  0  0  0  0  0  0  0  # atno 17321 bound_to 7965
  139.5487  144.2451  152.1491 LP  0  0  0  0  0  0  0  0  0  0  0  0  # atno 17342 bound_to 10162
  140.1685  144.4958  150.6593 LP  0  0  0  0  0  0  0  0  0  0  0  0  # atno 17343 bound_to 10162
  157.6596  130.8955  149.9803 LP  0  0  0  0  0  0  0  0  0  0  0  0  # atno 17370 bound_to 10713
  156.1154  130.3648  149.9977 LP  0  0  0  0  0  0  0  0  0  0  0  0  # atno 17371 bound_to 10713
  140.0156  134.6624  155.9314 LP  0  0  0  0  0  0  0  0  0  0  0  0  # atno 17394 bound_to 11000
  141.1759  133.6540  156.4826 LP  0  0  0  0  0  0  0  0  0  0  0  0  # atno 17395 bound_to 11000

$$$$
