AV-unprocessed.smi:275|AV-procd|sdf|2069|dock5
  -GOLD-   2262021323D 1   1.00000     0.00000
 Structure written by MMmdl.
 65 69  0  0  0  0  0  0  0  0  1 V2000
  147.7037  142.9459  158.4487 C   0  0  0  0  0  0  0  0  0  0  0  0
  148.5605  142.1198  157.4749 C   0  0  0  0  0  0  0  0  0  0  0  0
  147.6363  141.1114  156.7651 C   0  0  0  0  0  0  0  0  0  0  0  0
  149.7643  141.4141  158.1533 C   0  0  1  0  0  0  0  0  0  0  0  0
  150.1124  140.2542  157.3278 N   0  0  0  0  0  0  0  0  0  0  0  0
  150.3106  139.0041  158.0013 C   0  0  0  0  0  0  0  0  0  0  0  0
  151.5805  138.5556  158.1980 N   0  0  0  0  0  0  0  0  0  0  0  0
  151.8264  137.3940  158.8089 C   0  0  0  0  0  0  0  0  0  0  0  0
  150.9569  136.5089  159.2929 N   0  0  0  0  0  0  0  0  0  0  0  0
  149.6767  136.9225  159.0818 C   0  0  0  0  0  0  0  0  0  0  0  0
  149.2702  138.1337  158.4486 C   0  0  0  0  0  0  0  0  0  0  0  0
  147.8811  138.1869  158.4078 N   0  0  0  0  0  0  0  0  0  0  0  0
  147.4919  137.0869  158.9902 C   0  0  0  0  0  0  0  0  0  0  0  0
  148.5072  136.2723  159.4324 N   0  0  0  0  0  0  0  0  0  0  0  0
  148.3655  134.9963  160.1115 C   0  0  0  0  0  0  0  0  0  0  0  0
  147.5847  133.9435  159.2854 C   0  0  1  0  0  0  0  0  0  0  0  0
  148.4664  132.7495  158.8444 C   0  0  0  0  0  0  0  0  0  0  0  0
  149.6999  133.1868  158.3116 O   0  0  0  0  0  0  0  0  0  0  0  0
  146.2995  133.4851  160.0196 C   0  0  1  0  0  0  0  0  0  0  0  0
  146.5208  132.9711  161.4312 C   0  0  0  0  0  0  0  0  0  0  0  0
  145.1194  133.0537  162.0263 C   0  0  0  0  0  0  0  0  0  0  0  0
  144.5048  134.1757  161.4036 O   0  0  0  0  0  0  0  0  0  0  0  0
  145.2796  134.5976  160.2854 C   0  0  0  0  0  0  0  0  0  0  0  0
  151.2969  140.9182  156.7974 C   0  0  0  0  0  0  0  0  0  0  0  0
  151.2532  141.8619  158.0080 C   0  0  0  0  0  0  0  0  0  0  0  0
  152.2075  141.4486  159.1552 C   0  0  0  0  0  0  0  0  0  0  0  0
  152.1193  142.3520  160.3935 C   0  0  0  0  0  0  0  0  0  0  0  0
  152.4493  143.8003  160.0272 C   0  0  0  0  0  0  0  0  0  0  0  0
  151.5338  144.2816  158.9000 C   0  0  0  0  0  0  0  0  0  0  0  0
  151.5802  143.3340  157.6826 C   0  0  0  0  0  0  0  0  0  0  0  0
  147.4830  142.3874  159.3588 H   0  0  0  0  0  0  0  0  0  0  0  0
  146.7512  143.2244  157.9968 H   0  0  0  0  0  0  0  0  0  0  0  0
  148.1835  143.8820  158.7218 H   0  0  0  0  0  0  0  0  0  0  0  0
  148.9251  142.8102  156.7125 H   0  0  0  0  0  0  0  0  0  0  0  0
  147.1846  140.4211  157.4778 H   0  0  0  0  0  0  0  0  0  0  0  0
  148.1707  140.5210  156.0209 H   0  0  0  0  0  0  0  0  0  0  0  0
  146.8257  141.6201  156.2428 H   0  0  0  0  0  0  0  0  0  0  0  0
  149.5590  141.1644  159.1932 H   0  0  0  0  0  0  0  0  0  0  0  0
  152.8692  137.1378  158.9240 H   0  0  0  0  0  0  0  0  0  0  0  0
  146.4477  136.8411  159.1185 H   0  0  0  0  0  0  0  0  0  0  0  0
  149.3618  134.6221  160.3510 H   0  0  0  0  0  0  0  0  0  0  0  0
  147.8691  135.1826  161.0642 H   0  0  0  0  0  0  0  0  0  0  0  0
  147.2673  134.4384  158.3664 H   0  0  0  0  0  0  0  0  0  0  0  0
  148.6655  132.0827  159.6830 H   0  0  0  0  0  0  0  0  0  0  0  0
  147.9576  132.1412  158.0965 H   0  0  0  0  0  0  0  0  0  0  0  0
  149.5261  133.7192  157.5501 H   0  0  0  0  0  0  0  0  0  0  0  0
  145.8110  132.6971  159.4438 H   0  0  0  0  0  0  0  0  0  0  0  0
  146.9269  131.9596  161.4637 H   0  0  0  0  0  0  0  0  0  0  0  0
  147.1987  133.6298  161.9765 H   0  0  0  0  0  0  0  0  0  0  0  0
  144.5458  132.1605  161.7751 H   0  0  0  0  0  0  0  0  0  0  0  0
  145.1312  133.1561  163.1119 H   0  0  0  0  0  0  0  0  0  0  0  0
  145.7815  135.5290  160.5513 H   0  0  0  0  0  0  0  0  0  0  0  0
  144.6432  134.7929  159.4220 H   0  0  0  0  0  0  0  0  0  0  0  0
  152.2109  140.3294  156.7199 H   0  0  0  0  0  0  0  0  0  0  0  0
  151.0746  141.4212  155.8553 H   0  0  0  0  0  0  0  0  0  0  0  0
  152.0159  140.4250  159.4740 H   0  0  0  0  0  0  0  0  0  0  0  0
  153.2368  141.4450  158.7940 H   0  0  0  0  0  0  0  0  0  0  0  0
  151.1180  142.2953  160.8221 H   0  0  0  0  0  0  0  0  0  0  0  0
  152.8074  141.9987  161.1617 H   0  0  0  0  0  0  0  0  0  0  0  0
  152.3422  144.4442  160.9006 H   0  0  0  0  0  0  0  0  0  0  0  0
  153.4909  143.8719  159.7115 H   0  0  0  0  0  0  0  0  0  0  0  0
  150.5228  144.3536  159.2947 H   0  0  0  0  0  0  0  0  0  0  0  0
  151.8169  145.2898  158.5964 H   0  0  0  0  0  0  0  0  0  0  0  0
  152.5795  143.3894  157.2487 H   0  0  0  0  0  0  0  0  0  0  0  0
  150.9213  143.7087  156.9003 H   0  0  0  0  0  0  0  0  0  0  0  0
  1  2  1  0  0  0  0
  1 31  1  0  0  0  0
  1 32  1  0  0  0  0
  1 33  1  0  0  0  0
  2  3  1  0  0  0  0
  2  4  1  0  0  0  0
  2 34  1  0  0  0  0
  3 35  1  0  0  0  0
  3 36  1  0  0  0  0
  3 37  1  0  0  0  0
  4 25  1  0  0  0  0
  4  5  1  0  0  0  0
  4 38  1  0  0  0  0
  5  6  1  0  0  0  0
  5 24  1  0  0  0  0
  6 11  1  0  0  0  0
  6  7  2  0  0  0  0
  7  8  1  0  0  0  0
  8  9  2  0  0  0  0
  8 39  1  0  0  0  0
  9 10  1  0  0  0  0
 10 14  1  0  0  0  0
 10 11  2  0  0  0  0
 11 12  1  0  0  0  0
 12 13  2  0  0  0  0
 13 14  1  0  0  0  0
 13 40  1  0  0  0  0
 14 15  1  0  0  0  0
 15 16  1  0  0  0  0
 15 41  1  0  0  0  0
 15 42  1  0  0  0  0
 16 17  1  0  0  0  0
 16 19  1  0  0  0  0
 16 43  1  0  0  0  0
 17 18  1  0  0  0  0
 17 44  1  0  0  0  0
 17 45  1  0  0  0  0
 18 46  1  0  0  0  0
 19 23  1  0  0  0  0
 19 20  1  0  0  0  0
 19 47  1  0  0  0  0
 20 21  1  0  0  0  0
 20 48  1  0  0  0  0
 20 49  1  0  0  0  0
 21 22  1  0  0  0  0
 21 50  1  0  0  0  0
 21 51  1  0  0  0  0
 22 23  1  0  0  0  0
 23 52  1  0  0  0  0
 23 53  1  0  0  0  0
 24 25  1  0  0  0  0
 24 54  1  0  0  0  0
 24 55  1  0  0  0  0
 25 30  1  0  0  0  0
 25 26  1  0  0  0  0
 26 27  1  0  0  0  0
 26 56  1  0  0  0  0
 26 57  1  0  0  0  0
 27 28  1  0  0  0  0
 27 58  1  0  0  0  0
 27 59  1  0  0  0  0
 28 29  1  0  0  0  0
 28 60  1  0  0  0  0
 28 61  1  0  0  0  0
 29 30  1  0  0  0  0
 29 62  1  0  0  0  0
 29 63  1  0  0  0  0
 30 64  1  0  0  0  0
 30 65  1  0  0  0  0
M  END
> <s_m_source_file>
AV-unprocessed.smi

> <i_m_source_file_index>
275

> <i_lp_mmshare_version>
43012

> <i_f3d_flags>
0

> <s_epik_input>
W0NIMl0xW0NIMl1bQ0gyXVtDSDJdW0NIMl1DMTJbQ0BIXShbQ0hdKFtDSDNdKVtDSDNdKU4oW0NIMl0yKWMobltjSF1uMyljKGMzNCluW2NIXW40W0NIMl1bQ0BIXShbQ0gyXVtPSF0pW0NAQEhdNVtDSDJdW0NIMl1PW0NIMl01

> <s_epik_cmdline>
J2VwaWtfcHl0aG9uJywgJy1waCcsICc3LjAnLCAnLXRuJywgJzgnLCAnLW1hJywgJzIwMCcsICctbWV0YWxfYmluZGluZycsICctaW1hZScsICc8aW5maWxlLm1hZT4nLCAnLW9tYWUnLCAnPG91dGZpbGUubWFlPic=

> <r_lp_tautomer_probability>
1

> <r_epik_Ionization_Penalty>
0.00375122

> <r_epik_Ionization_Penalty_Charging>
0

> <r_epik_Ionization_Penalty_Neutral>
0.00375122

> <r_epik_State_Penalty>
0.00260593

> <r_epik_Charging_Adjusted_Penalty>
0.00260593

> <i_epik_Tot_Q>
0

> <i_epik_Tot_abs_Q>
0

> <r_epik_Metal_State_Penalty>
-0

> <b_epik_Metal_Only>
0

> <s_lp_Force_Field>
OPLS_2005

> <r_lp_Energy>
68.7999

> <b_lp_Chiralities_Consistent>
1

> <s_lp_Variant>
AV-unprocessed.smi:275-8

> <Gold.Version>
5.8.1

> <Gold.Id.Protein>
6NUR|6NUR_protein|mol2

> <Gold.PLP.Fitness>
46.8103

> <Gold.PLP.PLP>
-44.5736

> <Gold.PLP.part.hbond>
-3.0000

> <Gold.PLP.part.metal>
0.0000

> <Gold.PLP.part.buried>
-4.6211

> <Gold.PLP.part.nonpolar>
-36.8732

> <Gold.PLP.part.repulsive>
0.0374

> <Gold.PLP.ligand.clash>
0.0000

> <Gold.PLP.ligand.torsion>
2.1214

> <Gold.PLP.Chemscore.Hbond>
2.0000

> <Gold.PLP.Chemscore.CHOScore>
0.0000

> <Gold.PLP.Chemscore.Metal>
0.0000

> <Gold.Chemscore.Hbonds>
donor molecule, donor type, donor heavy atom, donor atom, acceptor molecule, acceptor atom, score
      P1  H  6896  6907       L1     9  1.00
      P1  H  6896  6909       L1    18  1.00

> <Gold.PLP.Chemscore.Internal.Correction>
0.4795

> <Gold.Rescore>
     Score         DG    S(hbond)    S(metal)    S(lipo)     H(rot)  DE(clash)    DE(int)     intcor
     16.97     -19.50       1.84        0.00     122.68       2.54       0.77       1.76       ----

> <Gold.Chemscore.Fitness>
16.9711

> <Gold.Chemscore.DG>
-19.4989

> <Gold.Chemscore.ZeroCoef>
-5.4800

> <Gold.Chemscore.Hbond>
1.8449

> <Gold.Chemscore.Metal>
0.0000

> <Gold.Chemscore.Lipo>
122.6801

> <Gold.Chemscore.Internal_Hbond>
0.0000

> <Gold.Chemscore.DEClash>
0.7701

> <Gold.Chemscore.DEInternal>
1.7577

> <Gold.Chemscore.Rot>
2.5377

> <Gold.Chemscore.Internal.Correction>
   9.000000E+99

> <Gold.Chemscore.Hbonds>
donor molecule, donor type, donor heavy atom, donor atom, acceptor molecule, acceptor atom, score
      P1  H  6896  6907       L1     9  0.93
      P1  H  6896  6909       L1    18  0.93

> <Gold.Chemscore.Hbond.Weighted>
-6.1619

> <Gold.Chemscore.Metal.Weighted>
-0.0000

> <Gold.Chemscore.Lipo.Weighted>
-14.3536

> <Gold.Chemscore.Internal_Hbond.Weighted>
0.0000

> <Gold.Chemscore.DEClash.Weighted>
0.7701

> <Gold.Chemscore.DEInternal.Weighted>
1.7577

> <Gold.Chemscore.Rot.Weighted>
6.4966

> <Gold.Chemscore.Internal.Correction.Weighted>
   9.000000E+99

> <Gold.Protein.RotatedTorsions>
[ 6907 6896 6895 6894 ] final  -14.46 input  -60.11 | X-H torsion
[ 7974 7965 7964 7962 ] final   70.29 input  175.53 | X-H torsion
[ 8008 7997 7996 7995 ] final  -67.18 input   59.86 | X-H torsion
[ 10167 10162 10161 10158 ] final -150.07 input  -65.29 | X-H torsion
[ 10718 10713 10712 10709 ] final -102.03 input   66.30 | X-H torsion
[ 10763 10752 10751 10750 ] final  136.33 input  -60.55 | X-H torsion
[ 11005 11000 10999 10996 ] final  -39.98 input  -57.11 | X-H torsion

> <Gold.Protein.ActiveResidues>
 VAL166  LYS551  ARG553  GLY616  TRP617  ASP618  TYR619  PRO620  LYS621  CYS622 
 ASP623  PHE694  ASN695  SER759  ASP760  ASP761  ALA762  ILE779  LEU786  VAL792 
 PHE793  MET794  SER795  GLU796  ALA797  LYS798  CYS799  TRP800  GLU811  SER814 

> <Gold.Protein.RotatedAtoms>
  151.3390  135.0859  159.9364 H   0  0  0  0  0  0  0  0  0  0  0  0  # atno 6907 bound_to 6896
  152.5216  133.9466  159.7662 H   0  0  0  0  0  0  0  0  0  0  0  0  # atno 6908 bound_to 6896
  150.9819  133.6183  159.2751 H   0  0  0  0  0  0  0  0  0  0  0  0  # atno 6909 bound_to 6896
  145.7800  139.2883  143.1271 H   0  0  0  0  0  0  0  0  0  0  0  0  # atno 7974 bound_to 7965
  154.4783  140.0898  156.7316 H   0  0  0  0  0  0  0  0  0  0  0  0  # atno 8008 bound_to 7997
  155.4538  140.3458  155.4286 H   0  0  0  0  0  0  0  0  0  0  0  0  # atno 8009 bound_to 7997
  156.1151  140.1458  156.9272 H   0  0  0  0  0  0  0  0  0  0  0  0  # atno 8010 bound_to 7997
  139.7386  143.8697  152.2556 H   0  0  0  0  0  0  0  0  0  0  0  0  # atno 10167 bound_to 10162
  156.0214  130.5401  150.7049 H   0  0  0  0  0  0  0  0  0  0  0  0  # atno 10718 bound_to 10713
  153.8547  135.3075  155.3434 H   0  0  0  0  0  0  0  0  0  0  0  0  # atno 10763 bound_to 10752
  154.7875  135.4801  153.9982 H   0  0  0  0  0  0  0  0  0  0  0  0  # atno 10764 bound_to 10752
  153.1497  135.6840  153.8994 H   0  0  0  0  0  0  0  0  0  0  0  0  # atno 10765 bound_to 10752
  141.0141  133.6893  156.2259 H   0  0  0  0  0  0  0  0  0  0  0  0  # atno 11005 bound_to 11000
  146.0084  140.8458  142.9983 LP  0  0  0  0  0  0  0  0  0  0  0  0  # atno 17320 bound_to 7965
  144.6798  140.2453  143.7338 LP  0  0  0  0  0  0  0  0  0  0  0  0  # atno 17321 bound_to 7965
  139.8641  144.7102  150.9065 LP  0  0  0  0  0  0  0  0  0  0  0  0  # atno 17342 bound_to 10162
  140.7782  143.3793  151.1506 LP  0  0  0  0  0  0  0  0  0  0  0  0  # atno 17343 bound_to 10162
  157.4701  131.0892  151.0652 LP  0  0  0  0  0  0  0  0  0  0  0  0  # atno 17370 bound_to 10713
  157.1115  130.6023  149.5483 LP  0  0  0  0  0  0  0  0  0  0  0  0  # atno 17371 bound_to 10713
  140.6684  134.4894  157.5586 LP  0  0  0  0  0  0  0  0  0  0  0  0  # atno 17394 bound_to 11000
  139.9107  134.8351  156.1540 LP  0  0  0  0  0  0  0  0  0  0  0  0  # atno 17395 bound_to 11000

$$$$
