AV-unprocessed.smi:144|AV-procd|sdf|1196|dock2
  -GOLD-   2262018353D 1   1.00000     0.00000
 Structure written by MMmdl.
 46 48  0  0  0  0  0  0  0  0  1 V2000
  149.7960  132.1781  155.6521 O   0  0  0  0  0  0  0  0  0  0  0  0
  149.7045  133.2625  155.0786 C   0  0  0  0  0  0  0  0  0  0  0  0
  150.5517  134.4386  155.5994 C   0  0  0  0  0  0  0  0  0  0  0  0
  149.8429  135.7368  155.6847 N   0  0  0  0  0  0  0  0  0  0  0  0
  148.5615  135.7752  156.2893 C   0  0  0  0  0  0  0  0  0  0  0  0
  148.0375  134.7548  156.7379 O   0  0  0  0  0  0  0  0  0  0  0  0
  147.9184  137.0839  156.3219 C   0  0  0  0  0  0  0  0  0  0  0  0
  146.6989  137.2126  156.8713 F   0  0  0  0  0  0  0  0  0  0  0  0
  148.5252  138.1689  155.7987 C   0  0  0  0  0  0  0  0  0  0  0  0
  149.7758  138.1166  155.2103 N   0  0  0  0  0  0  0  0  0  0  0  0
  150.4218  139.3497  154.6170 C   0  0  1  0  0  0  0  0  0  0  0  0
  149.4213  140.5109  154.5926 C   0  0  0  0  0  0  0  0  0  0  0  0
  149.7237  141.2078  155.9012 C   0  0  0  0  0  0  0  0  0  0  0  0
  151.2318  141.0117  156.0117 C   0  0  0  0  0  0  0  0  0  0  0  0
  151.4956  139.7392  155.4247 O   0  0  0  0  0  0  0  0  0  0  0  0
  150.4603  136.8847  155.1328 C   0  0  0  0  0  0  0  0  0  0  0  0
  151.5609  136.8095  154.5822 O   0  0  0  0  0  0  0  0  0  0  0  0
  148.8896  133.4946  154.0300 N   0  0  0  0  0  0  0  0  0  0  0  0
  148.0199  132.5934  153.3603 C   0  0  0  0  0  0  0  0  0  0  0  0
  147.0932  133.1473  152.4544 C   0  0  0  0  0  0  0  0  0  0  0  0
  146.2063  132.3189  151.7340 C   0  0  0  0  0  0  0  0  0  0  0  0
  145.1918  132.9164  150.7706 C   0  0  0  0  0  0  0  0  0  0  0  0
  145.3815  132.4347  149.5417 F   0  0  0  0  0  0  0  0  0  0  0  0
  143.9632  132.5946  151.1732 F   0  0  0  0  0  0  0  0  0  0  0  0
  145.2909  134.2453  150.7177 F   0  0  0  0  0  0  0  0  0  0  0  0
  146.2541  130.9222  151.9248 C   0  0  0  0  0  0  0  0  0  0  0  0
  147.1912  130.3506  152.8121 C   0  0  0  0  0  0  0  0  0  0  0  0
  147.2663  128.8445  153.0154 C   0  0  0  0  0  0  0  0  0  0  0  0
  148.4964  128.4148  152.7338 F   0  0  0  0  0  0  0  0  0  0  0  0
  146.9912  128.5561  154.2871 F   0  0  0  0  0  0  0  0  0  0  0  0
  146.4040  128.1909  152.2359 F   0  0  0  0  0  0  0  0  0  0  0  0
  148.0743  131.1892  153.5235 C   0  0  0  0  0  0  0  0  0  0  0  0
  150.9596  134.1551  156.5709 H   0  0  0  0  0  0  0  0  0  0  0  0
  151.4355  134.5241  154.9653 H   0  0  0  0  0  0  0  0  0  0  0  0
  147.9965  139.1094  155.8431 H   0  0  0  0  0  0  0  0  0  0  0  0
  150.7886  139.0567  153.6319 H   0  0  0  0  0  0  0  0  0  0  0  0
  149.6623  141.1597  153.7495 H   0  0  0  0  0  0  0  0  0  0  0  0
  148.3888  140.1727  154.4953 H   0  0  0  0  0  0  0  0  0  0  0  0
  149.4284  142.2572  155.9067 H   0  0  0  0  0  0  0  0  0  0  0  0
  149.2145  140.7049  156.7242 H   0  0  0  0  0  0  0  0  0  0  0  0
  151.7558  141.7759  155.4363 H   0  0  0  0  0  0  0  0  0  0  0  0
  151.5870  141.0587  157.0414 H   0  0  0  0  0  0  0  0  0  0  0  0
  148.8424  134.4536  153.7178 H   0  0  0  0  0  0  0  0  0  0  0  0
  147.0592  134.2189  152.3209 H   0  0  0  0  0  0  0  0  0  0  0  0
  145.5674  130.2923  151.3794 H   0  0  0  0  0  0  0  0  0  0  0  0
  148.7960  130.7313  154.1821 H   0  0  0  0  0  0  0  0  0  0  0  0
  1  2  2  0  0  0  0
  2  3  1  0  0  0  0
  2 18  1  0  0  0  0
  3  4  1  0  0  0  0
  3 33  1  0  0  0  0
  3 34  1  0  0  0  0
  4 16  1  0  0  0  0
  4  5  1  0  0  0  0
  5  6  2  0  0  0  0
  5  7  1  0  0  0  0
  7  8  1  0  0  0  0
  7  9  2  0  0  0  0
  9 10  1  0  0  0  0
  9 35  1  0  0  0  0
 10 11  1  0  0  0  0
 10 16  1  0  0  0  0
 11 15  1  0  0  0  0
 11 12  1  0  0  0  0
 11 36  1  0  0  0  0
 12 13  1  0  0  0  0
 12 37  1  0  0  0  0
 12 38  1  0  0  0  0
 13 14  1  0  0  0  0
 13 39  1  0  0  0  0
 13 40  1  0  0  0  0
 14 15  1  0  0  0  0
 14 41  1  0  0  0  0
 14 42  1  0  0  0  0
 16 17  2  0  0  0  0
 18 19  1  0  0  0  0
 18 43  1  0  0  0  0
 19 32  1  0  0  0  0
 19 20  2  0  0  0  0
 20 21  1  0  0  0  0
 20 44  1  0  0  0  0
 21 22  1  0  0  0  0
 21 26  2  0  0  0  0
 22 23  1  0  0  0  0
 22 24  1  0  0  0  0
 22 25  1  0  0  0  0
 26 27  1  0  0  0  0
 26 45  1  0  0  0  0
 27 28  1  0  0  0  0
 27 32  2  0  0  0  0
 28 29  1  0  0  0  0
 28 30  1  0  0  0  0
 28 31  1  0  0  0  0
 32 46  1  0  0  0  0
M  END
> <s_m_source_file>
AV-unprocessed.smi

> <i_m_source_file_index>
144

> <i_lp_mmshare_version>
43012

> <i_f3d_flags>
0

> <s_epik_input>
RkMoRikoRiljKFtjSF0xKVtjSF1jKEMoRikoRilGKVtjSF1jMVtOSF1DKD1PKVtDSDJdbjJjKD1PKWMoRilbY0hdbihjMj1PKVtDQEBIXTNbQ0gyXVtDSDJdW0NIMl1PMw==

> <s_epik_cmdline>
J2VwaWtfcHl0aG9uJywgJy1waCcsICc3LjAnLCAnLXRuJywgJzgnLCAnLW1hJywgJzIwMCcsICctbWV0YWxfYmluZGluZycsICctaW1hZScsICc8aW5maWxlLm1hZT4nLCAnLW9tYWUnLCAnPG91dGZpbGUubWFlPic=

> <r_lp_tautomer_probability>
1

> <r_epik_Ionization_Penalty>
3.68082e-06

> <r_epik_Ionization_Penalty_Charging>
3.88729e-08

> <r_epik_Ionization_Penalty_Neutral>
3.64194e-06

> <r_epik_State_Penalty>
-0

> <r_epik_Charging_Adjusted_Penalty>
3.88729e-08

> <i_epik_Tot_Q>
0

> <i_epik_Tot_abs_Q>
0

> <r_epik_Metal_State_Penalty>
-0

> <b_epik_Metal_Only>
0

> <s_epik_Chemistry_Notes>
This compound contains an acetal/aminal-like group ( X-CH(R)-Y where X, Y are N, S, or O) that may be acid/base labile, releasing an aldehyde.

> <s_lp_Force_Field>
OPLS_2005

> <r_lp_Energy>
36.4766

> <b_lp_Chiralities_Consistent>
1

> <s_lp_Variant>
AV-unprocessed.smi:144-2

> <Gold.Version>
5.8.1

> <Gold.Id.Protein>
6NUR|6NUR_protein|mol2

> <Gold.PLP.Fitness>
53.6405

> <Gold.PLP.PLP>
-51.7437

> <Gold.PLP.part.hbond>
-1.7851

> <Gold.PLP.part.metal>
0.0000

> <Gold.PLP.part.buried>
-6.1402

> <Gold.PLP.part.nonpolar>
-43.2128

> <Gold.PLP.part.repulsive>
0.1848

> <Gold.PLP.ligand.clash>
0.6123

> <Gold.PLP.ligand.torsion>
0.6064

> <Gold.PLP.Chemscore.Hbond>
1.0000

> <Gold.PLP.Chemscore.CHOScore>
0.0000

> <Gold.PLP.Chemscore.Metal>
0.0000

> <Gold.Chemscore.Hbonds>
donor molecule, donor type, donor heavy atom, donor atom, acceptor molecule, acceptor atom, score
      P1  H 10752 10765       L1    17  1.00

> <Gold.PLP.Chemscore.Internal.Correction>
0.7219

> <Gold.Rescore>
     Score         DG    S(hbond)    S(metal)    S(lipo)     H(rot)  DE(clash)    DE(int)     intcor
      9.93     -13.50       1.00        0.00      80.08       1.83       0.23       3.34       ----

> <Gold.Chemscore.Fitness>
9.9286

> <Gold.Chemscore.DG>
-13.4966

> <Gold.Chemscore.ZeroCoef>
-5.4800

> <Gold.Chemscore.Hbond>
0.9997

> <Gold.Chemscore.Metal>
0.0000

> <Gold.Chemscore.Lipo>
80.0750

> <Gold.Chemscore.Internal_Hbond>
0.0000

> <Gold.Chemscore.DEClash>
0.2281

> <Gold.Chemscore.DEInternal>
3.3399

> <Gold.Chemscore.Rot>
1.8325

> <Gold.Chemscore.Internal.Correction>
   9.000000E+99

> <Gold.Chemscore.Hbonds>
donor molecule, donor type, donor heavy atom, donor atom, acceptor molecule, acceptor atom, score
      P1  H 10752 10765       L1    17  1.00

> <Gold.Chemscore.Hbond.Weighted>
-3.3389

> <Gold.Chemscore.Metal.Weighted>
-0.0000

> <Gold.Chemscore.Lipo.Weighted>
-9.3688

> <Gold.Chemscore.Internal_Hbond.Weighted>
0.0000

> <Gold.Chemscore.DEClash.Weighted>
0.2281

> <Gold.Chemscore.DEInternal.Weighted>
3.3399

> <Gold.Chemscore.Rot.Weighted>
4.6911

> <Gold.Chemscore.Internal.Correction.Weighted>
   9.000000E+99

> <Gold.Protein.RotatedTorsions>
[ 6907 6896 6895 6894 ] final  -59.80 input  -60.11 | X-H torsion
[ 7974 7965 7964 7962 ] final   91.51 input  175.53 | X-H torsion
[ 8008 7997 7996 7995 ] final   80.72 input   59.86 | X-H torsion
[ 10167 10162 10161 10158 ] final  -19.10 input  -65.29 | X-H torsion
[ 10718 10713 10712 10709 ] final  111.09 input   66.30 | X-H torsion
[ 10763 10752 10751 10750 ] final  172.50 input  -60.55 | X-H torsion
[ 11005 11000 10999 10996 ] final  -77.54 input  -57.11 | X-H torsion

> <Gold.Protein.ActiveResidues>
 VAL166  LYS551  ARG553  GLY616  TRP617  ASP618  TYR619  PRO620  LYS621  CYS622 
 ASP623  PHE694  ASN695  SER759  ASP760  ASP761  ALA762  ILE779  LEU786  VAL792 
 PHE793  MET794  SER795  GLU796  ALA797  LYS798  CYS799  TRP800  GLU811  SER814 

> <Gold.Protein.RotatedAtoms>
  150.7903  134.6921  159.6502 H   0  0  0  0  0  0  0  0  0  0  0  0  # atno 6907 bound_to 6896
  152.4008  134.6287  160.0079 H   0  0  0  0  0  0  0  0  0  0  0  0  # atno 6908 bound_to 6896
  151.6559  133.3282  159.3199 H   0  0  0  0  0  0  0  0  0  0  0  0  # atno 6909 bound_to 6896
  145.5046  139.2276  143.2758 H   0  0  0  0  0  0  0  0  0  0  0  0  # atno 7974 bound_to 7965
  155.8873  140.3441  155.5931 H   0  0  0  0  0  0  0  0  0  0  0  0  # atno 8008 bound_to 7997
  155.7651  140.0838  157.2155 H   0  0  0  0  0  0  0  0  0  0  0  0  # atno 8009 bound_to 7997
  154.4030  140.1528  156.2864 H   0  0  0  0  0  0  0  0  0  0  0  0  # atno 8010 bound_to 7997
  140.7265  143.4852  151.0065 H   0  0  0  0  0  0  0  0  0  0  0  0  # atno 10167 bound_to 10162
  157.6462  131.0944  150.6698 H   0  0  0  0  0  0  0  0  0  0  0  0  # atno 10718 bound_to 10713
  154.4269  135.2759  155.1938 H   0  0  0  0  0  0  0  0  0  0  0  0  # atno 10763 bound_to 10752
  154.3860  135.6077  153.5820 H   0  0  0  0  0  0  0  0  0  0  0  0  # atno 10764 bound_to 10752
  152.9835  135.5892  154.4574 H   0  0  0  0  0  0  0  0  0  0  0  0  # atno 10765 bound_to 10752
  141.1661  133.7026  156.7835 H   0  0  0  0  0  0  0  0  0  0  0  0  # atno 11005 bound_to 11000
  146.2204  140.5849  142.9019 LP  0  0  0  0  0  0  0  0  0  0  0  0  # atno 17320 bound_to 7965
  144.7761  140.5742  143.6637 LP  0  0  0  0  0  0  0  0  0  0  0  0  # atno 17321 bound_to 7965
  139.8553  143.7385  152.3176 LP  0  0  0  0  0  0  0  0  0  0  0  0  # atno 17342 bound_to 10162
  139.7581  144.7514  151.0404 LP  0  0  0  0  0  0  0  0  0  0  0  0  # atno 17343 bound_to 10162
  156.7015  130.4624  149.5572 LP  0  0  0  0  0  0  0  0  0  0  0  0  # atno 17370 bound_to 10713
  156.1792  130.6488  151.0931 LP  0  0  0  0  0  0  0  0  0  0  0  0  # atno 17371 bound_to 10713
  140.2377  134.8637  157.3541 LP  0  0  0  0  0  0  0  0  0  0  0  0  # atno 17394 bound_to 11000
  140.1827  134.4469  155.7762 LP  0  0  0  0  0  0  0  0  0  0  0  0  # atno 17395 bound_to 11000

$$$$
