AV-unprocessed.smi:3164|AV-procd|sdf|12083|dock3
  -GOLD-   2272017513D 1   1.00000     0.00000
 Structure written by MMmdl.
 39 40  0  0  0  0  0  0  0  0  2 V2000
  151.2712  141.5037  156.4130 C   0  0  0  0  0  0  0  0  0  0  0  0
  151.0544  140.5702  155.3176 N   0  0  0  0  0  0  0  0  0  0  0  0
  151.7771  139.3224  155.5247 C   0  0  0  0  0  0  0  0  0  0  0  0
  151.5367  138.3303  154.3743 C   0  0  0  0  0  0  0  0  0  0  0  0
  150.1374  138.1092  154.2196 O   0  0  0  0  0  0  0  0  0  0  0  0
  149.4064  139.3054  153.9561 C   0  0  1  0  0  0  0  0  0  0  0  0
  147.9244  138.9400  153.7962 C   0  0  0  0  0  0  0  0  0  0  0  0
  147.6184  138.5713  152.4003 N   0  3  0  0  0  0  0  0  0  0  0  0
  146.2469  138.0630  152.1953 C   0  0  0  0  0  0  0  0  0  0  0  0
  146.1973  137.0039  151.0826 C   0  0  0  0  0  0  0  0  0  0  0  0
  145.2328  135.8707  151.3861 C   0  0  0  0  0  0  0  0  0  0  0  0
  145.1369  134.7544  150.5275 C   0  0  0  0  0  0  0  0  0  0  0  0
  144.2191  133.7360  150.8511 C   0  0  0  0  0  0  0  0  0  0  0  0
  143.4360  133.8736  152.0132 C   0  0  0  0  0  0  0  0  0  0  0  0
  143.6062  135.0274  152.8039 C   0  0  0  0  0  0  0  0  0  0  0  0
  144.4824  136.0100  152.5017 N   0  0  0  0  0  0  0  0  0  0  0  0
  149.6382  140.2895  155.1206 C   0  0  0  0  0  0  0  0  0  0  0  0
  152.3331  141.7236  156.5289 H   0  0  0  0  0  0  0  0  0  0  0  0
  150.9039  141.0976  157.3565 H   0  0  0  0  0  0  0  0  0  0  0  0
  150.7562  142.4464  156.2254 H   0  0  0  0  0  0  0  0  0  0  0  0
  152.8454  139.5233  155.6152 H   0  0  0  0  0  0  0  0  0  0  0  0
  151.4650  138.8651  156.4650 H   0  0  0  0  0  0  0  0  0  0  0  0
  151.9576  138.7099  153.4419 H   0  0  0  0  0  0  0  0  0  0  0  0
  152.0273  137.3797  154.5836 H   0  0  0  0  0  0  0  0  0  0  0  0
  149.7691  139.7530  153.0285 H   0  0  0  0  0  0  0  0  0  0  0  0
  147.6611  138.1163  154.4612 H   0  0  0  0  0  0  0  0  0  0  0  0
  147.3038  139.7923  154.0760 H   0  0  0  0  0  0  0  0  0  0  0  0
  147.7450  139.3867  151.8175 H   0  0  0  0  0  0  0  0  0  0  0  0
  145.8832  137.6309  153.1283 H   0  0  0  0  0  0  0  0  0  0  0  0
  145.5858  138.8953  151.9498 H   0  0  0  0  0  0  0  0  0  0  0  0
  145.9230  137.4718  150.1362 H   0  0  0  0  0  0  0  0  0  0  0  0
  147.1929  136.5837  150.9338 H   0  0  0  0  0  0  0  0  0  0  0  0
  145.7509  134.6760  149.6423 H   0  0  0  0  0  0  0  0  0  0  0  0
  144.1176  132.8656  150.2198 H   0  0  0  0  0  0  0  0  0  0  0  0
  142.7231  133.1122  152.2939 H   0  0  0  0  0  0  0  0  0  0  0  0
  143.0225  135.1653  153.7018 H   0  0  0  0  0  0  0  0  0  0  0  0
  149.2142  139.8746  156.0368 H   0  0  0  0  0  0  0  0  0  0  0  0
  149.1039  141.2197  154.9234 H   0  0  0  0  0  0  0  0  0  0  0  0
  148.2743  137.8609  152.1076 H   0  0  0  0  0  0  0  0  0  0  0  0
  1  2  1  0  0  0  0
  1 18  1  0  0  0  0
  1 19  1  0  0  0  0
  1 20  1  0  0  0  0
  2 17  1  0  0  0  0
  2  3  1  0  0  0  0
  3  4  1  0  0  0  0
  3 21  1  0  0  0  0
  3 22  1  0  0  0  0
  4  5  1  0  0  0  0
  4 23  1  0  0  0  0
  4 24  1  0  0  0  0
  5  6  1  0  0  0  0
  6  7  1  0  0  0  0
  6 17  1  0  0  0  0
  6 25  1  0  0  0  0
  7  8  1  0  0  0  0
  7 26  1  0  0  0  0
  7 27  1  0  0  0  0
  8  9  1  0  0  0  0
  8 28  1  0  0  0  0
  8 39  1  0  0  0  0
  9 10  1  0  0  0  0
  9 29  1  0  0  0  0
  9 30  1  0  0  0  0
 10 11  1  0  0  0  0
 10 31  1  0  0  0  0
 10 32  1  0  0  0  0
 11 16  1  0  0  0  0
 11 12  2  0  0  0  0
 12 13  1  0  0  0  0
 12 33  1  0  0  0  0
 13 14  2  0  0  0  0
 13 34  1  0  0  0  0
 14 15  1  0  0  0  0
 14 35  1  0  0  0  0
 15 16  2  0  0  0  0
 15 36  1  0  0  0  0
 17 37  1  0  0  0  0
 17 38  1  0  0  0  0
M  CHG  1   8   1
M  END
> <s_m_source_file>
AV-unprocessed.smi

> <i_m_source_file_index>
3164

> <i_lp_mmshare_version>
43012

> <i_f3d_flags>
0

> <s_epik_input>
W0NIM11OMVtDSDJdW0NIMl1PW0NASF0oW0NIMl0xKVtDSDJdW05IXVtDSDJdW0NIMl1jMltjSF1bY0hdW2NIXVtjSF1uMg==

> <s_epik_cmdline>
J2VwaWtfcHl0aG9uJywgJy1waCcsICc3LjAnLCAnLXRuJywgJzgnLCAnLW1hJywgJzIwMCcsICctbWV0YWxfYmluZGluZycsICctaW1hZScsICc8aW5maWxlLm1hZT4nLCAnLW9tYWUnLCAnPG91dGZpbGUubWFlPic=

> <r_epik_Ionization_Penalty>
0.584284

> <r_epik_Ionization_Penalty_Charging>
0.00270218

> <r_epik_Ionization_Penalty_Neutral>
0.581582

> <r_epik_State_Penalty>
0.593163

> <r_epik_Charging_Adjusted_Penalty>
0.595865

> <i_epik_Tot_Q>
1

> <i_epik_Tot_abs_Q>
1

> <r_epik_Metal_State_Penalty>
0.593163

> <b_epik_Metal_Only>
0

> <s_lp_Force_Field>
OPLS_2005

> <r_lp_Energy>
22.7337

> <b_lp_Chiralities_Consistent>
1

> <s_lp_Variant>
AV-unprocessed.smi:3164-5

> <Gold.Version>
5.8.1

> <Gold.Id.Protein>
6NUR|6NUR_protein|mol2

> <Gold.PLP.Fitness>
41.6819

> <Gold.PLP.PLP>
-32.9393

> <Gold.PLP.part.hbond>
-3.0000

> <Gold.PLP.part.metal>
0.0000

> <Gold.PLP.part.buried>
0.2576

> <Gold.PLP.part.nonpolar>
-30.6988

> <Gold.PLP.part.repulsive>
0.4818

> <Gold.PLP.ligand.clash>
0.0000

> <Gold.PLP.ligand.torsion>
0.8375

> <Gold.PLP.Chemscore.Hbond>
3.4560

> <Gold.PLP.Chemscore.CHOScore>
0.0000

> <Gold.PLP.Chemscore.Metal>
0.0000

> <Gold.Chemscore.Hbonds>
donor molecule, donor type, donor heavy atom, donor atom, acceptor molecule, acceptor atom, score
      L1  H     8    28       P1  7957  0.46
      L1  H     8    39       P1  7948  2.00
      P1  H  7989  7998       L1     2  0.78

> <Gold.PLP.Chemscore.Internal.Correction>
0.0497

> <Gold.Rescore>
     Score         DG    S(hbond)    S(metal)    S(lipo)     H(rot)  DE(clash)    DE(int)     intcor
     15.23     -17.33       1.77        0.00      85.25       1.57       1.27       0.84       ----

> <Gold.Chemscore.Fitness>
15.2296

> <Gold.Chemscore.DG>
-17.3314

> <Gold.Chemscore.ZeroCoef>
-5.4800

> <Gold.Chemscore.Hbond>
1.7675

> <Gold.Chemscore.Metal>
0.0000

> <Gold.Chemscore.Lipo>
85.2451

> <Gold.Chemscore.Internal_Hbond>
0.0000

> <Gold.Chemscore.DEClash>
1.2652

> <Gold.Chemscore.DEInternal>
0.8365

> <Gold.Chemscore.Rot>
1.5726

> <Gold.Chemscore.Internal.Correction>
   9.000000E+99

> <Gold.Chemscore.Hbonds>
donor molecule, donor type, donor heavy atom, donor atom, acceptor molecule, acceptor atom, score
      L1  H     8    28       P1  7957  0.44
      L1  H     8    39       P1  7948  1.00
      P1  H  7989  7998       L1     2  0.05

> <Gold.Chemscore.Hbond.Weighted>
-5.9036

> <Gold.Chemscore.Metal.Weighted>
-0.0000

> <Gold.Chemscore.Lipo.Weighted>
-9.9737

> <Gold.Chemscore.Internal_Hbond.Weighted>
0.0000

> <Gold.Chemscore.DEClash.Weighted>
1.2652

> <Gold.Chemscore.DEInternal.Weighted>
0.8365

> <Gold.Chemscore.Rot.Weighted>
4.0259

> <Gold.Chemscore.Internal.Correction.Weighted>
   9.000000E+99

> <Gold.Protein.RotatedTorsions>
[ 6907 6896 6895 6894 ] final  150.67 input  -60.11 | X-H torsion
[ 7974 7965 7964 7962 ] final  101.07 input  175.53 | X-H torsion
[ 8008 7997 7996 7995 ] final   80.42 input   59.86 | X-H torsion
[ 10167 10162 10161 10158 ] final -110.18 input  -65.29 | X-H torsion
[ 10718 10713 10712 10709 ] final  -20.09 input   66.30 | X-H torsion
[ 10763 10752 10751 10750 ] final -110.50 input  -60.55 | X-H torsion
[ 11005 11000 10999 10996 ] final  -79.75 input  -57.11 | X-H torsion

> <Gold.Protein.ActiveResidues>
 VAL166  LYS551  ARG553  GLY616  TRP617  ASP618  TYR619  PRO620  LYS621  CYS622 
 ASP623  PHE694  ASN695  SER759  ASP760  ASP761  ALA762  ILE779  LEU786  VAL792 
 PHE793  MET794  SER795  GLU796  ALA797  LYS798  CYS799  TRP800  GLU811  SER814 

> <Gold.Protein.RotatedAtoms>
  152.1111  133.4301  159.4631 H   0  0  0  0  0  0  0  0  0  0  0  0  # atno 6907 bound_to 6896
  150.6867  134.2646  159.4572 H   0  0  0  0  0  0  0  0  0  0  0  0  # atno 6908 bound_to 6896
  152.0515  134.9650  160.0625 H   0  0  0  0  0  0  0  0  0  0  0  0  # atno 6909 bound_to 6896
  145.3771  139.2387  143.3423 H   0  0  0  0  0  0  0  0  0  0  0  0  # atno 7974 bound_to 7965
  155.8832  140.3443  155.5903 H   0  0  0  0  0  0  0  0  0  0  0  0  # atno 8008 bound_to 7997
  155.7696  140.0843  157.2134 H   0  0  0  0  0  0  0  0  0  0  0  0  # atno 8009 bound_to 7997
  154.4026  140.1521  156.2913 H   0  0  0  0  0  0  0  0  0  0  0  0  # atno 8010 bound_to 7997
  140.1472  143.4229  152.1520 H   0  0  0  0  0  0  0  0  0  0  0  0  # atno 10167 bound_to 10162
  156.5367  130.4668  149.6519 H   0  0  0  0  0  0  0  0  0  0  0  0  # atno 10718 bound_to 10713
  154.8251  135.4562  154.0894 H   0  0  0  0  0  0  0  0  0  0  0  0  # atno 10763 bound_to 10752
  153.2215  135.6894  153.8001 H   0  0  0  0  0  0  0  0  0  0  0  0  # atno 10764 bound_to 10752
  153.7416  135.3311  155.3281 H   0  0  0  0  0  0  0  0  0  0  0  0  # atno 10765 bound_to 10752
  141.1667  133.7119  156.8170 H   0  0  0  0  0  0  0  0  0  0  0  0  # atno 11005 bound_to 11000
  146.2859  140.4433  142.8758 LP  0  0  0  0  0  0  0  0  0  0  0  0  # atno 17320 bound_to 7965
  144.8534  140.7035  143.6153 LP  0  0  0  0  0  0  0  0  0  0  0  0  # atno 17321 bound_to 7965
  139.5443  144.7284  151.4633 LP  0  0  0  0  0  0  0  0  0  0  0  0  # atno 17342 bound_to 10162
  140.6724  143.8264  150.7016 LP  0  0  0  0  0  0  0  0  0  0  0  0  # atno 17343 bound_to 10162
  156.3009  130.7176  151.2048 LP  0  0  0  0  0  0  0  0  0  0  0  0  # atno 17370 bound_to 10713
  157.7412  131.0506  150.5110 LP  0  0  0  0  0  0  0  0  0  0  0  0  # atno 17371 bound_to 10713
  140.2147  134.8802  157.3312 LP  0  0  0  0  0  0  0  0  0  0  0  0  # atno 17394 bound_to 11000
  140.2050  134.4208  155.7642 LP  0  0  0  0  0  0  0  0  0  0  0  0  # atno 17395 bound_to 11000

$$$$
