AV-unprocessed.smi:312|AV-procd|sdf|2308|dock4
  -GOLD-   2262022203D 1   1.00000     0.00000
 Structure written by MMmdl.
 35 36  0  0  0  0  0  0  0  0  1 V2000
  149.3547  141.4210  157.1166 C   0  0  0  0  0  0  0  0  0  0  0  0
  150.8034  140.9182  157.1748 C   0  0  1  0  0  0  0  0  0  0  0  0
  151.4098  140.7873  155.7615 C   0  0  0  0  0  0  0  0  0  0  0  0
  151.3553  139.4297  155.2505 N   0  0  0  0  0  0  0  0  0  0  0  0
  150.2239  138.7265  154.8566 C   0  0  0  0  0  0  0  0  0  0  0  0
  150.6566  137.4890  154.4372 C   0  0  0  0  0  0  0  0  0  0  0  0
  152.0407  137.4065  154.5700 N   0  0  0  0  0  0  0  0  0  0  0  0
  152.3833  138.5917  155.0582 C   0  0  0  0  0  0  0  0  0  0  0  0
  151.5923  141.8362  157.9954 N   0  0  0  0  0  0  0  0  0  0  0  0
  152.3592  141.4906  159.0420 C   0  0  0  0  0  0  0  0  0  0  0  0
  152.4639  140.3338  159.4514 O   0  0  0  0  0  0  0  0  0  0  0  0
  153.1388  142.6284  159.7202 C   0  0  0  0  0  0  0  0  0  0  0  0
  153.0969  142.5130  161.2622 C   0  0  0  0  0  0  0  0  0  0  0  0
  152.4149  143.7826  161.7884 C   0  0  0  0  0  0  0  0  0  0  0  0
  151.6509  144.3554  160.5981 C   0  0  0  0  0  0  0  0  0  0  0  0
  152.5309  144.0069  159.3987 C   0  0  0  0  0  0  0  0  0  0  0  0
  148.7275  140.7434  156.5368 H   0  0  0  0  0  0  0  0  0  0  0  0
  149.2937  142.4072  156.6550 H   0  0  0  0  0  0  0  0  0  0  0  0
  148.9234  141.4931  158.1157 H   0  0  0  0  0  0  0  0  0  0  0  0
  150.7813  139.9300  157.6384 H   0  0  0  0  0  0  0  0  0  0  0  0
  150.8717  141.4286  155.0621 H   0  0  0  0  0  0  0  0  0  0  0  0
  152.4481  141.1226  155.7561 H   0  0  0  0  0  0  0  0  0  0  0  0
  149.2335  139.1554  154.8989 H   0  0  0  0  0  0  0  0  0  0  0  0
  150.0827  136.6584  154.0539 H   0  0  0  0  0  0  0  0  0  0  0  0
  153.4070  138.8592  155.2755 H   0  0  0  0  0  0  0  0  0  0  0  0
  151.5690  142.8110  157.7333 H   0  0  0  0  0  0  0  0  0  0  0  0
  154.1733  142.6039  159.3732 H   0  0  0  0  0  0  0  0  0  0  0  0
  152.5394  141.6333  161.5897 H   0  0  0  0  0  0  0  0  0  0  0  0
  154.1003  142.4152  161.6781 H   0  0  0  0  0  0  0  0  0  0  0  0
  151.7674  143.5864  162.6435 H   0  0  0  0  0  0  0  0  0  0  0  0
  153.1747  144.4971  162.1080 H   0  0  0  0  0  0  0  0  0  0  0  0
  150.6827  143.8612  160.5055 H   0  0  0  0  0  0  0  0  0  0  0  0
  151.4714  145.4267  160.6905 H   0  0  0  0  0  0  0  0  0  0  0  0
  153.3305  144.7430  159.3062 H   0  0  0  0  0  0  0  0  0  0  0  0
  151.9691  144.0284  158.4634 H   0  0  0  0  0  0  0  0  0  0  0  0
  1  2  1  0  0  0  0
  1 17  1  0  0  0  0
  1 18  1  0  0  0  0
  1 19  1  0  0  0  0
  2  3  1  0  0  0  0
  2  9  1  0  0  0  0
  2 20  1  0  0  0  0
  3  4  1  0  0  0  0
  3 21  1  0  0  0  0
  3 22  1  0  0  0  0
  4  8  1  0  0  0  0
  4  5  1  0  0  0  0
  5  6  2  0  0  0  0
  5 23  1  0  0  0  0
  6  7  1  0  0  0  0
  6 24  1  0  0  0  0
  7  8  2  0  0  0  0
  8 25  1  0  0  0  0
  9 10  1  0  0  0  0
  9 26  1  0  0  0  0
 10 11  2  0  0  0  0
 10 12  1  0  0  0  0
 12 16  1  0  0  0  0
 12 13  1  0  0  0  0
 12 27  1  0  0  0  0
 13 14  1  0  0  0  0
 13 28  1  0  0  0  0
 13 29  1  0  0  0  0
 14 15  1  0  0  0  0
 14 30  1  0  0  0  0
 14 31  1  0  0  0  0
 15 16  1  0  0  0  0
 15 32  1  0  0  0  0
 15 33  1  0  0  0  0
 16 34  1  0  0  0  0
 16 35  1  0  0  0  0
M  END
> <s_m_source_file>
AV-unprocessed.smi

> <i_m_source_file_index>
312

> <i_lp_mmshare_version>
43012

> <i_f3d_flags>
0

> <s_epik_input>
W2NIXTFuW2NIXVtjSF1uMVtDSDJdW0NAQEhdKFtDSDNdKVtOSF1DKD1PKVtDSF0yW0NIMl1bQ0gyXVtDSDJdW0NIMl0y

> <s_epik_cmdline>
J2VwaWtfcHl0aG9uJywgJy1waCcsICc3LjAnLCAnLXRuJywgJzgnLCAnLW1hJywgJzIwMCcsICctbWV0YWxfYmluZGluZycsICctaW1hZScsICc8aW5maWxlLm1hZT4nLCAnLW9tYWUnLCAnPG91dGZpbGUubWFlPic=

> <r_lp_tautomer_probability>
1

> <r_epik_Ionization_Penalty>
0.642614

> <r_epik_Ionization_Penalty_Charging>
0.642614

> <r_epik_Ionization_Penalty_Neutral>
3.44135e-08

> <r_epik_State_Penalty>
0.660429

> <r_epik_Charging_Adjusted_Penalty>
1.30304

> <i_epik_Tot_Q>
0

> <i_epik_Tot_abs_Q>
0

> <r_epik_Metal_State_Penalty>
0.31224

> <b_epik_Metal_Only>
0

> <s_lp_Force_Field>
OPLS_2005

> <r_lp_Energy>
21.6538

> <b_lp_Chiralities_Consistent>
1

> <s_lp_Variant>
AV-unprocessed.smi:312-4

> <Gold.Version>
5.8.1

> <Gold.Id.Protein>
6NUR|6NUR_protein|mol2

> <Gold.PLP.Fitness>
43.7369

> <Gold.PLP.PLP>
-40.5003

> <Gold.PLP.part.hbond>
-1.0000

> <Gold.PLP.part.metal>
0.0000

> <Gold.PLP.part.buried>
-4.1905

> <Gold.PLP.part.nonpolar>
-35.2355

> <Gold.PLP.part.repulsive>
0.1918

> <Gold.PLP.ligand.clash>
0.0004

> <Gold.PLP.ligand.torsion>
1.2096

> <Gold.PLP.Chemscore.Hbond>
0.8480

> <Gold.PLP.Chemscore.CHOScore>
1.0296

> <Gold.PLP.Chemscore.Metal>
0.0000

> <Gold.Chemscore.Hbonds>
donor molecule, donor type, donor heavy atom, donor atom, acceptor molecule, acceptor atom, score
      P1  H 10752 10765       L1     7  0.88
      L1  C     6    24       P1  7948  1.00
      L1  C     6    24       P1  7949  0.01

> <Gold.PLP.Chemscore.Internal.Correction>
0.0232

> <Gold.Rescore>
     Score         DG    S(hbond)    S(metal)    S(lipo)     H(rot)  DE(clash)    DE(int)     intcor
     14.37     -15.28       0.95        0.00      95.09       1.76       0.13       0.78       ----

> <Gold.Chemscore.Fitness>
14.3702

> <Gold.Chemscore.DG>
-15.2783

> <Gold.Chemscore.ZeroCoef>
-5.4800

> <Gold.Chemscore.Hbond>
0.9488

> <Gold.Chemscore.Metal>
0.0000

> <Gold.Chemscore.Lipo>
95.0893

> <Gold.Chemscore.Internal_Hbond>
0.0000

> <Gold.Chemscore.DEClash>
0.1274

> <Gold.Chemscore.DEInternal>
0.7806

> <Gold.Chemscore.Rot>
1.7563

> <Gold.Chemscore.Internal.Correction>
   9.000000E+99

> <Gold.Chemscore.Hbonds>
donor molecule, donor type, donor heavy atom, donor atom, acceptor molecule, acceptor atom, score
      P1  H 10752 10765       L1     7  0.83

> <Gold.Chemscore.Hbond.Weighted>
-3.1691

> <Gold.Chemscore.Metal.Weighted>
-0.0000

> <Gold.Chemscore.Lipo.Weighted>
-11.1254

> <Gold.Chemscore.Internal_Hbond.Weighted>
0.0000

> <Gold.Chemscore.DEClash.Weighted>
0.1274

> <Gold.Chemscore.DEInternal.Weighted>
0.7806

> <Gold.Chemscore.Rot.Weighted>
4.4962

> <Gold.Chemscore.Internal.Correction.Weighted>
   9.000000E+99

> <Gold.Protein.RotatedTorsions>
[ 6907 6896 6895 6894 ] final   62.00 input  -60.11 | X-H torsion
[ 7974 7965 7964 7962 ] final  -62.71 input  175.53 | X-H torsion
[ 8008 7997 7996 7995 ] final -168.39 input   59.86 | X-H torsion
[ 10167 10162 10161 10158 ] final   83.45 input  -65.29 | X-H torsion
[ 10718 10713 10712 10709 ] final   26.98 input   66.30 | X-H torsion
[ 10763 10752 10751 10750 ] final  164.79 input  -60.55 | X-H torsion
[ 11005 11000 10999 10996 ] final    0.26 input  -57.11 | X-H torsion

> <Gold.Protein.ActiveResidues>
 VAL166  LYS551  ARG553  GLY616  TRP617  ASP618  TYR619  PRO620  LYS621  CYS622 
 ASP623  PHE694  ASN695  SER759  ASP760  ASP761  ALA762  ILE779  LEU786  VAL792 
 PHE793  MET794  SER795  GLU796  ALA797  LYS798  CYS799  TRP800  GLU811  SER814 

> <Gold.Protein.RotatedAtoms>
  152.4136  134.6081  160.0018 H   0  0  0  0  0  0  0  0  0  0  0  0  # atno 6907 bound_to 6896
  151.6251  133.3330  159.3104 H   0  0  0  0  0  0  0  0  0  0  0  0  # atno 6908 bound_to 6896
  150.8025  134.7169  159.6680 H   0  0  0  0  0  0  0  0  0  0  0  0  # atno 6909 bound_to 6896
  145.7880  140.8725  143.0295 H   0  0  0  0  0  0  0  0  0  0  0  0  # atno 7974 bound_to 7965
  155.8908  140.1024  157.1420 H   0  0  0  0  0  0  0  0  0  0  0  0  # atno 8008 bound_to 7997
  154.4015  140.1311  156.4377 H   0  0  0  0  0  0  0  0  0  0  0  0  # atno 8009 bound_to 7997
  155.7536  140.3464  155.5165 H   0  0  0  0  0  0  0  0  0  0  0  0  # atno 8010 bound_to 7997
  139.9182  144.6229  150.8467 H   0  0  0  0  0  0  0  0  0  0  0  0  # atno 10167 bound_to 10162
  157.2141  130.6948  149.6241 H   0  0  0  0  0  0  0  0  0  0  0  0  # atno 10718 bound_to 10713
  154.3142  135.2757  155.2551 H   0  0  0  0  0  0  0  0  0  0  0  0  # atno 10763 bound_to 10752
  154.4933  135.5828  153.6479 H   0  0  0  0  0  0  0  0  0  0  0  0  # atno 10764 bound_to 10752
  152.9884  135.6140  154.3322 H   0  0  0  0  0  0  0  0  0  0  0  0  # atno 10765 bound_to 10752
  140.6285  133.9596  155.8262 H   0  0  0  0  0  0  0  0  0  0  0  0  # atno 11005 bound_to 11000
  144.6786  140.0083  143.7484 LP  0  0  0  0  0  0  0  0  0  0  0  0  # atno 17320 bound_to 7965
  146.0006  139.3088  143.0930 LP  0  0  0  0  0  0  0  0  0  0  0  0  # atno 17321 bound_to 7965
  140.7669  143.3316  151.2399 LP  0  0  0  0  0  0  0  0  0  0  0  0  # atno 17342 bound_to 10162
  139.6884  143.9734  152.2846 LP  0  0  0  0  0  0  0  0  0  0  0  0  # atno 17343 bound_to 10162
  155.9688  130.4541  150.5839 LP  0  0  0  0  0  0  0  0  0  0  0  0  # atno 17370 bound_to 10713
  157.3643  131.0755  151.1611 LP  0  0  0  0  0  0  0  0  0  0  0  0  # atno 17371 bound_to 10713
  141.0692  134.0231  157.3550 LP  0  0  0  0  0  0  0  0  0  0  0  0  # atno 17394 bound_to 11000
  139.9125  135.0192  156.7750 LP  0  0  0  0  0  0  0  0  0  0  0  0  # atno 17395 bound_to 11000

$$$$
