AV-unprocessed.smi:1677|AV-procd|sdf|6721|dock2
  -GOLD-   22720 7463D 1   1.00000     0.00000
 Structure written by MMmdl.
 37 38  0  0  0  0  0  0  0  0  2 V2000
  146.7176  142.2974  156.3695 C   0  0  0  0  0  0  0  0  0  0  0  0
  147.9817  141.6062  155.8332 C   0  0  1  0  0  0  0  0  0  0  0  0
  148.1205  141.7011  154.2984 C   0  0  0  0  0  0  0  0  0  0  0  0
  147.8369  140.4321  153.6217 N   0  0  0  0  0  0  0  0  0  0  0  0
  146.7545  140.1388  152.8326 C   0  0  0  0  0  0  0  0  0  0  0  0
  146.9109  138.8403  152.4213 C   0  0  0  0  0  0  0  0  0  0  0  0
  148.0794  138.3949  152.9794 N   0  3  0  0  0  0  0  0  0  0  0  0
  148.6389  139.3631  153.7124 C   0  0  0  0  0  0  0  0  0  0  0  0
  149.1549  142.1837  156.4821 N   0  0  0  0  0  0  0  0  0  0  0  0
  149.9345  141.5568  157.3772 C   0  0  0  0  0  0  0  0  0  0  0  0
  149.7434  140.3958  157.7406 O   0  0  0  0  0  0  0  0  0  0  0  0
  151.1058  142.3656  157.9503 C   0  0  2  0  0  0  0  0  0  0  0  0
  151.8287  141.5904  159.0764 C   0  0  0  0  0  0  0  0  0  0  0  0
  152.8189  142.4632  159.8277 C   0  0  0  0  0  0  0  0  0  0  0  0
  152.8209  143.8056  159.7597 C   0  0  0  0  0  0  0  0  0  0  0  0
  151.8307  144.6022  158.9283 C   0  0  0  0  0  0  0  0  0  0  0  0
  150.6403  143.7444  158.4592 C   0  0  0  0  0  0  0  0  0  0  0  0
  145.8115  141.8313  155.9822 H   0  0  0  0  0  0  0  0  0  0  0  0
  146.6949  143.3522  156.0937 H   0  0  0  0  0  0  0  0  0  0  0  0
  146.6704  142.2371  157.4575 H   0  0  0  0  0  0  0  0  0  0  0  0
  147.9180  140.5528  156.1126 H   0  0  0  0  0  0  0  0  0  0  0  0
  147.4490  142.4631  153.8987 H   0  0  0  0  0  0  0  0  0  0  0  0
  149.1329  141.9959  154.0190 H   0  0  0  0  0  0  0  0  0  0  0  0
  145.9750  140.8586  152.6268 H   0  0  0  0  0  0  0  0  0  0  0  0
  146.2945  138.2163  151.7907 H   0  0  0  0  0  0  0  0  0  0  0  0
  149.5596  139.2950  154.2643 H   0  0  0  0  0  0  0  0  0  0  0  0
  149.3856  143.1374  156.2431 H   0  0  0  0  0  0  0  0  0  0  0  0
  151.8247  142.5377  157.1468 H   0  0  0  0  0  0  0  0  0  0  0  0
  151.1201  141.1880  159.8018 H   0  0  0  0  0  0  0  0  0  0  0  0
  152.3662  140.7411  158.6532 H   0  0  0  0  0  0  0  0  0  0  0  0
  153.5401  141.9563  160.4518 H   0  0  0  0  0  0  0  0  0  0  0  0
  153.5606  144.3697  160.3087 H   0  0  0  0  0  0  0  0  0  0  0  0
  151.4704  145.4505  159.5110 H   0  0  0  0  0  0  0  0  0  0  0  0
  152.3636  145.0100  158.0688 H   0  0  0  0  0  0  0  0  0  0  0  0
  150.0878  144.2780  157.6844 H   0  0  0  0  0  0  0  0  0  0  0  0
  149.9484  143.6098  159.2924 H   0  0  0  0  0  0  0  0  0  0  0  0
  148.4659  137.4672  152.8574 H   0  0  0  0  0  0  0  0  0  0  0  0
  1  2  1  0  0  0  0
  1 18  1  0  0  0  0
  1 19  1  0  0  0  0
  1 20  1  0  0  0  0
  2  3  1  0  0  0  0
  2  9  1  0  0  0  0
  2 21  1  0  0  0  0
  3  4  1  0  0  0  0
  3 22  1  0  0  0  0
  3 23  1  0  0  0  0
  4  8  1  0  0  0  0
  4  5  1  0  0  0  0
  5  6  2  0  0  0  0
  5 24  1  0  0  0  0
  6  7  1  0  0  0  0
  6 25  1  0  0  0  0
  7  8  2  0  0  0  0
  7 37  1  0  0  0  0
  8 26  1  0  0  0  0
  9 10  1  0  0  0  0
  9 27  1  0  0  0  0
 10 11  2  0  0  0  0
 10 12  1  0  0  0  0
 12 17  1  0  0  0  0
 12 13  1  0  0  0  0
 12 28  1  0  0  0  0
 13 14  1  0  0  0  0
 13 29  1  0  0  0  0
 13 30  1  0  0  0  0
 14 15  2  0  0  0  0
 14 31  1  0  0  0  0
 15 16  1  0  0  0  0
 15 32  1  0  0  0  0
 16 17  1  0  0  0  0
 16 33  1  0  0  0  0
 16 34  1  0  0  0  0
 17 35  1  0  0  0  0
 17 36  1  0  0  0  0
M  CHG  1   7   1
M  END
> <s_m_source_file>
AV-unprocessed.smi

> <i_m_source_file_index>
1677

> <i_lp_mmshare_version>
43012

> <i_f3d_flags>
0

> <s_epik_input>
W2NIXTFuW2NIXVtjSF1uMVtDSDJdW0NAQEhdKFtDSDNdKVtOSF1DKD1PKVtDQEBIXTJbQ0gyXVtDSF09W0NIXVtDSDJdW0NIMl0y

> <s_epik_cmdline>
J2VwaWtfcHl0aG9uJywgJy1waCcsICc3LjAnLCAnLXRuJywgJzgnLCAnLW1hJywgJzIwMCcsICctbWV0YWxfYmluZGluZycsICctaW1hZScsICc8aW5maWxlLm1hZT4nLCAnLW9tYWUnLCAnPG91dGZpbGUubWFlPic=

> <r_lp_tautomer_probability>
1

> <r_epik_Ionization_Penalty>
0.245541

> <r_epik_Ionization_Penalty_Charging>
0

> <r_epik_Ionization_Penalty_Neutral>
0.245541

> <r_epik_State_Penalty>
0.236686

> <r_epik_Charging_Adjusted_Penalty>
0.236686

> <i_epik_Tot_Q>
1

> <i_epik_Tot_abs_Q>
1

> <r_epik_Metal_State_Penalty>
0.529594

> <b_epik_Metal_Only>
0

> <s_lp_Force_Field>
OPLS_2005

> <r_lp_Energy>
11.4362

> <b_lp_Chiralities_Consistent>
1

> <s_lp_Variant>
AV-unprocessed.smi:1677-2

> <Gold.Version>
5.8.1

> <Gold.Id.Protein>
6NUR|6NUR_protein|mol2

> <Gold.PLP.Fitness>
45.4273

> <Gold.PLP.PLP>
-35.2834

> <Gold.PLP.part.hbond>
-3.0000

> <Gold.PLP.part.metal>
0.0000

> <Gold.PLP.part.buried>
1.1665

> <Gold.PLP.part.nonpolar>
-34.4872

> <Gold.PLP.part.repulsive>
0.0880

> <Gold.PLP.ligand.clash>
0.0000

> <Gold.PLP.ligand.torsion>
0.9498

> <Gold.PLP.Chemscore.Hbond>
3.0000

> <Gold.PLP.Chemscore.CHOScore>
0.9954

> <Gold.PLP.Chemscore.Metal>
0.0000

> <Gold.Chemscore.Hbonds>
donor molecule, donor type, donor heavy atom, donor atom, acceptor molecule, acceptor atom, score
      L1  H     7    37       P1  7948  1.98
      L1  H     9    27       P1  8028  0.99
      L1  C     5    24       P1 10175  0.95

> <Gold.PLP.Chemscore.Internal.Correction>
0.0572

> <Gold.Rescore>
     Score         DG    S(hbond)    S(metal)    S(lipo)     H(rot)  DE(clash)    DE(int)     intcor
     16.60     -17.57       1.75        0.00      93.20       1.81       0.09       0.88       ----

> <Gold.Chemscore.Fitness>
16.6007

> <Gold.Chemscore.DG>
-17.5700

> <Gold.Chemscore.ZeroCoef>
-5.4800

> <Gold.Chemscore.Hbond>
1.7458

> <Gold.Chemscore.Metal>
0.0000

> <Gold.Chemscore.Lipo>
93.2011

> <Gold.Chemscore.Internal_Hbond>
0.0000

> <Gold.Chemscore.DEClash>
0.0905

> <Gold.Chemscore.DEInternal>
0.8788

> <Gold.Chemscore.Rot>
1.8147

> <Gold.Chemscore.Internal.Correction>
   9.000000E+99

> <Gold.Chemscore.Hbonds>
donor molecule, donor type, donor heavy atom, donor atom, acceptor molecule, acceptor atom, score
      L1  H     7    37       P1  7948  0.93
      L1  H     9    27       P1  8028  0.94

> <Gold.Chemscore.Hbond.Weighted>
-5.8310

> <Gold.Chemscore.Metal.Weighted>
-0.0000

> <Gold.Chemscore.Lipo.Weighted>
-10.9045

> <Gold.Chemscore.Internal_Hbond.Weighted>
0.0000

> <Gold.Chemscore.DEClash.Weighted>
0.0905

> <Gold.Chemscore.DEInternal.Weighted>
0.8788

> <Gold.Chemscore.Rot.Weighted>
4.6456

> <Gold.Chemscore.Internal.Correction.Weighted>
   9.000000E+99

> <Gold.Protein.RotatedTorsions>
[ 6907 6896 6895 6894 ] final  -37.88 input  -60.11 | X-H torsion
[ 7974 7965 7964 7962 ] final -151.97 input  175.53 | X-H torsion
[ 8008 7997 7996 7995 ] final  169.10 input   59.86 | X-H torsion
[ 10167 10162 10161 10158 ] final   50.91 input  -65.29 | X-H torsion
[ 10718 10713 10712 10709 ] final   22.79 input   66.30 | X-H torsion
[ 10763 10752 10751 10750 ] final -171.43 input  -60.55 | X-H torsion
[ 11005 11000 10999 10996 ] final  115.71 input  -57.11 | X-H torsion

> <Gold.Protein.ActiveResidues>
 VAL166  LYS551  ARG553  GLY616  TRP617  ASP618  TYR619  PRO620  LYS621  CYS622 
 ASP623  PHE694  ASN695  SER759  ASP760  ASP761  ALA762  ILE779  LEU786  VAL792 
 PHE793  MET794  SER795  GLU796  ALA797  LYS798  CYS799  TRP800  GLU811  SER814 

> <Gold.Protein.RotatedAtoms>
  151.0092  134.9383  159.7997 H   0  0  0  0  0  0  0  0  0  0  0  0  # atno 6907 bound_to 6896
  152.5298  134.3051  159.9103 H   0  0  0  0  0  0  0  0  0  0  0  0  # atno 6908 bound_to 6896
  151.3057  133.4061  159.2677 H   0  0  0  0  0  0  0  0  0  0  0  0  # atno 6909 bound_to 6896
  144.7820  140.4725  143.5833 H   0  0  0  0  0  0  0  0  0  0  0  0  # atno 7974 bound_to 7965
  156.1488  140.1573  156.8803 H   0  0  0  0  0  0  0  0  0  0  0  0  # atno 8008 bound_to 7997
  154.5052  140.0815  156.7917 H   0  0  0  0  0  0  0  0  0  0  0  0  # atno 8009 bound_to 7997
  155.3937  140.3411  155.4255 H   0  0  0  0  0  0  0  0  0  0  0  0  # atno 8010 bound_to 7997
  140.2675  144.3303  150.6299 H   0  0  0  0  0  0  0  0  0  0  0  0  # atno 10167 bound_to 10162
  157.1572  130.6701  149.6031 H   0  0  0  0  0  0  0  0  0  0  0  0  # atno 10718 bound_to 10713
  154.6306  135.2886  155.0221 H   0  0  0  0  0  0  0  0  0  0  0  0  # atno 10763 bound_to 10752
  154.1383  135.6522  153.4940 H   0  0  0  0  0  0  0  0  0  0  0  0  # atno 10764 bound_to 10752
  153.0278  135.5327  154.7131 H   0  0  0  0  0  0  0  0  0  0  0  0  # atno 10765 bound_to 10752
  139.9018  134.9588  156.7087 H   0  0  0  0  0  0  0  0  0  0  0  0  # atno 11005 bound_to 11000
  145.6025  139.1505  143.3121 LP  0  0  0  0  0  0  0  0  0  0  0  0  # atno 17320 bound_to 7965
  146.2032  140.6146  142.9093 LP  0  0  0  0  0  0  0  0  0  0  0  0  # atno 17321 bound_to 7965
  140.5916  143.2168  151.7242 LP  0  0  0  0  0  0  0  0  0  0  0  0  # atno 17342 bound_to 10162
  139.4998  144.3930  152.0260 LP  0  0  0  0  0  0  0  0  0  0  0  0  # atno 17343 bound_to 10162
  155.9760  130.4724  150.6498 LP  0  0  0  0  0  0  0  0  0  0  0  0  # atno 17370 bound_to 10713
  157.4166  131.0831  151.1171 LP  0  0  0  0  0  0  0  0  0  0  0  0  # atno 17371 bound_to 10713
  140.7093  133.9237  155.8074 LP  0  0  0  0  0  0  0  0  0  0  0  0  # atno 17394 bound_to 11000
  141.0312  134.0753  157.4011 LP  0  0  0  0  0  0  0  0  0  0  0  0  # atno 17395 bound_to 11000

$$$$
