AV-unprocessed.smi:2564|AV-procd|sdf|10065|dock1
  -GOLD-   2272014103D 1   1.00000     0.00000
 Structure written by MMmdl.
 30 31  0  0  0  0  0  0  0  0  3 V2000
  152.5006  142.0256  158.9445 C   0  0  0  0  0  0  0  0  0  0  0  0
  152.6782  143.4187  159.0157 C   0  0  0  0  0  0  0  0  0  0  0  0
  151.9520  144.2955  158.2872 N   0  0  0  0  0  0  0  0  0  0  0  0
  151.0178  143.7987  157.4571 N   0  3  0  0  0  0  0  0  0  0  0  0
  150.7678  142.4729  157.3142 C   0  0  0  0  0  0  0  0  0  0  0  0
  149.7590  142.1237  156.4065 N   0  0  0  0  0  0  0  0  0  0  0  0
  149.4159  140.7273  156.1823 C   0  0  0  0  0  0  0  0  0  0  0  0
  148.9891  140.4750  154.7284 C   0  0  1  0  0  0  0  0  0  0  0  0
  149.0011  138.9721  154.3821 C   0  0  0  0  0  0  0  0  0  0  0  0
  148.5019  138.7597  153.0089 N   0  3  0  0  0  0  0  0  0  0  0  0
  147.1678  139.3607  152.8167 C   0  0  0  0  0  0  0  0  0  0  0  0
  147.1956  140.8446  153.2191 C   0  0  0  0  0  0  0  0  0  0  0  0
  147.6605  140.9651  154.5601 O   0  0  0  0  0  0  0  0  0  0  0  0
  151.5161  141.5389  158.0677 C   0  0  0  0  0  0  0  0  0  0  0  0
  153.1003  141.3554  159.5425 H   0  0  0  0  0  0  0  0  0  0  0  0
  153.4224  143.8428  159.6737 H   0  0  0  0  0  0  0  0  0  0  0  0
  149.1466  142.8388  156.0406 H   0  0  0  0  0  0  0  0  0  0  0  0
  150.2886  140.1159  156.4149 H   0  0  0  0  0  0  0  0  0  0  0  0
  148.6192  140.4288  156.8652 H   0  0  0  0  0  0  0  0  0  0  0  0
  149.6661  141.0079  154.0574 H   0  0  0  0  0  0  0  0  0  0  0  0
  150.0098  138.5654  154.4603 H   0  0  0  0  0  0  0  0  0  0  0  0
  148.3741  138.4142  155.0793 H   0  0  0  0  0  0  0  0  0  0  0  0
  149.1457  139.1900  152.3599 H   0  0  0  0  0  0  0  0  0  0  0  0
  146.8662  139.2494  151.7751 H   0  0  0  0  0  0  0  0  0  0  0  0
  146.4401  138.8194  153.4226 H   0  0  0  0  0  0  0  0  0  0  0  0
  147.8344  141.4203  152.5473 H   0  0  0  0  0  0  0  0  0  0  0  0
  146.1949  141.2716  153.1505 H   0  0  0  0  0  0  0  0  0  0  0  0
  151.3522  140.4747  157.9857 H   0  0  0  0  0  0  0  0  0  0  0  0
  148.4545  137.7690  152.8162 H   0  0  0  0  0  0  0  0  0  0  0  0
  150.4663  144.4556  156.9048 H   0  0  0  0  0  0  0  0  0  0  0  0
  1 14  1  0  0  0  0
  1  2  2  0  0  0  0
  1 15  1  0  0  0  0
  2  3  1  0  0  0  0
  2 16  1  0  0  0  0
  3  4  2  0  0  0  0
  4  5  1  0  0  0  0
  4 30  1  0  0  0  0
  5  6  1  0  0  0  0
  5 14  2  0  0  0  0
  6  7  1  0  0  0  0
  6 17  1  0  0  0  0
  7  8  1  0  0  0  0
  7 18  1  0  0  0  0
  7 19  1  0  0  0  0
  8 13  1  0  0  0  0
  8  9  1  0  0  0  0
  8 20  1  0  0  0  0
  9 10  1  0  0  0  0
  9 21  1  0  0  0  0
  9 22  1  0  0  0  0
 10 11  1  0  0  0  0
 10 23  1  0  0  0  0
 10 29  1  0  0  0  0
 11 12  1  0  0  0  0
 11 24  1  0  0  0  0
 11 25  1  0  0  0  0
 12 13  1  0  0  0  0
 12 26  1  0  0  0  0
 12 27  1  0  0  0  0
 14 28  1  0  0  0  0
M  CHG  1   4   1
M  CHG  1  10   1
M  END
> <s_m_source_file>
AV-unprocessed.smi

> <i_m_source_file_index>
2564

> <i_lp_mmshare_version>
43012

> <i_f3d_flags>
0

> <s_epik_input>
W2NIXTFbY0hdW2NIXW5uYzFbTkhdW0NIMl1bQ0BASF0yW0NIMl1bTkhdW0NIMl1bQ0gyXU8y

> <s_epik_cmdline>
J2VwaWtfcHl0aG9uJywgJy1waCcsICc3LjAnLCAnLXRuJywgJzgnLCAnLW1hJywgJzIwMCcsICctbWV0YWxfYmluZGluZycsICctaW1hZScsICc8aW5maWxlLm1hZT4nLCAnLW9tYWUnLCAnPG91dGZpbGUubWFlPic=

> <r_lp_tautomer_probability>
0.966961

> <r_epik_Ionization_Penalty>
2.43489

> <r_epik_Ionization_Penalty_Charging>
2.43489

> <r_epik_Ionization_Penalty_Neutral>
2.70443e-06

> <r_epik_State_Penalty>
1.93608

> <r_epik_Charging_Adjusted_Penalty>
4.37096

> <i_epik_Tot_Q>
2

> <i_epik_Tot_abs_Q>
2

> <r_epik_Metal_State_Penalty>
1.94389

> <b_epik_Metal_Only>
0

> <s_lp_Force_Field>
OPLS_2005

> <r_lp_Energy>
28.6288

> <b_lp_Chiralities_Consistent>
1

> <s_lp_Variant>
AV-unprocessed.smi:2564-4

> <Gold.Version>
5.8.1

> <Gold.Id.Protein>
6NUR|6NUR_protein|mol2

> <Gold.PLP.Fitness>
47.6662

> <Gold.PLP.PLP>
-27.6559

> <Gold.PLP.part.hbond>
-3.9068

> <Gold.PLP.part.metal>
0.0000

> <Gold.PLP.part.buried>
-4.6878

> <Gold.PLP.part.nonpolar>
-20.3207

> <Gold.PLP.part.repulsive>
0.3443

> <Gold.PLP.ligand.clash>
0.0000

> <Gold.PLP.ligand.torsion>
0.3039

> <Gold.PLP.Chemscore.Hbond>
6.8720

> <Gold.PLP.Chemscore.CHOScore>
0.0000

> <Gold.PLP.Chemscore.Metal>
0.0000

> <Gold.Chemscore.Hbonds>
donor molecule, donor type, donor heavy atom, donor atom, acceptor molecule, acceptor atom, score
      L1  H     4    30       P1  8028  1.95
      L1  H     6    17       P1  8028  1.89
      L1  H    10    23       P1  7957  1.00
      L1  H    10    29       P1  7948  2.00

> <Gold.PLP.Chemscore.Internal.Correction>
0.0022

> <Gold.Rescore>
     Score         DG    S(hbond)    S(metal)    S(lipo)     H(rot)  DE(clash)    DE(int)     intcor
     21.21     -21.59       3.64        0.00      63.25       1.35       0.08       0.29       ----

> <Gold.Chemscore.Fitness>
21.2135

> <Gold.Chemscore.DG>
-21.5879

> <Gold.Chemscore.ZeroCoef>
-5.4800

> <Gold.Chemscore.Hbond>
3.6398

> <Gold.Chemscore.Metal>
0.0000

> <Gold.Chemscore.Lipo>
63.2476

> <Gold.Chemscore.Internal_Hbond>
0.0000

> <Gold.Chemscore.DEClash>
0.0815

> <Gold.Chemscore.DEInternal>
0.2929

> <Gold.Chemscore.Rot>
1.3472

> <Gold.Chemscore.Internal.Correction>
   9.000000E+99

> <Gold.Chemscore.Hbonds>
donor molecule, donor type, donor heavy atom, donor atom, acceptor molecule, acceptor atom, score
      L1  H     4    30       P1  8028  0.81
      L1  H     6    17       P1  8028  0.92
      L1  H    10    23       P1  7957  0.92
      L1  H    10    29       P1  7948  0.95

> <Gold.Chemscore.Hbond.Weighted>
-12.1568

> <Gold.Chemscore.Metal.Weighted>
-0.0000

> <Gold.Chemscore.Lipo.Weighted>
-7.4000

> <Gold.Chemscore.Internal_Hbond.Weighted>
0.0000

> <Gold.Chemscore.DEClash.Weighted>
0.0815

> <Gold.Chemscore.DEInternal.Weighted>
0.2929

> <Gold.Chemscore.Rot.Weighted>
3.4489

> <Gold.Chemscore.Internal.Correction.Weighted>
   9.000000E+99

> <Gold.Protein.RotatedTorsions>
[ 6907 6896 6895 6894 ] final  -20.54 input  -60.11 | X-H torsion
[ 7974 7965 7964 7962 ] final -156.79 input  175.53 | X-H torsion
[ 8008 7997 7996 7995 ] final  139.52 input   59.86 | X-H torsion
[ 10167 10162 10161 10158 ] final    9.49 input  -65.29 | X-H torsion
[ 10718 10713 10712 10709 ] final   99.26 input   66.30 | X-H torsion
[ 10763 10752 10751 10750 ] final -102.46 input  -60.55 | X-H torsion
[ 11005 11000 10999 10996 ] final   -5.45 input  -57.11 | X-H torsion

> <Gold.Protein.ActiveResidues>
 VAL166  LYS551  ARG553  GLY616  TRP617  ASP618  TYR619  PRO620  LYS621  CYS622 
 ASP623  PHE694  ASN695  SER759  ASP760  ASP761  ALA762  ILE779  LEU786  VAL792 
 PHE793  MET794  SER795  GLU796  ALA797  LYS798  CYS799  TRP800  GLU811  SER814 

> <Gold.Protein.RotatedAtoms>
  151.2466  135.0607  159.9045 H   0  0  0  0  0  0  0  0  0  0  0  0  # atno 6907 bound_to 6896
  152.5386  134.0377  159.8063 H   0  0  0  0  0  0  0  0  0  0  0  0  # atno 6908 bound_to 6896
  151.0578  133.5520  159.2668 H   0  0  0  0  0  0  0  0  0  0  0  0  # atno 6909 bound_to 6896
  144.7577  140.4060  143.6000 H   0  0  0  0  0  0  0  0  0  0  0  0  # atno 7974 bound_to 7965
  156.2989  140.2365  156.4251 H   0  0  0  0  0  0  0  0  0  0  0  0  # atno 8008 bound_to 7997
  154.8320  140.0432  157.1504 H   0  0  0  0  0  0  0  0  0  0  0  0  # atno 8009 bound_to 7997
  154.9197  140.3002  155.5226 H   0  0  0  0  0  0  0  0  0  0  0  0  # atno 8010 bound_to 7997
  140.6252  143.8118  150.7224 H   0  0  0  0  0  0  0  0  0  0  0  0  # atno 10167 bound_to 10162
  157.6879  131.0664  150.4922 H   0  0  0  0  0  0  0  0  0  0  0  0  # atno 10718 bound_to 10713
  154.7735  135.4860  153.9697 H   0  0  0  0  0  0  0  0  0  0  0  0  # atno 10763 bound_to 10752
  153.1398  135.6770  153.9052 H   0  0  0  0  0  0  0  0  0  0  0  0  # atno 10764 bound_to 10752
  153.8730  135.3141  155.3421 H   0  0  0  0  0  0  0  0  0  0  0  0  # atno 10765 bound_to 10752
  140.6912  133.9069  155.8619 H   0  0  0  0  0  0  0  0  0  0  0  0  # atno 11005 bound_to 11000
  145.6723  139.1602  143.2747 LP  0  0  0  0  0  0  0  0  0  0  0  0  # atno 17320 bound_to 7965
  146.1606  140.6793  142.9279 LP  0  0  0  0  0  0  0  0  0  0  0  0  # atno 17321 bound_to 7965
  140.1716  143.4189  152.1996 LP  0  0  0  0  0  0  0  0  0  0  0  0  # atno 17342 bound_to 10162
  139.5473  144.7309  151.4543 LP  0  0  0  0  0  0  0  0  0  0  0  0  # atno 17343 bound_to 10162
  156.5248  130.4170  149.6232 LP  0  0  0  0  0  0  0  0  0  0  0  0  # atno 17370 bound_to 10713
  156.3122  130.7235  151.2130 LP  0  0  0  0  0  0  0  0  0  0  0  0  # atno 17371 bound_to 10713
  141.0239  134.0850  157.4090 LP  0  0  0  0  0  0  0  0  0  0  0  0  # atno 17394 bound_to 11000
  139.8923  135.0124  156.6837 LP  0  0  0  0  0  0  0  0  0  0  0  0  # atno 17395 bound_to 11000

$$$$
