AV-unprocessed.smi:2826|AV-procd|sdf|10893|dock2
  -GOLD-   2272015343D 1   1.00000     0.00000
 Structure written by MMmdl.
 50 51  0  0  0  0  0  0  0  0  1 V2000
  143.5911  134.3150  163.3692 C   0  0  0  0  0  0  0  0  0  0  0  0
  145.0080  134.2606  163.2457 O   0  0  0  0  0  0  0  0  0  0  0  0
  145.6086  135.0105  162.2553 C   0  0  0  0  0  0  0  0  0  0  0  0
  147.0144  135.0278  162.1814 C   0  0  0  0  0  0  0  0  0  0  0  0
  147.6328  135.7916  161.1743 C   0  0  0  0  0  0  0  0  0  0  0  0
  146.8258  136.5266  160.2728 C   0  0  0  0  0  0  0  0  0  0  0  0
  147.3609  137.3082  159.2107 N   0  0  0  0  0  0  0  0  0  0  0  0
  148.6243  137.7369  159.0492 C   0  0  0  0  0  0  0  0  0  0  0  0
  149.5509  137.5291  159.8325 O   0  0  0  0  0  0  0  0  0  0  0  0
  148.7540  138.4532  157.9232 N   0  0  0  0  0  0  0  0  0  0  0  0
  149.9914  139.0786  157.4651 C   0  0  1  0  0  0  0  0  0  0  0  0
  150.1462  138.8894  155.9496 C   0  0  0  0  0  0  0  0  0  0  0  0
  151.3681  139.6640  155.4318 C   0  0  0  0  0  0  0  0  0  0  0  0
  151.2532  141.0396  155.7794 O   0  0  0  0  0  0  0  0  0  0  0  0
  151.2405  141.2677  157.1869 C   0  0  1  0  0  0  0  0  0  0  0  0
  151.2300  142.7871  157.4387 C   0  0  0  0  0  0  0  0  0  0  0  0
  152.3406  143.2957  158.3837 C   0  0  0  0  0  0  0  0  0  0  0  0
  152.3313  142.5810  159.7458 C   0  0  0  0  0  0  0  0  0  0  0  0
  152.2283  144.8153  158.5794 C   0  0  0  0  0  0  0  0  0  0  0  0
  150.0014  140.5814  157.7934 C   0  0  0  0  0  0  0  0  0  0  0  0
  145.4208  136.4314  160.4207 C   0  0  0  0  0  0  0  0  0  0  0  0
  144.4742  137.1677  159.4890 C   0  0  0  0  0  0  0  0  0  0  0  0
  144.8265  135.6978  161.3875 N   0  0  0  0  0  0  0  0  0  0  0  0
  143.2763  133.6763  164.1942 H   0  0  0  0  0  0  0  0  0  0  0  0
  143.0978  133.9548  162.4655 H   0  0  0  0  0  0  0  0  0  0  0  0
  143.2477  135.3274  163.5856 H   0  0  0  0  0  0  0  0  0  0  0  0
  147.6092  134.4604  162.8819 H   0  0  0  0  0  0  0  0  0  0  0  0
  148.7095  135.7862  161.1033 H   0  0  0  0  0  0  0  0  0  0  0  0
  146.6885  137.6388  158.5343 H   0  0  0  0  0  0  0  0  0  0  0  0
  147.9387  138.5789  157.3414 H   0  0  0  0  0  0  0  0  0  0  0  0
  150.8406  138.6002  157.9575 H   0  0  0  0  0  0  0  0  0  0  0  0
  150.2445  137.8306  155.7066 H   0  0  0  0  0  0  0  0  0  0  0  0
  149.2524  139.2476  155.4363 H   0  0  0  0  0  0  0  0  0  0  0  0
  152.2927  139.2507  155.8379 H   0  0  0  0  0  0  0  0  0  0  0  0
  151.4327  139.5798  154.3469 H   0  0  0  0  0  0  0  0  0  0  0  0
  152.1347  140.8306  157.6323 H   0  0  0  0  0  0  0  0  0  0  0  0
  151.3202  143.2940  156.4770 H   0  0  0  0  0  0  0  0  0  0  0  0
  150.2591  143.0807  157.8401 H   0  0  0  0  0  0  0  0  0  0  0  0
  153.3056  143.1051  157.9127 H   0  0  0  0  0  0  0  0  0  0  0  0
  151.3690  142.6932  160.2457 H   0  0  0  0  0  0  0  0  0  0  0  0
  153.0968  142.9889  160.4065 H   0  0  0  0  0  0  0  0  0  0  0  0
  152.5342  141.5153  159.6452 H   0  0  0  0  0  0  0  0  0  0  0  0
  151.2822  145.0852  159.0502 H   0  0  0  0  0  0  0  0  0  0  0  0
  152.2878  145.3413  157.6261 H   0  0  0  0  0  0  0  0  0  0  0  0
  153.0339  145.1919  159.2105 H   0  0  0  0  0  0  0  0  0  0  0  0
  149.0975  141.0503  157.4010 H   0  0  0  0  0  0  0  0  0  0  0  0
  149.9853  140.7306  158.8738 H   0  0  0  0  0  0  0  0  0  0  0  0
  144.6800  138.2384  159.5065 H   0  0  0  0  0  0  0  0  0  0  0  0
  143.4322  137.0212  159.7773 H   0  0  0  0  0  0  0  0  0  0  0  0
  144.5948  136.8092  158.4665 H   0  0  0  0  0  0  0  0  0  0  0  0
  1  2  1  0  0  0  0
  1 24  1  0  0  0  0
  1 25  1  0  0  0  0
  1 26  1  0  0  0  0
  2  3  1  0  0  0  0
  3 23  1  0  0  0  0
  3  4  2  0  0  0  0
  4  5  1  0  0  0  0
  4 27  1  0  0  0  0
  5  6  2  0  0  0  0
  5 28  1  0  0  0  0
  6  7  1  0  0  0  0
  6 21  1  0  0  0  0
  7  8  1  0  0  0  0
  7 29  1  0  0  0  0
  8  9  2  0  0  0  0
  8 10  1  0  0  0  0
 10 11  1  0  0  0  0
 10 30  1  0  0  0  0
 11 20  1  0  0  0  0
 11 12  1  0  0  0  0
 11 31  1  0  0  0  0
 12 13  1  0  0  0  0
 12 32  1  0  0  0  0
 12 33  1  0  0  0  0
 13 14  1  0  0  0  0
 13 34  1  0  0  0  0
 13 35  1  0  0  0  0
 14 15  1  0  0  0  0
 15 16  1  0  0  0  0
 15 20  1  0  0  0  0
 15 36  1  0  0  0  0
 16 17  1  0  0  0  0
 16 37  1  0  0  0  0
 16 38  1  0  0  0  0
 17 18  1  0  0  0  0
 17 19  1  0  0  0  0
 17 39  1  0  0  0  0
 18 40  1  0  0  0  0
 18 41  1  0  0  0  0
 18 42  1  0  0  0  0
 19 43  1  0  0  0  0
 19 44  1  0  0  0  0
 19 45  1  0  0  0  0
 20 46  1  0  0  0  0
 20 47  1  0  0  0  0
 21 22  1  0  0  0  0
 21 23  2  0  0  0  0
 22 48  1  0  0  0  0
 22 49  1  0  0  0  0
 22 50  1  0  0  0  0
M  END
> <s_m_source_file>
AV-unprocessed.smi

> <i_m_source_file_index>
2826

> <i_lp_mmshare_version>
43012

> <i_f3d_flags>
0

> <s_epik_input>
W0NIM11PYzFbY0hdW2NIXWMoYyhuMSlbQ0gzXSlbTkhdQyg9TylbTkhdW0NAQEhdMltDSDJdW0NIMl1PW0NASF0oW0NIMl0yKVtDSDJdW0NIXShbQ0gzXSlbQ0gzXQ==

> <s_epik_cmdline>
J2VwaWtfcHl0aG9uJywgJy1waCcsICc3LjAnLCAnLXRuJywgJzgnLCAnLW1hJywgJzIwMCcsICctbWV0YWxfYmluZGluZycsICctaW1hZScsICc8aW5maWxlLm1hZT4nLCAnLW9tYWUnLCAnPG91dGZpbGUubWFlPic=

> <r_lp_tautomer_probability>
1

> <r_epik_Ionization_Penalty>
0.000249977

> <r_epik_Ionization_Penalty_Charging>
0

> <r_epik_Ionization_Penalty_Neutral>
0.000249977

> <r_epik_State_Penalty>
-0

> <r_epik_Charging_Adjusted_Penalty>
0

> <i_epik_Tot_Q>
0

> <i_epik_Tot_abs_Q>
0

> <r_epik_Metal_State_Penalty>
-0

> <b_epik_Metal_Only>
0

> <s_lp_Force_Field>
OPLS_2005

> <r_lp_Energy>
13.3691

> <b_lp_Chiralities_Consistent>
1

> <s_lp_Variant>
AV-unprocessed.smi:2826-2

> <Gold.Version>
5.8.1

> <Gold.Id.Protein>
6NUR|6NUR_protein|mol2

> <Gold.PLP.Fitness>
36.2284

> <Gold.PLP.PLP>
-38.1290

> <Gold.PLP.part.hbond>
-2.7693

> <Gold.PLP.part.metal>
0.0000

> <Gold.PLP.part.buried>
-3.9612

> <Gold.PLP.part.nonpolar>
-31.3578

> <Gold.PLP.part.repulsive>
0.3229

> <Gold.PLP.ligand.clash>
0.0000

> <Gold.PLP.ligand.torsion>
1.0635

> <Gold.PLP.Chemscore.Hbond>
0.0572

> <Gold.PLP.Chemscore.CHOScore>
0.0000

> <Gold.PLP.Chemscore.Metal>
0.0000

> <Gold.Chemscore.Hbonds>
donor molecule, donor type, donor heavy atom, donor atom, acceptor molecule, acceptor atom, score
      P1  H  6931  6943       L1     9  0.09

> <Gold.PLP.Chemscore.Internal.Correction>
0.0547

> <Gold.Rescore>
     Score         DG    S(hbond)    S(metal)    S(lipo)     H(rot)  DE(clash)    DE(int)     intcor
     11.24     -13.63       0.16        0.00      98.02       1.51       0.01       2.37       ----

> <Gold.Chemscore.Fitness>
11.2415

> <Gold.Chemscore.DG>
-13.6272

> <Gold.Chemscore.ZeroCoef>
-5.4800

> <Gold.Chemscore.Hbond>
0.1598

> <Gold.Chemscore.Metal>
0.0000

> <Gold.Chemscore.Lipo>
98.0178

> <Gold.Chemscore.Internal_Hbond>
0.0000

> <Gold.Chemscore.DEClash>
0.0126

> <Gold.Chemscore.DEInternal>
2.3731

> <Gold.Chemscore.Rot>
1.5057

> <Gold.Chemscore.Internal.Correction>
   9.000000E+99

> <Gold.Chemscore.Hbonds>
donor molecule, donor type, donor heavy atom, donor atom, acceptor molecule, acceptor atom, score
      P1  H  6931  6943       L1     9  0.08

> <Gold.Chemscore.Hbond.Weighted>
-0.5338

> <Gold.Chemscore.Metal.Weighted>
-0.0000

> <Gold.Chemscore.Lipo.Weighted>
-11.4681

> <Gold.Chemscore.Internal_Hbond.Weighted>
0.0000

> <Gold.Chemscore.DEClash.Weighted>
0.0126

> <Gold.Chemscore.DEInternal.Weighted>
2.3731

> <Gold.Chemscore.Rot.Weighted>
3.8547

> <Gold.Chemscore.Internal.Correction.Weighted>
   9.000000E+99

> <Gold.Protein.RotatedTorsions>
[ 6907 6896 6895 6894 ] final   77.08 input  -60.11 | X-H torsion
[ 7974 7965 7964 7962 ] final  -84.94 input  175.53 | X-H torsion
[ 8008 7997 7996 7995 ] final   30.25 input   59.86 | X-H torsion
[ 10167 10162 10161 10158 ] final   56.67 input  -65.29 | X-H torsion
[ 10718 10713 10712 10709 ] final  151.09 input   66.30 | X-H torsion
[ 10763 10752 10751 10750 ] final  131.01 input  -60.55 | X-H torsion
[ 11005 11000 10999 10996 ] final -128.06 input  -57.11 | X-H torsion

> <Gold.Protein.ActiveResidues>
 VAL166  LYS551  ARG553  GLY616  TRP617  ASP618  TYR619  PRO620  LYS621  CYS622 
 ASP623  PHE694  ASN695  SER759  ASP760  ASP761  ALA762  ILE779  LEU786  VAL792 
 PHE793  MET794  SER795  GLU796  ALA797  LYS798  CYS799  TRP800  GLU811  SER814 

> <Gold.Protein.RotatedAtoms>
  152.5102  134.3871  159.9370 H   0  0  0  0  0  0  0  0  0  0  0  0  # atno 6907 bound_to 6896
  151.3829  133.3808  159.2720 H   0  0  0  0  0  0  0  0  0  0  0  0  # atno 6908 bound_to 6896
  150.9490  134.8913  159.7719 H   0  0  0  0  0  0  0  0  0  0  0  0  # atno 6909 bound_to 6896
  145.4999  140.9548  143.1765 H   0  0  0  0  0  0  0  0  0  0  0  0  # atno 7974 bound_to 7965
  155.0874  140.3216  155.4583 H   0  0  0  0  0  0  0  0  0  0  0  0  # atno 8008 bound_to 7997
  156.2751  140.2084  156.5947 H   0  0  0  0  0  0  0  0  0  0  0  0  # atno 8009 bound_to 7997
  154.6930  140.0514  157.0370 H   0  0  0  0  0  0  0  0  0  0  0  0  # atno 8010 bound_to 7997
  140.2062  144.3936  150.6508 H   0  0  0  0  0  0  0  0  0  0  0  0  # atno 10167 bound_to 10162
  157.2752  131.0824  151.1571 H   0  0  0  0  0  0  0  0  0  0  0  0  # atno 10718 bound_to 10713
  153.7673  135.3187  155.3346 H   0  0  0  0  0  0  0  0  0  0  0  0  # atno 10763 bound_to 10752
  154.8209  135.4604  154.0779 H   0  0  0  0  0  0  0  0  0  0  0  0  # atno 10764 bound_to 10752
  153.2028  135.6925  153.8294 H   0  0  0  0  0  0  0  0  0  0  0  0  # atno 10765 bound_to 10752
  140.9547  134.1017  157.4027 H   0  0  0  0  0  0  0  0  0  0  0  0  # atno 11005 bound_to 11000
  144.7786  139.6575  143.7164 LP  0  0  0  0  0  0  0  0  0  0  0  0  # atno 17320 bound_to 7965
  146.2232  139.5675  142.9604 LP  0  0  0  0  0  0  0  0  0  0  0  0  # atno 17321 bound_to 7965
  140.6355  143.2194  151.6403 LP  0  0  0  0  0  0  0  0  0  0  0  0  # atno 17342 bound_to 10162
  139.5197  144.3244  152.0882 LP  0  0  0  0  0  0  0  0  0  0  0  0  # atno 17343 bound_to 10162
  157.3027  130.6851  149.6173 LP  0  0  0  0  0  0  0  0  0  0  0  0  # atno 17370 bound_to 10713
  155.9663  130.4387  150.5228 LP  0  0  0  0  0  0  0  0  0  0  0  0  # atno 17371 bound_to 10713
  139.8858  135.0076  156.6461 LP  0  0  0  0  0  0  0  0  0  0  0  0  # atno 17394 bound_to 11000
  140.7552  133.8863  155.8377 LP  0  0  0  0  0  0  0  0  0  0  0  0  # atno 17395 bound_to 11000

$$$$
