AV-unprocessed.smi:240|AV-procd|sdf|1830|dock8
  -GOLD-   2262020433D 1   1.00000     0.00000
 Structure written by MMmdl.
 55 59  0  0  0  0  0  0  0  0  1 V2000
  151.4483  144.3049  156.9188 O   0  0  0  0  0  0  0  0  0  0  0  0
  150.6743  143.6551  157.9106 C   0  0  2  0  0  0  0  0  0  0  0  0
  151.3168  143.9158  159.2769 C   0  0  0  0  0  0  0  0  0  0  0  0
  152.3264  142.7827  159.4934 C   0  0  0  0  0  0  0  0  0  0  0  0
  152.0964  141.7813  158.3550 C   0  0  0  0  0  0  0  0  0  0  0  0
  150.7220  142.1195  157.7470 C   0  0  2  0  0  0  0  0  0  0  0  0
  150.4625  141.5288  156.3191 C   0  0  1  0  0  0  0  0  0  0  0  0
  151.5593  140.4933  155.9531 C   0  0  0  0  0  0  0  0  0  0  0  0
  151.3200  139.9121  154.6775 O   0  0  0  0  0  0  0  0  0  0  0  0
  150.0939  139.1989  154.6476 C   0  0  0  0  0  0  0  0  0  0  0  0
  148.9543  140.1885  154.9068 C   0  0  0  0  0  0  0  0  0  0  0  0
  149.1508  140.8707  156.1830 N   0  0  0  0  0  0  0  0  0  0  0  0
  148.0562  141.5991  156.4906 C   0  0  0  0  0  0  0  0  0  0  0  0
  147.7731  141.7622  157.8061 N   0  0  0  0  0  0  0  0  0  0  0  0
  146.7087  142.4815  158.1746 C   0  0  0  0  0  0  0  0  0  0  0  0
  145.8159  143.1072  157.4042 N   0  0  0  0  0  0  0  0  0  0  0  0
  146.0904  142.9302  156.0797 C   0  0  0  0  0  0  0  0  0  0  0  0
  147.1796  142.1919  155.5383 C   0  0  0  0  0  0  0  0  0  0  0  0
  147.1384  142.2328  154.1501 N   0  0  0  0  0  0  0  0  0  0  0  0
  146.0866  142.9589  153.8858 C   0  0  0  0  0  0  0  0  0  0  0  0
  145.3967  143.4174  154.9857 N   0  0  0  0  0  0  0  0  0  0  0  0
  144.2019  144.2477  154.9767 C   0  0  0  0  0  0  0  0  0  0  0  0
  142.9416  143.5220  155.5019 C   0  0  1  0  0  0  0  0  0  0  0  0
  141.9659  143.4886  154.4740 O   0  0  0  0  0  0  0  0  0  0  0  0
  143.1950  142.0949  155.9791 C   0  0  0  0  0  0  0  0  0  0  0  0
  142.1742  141.9234  157.0952 C   0  0  0  0  0  0  0  0  0  0  0  0
  142.2015  143.1871  157.7360 O   0  0  0  0  0  0  0  0  0  0  0  0
  142.3195  144.1983  156.7401 C   0  0  0  0  0  0  0  0  0  0  0  0
  150.8774  144.5588  156.2093 H   0  0  0  0  0  0  0  0  0  0  0  0
  149.6630  144.0572  157.8907 H   0  0  0  0  0  0  0  0  0  0  0  0
  151.7728  144.9042  159.3502 H   0  0  0  0  0  0  0  0  0  0  0  0
  150.5495  143.8611  160.0504 H   0  0  0  0  0  0  0  0  0  0  0  0
  153.3515  143.1544  159.4768 H   0  0  0  0  0  0  0  0  0  0  0  0
  152.1649  142.3129  160.4643 H   0  0  0  0  0  0  0  0  0  0  0  0
  152.8762  141.9124  157.6034 H   0  0  0  0  0  0  0  0  0  0  0  0
  152.1534  140.7520  158.7108 H   0  0  0  0  0  0  0  0  0  0  0  0
  149.9742  141.6949  158.4195 H   0  0  0  0  0  0  0  0  0  0  0  0
  150.5204  142.3311  155.5832 H   0  0  0  0  0  0  0  0  0  0  0  0
  152.5403  140.9647  155.9035 H   0  0  0  0  0  0  0  0  0  0  0  0
  151.6226  139.7089  156.7095 H   0  0  0  0  0  0  0  0  0  0  0  0
  149.9751  138.7338  153.6691 H   0  0  0  0  0  0  0  0  0  0  0  0
  150.0978  138.3970  155.3878 H   0  0  0  0  0  0  0  0  0  0  0  0
  148.9158  140.9176  154.0966 H   0  0  0  0  0  0  0  0  0  0  0  0
  148.0011  139.6575  154.9079 H   0  0  0  0  0  0  0  0  0  0  0  0
  146.5509  142.5702  159.2394 H   0  0  0  0  0  0  0  0  0  0  0  0
  145.7813  143.1808  152.8733 H   0  0  0  0  0  0  0  0  0  0  0  0
  144.3995  145.1379  155.5754 H   0  0  0  0  0  0  0  0  0  0  0  0
  144.0369  144.5974  153.9567 H   0  0  0  0  0  0  0  0  0  0  0  0
  142.2595  142.8925  153.8020 H   0  0  0  0  0  0  0  0  0  0  0  0
  143.1079  141.3432  155.1933 H   0  0  0  0  0  0  0  0  0  0  0  0
  144.1940  142.0125  156.4086 H   0  0  0  0  0  0  0  0  0  0  0  0
  141.1779  141.7335  156.6929 H   0  0  0  0  0  0  0  0  0  0  0  0
  142.4310  141.1178  157.7835 H   0  0  0  0  0  0  0  0  0  0  0  0
  142.9417  145.0056  157.1280 H   0  0  0  0  0  0  0  0  0  0  0  0
  141.3354  144.6194  156.5283 H   0  0  0  0  0  0  0  0  0  0  0  0
  1  2  1  0  0  0  0
  1 29  1  0  0  0  0
  2  6  1  0  0  0  0
  2  3  1  0  0  0  0
  2 30  1  0  0  0  0
  3  4  1  0  0  0  0
  3 31  1  0  0  0  0
  3 32  1  0  0  0  0
  4  5  1  0  0  0  0
  4 33  1  0  0  0  0
  4 34  1  0  0  0  0
  5  6  1  0  0  0  0
  5 35  1  0  0  0  0
  5 36  1  0  0  0  0
  6  7  1  0  0  0  0
  6 37  1  0  0  0  0
  7 12  1  0  0  0  0
  7  8  1  0  0  0  0
  7 38  1  0  0  0  0
  8  9  1  0  0  0  0
  8 39  1  0  0  0  0
  8 40  1  0  0  0  0
  9 10  1  0  0  0  0
 10 11  1  0  0  0  0
 10 41  1  0  0  0  0
 10 42  1  0  0  0  0
 11 12  1  0  0  0  0
 11 43  1  0  0  0  0
 11 44  1  0  0  0  0
 12 13  1  0  0  0  0
 13 18  1  0  0  0  0
 13 14  2  0  0  0  0
 14 15  1  0  0  0  0
 15 16  2  0  0  0  0
 15 45  1  0  0  0  0
 16 17  1  0  0  0  0
 17 21  1  0  0  0  0
 17 18  2  0  0  0  0
 18 19  1  0  0  0  0
 19 20  2  0  0  0  0
 20 21  1  0  0  0  0
 20 46  1  0  0  0  0
 21 22  1  0  0  0  0
 22 23  1  0  0  0  0
 22 47  1  0  0  0  0
 22 48  1  0  0  0  0
 23 28  1  0  0  0  0
 23 24  1  0  0  0  0
 23 25  1  0  0  0  0
 24 49  1  0  0  0  0
 25 26  1  0  0  0  0
 25 50  1  0  0  0  0
 25 51  1  0  0  0  0
 26 27  1  0  0  0  0
 26 52  1  0  0  0  0
 26 53  1  0  0  0  0
 27 28  1  0  0  0  0
 28 54  1  0  0  0  0
 28 55  1  0  0  0  0
M  END
> <s_m_source_file>
AV-unprocessed.smi

> <i_m_source_file_index>
240

> <i_lp_mmshare_version>
43012

> <i_f3d_flags>
0

> <s_epik_input>
W09IXVtDQEBIXTFbQ0gyXVtDSDJdW0NIMl1bQ0BIXTFbQ0BASF0yW0NIMl1PW0NIMl1bQ0gyXU4yYyhuW2NIXW4zKWMoYzM0KW5bY0hdbjRbQ0gyXVtDQEBdNShbT0hdKVtDSDJdW0NIMl1PW0NIMl01

> <s_epik_cmdline>
J2VwaWtfcHl0aG9uJywgJy1waCcsICc3LjAnLCAnLXRuJywgJzgnLCAnLW1hJywgJzIwMCcsICctbWV0YWxfYmluZGluZycsICctaW1hZScsICc8aW5maWxlLm1hZT4nLCAnLW9tYWUnLCAnPG91dGZpbGUubWFlPic=

> <r_lp_tautomer_probability>
1

> <r_epik_Ionization_Penalty>
0.000130618

> <r_epik_Ionization_Penalty_Charging>
0

> <r_epik_Ionization_Penalty_Neutral>
0.000130618

> <r_epik_State_Penalty>
-0

> <r_epik_Charging_Adjusted_Penalty>
0

> <i_epik_Tot_Q>
0

> <i_epik_Tot_abs_Q>
0

> <r_epik_Metal_State_Penalty>
-0

> <b_epik_Metal_Only>
0

> <s_lp_Force_Field>
OPLS_2005

> <r_lp_Energy>
63.9037

> <b_lp_Chiralities_Consistent>
1

> <s_lp_Variant>
AV-unprocessed.smi:240-7

> <Gold.Version>
5.8.1

> <Gold.Id.Protein>
6NUR|6NUR_protein|mol2

> <Gold.PLP.Fitness>
42.5491

> <Gold.PLP.PLP>
-39.5462

> <Gold.PLP.part.hbond>
-2.9703

> <Gold.PLP.part.metal>
0.0000

> <Gold.PLP.part.buried>
-7.1357

> <Gold.PLP.part.nonpolar>
-31.0575

> <Gold.PLP.part.repulsive>
0.4976

> <Gold.PLP.ligand.clash>
0.0044

> <Gold.PLP.ligand.torsion>
3.1453

> <Gold.PLP.Chemscore.Hbond>
2.9920

> <Gold.PLP.Chemscore.CHOScore>
0.0000

> <Gold.PLP.Chemscore.Metal>
0.0000

> <Gold.Chemscore.Hbonds>
donor molecule, donor type, donor heavy atom, donor atom, acceptor molecule, acceptor atom, score
      L1  H     1    29       P1  8028  0.87
      L1  H    24    49       P1 10174  1.00
      P1  H  7989  7998       L1     9  1.00

> <Gold.PLP.Chemscore.Internal.Correction>
0.3219

> <Gold.Rescore>
     Score         DG    S(hbond)    S(metal)    S(lipo)     H(rot)  DE(clash)    DE(int)     intcor
     11.54     -16.98       2.91        0.00      80.83       3.00       0.16       5.27       ----

> <Gold.Chemscore.Fitness>
11.5414

> <Gold.Chemscore.DG>
-16.9775

> <Gold.Chemscore.ZeroCoef>
-5.4800

> <Gold.Chemscore.Hbond>
2.9134

> <Gold.Chemscore.Metal>
0.0000

> <Gold.Chemscore.Lipo>
80.8269

> <Gold.Chemscore.Internal_Hbond>
0.0000

> <Gold.Chemscore.DEClash>
0.1630

> <Gold.Chemscore.DEInternal>
5.2731

> <Gold.Chemscore.Rot>
3.0039

> <Gold.Chemscore.Internal.Correction>
   9.000000E+99

> <Gold.Chemscore.Hbonds>
donor molecule, donor type, donor heavy atom, donor atom, acceptor molecule, acceptor atom, score
      L1  H     1    29       P1  8028  0.80
      L1  H    24    49       P1 10174  0.97
      P1  H  7989  7998       L1     9  0.78

> <Gold.Chemscore.Hbond.Weighted>
-9.7307

> <Gold.Chemscore.Metal.Weighted>
-0.0000

> <Gold.Chemscore.Lipo.Weighted>
-9.4567

> <Gold.Chemscore.Internal_Hbond.Weighted>
0.0000

> <Gold.Chemscore.DEClash.Weighted>
0.1630

> <Gold.Chemscore.DEInternal.Weighted>
5.2731

> <Gold.Chemscore.Rot.Weighted>
7.6899

> <Gold.Chemscore.Internal.Correction.Weighted>
   9.000000E+99

> <Gold.Protein.RotatedTorsions>
[ 6907 6896 6895 6894 ] final  -58.79 input  -60.11 | X-H torsion
[ 7974 7965 7964 7962 ] final -177.15 input  175.53 | X-H torsion
[ 8008 7997 7996 7995 ] final  100.60 input   59.86 | X-H torsion
[ 10167 10162 10161 10158 ] final   14.12 input  -65.29 | X-H torsion
[ 10718 10713 10712 10709 ] final  131.18 input   66.30 | X-H torsion
[ 10763 10752 10751 10750 ] final   40.79 input  -60.55 | X-H torsion
[ 11005 11000 10999 10996 ] final  -28.39 input  -57.11 | X-H torsion

> <Gold.Protein.ActiveResidues>
 VAL166  LYS551  ARG553  GLY616  TRP617  ASP618  TYR619  PRO620  LYS621  CYS622 
 ASP623  PHE694  ASN695  SER759  ASP760  ASP761  ALA762  ILE779  LEU786  VAL792 
 PHE793  MET794  SER795  GLU796  ALA797  LYS798  CYS799  TRP800  GLU811  SER814 

> <Gold.Protein.RotatedAtoms>
  150.7980  134.7053  159.6572 H   0  0  0  0  0  0  0  0  0  0  0  0  # atno 6907 bound_to 6896
  152.4094  134.6147  160.0045 H   0  0  0  0  0  0  0  0  0  0  0  0  # atno 6908 bound_to 6896
  151.6394  133.3290  159.3163 H   0  0  0  0  0  0  0  0  0  0  0  0  # atno 6909 bound_to 6896
  144.7127  140.1063  143.6413 H   0  0  0  0  0  0  0  0  0  0  0  0  # atno 7974 bound_to 7965
  156.1219  140.3211  155.8220 H   0  0  0  0  0  0  0  0  0  0  0  0  # atno 8008 bound_to 7997
  155.4490  140.0531  157.3020 H   0  0  0  0  0  0  0  0  0  0  0  0  # atno 8009 bound_to 7997
  154.4833  140.2062  155.9726 H   0  0  0  0  0  0  0  0  0  0  0  0  # atno 8010 bound_to 7997
  140.5957  143.8706  150.6916 H   0  0  0  0  0  0  0  0  0  0  0  0  # atno 10167 bound_to 10162
  157.4992  131.1093  150.9450 H   0  0  0  0  0  0  0  0  0  0  0  0  # atno 10718 bound_to 10713
  152.9926  135.6181  154.2683 H   0  0  0  0  0  0  0  0  0  0  0  0  # atno 10763 bound_to 10752
  154.2416  135.2788  155.2853 H   0  0  0  0  0  0  0  0  0  0  0  0  # atno 10764 bound_to 10752
  154.5364  135.5773  153.6860 H   0  0  0  0  0  0  0  0  0  0  0  0  # atno 10765 bound_to 10752
  140.9204  133.7403  156.0793 H   0  0  0  0  0  0  0  0  0  0  0  0  # atno 11005 bound_to 11000
  145.9494  139.2723  143.1221 LP  0  0  0  0  0  0  0  0  0  0  0  0  # atno 17320 bound_to 7965
  145.9339  140.9028  143.0342 LP  0  0  0  0  0  0  0  0  0  0  0  0  # atno 17321 bound_to 7965
  140.2240  143.3787  152.1620 LP  0  0  0  0  0  0  0  0  0  0  0  0  # atno 17342 bound_to 10162
  139.5257  144.7098  151.5240 LP  0  0  0  0  0  0  0  0  0  0  0  0  # atno 17343 bound_to 10162
  157.0127  130.5643  149.5322 LP  0  0  0  0  0  0  0  0  0  0  0  0  # atno 17370 bound_to 10713
  156.0219  130.5313  150.8299 LP  0  0  0  0  0  0  0  0  0  0  0  0  # atno 17371 bound_to 10713
  140.7995  134.3524  157.5443 LP  0  0  0  0  0  0  0  0  0  0  0  0  # atno 17394 bound_to 11000
  139.8774  134.9189  156.3214 LP  0  0  0  0  0  0  0  0  0  0  0  0  # atno 17395 bound_to 11000

$$$$
