AV-unprocessed.smi:2192|AV-procd|sdf|8896|dock6
  -GOLD-   2272012103D 1   1.00000     0.00000
 Structure written by MMmdl.
 42 44  0  0  0  0  0  0  0  0  1 V2000
  145.3812  141.7067  159.1056 C   0  0  0  0  0  0  0  0  0  0  0  0
  145.3704  142.2054  157.7175 N   0  0  0  0  0  0  0  0  0  0  0  0
  146.1799  141.5866  156.8012 C   0  0  0  0  0  0  0  0  0  0  0  0
  146.9234  140.6349  157.0432 O   0  0  0  0  0  0  0  0  0  0  0  0
  146.0974  142.1612  155.4557 C   0  0  0  0  0  0  0  0  0  0  0  0
  145.2919  143.2054  155.1464 C   0  0  0  0  0  0  0  0  0  0  0  0
  145.4036  143.5513  153.8044 N   0  0  0  0  0  0  0  0  0  0  0  0
  146.3001  142.6674  153.3637 C   0  0  0  0  0  0  0  0  0  0  0  0
  146.7678  141.8034  154.2882 N   0  0  0  0  0  0  0  0  0  0  0  0
  147.7474  140.7503  154.0724 C   0  0  0  0  0  0  0  0  0  0  0  0
  149.1838  141.1985  154.4093 C   0  0  2  0  0  0  0  0  0  0  0  0
  150.1101  140.2431  153.9302 O   0  0  0  0  0  0  0  0  0  0  0  0
  149.4019  141.3761  155.9185 C   0  0  0  0  0  0  0  0  0  0  0  0
  150.7903  141.2517  156.1976 O   0  0  0  0  0  0  0  0  0  0  0  0
  151.2628  141.7397  157.3965 C   0  0  0  0  0  0  0  0  0  0  0  0
  150.5615  142.8227  157.9663 C   0  0  0  0  0  0  0  0  0  0  0  0
  150.9728  143.3844  159.1905 C   0  0  0  0  0  0  0  0  0  0  0  0
  152.0973  142.8666  159.8589 C   0  0  0  0  0  0  0  0  0  0  0  0
  152.4954  143.4055  161.0356 F   0  0  0  0  0  0  0  0  0  0  0  0
  152.8078  141.7873  159.3012 C   0  0  0  0  0  0  0  0  0  0  0  0
  152.3951  141.2245  158.0776 C   0  0  0  0  0  0  0  0  0  0  0  0
  144.4920  143.7722  156.1693 N   0  0  0  0  0  0  0  0  0  0  0  0
  143.6324  144.9002  155.7979 C   0  0  0  0  0  0  0  0  0  0  0  0
  144.5315  143.2747  157.4499 C   0  0  0  0  0  0  0  0  0  0  0  0
  143.8351  143.7707  158.3397 O   0  0  0  0  0  0  0  0  0  0  0  0
  146.0462  140.8614  159.2856 H   0  0  0  0  0  0  0  0  0  0  0  0
  144.3822  141.3820  159.4015 H   0  0  0  0  0  0  0  0  0  0  0  0
  145.6937  142.4970  159.7901 H   0  0  0  0  0  0  0  0  0  0  0  0
  146.6309  142.6508  152.3354 H   0  0  0  0  0  0  0  0  0  0  0  0
  147.4612  139.8851  154.6710 H   0  0  0  0  0  0  0  0  0  0  0  0
  147.6881  140.4294  153.0312 H   0  0  0  0  0  0  0  0  0  0  0  0
  149.4041  142.1424  153.9100 H   0  0  0  0  0  0  0  0  0  0  0  0
  149.8078  139.9246  153.0934 H   0  0  0  0  0  0  0  0  0  0  0  0
  149.0269  142.3495  156.2396 H   0  0  0  0  0  0  0  0  0  0  0  0
  148.8531  140.6048  156.4615 H   0  0  0  0  0  0  0  0  0  0  0  0
  149.6974  143.2264  157.4592 H   0  0  0  0  0  0  0  0  0  0  0  0
  150.4252  144.2126  159.6156 H   0  0  0  0  0  0  0  0  0  0  0  0
  153.6718  141.3893  159.8125 H   0  0  0  0  0  0  0  0  0  0  0  0
  152.9657  140.3980  157.6820 H   0  0  0  0  0  0  0  0  0  0  0  0
  143.0475  145.3120  156.6208 H   0  0  0  0  0  0  0  0  0  0  0  0
  142.9297  144.5917  155.0232 H   0  0  0  0  0  0  0  0  0  0  0  0
  144.2380  145.7126  155.3945 H   0  0  0  0  0  0  0  0  0  0  0  0
  1  2  1  0  0  0  0
  1 26  1  0  0  0  0
  1 27  1  0  0  0  0
  1 28  1  0  0  0  0
  2 24  1  0  0  0  0
  2  3  1  0  0  0  0
  3  4  2  0  0  0  0
  3  5  1  0  0  0  0
  5  9  1  0  0  0  0
  5  6  2  0  0  0  0
  6  7  1  0  0  0  0
  6 22  1  0  0  0  0
  7  8  2  0  0  0  0
  8  9  1  0  0  0  0
  8 29  1  0  0  0  0
  9 10  1  0  0  0  0
 10 11  1  0  0  0  0
 10 30  1  0  0  0  0
 10 31  1  0  0  0  0
 11 12  1  0  0  0  0
 11 13  1  0  0  0  0
 11 32  1  0  0  0  0
 12 33  1  0  0  0  0
 13 14  1  0  0  0  0
 13 34  1  0  0  0  0
 13 35  1  0  0  0  0
 14 15  1  0  0  0  0
 15 21  1  0  0  0  0
 15 16  2  0  0  0  0
 16 17  1  0  0  0  0
 16 36  1  0  0  0  0
 17 18  2  0  0  0  0
 17 37  1  0  0  0  0
 18 19  1  0  0  0  0
 18 20  1  0  0  0  0
 20 21  2  0  0  0  0
 20 38  1  0  0  0  0
 21 39  1  0  0  0  0
 22 23  1  0  0  0  0
 22 24  1  0  0  0  0
 23 40  1  0  0  0  0
 23 41  1  0  0  0  0
 23 42  1  0  0  0  0
 24 25  2  0  0  0  0
M  END
> <s_m_source_file>
AV-unprocessed.smi

> <i_m_source_file_index>
2192

> <i_lp_mmshare_version>
43012

> <i_f3d_flags>
0

> <s_epik_input>
Tz1jMW4oW0NIM10pYyg9TyluKFtDSDNdKWMoYzEyKW5bY0hdbjJbQ0gyXVtDQEhdKFtPSF0pW0NIMl1PYzNbY0hdW2NIXWMoRilbY0hdW2NIXTM=

> <s_epik_cmdline>
J2VwaWtfcHl0aG9uJywgJy1waCcsICc3LjAnLCAnLXRuJywgJzgnLCAnLW1hJywgJzIwMCcsICctbWV0YWxfYmluZGluZycsICctaW1hZScsICc8aW5maWxlLm1hZT4nLCAnLW9tYWUnLCAnPG91dGZpbGUubWFlPic=

> <r_lp_tautomer_probability>
1

> <r_epik_Ionization_Penalty>
1.0344e-06

> <r_epik_Ionization_Penalty_Charging>
3.2247e-09

> <r_epik_Ionization_Penalty_Neutral>
1.03118e-06

> <r_epik_State_Penalty>
-0

> <r_epik_Charging_Adjusted_Penalty>
3.2247e-09

> <i_epik_Tot_Q>
0

> <i_epik_Tot_abs_Q>
0

> <r_epik_Metal_State_Penalty>
-0

> <b_epik_Metal_Only>
0

> <s_lp_Force_Field>
OPLS_2005

> <r_lp_Energy>
38.6998

> <b_lp_Chiralities_Consistent>
1

> <s_lp_Variant>
AV-unprocessed.smi:2192-1

> <Gold.Version>
5.8.1

> <Gold.Id.Protein>
6NUR|6NUR_protein|mol2

> <Gold.PLP.Fitness>
46.8757

> <Gold.PLP.PLP>
-43.5458

> <Gold.PLP.part.hbond>
-2.0317

> <Gold.PLP.part.metal>
0.0000

> <Gold.PLP.part.buried>
-8.8032

> <Gold.PLP.part.nonpolar>
-32.7983

> <Gold.PLP.part.repulsive>
0.3300

> <Gold.PLP.ligand.clash>
0.0000

> <Gold.PLP.ligand.torsion>
1.1314

> <Gold.PLP.Chemscore.Hbond>
1.8560

> <Gold.PLP.Chemscore.CHOScore>
0.0000

> <Gold.PLP.Chemscore.Metal>
0.0000

> <Gold.Chemscore.Hbonds>
donor molecule, donor type, donor heavy atom, donor atom, acceptor molecule, acceptor atom, score
      L1  H    12    33       P1  7957  1.00
      P1  H  7989  7998       L1    12  0.83

> <Gold.PLP.Chemscore.Internal.Correction>
0.0248

> <Gold.Rescore>
     Score         DG    S(hbond)    S(metal)    S(lipo)     H(rot)  DE(clash)    DE(int)     intcor
      8.21     -12.25       1.24        0.00      85.44       2.88       1.62       2.42       ----

> <Gold.Chemscore.Fitness>
8.2085

> <Gold.Chemscore.DG>
-12.2513

> <Gold.Chemscore.ZeroCoef>
-5.4800

> <Gold.Chemscore.Hbond>
1.2389

> <Gold.Chemscore.Metal>
0.0000

> <Gold.Chemscore.Lipo>
85.4392

> <Gold.Chemscore.Internal_Hbond>
0.0000

> <Gold.Chemscore.DEClash>
1.6244

> <Gold.Chemscore.DEInternal>
2.4184

> <Gold.Chemscore.Rot>
2.8762

> <Gold.Chemscore.Internal.Correction>
   9.000000E+99

> <Gold.Chemscore.Hbonds>
donor molecule, donor type, donor heavy atom, donor atom, acceptor molecule, acceptor atom, score
      L1  H    12    33       P1  7957  0.96
      P1  H  7989  7998       L1    12  0.19

> <Gold.Chemscore.Hbond.Weighted>
-4.1380

> <Gold.Chemscore.Metal.Weighted>
-0.0000

> <Gold.Chemscore.Lipo.Weighted>
-9.9964

> <Gold.Chemscore.Internal_Hbond.Weighted>
0.0000

> <Gold.Chemscore.DEClash.Weighted>
1.6244

> <Gold.Chemscore.DEInternal.Weighted>
2.4184

> <Gold.Chemscore.Rot.Weighted>
7.3631

> <Gold.Chemscore.Internal.Correction.Weighted>
   9.000000E+99

> <Gold.Protein.RotatedTorsions>
[ 6907 6896 6895 6894 ] final  130.94 input  -60.11 | X-H torsion
[ 7974 7965 7964 7962 ] final  178.50 input  175.53 | X-H torsion
[ 8008 7997 7996 7995 ] final   86.85 input   59.86 | X-H torsion
[ 10167 10162 10161 10158 ] final  166.36 input  -65.29 | X-H torsion
[ 10718 10713 10712 10709 ] final  -44.21 input   66.30 | X-H torsion
[ 10763 10752 10751 10750 ] final  112.59 input  -60.55 | X-H torsion
[ 11005 11000 10999 10996 ] final  141.54 input  -57.11 | X-H torsion

> <Gold.Protein.ActiveResidues>
 VAL166  LYS551  ARG553  GLY616  TRP617  ASP618  TYR619  PRO620  LYS621  CYS622 
 ASP623  PHE694  ASN695  SER759  ASP760  ASP761  ALA762  ILE779  LEU786  VAL792 
 PHE793  MET794  SER795  GLU796  ALA797  LYS798  CYS799  TRP800  GLU811  SER814 

> <Gold.Protein.RotatedAtoms>
  152.3476  133.6141  159.5921 H   0  0  0  0  0  0  0  0  0  0  0  0  # atno 6907 bound_to 6896
  150.7517  133.9624  159.3529 H   0  0  0  0  0  0  0  0  0  0  0  0  # atno 6908 bound_to 6896
  151.7480  135.0840  160.0377 H   0  0  0  0  0  0  0  0  0  0  0  0  # atno 6909 bound_to 6896
  144.7155  140.0406  143.6437 H   0  0  0  0  0  0  0  0  0  0  0  0  # atno 7974 bound_to 7965
  155.9680  140.3388  155.6549 H   0  0  0  0  0  0  0  0  0  0  0  0  # atno 8008 bound_to 7997
  155.6712  140.0727  157.2537 H   0  0  0  0  0  0  0  0  0  0  0  0  # atno 8009 bound_to 7997
  154.4159  140.1691  156.1869 H   0  0  0  0  0  0  0  0  0  0  0  0  # atno 8010 bound_to 7997
  139.4923  144.4036  151.9381 H   0  0  0  0  0  0  0  0  0  0  0  0  # atno 10167 bound_to 10162
  156.2409  130.4180  149.8762 H   0  0  0  0  0  0  0  0  0  0  0  0  # atno 10718 bound_to 10713
  153.4801  135.3681  155.2437 H   0  0  0  0  0  0  0  0  0  0  0  0  # atno 10763 bound_to 10752
  154.8755  135.3952  154.3710 H   0  0  0  0  0  0  0  0  0  0  0  0  # atno 10764 bound_to 10752
  153.4312  135.7082  153.6294 H   0  0  0  0  0  0  0  0  0  0  0  0  # atno 10765 bound_to 10752
  140.0409  134.9305  157.0841 H   0  0  0  0  0  0  0  0  0  0  0  0  # atno 11005 bound_to 11000
  146.0026  139.3104  143.0918 LP  0  0  0  0  0  0  0  0  0  0  0  0  # atno 17320 bound_to 7965
  145.8775  140.9383  143.0618 LP  0  0  0  0  0  0  0  0  0  0  0  0  # atno 17321 bound_to 7965
  140.3475  144.3128  150.5955 LP  0  0  0  0  0  0  0  0  0  0  0  0  # atno 17342 bound_to 10162
  140.5513  143.2206  151.7922 LP  0  0  0  0  0  0  0  0  0  0  0  0  # atno 17343 bound_to 10162
  156.6344  130.8679  151.3501 LP  0  0  0  0  0  0  0  0  0  0  0  0  # atno 17370 bound_to 10713
  157.7175  130.9515  150.1309 LP  0  0  0  0  0  0  0  0  0  0  0  0  # atno 17371 bound_to 10713
  140.4071  134.2021  155.7163 LP  0  0  0  0  0  0  0  0  0  0  0  0  # atno 17394 bound_to 11000
  141.1882  133.8264  157.1002 LP  0  0  0  0  0  0  0  0  0  0  0  0  # atno 17395 bound_to 11000

$$$$
