AV-unprocessed.smi:1885|AV-procd|sdf|7653|dock10
  -GOLD-   22720 9383D 1   1.00000     0.00000
 Structure written by MMmdl.
 44 46  0  0  0  0  0  0  0  0  2 V2000
  143.8586  132.8887  150.4203 C   0  0  0  0  0  0  0  0  0  0  0  0
  145.0295  132.8379  151.2226 O   0  0  0  0  0  0  0  0  0  0  0  0
  145.3911  133.9735  151.9154 C   0  0  0  0  0  0  0  0  0  0  0  0
  146.1024  133.9659  153.1416 C   0  0  0  0  0  0  0  0  0  0  0  0
  146.4323  135.1760  153.7825 C   0  0  0  0  0  0  0  0  0  0  0  0
  146.0540  136.4101  153.2166 C   0  0  0  0  0  0  0  0  0  0  0  0
  146.4370  137.7065  153.9065 C   0  0  0  0  0  0  0  0  0  0  0  0
  147.7631  138.1116  153.6035 O   0  0  0  0  0  0  0  0  0  0  0  0
  148.3635  138.8544  154.6517 C   0  0  0  0  0  0  0  0  0  0  0  0
  149.8490  138.4645  154.7605 C   0  0  1  0  0  0  0  0  0  0  0  0
  150.5550  139.0886  153.7083 O   0  0  0  0  0  0  0  0  0  0  0  0
  150.5179  138.9059  156.0779 C   0  0  0  0  0  0  0  0  0  0  0  0
  150.4746  140.3608  156.2852 N   0  0  0  0  0  0  0  0  0  0  0  0
  149.8080  141.3125  155.5766 C   0  0  0  0  0  0  0  0  0  0  0  0
  150.0703  142.5167  156.1554 N   0  3  0  0  0  0  0  0  0  0  0  0
  150.9168  142.3333  157.2507 C   0  0  0  0  0  0  0  0  0  0  0  0
  151.4588  143.2505  158.1453 C   0  0  0  0  0  0  0  0  0  0  0  0
  152.2943  142.7338  159.1571 C   0  0  0  0  0  0  0  0  0  0  0  0
  152.8497  143.5833  160.0534 F   0  0  0  0  0  0  0  0  0  0  0  0
  152.5634  141.3520  159.2513 C   0  0  0  0  0  0  0  0  0  0  0  0
  153.3743  140.8976  160.2359 F   0  0  0  0  0  0  0  0  0  0  0  0
  152.0069  140.4314  158.3390 C   0  0  0  0  0  0  0  0  0  0  0  0
  151.1808  140.9499  157.3420 C   0  0  0  0  0  0  0  0  0  0  0  0
  145.3540  136.4233  151.9926 C   0  0  0  0  0  0  0  0  0  0  0  0
  145.0244  135.2132  151.3525 C   0  0  0  0  0  0  0  0  0  0  0  0
  143.7105  131.9224  149.9384 H   0  0  0  0  0  0  0  0  0  0  0  0
  143.9464  133.6390  149.6331 H   0  0  0  0  0  0  0  0  0  0  0  0
  142.9721  133.0964  151.0208 H   0  0  0  0  0  0  0  0  0  0  0  0
  146.4089  133.0435  153.6109 H   0  0  0  0  0  0  0  0  0  0  0  0
  146.9789  135.1523  154.7138 H   0  0  0  0  0  0  0  0  0  0  0  0
  145.7395  138.4904  153.6068 H   0  0  0  0  0  0  0  0  0  0  0  0
  146.3270  137.5653  154.9827 H   0  0  0  0  0  0  0  0  0  0  0  0
  148.2490  139.9287  154.4970 H   0  0  0  0  0  0  0  0  0  0  0  0
  147.8388  138.6039  155.5736 H   0  0  0  0  0  0  0  0  0  0  0  0
  149.9542  137.3837  154.6554 H   0  0  0  0  0  0  0  0  0  0  0  0
  149.9769  139.1776  152.9661 H   0  0  0  0  0  0  0  0  0  0  0  0
  149.9978  138.4554  156.9245 H   0  0  0  0  0  0  0  0  0  0  0  0
  151.5484  138.5560  156.1355 H   0  0  0  0  0  0  0  0  0  0  0  0
  149.1832  141.1426  154.7112 H   0  0  0  0  0  0  0  0  0  0  0  0
  151.2570  144.3092  158.0758 H   0  0  0  0  0  0  0  0  0  0  0  0
  152.2272  139.3779  158.4219 H   0  0  0  0  0  0  0  0  0  0  0  0
  145.0664  137.3595  151.5375 H   0  0  0  0  0  0  0  0  0  0  0  0
  144.4854  135.2370  150.4167 H   0  0  0  0  0  0  0  0  0  0  0  0
  149.6970  143.3972  155.8243 H   0  0  0  0  0  0  0  0  0  0  0  0
  1  2  1  0  0  0  0
  1 26  1  0  0  0  0
  1 27  1  0  0  0  0
  1 28  1  0  0  0  0
  2  3  1  0  0  0  0
  3 25  1  0  0  0  0
  3  4  2  0  0  0  0
  4  5  1  0  0  0  0
  4 29  1  0  0  0  0
  5  6  2  0  0  0  0
  5 30  1  0  0  0  0
  6  7  1  0  0  0  0
  6 24  1  0  0  0  0
  7  8  1  0  0  0  0
  7 31  1  0  0  0  0
  7 32  1  0  0  0  0
  8  9  1  0  0  0  0
  9 10  1  0  0  0  0
  9 33  1  0  0  0  0
  9 34  1  0  0  0  0
 10 11  1  0  0  0  0
 10 12  1  0  0  0  0
 10 35  1  0  0  0  0
 11 36  1  0  0  0  0
 12 13  1  0  0  0  0
 12 37  1  0  0  0  0
 12 38  1  0  0  0  0
 13 23  1  0  0  0  0
 13 14  1  0  0  0  0
 14 15  2  0  0  0  0
 14 39  1  0  0  0  0
 15 16  1  0  0  0  0
 15 44  1  0  0  0  0
 16 23  2  0  0  0  0
 16 17  1  0  0  0  0
 17 18  2  0  0  0  0
 17 40  1  0  0  0  0
 18 19  1  0  0  0  0
 18 20  1  0  0  0  0
 20 21  1  0  0  0  0
 20 22  2  0  0  0  0
 22 23  1  0  0  0  0
 22 41  1  0  0  0  0
 24 25  2  0  0  0  0
 24 42  1  0  0  0  0
 25 43  1  0  0  0  0
M  CHG  1  15   1
M  END
> <s_m_source_file>
AV-unprocessed.smi

> <i_m_source_file_index>
1885

> <i_lp_mmshare_version>
43012

> <i_f3d_flags>
0

> <s_epik_input>
W0NIM11PYzFbY0hdW2NIXWMoW2NIXVtjSF0xKVtDSDJdT1tDSDJdW0NASF0oW09IXSlbQ0gyXW4oW2NIXW4yKWMoYzIzKVtjSF1jKEYpYyhGKVtjSF0z

> <s_epik_cmdline>
J2VwaWtfcHl0aG9uJywgJy1waCcsICc3LjAnLCAnLXRuJywgJzgnLCAnLW1hJywgJzIwMCcsICctbWV0YWxfYmluZGluZycsICctaW1hZScsICc8aW5maWxlLm1hZT4nLCAnLW9tYWUnLCAnPG91dGZpbGUubWFlPic=

> <r_lp_tautomer_probability>
1

> <r_epik_Ionization_Penalty>
2.14697

> <r_epik_Ionization_Penalty_Charging>
2.14697

> <r_epik_Ionization_Penalty_Neutral>
9.74819e-07

> <r_epik_State_Penalty>
2.28651

> <r_epik_Charging_Adjusted_Penalty>
4.43348

> <i_epik_Tot_Q>
1

> <i_epik_Tot_abs_Q>
1

> <r_epik_Metal_State_Penalty>
6.36664

> <b_epik_Metal_Only>
0

> <s_lp_Force_Field>
OPLS_2005

> <r_lp_Energy>
25.0693

> <b_lp_Chiralities_Consistent>
1

> <s_lp_Variant>
AV-unprocessed.smi:1885-4

> <Gold.Version>
5.8.1

> <Gold.Id.Protein>
6NUR|6NUR_protein|mol2

> <Gold.PLP.Fitness>
50.4427

> <Gold.PLP.PLP>
-41.3529

> <Gold.PLP.part.hbond>
-2.7855

> <Gold.PLP.part.metal>
0.0000

> <Gold.PLP.part.buried>
-2.2054

> <Gold.PLP.part.nonpolar>
-39.3277

> <Gold.PLP.part.repulsive>
3.0513

> <Gold.PLP.ligand.clash>
0.1207

> <Gold.PLP.ligand.torsion>
1.3373

> <Gold.PLP.Chemscore.Hbond>
3.8960

> <Gold.PLP.Chemscore.CHOScore>
0.0000

> <Gold.PLP.Chemscore.Metal>
0.0000

> <Gold.Chemscore.Hbonds>
donor molecule, donor type, donor heavy atom, donor atom, acceptor molecule, acceptor atom, score
      L1  H    11    36       P1  7957  0.96
      L1  H    15    44       P1  8028  2.00
      P1  H  7989  7998       L1    11  0.77

> <Gold.PLP.Chemscore.Internal.Correction>
0.1971

> <Gold.Rescore>
     Score         DG    S(hbond)    S(metal)    S(lipo)     H(rot)  DE(clash)    DE(int)     intcor
     12.05     -17.39       2.43        0.00      98.69       3.03       2.43       2.91       ----

> <Gold.Chemscore.Fitness>
12.0512

> <Gold.Chemscore.DG>
-17.3888

> <Gold.Chemscore.ZeroCoef>
-5.4800

> <Gold.Chemscore.Hbond>
2.4291

> <Gold.Chemscore.Metal>
0.0000

> <Gold.Chemscore.Lipo>
98.6897

> <Gold.Chemscore.Internal_Hbond>
0.0000

> <Gold.Chemscore.DEClash>
2.4294

> <Gold.Chemscore.DEInternal>
2.9082

> <Gold.Chemscore.Rot>
3.0278

> <Gold.Chemscore.Internal.Correction>
   9.000000E+99

> <Gold.Chemscore.Hbonds>
donor molecule, donor type, donor heavy atom, donor atom, acceptor molecule, acceptor atom, score
      L1  H    11    36       P1  7957  0.81
      L1  H    15    44       P1  8028  0.96
      P1  H  7989  7998       L1    11  0.14

> <Gold.Chemscore.Hbond.Weighted>
-8.1132

> <Gold.Chemscore.Metal.Weighted>
-0.0000

> <Gold.Chemscore.Lipo.Weighted>
-11.5467

> <Gold.Chemscore.Internal_Hbond.Weighted>
0.0000

> <Gold.Chemscore.DEClash.Weighted>
2.4294

> <Gold.Chemscore.DEInternal.Weighted>
2.9082

> <Gold.Chemscore.Rot.Weighted>
7.7512

> <Gold.Chemscore.Internal.Correction.Weighted>
   9.000000E+99

> <Gold.Protein.RotatedTorsions>
[ 6907 6896 6895 6894 ] final  -24.65 input  -60.11 | X-H torsion
[ 7974 7965 7964 7962 ] final -136.59 input  175.53 | X-H torsion
[ 8008 7997 7996 7995 ] final  137.29 input   59.86 | X-H torsion
[ 10167 10162 10161 10158 ] final  128.83 input  -65.29 | X-H torsion
[ 10718 10713 10712 10709 ] final -165.30 input   66.30 | X-H torsion
[ 10763 10752 10751 10750 ] final   78.28 input  -60.55 | X-H torsion
[ 11005 11000 10999 10996 ] final -162.88 input  -57.11 | X-H torsion

> <Gold.Protein.ActiveResidues>
 VAL166  LYS551  ARG553  GLY616  TRP617  ASP618  TYR619  PRO620  LYS621  CYS622 
 ASP623  PHE694  ASN695  SER759  ASP760  ASP761  ALA762  ILE779  LEU786  VAL792 
 PHE793  MET794  SER795  GLU796  ALA797  LYS798  CYS799  TRP800  GLU811  SER814 

> <Gold.Protein.RotatedAtoms>
  151.1864  135.0383  159.8813 H   0  0  0  0  0  0  0  0  0  0  0  0  # atno 6907 bound_to 6896
  152.5442  134.1005  159.8326 H   0  0  0  0  0  0  0  0  0  0  0  0  # atno 6908 bound_to 6896
  151.1128  133.5113  159.2637 H   0  0  0  0  0  0  0  0  0  0  0  0  # atno 6909 bound_to 6896
  144.8914  140.6647  143.5143 H   0  0  0  0  0  0  0  0  0  0  0  0  # atno 7974 bound_to 7965
  156.3002  140.2423  156.3885 H   0  0  0  0  0  0  0  0  0  0  0  0  # atno 8008 bound_to 7997
  154.8635  140.0419  157.1700 H   0  0  0  0  0  0  0  0  0  0  0  0  # atno 8009 bound_to 7997
  154.8871  140.2958  155.5396 H   0  0  0  0  0  0  0  0  0  0  0  0  # atno 8010 bound_to 7997
  139.5508  144.6811  151.4331 H   0  0  0  0  0  0  0  0  0  0  0  0  # atno 10167 bound_to 10162
  156.6515  130.9009  151.3014 H   0  0  0  0  0  0  0  0  0  0  0  0  # atno 10718 bound_to 10713
  153.0863  135.4883  154.8602 H   0  0  0  0  0  0  0  0  0  0  0  0  # atno 10763 bound_to 10752
  154.7214  135.3040  154.9044 H   0  0  0  0  0  0  0  0  0  0  0  0  # atno 10764 bound_to 10752
  153.9707  135.6801  153.4800 H   0  0  0  0  0  0  0  0  0  0  0  0  # atno 10765 bound_to 10752
  140.6043  134.4915  157.5209 H   0  0  0  0  0  0  0  0  0  0  0  0  # atno 11005 bound_to 11000
  145.3776  139.1644  143.4298 LP  0  0  0  0  0  0  0  0  0  0  0  0  # atno 17320 bound_to 7965
  146.3056  140.3854  142.8688 LP  0  0  0  0  0  0  0  0  0  0  0  0  # atno 17321 bound_to 7965
  140.6769  143.8169  150.7070 LP  0  0  0  0  0  0  0  0  0  0  0  0  # atno 17342 bound_to 10162
  140.1610  143.4275  152.2067 LP  0  0  0  0  0  0  0  0  0  0  0  0  # atno 17343 bound_to 10162
  157.7139  130.9474  150.1186 LP  0  0  0  0  0  0  0  0  0  0  0  0  # atno 17370 bound_to 10713
  156.2081  130.3665  149.8704 LP  0  0  0  0  0  0  0  0  0  0  0  0  # atno 17371 bound_to 10713
  139.9219  134.8132  156.1185 LP  0  0  0  0  0  0  0  0  0  0  0  0  # atno 17394 bound_to 11000
  141.0851  133.6737  156.2419 LP  0  0  0  0  0  0  0  0  0  0  0  0  # atno 17395 bound_to 11000

$$$$
