AV-unprocessed.smi:2418|AV-procd|sdf|9550|dock4
  -GOLD-   2272013183D 1   1.00000     0.00000
 Structure written by MMmdl.
 34 35  0  0  0  0  0  0  0  0  1 V2000
  152.4961  143.8413  161.4695 C   0  0  0  0  0  0  0  0  0  0  0  0
  152.0900  143.1682  160.1704 C   0  0  0  0  0  0  0  0  0  0  0  0
  151.0212  143.7607  159.4920 N   0  0  0  0  0  0  0  0  0  0  0  0
  150.6067  143.2557  158.3767 C   0  0  0  0  0  0  0  0  0  0  0  0
  151.2049  142.1153  157.8140 N   0  0  0  0  0  0  0  0  0  0  0  0
  150.6345  141.6398  156.5414 C   0  0  0  0  0  0  0  0  0  0  0  0
  149.1824  141.1360  156.6999 C   0  0  2  0  0  0  0  0  0  0  0  0
  149.2073  139.8018  157.1688 O   0  0  0  0  0  0  0  0  0  0  0  0
  148.4245  141.2531  155.3832 C   0  0  0  0  0  0  0  0  0  0  0  0
  147.3532  142.1656  155.2507 C   0  0  0  0  0  0  0  0  0  0  0  0
  146.6470  142.2639  154.0363 C   0  0  0  0  0  0  0  0  0  0  0  0
  145.6232  143.1420  153.9179 F   0  0  0  0  0  0  0  0  0  0  0  0
  147.0038  141.4483  152.9460 C   0  0  0  0  0  0  0  0  0  0  0  0
  148.0645  140.5314  153.0730 C   0  0  0  0  0  0  0  0  0  0  0  0
  148.7715  140.4305  154.2872 C   0  0  0  0  0  0  0  0  0  0  0  0
  149.7819  139.5343  154.3942 F   0  0  0  0  0  0  0  0  0  0  0  0
  152.2498  141.4737  158.4122 C   0  0  0  0  0  0  0  0  0  0  0  0
  152.7664  140.4715  157.9148 O   0  0  0  0  0  0  0  0  0  0  0  0
  152.7110  142.0602  159.6813 C   0  0  0  0  0  0  0  0  0  0  0  0
  153.8790  141.3722  160.3771 C   0  0  0  0  0  0  0  0  0  0  0  0
  152.3888  143.1513  162.3067 H   0  0  0  0  0  0  0  0  0  0  0  0
  151.8764  144.7151  161.6747 H   0  0  0  0  0  0  0  0  0  0  0  0
  153.5334  144.1735  161.4201 H   0  0  0  0  0  0  0  0  0  0  0  0
  149.7730  143.6753  157.8105 H   0  0  0  0  0  0  0  0  0  0  0  0
  150.6476  142.4699  155.8318 H   0  0  0  0  0  0  0  0  0  0  0  0
  151.2566  140.8777  156.0683 H   0  0  0  0  0  0  0  0  0  0  0  0
  148.6607  141.7280  157.4525 H   0  0  0  0  0  0  0  0  0  0  0  0
  150.1074  139.5192  157.2239 H   0  0  0  0  0  0  0  0  0  0  0  0
  147.0654  142.7927  156.0819 H   0  0  0  0  0  0  0  0  0  0  0  0
  146.4624  141.5234  152.0145 H   0  0  0  0  0  0  0  0  0  0  0  0
  148.3348  139.9019  152.2379 H   0  0  0  0  0  0  0  0  0  0  0  0
  154.7516  141.3603  159.7232 H   0  0  0  0  0  0  0  0  0  0  0  0
  153.6199  140.3402  160.6163 H   0  0  0  0  0  0  0  0  0  0  0  0
  154.1733  141.8587  161.3054 H   0  0  0  0  0  0  0  0  0  0  0  0
  1  2  1  0  0  0  0
  1 21  1  0  0  0  0
  1 22  1  0  0  0  0
  1 23  1  0  0  0  0
  2 19  2  0  0  0  0
  2  3  1  0  0  0  0
  3  4  2  0  0  0  0
  4  5  1  0  0  0  0
  4 24  1  0  0  0  0
  5  6  1  0  0  0  0
  5 17  1  0  0  0  0
  6  7  1  0  0  0  0
  6 25  1  0  0  0  0
  6 26  1  0  0  0  0
  7  8  1  0  0  0  0
  7  9  1  0  0  0  0
  7 27  1  0  0  0  0
  8 28  1  0  0  0  0
  9 15  1  0  0  0  0
  9 10  2  0  0  0  0
 10 11  1  0  0  0  0
 10 29  1  0  0  0  0
 11 12  1  0  0  0  0
 11 13  2  0  0  0  0
 13 14  1  0  0  0  0
 13 30  1  0  0  0  0
 14 15  2  0  0  0  0
 14 31  1  0  0  0  0
 15 16  1  0  0  0  0
 17 18  2  0  0  0  0
 17 19  1  0  0  0  0
 19 20  1  0  0  0  0
 20 32  1  0  0  0  0
 20 33  1  0  0  0  0
 20 34  1  0  0  0  0
M  END
> <s_m_source_file>
AV-unprocessed.smi

> <i_m_source_file_index>
2418

> <i_lp_mmshare_version>
43012

> <i_f3d_flags>
0

> <s_epik_input>
W0NIM11jMW5bY0hdbihjKD1PKWMxW0NIM10pW0NIMl1bQ0BIXShbT0hdKWMyW2NIXWMoRilbY0hdW2NIXWMyRg==

> <s_epik_cmdline>
J2VwaWtfcHl0aG9uJywgJy1waCcsICc3LjAnLCAnLXRuJywgJzgnLCAnLW1hJywgJzIwMCcsICctbWV0YWxfYmluZGluZycsICctaW1hZScsICc8aW5maWxlLm1hZT4nLCAnLW9tYWUnLCAnPG91dGZpbGUubWFlPic=

> <r_lp_tautomer_probability>
1

> <r_epik_Ionization_Penalty>
5.08222e-05

> <r_epik_Ionization_Penalty_Charging>
7.56727e-08

> <r_epik_Ionization_Penalty_Neutral>
5.07465e-05

> <r_epik_State_Penalty>
-0

> <r_epik_Charging_Adjusted_Penalty>
7.56727e-08

> <i_epik_Tot_Q>
0

> <i_epik_Tot_abs_Q>
0

> <r_epik_Metal_State_Penalty>
-0

> <b_epik_Metal_Only>
0

> <s_lp_Force_Field>
OPLS_2005

> <r_lp_Energy>
19.2488

> <b_lp_Chiralities_Consistent>
1

> <s_lp_Variant>
AV-unprocessed.smi:2418-1

> <Gold.Version>
5.8.1

> <Gold.Id.Protein>
6NUR|6NUR_protein|mol2

> <Gold.PLP.Fitness>
45.1112

> <Gold.PLP.PLP>
-40.4659

> <Gold.PLP.part.hbond>
-1.0000

> <Gold.PLP.part.metal>
0.0000

> <Gold.PLP.part.buried>
1.2849

> <Gold.PLP.part.nonpolar>
-39.5079

> <Gold.PLP.part.repulsive>
0.0666

> <Gold.PLP.ligand.clash>
0.0000

> <Gold.PLP.ligand.torsion>
0.3901

> <Gold.PLP.Chemscore.Hbond>
0.8143

> <Gold.PLP.Chemscore.CHOScore>
0.9902

> <Gold.PLP.Chemscore.Metal>
0.0000

> <Gold.Chemscore.Hbonds>
donor molecule, donor type, donor heavy atom, donor atom, acceptor molecule, acceptor atom, score
      P1  H  7997  8009       L1    18  0.84
      L1  C     4    24       P1  8028  1.00

> <Gold.PLP.Chemscore.Internal.Correction>
0.0120

> <Gold.Rescore>
     Score         DG    S(hbond)    S(metal)    S(lipo)     H(rot)  DE(clash)    DE(int)     intcor
     10.35     -13.56       0.78        0.00      92.83       2.11       1.54       1.67       ----

> <Gold.Chemscore.Fitness>
10.3516

> <Gold.Chemscore.DG>
-13.5586

> <Gold.Chemscore.ZeroCoef>
-5.4800

> <Gold.Chemscore.Hbond>
0.7840

> <Gold.Chemscore.Metal>
0.0000

> <Gold.Chemscore.Lipo>
92.8274

> <Gold.Chemscore.Internal_Hbond>
0.0000

> <Gold.Chemscore.DEClash>
1.5414

> <Gold.Chemscore.DEInternal>
1.6656

> <Gold.Chemscore.Rot>
2.1097

> <Gold.Chemscore.Internal.Correction>
   9.000000E+99

> <Gold.Chemscore.Hbonds>
donor molecule, donor type, donor heavy atom, donor atom, acceptor molecule, acceptor atom, score
      P1  H  7997  8009       L1    18  0.78

> <Gold.Chemscore.Hbond.Weighted>
-2.6187

> <Gold.Chemscore.Metal.Weighted>
-0.0000

> <Gold.Chemscore.Lipo.Weighted>
-10.8608

> <Gold.Chemscore.Internal_Hbond.Weighted>
0.0000

> <Gold.Chemscore.DEClash.Weighted>
1.5414

> <Gold.Chemscore.DEInternal.Weighted>
1.6656

> <Gold.Chemscore.Rot.Weighted>
5.4009

> <Gold.Chemscore.Internal.Correction.Weighted>
   9.000000E+99

> <Gold.Protein.RotatedTorsions>
[ 6907 6896 6895 6894 ] final  -15.64 input  -60.11 | X-H torsion
[ 7974 7965 7964 7962 ] final  104.21 input  175.53 | X-H torsion
[ 8008 7997 7996 7995 ] final  165.20 input   59.86 | X-H torsion
[ 10167 10162 10161 10158 ] final   -6.02 input  -65.29 | X-H torsion
[ 10718 10713 10712 10709 ] final  106.83 input   66.30 | X-H torsion
[ 10763 10752 10751 10750 ] final -113.50 input  -60.55 | X-H torsion
[ 11005 11000 10999 10996 ] final  158.74 input  -57.11 | X-H torsion

> <Gold.Protein.ActiveResidues>
 VAL166  LYS551  ARG553  GLY616  TRP617  ASP618  TYR619  PRO620  LYS621  CYS622 
 ASP623  PHE694  ASN695  SER759  ASP760  ASP761  ALA762  ILE779  LEU786  VAL792 
 PHE793  MET794  SER795  GLU796  ALA797  LYS798  CYS799  TRP800  GLU811  SER814 

> <Gold.Protein.RotatedAtoms>
  151.3208  135.0818  159.9304 H   0  0  0  0  0  0  0  0  0  0  0  0  # atno 6907 bound_to 6896
  152.5257  133.9641  159.7741 H   0  0  0  0  0  0  0  0  0  0  0  0  # atno 6908 bound_to 6896
  150.9962  133.6049  159.2731 H   0  0  0  0  0  0  0  0  0  0  0  0  # atno 6909 bound_to 6896
  145.3358  139.2475  143.3636 H   0  0  0  0  0  0  0  0  0  0  0  0  # atno 7974 bound_to 7965
  156.1819  140.1676  156.8257 H   0  0  0  0  0  0  0  0  0  0  0  0  # atno 8008 bound_to 7997
  154.5370  140.0744  156.8478 H   0  0  0  0  0  0  0  0  0  0  0  0  # atno 8009 bound_to 7997
  155.3291  140.3378  155.4242 H   0  0  0  0  0  0  0  0  0  0  0  0  # atno 8010 bound_to 7997
  140.6983  143.6242  150.8584 H   0  0  0  0  0  0  0  0  0  0  0  0  # atno 10167 bound_to 10162
  157.6653  131.0859  150.6066 H   0  0  0  0  0  0  0  0  0  0  0  0  # atno 10718 bound_to 10713
  154.8399  135.4452  154.1359 H   0  0  0  0  0  0  0  0  0  0  0  0  # atno 10763 bound_to 10752
  153.2557  135.6931  153.7638 H   0  0  0  0  0  0  0  0  0  0  0  0  # atno 10764 bound_to 10752
  153.6934  135.3383  155.3183 H   0  0  0  0  0  0  0  0  0  0  0  0  # atno 10765 bound_to 10752
  140.1894  134.8418  157.2895 H   0  0  0  0  0  0  0  0  0  0  0  0  # atno 11005 bound_to 11000
  146.3027  140.3945  142.8698 LP  0  0  0  0  0  0  0  0  0  0  0  0  # atno 17320 bound_to 7965
  144.8829  140.7424  143.5975 LP  0  0  0  0  0  0  0  0  0  0  0  0  # atno 17321 bound_to 7965
  139.9962  143.5793  152.2892 LP  0  0  0  0  0  0  0  0  0  0  0  0  # atno 17342 bound_to 10162
  139.6466  144.7658  151.2231 LP  0  0  0  0  0  0  0  0  0  0  0  0  # atno 17343 bound_to 10162
  156.6367  130.4447  149.5767 LP  0  0  0  0  0  0  0  0  0  0  0  0  # atno 17370 bound_to 10713
  156.2241  130.6755  151.1397 LP  0  0  0  0  0  0  0  0  0  0  0  0  # atno 17371 bound_to 10713
  140.2176  134.4062  155.7581 LP  0  0  0  0  0  0  0  0  0  0  0  0  # atno 17394 bound_to 11000
  141.2226  133.7150  156.8439 LP  0  0  0  0  0  0  0  0  0  0  0  0  # atno 17395 bound_to 11000

$$$$
