AV-unprocessed.smi:2179|AV-procd|sdf|8856|dock1
  -GOLD-   2272012 53D 1   1.00000     0.00000
 Structure written by MMmdl.
 47 48  0  0  0  0  0  0  0  0  1 V2000
  144.7617  134.6902  150.1718 C   0  0  0  0  0  0  0  0  0  0  0  0
  145.5389  135.3332  151.3157 C   0  0  0  0  0  0  0  0  0  0  0  0
  146.3159  134.6559  151.9875 O   0  0  0  0  0  0  0  0  0  0  0  0
  145.3254  136.6414  151.5227 N   0  0  0  0  0  0  0  0  0  0  0  0
  145.9707  137.4401  152.5576 C   0  0  0  0  0  0  0  0  0  0  0  0
  147.0244  138.3913  151.9621 C   0  0  0  0  0  0  0  0  0  0  0  0
  147.9114  138.9165  152.9926 N   0  0  0  0  0  0  0  0  0  0  0  0
  147.7926  140.1246  153.5670 C   0  0  0  0  0  0  0  0  0  0  0  0
  146.8914  140.9193  153.2989 O   0  0  0  0  0  0  0  0  0  0  0  0
  148.8063  140.4408  154.6282 C   0  0  0  0  0  0  0  0  0  0  0  0
  150.0129  139.7168  154.7429 C   0  0  0  0  0  0  0  0  0  0  0  0
  150.9366  140.0772  155.7427 C   0  0  0  0  0  0  0  0  0  0  0  0
  150.6362  141.1586  156.6045 C   0  0  0  0  0  0  0  0  0  0  0  0
  151.5470  141.5377  157.6149 N   0  0  0  0  0  0  0  0  0  0  0  0
  152.1404  140.4433  158.3786 C   0  0  0  0  0  0  0  0  0  0  0  0
  153.3338  140.9521  159.2093 C   0  0  2  0  0  0  0  0  0  0  0  0
  153.9080  139.8612  160.1190 C   0  0  0  0  0  0  0  0  0  0  0  0
  152.9072  142.0375  160.0279 O   0  0  0  0  0  0  0  0  0  0  0  0
  152.4356  143.1432  159.2629 C   0  0  2  0  0  0  0  0  0  0  0  0
  152.0940  144.2845  160.2264 C   0  0  0  0  0  0  0  0  0  0  0  0
  151.2145  142.7000  158.4362 C   0  0  0  0  0  0  0  0  0  0  0  0
  149.4843  141.8626  156.4808 N   0  0  0  0  0  0  0  0  0  0  0  0
  148.6021  141.5146  155.5204 C   0  0  0  0  0  0  0  0  0  0  0  0
  145.3297  134.7638  149.2440 H   0  0  0  0  0  0  0  0  0  0  0  0
  143.7972  135.1784  150.0266 H   0  0  0  0  0  0  0  0  0  0  0  0
  144.5797  133.6352  150.3790 H   0  0  0  0  0  0  0  0  0  0  0  0
  144.6678  137.1167  150.9215 H   0  0  0  0  0  0  0  0  0  0  0  0
  145.1970  138.0151  153.0672 H   0  0  0  0  0  0  0  0  0  0  0  0
  146.4176  136.7869  153.3094 H   0  0  0  0  0  0  0  0  0  0  0  0
  147.6072  137.8899  151.1871 H   0  0  0  0  0  0  0  0  0  0  0  0
  146.5322  139.2371  151.4811 H   0  0  0  0  0  0  0  0  0  0  0  0
  148.6673  138.3186  153.2934 H   0  0  0  0  0  0  0  0  0  0  0  0
  150.2420  138.8996  154.0746 H   0  0  0  0  0  0  0  0  0  0  0  0
  151.8663  139.5344  155.8235 H   0  0  0  0  0  0  0  0  0  0  0  0
  151.3778  140.0226  159.0354 H   0  0  0  0  0  0  0  0  0  0  0  0
  152.4787  139.6365  157.7301 H   0  0  0  0  0  0  0  0  0  0  0  0
  154.1251  141.2974  158.5411 H   0  0  0  0  0  0  0  0  0  0  0  0
  154.2615  139.0098  159.5367 H   0  0  0  0  0  0  0  0  0  0  0  0
  153.1581  139.4982  160.8224 H   0  0  0  0  0  0  0  0  0  0  0  0
  154.7506  140.2408  160.6975 H   0  0  0  0  0  0  0  0  0  0  0  0
  153.2293  143.4806  158.5940 H   0  0  0  0  0  0  0  0  0  0  0  0
  151.7363  145.1609  159.6854 H   0  0  0  0  0  0  0  0  0  0  0  0
  152.9703  144.5841  160.8016 H   0  0  0  0  0  0  0  0  0  0  0  0
  151.3179  143.9864  160.9320 H   0  0  0  0  0  0  0  0  0  0  0  0
  150.8885  143.5267  157.8035 H   0  0  0  0  0  0  0  0  0  0  0  0
  150.3840  142.4463  159.0968 H   0  0  0  0  0  0  0  0  0  0  0  0
  147.7046  142.1140  155.4717 H   0  0  0  0  0  0  0  0  0  0  0  0
  1  2  1  0  0  0  0
  1 24  1  0  0  0  0
  1 25  1  0  0  0  0
  1 26  1  0  0  0  0
  2  3  2  0  0  0  0
  2  4  1  0  0  0  0
  4  5  1  0  0  0  0
  4 27  1  0  0  0  0
  5  6  1  0  0  0  0
  5 28  1  0  0  0  0
  5 29  1  0  0  0  0
  6  7  1  0  0  0  0
  6 30  1  0  0  0  0
  6 31  1  0  0  0  0
  7  8  1  0  0  0  0
  7 32  1  0  0  0  0
  8  9  2  0  0  0  0
  8 10  1  0  0  0  0
 10 23  1  0  0  0  0
 10 11  2  0  0  0  0
 11 12  1  0  0  0  0
 11 33  1  0  0  0  0
 12 13  2  0  0  0  0
 12 34  1  0  0  0  0
 13 14  1  0  0  0  0
 13 22  1  0  0  0  0
 14 21  1  0  0  0  0
 14 15  1  0  0  0  0
 15 16  1  0  0  0  0
 15 35  1  0  0  0  0
 15 36  1  0  0  0  0
 16 17  1  0  0  0  0
 16 18  1  0  0  0  0
 16 37  1  0  0  0  0
 17 38  1  0  0  0  0
 17 39  1  0  0  0  0
 17 40  1  0  0  0  0
 18 19  1  0  0  0  0
 19 20  1  0  0  0  0
 19 21  1  0  0  0  0
 19 41  1  0  0  0  0
 20 42  1  0  0  0  0
 20 43  1  0  0  0  0
 20 44  1  0  0  0  0
 21 45  1  0  0  0  0
 21 46  1  0  0  0  0
 22 23  2  0  0  0  0
 23 47  1  0  0  0  0
M  END
> <s_m_source_file>
AV-unprocessed.smi

> <i_m_source_file_index>
2179

> <i_lp_mmshare_version>
43012

> <i_f3d_flags>
0

> <s_epik_input>
W0NIM11DKD1PKVtOSF1bQ0gyXVtDSDJdW05IXUMoPU8pYzFbY0hdW2NIXWMobltjSF0xKU4yW0NIMl1bQ0BASF0oW0NIM10pT1tDQEBIXShbQ0gzXSlbQ0gyXTI=

> <s_epik_cmdline>
J2VwaWtfcHl0aG9uJywgJy1waCcsICc3LjAnLCAnLXRuJywgJzgnLCAnLW1hJywgJzIwMCcsICctbWV0YWxfYmluZGluZycsICctaW1hZScsICc8aW5maWxlLm1hZT4nLCAnLW9tYWUnLCAnPG91dGZpbGUubWFlPic=

> <r_lp_tautomer_probability>
1

> <r_epik_Ionization_Penalty>
2.00433e-05

> <r_epik_Ionization_Penalty_Charging>
0

> <r_epik_Ionization_Penalty_Neutral>
2.00433e-05

> <r_epik_State_Penalty>
-0

> <r_epik_Charging_Adjusted_Penalty>
0

> <i_epik_Tot_Q>
0

> <i_epik_Tot_abs_Q>
0

> <r_epik_Metal_State_Penalty>
-0

> <b_epik_Metal_Only>
0

> <s_lp_Force_Field>
OPLS_2005

> <r_lp_Energy>
13.6511

> <b_lp_Chiralities_Consistent>
1

> <s_lp_Variant>
AV-unprocessed.smi:2179-1

> <Gold.Version>
5.8.1

> <Gold.Id.Protein>
6NUR|6NUR_protein|mol2

> <Gold.PLP.Fitness>
45.2156

> <Gold.PLP.PLP>
-42.2046

> <Gold.PLP.part.hbond>
-2.0000

> <Gold.PLP.part.metal>
0.0000

> <Gold.PLP.part.buried>
-3.6026

> <Gold.PLP.part.nonpolar>
-37.8387

> <Gold.PLP.part.repulsive>
2.0502

> <Gold.PLP.ligand.clash>
0.0000

> <Gold.PLP.ligand.torsion>
0.6065

> <Gold.PLP.Chemscore.Hbond>
1.0000

> <Gold.PLP.Chemscore.CHOScore>
0.2862

> <Gold.PLP.Chemscore.Metal>
0.0000

> <Gold.Chemscore.Hbonds>
donor molecule, donor type, donor heavy atom, donor atom, acceptor molecule, acceptor atom, score
      L1  H     4    27       P1 10171  1.00
      L1  C    23    47       P1  8028  0.08

> <Gold.PLP.Chemscore.Internal.Correction>
0.3652

> <Gold.Rescore>
     Score         DG    S(hbond)    S(metal)    S(lipo)     H(rot)  DE(clash)    DE(int)     intcor
     14.70     -15.74       0.99        0.00     100.01       1.86       0.24       0.80       ----

> <Gold.Chemscore.Fitness>
14.7012

> <Gold.Chemscore.DG>
-15.7401

> <Gold.Chemscore.ZeroCoef>
-5.4800

> <Gold.Chemscore.Hbond>
0.9932

> <Gold.Chemscore.Metal>
0.0000

> <Gold.Chemscore.Lipo>
100.0059

> <Gold.Chemscore.Internal_Hbond>
0.0000

> <Gold.Chemscore.DEClash>
0.2412

> <Gold.Chemscore.DEInternal>
0.7976

> <Gold.Chemscore.Rot>
1.8586

> <Gold.Chemscore.Internal.Correction>
   9.000000E+99

> <Gold.Chemscore.Hbonds>
donor molecule, donor type, donor heavy atom, donor atom, acceptor molecule, acceptor atom, score
      L1  H     4    27       P1 10171  0.95

> <Gold.Chemscore.Hbond.Weighted>
-3.3173

> <Gold.Chemscore.Metal.Weighted>
-0.0000

> <Gold.Chemscore.Lipo.Weighted>
-11.7007

> <Gold.Chemscore.Internal_Hbond.Weighted>
0.0000

> <Gold.Chemscore.DEClash.Weighted>
0.2412

> <Gold.Chemscore.DEInternal.Weighted>
0.7976

> <Gold.Chemscore.Rot.Weighted>
4.7579

> <Gold.Chemscore.Internal.Correction.Weighted>
   9.000000E+99

> <Gold.Protein.RotatedTorsions>
[ 6907 6896 6895 6894 ] final   20.33 input  -60.11 | X-H torsion
[ 7974 7965 7964 7962 ] final -135.74 input  175.53 | X-H torsion
[ 8008 7997 7996 7995 ] final  172.69 input   59.86 | X-H torsion
[ 10167 10162 10161 10158 ] final  -83.82 input  -65.29 | X-H torsion
[ 10718 10713 10712 10709 ] final -151.12 input   66.30 | X-H torsion
[ 10763 10752 10751 10750 ] final -137.23 input  -60.55 | X-H torsion
[ 11005 11000 10999 10996 ] final  -26.92 input  -57.11 | X-H torsion

> <Gold.Protein.ActiveResidues>
 VAL166  LYS551  ARG553  GLY616  TRP617  ASP618  TYR619  PRO620  LYS621  CYS622 
 ASP623  PHE694  ASN695  SER759  ASP760  ASP761  ALA762  ILE779  LEU786  VAL792 
 PHE793  MET794  SER795  GLU796  ALA797  LYS798  CYS799  TRP800  GLU811  SER814 

> <Gold.Protein.RotatedAtoms>
  151.8947  135.0402  160.0500 H   0  0  0  0  0  0  0  0  0  0  0  0  # atno 6907 bound_to 6896
  152.2407  133.5129  159.5277 H   0  0  0  0  0  0  0  0  0  0  0  0  # atno 6908 bound_to 6896
  150.7053  134.1009  159.4008 H   0  0  0  0  0  0  0  0  0  0  0  0  # atno 6909 bound_to 6896
  144.8988  140.6743  143.5098 H   0  0  0  0  0  0  0  0  0  0  0  0  # atno 7974 bound_to 7965
  156.1150  140.1479  156.9285 H   0  0  0  0  0  0  0  0  0  0  0  0  # atno 8008 bound_to 7997
  154.4794  140.0884  156.7383 H   0  0  0  0  0  0  0  0  0  0  0  0  # atno 8009 bound_to 7997
  155.4530  140.3435  155.4305 H   0  0  0  0  0  0  0  0  0  0  0  0  # atno 8010 bound_to 7997
  140.4191  143.2592  151.8914 H   0  0  0  0  0  0  0  0  0  0  0  0  # atno 10167 bound_to 10162
  156.4551  130.8186  151.2417 H   0  0  0  0  0  0  0  0  0  0  0  0  # atno 10718 bound_to 10713
  154.8666  135.3648  154.5190 H   0  0  0  0  0  0  0  0  0  0  0  0  # atno 10763 bound_to 10752
  153.5821  135.7018  153.5463 H   0  0  0  0  0  0  0  0  0  0  0  0  # atno 10764 bound_to 10752
  153.3448  135.4088  155.1562 H   0  0  0  0  0  0  0  0  0  0  0  0  # atno 10765 bound_to 10752
  140.9072  133.7484  156.0622 H   0  0  0  0  0  0  0  0  0  0  0  0  # atno 11005 bound_to 11000
  145.3653  139.1671  143.4361 LP  0  0  0  0  0  0  0  0  0  0  0  0  # atno 17320 bound_to 7965
  146.3096  140.3719  142.8675 LP  0  0  0  0  0  0  0  0  0  0  0  0  # atno 17321 bound_to 7965
  139.4782  144.5456  151.8463 LP  0  0  0  0  0  0  0  0  0  0  0  0  # atno 17342 bound_to 10162
  140.4553  144.1797  150.5901 LP  0  0  0  0  0  0  0  0  0  0  0  0  # atno 17343 bound_to 10162
  157.7501  131.0125  150.3388 LP  0  0  0  0  0  0  0  0  0  0  0  0  # atno 17370 bound_to 10713
  156.3775  130.3874  149.7127 LP  0  0  0  0  0  0  0  0  0  0  0  0  # atno 17371 bound_to 10713
  140.8155  134.3349  157.5398 LP  0  0  0  0  0  0  0  0  0  0  0  0  # atno 17394 bound_to 11000
  139.8751  134.9279  156.3437 LP  0  0  0  0  0  0  0  0  0  0  0  0  # atno 17395 bound_to 11000

$$$$
