AV-unprocessed.smi:824|AV-procd|sdf|3850|dock7
  -GOLD-   22720 1293D 1   1.00000     0.00000
 Structure written by MMmdl.
 51 52  0  0  0  0  0  0  0  0  2 V2000
  148.0309  139.8999  157.3561 C   0  0  0  0  0  0  0  0  0  0  0  0
  148.6724  138.7593  158.1262 C   0  0  0  0  0  0  0  0  0  0  0  0
  147.7796  137.9000  158.7827 N   0  0  0  0  0  0  0  0  0  0  0  0
  148.2278  136.9007  159.4802 C   0  0  0  0  0  0  0  0  0  0  0  0
  147.3752  136.0453  160.1799 N   0  0  0  0  0  0  0  0  0  0  0  0
  147.3022  134.6250  159.8313 C   0  0  0  0  0  0  0  0  0  0  0  0
  145.9871  133.9965  160.3203 C   0  0  0  0  0  0  0  0  0  0  0  0
  145.8457  134.2054  161.7192 O   0  0  0  0  0  0  0  0  0  0  0  0
  145.7950  135.5907  162.0325 C   0  0  0  0  0  0  0  0  0  0  0  0
  147.1060  136.2677  161.6001 C   0  0  0  0  0  0  0  0  0  0  0  0
  149.5783  136.6107  159.5823 N   0  5  0  0  0  0  0  0  0  0  0  0
  150.5025  137.3957  158.9612 C   0  0  0  0  0  0  0  0  0  0  0  0
  151.7069  137.1511  159.0180 O   0  0  0  0  0  0  0  0  0  0  0  0
  150.0207  138.5655  158.2051 C   0  0  0  0  0  0  0  0  0  0  0  0
  151.0539  139.4820  157.5403 C   0  0  0  0  0  0  0  0  0  0  0  0
  151.3392  140.7870  158.3203 C   0  0  0  0  0  0  0  0  0  0  0  0
  152.1395  140.5478  159.6145 C   0  0  0  0  0  0  0  0  0  0  0  0
  152.1099  139.4151  160.0976 O   0  0  0  0  0  0  0  0  0  0  0  0
  152.8626  141.5502  160.1744 N   0  0  0  0  0  0  0  0  0  0  0  0
  153.7757  141.3561  161.3048 C   0  0  0  0  0  0  0  0  0  0  0  0
  152.7810  142.9242  159.6520 C   0  0  0  0  0  0  0  0  0  0  0  0
  151.5311  143.6813  160.1604 C   0  0  0  0  0  0  0  0  0  0  0  0
  151.5240  145.1277  159.6453 C   0  0  0  0  0  0  0  0  0  0  0  0
  151.4078  143.6549  161.6936 C   0  0  0  0  0  0  0  0  0  0  0  0
  148.3494  140.8626  157.7520 H   0  0  0  0  0  0  0  0  0  0  0  0
  146.9432  139.8583  157.4240 H   0  0  0  0  0  0  0  0  0  0  0  0
  148.2997  139.8486  156.3012 H   0  0  0  0  0  0  0  0  0  0  0  0
  147.3883  134.4731  158.7552 H   0  0  0  0  0  0  0  0  0  0  0  0
  148.1503  134.1120  160.2866 H   0  0  0  0  0  0  0  0  0  0  0  0
  145.1335  134.4190  159.7878 H   0  0  0  0  0  0  0  0  0  0  0  0
  145.9874  132.9249  160.1209 H   0  0  0  0  0  0  0  0  0  0  0  0
  144.9377  136.0562  161.5435 H   0  0  0  0  0  0  0  0  0  0  0  0
  145.6502  135.7065  163.1066 H   0  0  0  0  0  0  0  0  0  0  0  0
  147.9397  135.8756  162.1842 H   0  0  0  0  0  0  0  0  0  0  0  0
  147.0428  137.3363  161.8104 H   0  0  0  0  0  0  0  0  0  0  0  0
  151.9832  138.9249  157.4168 H   0  0  0  0  0  0  0  0  0  0  0  0
  150.7450  139.7349  156.5270 H   0  0  0  0  0  0  0  0  0  0  0  0
  151.8056  141.5165  157.6621 H   0  0  0  0  0  0  0  0  0  0  0  0
  150.3879  141.2375  158.6045 H   0  0  0  0  0  0  0  0  0  0  0  0
  154.5529  140.6337  161.0529 H   0  0  0  0  0  0  0  0  0  0  0  0
  153.2378  140.9965  162.1811 H   0  0  0  0  0  0  0  0  0  0  0  0
  154.2763  142.2759  161.6066 H   0  0  0  0  0  0  0  0  0  0  0  0
  153.6787  143.4905  159.9027 H   0  0  0  0  0  0  0  0  0  0  0  0
  152.7740  142.8950  158.5608 H   0  0  0  0  0  0  0  0  0  0  0  0
  150.6447  143.1932  159.7535 H   0  0  0  0  0  0  0  0  0  0  0  0
  152.3770  145.6890  160.0275 H   0  0  0  0  0  0  0  0  0  0  0  0
  150.6173  145.6496  159.9520 H   0  0  0  0  0  0  0  0  0  0  0  0
  151.5666  145.1573  158.5561 H   0  0  0  0  0  0  0  0  0  0  0  0
  152.2663  144.1296  162.1695 H   0  0  0  0  0  0  0  0  0  0  0  0
  151.3415  142.6359  162.0724 H   0  0  0  0  0  0  0  0  0  0  0  0
  150.5104  144.1779  162.0254 H   0  0  0  0  0  0  0  0  0  0  0  0
  1  2  1  0  0  0  0
  1 25  1  0  0  0  0
  1 26  1  0  0  0  0
  1 27  1  0  0  0  0
  2 14  2  0  0  0  0
  2  3  1  0  0  0  0
  3  4  2  0  0  0  0
  4  5  1  0  0  0  0
  4 11  1  0  0  0  0
  5 10  1  0  0  0  0
  5  6  1  0  0  0  0
  6  7  1  0  0  0  0
  6 28  1  0  0  0  0
  6 29  1  0  0  0  0
  7  8  1  0  0  0  0
  7 30  1  0  0  0  0
  7 31  1  0  0  0  0
  8  9  1  0  0  0  0
  9 10  1  0  0  0  0
  9 32  1  0  0  0  0
  9 33  1  0  0  0  0
 10 34  1  0  0  0  0
 10 35  1  0  0  0  0
 11 12  1  0  0  0  0
 12 13  2  0  0  0  0
 12 14  1  0  0  0  0
 14 15  1  0  0  0  0
 15 16  1  0  0  0  0
 15 36  1  0  0  0  0
 15 37  1  0  0  0  0
 16 17  1  0  0  0  0
 16 38  1  0  0  0  0
 16 39  1  0  0  0  0
 17 18  2  0  0  0  0
 17 19  1  0  0  0  0
 19 20  1  0  0  0  0
 19 21  1  0  0  0  0
 20 40  1  0  0  0  0
 20 41  1  0  0  0  0
 20 42  1  0  0  0  0
 21 22  1  0  0  0  0
 21 43  1  0  0  0  0
 21 44  1  0  0  0  0
 22 23  1  0  0  0  0
 22 24  1  0  0  0  0
 22 45  1  0  0  0  0
 23 46  1  0  0  0  0
 23 47  1  0  0  0  0
 23 48  1  0  0  0  0
 24 49  1  0  0  0  0
 24 50  1  0  0  0  0
 24 51  1  0  0  0  0
M  CHG  1  11  -1
M  END
> <s_m_source_file>
AV-unprocessed.smi

> <i_m_source_file_index>
824

> <i_lp_mmshare_version>
43012

> <i_f3d_flags>
0

> <s_epik_input>
W0NIMl0xW0NIMl1PW0NIMl1bQ0gyXU4xYyhuYzJbQ0gzXSlbbkhdYyg9TyljMltDSDJdW0NIMl1DKD1PKU4oW0NIM10pW0NIMl1bQ0hdKFtDSDNdKVtDSDNd

> <s_epik_cmdline>
J2VwaWtfcHl0aG9uJywgJy1waCcsICc3LjAnLCAnLXRuJywgJzgnLCAnLW1hJywgJzIwMCcsICctbWV0YWxfYmluZGluZycsICctaW1hZScsICc8aW5maWxlLm1hZT4nLCAnLW9tYWUnLCAnPG91dGZpbGUubWFlPic=

> <r_lp_tautomer_probability>
1

> <r_epik_Ionization_Penalty>
5.09891

> <r_epik_Ionization_Penalty_Charging>
4.43024e-08

> <r_epik_Ionization_Penalty_Neutral>
5.09891

> <r_epik_State_Penalty>
2.55975

> <r_epik_Charging_Adjusted_Penalty>
2.55975

> <i_epik_Tot_Q>
-1

> <i_epik_Tot_abs_Q>
1

> <r_epik_Metal_State_Penalty>
0.115808

> <b_epik_Metal_Only>
0

> <s_lp_Force_Field>
OPLS_2005

> <r_lp_Energy>
31.6324

> <b_lp_Chiralities_Consistent>
1

> <s_lp_Variant>
AV-unprocessed.smi:824-3

> <Gold.Version>
5.8.1

> <Gold.Id.Protein>
6NUR|6NUR_protein|mol2

> <Gold.PLP.Fitness>
50.3386

> <Gold.PLP.PLP>
-48.3978

> <Gold.PLP.part.hbond>
-2.0000

> <Gold.PLP.part.metal>
0.0000

> <Gold.PLP.part.buried>
-6.7323

> <Gold.PLP.part.nonpolar>
-40.3956

> <Gold.PLP.part.repulsive>
0.0000

> <Gold.PLP.ligand.clash>
0.0000

> <Gold.PLP.ligand.torsion>
2.2692

> <Gold.PLP.Chemscore.Hbond>
2.0296

> <Gold.PLP.Chemscore.CHOScore>
0.0000

> <Gold.PLP.Chemscore.Metal>
0.0000

> <Gold.Chemscore.Hbonds>
donor molecule, donor type, donor heavy atom, donor atom, acceptor molecule, acceptor atom, score
      P1  H  6896  6908       L1    11  1.05

> <Gold.PLP.Chemscore.Internal.Correction>
0.3903

> <Gold.Rescore>
     Score         DG    S(hbond)    S(metal)    S(lipo)     H(rot)  DE(clash)    DE(int)     intcor
     10.78     -14.03       0.48        0.00      95.82       1.66       0.06       3.20       ----

> <Gold.Chemscore.Fitness>
10.7786

> <Gold.Chemscore.DG>
-14.0349

> <Gold.Chemscore.ZeroCoef>
-5.4800

> <Gold.Chemscore.Hbond>
0.4796

> <Gold.Chemscore.Metal>
0.0000

> <Gold.Chemscore.Lipo>
95.8247

> <Gold.Chemscore.Internal_Hbond>
0.0000

> <Gold.Chemscore.DEClash>
0.0575

> <Gold.Chemscore.DEInternal>
3.1988

> <Gold.Chemscore.Rot>
1.6635

> <Gold.Chemscore.Internal.Correction>
   9.000000E+99

> <Gold.Chemscore.Hbonds>
donor molecule, donor type, donor heavy atom, donor atom, acceptor molecule, acceptor atom, score
      P1  H  6896  6908       L1    11  0.09

> <Gold.Chemscore.Hbond.Weighted>
-1.6019

> <Gold.Chemscore.Metal.Weighted>
-0.0000

> <Gold.Chemscore.Lipo.Weighted>
-11.2115

> <Gold.Chemscore.Internal_Hbond.Weighted>
0.0000

> <Gold.Chemscore.DEClash.Weighted>
0.0575

> <Gold.Chemscore.DEInternal.Weighted>
3.1988

> <Gold.Chemscore.Rot.Weighted>
4.2585

> <Gold.Chemscore.Internal.Correction.Weighted>
   9.000000E+99

> <Gold.Protein.RotatedTorsions>
[ 6907 6896 6895 6894 ] final -176.90 input  -60.11 | X-H torsion
[ 7974 7965 7964 7962 ] final   75.99 input  175.53 | X-H torsion
[ 8008 7997 7996 7995 ] final   51.93 input   59.86 | X-H torsion
[ 10167 10162 10161 10158 ] final  -46.97 input  -65.29 | X-H torsion
[ 10718 10713 10712 10709 ] final  161.87 input   66.30 | X-H torsion
[ 10763 10752 10751 10750 ] final  -80.91 input  -60.55 | X-H torsion
[ 11005 11000 10999 10996 ] final  128.73 input  -57.11 | X-H torsion

> <Gold.Protein.ActiveResidues>
 VAL166  LYS551  ARG553  GLY616  TRP617  ASP618  TYR619  PRO620  LYS621  CYS622 
 ASP623  PHE694  ASN695  SER759  ASP760  ASP761  ALA762  ILE779  LEU786  VAL792 
 PHE793  MET794  SER795  GLU796  ALA797  LYS798  CYS799  TRP800  GLU811  SER814 

> <Gold.Protein.RotatedAtoms>
  151.6122  133.3346  159.3069 H   0  0  0  0  0  0  0  0  0  0  0  0  # atno 6907 bound_to 6896
  150.8150  134.7331  159.6733 H   0  0  0  0  0  0  0  0  0  0  0  0  # atno 6908 bound_to 6896
  152.4246  134.5897  160.0022 H   0  0  0  0  0  0  0  0  0  0  0  0  # atno 6909 bound_to 6896
  145.7085  139.2606  143.1664 H   0  0  0  0  0  0  0  0  0  0  0  0  # atno 7974 bound_to 7965
  155.4434  140.3455  155.4292 H   0  0  0  0  0  0  0  0  0  0  0  0  # atno 8008 bound_to 7997
  156.1264  140.1502  156.9159 H   0  0  0  0  0  0  0  0  0  0  0  0  # atno 8009 bound_to 7997
  154.4862  140.0855  156.7470 H   0  0  0  0  0  0  0  0  0  0  0  0  # atno 8010 bound_to 7997
  140.6795  143.2806  151.3860 H   0  0  0  0  0  0  0  0  0  0  0  0  # atno 10167 bound_to 10162
  157.1304  131.0515  151.2374 H   0  0  0  0  0  0  0  0  0  0  0  0  # atno 10718 bound_to 10713
  154.5570  135.5645  153.6973 H   0  0  0  0  0  0  0  0  0  0  0  0  # atno 10763 bound_to 10752
  153.0006  135.6264  154.2296 H   0  0  0  0  0  0  0  0  0  0  0  0  # atno 10764 bound_to 10752
  154.2233  135.2869  155.2896 H   0  0  0  0  0  0  0  0  0  0  0  0  # atno 10765 bound_to 10752
  139.9577  134.9609  156.9045 H   0  0  0  0  0  0  0  0  0  0  0  0  # atno 11005 bound_to 11000
  146.0734  140.7844  142.9677 LP  0  0  0  0  0  0  0  0  0  0  0  0  # atno 17320 bound_to 7965
  144.6948  140.3377  143.7205 LP  0  0  0  0  0  0  0  0  0  0  0  0  # atno 17321 bound_to 7965
  139.6108  144.1103  152.2296 LP  0  0  0  0  0  0  0  0  0  0  0  0  # atno 17342 bound_to 10162
  140.0516  144.5928  150.7331 LP  0  0  0  0  0  0  0  0  0  0  0  0  # atno 17343 bound_to 10162
  157.4397  130.7537  149.7059 LP  0  0  0  0  0  0  0  0  0  0  0  0  # atno 17370 bound_to 10713
  155.9809  130.4025  150.3502 LP  0  0  0  0  0  0  0  0  0  0  0  0  # atno 17371 bound_to 10713
  140.5572  134.0570  155.7387 LP  0  0  0  0  0  0  0  0  0  0  0  0  # atno 17394 bound_to 11000
  141.1250  133.9398  157.2653 LP  0  0  0  0  0  0  0  0  0  0  0  0  # atno 17395 bound_to 11000

$$$$
