AV-unprocessed.smi:249|AV-procd|sdf|1925|dock1
  -GOLD-   2262021 33D 1   1.00000     0.00000
 Structure written by MMmdl.
 64 67  0  0  0  0  0  0  0  0  2 V2000
  148.0498  127.9651  151.4127 C   0  0  0  0  0  0  0  0  0  0  0  0
  148.0189  129.0067  152.5460 C   0  0  0  0  0  0  0  0  0  0  0  0
  147.3373  130.2831  152.1891 N   0  3  1  0  0  0  0  0  0  0  0  0
  145.9487  130.0629  151.7016 C   0  0  0  0  0  0  0  0  0  0  0  0
  145.3609  131.3405  151.0871 C   0  0  0  0  0  0  0  0  0  0  0  0
  145.4022  132.4922  152.1091 C   0  0  2  0  0  0  0  0  0  0  0  0
  144.7616  133.7291  151.6387 N   0  0  0  0  0  0  0  0  0  0  0  0
  145.6297  134.8298  151.2340 C   0  0  0  0  0  0  0  0  0  0  0  0
  143.5401  134.1329  152.0796 C   0  0  0  0  0  0  0  0  0  0  0  0
  142.4942  133.2656  152.0958 N   0  0  0  0  0  0  0  0  0  0  0  0
  141.2985  133.6523  152.5494 C   0  0  0  0  0  0  0  0  0  0  0  0
  140.9350  134.8411  153.0323 N   0  0  0  0  0  0  0  0  0  0  0  0
  141.9799  135.7166  153.0263 C   0  0  0  0  0  0  0  0  0  0  0  0
  143.3015  135.4489  152.5691 C   0  0  0  0  0  0  0  0  0  0  0  0
  144.0857  136.5888  152.7017 N   0  0  0  0  0  0  0  0  0  0  0  0
  143.2776  137.4761  153.2138 C   0  0  0  0  0  0  0  0  0  0  0  0
  141.9989  137.0302  153.4616 N   0  0  0  0  0  0  0  0  0  0  0  0
  140.9023  137.8038  154.0171 C   0  0  0  0  0  0  0  0  0  0  0  0
  139.5048  137.1308  153.9118 C   0  0  2  0  0  0  0  0  0  0  0  0
  138.8564  137.5211  152.5614 C   0  0  0  0  0  0  0  0  0  0  0  0
  138.6082  138.9104  152.4913 O   0  0  0  0  0  0  0  0  0  0  0  0
  138.5696  137.4690  155.1118 C   0  0  1  0  0  0  0  0  0  0  0  0
  137.2530  136.7058  155.1401 C   0  0  0  0  0  0  0  0  0  0  0  0
  136.8069  136.8782  156.5842 C   0  0  0  0  0  0  0  0  0  0  0  0
  138.0066  136.7897  157.3355 O   0  0  0  0  0  0  0  0  0  0  0  0
  139.1178  137.1197  156.5069 C   0  0  0  0  0  0  0  0  0  0  0  0
  146.8401  132.6853  152.6325 C   0  0  0  0  0  0  0  0  0  0  0  0
  147.4162  131.3751  153.2102 C   0  0  2  0  0  0  0  0  0  0  0  0
  148.8532  131.6256  153.7092 C   0  0  0  0  0  0  0  0  0  0  0  0
  148.5746  127.0671  151.7389 H   0  0  0  0  0  0  0  0  0  0  0  0
  148.5697  128.3382  150.5309 H   0  0  0  0  0  0  0  0  0  0  0  0
  147.0485  127.6591  151.1107 H   0  0  0  0  0  0  0  0  0  0  0  0
  147.5512  128.5756  153.4307 H   0  0  0  0  0  0  0  0  0  0  0  0
  149.0414  129.2312  152.8518 H   0  0  0  0  0  0  0  0  0  0  0  0
  145.9408  129.2715  150.9513 H   0  0  0  0  0  0  0  0  0  0  0  0
  145.3146  129.7270  152.5226 H   0  0  0  0  0  0  0  0  0  0  0  0
  145.9211  131.5901  150.1869 H   0  0  0  0  0  0  0  0  0  0  0  0
  144.3353  131.1513  150.7695 H   0  0  0  0  0  0  0  0  0  0  0  0
  144.8079  132.1751  152.9674 H   0  0  0  0  0  0  0  0  0  0  0  0
  145.3885  135.1571  150.2226 H   0  0  0  0  0  0  0  0  0  0  0  0
  146.6781  134.5296  151.2398 H   0  0  0  0  0  0  0  0  0  0  0  0
  145.5244  135.6819  151.9072 H   0  0  0  0  0  0  0  0  0  0  0  0
  140.5230  132.9011  152.5258 H   0  0  0  0  0  0  0  0  0  0  0  0
  143.5984  138.4834  153.4367 H   0  0  0  0  0  0  0  0  0  0  0  0
  141.1283  138.0245  155.0612 H   0  0  0  0  0  0  0  0  0  0  0  0
  140.9053  138.7631  153.4991 H   0  0  0  0  0  0  0  0  0  0  0  0
  139.6400  136.0487  153.8957 H   0  0  0  0  0  0  0  0  0  0  0  0
  139.5073  137.2846  151.7210 H   0  0  0  0  0  0  0  0  0  0  0  0
  137.9235  136.9780  152.4072 H   0  0  0  0  0  0  0  0  0  0  0  0
  138.9423  139.2347  151.6689 H   0  0  0  0  0  0  0  0  0  0  0  0
  138.3335  138.5342  155.0891 H   0  0  0  0  0  0  0  0  0  0  0  0
  136.5143  137.0913  154.4369 H   0  0  0  0  0  0  0  0  0  0  0  0
  137.4174  135.6490  154.9240 H   0  0  0  0  0  0  0  0  0  0  0  0
  136.3666  137.8651  156.7335 H   0  0  0  0  0  0  0  0  0  0  0  0
  136.0799  136.1276  156.8954 H   0  0  0  0  0  0  0  0  0  0  0  0
  139.7754  136.2506  156.4692 H   0  0  0  0  0  0  0  0  0  0  0  0
  139.6735  137.9459  156.9486 H   0  0  0  0  0  0  0  0  0  0  0  0
  147.5028  133.0371  151.8425 H   0  0  0  0  0  0  0  0  0  0  0  0
  146.8431  133.4593  153.4014 H   0  0  0  0  0  0  0  0  0  0  0  0
  146.8044  131.0880  154.0668 H   0  0  0  0  0  0  0  0  0  0  0  0
  148.8858  132.4830  154.3820 H   0  0  0  0  0  0  0  0  0  0  0  0
  149.5320  131.8325  152.8811 H   0  0  0  0  0  0  0  0  0  0  0  0
  149.2493  130.7785  154.2684 H   0  0  0  0  0  0  0  0  0  0  0  0
  147.8457  130.6310  151.3885 H   0  0  0  0  0  0  0  0  0  0  0  0
  1  2  1  0  0  0  0
  1 30  1  0  0  0  0
  1 31  1  0  0  0  0
  1 32  1  0  0  0  0
  2  3  1  0  0  0  0
  2 33  1  0  0  0  0
  2 34  1  0  0  0  0
  3 28  1  0  0  0  0
  3  4  1  0  0  0  0
  3 64  1  0  0  0  0
  4  5  1  0  0  0  0
  4 35  1  0  0  0  0
  4 36  1  0  0  0  0
  5  6  1  0  0  0  0
  5 37  1  0  0  0  0
  5 38  1  0  0  0  0
  6  7  1  0  0  0  0
  6 27  1  0  0  0  0
  6 39  1  0  0  0  0
  7  8  1  0  0  0  0
  7  9  1  0  0  0  0
  8 40  1  0  0  0  0
  8 41  1  0  0  0  0
  8 42  1  0  0  0  0
  9 14  1  0  0  0  0
  9 10  2  0  0  0  0
 10 11  1  0  0  0  0
 11 12  2  0  0  0  0
 11 43  1  0  0  0  0
 12 13  1  0  0  0  0
 13 17  1  0  0  0  0
 13 14  2  0  0  0  0
 14 15  1  0  0  0  0
 15 16  2  0  0  0  0
 16 17  1  0  0  0  0
 16 44  1  0  0  0  0
 17 18  1  0  0  0  0
 18 19  1  0  0  0  0
 18 45  1  0  0  0  0
 18 46  1  0  0  0  0
 19 20  1  0  0  0  0
 19 22  1  0  0  0  0
 19 47  1  0  0  0  0
 20 21  1  0  0  0  0
 20 48  1  0  0  0  0
 20 49  1  0  0  0  0
 21 50  1  0  0  0  0
 22 26  1  0  0  0  0
 22 23  1  0  0  0  0
 22 51  1  0  0  0  0
 23 24  1  0  0  0  0
 23 52  1  0  0  0  0
 23 53  1  0  0  0  0
 24 25  1  0  0  0  0
 24 54  1  0  0  0  0
 24 55  1  0  0  0  0
 25 26  1  0  0  0  0
 26 56  1  0  0  0  0
 26 57  1  0  0  0  0
 27 28  1  0  0  0  0
 27 58  1  0  0  0  0
 27 59  1  0  0  0  0
 28 29  1  0  0  0  0
 28 60  1  0  0  0  0
 29 61  1  0  0  0  0
 29 62  1  0  0  0  0
 29 63  1  0  0  0  0
M  CHG  1   3   1
M  END
> <s_m_source_file>
AV-unprocessed.smi

> <i_m_source_file_index>
249

> <i_lp_mmshare_version>
43012

> <i_f3d_flags>
0

> <s_epik_input>
W0NIM11bQ0gyXU4xW0NIMl1bQ0gyXVtDQEhdKFtDSDJdW0NASF0xW0NIM10pTihbQ0gzXSljKG5bY0hdbjIpYyhjMjMpbltjSF1uM1tDSDJdW0NASF0oW0NIMl1bT0hdKVtDQEBIXTRbQ0gyXVtDSDJdT1tDSDJdNA==

> <s_epik_cmdline>
J2VwaWtfcHl0aG9uJywgJy1waCcsICc3LjAnLCAnLXRuJywgJzgnLCAnLW1hJywgJzIwMCcsICctbWV0YWxfYmluZGluZycsICctaW1hZScsICc8aW5maWxlLm1hZT4nLCAnLW9tYWUnLCAnPG91dGZpbGUubWFlPic=

> <r_lp_tautomer_probability>
1

> <r_epik_Ionization_Penalty>
0.00294688

> <r_epik_Ionization_Penalty_Charging>
0.00169971

> <r_epik_Ionization_Penalty_Neutral>
0.00124717

> <r_epik_State_Penalty>
-0

> <r_epik_Charging_Adjusted_Penalty>
0.00169971

> <i_epik_Tot_Q>
1

> <i_epik_Tot_abs_Q>
1

> <r_epik_Metal_State_Penalty>
-0

> <b_epik_Metal_Only>
0

> <s_lp_Force_Field>
OPLS_2005

> <r_lp_Energy>
53.7488

> <b_lp_Chiralities_Consistent>
1

> <s_lp_Variant>
AV-unprocessed.smi:249-28

> <Gold.Version>
5.8.1

> <Gold.Id.Protein>
6NUR|6NUR_protein|mol2

> <Gold.PLP.Fitness>
53.5539

> <Gold.PLP.PLP>
-46.3082

> <Gold.PLP.part.hbond>
-2.0000

> <Gold.PLP.part.metal>
0.0000

> <Gold.PLP.part.buried>
-5.1136

> <Gold.PLP.part.nonpolar>
-41.0371

> <Gold.PLP.part.repulsive>
1.4962

> <Gold.PLP.ligand.clash>
0.0000

> <Gold.PLP.ligand.torsion>
1.4615

> <Gold.PLP.Chemscore.Hbond>
2.0000

> <Gold.PLP.Chemscore.CHOScore>
0.9944

> <Gold.PLP.Chemscore.Metal>
0.0000

> <Gold.Chemscore.Hbonds>
donor molecule, donor type, donor heavy atom, donor atom, acceptor molecule, acceptor atom, score
      L1  H     3    64       P1 10747  1.00
      L1  H    21    50       P1 10160  0.67
      L1  C    16    44       P1 10175  1.00

> <Gold.PLP.Chemscore.Internal.Correction>
1.1855

> <Gold.Rescore>
     Score         DG    S(hbond)    S(metal)    S(lipo)     H(rot)  DE(clash)    DE(int)     intcor
     12.38     -17.01       1.97        0.00     100.33       2.65       0.52       4.11       ----

> <Gold.Chemscore.Fitness>
12.3753

> <Gold.Chemscore.DG>
-17.0059

> <Gold.Chemscore.ZeroCoef>
-5.4800

> <Gold.Chemscore.Hbond>
1.9685

> <Gold.Chemscore.Metal>
0.0000

> <Gold.Chemscore.Lipo>
100.3337

> <Gold.Chemscore.Internal_Hbond>
0.0000

> <Gold.Chemscore.DEClash>
0.5221

> <Gold.Chemscore.DEInternal>
4.1085

> <Gold.Chemscore.Rot>
2.6515

> <Gold.Chemscore.Internal.Correction>
   9.000000E+99

> <Gold.Chemscore.Hbonds>
donor molecule, donor type, donor heavy atom, donor atom, acceptor molecule, acceptor atom, score
      L1  H     3    64       P1 10747  0.98
      L1  H    21    50       P1 10160  0.65

> <Gold.Chemscore.Hbond.Weighted>
-6.5748

> <Gold.Chemscore.Metal.Weighted>
-0.0000

> <Gold.Chemscore.Lipo.Weighted>
-11.7390

> <Gold.Chemscore.Internal_Hbond.Weighted>
0.0000

> <Gold.Chemscore.DEClash.Weighted>
0.5221

> <Gold.Chemscore.DEInternal.Weighted>
4.1085

> <Gold.Chemscore.Rot.Weighted>
6.7880

> <Gold.Chemscore.Internal.Correction.Weighted>
   9.000000E+99

> <Gold.Protein.RotatedTorsions>
[ 6907 6896 6895 6894 ] final  -39.52 input  -60.11 | X-H torsion
[ 7974 7965 7964 7962 ] final   -8.66 input  175.53 | X-H torsion
[ 8008 7997 7996 7995 ] final -141.28 input   59.86 | X-H torsion
[ 10167 10162 10161 10158 ] final  -46.26 input  -65.29 | X-H torsion
[ 10718 10713 10712 10709 ] final  120.75 input   66.30 | X-H torsion
[ 10763 10752 10751 10750 ] final   49.02 input  -60.55 | X-H torsion
[ 11005 11000 10999 10996 ] final  172.21 input  -57.11 | X-H torsion

> <Gold.Protein.ActiveResidues>
 VAL166  LYS551  ARG553  GLY616  TRP617  ASP618  TYR619  PRO620  LYS621  CYS622 
 ASP623  PHE694  ASN695  SER759  ASP760  ASP761  ALA762  ILE779  LEU786  VAL792 
 PHE793  MET794  SER795  GLU796  ALA797  LYS798  CYS799  TRP800  GLU811  SER814 

> <Gold.Protein.RotatedAtoms>
  150.9893  134.9232  159.7889 H   0  0  0  0  0  0  0  0  0  0  0  0  # atno 6907 bound_to 6896
  152.5246  134.3303  159.9190 H   0  0  0  0  0  0  0  0  0  0  0  0  # atno 6908 bound_to 6896
  151.3309  133.3960  159.2697 H   0  0  0  0  0  0  0  0  0  0  0  0  # atno 6909 bound_to 6896
  146.2274  140.2501  142.8347 H   0  0  0  0  0  0  0  0  0  0  0  0  # atno 7974 bound_to 7965
  155.4751  140.0556  157.2974 H   0  0  0  0  0  0  0  0  0  0  0  0  # atno 8008 bound_to 7997
  154.4682  140.2028  156.0015 H   0  0  0  0  0  0  0  0  0  0  0  0  # atno 8009 bound_to 7997
  156.1012  140.3219  155.7948 H   0  0  0  0  0  0  0  0  0  0  0  0  # atno 8010 bound_to 7997
  140.6824  143.2839  151.3758 H   0  0  0  0  0  0  0  0  0  0  0  0  # atno 10167 bound_to 10162
  157.5868  131.1069  150.8079 H   0  0  0  0  0  0  0  0  0  0  0  0  # atno 10718 bound_to 10713
  152.9789  135.5925  154.4020 H   0  0  0  0  0  0  0  0  0  0  0  0  # atno 10763 bound_to 10752
  154.3665  135.2767  155.2293 H   0  0  0  0  0  0  0  0  0  0  0  0  # atno 10764 bound_to 10752
  154.4267  135.6046  153.6098 H   0  0  0  0  0  0  0  0  0  0  0  0  # atno 10765 bound_to 10752
  140.3273  134.7387  157.4108 H   0  0  0  0  0  0  0  0  0  0  0  0  # atno 11005 bound_to 11000
  144.9418  140.8086  143.5626 LP  0  0  0  0  0  0  0  0  0  0  0  0  # atno 17320 bound_to 7965
  145.2454  139.2054  143.4971 LP  0  0  0  0  0  0  0  0  0  0  0  0  # atno 17321 bound_to 7965
  139.6157  144.1008  152.2343 LP  0  0  0  0  0  0  0  0  0  0  0  0  # atno 17342 bound_to 10162
  140.0436  144.5988  150.7391 LP  0  0  0  0  0  0  0  0  0  0  0  0  # atno 17343 bound_to 10162
  156.8511  130.5081  149.5312 LP  0  0  0  0  0  0  0  0  0  0  0  0  # atno 17370 bound_to 10713
  156.0918  130.5901  150.9745 LP  0  0  0  0  0  0  0  0  0  0  0  0  # atno 17371 bound_to 10713
  140.0891  134.5626  155.8463 LP  0  0  0  0  0  0  0  0  0  0  0  0  # atno 17394 bound_to 11000
  141.2072  133.6662  156.6291 LP  0  0  0  0  0  0  0  0  0  0  0  0  # atno 17395 bound_to 11000

$$$$
