AV-unprocessed.smi:193|AV-procd|sdf|1519|dock2
  -GOLD-   2262019353D 1   1.00000     0.00000
 Structure written by MMmdl.
 61 65  0  0  0  0  0  0  0  0  1 V2000
  151.9806  138.2832  155.2408 C   0  0  0  0  0  0  0  0  0  0  0  0
  150.9539  139.4245  155.1981 C   0  0  1  0  0  0  0  0  0  0  0  0
  149.5856  138.9335  154.6758 C   0  0  0  0  0  0  0  0  0  0  0  0
  148.6520  138.5020  155.7150 N   0  0  0  0  0  0  0  0  0  0  0  0
  147.9501  137.3972  155.3554 C   0  0  0  0  0  0  0  0  0  0  0  0
  148.0889  136.2388  156.0556 N   0  0  0  0  0  0  0  0  0  0  0  0
  147.3776  135.1585  155.7204 C   0  0  0  0  0  0  0  0  0  0  0  0
  146.4846  135.0190  154.7388 N   0  0  0  0  0  0  0  0  0  0  0  0
  146.3411  136.1767  154.0323 C   0  0  0  0  0  0  0  0  0  0  0  0
  147.0246  137.4017  154.2751 C   0  0  0  0  0  0  0  0  0  0  0  0
  146.6146  138.3617  153.3589 N   0  0  0  0  0  0  0  0  0  0  0  0
  145.7377  137.7416  152.6180 C   0  0  0  0  0  0  0  0  0  0  0  0
  145.5201  136.4222  152.9454 N   0  0  0  0  0  0  0  0  0  0  0  0
  144.6056  135.5020  152.2857 C   0  0  0  0  0  0  0  0  0  0  0  0
  145.2797  134.2133  151.7506 C   0  0  0  0  0  0  0  0  0  0  0  0
  146.5858  134.5539  151.3197 O   0  0  0  0  0  0  0  0  0  0  0  0
  145.3987  133.1640  152.8744 C   0  0  0  0  0  0  0  0  0  0  0  0
  145.9084  131.8087  152.3526 C   0  0  0  0  0  0  0  0  0  0  0  0
  145.0701  131.3465  151.3006 O   0  0  0  0  0  0  0  0  0  0  0  0
  145.0785  132.2110  150.1712 C   0  0  0  0  0  0  0  0  0  0  0  0
  144.5209  133.5929  150.5569 C   0  0  0  0  0  0  0  0  0  0  0  0
  147.8909  139.5843  156.3422 C   0  0  0  0  0  0  0  0  0  0  0  0
  148.7144  140.4194  157.3327 C   0  0  0  0  0  0  0  0  0  0  0  0
  149.8363  141.1167  156.7020 N   0  0  0  0  0  0  0  0  0  0  0  0
  150.2582  142.1713  157.6123 C   0  0  1  0  0  0  0  0  0  0  0  0
  151.2557  141.8029  158.6874 C   0  0  0  0  0  0  0  0  0  0  0  0
  151.6913  142.6486  157.5143 C   0  0  2  0  0  0  0  0  0  0  0  0
  152.0323  144.1100  157.7067 C   0  0  0  0  0  0  0  0  0  0  0  0
  150.9536  140.1843  156.5425 C   0  0  0  0  0  0  0  0  0  0  0  0
  151.7215  137.5472  156.0014 H   0  0  0  0  0  0  0  0  0  0  0  0
  152.9763  138.6608  155.4746 H   0  0  0  0  0  0  0  0  0  0  0  0
  152.0434  137.7672  154.2823 H   0  0  0  0  0  0  0  0  0  0  0  0
  151.3158  140.1247  154.4438 H   0  0  0  0  0  0  0  0  0  0  0  0
  149.1129  139.7531  154.1326 H   0  0  0  0  0  0  0  0  0  0  0  0
  149.7374  138.1555  153.9259 H   0  0  0  0  0  0  0  0  0  0  0  0
  147.5460  134.2809  156.3268 H   0  0  0  0  0  0  0  0  0  0  0  0
  145.2275  138.2310  151.8012 H   0  0  0  0  0  0  0  0  0  0  0  0
  143.8062  135.2518  152.9846 H   0  0  0  0  0  0  0  0  0  0  0  0
  144.1300  136.0394  151.4641 H   0  0  0  0  0  0  0  0  0  0  0  0
  146.9815  135.1132  151.9704 H   0  0  0  0  0  0  0  0  0  0  0  0
  146.0493  133.5276  153.6709 H   0  0  0  0  0  0  0  0  0  0  0  0
  144.4191  133.0094  153.3286 H   0  0  0  0  0  0  0  0  0  0  0  0
  146.9405  131.8816  152.0063 H   0  0  0  0  0  0  0  0  0  0  0  0
  145.8979  131.0729  153.1568 H   0  0  0  0  0  0  0  0  0  0  0  0
  146.0897  132.2935  149.7699 H   0  0  0  0  0  0  0  0  0  0  0  0
  144.4646  131.7682  149.3868 H   0  0  0  0  0  0  0  0  0  0  0  0
  143.4684  133.4808  150.8205 H   0  0  0  0  0  0  0  0  0  0  0  0
  144.5517  134.2529  149.6890 H   0  0  0  0  0  0  0  0  0  0  0  0
  147.4672  140.2302  155.5719 H   0  0  0  0  0  0  0  0  0  0  0  0
  147.0458  139.1696  156.8933 H   0  0  0  0  0  0  0  0  0  0  0  0
  148.0358  141.1643  157.7511 H   0  0  0  0  0  0  0  0  0  0  0  0
  149.0446  139.8126  158.1773 H   0  0  0  0  0  0  0  0  0  0  0  0
  149.5316  142.9313  157.8963 H   0  0  0  0  0  0  0  0  0  0  0  0
  151.1506  142.2911  159.6541 H   0  0  0  0  0  0  0  0  0  0  0  0
  151.6130  140.7756  158.7227 H   0  0  0  0  0  0  0  0  0  0  0  0
  152.3170  142.1499  156.7759 H   0  0  0  0  0  0  0  0  0  0  0  0
  151.3860  144.5627  158.4593 H   0  0  0  0  0  0  0  0  0  0  0  0
  151.9046  144.6496  156.7682 H   0  0  0  0  0  0  0  0  0  0  0  0
  153.0681  144.2124  158.0297 H   0  0  0  0  0  0  0  0  0  0  0  0
  150.9913  139.4863  157.3805 H   0  0  0  0  0  0  0  0  0  0  0  0
  151.8940  140.7362  156.5883 H   0  0  0  0  0  0  0  0  0  0  0  0
  1  2  1  0  0  0  0
  1 30  1  0  0  0  0
  1 31  1  0  0  0  0
  1 32  1  0  0  0  0
  2 29  1  0  0  0  0
  2  3  1  0  0  0  0
  2 33  1  0  0  0  0
  3  4  1  0  0  0  0
  3 34  1  0  0  0  0
  3 35  1  0  0  0  0
  4  5  1  0  0  0  0
  4 22  1  0  0  0  0
  5 10  1  0  0  0  0
  5  6  2  0  0  0  0
  6  7  1  0  0  0  0
  7  8  2  0  0  0  0
  7 36  1  0  0  0  0
  8  9  1  0  0  0  0
  9 13  1  0  0  0  0
  9 10  2  0  0  0  0
 10 11  1  0  0  0  0
 11 12  2  0  0  0  0
 12 13  1  0  0  0  0
 12 37  1  0  0  0  0
 13 14  1  0  0  0  0
 14 15  1  0  0  0  0
 14 38  1  0  0  0  0
 14 39  1  0  0  0  0
 15 21  1  0  0  0  0
 15 16  1  0  0  0  0
 15 17  1  0  0  0  0
 16 40  1  0  0  0  0
 17 18  1  0  0  0  0
 17 41  1  0  0  0  0
 17 42  1  0  0  0  0
 18 19  1  0  0  0  0
 18 43  1  0  0  0  0
 18 44  1  0  0  0  0
 19 20  1  0  0  0  0
 20 21  1  0  0  0  0
 20 45  1  0  0  0  0
 20 46  1  0  0  0  0
 21 47  1  0  0  0  0
 21 48  1  0  0  0  0
 22 23  1  0  0  0  0
 22 49  1  0  0  0  0
 22 50  1  0  0  0  0
 23 24  1  0  0  0  0
 23 51  1  0  0  0  0
 23 52  1  0  0  0  0
 24 25  1  0  0  0  0
 24 29  1  0  0  0  0
 25 27  1  0  0  0  0
 25 26  1  0  0  0  0
 25 53  1  0  0  0  0
 26 27  1  0  0  0  0
 26 54  1  0  0  0  0
 26 55  1  0  0  0  0
 27 28  1  0  0  0  0
 27 56  1  0  0  0  0
 28 57  1  0  0  0  0
 28 58  1  0  0  0  0
 28 59  1  0  0  0  0
 29 60  1  0  0  0  0
 29 61  1  0  0  0  0
M  END
> <s_m_source_file>
AV-unprocessed.smi

> <i_m_source_file_index>
193

> <i_lp_mmshare_version>
43012

> <i_f3d_flags>
0

> <s_epik_input>
W0NIM11bQ0BASF0xW0NIMl1bQ0BIXTFOKFtDSDJdMilbQ0gyXVtDSDJdTihbQ0gyXVtDQEhdMltDSDNdKWMobltjSF1uMyljKGMzNCluW2NIXW40W0NIMl1DNShbT0hdKVtDSDJdW0NIMl1PW0NIMl1bQ0gyXTU=

> <s_epik_cmdline>
J2VwaWtfcHl0aG9uJywgJy1waCcsICc3LjAnLCAnLXRuJywgJzgnLCAnLW1hJywgJzIwMCcsICctbWV0YWxfYmluZGluZycsICctaW1hZScsICc8aW5maWxlLm1hZT4nLCAnLW9tYWUnLCAnPG91dGZpbGUubWFlPic=

> <r_lp_tautomer_probability>
1

> <r_epik_Ionization_Penalty>
1.45227

> <r_epik_Ionization_Penalty_Charging>
0

> <r_epik_Ionization_Penalty_Neutral>
1.45227

> <r_epik_State_Penalty>
2.02377

> <r_epik_Charging_Adjusted_Penalty>
2.02377

> <i_epik_Tot_Q>
0

> <i_epik_Tot_abs_Q>
0

> <r_epik_Metal_State_Penalty>
2.01937

> <b_epik_Metal_Only>
0

> <s_lp_Force_Field>
OPLS_2005

> <r_lp_Energy>
55.8214

> <b_lp_Chiralities_Consistent>
1

> <s_lp_Variant>
AV-unprocessed.smi:193-24

> <Gold.Version>
5.8.1

> <Gold.Id.Protein>
6NUR|6NUR_protein|mol2

> <Gold.PLP.Fitness>
41.2204

> <Gold.PLP.PLP>
-36.8568

> <Gold.PLP.part.hbond>
-1.0000

> <Gold.PLP.part.metal>
0.0000

> <Gold.PLP.part.buried>
-3.7291

> <Gold.PLP.part.nonpolar>
-31.9529

> <Gold.PLP.part.repulsive>
0.5516

> <Gold.PLP.ligand.clash>
1.6665

> <Gold.PLP.ligand.torsion>
1.1540

> <Gold.PLP.Chemscore.Hbond>
0.3754

> <Gold.PLP.Chemscore.CHOScore>
1.8962

> <Gold.PLP.Chemscore.Metal>
0.0000

> <Gold.Chemscore.Hbonds>
donor molecule, donor type, donor heavy atom, donor atom, acceptor molecule, acceptor atom, score
      L1  H    16    40       P1  7948  0.27
      L1  C    12    37       P1 10171  1.00
      L1  C    12    37       P1 10175  0.28

> <Gold.PLP.Chemscore.Internal.Correction>
1.5232

> <Gold.Rescore>
     Score         DG    S(hbond)    S(metal)    S(lipo)     H(rot)  DE(clash)    DE(int)     intcor
      8.79     -12.69       0.29        0.00     100.62       2.17       0.13       3.76       ----

> <Gold.Chemscore.Fitness>
8.7927

> <Gold.Chemscore.DG>
-12.6861

> <Gold.Chemscore.ZeroCoef>
-5.4800

> <Gold.Chemscore.Hbond>
0.2931

> <Gold.Chemscore.Metal>
0.0000

> <Gold.Chemscore.Lipo>
100.6248

> <Gold.Chemscore.Internal_Hbond>
0.0000

> <Gold.Chemscore.DEClash>
0.1284

> <Gold.Chemscore.DEInternal>
3.7650

> <Gold.Chemscore.Rot>
2.1664

> <Gold.Chemscore.Internal.Correction>
   9.000000E+99

> <Gold.Chemscore.Hbonds>
donor molecule, donor type, donor heavy atom, donor atom, acceptor molecule, acceptor atom, score
      L1  H    16    40       P1  7948  0.27

> <Gold.Chemscore.Hbond.Weighted>
-0.9789

> <Gold.Chemscore.Metal.Weighted>
-0.0000

> <Gold.Chemscore.Lipo.Weighted>
-11.7731

> <Gold.Chemscore.Internal_Hbond.Weighted>
0.0000

> <Gold.Chemscore.DEClash.Weighted>
0.1284

> <Gold.Chemscore.DEInternal.Weighted>
3.7650

> <Gold.Chemscore.Rot.Weighted>
5.5459

> <Gold.Chemscore.Internal.Correction.Weighted>
   9.000000E+99

> <Gold.Protein.RotatedTorsions>
[ 6907 6896 6895 6894 ] final -124.05 input  -60.11 | X-H torsion
[ 7974 7965 7964 7962 ] final -152.29 input  175.53 | X-H torsion
[ 8008 7997 7996 7995 ] final   48.47 input   59.86 | X-H torsion
[ 10167 10162 10161 10158 ] final  -71.69 input  -65.29 | X-H torsion
[ 10718 10713 10712 10709 ] final  -83.30 input   66.30 | X-H torsion
[ 10763 10752 10751 10750 ] final  -38.40 input  -60.55 | X-H torsion
[ 11005 11000 10999 10996 ] final  -42.09 input  -57.11 | X-H torsion

> <Gold.Protein.ActiveResidues>
 VAL166  LYS551  ARG553  GLY616  TRP617  ASP618  TYR619  PRO620  LYS621  CYS622 
 ASP623  PHE694  ASN695  SER759  ASP760  ASP761  ALA762  ILE779  LEU786  VAL792 
 PHE793  MET794  SER795  GLU796  ALA797  LYS798  CYS799  TRP800  GLU811  SER814 

> <Gold.Protein.RotatedAtoms>
  150.8730  133.7478  159.2955 H   0  0  0  0  0  0  0  0  0  0  0  0  # atno 6907 bound_to 6896
  151.5084  135.1062  159.9857 H   0  0  0  0  0  0  0  0  0  0  0  0  # atno 6908 bound_to 6896
  152.4708  133.7981  159.6994 H   0  0  0  0  0  0  0  0  0  0  0  0  # atno 6909 bound_to 6896
  144.7802  140.4682  143.5844 H   0  0  0  0  0  0  0  0  0  0  0  0  # atno 7974 bound_to 7965
  155.3862  140.3431  155.4249 H   0  0  0  0  0  0  0  0  0  0  0  0  # atno 8008 bound_to 7997
  156.1583  140.1592  156.8689 H   0  0  0  0  0  0  0  0  0  0  0  0  # atno 8009 bound_to 7997
  154.5115  140.0789  156.7981 H   0  0  0  0  0  0  0  0  0  0  0  0  # atno 8010 bound_to 7997
  140.5252  143.2327  151.7359 H   0  0  0  0  0  0  0  0  0  0  0  0  # atno 10167 bound_to 10162
  156.0020  130.4661  150.4237 H   0  0  0  0  0  0  0  0  0  0  0  0  # atno 10718 bound_to 10713
  153.9122  135.6791  153.4750 H   0  0  0  0  0  0  0  0  0  0  0  0  # atno 10763 bound_to 10752
  153.1072  135.4800  154.8970 H   0  0  0  0  0  0  0  0  0  0  0  0  # atno 10764 bound_to 10752
  154.7521  135.3187  154.8493 H   0  0  0  0  0  0  0  0  0  0  0  0  # atno 10765 bound_to 10752
  141.0292  133.6828  156.2547 H   0  0  0  0  0  0  0  0  0  0  0  0  # atno 11005 bound_to 11000
  145.6071  139.1509  143.3096 LP  0  0  0  0  0  0  0  0  0  0  0  0  # atno 17320 bound_to 7965
  146.2006  140.6189  142.9104 LP  0  0  0  0  0  0  0  0  0  0  0  0  # atno 17321 bound_to 7965
  139.4936  144.4196  151.9992 LP  0  0  0  0  0  0  0  0  0  0  0  0  # atno 17342 bound_to 10162
  140.3294  144.3334  150.5991 LP  0  0  0  0  0  0  0  0  0  0  0  0  # atno 17343 bound_to 10162
  157.2291  131.0500  151.2503 LP  0  0  0  0  0  0  0  0  0  0  0  0  # atno 17370 bound_to 10713
  157.3728  130.7190  149.6576 LP  0  0  0  0  0  0  0  0  0  0  0  0  # atno 17371 bound_to 10713
  140.6438  134.5139  157.5572 LP  0  0  0  0  0  0  0  0  0  0  0  0  # atno 17394 bound_to 11000
  139.9196  134.8176  156.1254 LP  0  0  0  0  0  0  0  0  0  0  0  0  # atno 17395 bound_to 11000

$$$$
