AV-unprocessed.smi:3260|AV-procd|sdf|12476|dock7
  -GOLD-   2272018373D 1   1.00000     0.00000
 Structure written by MMmdl.
 38 39  0  0  0  0  0  0  0  0  1 V2000
  151.8934  138.3294  154.6449 C   0  0  0  0  0  0  0  0  0  0  0  0
  150.6673  139.0862  154.5095 N   0  0  0  0  0  0  0  0  0  0  0  0
  149.4146  138.6364  154.1542 C   0  0  0  0  0  0  0  0  0  0  0  0
  148.5769  139.7162  154.1470 C   0  0  0  0  0  0  0  0  0  0  0  0
  147.1103  139.7608  153.8024 C   0  0  0  0  0  0  0  0  0  0  0  0
  146.8198  139.3885  152.3321 C   0  0  0  0  0  0  0  0  0  0  0  0
  146.8336  137.9491  152.0828 N   0  0  0  0  0  0  0  0  0  0  0  0
  145.7935  137.1225  152.2553 C   0  0  0  0  0  0  0  0  0  0  0  0
  144.6659  137.4887  152.5865 O   0  0  0  0  0  0  0  0  0  0  0  0
  146.1447  135.8430  152.0709 N   0  0  0  0  0  0  0  0  0  0  0  0
  145.2860  134.6973  152.3475 C   0  0  0  0  0  0  0  0  0  0  0  0
  144.8228  134.0128  151.0489 C   0  0  2  0  0  0  0  0  0  0  0  0
  143.7524  132.9397  151.2404 C   0  0  0  0  0  0  0  0  0  0  0  0
  143.9061  132.1373  149.9691 C   0  0  0  0  0  0  0  0  0  0  0  0
  145.4187  132.1655  149.7511 C   0  0  0  0  0  0  0  0  0  0  0  0
  145.9029  133.3231  150.4303 O   0  0  0  0  0  0  0  0  0  0  0  0
  149.4252  140.7947  154.5271 C   0  0  0  0  0  0  0  0  0  0  0  0
  150.6752  140.4154  154.7399 N   0  0  0  0  0  0  0  0  0  0  0  0
  151.6814  137.2617  154.5846 H   0  0  0  0  0  0  0  0  0  0  0  0
  152.3588  138.5441  155.6074 H   0  0  0  0  0  0  0  0  0  0  0  0
  152.5822  138.6001  153.8441 H   0  0  0  0  0  0  0  0  0  0  0  0
  149.2253  137.5977  153.9257 H   0  0  0  0  0  0  0  0  0  0  0  0
  146.5540  139.0847  154.4525 H   0  0  0  0  0  0  0  0  0  0  0  0
  146.6985  140.7502  154.0033 H   0  0  0  0  0  0  0  0  0  0  0  0
  145.8716  139.8191  152.0073 H   0  0  0  0  0  0  0  0  0  0  0  0
  147.5906  139.8241  151.6957 H   0  0  0  0  0  0  0  0  0  0  0  0
  147.7188  137.5456  151.8134 H   0  0  0  0  0  0  0  0  0  0  0  0
  147.0948  135.6439  151.7945 H   0  0  0  0  0  0  0  0  0  0  0  0
  145.8049  133.9833  152.9890 H   0  0  0  0  0  0  0  0  0  0  0  0
  144.4218  135.0492  152.9111 H   0  0  0  0  0  0  0  0  0  0  0  0
  144.4590  134.7583  150.3394 H   0  0  0  0  0  0  0  0  0  0  0  0
  143.9810  132.3175  152.1067 H   0  0  0  0  0  0  0  0  0  0  0  0
  142.7520  133.3523  151.3685 H   0  0  0  0  0  0  0  0  0  0  0  0
  143.5036  131.1271  150.0472 H   0  0  0  0  0  0  0  0  0  0  0  0
  143.3989  132.6447  149.1472 H   0  0  0  0  0  0  0  0  0  0  0  0
  145.8880  131.2849  150.1911 H   0  0  0  0  0  0  0  0  0  0  0  0
  145.6773  132.1927  148.6924 H   0  0  0  0  0  0  0  0  0  0  0  0
  149.1718  141.8379  154.6456 H   0  0  0  0  0  0  0  0  0  0  0  0
  1  2  1  0  0  0  0
  1 19  1  0  0  0  0
  1 20  1  0  0  0  0
  1 21  1  0  0  0  0
  2 18  1  0  0  0  0
  2  3  1  0  0  0  0
  3  4  2  0  0  0  0
  3 22  1  0  0  0  0
  4  5  1  0  0  0  0
  4 17  1  0  0  0  0
  5  6  1  0  0  0  0
  5 23  1  0  0  0  0
  5 24  1  0  0  0  0
  6  7  1  0  0  0  0
  6 25  1  0  0  0  0
  6 26  1  0  0  0  0
  7  8  1  0  0  0  0
  7 27  1  0  0  0  0
  8  9  2  0  0  0  0
  8 10  1  0  0  0  0
 10 11  1  0  0  0  0
 10 28  1  0  0  0  0
 11 12  1  0  0  0  0
 11 29  1  0  0  0  0
 11 30  1  0  0  0  0
 12 16  1  0  0  0  0
 12 13  1  0  0  0  0
 12 31  1  0  0  0  0
 13 14  1  0  0  0  0
 13 32  1  0  0  0  0
 13 33  1  0  0  0  0
 14 15  1  0  0  0  0
 14 34  1  0  0  0  0
 14 35  1  0  0  0  0
 15 16  1  0  0  0  0
 15 36  1  0  0  0  0
 15 37  1  0  0  0  0
 17 18  2  0  0  0  0
 17 38  1  0  0  0  0
M  END
> <s_m_source_file>
AV-unprocessed.smi

> <i_m_source_file_index>
3260

> <i_lp_mmshare_version>
43012

> <i_f3d_flags>
0

> <s_epik_input>
W0NIM11uMVtjSF1jKFtjSF1uMSlbQ0gyXVtDSDJdW05IXUMoPU8pW05IXVtDSDJdW0NAQEhdMltDSDJdW0NIMl1bQ0gyXU8y

> <s_epik_cmdline>
J2VwaWtfcHl0aG9uJywgJy1waCcsICc3LjAnLCAnLXRuJywgJzgnLCAnLW1hJywgJzIwMCcsICctbWV0YWxfYmluZGluZycsICctaW1hZScsICc8aW5maWxlLm1hZT4nLCAnLW9tYWUnLCAnPG91dGZpbGUubWFlPic=

> <r_lp_tautomer_probability>
1

> <r_epik_Ionization_Penalty>
0.000550106

> <r_epik_Ionization_Penalty_Charging>
0

> <r_epik_Ionization_Penalty_Neutral>
0.000550106

> <r_epik_State_Penalty>
-0

> <r_epik_Charging_Adjusted_Penalty>
0

> <i_epik_Tot_Q>
0

> <i_epik_Tot_abs_Q>
0

> <r_epik_Metal_State_Penalty>
-0

> <b_epik_Metal_Only>
0

> <s_lp_Force_Field>
OPLS_2005

> <r_lp_Energy>
10.4749

> <b_lp_Chiralities_Consistent>
1

> <s_lp_Variant>
AV-unprocessed.smi:3260-1

> <Gold.Version>
5.8.1

> <Gold.Id.Protein>
6NUR|6NUR_protein|mol2

> <Gold.PLP.Fitness>
48.0365

> <Gold.PLP.PLP>
-36.9480

> <Gold.PLP.part.hbond>
-3.0000

> <Gold.PLP.part.metal>
0.0000

> <Gold.PLP.part.buried>
-2.6178

> <Gold.PLP.part.nonpolar>
-31.8113

> <Gold.PLP.part.repulsive>
0.8089

> <Gold.PLP.ligand.clash>
0.0000

> <Gold.PLP.ligand.torsion>
0.3911

> <Gold.PLP.Chemscore.Hbond>
2.9440

> <Gold.PLP.Chemscore.CHOScore>
1.0000

> <Gold.PLP.Chemscore.Metal>
0.0000

> <Gold.Chemscore.Hbonds>
donor molecule, donor type, donor heavy atom, donor atom, acceptor molecule, acceptor atom, score
      L1  H     7    27       P1  7948  1.00
      L1  H    10    28       P1  7948  0.94
      P1  H  7989  7998       L1    18  0.95
      L1  C     3    22       P1  7948  1.00

> <Gold.PLP.Chemscore.Internal.Correction>
0.0386

> <Gold.Rescore>
     Score         DG    S(hbond)    S(metal)    S(lipo)     H(rot)  DE(clash)    DE(int)     intcor
     17.61     -18.11       2.34        0.00      81.60       1.85       0.07       0.42       ----

> <Gold.Chemscore.Fitness>
17.6134

> <Gold.Chemscore.DG>
-18.1057

> <Gold.Chemscore.ZeroCoef>
-5.4800

> <Gold.Chemscore.Hbond>
2.3418

> <Gold.Chemscore.Metal>
0.0000

> <Gold.Chemscore.Lipo>
81.6005

> <Gold.Chemscore.Internal_Hbond>
0.0000

> <Gold.Chemscore.DEClash>
0.0718

> <Gold.Chemscore.DEInternal>
0.4205

> <Gold.Chemscore.Rot>
1.8528

> <Gold.Chemscore.Internal.Correction>
   9.000000E+99

> <Gold.Chemscore.Hbonds>
donor molecule, donor type, donor heavy atom, donor atom, acceptor molecule, acceptor atom, score
      L1  H     7    27       P1  7948  0.98
      L1  H    10    28       P1  7948  0.91
      P1  H  7989  7998       L1    18  0.16

> <Gold.Chemscore.Hbond.Weighted>
-7.8217

> <Gold.Chemscore.Metal.Weighted>
-0.0000

> <Gold.Chemscore.Lipo.Weighted>
-9.5473

> <Gold.Chemscore.Internal_Hbond.Weighted>
0.0000

> <Gold.Chemscore.DEClash.Weighted>
0.0718

> <Gold.Chemscore.DEInternal.Weighted>
0.4205

> <Gold.Chemscore.Rot.Weighted>
4.7433

> <Gold.Chemscore.Internal.Correction.Weighted>
   9.000000E+99

> <Gold.Protein.RotatedTorsions>
[ 6907 6896 6895 6894 ] final  115.62 input  -60.11 | X-H torsion
[ 7974 7965 7964 7962 ] final -103.51 input  175.53 | X-H torsion
[ 8008 7997 7996 7995 ] final    9.56 input   59.86 | X-H torsion
[ 10167 10162 10161 10158 ] final  121.84 input  -65.29 | X-H torsion
[ 10718 10713 10712 10709 ] final  -55.86 input   66.30 | X-H torsion
[ 10763 10752 10751 10750 ] final  -55.68 input  -60.55 | X-H torsion
[ 11005 11000 10999 10996 ] final -157.47 input  -57.11 | X-H torsion

> <Gold.Protein.ActiveResidues>
 VAL166  LYS551  ARG553  GLY616  TRP617  ASP618  TYR619  PRO620  LYS621  CYS622 
 ASP623  PHE694  ASN695  SER759  ASP760  ASP761  ALA762  ILE779  LEU786  VAL792 
 PHE793  MET794  SER795  GLU796  ALA797  LYS798  CYS799  TRP800  GLU811  SER814 

> <Gold.Protein.RotatedAtoms>
  152.4730  133.8073  159.6984 H   0  0  0  0  0  0  0  0  0  0  0  0  # atno 6907 bound_to 6896
  150.8730  133.7468  159.2962 H   0  0  0  0  0  0  0  0  0  0  0  0  # atno 6908 bound_to 6896
  151.4997  135.1064  159.9878 H   0  0  0  0  0  0  0  0  0  0  0  0  # atno 6909 bound_to 6896
  145.2549  140.9250  143.3074 H   0  0  0  0  0  0  0  0  0  0  0  0  # atno 7974 bound_to 7965
  154.7816  140.2820  155.6059 H   0  0  0  0  0  0  0  0  0  0  0  0  # atno 8008 bound_to 7997
  156.2951  140.2622  156.2571 H   0  0  0  0  0  0  0  0  0  0  0  0  # atno 8009 bound_to 7997
  154.9777  140.0375  157.2253 H   0  0  0  0  0  0  0  0  0  0  0  0  # atno 8010 bound_to 7997
  139.5895  144.7019  151.3326 H   0  0  0  0  0  0  0  0  0  0  0  0  # atno 10167 bound_to 10162
  156.1335  130.4158  150.0227 H   0  0  0  0  0  0  0  0  0  0  0  0  # atno 10718 bound_to 10713
  154.1946  135.6421  153.5069 H   0  0  0  0  0  0  0  0  0  0  0  0  # atno 10763 bound_to 10752
  153.0026  135.5437  154.6379 H   0  0  0  0  0  0  0  0  0  0  0  0  # atno 10764 bound_to 10752
  154.5777  135.2922  155.0737 H   0  0  0  0  0  0  0  0  0  0  0  0  # atno 10765 bound_to 10752
  140.6642  134.4316  157.5233 H   0  0  0  0  0  0  0  0  0  0  0  0  # atno 11005 bound_to 11000
  144.9469  139.4125  143.6421 LP  0  0  0  0  0  0  0  0  0  0  0  0  # atno 17320 bound_to 7965
  146.3292  139.8457  142.8882 LP  0  0  0  0  0  0  0  0  0  0  0  0  # atno 17321 bound_to 7965
  140.7160  143.7264  150.7657 LP  0  0  0  0  0  0  0  0  0  0  0  0  # atno 17342 bound_to 10162
  140.0816  143.4963  152.2527 LP  0  0  0  0  0  0  0  0  0  0  0  0  # atno 17343 bound_to 10162
  156.8132  130.9332  151.3643 LP  0  0  0  0  0  0  0  0  0  0  0  0  # atno 17370 bound_to 10713
  157.6510  130.8884  149.9633 LP  0  0  0  0  0  0  0  0  0  0  0  0  # atno 17371 bound_to 10713
  139.9003  134.8572  156.1926 LP  0  0  0  0  0  0  0  0  0  0  0  0  # atno 17394 bound_to 11000
  141.0442  133.6922  156.1652 LP  0  0  0  0  0  0  0  0  0  0  0  0  # atno 17395 bound_to 11000

$$$$
