AV-unprocessed.smi:13|AV-procd|sdf|74|dock5
  -GOLD-   2262015203D 1   1.00000     0.00000
 Structure written by MMmdl.
 54 58  0  0  0  0  0  0  0  0  1 V2000
  149.9950  144.3016  159.3180 C   0  0  0  0  0  0  0  0  0  0  0  0
  151.4977  143.9962  159.2490 C   0  0  0  0  0  0  0  0  0  0  0  0
  152.2109  145.3398  159.0978 C   0  0  0  0  0  0  0  0  0  0  0  0
  152.0220  143.0852  160.3697 C   0  0  0  0  0  0  0  0  0  0  0  0
  151.8931  141.9798  159.4368 N   0  0  0  0  0  0  0  0  0  0  0  0
  152.9006  140.9825  159.5857 C   0  0  0  0  0  0  0  0  0  0  0  0
  153.0806  140.0238  158.6377 N   0  0  0  0  0  0  0  0  0  0  0  0
  154.0157  139.0803  158.7778 C   0  0  0  0  0  0  0  0  0  0  0  0
  154.8774  138.9044  159.7795 N   0  0  0  0  0  0  0  0  0  0  0  0
  154.7078  139.8543  160.7417 C   0  0  0  0  0  0  0  0  0  0  0  0
  153.7521  140.9098  160.7247 C   0  0  0  0  0  0  0  0  0  0  0  0
  153.8677  141.6683  161.8836 N   0  0  0  0  0  0  0  0  0  0  0  0
  154.8376  141.0979  162.5442 C   0  0  0  0  0  0  0  0  0  0  0  0
  155.4085  140.0084  161.9258 N   0  0  0  0  0  0  0  0  0  0  0  0
  156.5030  139.1911  162.4276 C   0  0  0  0  0  0  0  0  0  0  0  0
  156.0660  137.7766  162.8817 C   0  0  2  0  0  0  0  0  0  0  0  0
  157.2176  136.9701  163.0497 O   0  0  0  0  0  0  0  0  0  0  0  0
  155.1291  137.1042  161.8755 C   0  0  0  0  0  0  0  0  0  0  0  0
  153.7787  137.1069  162.5816 C   0  0  0  0  0  0  0  0  0  0  0  0
  154.1385  136.9255  163.9394 O   0  0  0  0  0  0  0  0  0  0  0  0
  155.2514  137.7712  164.1909 C   0  0  0  0  0  0  0  0  0  0  0  0
  151.9667  142.8769  158.2885 C   0  0  1  0  0  0  0  0  0  0  0  0
  151.1004  142.4072  157.1139 C   0  0  1  0  0  0  0  0  0  0  0  0
  151.5960  141.1130  156.4663 C   0  0  0  0  0  0  0  0  0  0  0  0
  150.3256  140.5576  155.8657 C   0  0  0  0  0  0  0  0  0  0  0  0
  149.3008  140.9110  156.9369 C   0  0  0  0  0  0  0  0  0  0  0  0
  149.7757  142.1062  157.5488 O   0  0  0  0  0  0  0  0  0  0  0  0
  149.7528  144.9004  160.1966 H   0  0  0  0  0  0  0  0  0  0  0  0
  149.3995  143.3905  159.3817 H   0  0  0  0  0  0  0  0  0  0  0  0
  149.6509  144.8548  158.4447 H   0  0  0  0  0  0  0  0  0  0  0  0
  153.2938  145.2160  159.0725 H   0  0  0  0  0  0  0  0  0  0  0  0
  151.9832  146.0103  159.9269 H   0  0  0  0  0  0  0  0  0  0  0  0
  151.9226  145.8434  158.1746 H   0  0  0  0  0  0  0  0  0  0  0  0
  153.0577  143.2893  160.6486 H   0  0  0  0  0  0  0  0  0  0  0  0
  151.3675  143.0065  161.2383 H   0  0  0  0  0  0  0  0  0  0  0  0
  154.0815  138.3641  157.9719 H   0  0  0  0  0  0  0  0  0  0  0  0
  155.1657  141.4625  163.5065 H   0  0  0  0  0  0  0  0  0  0  0  0
  157.2583  139.1166  161.6443 H   0  0  0  0  0  0  0  0  0  0  0  0
  156.9750  139.7235  163.2545 H   0  0  0  0  0  0  0  0  0  0  0  0
  157.8922  137.2859  162.4681 H   0  0  0  0  0  0  0  0  0  0  0  0
  155.0920  137.6097  160.9097 H   0  0  0  0  0  0  0  0  0  0  0  0
  155.4291  136.0715  161.6898 H   0  0  0  0  0  0  0  0  0  0  0  0
  153.2723  138.0657  162.4585 H   0  0  0  0  0  0  0  0  0  0  0  0
  153.1163  136.3164  162.2292 H   0  0  0  0  0  0  0  0  0  0  0  0
  155.8204  137.4379  165.0598 H   0  0  0  0  0  0  0  0  0  0  0  0
  154.8608  138.7641  164.4153 H   0  0  0  0  0  0  0  0  0  0  0  0
  153.0030  143.0596  157.9969 H   0  0  0  0  0  0  0  0  0  0  0  0
  151.0245  143.1785  156.3459 H   0  0  0  0  0  0  0  0  0  0  0  0
  152.3770  141.2741  155.7239 H   0  0  0  0  0  0  0  0  0  0  0  0
  151.9805  140.4284  157.2238 H   0  0  0  0  0  0  0  0  0  0  0  0
  150.0928  141.0762  154.9347 H   0  0  0  0  0  0  0  0  0  0  0  0
  150.3773  139.4880  155.6605 H   0  0  0  0  0  0  0  0  0  0  0  0
  148.2991  141.0438  156.5278 H   0  0  0  0  0  0  0  0  0  0  0  0
  149.2569  140.1292  157.6962 H   0  0  0  0  0  0  0  0  0  0  0  0
  1  2  1  0  0  0  0
  1 28  1  0  0  0  0
  1 29  1  0  0  0  0
  1 30  1  0  0  0  0
  2 22  1  0  0  0  0
  2  3  1  0  0  0  0
  2  4  1  0  0  0  0
  3 31  1  0  0  0  0
  3 32  1  0  0  0  0
  3 33  1  0  0  0  0
  4  5  1  0  0  0  0
  4 34  1  0  0  0  0
  4 35  1  0  0  0  0
  5  6  1  0  0  0  0
  5 22  1  0  0  0  0
  6 11  1  0  0  0  0
  6  7  2  0  0  0  0
  7  8  1  0  0  0  0
  8  9  2  0  0  0  0
  8 36  1  0  0  0  0
  9 10  1  0  0  0  0
 10 14  1  0  0  0  0
 10 11  2  0  0  0  0
 11 12  1  0  0  0  0
 12 13  2  0  0  0  0
 13 14  1  0  0  0  0
 13 37  1  0  0  0  0
 14 15  1  0  0  0  0
 15 16  1  0  0  0  0
 15 38  1  0  0  0  0
 15 39  1  0  0  0  0
 16 21  1  0  0  0  0
 16 17  1  0  0  0  0
 16 18  1  0  0  0  0
 17 40  1  0  0  0  0
 18 19  1  0  0  0  0
 18 41  1  0  0  0  0
 18 42  1  0  0  0  0
 19 20  1  0  0  0  0
 19 43  1  0  0  0  0
 19 44  1  0  0  0  0
 20 21  1  0  0  0  0
 21 45  1  0  0  0  0
 21 46  1  0  0  0  0
 22 23  1  0  0  0  0
 22 47  1  0  0  0  0
 23 27  1  0  0  0  0
 23 24  1  0  0  0  0
 23 48  1  0  0  0  0
 24 25  1  0  0  0  0
 24 49  1  0  0  0  0
 24 50  1  0  0  0  0
 25 26  1  0  0  0  0
 25 51  1  0  0  0  0
 25 52  1  0  0  0  0
 26 27  1  0  0  0  0
 26 53  1  0  0  0  0
 26 54  1  0  0  0  0
M  END
> <s_m_source_file>
AV-unprocessed.smi

> <i_m_source_file_index>
13

> <i_lp_mmshare_version>
43012

> <i_f3d_flags>
0

> <s_epik_input>
TzFbQ0gyXVtDSDJdW0NIMl1bQ0BIXTFbQ0BASF0yTihbQ0gyXUMyKFtDSDNdKVtDSDNdKWMobltjSF1uMyljKGMzNCluW2NIXW40W0NIMl1bQ0BAXTUoW09IXSlbQ0gyXVtDSDJdT1tDSDJdNQ==

> <s_epik_cmdline>
J2VwaWtfcHl0aG9uJywgJy1waCcsICc3LjAnLCAnLXRuJywgJzgnLCAnLW1hJywgJzIwMCcsICctbWV0YWxfYmluZGluZycsICctaW1hZScsICc8aW5maWxlLm1hZT4nLCAnLW9tYWUnLCAnPG91dGZpbGUubWFlPic=

> <r_lp_tautomer_probability>
1

> <r_epik_Ionization_Penalty>
0.00202764

> <r_epik_Ionization_Penalty_Charging>
0

> <r_epik_Ionization_Penalty_Neutral>
0.00202764

> <r_epik_State_Penalty>
0.00134017

> <r_epik_Charging_Adjusted_Penalty>
0.00134017

> <i_epik_Tot_Q>
0

> <i_epik_Tot_abs_Q>
0

> <r_epik_Metal_State_Penalty>
-0

> <b_epik_Metal_Only>
0

> <s_lp_Force_Field>
OPLS_2005

> <r_lp_Energy>
62.8076

> <b_lp_Chiralities_Consistent>
1

> <s_lp_Variant>
AV-unprocessed.smi:13-6

> <Gold.Version>
5.8.1

> <Gold.Id.Protein>
6NUR|6NUR_protein|mol2

> <Gold.PLP.Fitness>
42.7965

> <Gold.PLP.PLP>
-43.3766

> <Gold.PLP.part.hbond>
-0.3093

> <Gold.PLP.part.metal>
0.0000

> <Gold.PLP.part.buried>
-4.2749

> <Gold.PLP.part.nonpolar>
-38.6971

> <Gold.PLP.part.repulsive>
0.1927

> <Gold.PLP.ligand.clash>
0.0000

> <Gold.PLP.ligand.torsion>
0.4992

> <Gold.PLP.Chemscore.Hbond>
0.0000

> <Gold.PLP.Chemscore.CHOScore>
0.0000

> <Gold.PLP.Chemscore.Metal>
0.0000

> <Gold.PLP.Chemscore.Internal.Correction>
0.4183

> <Gold.Rescore>
     Score         DG    S(hbond)    S(metal)    S(lipo)     H(rot)  DE(clash)    DE(int)     intcor
      7.63     -13.55       0.00        0.00     119.28       2.30       0.33       5.58       ----

> <Gold.Chemscore.Fitness>
7.6307

> <Gold.Chemscore.DG>
-13.5490

> <Gold.Chemscore.ZeroCoef>
-5.4800

> <Gold.Chemscore.Hbond>
0.0000

> <Gold.Chemscore.Metal>
0.0000

> <Gold.Chemscore.Lipo>
119.2815

> <Gold.Chemscore.Internal_Hbond>
0.0000

> <Gold.Chemscore.DEClash>
0.3333

> <Gold.Chemscore.DEInternal>
5.5850

> <Gold.Chemscore.Rot>
2.2996

> <Gold.Chemscore.Internal.Correction>
   9.000000E+99

> <Gold.Chemscore.Hbond.Weighted>
-0.0000

> <Gold.Chemscore.Metal.Weighted>
-0.0000

> <Gold.Chemscore.Lipo.Weighted>
-13.9559

> <Gold.Chemscore.Internal_Hbond.Weighted>
0.0000

> <Gold.Chemscore.DEClash.Weighted>
0.3333

> <Gold.Chemscore.DEInternal.Weighted>
5.5850

> <Gold.Chemscore.Rot.Weighted>
5.8869

> <Gold.Chemscore.Internal.Correction.Weighted>
   9.000000E+99

> <Gold.Protein.RotatedTorsions>
[ 6907 6896 6895 6894 ] final   37.14 input  -60.11 | X-H torsion
[ 7974 7965 7964 7962 ] final   25.38 input  175.53 | X-H torsion
[ 8008 7997 7996 7995 ] final -167.47 input   59.86 | X-H torsion
[ 10167 10162 10161 10158 ] final  139.38 input  -65.29 | X-H torsion
[ 10718 10713 10712 10709 ] final  -69.70 input   66.30 | X-H torsion
[ 10763 10752 10751 10750 ] final   47.53 input  -60.55 | X-H torsion
[ 11005 11000 10999 10996 ] final -163.98 input  -57.11 | X-H torsion

> <Gold.Protein.ActiveResidues>
 VAL166  LYS551  ARG553  GLY616  TRP617  ASP618  TYR619  PRO620  LYS621  CYS622 
 ASP623  PHE694  ASN695  SER759  ASP760  ASP761  ALA762  ILE779  LEU786  VAL792 
 PHE793  MET794  SER795  GLU796  ALA797  LYS798  CYS799  TRP800  GLU811  SER814 

> <Gold.Protein.RotatedAtoms>
  152.1392  134.9076  160.0554 H   0  0  0  0  0  0  0  0  0  0  0  0  # atno 6907 bound_to 6896
  152.0151  133.3871  159.4243 H   0  0  0  0  0  0  0  0  0  0  0  0  # atno 6908 bound_to 6896
  150.6863  134.3610  159.4994 H   0  0  0  0  0  0  0  0  0  0  0  0  # atno 6909 bound_to 6896
  146.1891  139.7474  142.8845 H   0  0  0  0  0  0  0  0  0  0  0  0  # atno 7974 bound_to 7965
  155.8781  140.1004  157.1504 H   0  0  0  0  0  0  0  0  0  0  0  0  # atno 8008 bound_to 7997
  154.4002  140.1334  156.4225 H   0  0  0  0  0  0  0  0  0  0  0  0  # atno 8009 bound_to 7997
  155.7674  140.3461  155.5232 H   0  0  0  0  0  0  0  0  0  0  0  0  # atno 8010 bound_to 7997
  139.5080  144.6298  151.5846 H   0  0  0  0  0  0  0  0  0  0  0  0  # atno 10167 bound_to 10162
  156.0443  130.4317  150.2186 H   0  0  0  0  0  0  0  0  0  0  0  0  # atno 10718 bound_to 10713
  152.9799  135.5973  154.3778 H   0  0  0  0  0  0  0  0  0  0  0  0  # atno 10763 bound_to 10752
  154.3445  135.2767  155.2407 H   0  0  0  0  0  0  0  0  0  0  0  0  # atno 10764 bound_to 10752
  154.4473  135.5998  153.6224 H   0  0  0  0  0  0  0  0  0  0  0  0  # atno 10765 bound_to 10752
  140.5920  134.5035  157.5194 H   0  0  0  0  0  0  0  0  0  0  0  0  # atno 11005 bound_to 11000
  145.3847  141.0363  143.3158 LP  0  0  0  0  0  0  0  0  0  0  0  0  # atno 17320 bound_to 7965
  144.8453  139.5407  143.6881 LP  0  0  0  0  0  0  0  0  0  0  0  0  # atno 17321 bound_to 7965
  140.6027  143.9581  150.6397 LP  0  0  0  0  0  0  0  0  0  0  0  0  # atno 17342 bound_to 10162
  140.2798  143.3397  152.1162 LP  0  0  0  0  0  0  0  0  0  0  0  0  # atno 17343 bound_to 10162
  157.0278  130.9998  151.3321 LP  0  0  0  0  0  0  0  0  0  0  0  0  # atno 17370 bound_to 10713
  157.5299  130.8051  149.7905 LP  0  0  0  0  0  0  0  0  0  0  0  0  # atno 17371 bound_to 10713
  139.9270  134.8037  156.1040 LP  0  0  0  0  0  0  0  0  0  0  0  0  # atno 17394 bound_to 11000
  141.0929  133.6707  156.2580 LP  0  0  0  0  0  0  0  0  0  0  0  0  # atno 17395 bound_to 11000

$$$$
