AV-unprocessed.smi:1199|AV-procd|sdf|5020|dock4
  -GOLD-   22720 4 43D 1   1.00000     0.00000
 Structure written by MMmdl.
 42 43  0  0  0  0  0  0  0  0  2 V2000
  148.5960  136.0163  157.0413 C   0  0  0  0  0  0  0  0  0  0  0  0
  148.5708  136.0694  155.5079 C   0  0  2  0  0  0  0  0  0  0  0  0
  148.8492  134.6798  154.8871 C   0  0  0  0  0  0  0  0  0  0  0  0
  147.8771  134.3018  153.8281 N   0  3  0  0  0  0  0  0  0  0  0  0
  147.8669  132.8478  153.5425 C   0  0  0  0  0  0  0  0  0  0  0  0
  146.8900  132.5306  152.3956 C   0  0  0  0  0  0  0  0  0  0  0  0
  145.5925  133.0183  152.7147 O   0  0  0  0  0  0  0  0  0  0  0  0
  145.5846  134.4279  152.9055 C   0  0  0  0  0  0  0  0  0  0  0  0
  146.4993  134.7846  154.0880 C   0  0  0  0  0  0  0  0  0  0  0  0
  149.5490  137.0519  155.0411 N   0  0  0  0  0  0  0  0  0  0  0  0
  150.8830  136.9404  155.1424 C   0  0  0  0  0  0  0  0  0  0  0  0
  151.4494  135.9392  155.5808 O   0  0  0  0  0  0  0  0  0  0  0  0
  151.7043  138.1577  154.7008 C   0  0  0  0  0  0  0  0  0  0  0  0
  151.2651  139.3864  155.3774 N   0  0  0  0  0  0  0  0  0  0  0  0
  150.2674  140.0788  154.7088 N   0  0  0  0  0  0  0  0  0  0  0  0
  149.8225  141.1908  155.1886 C   0  0  0  0  0  0  0  0  0  0  0  0
  148.8363  141.8453  154.4929 O   0  0  0  0  0  0  0  0  0  0  0  0
  150.3447  141.7364  156.4224 C   0  0  0  0  0  0  0  0  0  0  0  0
  151.3116  141.0509  157.0708 C   0  0  0  0  0  0  0  0  0  0  0  0
  151.8379  139.7864  156.5549 C   0  0  0  0  0  0  0  0  0  0  0  0
  152.7241  139.1438  157.1189 O   0  0  0  0  0  0  0  0  0  0  0  0
  148.8353  142.7284  154.8292 H   0  0  0  0  0  0  0  0  0  0  0  0
  147.8566  135.3103  157.4203 H   0  0  0  0  0  0  0  0  0  0  0  0
  148.3683  136.9920  157.4723 H   0  0  0  0  0  0  0  0  0  0  0  0
  149.5728  135.7072  157.4150 H   0  0  0  0  0  0  0  0  0  0  0  0
  147.5677  136.3890  155.2222 H   0  0  0  0  0  0  0  0  0  0  0  0
  149.8489  134.7004  154.4502 H   0  0  0  0  0  0  0  0  0  0  0  0
  148.8718  133.9090  155.6588 H   0  0  0  0  0  0  0  0  0  0  0  0
  148.8695  132.5154  153.2703 H   0  0  0  0  0  0  0  0  0  0  0  0
  147.5789  132.3013  154.4421 H   0  0  0  0  0  0  0  0  0  0  0  0
  147.2300  132.9691  151.4572 H   0  0  0  0  0  0  0  0  0  0  0  0
  146.8337  131.4535  152.2386 H   0  0  0  0  0  0  0  0  0  0  0  0
  145.9065  134.9361  151.9946 H   0  0  0  0  0  0  0  0  0  0  0  0
  144.5637  134.7516  153.1084 H   0  0  0  0  0  0  0  0  0  0  0  0
  146.1180  134.3324  155.0048 H   0  0  0  0  0  0  0  0  0  0  0  0
  146.4922  135.8630  154.2403 H   0  0  0  0  0  0  0  0  0  0  0  0
  149.1791  137.9081  154.6533 H   0  0  0  0  0  0  0  0  0  0  0  0
  152.7555  137.9548  154.9135 H   0  0  0  0  0  0  0  0  0  0  0  0
  151.6408  138.2889  153.6188 H   0  0  0  0  0  0  0  0  0  0  0  0
  149.9618  142.6697  156.8087 H   0  0  0  0  0  0  0  0  0  0  0  0
  151.7093  141.4460  157.9940 H   0  0  0  0  0  0  0  0  0  0  0  0
  148.1924  134.7519  152.9800 H   0  0  0  0  0  0  0  0  0  0  0  0
  1  2  1  0  0  0  0
  1 23  1  0  0  0  0
  1 24  1  0  0  0  0
  1 25  1  0  0  0  0
  2  3  1  0  0  0  0
  2 10  1  0  0  0  0
  2 26  1  0  0  0  0
  3  4  1  0  0  0  0
  3 27  1  0  0  0  0
  3 28  1  0  0  0  0
  4  9  1  0  0  0  0
  4  5  1  0  0  0  0
  4 42  1  0  0  0  0
  5  6  1  0  0  0  0
  5 29  1  0  0  0  0
  5 30  1  0  0  0  0
  6  7  1  0  0  0  0
  6 31  1  0  0  0  0
  6 32  1  0  0  0  0
  7  8  1  0  0  0  0
  8  9  1  0  0  0  0
  8 33  1  0  0  0  0
  8 34  1  0  0  0  0
  9 35  1  0  0  0  0
  9 36  1  0  0  0  0
 10 11  1  0  0  0  0
 10 37  1  0  0  0  0
 11 12  2  0  0  0  0
 11 13  1  0  0  0  0
 13 38  1  0  0  0  0
 13 39  1  0  0  0  0
 13 14  1  0  0  0  0
 14 15  1  0  0  0  0
 14 20  1  0  0  0  0
 15 16  2  0  0  0  0
 16 17  1  0  0  0  0
 16 18  1  0  0  0  0
 17 22  1  0  0  0  0
 18 40  1  0  0  0  0
 18 19  2  0  0  0  0
 19 41  1  0  0  0  0
 19 20  1  0  0  0  0
 20 21  2  0  0  0  0
M  CHG  1   4   1
M  END
> <s_m_source_file>
AV-unprocessed.smi

> <i_m_source_file_index>
1199

> <i_lp_mmshare_version>
43012

> <i_f3d_flags>
0

> <s_epik_input>
W0NIMl0xW0NIMl1PW0NIMl1bQ0gyXU4xW0NIMl1bQ0BASF0oW0NIM10pW05IXUMoPU8pW0NIMl1uMltuSF1jKD1PKVtjSF1bY0hdYzI9Tw==

> <s_epik_cmdline>
J2VwaWtfcHl0aG9uJywgJy1waCcsICc3LjAnLCAnLXRuJywgJzgnLCAnLW1hJywgJzIwMCcsICctbWV0YWxfYmluZGluZycsICctaW1hZScsICc8aW5maWxlLm1hZT4nLCAnLW9tYWUnLCAnPG91dGZpbGUubWFlPic=

> <r_lp_tautomer_probability>
0.9996

> <r_epik_Ionization_Penalty>
2.86815

> <r_epik_Ionization_Penalty_Charging>
0.656653

> <r_epik_Ionization_Penalty_Neutral>
2.21149

> <r_epik_State_Penalty>
2.43136

> <r_epik_Charging_Adjusted_Penalty>
3.08801

> <i_epik_Tot_Q>
1

> <i_epik_Tot_abs_Q>
1

> <r_epik_Metal_State_Penalty>
2.43136

> <b_epik_Metal_Only>
0

> <s_lp_Force_Field>
OPLS_2005

> <r_lp_Energy>
31.3185

> <b_lp_Chiralities_Consistent>
1

> <s_lp_Variant>
AV-unprocessed.smi:1199-7

> <Gold.Version>
5.8.1

> <Gold.Id.Protein>
6NUR|6NUR_protein|mol2

> <Gold.PLP.Fitness>
48.7445

> <Gold.PLP.PLP>
-33.8916

> <Gold.PLP.part.hbond>
-6.2304

> <Gold.PLP.part.metal>
0.0000

> <Gold.PLP.part.buried>
-1.5399

> <Gold.PLP.part.nonpolar>
-25.4163

> <Gold.PLP.part.repulsive>
0.2792

> <Gold.PLP.ligand.clash>
0.0000

> <Gold.PLP.ligand.torsion>
1.3388

> <Gold.PLP.Chemscore.Hbond>
5.8230

> <Gold.PLP.Chemscore.CHOScore>
0.0000

> <Gold.PLP.Chemscore.Metal>
0.0000

> <Gold.Chemscore.Hbonds>
donor molecule, donor type, donor heavy atom, donor atom, acceptor molecule, acceptor atom, score
      L1  H     4    42       P1  7948  2.00
      L1  H    17    22       P1  8028  0.71
      P1  H  7989  7998       L1    15  0.42
      P1  H  7997  8010       L1    21  1.00
      P1  H  8011  8017       L1    17  0.01
      P1  H 10752 10765       L1    12  1.00

> <Gold.PLP.Chemscore.Internal.Correction>
0.0613

> <Gold.Rescore>
     Score         DG    S(hbond)    S(metal)    S(lipo)     H(rot)  DE(clash)    DE(int)     intcor
     14.09     -16.06       3.92        0.00      44.85       3.03       0.04       1.94       ----

> <Gold.Chemscore.Fitness>
14.0859

> <Gold.Chemscore.DG>
-16.0635

> <Gold.Chemscore.ZeroCoef>
-5.4800

> <Gold.Chemscore.Hbond>
3.9229

> <Gold.Chemscore.Metal>
0.0000

> <Gold.Chemscore.Lipo>
44.8467

> <Gold.Chemscore.Internal_Hbond>
0.0000

> <Gold.Chemscore.DEClash>
0.0398

> <Gold.Chemscore.DEInternal>
1.9378

> <Gold.Chemscore.Rot>
3.0336

> <Gold.Chemscore.Internal.Correction>
   9.000000E+99

> <Gold.Chemscore.Hbonds>
donor molecule, donor type, donor heavy atom, donor atom, acceptor molecule, acceptor atom, score
      L1  H     4    42       P1  7948  0.73
      L1  H    17    22       P1  8028  0.73
      P1  H  7997  8010       L1    21  0.54
      P1  H 10752 10765       L1    12  0.94

> <Gold.Chemscore.Hbond.Weighted>
-13.1025

> <Gold.Chemscore.Metal.Weighted>
-0.0000

> <Gold.Chemscore.Lipo.Weighted>
-5.2471

> <Gold.Chemscore.Internal_Hbond.Weighted>
0.0000

> <Gold.Chemscore.DEClash.Weighted>
0.0398

> <Gold.Chemscore.DEInternal.Weighted>
1.9378

> <Gold.Chemscore.Rot.Weighted>
7.7661

> <Gold.Chemscore.Internal.Correction.Weighted>
   9.000000E+99

> <Gold.Protein.RotatedTorsions>
[ 6907 6896 6895 6894 ] final  -53.87 input  -60.11 | X-H torsion
[ 7974 7965 7964 7962 ] final -117.10 input  175.53 | X-H torsion
[ 8008 7997 7996 7995 ] final   54.43 input   59.86 | X-H torsion
[ 10167 10162 10161 10158 ] final  -17.66 input  -65.29 | X-H torsion
[ 10718 10713 10712 10709 ] final -139.72 input   66.30 | X-H torsion
[ 10763 10752 10751 10750 ] final -162.47 input  -60.55 | X-H torsion
[ 11005 11000 10999 10996 ] final  126.80 input  -57.11 | X-H torsion

> <Gold.Protein.ActiveResidues>
 VAL166  LYS551  ARG553  GLY616  TRP617  ASP618  TYR619  PRO620  LYS621  CYS622 
 ASP623  PHE694  ASN695  SER759  ASP760  ASP761  ALA762  ILE779  LEU786  VAL792 
 PHE793  MET794  SER795  GLU796  ALA797  LYS798  CYS799  TRP800  GLU811  SER814 

> <Gold.Protein.RotatedAtoms>
  150.8388  134.7672  159.6914 H   0  0  0  0  0  0  0  0  0  0  0  0  # atno 6907 bound_to 6896
  152.4480  134.5451  159.9860 H   0  0  0  0  0  0  0  0  0  0  0  0  # atno 6908 bound_to 6896
  151.5596  133.3367  159.3004 H   0  0  0  0  0  0  0  0  0  0  0  0  # atno 6909 bound_to 6896
  145.0891  140.8478  143.3993 H   0  0  0  0  0  0  0  0  0  0  0  0  # atno 7974 bound_to 7965
  155.4845  140.3469  155.4345 H   0  0  0  0  0  0  0  0  0  0  0  0  # atno 8008 bound_to 7997
  156.1017  140.1437  156.9487 H   0  0  0  0  0  0  0  0  0  0  0  0  # atno 8009 bound_to 7997
  154.4698  140.0905  156.7093 H   0  0  0  0  0  0  0  0  0  0  0  0  # atno 8010 bound_to 7997
  140.7250  143.4993  150.9890 H   0  0  0  0  0  0  0  0  0  0  0  0  # atno 10167 bound_to 10162
  156.3140  130.7497  151.1580 H   0  0  0  0  0  0  0  0  0  0  0  0  # atno 10718 bound_to 10713
  154.7211  135.3026  154.9046 H   0  0  0  0  0  0  0  0  0  0  0  0  # atno 10763 bound_to 10752
  153.9918  135.6718  153.4758 H   0  0  0  0  0  0  0  0  0  0  0  0  # atno 10764 bound_to 10752
  153.0834  135.4996  154.8467 H   0  0  0  0  0  0  0  0  0  0  0  0  # atno 10765 bound_to 10752
  139.9475  134.9627  156.8761 H   0  0  0  0  0  0  0  0  0  0  0  0  # atno 11005 bound_to 11000
  145.1087  139.2772  143.5649 LP  0  0  0  0  0  0  0  0  0  0  0  0  # atno 17320 bound_to 7965
  146.3531  140.0676  142.8625 LP  0  0  0  0  0  0  0  0  0  0  0  0  # atno 17321 bound_to 7965
  139.8702  143.7203  152.3167 LP  0  0  0  0  0  0  0  0  0  0  0  0  # atno 17342 bound_to 10162
  139.7449  144.7550  151.0596 LP  0  0  0  0  0  0  0  0  0  0  0  0  # atno 17343 bound_to 10162
  157.7397  131.0525  150.5212 LP  0  0  0  0  0  0  0  0  0  0  0  0  # atno 17370 bound_to 10713
  156.5356  130.4195  149.6179 LP  0  0  0  0  0  0  0  0  0  0  0  0  # atno 17371 bound_to 10713
  140.5800  134.0362  155.7460 LP  0  0  0  0  0  0  0  0  0  0  0  0  # atno 17394 bound_to 11000
  141.1129  133.9587  157.2877 LP  0  0  0  0  0  0  0  0  0  0  0  0  # atno 17395 bound_to 11000

$$$$
