AV-unprocessed.smi:290|AV-procd|sdf|2219|dock5
  -GOLD-   2262022 63D 1   1.00000     0.00000
 Structure written by MMmdl.
 59 62  0  0  0  0  0  0  0  0  2 V2000
  152.6658  144.7587  158.0270 C   0  0  0  0  0  0  0  0  0  0  0  0
  152.0947  143.9019  159.1676 C   0  0  2  0  0  0  0  0  0  0  0  0
  153.1532  143.6428  160.0863 O   0  0  0  0  0  0  0  0  0  0  0  0
  152.9174  142.3947  160.7127 C   0  0  0  0  0  0  0  0  0  0  0  0
  152.4127  141.5426  159.5587 C   0  0  0  0  0  0  0  0  0  0  0  0
  151.5217  142.5085  158.7815 C   0  0  1  0  0  0  0  0  0  0  0  0
  150.2142  142.4148  159.3223 O   0  0  0  0  0  0  0  0  0  0  0  0
  151.4412  142.1917  157.2646 C   0  0  0  0  0  0  0  0  0  0  0  0
  150.7253  140.9602  156.9690 N   0  0  0  0  0  0  0  0  0  0  0  0
  150.8567  139.7523  157.6182 C   0  0  0  0  0  0  0  0  0  0  0  0
  150.0942  138.7921  157.1698 N   0  0  0  0  0  0  0  0  0  0  0  0
  149.3912  139.3826  156.1283 C   0  0  0  0  0  0  0  0  0  0  0  0
  148.4016  138.9215  155.2227 C   0  0  0  0  0  0  0  0  0  0  0  0
  147.9368  137.6522  155.2673 N   0  0  0  0  0  0  0  0  0  0  0  0
  148.9700  136.6345  155.3026 C   0  0  0  0  0  0  0  0  0  0  0  0
  148.2681  135.3265  154.9398 C   0  0  0  0  0  0  0  0  0  0  0  0
  146.9170  135.7273  154.3095 C   0  0  2  0  0  0  0  0  0  0  0  0
  146.6736  134.9881  153.0301 N   0  3  1  0  0  0  0  0  0  0  0  0
  146.8366  133.5233  153.2213 C   0  0  0  0  0  0  0  0  0  0  0  0
  145.4040  135.3288  152.3257 C   0  0  0  0  0  0  0  0  0  0  0  0
  145.6052  135.8353  150.8848 C   0  0  0  0  0  0  0  0  0  0  0  0
  146.2034  137.1147  150.8926 O   0  0  0  0  0  0  0  0  0  0  0  0
  147.0057  137.2706  154.2123 C   0  0  1  0  0  0  0  0  0  0  0  0
  145.6553  137.9950  154.4079 C   0  0  0  0  0  0  0  0  0  0  0  0
  147.9147  139.8010  154.3076 N   0  0  0  0  0  0  0  0  0  0  0  0
  148.3763  141.0554  154.2785 C   0  0  0  0  0  0  0  0  0  0  0  0
  149.2975  141.6246  155.0594 N   0  0  0  0  0  0  0  0  0  0  0  0
  149.7794  140.7430  155.9825 C   0  0  0  0  0  0  0  0  0  0  0  0
  146.1205  135.4778  155.0133 H   0  0  0  0  0  0  0  0  0  0  0  0
  147.4425  137.5499  153.2521 H   0  0  0  0  0  0  0  0  0  0  0  0
  151.8997  145.0055  157.2920 H   0  0  0  0  0  0  0  0  0  0  0  0
  153.4827  144.2513  157.5138 H   0  0  0  0  0  0  0  0  0  0  0  0
  153.0593  145.6986  158.4148 H   0  0  0  0  0  0  0  0  0  0  0  0
  151.3402  144.4907  159.6930 H   0  0  0  0  0  0  0  0  0  0  0  0
  153.8217  141.9944  161.1708 H   0  0  0  0  0  0  0  0  0  0  0  0
  152.1549  142.5056  161.4851 H   0  0  0  0  0  0  0  0  0  0  0  0
  153.2646  141.2427  158.9472 H   0  0  0  0  0  0  0  0  0  0  0  0
  151.9027  140.6351  159.8851 H   0  0  0  0  0  0  0  0  0  0  0  0
  149.9252  141.5172  159.2567 H   0  0  0  0  0  0  0  0  0  0  0  0
  150.9529  143.0066  156.7287 H   0  0  0  0  0  0  0  0  0  0  0  0
  152.4414  142.0986  156.8404 H   0  0  0  0  0  0  0  0  0  0  0  0
  151.5363  139.6059  158.4453 H   0  0  0  0  0  0  0  0  0  0  0  0
  149.7560  136.8508  154.5775 H   0  0  0  0  0  0  0  0  0  0  0  0
  149.4293  136.5808  156.2901 H   0  0  0  0  0  0  0  0  0  0  0  0
  148.8976  134.7468  154.2635 H   0  0  0  0  0  0  0  0  0  0  0  0
  148.1007  134.7198  155.8304 H   0  0  0  0  0  0  0  0  0  0  0  0
  145.9873  133.1050  153.7632 H   0  0  0  0  0  0  0  0  0  0  0  0
  147.7384  133.2850  153.7848 H   0  0  0  0  0  0  0  0  0  0  0  0
  146.9290  133.0017  152.2697 H   0  0  0  0  0  0  0  0  0  0  0  0
  144.7509  134.4552  152.3222 H   0  0  0  0  0  0  0  0  0  0  0  0
  144.8765  136.1193  152.8560 H   0  0  0  0  0  0  0  0  0  0  0  0
  146.1963  135.1494  150.2797 H   0  0  0  0  0  0  0  0  0  0  0  0
  144.6377  135.9190  150.3887 H   0  0  0  0  0  0  0  0  0  0  0  0
  145.5526  137.7561  150.6499 H   0  0  0  0  0  0  0  0  0  0  0  0
  144.9070  137.7017  153.6748 H   0  0  0  0  0  0  0  0  0  0  0  0
  145.7712  139.0761  154.3254 H   0  0  0  0  0  0  0  0  0  0  0  0
  145.2396  137.7864  155.3944 H   0  0  0  0  0  0  0  0  0  0  0  0
  147.9450  141.6955  153.5229 H   0  0  0  0  0  0  0  0  0  0  0  0
  147.4117  135.2799  152.4050 H   0  0  0  0  0  0  0  0  0  0  0  0
  1  2  1  0  0  0  0
  1 31  1  0  0  0  0
  1 32  1  0  0  0  0
  1 33  1  0  0  0  0
  2  6  1  0  0  0  0
  2  3  1  0  0  0  0
  2 34  1  0  0  0  0
  3  4  1  0  0  0  0
  4  5  1  0  0  0  0
  4 35  1  0  0  0  0
  4 36  1  0  0  0  0
  5  6  1  0  0  0  0
  5 37  1  0  0  0  0
  5 38  1  0  0  0  0
  6  7  1  0  0  0  0
  6  8  1  0  0  0  0
  7 39  1  0  0  0  0
  8  9  1  0  0  0  0
  8 40  1  0  0  0  0
  8 41  1  0  0  0  0
  9 28  1  0  0  0  0
  9 10  1  0  0  0  0
 10 11  2  0  0  0  0
 10 42  1  0  0  0  0
 11 12  1  0  0  0  0
 12 28  2  0  0  0  0
 12 13  1  0  0  0  0
 13 14  1  0  0  0  0
 13 25  2  0  0  0  0
 14 23  1  0  0  0  0
 14 15  1  0  0  0  0
 15 16  1  0  0  0  0
 15 43  1  0  0  0  0
 15 44  1  0  0  0  0
 16 17  1  0  0  0  0
 16 45  1  0  0  0  0
 16 46  1  0  0  0  0
 17 29  1  0  0  0  0
 17 18  1  0  0  0  0
 17 23  1  0  0  0  0
 18 19  1  0  0  0  0
 18 20  1  0  0  0  0
 18 59  1  0  0  0  0
 19 47  1  0  0  0  0
 19 48  1  0  0  0  0
 19 49  1  0  0  0  0
 20 21  1  0  0  0  0
 20 50  1  0  0  0  0
 20 51  1  0  0  0  0
 21 22  1  0  0  0  0
 21 52  1  0  0  0  0
 21 53  1  0  0  0  0
 22 54  1  0  0  0  0
 23 30  1  0  0  0  0
 23 24  1  0  0  0  0
 24 55  1  0  0  0  0
 24 56  1  0  0  0  0
 24 57  1  0  0  0  0
 25 26  1  0  0  0  0
 26 27  2  0  0  0  0
 26 58  1  0  0  0  0
 27 28  1  0  0  0  0
M  CHG  1  18   1
M  END
> <s_m_source_file>
AV-unprocessed.smi

> <i_m_source_file_index>
290

> <i_lp_mmshare_version>
43012

> <i_f3d_flags>
0

> <s_epik_input>
W0NIMl0xW0NIMl1PW0NAQEhdKFtDSDNdKVtDQEBdMShbT0hdKVtDSDJdbihbY0hdbjIpYyhjMjMpbltjSF1uYzNONFtDSDJdW0NIMl1bQ0BIXShbQ0BIXTRbQ0gzXSlOKFtDSDNdKVtDSDJdW0NIMl1bT0hd

> <s_epik_cmdline>
J2VwaWtfcHl0aG9uJywgJy1waCcsICc3LjAnLCAnLXRuJywgJzgnLCAnLW1hJywgJzIwMCcsICctbWV0YWxfYmluZGluZycsICctaW1hZScsICc8aW5maWxlLm1hZT4nLCAnLW9tYWUnLCAnPG91dGZpbGUubWFlPic=

> <r_lp_tautomer_probability>
1

> <r_epik_Ionization_Penalty>
0.0036983

> <r_epik_Ionization_Penalty_Charging>
0.0032725

> <r_epik_Ionization_Penalty_Neutral>
0.000425798

> <r_epik_State_Penalty>
-0

> <r_epik_Charging_Adjusted_Penalty>
0.0032725

> <i_epik_Tot_Q>
1

> <i_epik_Tot_abs_Q>
1

> <r_epik_Metal_State_Penalty>
-0

> <b_epik_Metal_Only>
0

> <s_lp_Force_Field>
OPLS_2005

> <r_lp_Energy>
64.8136

> <b_lp_Chiralities_Consistent>
1

> <s_lp_Variant>
AV-unprocessed.smi:290-5

> <Gold.Version>
5.8.1

> <Gold.Id.Protein>
6NUR|6NUR_protein|mol2

> <Gold.PLP.Fitness>
50.1622

> <Gold.PLP.PLP>
-40.5852

> <Gold.PLP.part.hbond>
-5.1684

> <Gold.PLP.part.metal>
0.0000

> <Gold.PLP.part.buried>
-4.3685

> <Gold.PLP.part.nonpolar>
-31.2893

> <Gold.PLP.part.repulsive>
0.3535

> <Gold.PLP.ligand.clash>
0.0000

> <Gold.PLP.ligand.torsion>
1.1796

> <Gold.PLP.Chemscore.Hbond>
3.9107

> <Gold.PLP.Chemscore.CHOScore>
0.0000

> <Gold.PLP.Chemscore.Metal>
0.0000

> <Gold.Chemscore.Hbonds>
donor molecule, donor type, donor heavy atom, donor atom, acceptor molecule, acceptor atom, score
      L1  H    18    59       P1  7948  2.00
      L1  H    22    54       P1 10171  0.96
      P1  H  7954  7966       L1    22  0.28

> <Gold.PLP.Chemscore.Internal.Correction>
0.2039

> <Gold.Rescore>
     Score         DG    S(hbond)    S(metal)    S(lipo)     H(rot)  DE(clash)    DE(int)     intcor
     12.62     -15.86       2.62        0.00      94.06       3.67       0.13       3.11       ----

> <Gold.Chemscore.Fitness>
12.6208

> <Gold.Chemscore.DG>
-15.8574

> <Gold.Chemscore.ZeroCoef>
-5.4800

> <Gold.Chemscore.Hbond>
2.6217

> <Gold.Chemscore.Metal>
0.0000

> <Gold.Chemscore.Lipo>
94.0636

> <Gold.Chemscore.Internal_Hbond>
0.0000

> <Gold.Chemscore.DEClash>
0.1269

> <Gold.Chemscore.DEInternal>
3.1097

> <Gold.Chemscore.Rot>
3.6658

> <Gold.Chemscore.Internal.Correction>
   9.000000E+99

> <Gold.Chemscore.Hbonds>
donor molecule, donor type, donor heavy atom, donor atom, acceptor molecule, acceptor atom, score
      L1  H    18    59       P1  7948  0.99
      L1  H    22    54       P1 10171  0.91
      P1  H  7954  7966       L1    22  0.14

> <Gold.Chemscore.Hbond.Weighted>
-8.7563

> <Gold.Chemscore.Metal.Weighted>
-0.0000

> <Gold.Chemscore.Lipo.Weighted>
-11.0054

> <Gold.Chemscore.Internal_Hbond.Weighted>
0.0000

> <Gold.Chemscore.DEClash.Weighted>
0.1269

> <Gold.Chemscore.DEInternal.Weighted>
3.1097

> <Gold.Chemscore.Rot.Weighted>
9.3844

> <Gold.Chemscore.Internal.Correction.Weighted>
   9.000000E+99

> <Gold.Protein.RotatedTorsions>
[ 6907 6896 6895 6894 ] final -147.69 input  -60.11 | X-H torsion
[ 7974 7965 7964 7962 ] final  105.23 input  175.53 | X-H torsion
[ 8008 7997 7996 7995 ] final  -53.02 input   59.86 | X-H torsion
[ 10167 10162 10161 10158 ] final  -68.16 input  -65.29 | X-H torsion
[ 10718 10713 10712 10709 ] final   20.87 input   66.30 | X-H torsion
[ 10763 10752 10751 10750 ] final   95.19 input  -60.55 | X-H torsion
[ 11005 11000 10999 10996 ] final -156.09 input  -57.11 | X-H torsion

> <Gold.Protein.ActiveResidues>
 VAL166  LYS551  ARG553  GLY616  TRP617  ASP618  TYR619  PRO620  LYS621  CYS622 
 ASP623  PHE694  ASN695  SER759  ASP760  ASP761  ALA762  ILE779  LEU786  VAL792 
 PHE793  MET794  SER795  GLU796  ALA797  LYS798  CYS799  TRP800  GLU811  SER814 

> <Gold.Protein.RotatedAtoms>
  151.1592  133.4856  159.2594 H   0  0  0  0  0  0  0  0  0  0  0  0  # atno 6907 bound_to 6896
  151.1472  135.0209  159.8662 H   0  0  0  0  0  0  0  0  0  0  0  0  # atno 6908 bound_to 6896
  152.5463  134.1479  159.8559 H   0  0  0  0  0  0  0  0  0  0  0  0  # atno 6909 bound_to 6896
  145.3224  139.2509  143.3704 H   0  0  0  0  0  0  0  0  0  0  0  0  # atno 7974 bound_to 7965
  154.4122  140.1210  156.5085 H   0  0  0  0  0  0  0  0  0  0  0  0  # atno 8008 bound_to 7997
  155.6823  140.3496  155.4841 H   0  0  0  0  0  0  0  0  0  0  0  0  # atno 8009 bound_to 7997
  155.9541  140.1110  157.0942 H   0  0  0  0  0  0  0  0  0  0  0  0  # atno 8010 bound_to 7997
  140.5528  143.2312  151.6878 H   0  0  0  0  0  0  0  0  0  0  0  0  # atno 10167 bound_to 10162
  157.1305  130.6589  149.5950 H   0  0  0  0  0  0  0  0  0  0  0  0  # atno 10718 bound_to 10713
  153.2503  135.4263  155.0790 H   0  0  0  0  0  0  0  0  0  0  0  0  # atno 10763 bound_to 10752
  154.8379  135.3424  154.6522 H   0  0  0  0  0  0  0  0  0  0  0  0  # atno 10764 bound_to 10752
  153.6944  135.7032  153.5137 H   0  0  0  0  0  0  0  0  0  0  0  0  # atno 10765 bound_to 10752
  140.6794  134.4161  157.5227 H   0  0  0  0  0  0  0  0  0  0  0  0  # atno 11005 bound_to 11000
  146.3077  140.3784  142.8681 LP  0  0  0  0  0  0  0  0  0  0  0  0  # atno 17320 bound_to 7965
  144.8928  140.7546  143.5915 LP  0  0  0  0  0  0  0  0  0  0  0  0  # atno 17321 bound_to 7965
  139.5035  144.3789  152.0395 LP  0  0  0  0  0  0  0  0  0  0  0  0  # atno 17342 bound_to 10162
  140.2908  144.3756  150.6089 LP  0  0  0  0  0  0  0  0  0  0  0  0  # atno 17343 bound_to 10162
  155.9809  130.4812  150.6797 LP  0  0  0  0  0  0  0  0  0  0  0  0  # atno 17370 bound_to 10713
  157.4396  131.0859  151.0957 LP  0  0  0  0  0  0  0  0  0  0  0  0  # atno 17371 bound_to 10713
  139.8956  134.8678  156.2123 LP  0  0  0  0  0  0  0  0  0  0  0  0  # atno 17394 bound_to 11000
  141.0329  133.6979  156.1462 LP  0  0  0  0  0  0  0  0  0  0  0  0  # atno 17395 bound_to 11000

$$$$
