AV-unprocessed.smi:306|AV-procd|sdf|2283|dock9
  -GOLD-   2262022183D 1   1.00000     0.00000
 Structure written by MMmdl.
 46 48  0  0  0  0  0  0  0  0  2 V2000
  155.2869  140.5722  160.1807 C   0  0  0  0  0  0  0  0  0  0  0  0
  153.8111  140.2936  160.4887 C   0  0  0  0  0  0  0  0  0  0  0  0
  152.8930  141.0803  159.5971 C   0  0  0  0  0  0  0  0  0  0  0  0
  152.6958  142.4892  159.5612 C   0  0  0  0  0  0  0  0  0  0  0  0
  151.7548  142.6742  158.5876 C   0  0  0  0  0  0  0  0  0  0  0  0
  151.1324  143.9358  158.0773 C   0  0  0  0  0  0  0  0  0  0  0  0
  150.5097  144.7951  159.1832 C   0  0  0  0  0  0  0  0  0  0  0  0
  151.4344  141.4197  158.1003 N   0  0  0  0  0  0  0  0  0  0  0  0
  150.5070  141.0801  157.0958 C   0  0  0  0  0  0  0  0  0  0  0  0
  149.2520  141.5292  157.0628 N   0  0  0  0  0  0  0  0  0  0  0  0
  148.7501  140.9302  155.9159 C   0  0  0  0  0  0  0  0  0  0  0  0
  149.6919  140.1600  155.3045 C   0  0  0  0  0  0  0  0  0  0  0  0
  149.4539  139.4054  154.0542 C   0  0  0  0  0  0  0  0  0  0  0  0
  150.3439  138.7345  153.5359 O   0  0  0  0  0  0  0  0  0  0  0  0
  148.1718  139.5601  153.5943 N   0  5  0  0  0  0  0  0  0  0  0  0
  147.1858  140.3229  154.1826 C   0  0  0  0  0  0  0  0  0  0  0  0
  146.0540  140.4038  153.7034 O   0  0  0  0  0  0  0  0  0  0  0  0
  147.4559  141.0153  155.3340 N   0  0  0  0  0  0  0  0  0  0  0  0
  146.4271  141.8353  155.9801 C   0  0  0  0  0  0  0  0  0  0  0  0
  150.8522  140.2524  156.0790 N   0  0  0  0  0  0  0  0  0  0  0  0
  152.1527  139.6238  155.8613 C   0  0  0  0  0  0  0  0  0  0  0  0
  152.0352  138.1097  155.6328 C   0  0  0  0  0  0  0  0  0  0  0  0
  153.3222  137.5396  155.4625 O   0  0  0  0  0  0  0  0  0  0  0  0
  154.0916  137.5664  156.6508 C   0  0  0  0  0  0  0  0  0  0  0  0
  152.1397  140.4468  158.7132 N   0  0  0  0  0  0  0  0  0  0  0  0
  155.9368  139.9883  160.8326 H   0  0  0  0  0  0  0  0  0  0  0  0
  155.5286  141.6255  160.3264 H   0  0  0  0  0  0  0  0  0  0  0  0
  155.5285  140.3127  159.1497 H   0  0  0  0  0  0  0  0  0  0  0  0
  153.6140  139.2274  160.3740 H   0  0  0  0  0  0  0  0  0  0  0  0
  153.6069  140.5269  161.5343 H   0  0  0  0  0  0  0  0  0  0  0  0
  153.1727  143.2496  160.1615 H   0  0  0  0  0  0  0  0  0  0  0  0
  151.8766  144.5232  157.5388 H   0  0  0  0  0  0  0  0  0  0  0  0
  150.3640  143.6860  157.3450 H   0  0  0  0  0  0  0  0  0  0  0  0
  150.0580  145.6956  158.7668 H   0  0  0  0  0  0  0  0  0  0  0  0
  151.2571  145.1067  159.9130 H   0  0  0  0  0  0  0  0  0  0  0  0
  149.7316  144.2466  159.7146 H   0  0  0  0  0  0  0  0  0  0  0  0
  146.0453  142.5878  155.2886 H   0  0  0  0  0  0  0  0  0  0  0  0
  146.7987  142.3630  156.8582 H   0  0  0  0  0  0  0  0  0  0  0  0
  145.5914  141.2124  156.3015 H   0  0  0  0  0  0  0  0  0  0  0  0
  152.6337  140.0879  155.0006 H   0  0  0  0  0  0  0  0  0  0  0  0
  152.8088  139.8361  156.7029 H   0  0  0  0  0  0  0  0  0  0  0  0
  151.5340  137.6436  156.4820 H   0  0  0  0  0  0  0  0  0  0  0  0
  151.4225  137.9177  154.7510 H   0  0  0  0  0  0  0  0  0  0  0  0
  155.0654  137.1132  156.4657 H   0  0  0  0  0  0  0  0  0  0  0  0
  153.6048  137.0051  157.4493 H   0  0  0  0  0  0  0  0  0  0  0  0
  154.2552  138.5898  156.9904 H   0  0  0  0  0  0  0  0  0  0  0  0
  1  2  1  0  0  0  0
  1 26  1  0  0  0  0
  1 27  1  0  0  0  0
  1 28  1  0  0  0  0
  2  3  1  0  0  0  0
  2 29  1  0  0  0  0
  2 30  1  0  0  0  0
  3 25  2  0  0  0  0
  3  4  1  0  0  0  0
  4  5  2  0  0  0  0
  4 31  1  0  0  0  0
  5  6  1  0  0  0  0
  5  8  1  0  0  0  0
  6  7  1  0  0  0  0
  6 32  1  0  0  0  0
  6 33  1  0  0  0  0
  7 34  1  0  0  0  0
  7 35  1  0  0  0  0
  7 36  1  0  0  0  0
  8  9  1  0  0  0  0
  8 25  1  0  0  0  0
  9 20  1  0  0  0  0
  9 10  2  0  0  0  0
 10 11  1  0  0  0  0
 11 18  1  0  0  0  0
 11 12  2  0  0  0  0
 12 13  1  0  0  0  0
 12 20  1  0  0  0  0
 13 14  2  0  0  0  0
 13 15  1  0  0  0  0
 15 16  1  0  0  0  0
 16 17  2  0  0  0  0
 16 18  1  0  0  0  0
 18 19  1  0  0  0  0
 19 37  1  0  0  0  0
 19 38  1  0  0  0  0
 19 39  1  0  0  0  0
 20 21  1  0  0  0  0
 21 22  1  0  0  0  0
 21 40  1  0  0  0  0
 21 41  1  0  0  0  0
 22 23  1  0  0  0  0
 22 42  1  0  0  0  0
 22 43  1  0  0  0  0
 23 24  1  0  0  0  0
 24 44  1  0  0  0  0
 24 45  1  0  0  0  0
 24 46  1  0  0  0  0
M  CHG  1  15  -1
M  END
> <s_m_source_file>
AV-unprocessed.smi

> <i_m_source_file_index>
306

> <i_lp_mmshare_version>
43012

> <i_f3d_flags>
0

> <s_epik_input>
W0NIM11bQ0gyXWMxW2NIXWMoW0NIMl1bQ0gzXSluKG4xKS1jKG4yKW4oW0NIMl1bQ0gyXU9bQ0gzXSljKGMyMyljKD1PKVtuSF1jKD1PKW4zW0NIM10=

> <s_epik_cmdline>
J2VwaWtfcHl0aG9uJywgJy1waCcsICc3LjAnLCAnLXRuJywgJzgnLCAnLW1hJywgJzIwMCcsICctbWV0YWxfYmluZGluZycsICctaW1hZScsICc8aW5maWxlLm1hZT4nLCAnLW9tYWUnLCAnPG91dGZpbGUubWFlPic=

> <r_lp_tautomer_probability>
1

> <r_epik_Ionization_Penalty>
3.98741

> <r_epik_Ionization_Penalty_Charging>
0.0180637

> <r_epik_Ionization_Penalty_Neutral>
3.96934

> <r_epik_State_Penalty>
3.96767

> <r_epik_Charging_Adjusted_Penalty>
3.98573

> <i_epik_Tot_Q>
-1

> <i_epik_Tot_abs_Q>
1

> <r_epik_Metal_State_Penalty>
0.612217

> <b_epik_Metal_Only>
1

> <s_lp_Force_Field>
OPLS_2005

> <r_lp_Energy>
26.8748

> <b_lp_Chiralities_Consistent>
1

> <s_lp_Variant>
AV-unprocessed.smi:306-2

> <Gold.Version>
5.8.1

> <Gold.Id.Protein>
6NUR|6NUR_protein|mol2

> <Gold.PLP.Fitness>
42.5196

> <Gold.PLP.PLP>
-42.1274

> <Gold.PLP.part.hbond>
-1.0000

> <Gold.PLP.part.metal>
0.0000

> <Gold.PLP.part.buried>
-4.5769

> <Gold.PLP.part.nonpolar>
-39.3106

> <Gold.PLP.part.repulsive>
2.0232

> <Gold.PLP.ligand.clash>
0.0000

> <Gold.PLP.ligand.torsion>
1.0359

> <Gold.PLP.Chemscore.Hbond>
0.5280

> <Gold.PLP.Chemscore.CHOScore>
0.0000

> <Gold.PLP.Chemscore.Metal>
0.0000

> <Gold.Chemscore.Hbonds>
donor molecule, donor type, donor heavy atom, donor atom, acceptor molecule, acceptor atom, score
      P1  H 10752 10763       L1    23  0.16

> <Gold.PLP.Chemscore.Internal.Correction>
0.8801

> <Gold.Rescore>
     Score         DG    S(hbond)    S(metal)    S(lipo)     H(rot)  DE(clash)    DE(int)     intcor
      9.74     -14.36       0.85        0.00      91.28       1.81       0.03       4.60       ----

> <Gold.Chemscore.Fitness>
9.7367

> <Gold.Chemscore.DG>
-14.3636

> <Gold.Chemscore.ZeroCoef>
-5.4800

> <Gold.Chemscore.Hbond>
0.8523

> <Gold.Chemscore.Metal>
0.0000

> <Gold.Chemscore.Lipo>
91.2791

> <Gold.Chemscore.Internal_Hbond>
0.0000

> <Gold.Chemscore.DEClash>
0.0285

> <Gold.Chemscore.DEInternal>
4.5984

> <Gold.Chemscore.Rot>
1.8136

> <Gold.Chemscore.Internal.Correction>
   9.000000E+99

> <Gold.Chemscore.Hbonds>
donor molecule, donor type, donor heavy atom, donor atom, acceptor molecule, acceptor atom, score
      P1  H 10752 10763       L1    23  0.03

> <Gold.Chemscore.Hbond.Weighted>
-2.8466

> <Gold.Chemscore.Metal.Weighted>
-0.0000

> <Gold.Chemscore.Lipo.Weighted>
-10.6797

> <Gold.Chemscore.Internal_Hbond.Weighted>
0.0000

> <Gold.Chemscore.DEClash.Weighted>
0.0285

> <Gold.Chemscore.DEInternal.Weighted>
4.5984

> <Gold.Chemscore.Rot.Weighted>
4.6427

> <Gold.Chemscore.Internal.Correction.Weighted>
   9.000000E+99

> <Gold.Protein.RotatedTorsions>
[ 6907 6896 6895 6894 ] final  170.94 input  -60.11 | X-H torsion
[ 7974 7965 7964 7962 ] final  169.14 input  175.53 | X-H torsion
[ 8008 7997 7996 7995 ] final    6.62 input   59.86 | X-H torsion
[ 10167 10162 10161 10158 ] final  166.70 input  -65.29 | X-H torsion
[ 10718 10713 10712 10709 ] final -103.90 input   66.30 | X-H torsion
[ 10763 10752 10751 10750 ] final  101.46 input  -60.55 | X-H torsion
[ 11005 11000 10999 10996 ] final  177.36 input  -57.11 | X-H torsion

> <Gold.Protein.ActiveResidues>
 VAL166  LYS551  ARG553  GLY616  TRP617  ASP618  TYR619  PRO620  LYS621  CYS622 
 ASP623  PHE694  ASN695  SER759  ASP760  ASP761  ALA762  ILE779  LEU786  VAL792 
 PHE793  MET794  SER795  GLU796  ALA797  LYS798  CYS799  TRP800  GLU811  SER814 

> <Gold.Protein.RotatedAtoms>
  151.8082  133.3378  159.3546 H   0  0  0  0  0  0  0  0  0  0  0  0  # atno 6907 bound_to 6896
  150.7335  134.5689  159.5890 H   0  0  0  0  0  0  0  0  0  0  0  0  # atno 6908 bound_to 6896
  152.3094  134.7516  160.0391 H   0  0  0  0  0  0  0  0  0  0  0  0  # atno 6909 bound_to 6896
  144.7365  139.9010  143.6409 H   0  0  0  0  0  0  0  0  0  0  0  0  # atno 7974 bound_to 7965
  154.7434  140.2753  155.6354 H   0  0  0  0  0  0  0  0  0  0  0  0  # atno 8008 bound_to 7997
  156.2879  140.2692  156.2093 H   0  0  0  0  0  0  0  0  0  0  0  0  # atno 8009 bound_to 7997
  155.0229  140.0371  157.2434 H   0  0  0  0  0  0  0  0  0  0  0  0  # atno 8010 bound_to 7997
  139.4930  144.3999  151.9421 H   0  0  0  0  0  0  0  0  0  0  0  0  # atno 10167 bound_to 10162
  156.0283  130.5489  150.7319 H   0  0  0  0  0  0  0  0  0  0  0  0  # atno 10718 bound_to 10713
  153.3269  135.4044  155.1463 H   0  0  0  0  0  0  0  0  0  0  0  0  # atno 10763 bound_to 10752
  154.8614  135.3601  154.5522 H   0  0  0  0  0  0  0  0  0  0  0  0  # atno 10764 bound_to 10752
  153.5958  135.7072  153.5463 H   0  0  0  0  0  0  0  0  0  0  0  0  # atno 10765 bound_to 10752
  140.3833  134.6927  157.4464 H   0  0  0  0  0  0  0  0  0  0  0  0  # atno 11005 bound_to 11000
  146.1072  139.4073  143.0310 LP  0  0  0  0  0  0  0  0  0  0  0  0  # atno 17320 bound_to 7965
  145.7495  140.9978  143.1258 LP  0  0  0  0  0  0  0  0  0  0  0  0  # atno 17321 bound_to 7965
  140.3438  144.3171  150.5962 LP  0  0  0  0  0  0  0  0  0  0  0  0  # atno 17342 bound_to 10162
  140.5543  143.2201  151.7874 LP  0  0  0  0  0  0  0  0  0  0  0  0  # atno 17343 bound_to 10162
  157.4909  131.0911  151.0428 LP  0  0  0  0  0  0  0  0  0  0  0  0  # atno 17370 bound_to 10713
  157.0835  130.5913  149.5425 LP  0  0  0  0  0  0  0  0  0  0  0  0  # atno 17371 bound_to 10713
  140.0462  134.6196  155.8918 LP  0  0  0  0  0  0  0  0  0  0  0  0  # atno 17394 bound_to 11000
  141.1916  133.6572  156.5464 LP  0  0  0  0  0  0  0  0  0  0  0  0  # atno 17395 bound_to 11000

$$$$
