AV-unprocessed.smi:50|AV-procd|sdf|494|dock3
  -GOLD-   2262016363D 1   1.00000     0.00000
 Structure written by MMmdl.
 43 44  0  0  0  0  0  0  0  0  1 V2000
  152.7898  142.5537  158.7182 C   0  0  0  0  0  0  0  0  0  0  0  0
  152.4481  141.4077  159.6931 C   0  0  0  0  0  0  0  0  0  0  0  0
  153.7426  140.9453  160.3890 C   0  0  0  0  0  0  0  0  0  0  0  0
  151.6959  140.2151  159.0314 C   0  0  1  0  0  0  0  0  0  0  0  0
  150.5044  140.6890  158.3273 N   0  0  0  0  0  0  0  0  0  0  0  0
  152.5933  139.3969  158.0858 C   0  0  0  0  0  0  0  0  0  0  0  0
  153.8237  139.4674  158.0619 O   0  0  0  0  0  0  0  0  0  0  0  0
  151.8514  138.5846  157.3151 O   0  0  0  0  0  0  0  0  0  0  0  0
  152.4910  137.6596  156.4515 C   0  0  0  0  0  0  0  0  0  0  0  0
  152.9690  138.3809  155.1878 C   0  0  0  0  0  0  0  0  0  0  0  0
  152.0064  139.3573  154.8072 O   0  0  0  0  0  0  0  0  0  0  0  0
  150.7014  138.8917  154.6750 C   0  0  0  0  0  0  0  0  0  0  0  0
  149.7864  140.0185  154.7581 N   0  0  0  0  0  0  0  0  0  0  0  0
  150.0016  141.2416  155.3420 C   0  0  0  0  0  0  0  0  0  0  0  0
  148.9922  142.0609  155.2450 N   0  0  0  0  0  0  0  0  0  0  0  0
  148.0308  141.3347  154.5480 C   0  0  0  0  0  0  0  0  0  0  0  0
  146.7078  141.7101  154.1378 C   0  0  0  0  0  0  0  0  0  0  0  0
  146.1316  142.7816  154.3129 O   0  0  0  0  0  0  0  0  0  0  0  0
  146.0504  140.6737  153.4630 N   0  0  0  0  0  0  0  0  0  0  0  0
  146.6128  139.4246  153.2110 C   0  0  0  0  0  0  0  0  0  0  0  0
  145.8489  138.5396  152.5573 N   0  0  0  0  0  0  0  0  0  0  0  0
  147.8344  139.0833  153.5817 N   0  0  0  0  0  0  0  0  0  0  0  0
  148.5061  140.0726  154.2488 C   0  0  0  0  0  0  0  0  0  0  0  0
  151.3561  139.5521  159.8261 H   0  0  0  0  0  0  0  0  0  0  0  0
  145.1100  140.8595  153.1465 H   0  0  0  0  0  0  0  0  0  0  0  0
  153.3592  142.1875  157.8644 H   0  0  0  0  0  0  0  0  0  0  0  0
  153.3883  143.3221  159.2084 H   0  0  0  0  0  0  0  0  0  0  0  0
  151.8964  143.0497  158.3387 H   0  0  0  0  0  0  0  0  0  0  0  0
  151.8004  141.8286  160.4638 H   0  0  0  0  0  0  0  0  0  0  0  0
  154.4393  140.5053  159.6767 H   0  0  0  0  0  0  0  0  0  0  0  0
  153.5472  140.2033  161.1628 H   0  0  0  0  0  0  0  0  0  0  0  0
  154.2497  141.7811  160.8718 H   0  0  0  0  0  0  0  0  0  0  0  0
  150.7461  141.2246  157.5060 H   0  0  0  0  0  0  0  0  0  0  0  0
  149.9265  139.9215  158.0161 H   0  0  0  0  0  0  0  0  0  0  0  0
  153.3246  137.1642  156.9516 H   0  0  0  0  0  0  0  0  0  0  0  0
  151.7686  136.8894  156.1781 H   0  0  0  0  0  0  0  0  0  0  0  0
  153.8930  138.9154  155.4085 H   0  0  0  0  0  0  0  0  0  0  0  0
  153.2092  137.6649  154.4001 H   0  0  0  0  0  0  0  0  0  0  0  0
  150.5962  138.4502  153.6836 H   0  0  0  0  0  0  0  0  0  0  0  0
  150.4559  138.1279  155.4151 H   0  0  0  0  0  0  0  0  0  0  0  0
  150.9248  141.5052  155.8371 H   0  0  0  0  0  0  0  0  0  0  0  0
  144.9141  138.7974  152.2747 H   0  0  0  0  0  0  0  0  0  0  0  0
  146.2026  137.6174  152.3475 H   0  0  0  0  0  0  0  0  0  0  0  0
  1  2  1  0  0  0  0
  1 26  1  0  0  0  0
  1 27  1  0  0  0  0
  1 28  1  0  0  0  0
  2  3  1  0  0  0  0
  2  4  1  0  0  0  0
  2 29  1  0  0  0  0
  3 30  1  0  0  0  0
  3 31  1  0  0  0  0
  3 32  1  0  0  0  0
  4 24  1  0  0  0  0
  4  5  1  0  0  0  0
  4  6  1  0  0  0  0
  5 33  1  0  0  0  0
  5 34  1  0  0  0  0
  6  7  2  0  0  0  0
  6  8  1  0  0  0  0
  8  9  1  0  0  0  0
  9 10  1  0  0  0  0
  9 35  1  0  0  0  0
  9 36  1  0  0  0  0
 10 11  1  0  0  0  0
 10 37  1  0  0  0  0
 10 38  1  0  0  0  0
 11 12  1  0  0  0  0
 12 13  1  0  0  0  0
 12 39  1  0  0  0  0
 12 40  1  0  0  0  0
 13 23  1  0  0  0  0
 13 14  1  0  0  0  0
 14 15  2  0  0  0  0
 14 41  1  0  0  0  0
 15 16  1  0  0  0  0
 16 23  2  0  0  0  0
 16 17  1  0  0  0  0
 17 18  2  0  0  0  0
 17 19  1  0  0  0  0
 19 25  1  0  0  0  0
 19 20  1  0  0  0  0
 20 21  1  0  0  0  0
 20 22  2  0  0  0  0
 21 42  1  0  0  0  0
 21 43  1  0  0  0  0
 22 23  1  0  0  0  0
M  END
> <s_m_source_file>
AV-unprocessed.smi

> <i_m_source_file_index>
50

> <i_lp_mmshare_version>
43012

> <i_f3d_flags>
0

> <s_epik_input>
W0NIM11bQ0hdKFtDSDNdKVtDQEhdKFtOSDJdKUMoPU8pT1tDSDJdW0NIMl1PW0NIMl1uKFtjSF1uMSljKGMxMiluYyhbTkgyXSlbbkhdYzI9Tw==

> <s_epik_cmdline>
J2VwaWtfcHl0aG9uJywgJy1waCcsICc3LjAnLCAnLXRuJywgJzgnLCAnLW1hJywgJzIwMCcsICctbWV0YWxfYmluZGluZycsICctaW1hZScsICc8aW5maWxlLm1hZT4nLCAnLW9tYWUnLCAnPG91dGZpbGUubWFlPic=

> <r_lp_tautomer_probability>
0.99994

> <r_epik_Ionization_Penalty>
0.704142

> <r_epik_Ionization_Penalty_Charging>
0.00148332

> <r_epik_Ionization_Penalty_Neutral>
0.702658

> <r_epik_State_Penalty>
0.725442

> <r_epik_Charging_Adjusted_Penalty>
0.726926

> <i_epik_Tot_Q>
0

> <i_epik_Tot_abs_Q>
0

> <r_epik_Metal_State_Penalty>
1.04557

> <b_epik_Metal_Only>
0

> <s_epik_Chemistry_Notes>
This compound has an ester and may undergo hydrolysis at high or low pH. This compound contains an acetal/aminal-like group ( X-CH(R)-Y where X, Y are N, S, or O) that may be acid/base labile, releasing an aldehyde.

> <s_lp_Force_Field>
OPLS_2005

> <r_lp_Energy>
2.75991

> <b_lp_Chiralities_Consistent>
1

> <s_lp_Variant>
AV-unprocessed.smi:50-4

> <Gold.Version>
5.8.1

> <Gold.Id.Protein>
6NUR|6NUR_protein|mol2

> <Gold.PLP.Fitness>
44.1828

> <Gold.PLP.PLP>
-36.9070

> <Gold.PLP.part.hbond>
-3.9676

> <Gold.PLP.part.metal>
0.0000

> <Gold.PLP.part.buried>
-6.2440

> <Gold.PLP.part.nonpolar>
-31.8613

> <Gold.PLP.part.repulsive>
4.8775

> <Gold.PLP.ligand.clash>
0.0000

> <Gold.PLP.ligand.torsion>
1.1537

> <Gold.PLP.Chemscore.Hbond>
3.1373

> <Gold.PLP.Chemscore.CHOScore>
0.0000

> <Gold.PLP.Chemscore.Metal>
0.0000

> <Gold.Chemscore.Hbonds>
donor molecule, donor type, donor heavy atom, donor atom, acceptor molecule, acceptor atom, score
      L1  H    19    25       P1 10175  1.00
      L1  H    21    42       P1 10175  0.67
      P1  H  7989  7998       L1    11  0.56
      P1  H  7997  8009       L1     7  0.68

> <Gold.PLP.Chemscore.Internal.Correction>
0.1714

> <Gold.Rescore>
     Score         DG    S(hbond)    S(metal)    S(lipo)     H(rot)  DE(clash)    DE(int)     intcor
      3.09      -7.99       2.58        0.00      51.65       4.75       1.42       3.48       ----

> <Gold.Chemscore.Fitness>
3.0914

> <Gold.Chemscore.DG>
-7.9938

> <Gold.Chemscore.ZeroCoef>
-5.4800

> <Gold.Chemscore.Hbond>
2.5842

> <Gold.Chemscore.Metal>
0.0000

> <Gold.Chemscore.Lipo>
51.6487

> <Gold.Chemscore.Internal_Hbond>
0.0000

> <Gold.Chemscore.DEClash>
1.4204

> <Gold.Chemscore.DEInternal>
3.4820

> <Gold.Chemscore.Rot>
4.7501

> <Gold.Chemscore.Internal.Correction>
   9.000000E+99

> <Gold.Chemscore.Hbonds>
donor molecule, donor type, donor heavy atom, donor atom, acceptor molecule, acceptor atom, score
      L1  H    19    25       P1 10175  0.59
      L1  H    21    42       P1 10175  0.66
      P1  H  7989  7998       L1    11  0.04
      P1  H  7997  8009       L1     7  0.69

> <Gold.Chemscore.Hbond.Weighted>
-8.6312

> <Gold.Chemscore.Metal.Weighted>
-0.0000

> <Gold.Chemscore.Lipo.Weighted>
-6.0429

> <Gold.Chemscore.Internal_Hbond.Weighted>
0.0000

> <Gold.Chemscore.DEClash.Weighted>
1.4204

> <Gold.Chemscore.DEInternal.Weighted>
3.4820

> <Gold.Chemscore.Rot.Weighted>
12.1603

> <Gold.Chemscore.Internal.Correction.Weighted>
   9.000000E+99

> <Gold.Protein.RotatedTorsions>
[ 6907 6896 6895 6894 ] final  -12.26 input  -60.11 | X-H torsion
[ 7974 7965 7964 7962 ] final   71.67 input  175.53 | X-H torsion
[ 8008 7997 7996 7995 ] final  155.11 input   59.86 | X-H torsion
[ 10167 10162 10161 10158 ] final    8.20 input  -65.29 | X-H torsion
[ 10718 10713 10712 10709 ] final  127.47 input   66.30 | X-H torsion
[ 10763 10752 10751 10750 ] final   93.32 input  -60.55 | X-H torsion
[ 11005 11000 10999 10996 ] final   49.08 input  -57.11 | X-H torsion

> <Gold.Protein.ActiveResidues>
 VAL166  LYS551  ARG553  GLY616  TRP617  ASP618  TYR619  PRO620  LYS621  CYS622 
 ASP623  PHE694  ASN695  SER759  ASP760  ASP761  ALA762  ILE779  LEU786  VAL792 
 PHE793  MET794  SER795  GLU796  ALA797  LYS798  CYS799  TRP800  GLU811  SER814 

> <Gold.Protein.RotatedAtoms>
  151.3732  135.0926  159.9472 H   0  0  0  0  0  0  0  0  0  0  0  0  # atno 6907 bound_to 6896
  152.5129  133.9144  159.7514 H   0  0  0  0  0  0  0  0  0  0  0  0  # atno 6908 bound_to 6896
  150.9562  133.6440  159.2792 H   0  0  0  0  0  0  0  0  0  0  0  0  # atno 6909 bound_to 6896
  145.7629  139.2809  143.1365 H   0  0  0  0  0  0  0  0  0  0  0  0  # atno 7974 bound_to 7965
  156.2496  140.1948  156.6750 H   0  0  0  0  0  0  0  0  0  0  0  0  # atno 8008 bound_to 7997
  154.6364  140.0589  156.9820 H   0  0  0  0  0  0  0  0  0  0  0  0  # atno 8009 bound_to 7997
  155.1630  140.3261  155.4410 H   0  0  0  0  0  0  0  0  0  0  0  0  # atno 8010 bound_to 7997
  140.6328  143.7954  150.7318 H   0  0  0  0  0  0  0  0  0  0  0  0  # atno 10167 bound_to 10162
  157.5330  131.1098  150.8979 H   0  0  0  0  0  0  0  0  0  0  0  0  # atno 10718 bound_to 10713
  153.2290  135.4330  155.0574 H   0  0  0  0  0  0  0  0  0  0  0  0  # atno 10763 bound_to 10752
  154.8287  135.3375  154.6816 H   0  0  0  0  0  0  0  0  0  0  0  0  # atno 10764 bound_to 10752
  153.7244  135.7015  153.5061 H   0  0  0  0  0  0  0  0  0  0  0  0  # atno 10765 bound_to 10752
  140.1135  134.4924  155.8657 H   0  0  0  0  0  0  0  0  0  0  0  0  # atno 11005 bound_to 11000
  146.0246  140.8316  142.9906 LP  0  0  0  0  0  0  0  0  0  0  0  0  # atno 17320 bound_to 7965
  144.6827  140.2678  143.7310 LP  0  0  0  0  0  0  0  0  0  0  0  0  # atno 17321 bound_to 7965
  140.1569  143.4309  152.2093 LP  0  0  0  0  0  0  0  0  0  0  0  0  # atno 17342 bound_to 10162
  139.5541  144.7359  151.4347 LP  0  0  0  0  0  0  0  0  0  0  0  0  # atno 17343 bound_to 10162
  156.9554  130.5435  149.5284 LP  0  0  0  0  0  0  0  0  0  0  0  0  # atno 17370 bound_to 10713
  156.0437  130.5516  150.8831 LP  0  0  0  0  0  0  0  0  0  0  0  0  # atno 17371 bound_to 10713
  141.2136  133.6735  156.6750 LP  0  0  0  0  0  0  0  0  0  0  0  0  # atno 17394 bound_to 11000
  140.3060  134.8125  157.4137 LP  0  0  0  0  0  0  0  0  0  0  0  0  # atno 17395 bound_to 11000

$$$$
