AV-unprocessed.smi:438|AV-procd|sdf|2572|dock4
  -GOLD-   2262022553D 1   1.00000     0.00000
 Structure written by MMmdl.
 47 48  0  0  0  0  0  0  0  0  2 V2000
  148.0474  133.6459  158.0105 C   0  0  0  0  0  0  0  0  0  0  0  0
  148.1779  134.9595  158.7598 C   0  0  0  0  0  0  0  0  0  0  0  0
  149.3935  135.6418  158.5840 N   0  0  0  0  0  0  0  0  0  0  0  0
  149.5775  136.7654  159.1655 C   0  0  0  0  0  0  0  0  0  0  0  0
  151.1389  137.6447  158.9546 S   0  0  0  0  0  0  0  0  0  0  0  0
  150.6729  139.2611  158.2607 C   0  0  0  0  0  0  0  0  0  0  0  0
  151.8531  140.2292  158.1831 C   0  0  0  0  0  0  0  0  0  0  0  0
  152.8398  139.9408  157.5057 O   0  0  0  0  0  0  0  0  0  0  0  0
  151.7359  141.3743  158.8739 N   0  0  0  0  0  0  0  0  0  0  0  0
  152.6931  142.4824  158.8736 C   0  0  1  0  0  0  0  0  0  0  0  0
  152.0310  143.7337  158.2620 C   0  0  0  0  0  0  0  0  0  0  0  0
  150.9685  144.3441  159.1922 C   0  0  0  0  0  0  0  0  0  0  0  0
  151.5501  144.6506  160.5791 C   0  0  0  0  0  0  0  0  0  0  0  0
  152.1773  143.3955  161.2055 C   0  0  0  0  0  0  0  0  0  0  0  0
  153.2560  142.7849  160.2881 C   0  0  1  0  0  0  0  0  0  0  0  0
  153.9402  141.5760  160.9487 C   0  0  0  0  0  0  0  0  0  0  0  0
  148.6397  137.3756  159.9654 N   0  5  0  0  0  0  0  0  0  0  0  0
  147.4440  136.7663  160.2052 C   0  0  0  0  0  0  0  0  0  0  0  0
  146.5861  137.2718  160.9282 O   0  0  0  0  0  0  0  0  0  0  0  0
  147.1964  135.4640  159.5612 C   0  0  0  0  0  0  0  0  0  0  0  0
  145.8534  134.7716  159.7987 C   0  0  0  0  0  0  0  0  0  0  0  0
  145.5961  134.4411  161.2790 C   0  0  0  0  0  0  0  0  0  0  0  0
  146.6758  133.7151  161.8281 O   0  0  0  0  0  0  0  0  0  0  0  0
  147.9555  132.8135  158.7081 H   0  0  0  0  0  0  0  0  0  0  0  0
  148.9188  133.4674  157.3814 H   0  0  0  0  0  0  0  0  0  0  0  0
  147.1736  133.6579  157.3594 H   0  0  0  0  0  0  0  0  0  0  0  0
  149.9185  139.7020  158.9123 H   0  0  0  0  0  0  0  0  0  0  0  0
  150.1995  139.1320  157.2864 H   0  0  0  0  0  0  0  0  0  0  0  0
  150.8842  141.5168  159.3972 H   0  0  0  0  0  0  0  0  0  0  0  0
  153.5310  142.2190  158.2258 H   0  0  0  0  0  0  0  0  0  0  0  0
  152.7988  144.4820  158.0616 H   0  0  0  0  0  0  0  0  0  0  0  0
  151.5859  143.4910  157.2957 H   0  0  0  0  0  0  0  0  0  0  0  0
  150.5632  145.2530  158.7469 H   0  0  0  0  0  0  0  0  0  0  0  0
  150.1316  143.6548  159.2999 H   0  0  0  0  0  0  0  0  0  0  0  0
  152.3031  145.4353  160.4956 H   0  0  0  0  0  0  0  0  0  0  0  0
  150.7682  145.0403  161.2314 H   0  0  0  0  0  0  0  0  0  0  0  0
  152.6128  143.6528  162.1718 H   0  0  0  0  0  0  0  0  0  0  0  0
  151.3988  142.6585  161.4067 H   0  0  0  0  0  0  0  0  0  0  0  0
  154.0307  143.5426  160.1607 H   0  0  0  0  0  0  0  0  0  0  0  0
  153.2269  140.7859  161.1840 H   0  0  0  0  0  0  0  0  0  0  0  0
  154.4278  141.8647  161.8800 H   0  0  0  0  0  0  0  0  0  0  0  0
  154.7044  141.1537  160.2953 H   0  0  0  0  0  0  0  0  0  0  0  0
  145.7724  133.8613  159.2063 H   0  0  0  0  0  0  0  0  0  0  0  0
  145.0576  135.4186  159.4282 H   0  0  0  0  0  0  0  0  0  0  0  0
  145.4389  135.3482  161.8628 H   0  0  0  0  0  0  0  0  0  0  0  0
  144.6918  133.8399  161.3753 H   0  0  0  0  0  0  0  0  0  0  0  0
  147.4324  133.8401  161.2761 H   0  0  0  0  0  0  0  0  0  0  0  0
  1 24  1  0  0  0  0
  1 25  1  0  0  0  0
  1 26  1  0  0  0  0
  1  2  1  0  0  0  0
  2 20  2  0  0  0  0
  2  3  1  0  0  0  0
  3  4  2  0  0  0  0
  4  5  1  0  0  0  0
  4 17  1  0  0  0  0
  5  6  1  0  0  0  0
  6  7  1  0  0  0  0
  6 27  1  0  0  0  0
  6 28  1  0  0  0  0
  7  8  2  0  0  0  0
  7  9  1  0  0  0  0
  9 10  1  0  0  0  0
  9 29  1  0  0  0  0
 10 15  1  0  0  0  0
 10 11  1  0  0  0  0
 10 30  1  0  0  0  0
 11 12  1  0  0  0  0
 11 31  1  0  0  0  0
 11 32  1  0  0  0  0
 12 13  1  0  0  0  0
 12 33  1  0  0  0  0
 12 34  1  0  0  0  0
 13 14  1  0  0  0  0
 13 35  1  0  0  0  0
 13 36  1  0  0  0  0
 14 15  1  0  0  0  0
 14 37  1  0  0  0  0
 14 38  1  0  0  0  0
 15 16  1  0  0  0  0
 15 39  1  0  0  0  0
 16 40  1  0  0  0  0
 16 41  1  0  0  0  0
 16 42  1  0  0  0  0
 17 18  1  0  0  0  0
 18 19  2  0  0  0  0
 18 20  1  0  0  0  0
 20 21  1  0  0  0  0
 21 22  1  0  0  0  0
 21 43  1  0  0  0  0
 21 44  1  0  0  0  0
 22 23  1  0  0  0  0
 22 45  1  0  0  0  0
 22 46  1  0  0  0  0
 23 47  1  0  0  0  0
M  CHG  1  17  -1
M  END
> <s_m_source_file>
AV-unprocessed.smi

> <i_m_source_file_index>
438

> <i_lp_mmshare_version>
43012

> <i_f3d_flags>
0

> <s_epik_input>
W09IXVtDSDJdW0NIMl1jMWMoW09IXSluYyhuYzFbQ0gzXSlTW0NIMl1DKD1PKVtOSF1bQ0BASF0yW0NIMl1bQ0gyXVtDSDJdW0NIMl1bQ0BIXTJbQ0gzXQ==

> <s_epik_cmdline>
J2VwaWtfcHl0aG9uJywgJy1waCcsICc3LjAnLCAnLXRuJywgJzgnLCAnLW1hJywgJzIwMCcsICctbWV0YWxfYmluZGluZycsICctaW1hZScsICc8aW5maWxlLm1hZT4nLCAnLW9tYWUnLCAnPG91dGZpbGUubWFlPic=

> <r_lp_tautomer_probability>
1

> <r_epik_Ionization_Penalty>
3.69231

> <r_epik_Ionization_Penalty_Charging>
0.00434774

> <r_epik_Ionization_Penalty_Neutral>
3.68796

> <r_epik_State_Penalty>
2.13826

> <r_epik_Charging_Adjusted_Penalty>
2.14261

> <i_epik_Tot_Q>
-1

> <i_epik_Tot_abs_Q>
1

> <r_epik_Metal_State_Penalty>
0.260979

> <b_epik_Metal_Only>
0

> <s_lp_Force_Field>
OPLS_2005

> <r_lp_Energy>
18.1923

> <b_lp_Chiralities_Consistent>
1

> <s_lp_Variant>
AV-unprocessed.smi:438-10

> <Gold.Version>
5.8.1

> <Gold.Id.Protein>
6NUR|6NUR_protein|mol2

> <Gold.PLP.Fitness>
54.4007

> <Gold.PLP.PLP>
-42.4837

> <Gold.PLP.part.hbond>
-4.9972

> <Gold.PLP.part.metal>
0.0000

> <Gold.PLP.part.buried>
-5.0774

> <Gold.PLP.part.nonpolar>
-33.4364

> <Gold.PLP.part.repulsive>
0.1330

> <Gold.PLP.ligand.clash>
0.0000

> <Gold.PLP.ligand.torsion>
0.0423

> <Gold.PLP.Chemscore.Hbond>
3.9880

> <Gold.PLP.Chemscore.CHOScore>
0.0000

> <Gold.PLP.Chemscore.Metal>
0.0000

> <Gold.Chemscore.Hbonds>
donor molecule, donor type, donor heavy atom, donor atom, acceptor molecule, acceptor atom, score
      P1  H  6896  6908       L1     3  0.85
      P1  H  6931  6943       L1    17  0.66
      P1  H  6934  6947       L1    19  1.00
      P1  H  7997  8008       L1     8  1.00

> <Gold.PLP.Chemscore.Internal.Correction>
0.0376

> <Gold.Rescore>
     Score         DG    S(hbond)    S(metal)    S(lipo)     H(rot)  DE(clash)    DE(int)     intcor
     17.56     -17.83       2.02        0.00     108.90       2.79       0.11       0.16       ----

> <Gold.Chemscore.Fitness>
17.5601

> <Gold.Chemscore.DG>
-17.8257

> <Gold.Chemscore.ZeroCoef>
-5.4800

> <Gold.Chemscore.Hbond>
2.0221

> <Gold.Chemscore.Metal>
0.0000

> <Gold.Chemscore.Lipo>
108.8972

> <Gold.Chemscore.Internal_Hbond>
0.0000

> <Gold.Chemscore.DEClash>
0.1106

> <Gold.Chemscore.DEInternal>
0.1551

> <Gold.Chemscore.Rot>
2.7927

> <Gold.Chemscore.Internal.Correction>
   9.000000E+99

> <Gold.Chemscore.Hbonds>
donor molecule, donor type, donor heavy atom, donor atom, acceptor molecule, acceptor atom, score
      P1  H  6896  6908       L1     3  0.08
      P1  H  6931  6943       L1    17  0.11
      P1  H  6934  6947       L1    19  0.26
      P1  H  7997  8008       L1     8  0.99

> <Gold.Chemscore.Hbond.Weighted>
-6.7540

> <Gold.Chemscore.Metal.Weighted>
-0.0000

> <Gold.Chemscore.Lipo.Weighted>
-12.7410

> <Gold.Chemscore.Internal_Hbond.Weighted>
0.0000

> <Gold.Chemscore.DEClash.Weighted>
0.1106

> <Gold.Chemscore.DEInternal.Weighted>
0.1551

> <Gold.Chemscore.Rot.Weighted>
7.1492

> <Gold.Chemscore.Internal.Correction.Weighted>
   9.000000E+99

> <Gold.Protein.RotatedTorsions>
[ 6907 6896 6895 6894 ] final  173.65 input  -60.11 | X-H torsion
[ 7974 7965 7964 7962 ] final  147.67 input  175.53 | X-H torsion
[ 8008 7997 7996 7995 ] final  -72.48 input   59.86 | X-H torsion
[ 10167 10162 10161 10158 ] final  -10.85 input  -65.29 | X-H torsion
[ 10718 10713 10712 10709 ] final  114.57 input   66.30 | X-H torsion
[ 10763 10752 10751 10750 ] final  -14.34 input  -60.55 | X-H torsion
[ 11005 11000 10999 10996 ] final -111.70 input  -57.11 | X-H torsion

> <Gold.Protein.ActiveResidues>
 VAL166  LYS551  ARG553  GLY616  TRP617  ASP618  TYR619  PRO620  LYS621  CYS622 
 ASP623  PHE694  ASN695  SER759  ASP760  ASP761  ALA762  ILE779  LEU786  VAL792 
 PHE793  MET794  SER795  GLU796  ALA797  LYS798  CYS799  TRP800  GLU811  SER814 

> <Gold.Protein.RotatedAtoms>
  151.7649  133.3336  159.3427 H   0  0  0  0  0  0  0  0  0  0  0  0  # atno 6907 bound_to 6896
  150.7483  134.6072  159.6076 H   0  0  0  0  0  0  0  0  0  0  0  0  # atno 6908 bound_to 6896
  152.3380  134.7174  160.0323 H   0  0  0  0  0  0  0  0  0  0  0  0  # atno 6909 bound_to 6896
  144.8573  139.6058  143.5946 H   0  0  0  0  0  0  0  0  0  0  0  0  # atno 7974 bound_to 7965
  154.5169  140.0796  156.8099 H   0  0  0  0  0  0  0  0  0  0  0  0  # atno 8008 bound_to 7997
  155.3660  140.3420  155.4224 H   0  0  0  0  0  0  0  0  0  0  0  0  # atno 8009 bound_to 7997
  156.1638  140.1597  156.8554 H   0  0  0  0  0  0  0  0  0  0  0  0  # atno 8010 bound_to 7997
  140.7124  143.5704  150.9099 H   0  0  0  0  0  0  0  0  0  0  0  0  # atno 10167 bound_to 10162
  157.6274  131.1000  150.7204 H   0  0  0  0  0  0  0  0  0  0  0  0  # atno 10718 bound_to 10713
  153.5268  135.7015  153.5703 H   0  0  0  0  0  0  0  0  0  0  0  0  # atno 10763 bound_to 10752
  153.3728  135.3940  155.1801 H   0  0  0  0  0  0  0  0  0  0  0  0  # atno 10764 bound_to 10752
  154.8689  135.3816  154.4761 H   0  0  0  0  0  0  0  0  0  0  0  0  # atno 10765 bound_to 10752
  141.0719  133.9366  157.2468 H   0  0  0  0  0  0  0  0  0  0  0  0  # atno 11005 bound_to 11000
  146.2833  139.6936  142.9213 LP  0  0  0  0  0  0  0  0  0  0  0  0  # atno 17320 bound_to 7965
  145.4381  141.0420  143.2873 LP  0  0  0  0  0  0  0  0  0  0  0  0  # atno 17321 bound_to 7965
  139.9430  143.6360  152.3049 LP  0  0  0  0  0  0  0  0  0  0  0  0  # atno 17342 bound_to 10162
  139.6852  144.7652  151.1537 LP  0  0  0  0  0  0  0  0  0  0  0  0  # atno 17343 bound_to 10162
  156.7550  130.4780  149.5448 LP  0  0  0  0  0  0  0  0  0  0  0  0  # atno 17370 bound_to 10713
  156.1454  130.6273  151.0524 LP  0  0  0  0  0  0  0  0  0  0  0  0  # atno 17371 bound_to 10713
  139.9532  135.0171  156.9053 LP  0  0  0  0  0  0  0  0  0  0  0  0  # atno 17394 bound_to 11000
  140.5656  134.0493  155.7413 LP  0  0  0  0  0  0  0  0  0  0  0  0  # atno 17395 bound_to 11000

$$$$
