AV-unprocessed.smi:2323|AV-procd|sdf|9289|dock5
  -GOLD-   2272012513D 1   1.00000     0.00000
 Structure written by MMmdl.
 30 31  0  0  0  0  0  0  0  0  1 V2000
  151.3726  145.5156  159.8025 C   0  0  0  0  0  0  0  0  0  0  0  0
  151.9226  144.1770  159.6556 N   0  0  0  0  0  0  0  0  0  0  0  0
  152.3455  143.4173  160.6776 C   0  0  0  0  0  0  0  0  0  0  0  0
  152.3328  143.7912  161.8508 O   0  0  0  0  0  0  0  0  0  0  0  0
  152.9121  142.0782  160.3011 C   0  0  0  0  0  0  0  0  0  0  0  0
  153.7253  141.3658  161.2092 C   0  0  0  0  0  0  0  0  0  0  0  0
  154.2191  140.1038  160.8281 C   0  0  0  0  0  0  0  0  0  0  0  0
  153.9498  139.5319  159.6364 N   0  0  0  0  0  0  0  0  0  0  0  0
  153.1606  140.2065  158.7645 C   0  0  0  0  0  0  0  0  0  0  0  0
  152.8667  139.6338  157.5428 O   0  0  0  0  0  0  0  0  0  0  0  0
  151.5137  139.6066  157.0833 C   0  0  2  0  0  0  0  0  0  0  0  0
  151.2552  138.3825  156.2135 C   0  0  0  0  0  0  0  0  0  0  0  0
  151.6403  138.8760  154.8269 C   0  0  0  0  0  0  0  0  0  0  0  0
  151.1325  140.1988  154.8125 O   0  0  0  0  0  0  0  0  0  0  0  0
  151.3221  140.7734  156.1021 C   0  0  0  0  0  0  0  0  0  0  0  0
  152.6193  141.4751  159.0560 C   0  0  0  0  0  0  0  0  0  0  0  0
  151.1214  145.9239  158.8237 H   0  0  0  0  0  0  0  0  0  0  0  0
  152.0943  146.1830  160.2753 H   0  0  0  0  0  0  0  0  0  0  0  0
  150.4655  145.4976  160.4078 H   0  0  0  0  0  0  0  0  0  0  0  0
  151.9886  143.8019  158.7203 H   0  0  0  0  0  0  0  0  0  0  0  0
  153.9717  141.7735  162.1791 H   0  0  0  0  0  0  0  0  0  0  0  0
  154.8464  139.5370  161.5000 H   0  0  0  0  0  0  0  0  0  0  0  0
  150.8055  139.6872  157.9097 H   0  0  0  0  0  0  0  0  0  0  0  0
  151.8117  137.4957  156.5177 H   0  0  0  0  0  0  0  0  0  0  0  0
  150.1930  138.1353  156.2312 H   0  0  0  0  0  0  0  0  0  0  0  0
  152.7247  138.8972  154.7068 H   0  0  0  0  0  0  0  0  0  0  0  0
  151.2133  138.2705  154.0272 H   0  0  0  0  0  0  0  0  0  0  0  0
  150.4510  141.3767  156.3597 H   0  0  0  0  0  0  0  0  0  0  0  0
  152.1910  141.4331  156.0896 H   0  0  0  0  0  0  0  0  0  0  0  0
  151.9873  141.9646  158.3294 H   0  0  0  0  0  0  0  0  0  0  0  0
  1  2  1  0  0  0  0
  1 17  1  0  0  0  0
  1 18  1  0  0  0  0
  1 19  1  0  0  0  0
  2  3  1  0  0  0  0
  2 20  1  0  0  0  0
  3  4  2  0  0  0  0
  3  5  1  0  0  0  0
  5 16  1  0  0  0  0
  5  6  2  0  0  0  0
  6  7  1  0  0  0  0
  6 21  1  0  0  0  0
  7  8  2  0  0  0  0
  7 22  1  0  0  0  0
  8  9  1  0  0  0  0
  9 10  1  0  0  0  0
  9 16  2  0  0  0  0
 10 11  1  0  0  0  0
 11 15  1  0  0  0  0
 11 12  1  0  0  0  0
 11 23  1  0  0  0  0
 12 13  1  0  0  0  0
 12 24  1  0  0  0  0
 12 25  1  0  0  0  0
 13 14  1  0  0  0  0
 13 26  1  0  0  0  0
 13 27  1  0  0  0  0
 14 15  1  0  0  0  0
 15 28  1  0  0  0  0
 15 29  1  0  0  0  0
 16 30  1  0  0  0  0
M  END
> <s_m_source_file>
AV-unprocessed.smi

> <i_m_source_file_index>
2323

> <i_lp_mmshare_version>
43012

> <i_f3d_flags>
0

> <s_epik_input>
W0NIM11bTkhdQyg9TyljMVtjSF1bY0hdbmMoW2NIXTEpT1tDQEBIXTJbQ0gyXVtDSDJdT1tDSDJdMg==

> <s_epik_cmdline>
J2VwaWtfcHl0aG9uJywgJy1waCcsICc3LjAnLCAnLXRuJywgJzgnLCAnLW1hJywgJzIwMCcsICctbWV0YWxfYmluZGluZycsICctaW1hZScsICc8aW5maWxlLm1hZT4nLCAnLW9tYWUnLCAnPG91dGZpbGUubWFlPic=

> <r_lp_tautomer_probability>
1

> <r_epik_Ionization_Penalty>
2.2633e-06

> <r_epik_Ionization_Penalty_Charging>
0

> <r_epik_Ionization_Penalty_Neutral>
2.2633e-06

> <r_epik_State_Penalty>
-0

> <r_epik_Charging_Adjusted_Penalty>
0

> <i_epik_Tot_Q>
0

> <i_epik_Tot_abs_Q>
0

> <r_epik_Metal_State_Penalty>
-0

> <b_epik_Metal_Only>
0

> <s_lp_Force_Field>
OPLS_2005

> <r_lp_Energy>
16.8838

> <b_lp_Chiralities_Consistent>
1

> <s_lp_Variant>
AV-unprocessed.smi:2323-1

> <Gold.Version>
5.8.1

> <Gold.Id.Protein>
6NUR|6NUR_protein|mol2

> <Gold.PLP.Fitness>
38.4919

> <Gold.PLP.PLP>
-33.9446

> <Gold.PLP.part.hbond>
-2.0000

> <Gold.PLP.part.metal>
0.0000

> <Gold.PLP.part.buried>
-5.3356

> <Gold.PLP.part.nonpolar>
-26.7164

> <Gold.PLP.part.repulsive>
0.2895

> <Gold.PLP.ligand.clash>
0.0000

> <Gold.PLP.ligand.torsion>
0.7359

> <Gold.PLP.Chemscore.Hbond>
2.0000

> <Gold.PLP.Chemscore.CHOScore>
0.0000

> <Gold.PLP.Chemscore.Metal>
0.0000

> <Gold.Chemscore.Hbonds>
donor molecule, donor type, donor heavy atom, donor atom, acceptor molecule, acceptor atom, score
      P1  H  7989  7998       L1    14  1.00
      P1  H  7997  8008       L1    10  1.00

> <Gold.PLP.Chemscore.Internal.Correction>
0.0191

> <Gold.Rescore>
     Score         DG    S(hbond)    S(metal)    S(lipo)     H(rot)  DE(clash)    DE(int)     intcor
     15.61     -16.37       1.61        0.00      74.44       1.24       0.02       0.74       ----

> <Gold.Chemscore.Fitness>
15.6069

> <Gold.Chemscore.DG>
-16.3707

> <Gold.Chemscore.ZeroCoef>
-5.4800

> <Gold.Chemscore.Hbond>
1.6072

> <Gold.Chemscore.Metal>
0.0000

> <Gold.Chemscore.Lipo>
74.4378

> <Gold.Chemscore.Internal_Hbond>
0.0000

> <Gold.Chemscore.DEClash>
0.0217

> <Gold.Chemscore.DEInternal>
0.7421

> <Gold.Chemscore.Rot>
1.2448

> <Gold.Chemscore.Internal.Correction>
   9.000000E+99

> <Gold.Chemscore.Hbonds>
donor molecule, donor type, donor heavy atom, donor atom, acceptor molecule, acceptor atom, score
      P1  H  7989  7998       L1    14  0.57
      P1  H  7997  8008       L1    10  0.33

> <Gold.Chemscore.Hbond.Weighted>
-5.3680

> <Gold.Chemscore.Metal.Weighted>
-0.0000

> <Gold.Chemscore.Lipo.Weighted>
-8.7092

> <Gold.Chemscore.Internal_Hbond.Weighted>
0.0000

> <Gold.Chemscore.DEClash.Weighted>
0.0217

> <Gold.Chemscore.DEInternal.Weighted>
0.7421

> <Gold.Chemscore.Rot.Weighted>
3.1866

> <Gold.Chemscore.Internal.Correction.Weighted>
   9.000000E+99

> <Gold.Protein.RotatedTorsions>
[ 6907 6896 6895 6894 ] final  -58.70 input  -60.11 | X-H torsion
[ 7974 7965 7964 7962 ] final  -49.99 input  175.53 | X-H torsion
[ 8008 7997 7996 7995 ] final  -52.04 input   59.86 | X-H torsion
[ 10167 10162 10161 10158 ] final  108.69 input  -65.29 | X-H torsion
[ 10718 10713 10712 10709 ] final  141.69 input   66.30 | X-H torsion
[ 10763 10752 10751 10750 ] final  117.33 input  -60.55 | X-H torsion
[ 11005 11000 10999 10996 ] final   51.94 input  -57.11 | X-H torsion

> <Gold.Protein.ActiveResidues>
 VAL166  LYS551  ARG553  GLY616  TRP617  ASP618  TYR619  PRO620  LYS621  CYS622 
 ASP623  PHE694  ASN695  SER759  ASP760  ASP761  ALA762  ILE779  LEU786  VAL792 
 PHE793  MET794  SER795  GLU796  ALA797  LYS798  CYS799  TRP800  GLU811  SER814 

> <Gold.Protein.RotatedAtoms>
  150.7986  134.7064  159.6578 H   0  0  0  0  0  0  0  0  0  0  0  0  # atno 6907 bound_to 6896
  152.4101  134.6136  160.0042 H   0  0  0  0  0  0  0  0  0  0  0  0  # atno 6908 bound_to 6896
  151.6381  133.3290  159.3160 H   0  0  0  0  0  0  0  0  0  0  0  0  # atno 6909 bound_to 6896
  145.9347  140.7717  142.9582 H   0  0  0  0  0  0  0  0  0  0  0  0  # atno 7974 bound_to 7965
  154.4097  140.1233  156.4926 H   0  0  0  0  0  0  0  0  0  0  0  0  # atno 8008 bound_to 7997
  155.6975  140.3495  155.4899 H   0  0  0  0  0  0  0  0  0  0  0  0  # atno 8009 bound_to 7997
  155.9415  140.1088  157.1042 H   0  0  0  0  0  0  0  0  0  0  0  0  # atno 8010 bound_to 7997
  139.6826  144.7116  151.1488 H   0  0  0  0  0  0  0  0  0  0  0  0  # atno 10167 bound_to 10162
  157.3891  131.1002  151.0664 H   0  0  0  0  0  0  0  0  0  0  0  0  # atno 10718 bound_to 10713
  153.5508  135.3540  155.2758 H   0  0  0  0  0  0  0  0  0  0  0  0  # atno 10763 bound_to 10752
  154.8707  135.4113  154.2939 H   0  0  0  0  0  0  0  0  0  0  0  0  # atno 10764 bound_to 10752
  153.3665  135.7062  153.6739 H   0  0  0  0  0  0  0  0  0  0  0  0  # atno 10765 bound_to 10752
  140.0890  134.5235  155.8870 H   0  0  0  0  0  0  0  0  0  0  0  0  # atno 11005 bound_to 11000
  144.6770  140.2183  143.7369 LP  0  0  0  0  0  0  0  0  0  0  0  0  # atno 17320 bound_to 7965
  145.8380  139.2116  143.1844 LP  0  0  0  0  0  0  0  0  0  0  0  0  # atno 17321 bound_to 7965
  140.7657  143.5676  150.9030 LP  0  0  0  0  0  0  0  0  0  0  0  0  # atno 17342 bound_to 10162
  139.9349  143.6449  152.3067 LP  0  0  0  0  0  0  0  0  0  0  0  0  # atno 17343 bound_to 10162
  157.1705  130.6265  149.5639 LP  0  0  0  0  0  0  0  0  0  0  0  0  # atno 17370 bound_to 10713
  155.9794  130.4787  150.6712 LP  0  0  0  0  0  0  0  0  0  0  0  0  # atno 17371 bound_to 10713
  141.2072  133.6662  156.6289 LP  0  0  0  0  0  0  0  0  0  0  0  0  # atno 17394 bound_to 11000
  140.3379  134.7874  157.4375 LP  0  0  0  0  0  0  0  0  0  0  0  0  # atno 17395 bound_to 11000

$$$$
