AV-unprocessed.smi:148|AV-procd|sdf|1225|dock8
  -GOLD-   2262018423D 1   1.00000     0.00000
 Structure written by MMmdl.
 63 67  0  0  0  0  0  0  0  0  1 V2000
  148.2586  142.3573  154.5893 O   0  0  0  0  0  0  0  0  0  0  0  0
  149.0449  141.3137  154.0496 C   0  0  0  0  0  0  0  0  0  0  0  0
  149.4751  140.3014  155.1366 C   0  0  1  0  0  0  0  0  0  0  0  0
  149.3881  138.8648  154.5566 C   0  0  0  0  0  0  0  0  0  0  0  0
  148.0389  138.3461  154.4216 N   0  0  0  0  0  0  0  0  0  0  0  0
  146.9812  138.9601  153.7875 C   0  0  0  0  0  0  0  0  0  0  0  0
  145.8607  138.2906  153.7975 N   0  0  0  0  0  0  0  0  0  0  0  0
  146.1661  137.1393  154.5111 C   0  0  0  0  0  0  0  0  0  0  0  0
  145.4229  135.9952  154.9008 C   0  0  0  0  0  0  0  0  0  0  0  0
  144.1238  135.8404  154.5649 N   0  0  0  0  0  0  0  0  0  0  0  0
  143.3704  137.0454  154.9192 C   0  0  0  0  0  0  0  0  0  0  0  0
  141.8604  136.8045  154.8371 C   0  0  0  0  0  0  0  0  0  0  0  0
  141.4924  136.3022  153.4405 C   0  0  0  0  0  0  0  0  0  0  0  0
  142.3046  135.0438  153.1087 C   0  0  0  0  0  0  0  0  0  0  0  0
  143.8370  135.2651  153.2342 C   0  0  2  0  0  0  0  0  0  0  0  0
  144.6060  133.9283  152.9430 C   0  0  1  0  0  0  0  0  0  0  0  0
  144.1784  133.1913  151.6591 C   0  0  0  0  0  0  0  0  0  0  0  0
  145.3013  132.2005  151.3321 C   0  0  0  0  0  0  0  0  0  0  0  0
  146.5262  132.6656  152.1269 C   0  0  0  0  0  0  0  0  0  0  0  0
  146.1392  134.0066  152.7591 C   0  0  1  0  0  0  0  0  0  0  0  0
  146.4978  135.0484  151.8705 O   0  0  0  0  0  0  0  0  0  0  0  0
  146.0594  135.0344  155.6218 N   0  0  0  0  0  0  0  0  0  0  0  0
  147.3450  135.1927  155.9514 C   0  0  0  0  0  0  0  0  0  0  0  0
  148.1637  136.2065  155.6593 N   0  0  0  0  0  0  0  0  0  0  0  0
  147.5259  137.1644  154.9268 C   0  0  0  0  0  0  0  0  0  0  0  0
  150.8486  140.6593  155.7787 C   0  0  1  0  0  0  0  0  0  0  0  0
  150.8219  140.8103  157.2920 C   0  0  0  0  0  0  0  0  0  0  0  0
  152.2949  140.6966  157.6553 C   0  0  0  0  0  0  0  0  0  0  0  0
  152.8088  139.7179  156.7651 O   0  0  0  0  0  0  0  0  0  0  0  0
  151.9549  139.6011  155.6308 C   0  0  0  0  0  0  0  0  0  0  0  0
  148.8358  143.0210  154.9354 H   0  0  0  0  0  0  0  0  0  0  0  0
  148.4825  140.8237  153.2551 H   0  0  0  0  0  0  0  0  0  0  0  0
  149.9218  141.7519  153.5720 H   0  0  0  0  0  0  0  0  0  0  0  0
  148.7242  140.3808  155.9234 H   0  0  0  0  0  0  0  0  0  0  0  0
  149.8458  138.8349  153.5671 H   0  0  0  0  0  0  0  0  0  0  0  0
  149.9600  138.1743  155.1777 H   0  0  0  0  0  0  0  0  0  0  0  0
  147.0711  139.9203  153.3006 H   0  0  0  0  0  0  0  0  0  0  0  0
  143.6310  137.3657  155.9296 H   0  0  0  0  0  0  0  0  0  0  0  0
  143.6465  137.8594  154.2466 H   0  0  0  0  0  0  0  0  0  0  0  0
  141.5610  136.0719  155.5878 H   0  0  0  0  0  0  0  0  0  0  0  0
  141.3200  137.7241  155.0624 H   0  0  0  0  0  0  0  0  0  0  0  0
  140.4249  136.0872  153.3864 H   0  0  0  0  0  0  0  0  0  0  0  0
  141.6953  137.0784  152.7014 H   0  0  0  0  0  0  0  0  0  0  0  0
  141.9974  134.2345  153.7727 H   0  0  0  0  0  0  0  0  0  0  0  0
  142.0374  134.7342  152.0988 H   0  0  0  0  0  0  0  0  0  0  0  0
  144.1177  136.0070  152.4857 H   0  0  0  0  0  0  0  0  0  0  0  0
  144.4077  133.2455  153.7714 H   0  0  0  0  0  0  0  0  0  0  0  0
  143.2191  132.6844  151.7678 H   0  0  0  0  0  0  0  0  0  0  0  0
  144.0819  133.9029  150.8376 H   0  0  0  0  0  0  0  0  0  0  0  0
  145.0234  131.1886  151.6290 H   0  0  0  0  0  0  0  0  0  0  0  0
  145.5023  132.1829  150.2604 H   0  0  0  0  0  0  0  0  0  0  0  0
  146.7316  131.9424  152.9174 H   0  0  0  0  0  0  0  0  0  0  0  0
  147.4256  132.7304  151.5128 H   0  0  0  0  0  0  0  0  0  0  0  0
  146.6802  134.1422  153.6931 H   0  0  0  0  0  0  0  0  0  0  0  0
  147.4400  135.1209  151.8602 H   0  0  0  0  0  0  0  0  0  0  0  0
  147.7796  134.3930  156.5323 H   0  0  0  0  0  0  0  0  0  0  0  0
  151.2094  141.5978  155.3547 H   0  0  0  0  0  0  0  0  0  0  0  0
  150.3872  141.7535  157.6239 H   0  0  0  0  0  0  0  0  0  0  0  0
  150.2613  139.9933  157.7488 H   0  0  0  0  0  0  0  0  0  0  0  0
  152.8069  141.6427  157.4751 H   0  0  0  0  0  0  0  0  0  0  0  0
  152.4524  140.4144  158.6964 H   0  0  0  0  0  0  0  0  0  0  0  0
  151.5392  138.5929  155.6265 H   0  0  0  0  0  0  0  0  0  0  0  0
  152.5337  139.7322  154.7177 H   0  0  0  0  0  0  0  0  0  0  0  0
  1  2  1  0  0  0  0
  1 31  1  0  0  0  0
  2  3  1  0  0  0  0
  2 32  1  0  0  0  0
  2 33  1  0  0  0  0
  3  4  1  0  0  0  0
  3 26  1  0  0  0  0
  3 34  1  0  0  0  0
  4  5  1  0  0  0  0
  4 35  1  0  0  0  0
  4 36  1  0  0  0  0
  5 25  1  0  0  0  0
  5  6  1  0  0  0  0
  6  7  2  0  0  0  0
  6 37  1  0  0  0  0
  7  8  1  0  0  0  0
  8 25  2  0  0  0  0
  8  9  1  0  0  0  0
  9 10  1  0  0  0  0
  9 22  2  0  0  0  0
 10 15  1  0  0  0  0
 10 11  1  0  0  0  0
 11 12  1  0  0  0  0
 11 38  1  0  0  0  0
 11 39  1  0  0  0  0
 12 13  1  0  0  0  0
 12 40  1  0  0  0  0
 12 41  1  0  0  0  0
 13 14  1  0  0  0  0
 13 42  1  0  0  0  0
 13 43  1  0  0  0  0
 14 15  1  0  0  0  0
 14 44  1  0  0  0  0
 14 45  1  0  0  0  0
 15 16  1  0  0  0  0
 15 46  1  0  0  0  0
 16 20  1  0  0  0  0
 16 17  1  0  0  0  0
 16 47  1  0  0  0  0
 17 18  1  0  0  0  0
 17 48  1  0  0  0  0
 17 49  1  0  0  0  0
 18 19  1  0  0  0  0
 18 50  1  0  0  0  0
 18 51  1  0  0  0  0
 19 20  1  0  0  0  0
 19 52  1  0  0  0  0
 19 53  1  0  0  0  0
 20 21  1  0  0  0  0
 20 54  1  0  0  0  0
 21 55  1  0  0  0  0
 22 23  1  0  0  0  0
 23 24  2  0  0  0  0
 23 56  1  0  0  0  0
 24 25  1  0  0  0  0
 26 30  1  0  0  0  0
 26 27  1  0  0  0  0
 26 57  1  0  0  0  0
 27 28  1  0  0  0  0
 27 58  1  0  0  0  0
 27 59  1  0  0  0  0
 28 29  1  0  0  0  0
 28 60  1  0  0  0  0
 28 61  1  0  0  0  0
 29 30  1  0  0  0  0
 30 62  1  0  0  0  0
 30 63  1  0  0  0  0
M  END
> <s_m_source_file>
AV-unprocessed.smi

> <i_m_source_file_index>
148

> <i_lp_mmshare_version>
43012

> <i_f3d_flags>
0

> <s_epik_input>
W0NIMl0xT1tDSDJdW0NIMl1bQ0BIXTFbQ0BIXShbQ0gyXVtPSF0pW0NIMl1uKFtjSF1uMiljKGMyMyluW2NIXW5jM040W0NIMl1bQ0gyXVtDSDJdW0NIMl1bQ0BIXTRbQ0BASF01W0NIMl1bQ0gyXVtDSDJdW0NASF01W09IXQ==

> <s_epik_cmdline>
J2VwaWtfcHl0aG9uJywgJy1waCcsICc3LjAnLCAnLXRuJywgJzgnLCAnLW1hJywgJzIwMCcsICctbWV0YWxfYmluZGluZycsICctaW1hZScsICc8aW5maWxlLm1hZT4nLCAnLW9tYWUnLCAnPG91dGZpbGUubWFlPic=

> <r_lp_tautomer_probability>
1

> <r_epik_Ionization_Penalty>
0.00556303

> <r_epik_Ionization_Penalty_Charging>
0

> <r_epik_Ionization_Penalty_Neutral>
0.00556303

> <r_epik_State_Penalty>
0.00401767

> <r_epik_Charging_Adjusted_Penalty>
0.00401767

> <i_epik_Tot_Q>
0

> <i_epik_Tot_abs_Q>
0

> <r_epik_Metal_State_Penalty>
-0

> <b_epik_Metal_Only>
0

> <s_lp_Force_Field>
OPLS_2005

> <r_lp_Energy>
70.5137

> <b_lp_Chiralities_Consistent>
1

> <s_lp_Variant>
AV-unprocessed.smi:148-24

> <Gold.Version>
5.8.1

> <Gold.Id.Protein>
6NUR|6NUR_protein|mol2

> <Gold.PLP.Fitness>
44.0118

> <Gold.PLP.PLP>
-39.8590

> <Gold.PLP.part.hbond>
-3.0000

> <Gold.PLP.part.metal>
0.0000

> <Gold.PLP.part.buried>
-5.9210

> <Gold.PLP.part.nonpolar>
-31.1452

> <Gold.PLP.part.repulsive>
0.3284

> <Gold.PLP.ligand.clash>
0.0000

> <Gold.PLP.ligand.torsion>
2.6946

> <Gold.PLP.Chemscore.Hbond>
2.9920

> <Gold.PLP.Chemscore.CHOScore>
0.0000

> <Gold.PLP.Chemscore.Metal>
0.0000

> <Gold.Chemscore.Hbonds>
donor molecule, donor type, donor heavy atom, donor atom, acceptor molecule, acceptor atom, score
      L1  H     1    31       P1  8028  0.86
      L1  H    21    55       P1  7948  0.99
      P1  H  7997  8008       L1    29  1.00

> <Gold.PLP.Chemscore.Internal.Correction>
0.5659

> <Gold.Rescore>
     Score         DG    S(hbond)    S(metal)    S(lipo)     H(rot)  DE(clash)    DE(int)     intcor
     13.54     -16.87       2.58        0.00      96.23       3.32       0.10       3.22       ----

> <Gold.Chemscore.Fitness>
13.5445

> <Gold.Chemscore.DG>
-16.8657

> <Gold.Chemscore.ZeroCoef>
-5.4800

> <Gold.Chemscore.Hbond>
2.5830

> <Gold.Chemscore.Metal>
0.0000

> <Gold.Chemscore.Lipo>
96.2267

> <Gold.Chemscore.Internal_Hbond>
0.0000

> <Gold.Chemscore.DEClash>
0.1005

> <Gold.Chemscore.DEInternal>
3.2207

> <Gold.Chemscore.Rot>
3.3203

> <Gold.Chemscore.Internal.Correction>
   9.000000E+99

> <Gold.Chemscore.Hbonds>
donor molecule, donor type, donor heavy atom, donor atom, acceptor molecule, acceptor atom, score
      L1  H     1    31       P1  8028  0.85
      L1  H    21    55       P1  7948  0.87
      P1  H  7997  8008       L1    29  0.48

> <Gold.Chemscore.Hbond.Weighted>
-8.6272

> <Gold.Chemscore.Metal.Weighted>
-0.0000

> <Gold.Chemscore.Lipo.Weighted>
-11.2585

> <Gold.Chemscore.Internal_Hbond.Weighted>
0.0000

> <Gold.Chemscore.DEClash.Weighted>
0.1005

> <Gold.Chemscore.DEInternal.Weighted>
3.2207

> <Gold.Chemscore.Rot.Weighted>
8.5000

> <Gold.Chemscore.Internal.Correction.Weighted>
   9.000000E+99

> <Gold.Protein.RotatedTorsions>
[ 6907 6896 6895 6894 ] final   66.04 input  -60.11 | X-H torsion
[ 7974 7965 7964 7962 ] final -151.09 input  175.53 | X-H torsion
[ 8008 7997 7996 7995 ] final  -56.00 input   59.86 | X-H torsion
[ 10167 10162 10161 10158 ] final  156.61 input  -65.29 | X-H torsion
[ 10718 10713 10712 10709 ] final  -16.87 input   66.30 | X-H torsion
[ 10763 10752 10751 10750 ] final -142.59 input  -60.55 | X-H torsion
[ 11005 11000 10999 10996 ] final  170.44 input  -57.11 | X-H torsion

> <Gold.Protein.ActiveResidues>
 VAL166  LYS551  ARG553  GLY616  TRP617  ASP618  TYR619  PRO620  LYS621  CYS622 
 ASP623  PHE694  ASN695  SER759  ASP760  ASP761  ALA762  ILE779  LEU786  VAL792 
 PHE793  MET794  SER795  GLU796  ALA797  LYS798  CYS799  TRP800  GLU811  SER814 

> <Gold.Protein.RotatedAtoms>
  152.4452  134.5510  159.9866 H   0  0  0  0  0  0  0  0  0  0  0  0  # atno 6907 bound_to 6896
  151.5597  133.3399  159.2976 H   0  0  0  0  0  0  0  0  0  0  0  0  # atno 6908 bound_to 6896
  150.8366  134.7675  159.6962 H   0  0  0  0  0  0  0  0  0  0  0  0  # atno 6909 bound_to 6896
  144.7869  140.4844  143.5799 H   0  0  0  0  0  0  0  0  0  0  0  0  # atno 7974 bound_to 7965
  154.4214  140.1140  156.5568 H   0  0  0  0  0  0  0  0  0  0  0  0  # atno 8008 bound_to 7997
  155.6353  140.3496  155.4677 H   0  0  0  0  0  0  0  0  0  0  0  0  # atno 8009 bound_to 7997
  155.9915  140.1180  157.0623 H   0  0  0  0  0  0  0  0  0  0  0  0  # atno 8010 bound_to 7997
  139.4821  144.4993  151.8193 H   0  0  0  0  0  0  0  0  0  0  0  0  # atno 10167 bound_to 10162
  156.5816  130.4775  149.6318 H   0  0  0  0  0  0  0  0  0  0  0  0  # atno 10718 bound_to 10713
  154.8503  135.3491  154.6053 H   0  0  0  0  0  0  0  0  0  0  0  0  # atno 10763 bound_to 10752
  153.6662  135.6987  153.5166 H   0  0  0  0  0  0  0  0  0  0  0  0  # atno 10764 bound_to 10752
  153.2779  135.4273  155.1007 H   0  0  0  0  0  0  0  0  0  0  0  0  # atno 10765 bound_to 10752
  140.3084  134.7537  157.3972 H   0  0  0  0  0  0  0  0  0  0  0  0  # atno 11005 bound_to 11000
  145.5896  139.1494  143.3189 LP  0  0  0  0  0  0  0  0  0  0  0  0  # atno 17320 bound_to 7965
  146.2105  140.6023  142.9061 LP  0  0  0  0  0  0  0  0  0  0  0  0  # atno 17321 bound_to 7965
  140.4484  144.1889  150.5895 LP  0  0  0  0  0  0  0  0  0  0  0  0  # atno 17342 bound_to 10162
  140.4610  143.2449  151.9219 LP  0  0  0  0  0  0  0  0  0  0  0  0  # atno 17343 bound_to 10162
  156.2627  130.6971  151.1745 LP  0  0  0  0  0  0  0  0  0  0  0  0  # atno 17370 bound_to 10713
  157.7325  131.0599  150.5624 LP  0  0  0  0  0  0  0  0  0  0  0  0  # atno 17371 bound_to 10713
  140.1047  134.5426  155.8321 LP  0  0  0  0  0  0  0  0  0  0  0  0  # atno 17394 bound_to 11000
  141.2113  133.6705  156.6575 LP  0  0  0  0  0  0  0  0  0  0  0  0  # atno 17395 bound_to 11000

$$$$
