AV-unprocessed.smi:92|AV-procd|sdf|848|dock9
  -GOLD-   2262017283D 1   1.00000     0.00000
 Structure written by MMmdl.
 61 64  0  0  0  0  0  0  0  0  2 V2000
  151.3647  144.4401  159.2679 C   0  0  0  0  0  0  0  0  0  0  0  0
  152.3296  143.7157  158.3182 C   0  0  0  0  0  0  0  0  0  0  0  0
  151.8809  142.3377  157.9952 N   0  3  1  0  0  0  0  0  0  0  0  0
  151.8241  141.4698  159.1994 C   0  0  0  0  0  0  0  0  0  0  0  0
  151.5039  140.0150  158.8221 C   0  0  0  0  0  0  0  0  0  0  0  0
  150.1932  139.9346  158.0159 C   0  0  2  0  0  0  0  0  0  0  0  0
  149.7612  138.5564  157.7329 N   0  0  0  0  0  0  0  0  0  0  0  0
  150.6642  137.5840  157.1131 C   0  0  0  0  0  0  0  0  0  0  0  0
  148.4352  138.3934  157.4790 C   0  0  0  0  0  0  0  0  0  0  0  0
  147.5254  138.9907  158.2944 N   0  0  0  0  0  0  0  0  0  0  0  0
  146.2170  138.8247  158.0843 C   0  0  0  0  0  0  0  0  0  0  0  0
  145.6102  138.1149  157.1328 N   0  0  0  0  0  0  0  0  0  0  0  0
  146.5130  137.5172  156.3036 C   0  0  0  0  0  0  0  0  0  0  0  0
  147.9315  137.6048  156.4042 C   0  0  0  0  0  0  0  0  0  0  0  0
  148.5206  136.8770  155.3771 N   0  0  0  0  0  0  0  0  0  0  0  0
  147.5120  136.3805  154.7153 C   0  0  0  0  0  0  0  0  0  0  0  0
  146.2678  136.7111  155.2028 N   0  0  0  0  0  0  0  0  0  0  0  0
  145.0027  136.2985  154.6603 C   0  0  0  0  0  0  0  0  0  0  0  0
  144.6220  134.8186  154.5636 C   0  0  0  0  0  0  0  0  0  0  0  0
  143.8320  135.1177  153.2676 C   0  0  0  0  0  0  0  0  0  0  0  0
  143.9540  134.0797  152.1341 C   0  0  0  0  0  0  0  0  0  0  0  0
  143.5805  134.6035  150.8751 O   0  0  0  0  0  0  0  0  0  0  0  0
  142.3298  135.3696  153.4957 C   0  0  0  0  0  0  0  0  0  0  0  0
  141.6954  134.2495  154.0795 O   0  0  0  0  0  0  0  0  0  0  0  0
  144.7081  136.3887  153.1604 C   0  0  0  0  0  0  0  0  0  0  0  0
  150.2449  140.8714  156.7787 C   0  0  2  0  0  0  0  0  0  0  0  0
  151.1679  140.4077  155.6358 C   0  0  0  0  0  0  0  0  0  0  0  0
  150.6019  142.3017  157.2350 C   0  0  0  0  0  0  0  0  0  0  0  0
  151.6759  145.4748  159.4132 H   0  0  0  0  0  0  0  0  0  0  0  0
  151.3285  143.9747  160.2523 H   0  0  0  0  0  0  0  0  0  0  0  0
  150.3518  144.4543  158.8644 H   0  0  0  0  0  0  0  0  0  0  0  0
  152.3883  144.3001  157.3991 H   0  0  0  0  0  0  0  0  0  0  0  0
  153.3380  143.6940  158.7341 H   0  0  0  0  0  0  0  0  0  0  0  0
  152.7807  141.4985  159.7224 H   0  0  0  0  0  0  0  0  0  0  0  0
  151.0733  141.8546  159.8916 H   0  0  0  0  0  0  0  0  0  0  0  0
  152.3373  139.6046  158.2512 H   0  0  0  0  0  0  0  0  0  0  0  0
  151.4225  139.4142  159.7287 H   0  0  0  0  0  0  0  0  0  0  0  0
  149.4428  140.3589  158.6802 H   0  0  0  0  0  0  0  0  0  0  0  0
  150.2453  136.5788  157.1794 H   0  0  0  0  0  0  0  0  0  0  0  0
  151.6253  137.5545  157.6244 H   0  0  0  0  0  0  0  0  0  0  0  0
  150.8433  137.8006  156.0617 H   0  0  0  0  0  0  0  0  0  0  0  0
  145.5624  139.3312  158.7779 H   0  0  0  0  0  0  0  0  0  0  0  0
  147.6517  135.7554  153.8452 H   0  0  0  0  0  0  0  0  0  0  0  0
  144.2365  136.8407  155.2177 H   0  0  0  0  0  0  0  0  0  0  0  0
  145.4857  134.1700  154.4137 H   0  0  0  0  0  0  0  0  0  0  0  0
  144.0150  134.4594  155.3952 H   0  0  0  0  0  0  0  0  0  0  0  0
  144.9778  133.7134  152.0527 H   0  0  0  0  0  0  0  0  0  0  0  0
  143.3233  133.2114  152.3268 H   0  0  0  0  0  0  0  0  0  0  0  0
  142.6889  134.3475  150.6950 H   0  0  0  0  0  0  0  0  0  0  0  0
  142.1716  136.2361  154.1388 H   0  0  0  0  0  0  0  0  0  0  0  0
  141.8190  135.5892  152.5579 H   0  0  0  0  0  0  0  0  0  0  0  0
  142.3472  133.5841  154.2395 H   0  0  0  0  0  0  0  0  0  0  0  0
  144.1740  137.2921  152.8650 H   0  0  0  0  0  0  0  0  0  0  0  0
  145.5970  136.2529  152.5438 H   0  0  0  0  0  0  0  0  0  0  0  0
  149.2400  140.9252  156.3574 H   0  0  0  0  0  0  0  0  0  0  0  0
  152.1831  140.2108  155.9794 H   0  0  0  0  0  0  0  0  0  0  0  0
  151.2278  141.1639  154.8528 H   0  0  0  0  0  0  0  0  0  0  0  0
  150.7867  139.5047  155.1618 H   0  0  0  0  0  0  0  0  0  0  0  0
  149.8035  142.6970  157.8654 H   0  0  0  0  0  0  0  0  0  0  0  0
  150.6536  142.9543  156.3643 H   0  0  0  0  0  0  0  0  0  0  0  0
  152.5906  141.9405  157.3961 H   0  0  0  0  0  0  0  0  0  0  0  0
  1  2  1  0  0  0  0
  1 29  1  0  0  0  0
  1 30  1  0  0  0  0
  1 31  1  0  0  0  0
  2  3  1  0  0  0  0
  2 32  1  0  0  0  0
  2 33  1  0  0  0  0
  3 28  1  0  0  0  0
  3  4  1  0  0  0  0
  3 61  1  0  0  0  0
  4  5  1  0  0  0  0
  4 34  1  0  0  0  0
  4 35  1  0  0  0  0
  5  6  1  0  0  0  0
  5 36  1  0  0  0  0
  5 37  1  0  0  0  0
  6  7  1  0  0  0  0
  6 26  1  0  0  0  0
  6 38  1  0  0  0  0
  7  8  1  0  0  0  0
  7  9  1  0  0  0  0
  8 39  1  0  0  0  0
  8 40  1  0  0  0  0
  8 41  1  0  0  0  0
  9 14  1  0  0  0  0
  9 10  2  0  0  0  0
 10 11  1  0  0  0  0
 11 12  2  0  0  0  0
 11 42  1  0  0  0  0
 12 13  1  0  0  0  0
 13 17  1  0  0  0  0
 13 14  2  0  0  0  0
 14 15  1  0  0  0  0
 15 16  2  0  0  0  0
 16 17  1  0  0  0  0
 16 43  1  0  0  0  0
 17 18  1  0  0  0  0
 18 25  1  0  0  0  0
 18 19  1  0  0  0  0
 18 44  1  0  0  0  0
 19 20  1  0  0  0  0
 19 45  1  0  0  0  0
 19 46  1  0  0  0  0
 20 21  1  0  0  0  0
 20 23  1  0  0  0  0
 20 25  1  0  0  0  0
 21 22  1  0  0  0  0
 21 47  1  0  0  0  0
 21 48  1  0  0  0  0
 22 49  1  0  0  0  0
 23 24  1  0  0  0  0
 23 50  1  0  0  0  0
 23 51  1  0  0  0  0
 24 52  1  0  0  0  0
 25 53  1  0  0  0  0
 25 54  1  0  0  0  0
 26 27  1  0  0  0  0
 26 28  1  0  0  0  0
 26 55  1  0  0  0  0
 27 56  1  0  0  0  0
 27 57  1  0  0  0  0
 27 58  1  0  0  0  0
 28 59  1  0  0  0  0
 28 60  1  0  0  0  0
M  CHG  1   3   1
M  END
> <s_m_source_file>
AV-unprocessed.smi

> <i_m_source_file_index>
92

> <i_lp_mmshare_version>
43012

> <i_f3d_flags>
0

> <s_epik_input>
W0NIM11bQ0gyXU4xW0NIMl1bQ0gyXVtDQEhdKFtDQEBIXShbQ0gzXSlbQ0gyXTEpTihbQ0gzXSljKG5bY0hdbjIpYyhjMjMpbltjSF1uM1tDSF0oW0NIMl00KVtDSDJdQzQoW0NIMl1bT0hdKVtDSDJdW09IXQ==

> <s_epik_cmdline>
J2VwaWtfcHl0aG9uJywgJy1waCcsICc3LjAnLCAnLXRuJywgJzgnLCAnLW1hJywgJzIwMCcsICctbWV0YWxfYmluZGluZycsICctaW1hZScsICc8aW5maWxlLm1hZT4nLCAnLW9tYWUnLCAnPG91dGZpbGUubWFlPic=

> <r_lp_tautomer_probability>
1

> <r_epik_Ionization_Penalty>
0.00235514

> <r_epik_Ionization_Penalty_Charging>
0.00137877

> <r_epik_Ionization_Penalty_Neutral>
0.000976366

> <r_epik_State_Penalty>
-0

> <r_epik_Charging_Adjusted_Penalty>
0.00137877

> <i_epik_Tot_Q>
1

> <i_epik_Tot_abs_Q>
1

> <r_epik_Metal_State_Penalty>
-0

> <b_epik_Metal_Only>
0

> <s_lp_Force_Field>
OPLS_2005

> <r_lp_Energy>
56.4815

> <b_lp_Chiralities_Consistent>
1

> <s_lp_Variant>
AV-unprocessed.smi:92-8

> <Gold.Version>
5.8.1

> <Gold.Id.Protein>
6NUR|6NUR_protein|mol2

> <Gold.PLP.Fitness>
43.8635

> <Gold.PLP.PLP>
-33.3871

> <Gold.PLP.part.hbond>
-4.0000

> <Gold.PLP.part.metal>
0.0000

> <Gold.PLP.part.buried>
-4.4178

> <Gold.PLP.part.nonpolar>
-24.3215

> <Gold.PLP.part.repulsive>
0.1406

> <Gold.PLP.ligand.clash>
0.0000

> <Gold.PLP.ligand.torsion>
1.2463

> <Gold.PLP.Chemscore.Hbond>
2.8960

> <Gold.PLP.Chemscore.CHOScore>
0.9742

> <Gold.PLP.Chemscore.Metal>
0.0000

> <Gold.Chemscore.Hbonds>
donor molecule, donor type, donor heavy atom, donor atom, acceptor molecule, acceptor atom, score
      L1  H    22    49       P1 10186  1.00
      L1  H    24    52       P1 10957  0.90
      P1  H 11000 11005       L1    24  1.00
      L1  C    16    43       P1  7948  0.97

> <Gold.PLP.Chemscore.Internal.Correction>
1.3583

> <Gold.Rescore>
     Score         DG    S(hbond)    S(metal)    S(lipo)     H(rot)  DE(clash)    DE(int)     intcor
     10.96     -13.74       2.10        0.00      81.02       3.22       0.24       2.55       ----

> <Gold.Chemscore.Fitness>
10.9568

> <Gold.Chemscore.DG>
-13.7407

> <Gold.Chemscore.ZeroCoef>
-5.4800

> <Gold.Chemscore.Hbond>
2.1045

> <Gold.Chemscore.Metal>
0.0000

> <Gold.Chemscore.Lipo>
81.0241

> <Gold.Chemscore.Internal_Hbond>
0.0000

> <Gold.Chemscore.DEClash>
0.2366

> <Gold.Chemscore.DEInternal>
2.5472

> <Gold.Chemscore.Rot>
3.2219

> <Gold.Chemscore.Internal.Correction>
   9.000000E+99

> <Gold.Chemscore.Hbonds>
donor molecule, donor type, donor heavy atom, donor atom, acceptor molecule, acceptor atom, score
      L1  H    22    49       P1 10186  0.40
      L1  H    24    52       P1 10957  0.88
      P1  H 11000 11005       L1    24  0.24

> <Gold.Chemscore.Hbond.Weighted>
-7.0290

> <Gold.Chemscore.Metal.Weighted>
-0.0000

> <Gold.Chemscore.Lipo.Weighted>
-9.4798

> <Gold.Chemscore.Internal_Hbond.Weighted>
0.0000

> <Gold.Chemscore.DEClash.Weighted>
0.2366

> <Gold.Chemscore.DEInternal.Weighted>
2.5472

> <Gold.Chemscore.Rot.Weighted>
8.2482

> <Gold.Chemscore.Internal.Correction.Weighted>
   9.000000E+99

> <Gold.Protein.RotatedTorsions>
[ 6907 6896 6895 6894 ] final   -3.26 input  -60.11 | X-H torsion
[ 7974 7965 7964 7962 ] final  -54.87 input  175.53 | X-H torsion
[ 8008 7997 7996 7995 ] final  100.93 input   59.86 | X-H torsion
[ 10167 10162 10161 10158 ] final  113.39 input  -65.29 | X-H torsion
[ 10718 10713 10712 10709 ] final   15.45 input   66.30 | X-H torsion
[ 10763 10752 10751 10750 ] final  128.74 input  -60.55 | X-H torsion
[ 11005 11000 10999 10996 ] final    7.16 input  -57.11 | X-H torsion

> <Gold.Protein.ActiveResidues>
 VAL166  LYS551  ARG553  GLY616  TRP617  ASP618  TYR619  PRO620  LYS621  CYS622 
 ASP623  PHE694  ASN695  SER759  ASP760  ASP761  ALA762  ILE779  LEU786  VAL792 
 PHE793  MET794  SER795  GLU796  ALA797  LYS798  CYS799  TRP800  GLU811  SER814 

> <Gold.Protein.RotatedAtoms>
  151.5166  135.1066  159.9867 H   0  0  0  0  0  0  0  0  0  0  0  0  # atno 6907 bound_to 6896
  152.4638  133.7876  159.6895 H   0  0  0  0  0  0  0  0  0  0  0  0  # atno 6908 bound_to 6896
  150.8613  133.7576  159.3017 H   0  0  0  0  0  0  0  0  0  0  0  0  # atno 6909 bound_to 6896
  145.8807  140.8147  142.9841 H   0  0  0  0  0  0  0  0  0  0  0  0  # atno 7974 bound_to 7965
  156.1250  140.3205  155.8264 H   0  0  0  0  0  0  0  0  0  0  0  0  # atno 8008 bound_to 7997
  155.4435  140.0527  157.3025 H   0  0  0  0  0  0  0  0  0  0  0  0  # atno 8009 bound_to 7997
  154.4856  140.2071  155.9677 H   0  0  0  0  0  0  0  0  0  0  0  0  # atno 8010 bound_to 7997
  139.6465  144.7127  151.2132 H   0  0  0  0  0  0  0  0  0  0  0  0  # atno 10167 bound_to 10162
  157.0537  130.6280  149.5773 H   0  0  0  0  0  0  0  0  0  0  0  0  # atno 10718 bound_to 10713
  153.7305  135.3239  155.3285 H   0  0  0  0  0  0  0  0  0  0  0  0  # atno 10763 bound_to 10752
  154.8327  135.4521  154.1127 H   0  0  0  0  0  0  0  0  0  0  0  0  # atno 10764 bound_to 10752
  153.2273  135.6955  153.8011 H   0  0  0  0  0  0  0  0  0  0  0  0  # atno 10765 bound_to 10752
  140.5513  134.0280  155.7938 H   0  0  0  0  0  0  0  0  0  0  0  0  # atno 11005 bound_to 11000
  144.6727  140.1379  143.7439 LP  0  0  0  0  0  0  0  0  0  0  0  0  # atno 17320 bound_to 7965
  145.9027  139.2440  143.1484 LP  0  0  0  0  0  0  0  0  0  0  0  0  # atno 17321 bound_to 7965
  140.7517  143.6222  150.8502 LP  0  0  0  0  0  0  0  0  0  0  0  0  # atno 17342 bound_to 10162
  139.9865  143.5893  152.2925 LP  0  0  0  0  0  0  0  0  0  0  0  0  # atno 17343 bound_to 10162
  155.9999  130.5076  150.7625 LP  0  0  0  0  0  0  0  0  0  0  0  0  # atno 17370 bound_to 10713
  157.5009  131.0918  151.0315 LP  0  0  0  0  0  0  0  0  0  0  0  0  # atno 17371 bound_to 10713
  141.1170  133.9524  157.2804 LP  0  0  0  0  0  0  0  0  0  0  0  0  # atno 17394 bound_to 11000
  139.9454  135.0185  156.8835 LP  0  0  0  0  0  0  0  0  0  0  0  0  # atno 17395 bound_to 11000

$$$$
