AV-unprocessed.smi:2646|AV-procd|sdf|10281|dock8
  -GOLD-   2272014293D 1   1.00000     0.00000
 Structure written by MMmdl.
 43 44  0  0  0  0  0  0  0  0  1 V2000
  144.4066  135.3972  154.1287 C   0  0  0  0  0  0  0  0  0  0  0  0
  145.0593  135.5483  152.7307 C   0  0  1  0  0  0  0  0  0  0  0  0
  144.0460  136.2605  151.7866 C   0  0  0  0  0  0  0  0  0  0  0  0
  143.7139  137.5595  152.2343 O   0  0  0  0  0  0  0  0  0  0  0  0
  146.2801  136.3630  152.8353 N   0  0  0  0  0  0  0  0  0  0  0  0
  146.4578  137.5451  153.4479 C   0  0  0  0  0  0  0  0  0  0  0  0
  145.5706  138.1547  154.0433 O   0  0  0  0  0  0  0  0  0  0  0  0
  147.7233  137.9726  153.3002 N   0  0  0  0  0  0  0  0  0  0  0  0
  148.3173  139.1619  153.8015 C   0  0  0  0  0  0  0  0  0  0  0  0
  147.4749  140.2607  154.0675 C   0  0  0  0  0  0  0  0  0  0  0  0
  148.0395  141.4576  154.5475 C   0  0  0  0  0  0  0  0  0  0  0  0
  149.4341  141.5121  154.7350 C   0  0  0  0  0  0  0  0  0  0  0  0
  150.2570  140.4757  154.4702 N   0  0  0  0  0  0  0  0  0  0  0  0
  149.7087  139.3299  154.0115 C   0  0  0  0  0  0  0  0  0  0  0  0
  145.4824  134.1428  152.1730 C   0  0  0  0  0  0  0  0  0  0  0  0
  146.2310  134.2139  150.8138 C   0  0  0  0  0  0  0  0  0  0  0  0
  146.6785  132.8285  150.3209 C   0  0  0  0  0  0  0  0  0  0  0  0
  145.4905  131.8653  150.2089 C   0  0  0  0  0  0  0  0  0  0  0  0
  144.7502  131.7636  151.5479 C   0  0  0  0  0  0  0  0  0  0  0  0
  144.2985  133.1459  152.0450 C   0  0  0  0  0  0  0  0  0  0  0  0
  143.6235  134.6383  154.1191 H   0  0  0  0  0  0  0  0  0  0  0  0
  143.9427  136.3248  154.4638 H   0  0  0  0  0  0  0  0  0  0  0  0
  145.1303  135.1160  154.8932 H   0  0  0  0  0  0  0  0  0  0  0  0
  144.4487  136.3576  150.7784 H   0  0  0  0  0  0  0  0  0  0  0  0
  143.1266  135.6839  151.6851 H   0  0  0  0  0  0  0  0  0  0  0  0
  143.4864  138.0856  151.4829 H   0  0  0  0  0  0  0  0  0  0  0  0
  147.0906  135.9709  152.3790 H   0  0  0  0  0  0  0  0  0  0  0  0
  148.3170  137.4070  152.7115 H   0  0  0  0  0  0  0  0  0  0  0  0
  146.4084  140.1893  153.9110 H   0  0  0  0  0  0  0  0  0  0  0  0
  147.4188  142.3137  154.7668 H   0  0  0  0  0  0  0  0  0  0  0  0
  149.9013  142.4141  155.1019 H   0  0  0  0  0  0  0  0  0  0  0  0
  150.4189  138.5480  153.7925 H   0  0  0  0  0  0  0  0  0  0  0  0
  146.1852  133.7075  152.8851 H   0  0  0  0  0  0  0  0  0  0  0  0
  145.5972  134.6722  150.0539 H   0  0  0  0  0  0  0  0  0  0  0  0
  147.1178  134.8412  150.8929 H   0  0  0  0  0  0  0  0  0  0  0  0
  147.1725  132.9211  149.3532 H   0  0  0  0  0  0  0  0  0  0  0  0
  147.4197  132.4180  151.0079 H   0  0  0  0  0  0  0  0  0  0  0  0
  144.8054  132.2126  149.4343 H   0  0  0  0  0  0  0  0  0  0  0  0
  145.8374  130.8791  149.8988 H   0  0  0  0  0  0  0  0  0  0  0  0
  143.8862  131.1066  151.4449 H   0  0  0  0  0  0  0  0  0  0  0  0
  145.4012  131.3034  152.2925 H   0  0  0  0  0  0  0  0  0  0  0  0
  143.8039  133.0077  153.0051 H   0  0  0  0  0  0  0  0  0  0  0  0
  143.5434  133.5408  151.3644 H   0  0  0  0  0  0  0  0  0  0  0  0
  1  2  1  0  0  0  0
  1 21  1  0  0  0  0
  1 22  1  0  0  0  0
  1 23  1  0  0  0  0
  2  3  1  0  0  0  0
  2  5  1  0  0  0  0
  2 15  1  0  0  0  0
  3  4  1  0  0  0  0
  3 24  1  0  0  0  0
  3 25  1  0  0  0  0
  4 26  1  0  0  0  0
  5  6  1  0  0  0  0
  5 27  1  0  0  0  0
  6  7  2  0  0  0  0
  6  8  1  0  0  0  0
  8  9  1  0  0  0  0
  8 28  1  0  0  0  0
  9 14  1  0  0  0  0
  9 10  2  0  0  0  0
 10 11  1  0  0  0  0
 10 29  1  0  0  0  0
 11 12  2  0  0  0  0
 11 30  1  0  0  0  0
 12 13  1  0  0  0  0
 12 31  1  0  0  0  0
 13 14  2  0  0  0  0
 14 32  1  0  0  0  0
 15 20  1  0  0  0  0
 15 16  1  0  0  0  0
 15 33  1  0  0  0  0
 16 17  1  0  0  0  0
 16 34  1  0  0  0  0
 16 35  1  0  0  0  0
 17 18  1  0  0  0  0
 17 36  1  0  0  0  0
 17 37  1  0  0  0  0
 18 19  1  0  0  0  0
 18 38  1  0  0  0  0
 18 39  1  0  0  0  0
 19 20  1  0  0  0  0
 19 40  1  0  0  0  0
 19 41  1  0  0  0  0
 20 42  1  0  0  0  0
 20 43  1  0  0  0  0
M  END
> <s_m_source_file>
AV-unprocessed.smi

> <i_m_source_file_index>
2646

> <i_lp_mmshare_version>
43012

> <i_f3d_flags>
0

> <s_epik_input>
W0NIMl0xW0NIMl1bQ0gyXVtDSDJdW0NIMl1bQ0hdMVtDQF0oW0NIM10pKFtDSDJdW09IXSlbTkhdQyg9TylbTkhdYzJbY0hdW2NIXVtjSF1uW2NIXTI=

> <s_epik_cmdline>
J2VwaWtfcHl0aG9uJywgJy1waCcsICc3LjAnLCAnLXRuJywgJzgnLCAnLW1hJywgJzIwMCcsICctbWV0YWxfYmluZGluZycsICctaW1hZScsICc8aW5maWxlLm1hZT4nLCAnLW9tYWUnLCAnPG91dGZpbGUubWFlPic=

> <r_epik_Ionization_Penalty>
0.00498697

> <r_epik_Ionization_Penalty_Charging>
0

> <r_epik_Ionization_Penalty_Neutral>
0.00498697

> <r_epik_State_Penalty>
0.00359645

> <r_epik_Charging_Adjusted_Penalty>
0.00359645

> <i_epik_Tot_Q>
0

> <i_epik_Tot_abs_Q>
0

> <r_epik_Metal_State_Penalty>
-0

> <b_epik_Metal_Only>
0

> <s_lp_Force_Field>
OPLS_2005

> <r_lp_Energy>
21.3241

> <b_lp_Chiralities_Consistent>
1

> <s_lp_Variant>
AV-unprocessed.smi:2646-1

> <Gold.Version>
5.8.1

> <Gold.Id.Protein>
6NUR|6NUR_protein|mol2

> <Gold.PLP.Fitness>
45.8630

> <Gold.PLP.PLP>
-31.7542

> <Gold.PLP.part.hbond>
-5.0000

> <Gold.PLP.part.metal>
0.0000

> <Gold.PLP.part.buried>
-1.1779

> <Gold.PLP.part.nonpolar>
-25.1202

> <Gold.PLP.part.repulsive>
0.2665

> <Gold.PLP.ligand.clash>
0.0000

> <Gold.PLP.ligand.torsion>
0.3080

> <Gold.PLP.Chemscore.Hbond>
3.8960

> <Gold.PLP.Chemscore.CHOScore>
0.9971

> <Gold.PLP.Chemscore.Metal>
0.0000

> <Gold.Chemscore.Hbonds>
donor molecule, donor type, donor heavy atom, donor atom, acceptor molecule, acceptor atom, score
      L1  H     4    26       P1 10171  0.99
      L1  H     5    27       P1  7948  0.96
      L1  H     8    28       P1  7948  1.00
      P1  H  7989  7998       L1    13  0.94
      L1  C    12    31       P1  8028  0.89

> <Gold.PLP.Chemscore.Internal.Correction>
0.0457

> <Gold.Rescore>
     Score         DG    S(hbond)    S(metal)    S(lipo)     H(rot)  DE(clash)    DE(int)     intcor
     15.69     -21.37       3.40        0.00      82.03       1.98       0.37       5.31       ----

> <Gold.Chemscore.Fitness>
15.6868

> <Gold.Chemscore.DG>
-21.3694

> <Gold.Chemscore.ZeroCoef>
-5.4800

> <Gold.Chemscore.Hbond>
3.4012

> <Gold.Chemscore.Metal>
0.0000

> <Gold.Chemscore.Lipo>
82.0295

> <Gold.Chemscore.Internal_Hbond>
0.0000

> <Gold.Chemscore.DEClash>
0.3742

> <Gold.Chemscore.DEInternal>
5.3084

> <Gold.Chemscore.Rot>
1.9798

> <Gold.Chemscore.Internal.Correction>
   9.000000E+99

> <Gold.Chemscore.Hbonds>
donor molecule, donor type, donor heavy atom, donor atom, acceptor molecule, acceptor atom, score
      L1  H     4    26       P1 10171  0.81
      L1  H     5    27       P1  7948  0.92
      L1  H     8    28       P1  7948  0.97
      P1  H  7989  7998       L1    13  0.56

> <Gold.Chemscore.Hbond.Weighted>
-11.3601

> <Gold.Chemscore.Metal.Weighted>
-0.0000

> <Gold.Chemscore.Lipo.Weighted>
-9.5975

> <Gold.Chemscore.Internal_Hbond.Weighted>
0.0000

> <Gold.Chemscore.DEClash.Weighted>
0.3742

> <Gold.Chemscore.DEInternal.Weighted>
5.3084

> <Gold.Chemscore.Rot.Weighted>
5.0682

> <Gold.Chemscore.Internal.Correction.Weighted>
   9.000000E+99

> <Gold.Protein.RotatedTorsions>
[ 6907 6896 6895 6894 ] final  100.90 input  -60.11 | X-H torsion
[ 7974 7965 7964 7962 ] final  109.43 input  175.53 | X-H torsion
[ 8008 7997 7996 7995 ] final -126.01 input   59.86 | X-H torsion
[ 10167 10162 10161 10158 ] final   62.02 input  -65.29 | X-H torsion
[ 10718 10713 10712 10709 ] final  -89.93 input   66.30 | X-H torsion
[ 10763 10752 10751 10750 ] final -123.96 input  -60.55 | X-H torsion
[ 11005 11000 10999 10996 ] final   93.04 input  -57.11 | X-H torsion

> <Gold.Protein.ActiveResidues>
 VAL166  LYS551  ARG553  GLY616  TRP617  ASP618  TYR619  PRO620  LYS621  CYS622 
 ASP623  PHE694  ASN695  SER759  ASP760  ASP761  ALA762  ILE779  LEU786  VAL792 
 PHE793  MET794  SER795  GLU796  ALA797  LYS798  CYS799  TRP800  GLU811  SER814 

> <Gold.Protein.RotatedAtoms>
  152.5362  134.0207  159.7979 H   0  0  0  0  0  0  0  0  0  0  0  0  # atno 6907 bound_to 6896
  151.0393  133.5712  159.2660 H   0  0  0  0  0  0  0  0  0  0  0  0  # atno 6908 bound_to 6896
  151.2688  135.0685  159.9179 H   0  0  0  0  0  0  0  0  0  0  0  0  # atno 6909 bound_to 6896
  145.2679  139.2677  143.3982 H   0  0  0  0  0  0  0  0  0  0  0  0  # atno 7974 bound_to 7965
  155.2227  140.0422  157.2950 H   0  0  0  0  0  0  0  0  0  0  0  0  # atno 8008 bound_to 7997
  154.5939  140.2434  155.7853 H   0  0  0  0  0  0  0  0  0  0  0  0  # atno 8009 bound_to 7997
  156.2277  140.2949  156.0118 H   0  0  0  0  0  0  0  0  0  0  0  0  # atno 8010 bound_to 7997
  140.1485  144.4486  150.6772 H   0  0  0  0  0  0  0  0  0  0  0  0  # atno 10167 bound_to 10162
  155.9986  130.4890  150.5245 H   0  0  0  0  0  0  0  0  0  0  0  0  # atno 10718 bound_to 10713
  154.8716  135.4080  154.3028 H   0  0  0  0  0  0  0  0  0  0  0  0  # atno 10763 bound_to 10752
  153.3885  135.7014  153.6518 H   0  0  0  0  0  0  0  0  0  0  0  0  # atno 10764 bound_to 10752
  153.5310  135.3667  155.2647 H   0  0  0  0  0  0  0  0  0  0  0  0  # atno 10765 bound_to 10752
  139.8815  134.8767  156.3660 H   0  0  0  0  0  0  0  0  0  0  0  0  # atno 11005 bound_to 11000
  146.3255  140.3114  142.8627 LP  0  0  0  0  0  0  0  0  0  0  0  0  # atno 17320 bound_to 7965
  144.9360  140.8027  143.5660 LP  0  0  0  0  0  0  0  0  0  0  0  0  # atno 17321 bound_to 7965
  140.6717  143.2288  151.5608 LP  0  0  0  0  0  0  0  0  0  0  0  0  # atno 17342 bound_to 10162
  139.5437  144.2577  152.1401 LP  0  0  0  0  0  0  0  0  0  0  0  0  # atno 17343 bound_to 10162
  157.3203  131.0680  151.1937 LP  0  0  0  0  0  0  0  0  0  0  0  0  # atno 17370 bound_to 10713
  157.2853  130.6769  149.6086 LP  0  0  0  0  0  0  0  0  0  0  0  0  # atno 17371 bound_to 10713
  140.9497  133.7459  156.0255 LP  0  0  0  0  0  0  0  0  0  0  0  0  # atno 17394 bound_to 11000
  140.8121  134.3387  157.5408 LP  0  0  0  0  0  0  0  0  0  0  0  0  # atno 17395 bound_to 11000

$$$$
