AV-unprocessed.smi:1|AV-procd|sdf|15|dock7
  -GOLD-   2262015113D 1   1.00000     0.00000
 Structure written by MMmdl.
 57 62  0  0  0  0  0  0  0  0  1 V2000
  153.5695  139.3306  158.7653 O   0  0  0  0  0  0  0  0  0  0  0  0
  152.4298  139.7511  158.9824 C   0  0  0  0  0  0  0  0  0  0  0  0
  151.2620  139.0314  159.1977 N   0  0  0  0  0  0  0  0  0  0  0  0
  151.0311  137.9462  158.5233 C   0  0  0  0  0  0  0  0  0  0  0  0
  151.7636  137.2677  157.5406 N   0  0  0  0  0  0  0  0  0  0  0  0
  151.3798  136.0775  156.9034 C   0  0  0  0  0  0  0  0  0  0  0  0
  150.2705  135.4291  157.1381 N   0  0  0  0  0  0  0  0  0  0  0  0
  149.5028  136.0635  158.1055 C   0  0  0  0  0  0  0  0  0  0  0  0
  149.7695  137.2253  158.7975 C   0  0  0  0  0  0  0  0  0  0  0  0
  148.7392  137.5221  159.6839 N   0  0  0  0  0  0  0  0  0  0  0  0
  147.8894  136.5170  159.4896 C   0  0  0  0  0  0  0  0  0  0  0  0
  148.2692  135.6117  158.5695 N   0  0  0  0  0  0  0  0  0  0  0  0
  147.5158  134.3888  158.1669 C   0  0  2  0  0  0  0  0  0  0  0  0
  148.3810  133.5310  157.4951 O   0  0  0  0  0  0  0  0  0  0  0  0
  147.6792  132.8171  156.4789 C   0  0  2  0  0  0  0  0  0  0  0  0
  148.4546  132.9841  155.1662 C   0  0  0  0  0  0  0  0  0  0  0  0
  147.5413  133.0420  154.0829 O   0  0  0  0  0  0  0  0  0  0  0  0
  147.1961  131.9150  153.4308 C   0  0  0  0  0  0  0  0  0  0  0  0
  147.6367  130.7995  153.7166 O   0  0  0  0  0  0  0  0  0  0  0  0
  146.2205  132.1582  152.3291 C   0  0  0  0  0  0  0  0  0  0  0  0
  146.1133  133.4537  151.7715 C   0  0  0  0  0  0  0  0  0  0  0  0
  145.2042  133.7127  150.7275 C   0  0  0  0  0  0  0  0  0  0  0  0
  144.3897  132.6793  150.2290 C   0  0  0  0  0  0  0  0  0  0  0  0
  144.4853  131.3866  150.7763 C   0  0  0  0  0  0  0  0  0  0  0  0
  145.3946  131.1256  151.8200 C   0  0  0  0  0  0  0  0  0  0  0  0
  146.2642  133.4110  156.4266 C   0  0  1  0  0  0  0  0  0  0  0  0
  145.3560  132.5682  157.1157 O   0  0  0  0  0  0  0  0  0  0  0  0
  144.3441  133.5231  158.0405 S   0  0  0  0  0  0  0  0  0  0  0  0
  143.0605  133.6550  157.3346 O   0  0  0  0  0  0  0  0  0  0  0  0
  144.4378  133.0745  159.4382 O   0  0  0  0  0  0  0  0  0  0  0  0
  145.1709  134.9684  157.8952 O   0  0  0  0  0  0  0  0  0  0  0  0
  146.3817  134.7255  157.2011 C   0  0  1  0  0  0  0  0  0  0  0  0
  152.2300  141.2300  159.0485 C   0  0  0  0  0  0  0  0  0  0  0  0
  151.0492  141.8074  158.5357 C   0  0  0  0  0  0  0  0  0  0  0  0
  150.8653  143.2031  158.5877 C   0  0  0  0  0  0  0  0  0  0  0  0
  151.8613  144.0246  159.1502 C   0  0  0  0  0  0  0  0  0  0  0  0
  153.0418  143.4509  159.6612 C   0  0  0  0  0  0  0  0  0  0  0  0
  153.2273  142.0555  159.6096 C   0  0  0  0  0  0  0  0  0  0  0  0
  152.1003  135.7154  156.1685 H   0  0  0  0  0  0  0  0  0  0  0  0
  146.9605  136.4364  160.0350 H   0  0  0  0  0  0  0  0  0  0  0  0
  147.1789  133.9241  159.0948 H   0  0  0  0  0  0  0  0  0  0  0  0
  147.6465  131.7616  156.7534 H   0  0  0  0  0  0  0  0  0  0  0  0
  149.0709  133.8838  155.1970 H   0  0  0  0  0  0  0  0  0  0  0  0
  149.1225  132.1337  155.0218 H   0  0  0  0  0  0  0  0  0  0  0  0
  146.7291  134.2628  152.1372 H   0  0  0  0  0  0  0  0  0  0  0  0
  145.1325  134.7055  150.3084 H   0  0  0  0  0  0  0  0  0  0  0  0
  143.6926  132.8784  149.4284 H   0  0  0  0  0  0  0  0  0  0  0  0
  143.8606  130.5924  150.3949 H   0  0  0  0  0  0  0  0  0  0  0  0
  145.4421  130.1224  152.2178 H   0  0  0  0  0  0  0  0  0  0  0  0
  145.8981  133.5626  155.4104 H   0  0  0  0  0  0  0  0  0  0  0  0
  146.6585  135.5498  156.5433 H   0  0  0  0  0  0  0  0  0  0  0  0
  150.2813  141.1837  158.1011 H   0  0  0  0  0  0  0  0  0  0  0  0
  149.9612  143.6435  158.1942 H   0  0  0  0  0  0  0  0  0  0  0  0
  151.7204  145.0948  159.1888 H   0  0  0  0  0  0  0  0  0  0  0  0
  153.8056  144.0813  160.0919 H   0  0  0  0  0  0  0  0  0  0  0  0
  154.1369  141.6228  160.0005 H   0  0  0  0  0  0  0  0  0  0  0  0
  152.6495  137.6706  157.2699 H   0  0  0  0  0  0  0  0  0  0  0  0
  1  2  2  0  0  0  0
  2  3  1  0  0  0  0
  2 33  1  0  0  0  0
  3  4  2  0  0  0  0
  4  9  1  0  0  0  0
  4  5  1  0  0  0  0
  5  6  1  0  0  0  0
  5 57  1  0  0  0  0
  6  7  2  0  0  0  0
  6 39  1  0  0  0  0
  7  8  1  0  0  0  0
  8 12  1  0  0  0  0
  8  9  2  0  0  0  0
  9 10  1  0  0  0  0
 10 11  2  0  0  0  0
 11 12  1  0  0  0  0
 11 40  1  0  0  0  0
 12 13  1  0  0  0  0
 13 32  1  0  0  0  0
 13 14  1  0  0  0  0
 13 41  1  0  0  0  0
 14 15  1  0  0  0  0
 15 16  1  0  0  0  0
 15 26  1  0  0  0  0
 15 42  1  0  0  0  0
 16 17  1  0  0  0  0
 16 43  1  0  0  0  0
 16 44  1  0  0  0  0
 17 18  1  0  0  0  0
 18 19  2  0  0  0  0
 18 20  1  0  0  0  0
 20 25  1  0  0  0  0
 20 21  2  0  0  0  0
 21 22  1  0  0  0  0
 21 45  1  0  0  0  0
 22 23  2  0  0  0  0
 22 46  1  0  0  0  0
 23 24  1  0  0  0  0
 23 47  1  0  0  0  0
 24 25  2  0  0  0  0
 24 48  1  0  0  0  0
 25 49  1  0  0  0  0
 26 32  1  0  0  0  0
 26 27  1  0  0  0  0
 26 50  1  0  0  0  0
 27 28  1  0  0  0  0
 28 29  2  0  0  0  0
 28 30  2  0  0  0  0
 28 31  1  0  0  0  0
 31 32  1  0  0  0  0
 32 51  1  0  0  0  0
 33 38  1  0  0  0  0
 33 34  2  0  0  0  0
 34 35  1  0  0  0  0
 34 52  1  0  0  0  0
 35 36  2  0  0  0  0
 35 53  1  0  0  0  0
 36 37  1  0  0  0  0
 36 54  1  0  0  0  0
 37 38  2  0  0  0  0
 37 55  1  0  0  0  0
 38 56  1  0  0  0  0
M  END
> <s_m_source_file>
AV-unprocessed.smi

> <i_m_source_file_index>
1

> <i_lp_mmshare_version>
43012

> <i_f3d_flags>
0

> <s_epik_input>
W2NIXTFbY0hdW2NIXVtjSF1bY0hdYzFDKD1PKVtOSF1jKG5bY0hdbjIpYyhjMjMpbltjSF1uM1tDQEBIXShbQ0BIXShbQ0BIXTQ1KU9TKE81KSg9Tyk9TylPW0NASF00W0NIMl1PQyg9TyljNltjSF1bY0hdW2NIXVtjSF1bY0hdNg==

> <s_epik_cmdline>
J2VwaWtfcHl0aG9uJywgJy1waCcsICc3LjAnLCAnLXRuJywgJzgnLCAnLW1hJywgJzIwMCcsICctbWV0YWxfYmluZGluZycsICctaW1hZScsICc8aW5maWxlLm1hZT4nLCAnLW9tYWUnLCAnPG91dGZpbGUubWFlPic=

> <r_epik_Ionization_Penalty>
0.122545

> <r_epik_Ionization_Penalty_Charging>
0.122545

> <r_epik_Ionization_Penalty_Neutral>
7.8935e-16

> <r_epik_State_Penalty>
2.69178

> <r_epik_Charging_Adjusted_Penalty>
2.81433

> <i_epik_Tot_Q>
0

> <i_epik_Tot_abs_Q>
0

> <r_epik_Metal_State_Penalty>
3.02665

> <b_epik_Metal_Only>
0

> <s_epik_Chemistry_Notes>
This compound has an ester and may undergo hydrolysis at high or low pH. This compound contains an acetal/aminal-like group ( X-CH(R)-Y where X, Y are N, S, or O) that may be acid/base labile, releasing an aldehyde.

> <s_lp_Force_Field>
OPLS_2005

> <r_lp_Energy>
60.8199

> <b_lp_Chiralities_Consistent>
1

> <s_lp_Variant>
AV-unprocessed.smi:1-15

> <Gold.Version>
5.8.1

> <Gold.Id.Protein>
6NUR|6NUR_protein|mol2

> <Gold.PLP.Fitness>
51.0586

> <Gold.PLP.PLP>
-48.9007

> <Gold.PLP.part.hbond>
-3.7280

> <Gold.PLP.part.metal>
0.0000

> <Gold.PLP.part.buried>
-9.2747

> <Gold.PLP.part.nonpolar>
-37.4408

> <Gold.PLP.part.repulsive>
0.4565

> <Gold.PLP.ligand.clash>
0.0000

> <Gold.PLP.ligand.torsion>
2.1382

> <Gold.PLP.Chemscore.Hbond>
2.0936

> <Gold.PLP.Chemscore.CHOScore>
0.0000

> <Gold.PLP.Chemscore.Metal>
0.0000

> <Gold.Chemscore.Hbonds>
donor molecule, donor type, donor heavy atom, donor atom, acceptor molecule, acceptor atom, score
      P1  H  6931  6943       L1    10  0.08
      P1  H  7997  8008       L1     1  0.83
      P1  H 11000 11005       L1    29  0.98

> <Gold.PLP.Chemscore.Internal.Correction>
0.1536

> <Gold.Rescore>
     Score         DG    S(hbond)    S(metal)    S(lipo)     H(rot)  DE(clash)    DE(int)     intcor
     17.58     -21.16       2.07        0.00     121.60       2.13       0.07       3.51       ----

> <Gold.Chemscore.Fitness>
17.5842

> <Gold.Chemscore.DG>
-21.1565

> <Gold.Chemscore.ZeroCoef>
-5.4800

> <Gold.Chemscore.Hbond>
2.0691

> <Gold.Chemscore.Metal>
0.0000

> <Gold.Chemscore.Lipo>
121.5980

> <Gold.Chemscore.Internal_Hbond>
0.0000

> <Gold.Chemscore.DEClash>
0.0650

> <Gold.Chemscore.DEInternal>
3.5073

> <Gold.Chemscore.Rot>
2.1333

> <Gold.Chemscore.Internal.Correction>
   9.000000E+99

> <Gold.Chemscore.Hbonds>
donor molecule, donor type, donor heavy atom, donor atom, acceptor molecule, acceptor atom, score
      P1  H  6931  6943       L1    10  0.08
      P1  H  7997  8008       L1     1  0.80
      P1  H 11000 11005       L1    29  0.93

> <Gold.Chemscore.Hbond.Weighted>
-6.9109

> <Gold.Chemscore.Metal.Weighted>
-0.0000

> <Gold.Chemscore.Lipo.Weighted>
-14.2270

> <Gold.Chemscore.Internal_Hbond.Weighted>
0.0000

> <Gold.Chemscore.DEClash.Weighted>
0.0650

> <Gold.Chemscore.DEInternal.Weighted>
3.5073

> <Gold.Chemscore.Rot.Weighted>
5.4614

> <Gold.Chemscore.Internal.Correction.Weighted>
   9.000000E+99

> <Gold.Protein.RotatedTorsions>
[ 6907 6896 6895 6894 ] final  -95.37 input  -60.11 | X-H torsion
[ 7974 7965 7964 7962 ] final  -77.20 input  175.53 | X-H torsion
[ 8008 7997 7996 7995 ] final  -96.36 input   59.86 | X-H torsion
[ 10167 10162 10161 10158 ] final -153.80 input  -65.29 | X-H torsion
[ 10718 10713 10712 10709 ] final  -92.00 input   66.30 | X-H torsion
[ 10763 10752 10751 10750 ] final   14.45 input  -60.55 | X-H torsion
[ 11005 11000 10999 10996 ] final -110.51 input  -57.11 | X-H torsion

> <Gold.Protein.ActiveResidues>
 VAL166  LYS551  ARG553  GLY616  TRP617  ASP618  TYR619  PRO620  LYS621  CYS622 
 ASP623  PHE694  ASN695  SER759  ASP760  ASP761  ALA762  ILE779  LEU786  VAL792 
 PHE793  MET794  SER795  GLU796  ALA797  LYS798  CYS799  TRP800  GLU811  SER814 

> <Gold.Protein.RotatedAtoms>
  150.6962  134.1669  159.4197 H   0  0  0  0  0  0  0  0  0  0  0  0  # atno 6907 bound_to 6896
  151.9648  135.0104  160.0559 H   0  0  0  0  0  0  0  0  0  0  0  0  # atno 6908 bound_to 6896
  152.1895  133.4728  159.5037 H   0  0  0  0  0  0  0  0  0  0  0  0  # atno 6909 bound_to 6896
  145.6028  140.9405  143.1231 H   0  0  0  0  0  0  0  0  0  0  0  0  # atno 7974 bound_to 7965
  154.7735  140.0472  157.1070 H   0  0  0  0  0  0  0  0  0  0  0  0  # atno 8008 bound_to 7997
  154.9791  140.3099  155.4934 H   0  0  0  0  0  0  0  0  0  0  0  0  # atno 8009 bound_to 7997
  156.2925  140.2239  156.4889 H   0  0  0  0  0  0  0  0  0  0  0  0  # atno 8010 bound_to 7997
  139.7066  143.9176  152.2451 H   0  0  0  0  0  0  0  0  0  0  0  0  # atno 10167 bound_to 10162
  155.9998  130.4970  150.5560 H   0  0  0  0  0  0  0  0  0  0  0  0  # atno 10718 bound_to 10713
  153.1621  135.6797  153.8728 H   0  0  0  0  0  0  0  0  0  0  0  0  # atno 10763 bound_to 10752
  153.8120  135.3141  155.3403 H   0  0  0  0  0  0  0  0  0  0  0  0  # atno 10764 bound_to 10752
  154.7939  135.4818  154.0206 H   0  0  0  0  0  0  0  0  0  0  0  0  # atno 10765 bound_to 10752
  141.0787  133.9256  157.2334 H   0  0  0  0  0  0  0  0  0  0  0  0  # atno 11005 bound_to 11000
  144.7303  139.7748  143.7350 LP  0  0  0  0  0  0  0  0  0  0  0  0  # atno 17320 bound_to 7965
  146.1563  139.4662  143.0016 LP  0  0  0  0  0  0  0  0  0  0  0  0  # atno 17321 bound_to 7965
  139.9033  144.6899  150.8641 LP  0  0  0  0  0  0  0  0  0  0  0  0  # atno 17342 bound_to 10162
  140.7723  143.3497  151.2039 LP  0  0  0  0  0  0  0  0  0  0  0  0  # atno 17343 bound_to 10162
  157.3476  131.0728  151.1739 LP  0  0  0  0  0  0  0  0  0  0  0  0  # atno 17370 bound_to 10713
  157.2566  130.6639  149.5955 LP  0  0  0  0  0  0  0  0  0  0  0  0  # atno 17371 bound_to 10713
  139.9600  135.0156  156.9236 LP  0  0  0  0  0  0  0  0  0  0  0  0  # atno 17394 bound_to 11000
  140.5515  134.0622  155.7371 LP  0  0  0  0  0  0  0  0  0  0  0  0  # atno 17395 bound_to 11000

$$$$
