AV-unprocessed.smi:765|AV-procd|sdf|3644|dock3
  -GOLD-   22720 1 43D 1   1.00000     0.00000
 Structure written by MMmdl.
 39 40  0  0  0  0  0  0  0  0  1 V2000
  147.9260  141.7220  154.8749 C   0  0  0  0  0  0  0  0  0  0  0  0
  148.9837  140.8010  155.4996 C   0  0  1  0  0  0  0  0  0  0  0  0
  149.9414  140.2417  154.4323 C   0  0  0  0  0  0  0  0  0  0  0  0
  151.0120  139.3350  155.0552 C   0  0  0  0  0  0  0  0  0  0  0  0
  151.7859  140.0759  156.1574 C   0  0  0  0  0  0  0  0  0  0  0  0
  150.8549  140.6255  157.2609 C   0  0  1  0  0  0  0  0  0  0  0  0
  150.2261  139.4976  157.9779 C   0  0  0  0  0  0  0  0  0  0  0  0
  149.7330  138.6145  158.5404 N   0  0  0  0  0  0  0  0  0  0  0  0
  151.6832  141.4278  158.1630 N   0  0  0  0  0  0  0  0  0  0  0  0
  152.8393  141.0613  158.7419 C   0  0  0  0  0  0  0  0  0  0  0  0
  153.3809  139.9736  158.5435 O   0  0  0  0  0  0  0  0  0  0  0  0
  153.4593  142.0826  159.7074 C   0  0  2  0  0  0  0  0  0  0  0  0
  153.4454  141.6102  161.1729 C   0  0  0  0  0  0  0  0  0  0  0  0
  152.7938  143.3716  159.5676 N   0  0  0  0  0  0  0  0  0  0  0  0
  152.7548  144.2133  158.4724 C   0  0  0  0  0  0  0  0  0  0  0  0
  152.0124  145.3046  158.8214 C   0  0  0  0  0  0  0  0  0  0  0  0
  151.6305  145.0370  160.1653 C   0  0  0  0  0  0  0  0  0  0  0  0
  152.0988  143.8815  160.6085 N   0  0  0  0  0  0  0  0  0  0  0  0
  149.7776  141.5264  156.6051 C   0  0  0  0  0  0  0  0  0  0  0  0
  148.3859  142.5886  154.3986 H   0  0  0  0  0  0  0  0  0  0  0  0
  147.2288  142.0877  155.6293 H   0  0  0  0  0  0  0  0  0  0  0  0
  147.3448  141.1952  154.1176 H   0  0  0  0  0  0  0  0  0  0  0  0
  148.4565  139.9609  155.9532 H   0  0  0  0  0  0  0  0  0  0  0  0
  149.3808  139.6831  153.6821 H   0  0  0  0  0  0  0  0  0  0  0  0
  150.4262  141.0645  153.9049 H   0  0  0  0  0  0  0  0  0  0  0  0
  150.5440  138.4393  155.4650 H   0  0  0  0  0  0  0  0  0  0  0  0
  151.7025  138.9946  154.2831 H   0  0  0  0  0  0  0  0  0  0  0  0
  152.5277  139.4055  156.5937 H   0  0  0  0  0  0  0  0  0  0  0  0
  152.3464  140.8952  155.7038 H   0  0  0  0  0  0  0  0  0  0  0  0
  151.3266  142.3441  158.3927 H   0  0  0  0  0  0  0  0  0  0  0  0
  154.5045  142.2063  159.4158 H   0  0  0  0  0  0  0  0  0  0  0  0
  153.9567  140.6534  161.2842 H   0  0  0  0  0  0  0  0  0  0  0  0
  152.4294  141.4919  161.5522 H   0  0  0  0  0  0  0  0  0  0  0  0
  153.9546  142.3288  161.8157 H   0  0  0  0  0  0  0  0  0  0  0  0
  153.2557  143.9684  157.5470 H   0  0  0  0  0  0  0  0  0  0  0  0
  151.7774  146.1627  158.2094 H   0  0  0  0  0  0  0  0  0  0  0  0
  151.0312  145.6439  160.8280 H   0  0  0  0  0  0  0  0  0  0  0  0
  150.2522  142.4131  156.1814 H   0  0  0  0  0  0  0  0  0  0  0  0
  149.0819  141.8899  157.3625 H   0  0  0  0  0  0  0  0  0  0  0  0
  1  2  1  0  0  0  0
  1 20  1  0  0  0  0
  1 21  1  0  0  0  0
  1 22  1  0  0  0  0
  2 19  1  0  0  0  0
  2  3  1  0  0  0  0
  2 23  1  0  0  0  0
  3  4  1  0  0  0  0
  3 24  1  0  0  0  0
  3 25  1  0  0  0  0
  4  5  1  0  0  0  0
  4 26  1  0  0  0  0
  4 27  1  0  0  0  0
  5  6  1  0  0  0  0
  5 28  1  0  0  0  0
  5 29  1  0  0  0  0
  6  7  1  0  0  0  0
  6  9  1  0  0  0  0
  6 19  1  0  0  0  0
  7  8  3  0  0  0  0
  9 10  1  0  0  0  0
  9 30  1  0  0  0  0
 10 11  2  0  0  0  0
 10 12  1  0  0  0  0
 12 13  1  0  0  0  0
 12 14  1  0  0  0  0
 12 31  1  0  0  0  0
 13 32  1  0  0  0  0
 13 33  1  0  0  0  0
 13 34  1  0  0  0  0
 14 18  1  0  0  0  0
 14 15  1  0  0  0  0
 15 16  2  0  0  0  0
 15 35  1  0  0  0  0
 16 17  1  0  0  0  0
 16 36  1  0  0  0  0
 17 18  2  0  0  0  0
 17 37  1  0  0  0  0
 19 38  1  0  0  0  0
 19 39  1  0  0  0  0
M  END
> <s_m_source_file>
AV-unprocessed.smi

> <i_m_source_file_index>
765

> <i_lp_mmshare_version>
43012

> <i_f3d_flags>
0

> <s_epik_input>
W0NIM11bQ0BASF0oW0NIMl0xKVtDSDJdW0NIMl1bQ0gyXVtDQEBdMShDI04pW05IXUMoPU8pW0NASF0oW0NIM10pbjJbY0hdW2NIXVtjSF1uMg==

> <s_epik_cmdline>
J2VwaWtfcHl0aG9uJywgJy1waCcsICc3LjAnLCAnLXRuJywgJzgnLCAnLW1hJywgJzIwMCcsICctbWV0YWxfYmluZGluZycsICctaW1hZScsICc8aW5maWxlLm1hZT4nLCAnLW9tYWUnLCAnPG91dGZpbGUubWFlPic=

> <r_lp_tautomer_probability>
1

> <r_epik_Ionization_Penalty>
2.71142e-05

> <r_epik_Ionization_Penalty_Charging>
0

> <r_epik_Ionization_Penalty_Neutral>
2.71142e-05

> <r_epik_State_Penalty>
-0

> <r_epik_Charging_Adjusted_Penalty>
0

> <i_epik_Tot_Q>
0

> <i_epik_Tot_abs_Q>
0

> <r_epik_Metal_State_Penalty>
-0

> <b_epik_Metal_Only>
0

> <s_lp_Force_Field>
OPLS_2005

> <r_lp_Energy>
10.7607

> <b_lp_Chiralities_Consistent>
1

> <s_lp_Variant>
AV-unprocessed.smi:765-2

> <Gold.Version>
5.8.1

> <Gold.Id.Protein>
6NUR|6NUR_protein|mol2

> <Gold.PLP.Fitness>
46.5551

> <Gold.PLP.PLP>
-44.3487

> <Gold.PLP.part.hbond>
-1.0000

> <Gold.PLP.part.metal>
0.0000

> <Gold.PLP.part.buried>
-3.1874

> <Gold.PLP.part.nonpolar>
-40.1489

> <Gold.PLP.part.repulsive>
0.1724

> <Gold.PLP.ligand.clash>
0.0000

> <Gold.PLP.ligand.torsion>
0.4293

> <Gold.PLP.Chemscore.Hbond>
1.0000

> <Gold.PLP.Chemscore.CHOScore>
0.0000

> <Gold.PLP.Chemscore.Metal>
0.0000

> <Gold.Chemscore.Hbonds>
donor molecule, donor type, donor heavy atom, donor atom, acceptor molecule, acceptor atom, score
      P1  H  7997  8010       L1    11  0.99

> <Gold.PLP.Chemscore.Internal.Correction>
0.0650

> <Gold.Rescore>
     Score         DG    S(hbond)    S(metal)    S(lipo)     H(rot)  DE(clash)    DE(int)     intcor
     14.57     -16.68       0.86        0.00     102.29       1.42       0.04       2.07       ----

> <Gold.Chemscore.Fitness>
14.5734

> <Gold.Chemscore.DG>
-16.6832

> <Gold.Chemscore.ZeroCoef>
-5.4800

> <Gold.Chemscore.Hbond>
0.8580

> <Gold.Chemscore.Metal>
0.0000

> <Gold.Chemscore.Lipo>
102.2924

> <Gold.Chemscore.Internal_Hbond>
0.0000

> <Gold.Chemscore.DEClash>
0.0440

> <Gold.Chemscore.DEInternal>
2.0658

> <Gold.Chemscore.Rot>
1.4183

> <Gold.Chemscore.Internal.Correction>
   9.000000E+99

> <Gold.Chemscore.Hbonds>
donor molecule, donor type, donor heavy atom, donor atom, acceptor molecule, acceptor atom, score
      P1  H  7997  8010       L1    11  0.82

> <Gold.Chemscore.Hbond.Weighted>
-2.8659

> <Gold.Chemscore.Metal.Weighted>
-0.0000

> <Gold.Chemscore.Lipo.Weighted>
-11.9682

> <Gold.Chemscore.Internal_Hbond.Weighted>
0.0000

> <Gold.Chemscore.DEClash.Weighted>
0.0440

> <Gold.Chemscore.DEInternal.Weighted>
2.0658

> <Gold.Chemscore.Rot.Weighted>
3.6309

> <Gold.Chemscore.Internal.Correction.Weighted>
   9.000000E+99

> <Gold.Protein.RotatedTorsions>
[ 6907 6896 6895 6894 ] final  149.91 input  -60.11 | X-H torsion
[ 7974 7965 7964 7962 ] final   96.43 input  175.53 | X-H torsion
[ 8008 7997 7996 7995 ] final   17.65 input   59.86 | X-H torsion
[ 10167 10162 10161 10158 ] final -116.09 input  -65.29 | X-H torsion
[ 10718 10713 10712 10709 ] final   -8.55 input   66.30 | X-H torsion
[ 10763 10752 10751 10750 ] final  157.63 input  -60.55 | X-H torsion
[ 11005 11000 10999 10996 ] final  -26.02 input  -57.11 | X-H torsion

> <Gold.Protein.ActiveResidues>
 VAL166  LYS551  ARG553  GLY616  TRP617  ASP618  TYR619  PRO620  LYS621  CYS622 
 ASP623  PHE694  ASN695  SER759  ASP760  ASP761  ALA762  ILE779  LEU786  VAL792 
 PHE793  MET794  SER795  GLU796  ALA797  LYS798  CYS799  TRP800  GLU811  SER814 

> <Gold.Protein.RotatedAtoms>
  152.1216  133.4357  159.4678 H   0  0  0  0  0  0  0  0  0  0  0  0  # atno 6907 bound_to 6896
  150.6872  134.2527  159.4526 H   0  0  0  0  0  0  0  0  0  0  0  0  # atno 6908 bound_to 6896
  152.0404  134.9714  160.0624 H   0  0  0  0  0  0  0  0  0  0  0  0  # atno 6909 bound_to 6896
  145.4389  139.2303  143.3103 H   0  0  0  0  0  0  0  0  0  0  0  0  # atno 7974 bound_to 7965
  154.8946  140.2992  155.5351 H   0  0  0  0  0  0  0  0  0  0  0  0  # atno 8008 bound_to 7997
  156.3020  140.2418  156.3900 H   0  0  0  0  0  0  0  0  0  0  0  0  # atno 8009 bound_to 7997
  154.8584  140.0406  157.1638 H   0  0  0  0  0  0  0  0  0  0  0  0  # atno 8010 bound_to 7997
  140.0830  143.4770  152.1915 H   0  0  0  0  0  0  0  0  0  0  0  0  # atno 10167 bound_to 10162
  156.7009  130.5093  149.5917 H   0  0  0  0  0  0  0  0  0  0  0  0  # atno 10718 bound_to 10713
  154.2032  135.2789  155.2983 H   0  0  0  0  0  0  0  0  0  0  0  0  # atno 10763 bound_to 10752
  154.5837  135.5581  153.7214 H   0  0  0  0  0  0  0  0  0  0  0  0  # atno 10764 bound_to 10752
  153.0082  135.6351  154.2171 H   0  0  0  0  0  0  0  0  0  0  0  0  # atno 10765 bound_to 10752
  140.8991  133.7536  156.0520 H   0  0  0  0  0  0  0  0  0  0  0  0  # atno 11005 bound_to 11000
  146.2567  140.5135  142.8871 LP  0  0  0  0  0  0  0  0  0  0  0  0  # atno 17320 bound_to 7965
  144.8134  140.6425  143.6400 LP  0  0  0  0  0  0  0  0  0  0  0  0  # atno 17321 bound_to 7965
  139.5769  144.7491  151.3742 LP  0  0  0  0  0  0  0  0  0  0  0  0  # atno 17342 bound_to 10162
  140.7068  143.7493  150.7496 LP  0  0  0  0  0  0  0  0  0  0  0  0  # atno 17343 bound_to 10162
  156.1729  130.6449  151.0859 LP  0  0  0  0  0  0  0  0  0  0  0  0  # atno 17370 bound_to 10713
  157.6973  131.0789  150.6929 LP  0  0  0  0  0  0  0  0  0  0  0  0  # atno 17371 bound_to 10713
  140.8252  134.3242  157.5368 LP  0  0  0  0  0  0  0  0  0  0  0  0  # atno 17394 bound_to 11000
  139.8739  134.9332  156.3574 LP  0  0  0  0  0  0  0  0  0  0  0  0  # atno 17395 bound_to 11000

$$$$
