AV-unprocessed.smi:626|AV-procd|sdf|3112|dock4
  -GOLD-   22720 0 33D 1   1.00000     0.00000
 Structure written by MMmdl.
 34 36  0  0  0  0  0  0  0  0  1 V2000
  149.3792  136.4832  155.2099 C   0  0  0  0  0  0  0  0  0  0  0  0
  150.3772  137.5362  155.1028 N   0  0  0  0  0  0  0  0  0  0  0  0
  151.6135  137.4593  155.6174 C   0  0  0  0  0  0  0  0  0  0  0  0
  152.0247  136.4822  156.2438 O   0  0  0  0  0  0  0  0  0  0  0  0
  152.5273  138.6662  155.3925 C   0  0  0  0  0  0  0  0  0  0  0  0
  151.9008  139.9119  155.9327 C   0  0  0  0  0  0  0  0  0  0  0  0
  150.9548  140.5578  155.2608 N   0  0  0  0  0  0  0  0  0  0  0  0
  150.6371  141.6329  156.1028 O   0  0  0  0  0  0  0  0  0  0  0  0
  151.4610  141.5257  157.1737 C   0  0  0  0  0  0  0  0  0  0  0  0
  151.2866  142.4886  158.3087 C   0  0  1  0  0  0  0  0  0  0  0  0
  152.2655  142.2703  159.4814 C   0  0  0  0  0  0  0  0  0  0  0  0
  152.8347  143.6833  159.7114 C   0  0  2  0  0  0  0  0  0  0  0  0
  151.7303  144.6117  160.2542 C   0  0  0  0  0  0  0  0  0  0  0  0
  150.8416  144.8488  159.0162 C   0  0  0  0  0  0  0  0  0  0  0  0
  151.5184  143.9734  157.9440 C   0  0  1  0  0  0  0  0  0  0  0  0
  152.9925  144.1863  158.2821 C   0  0  0  0  0  0  0  0  0  0  0  0
  152.2355  140.4426  157.1410 N   0  0  0  0  0  0  0  0  0  0  0  0
  148.4319  136.8246  154.7929 H   0  0  0  0  0  0  0  0  0  0  0  0
  149.2117  136.2058  156.2516 H   0  0  0  0  0  0  0  0  0  0  0  0
  149.6950  135.5962  154.6594 H   0  0  0  0  0  0  0  0  0  0  0  0
  150.1154  138.3722  154.6003 H   0  0  0  0  0  0  0  0  0  0  0  0
  153.4985  138.5091  155.8643 H   0  0  0  0  0  0  0  0  0  0  0  0
  152.7106  138.7820  154.3234 H   0  0  0  0  0  0  0  0  0  0  0  0
  150.2627  142.3644  158.6650 H   0  0  0  0  0  0  0  0  0  0  0  0
  151.7755  141.8607  160.3653 H   0  0  0  0  0  0  0  0  0  0  0  0
  153.0699  141.5880  159.2017 H   0  0  0  0  0  0  0  0  0  0  0  0
  153.7484  143.6938  160.3063 H   0  0  0  0  0  0  0  0  0  0  0  0
  151.1813  144.1570  161.0797 H   0  0  0  0  0  0  0  0  0  0  0  0
  152.1506  145.5532  160.6096 H   0  0  0  0  0  0  0  0  0  0  0  0
  149.8001  144.5751  159.1889 H   0  0  0  0  0  0  0  0  0  0  0  0
  150.8643  145.8998  158.7256 H   0  0  0  0  0  0  0  0  0  0  0  0
  151.2227  144.2373  156.9278 H   0  0  0  0  0  0  0  0  0  0  0  0
  153.3046  145.2306  158.2222 H   0  0  0  0  0  0  0  0  0  0  0  0
  153.6724  143.5785  157.6834 H   0  0  0  0  0  0  0  0  0  0  0  0
  1  2  1  0  0  0  0
  1 18  1  0  0  0  0
  1 19  1  0  0  0  0
  1 20  1  0  0  0  0
  2  3  1  0  0  0  0
  2 21  1  0  0  0  0
  3  4  2  0  0  0  0
  3  5  1  0  0  0  0
  5  6  1  0  0  0  0
  5 22  1  0  0  0  0
  5 23  1  0  0  0  0
  6 17  1  0  0  0  0
  6  7  2  0  0  0  0
  7  8  1  0  0  0  0
  8  9  1  0  0  0  0
  9 10  1  0  0  0  0
  9 17  2  0  0  0  0
 10 15  1  0  0  0  0
 10 11  1  0  0  0  0
 10 24  1  0  0  0  0
 11 12  1  0  0  0  0
 11 25  1  0  0  0  0
 11 26  1  0  0  0  0
 12 16  1  0  0  0  0
 12 13  1  0  0  0  0
 12 27  1  0  0  0  0
 13 14  1  0  0  0  0
 13 28  1  0  0  0  0
 13 29  1  0  0  0  0
 14 15  1  0  0  0  0
 14 30  1  0  0  0  0
 14 31  1  0  0  0  0
 15 16  1  0  0  0  0
 15 32  1  0  0  0  0
 16 33  1  0  0  0  0
 16 34  1  0  0  0  0
M  END
> <s_m_source_file>
AV-unprocessed.smi

> <i_m_source_file_index>
626

> <i_lp_mmshare_version>
43012

> <i_f3d_flags>
0

> <s_epik_input>
W0NIM11bTkhdQyg9TylbQ0gyXWMxbm9jKG4xKVtDQEhdKFtDSDJdW0NAQEhdMjMpW0NAQEhdKFtDSDJdMylbQ0gyXVtDSDJdMg==

> <s_epik_cmdline>
J2VwaWtfcHl0aG9uJywgJy1waCcsICc3LjAnLCAnLXRuJywgJzgnLCAnLW1hJywgJzIwMCcsICctbWV0YWxfYmluZGluZycsICctaW1hZScsICc8aW5maWxlLm1hZT4nLCAnLW9tYWUnLCAnPG91dGZpbGUubWFlPic=

> <r_lp_tautomer_probability>
1

> <r_epik_Ionization_Penalty>
1.02916e-07

> <r_epik_Ionization_Penalty_Charging>
0

> <r_epik_Ionization_Penalty_Neutral>
1.02916e-07

> <r_epik_State_Penalty>
-0

> <r_epik_Charging_Adjusted_Penalty>
0

> <i_epik_Tot_Q>
0

> <i_epik_Tot_abs_Q>
0

> <r_epik_Metal_State_Penalty>
-0

> <b_epik_Metal_Only>
0

> <s_lp_Force_Field>
OPLS_2005

> <r_lp_Energy>
48.5493

> <b_lp_Chiralities_Consistent>
1

> <s_lp_Variant>
AV-unprocessed.smi:626-4

> <Gold.Version>
5.8.1

> <Gold.Id.Protein>
6NUR|6NUR_protein|mol2

> <Gold.PLP.Fitness>
43.3737

> <Gold.PLP.PLP>
-37.2667

> <Gold.PLP.part.hbond>
-2.7180

> <Gold.PLP.part.metal>
0.0000

> <Gold.PLP.part.buried>
-4.7042

> <Gold.PLP.part.nonpolar>
-30.7957

> <Gold.PLP.part.repulsive>
0.1803

> <Gold.PLP.ligand.clash>
0.0000

> <Gold.PLP.ligand.torsion>
0.3425

> <Gold.PLP.Chemscore.Hbond>
2.2352

> <Gold.PLP.Chemscore.CHOScore>
0.0000

> <Gold.PLP.Chemscore.Metal>
0.0000

> <Gold.Chemscore.Hbonds>
donor molecule, donor type, donor heavy atom, donor atom, acceptor molecule, acceptor atom, score
      P1  H  7989  7998       L1     7  0.94
      P1  H  7997  8010       L1    17  0.23
      P1  H 10752 10765       L1     4  1.00

> <Gold.PLP.Chemscore.Internal.Correction>
0.0865

> <Gold.Rescore>
     Score         DG    S(hbond)    S(metal)    S(lipo)     H(rot)  DE(clash)    DE(int)     intcor
     16.62     -17.12       1.53        0.00      91.06       1.61       0.07       0.43       ----

> <Gold.Chemscore.Fitness>
16.6208

> <Gold.Chemscore.DG>
-17.1185

> <Gold.Chemscore.ZeroCoef>
-5.4800

> <Gold.Chemscore.Hbond>
1.5304

> <Gold.Chemscore.Metal>
0.0000

> <Gold.Chemscore.Lipo>
91.0563

> <Gold.Chemscore.Internal_Hbond>
0.0000

> <Gold.Chemscore.DEClash>
0.0725

> <Gold.Chemscore.DEInternal>
0.4252

> <Gold.Chemscore.Rot>
1.6119

> <Gold.Chemscore.Internal.Correction>
   9.000000E+99

> <Gold.Chemscore.Hbonds>
donor molecule, donor type, donor heavy atom, donor atom, acceptor molecule, acceptor atom, score
      P1  H  7989  7998       L1     7  0.53
      P1  H  7997  8010       L1    17  0.01
      P1  H 10752 10765       L1     4  0.55

> <Gold.Chemscore.Hbond.Weighted>
-5.1115

> <Gold.Chemscore.Metal.Weighted>
-0.0000

> <Gold.Chemscore.Lipo.Weighted>
-10.6536

> <Gold.Chemscore.Internal_Hbond.Weighted>
0.0000

> <Gold.Chemscore.DEClash.Weighted>
0.0725

> <Gold.Chemscore.DEInternal.Weighted>
0.4252

> <Gold.Chemscore.Rot.Weighted>
4.1266

> <Gold.Chemscore.Internal.Correction.Weighted>
   9.000000E+99

> <Gold.Protein.RotatedTorsions>
[ 6907 6896 6895 6894 ] final   12.98 input  -60.11 | X-H torsion
[ 7974 7965 7964 7962 ] final   84.35 input  175.53 | X-H torsion
[ 8008 7997 7996 7995 ] final   55.49 input   59.86 | X-H torsion
[ 10167 10162 10161 10158 ] final    2.36 input  -65.29 | X-H torsion
[ 10718 10713 10712 10709 ] final  127.82 input   66.30 | X-H torsion
[ 10763 10752 10751 10750 ] final -152.42 input  -60.55 | X-H torsion
[ 11005 11000 10999 10996 ] final -121.75 input  -57.11 | X-H torsion

> <Gold.Protein.ActiveResidues>
 VAL166  LYS551  ARG553  GLY616  TRP617  ASP618  TYR619  PRO620  LYS621  CYS622 
 ASP623  PHE694  ASN695  SER759  ASP760  ASP761  ALA762  ILE779  LEU786  VAL792 
 PHE793  MET794  SER795  GLU796  ALA797  LYS798  CYS799  TRP800  GLU811  SER814 

> <Gold.Protein.RotatedAtoms>
  151.7790  135.0766  160.0370 H   0  0  0  0  0  0  0  0  0  0  0  0  # atno 6907 bound_to 6896
  152.3236  133.5876  159.5770 H   0  0  0  0  0  0  0  0  0  0  0  0  # atno 6908 bound_to 6896
  150.7383  133.9890  159.3642 H   0  0  0  0  0  0  0  0  0  0  0  0  # atno 6909 bound_to 6896
  145.5999  139.2351  143.2251 H   0  0  0  0  0  0  0  0  0  0  0  0  # atno 7974 bound_to 7965
  155.5020  140.3474  155.4373 H   0  0  0  0  0  0  0  0  0  0  0  0  # atno 8008 bound_to 7997
  156.0907  140.1410  156.9623 H   0  0  0  0  0  0  0  0  0  0  0  0  # atno 8009 bound_to 7997
  154.4633  140.0927  156.6930 H   0  0  0  0  0  0  0  0  0  0  0  0  # atno 8010 bound_to 7997
  140.6638  143.7233  150.7789 H   0  0  0  0  0  0  0  0  0  0  0  0  # atno 10167 bound_to 10162
  157.5299  131.1098  150.9024 H   0  0  0  0  0  0  0  0  0  0  0  0  # atno 10718 bound_to 10713
  154.7995  135.3236  154.7585 H   0  0  0  0  0  0  0  0  0  0  0  0  # atno 10763 bound_to 10752
  153.8256  135.6884  153.4825 H   0  0  0  0  0  0  0  0  0  0  0  0  # atno 10764 bound_to 10752
  153.1704  135.4625  154.9837 H   0  0  0  0  0  0  0  0  0  0  0  0  # atno 10765 bound_to 10752
  141.0047  134.0352  157.3493 H   0  0  0  0  0  0  0  0  0  0  0  0  # atno 11005 bound_to 11000
  146.1584  140.6824  142.9289 LP  0  0  0  0  0  0  0  0  0  0  0  0  # atno 17320 bound_to 7965
  144.7314  140.4683  143.6935 LP  0  0  0  0  0  0  0  0  0  0  0  0  # atno 17321 bound_to 7965
  140.0906  143.4881  152.2480 LP  0  0  0  0  0  0  0  0  0  0  0  0  # atno 17342 bound_to 10162
  139.5881  144.7539  151.3470 LP  0  0  0  0  0  0  0  0  0  0  0  0  # atno 17343 bound_to 10162
  156.9609  130.5455  149.5286 LP  0  0  0  0  0  0  0  0  0  0  0  0  # atno 17370 bound_to 10713
  156.0415  130.5497  150.8781 LP  0  0  0  0  0  0  0  0  0  0  0  0  # atno 17371 bound_to 10713
  139.9057  135.0178  156.7474 LP  0  0  0  0  0  0  0  0  0  0  0  0  # atno 17394 bound_to 11000
  140.6832  133.9455  155.7923 LP  0  0  0  0  0  0  0  0  0  0  0  0  # atno 17395 bound_to 11000

$$$$
