AV-unprocessed.smi:3028|AV-procd|sdf|11524|dock2
  -GOLD-   2272016463D 1   1.00000     0.00000
 Structure written by MMmdl.
 47 48  0  0  0  0  0  0  0  0  1 V2000
  146.9468  141.4543  154.2818 C   0  0  0  0  0  0  0  0  0  0  0  0
  148.2884  140.7947  154.4233 C   0  0  0  0  0  0  0  0  0  0  0  0
  149.5057  141.3765  154.8779 C   0  0  0  0  0  0  0  0  0  0  0  0
  150.5135  140.5203  154.8844 N   0  0  0  0  0  0  0  0  0  0  0  0
  149.9790  139.3616  154.4369 N   0  0  0  0  0  0  0  0  0  0  0  0
  150.8083  138.1692  154.3113 C   0  0  1  0  0  0  0  0  0  0  0  0
  152.2811  138.5204  154.5991 C   0  0  0  0  0  0  0  0  0  0  0  0
  150.2800  137.0033  155.1907 C   0  0  1  0  0  0  0  0  0  0  0  0
  150.0177  137.4082  156.6532 C   0  0  0  0  0  0  0  0  0  0  0  0
  149.0119  136.5202  154.6517 N   0  0  0  0  0  0  0  0  0  0  0  0
  148.7471  135.1259  155.0304 C   0  0  0  0  0  0  0  0  0  0  0  0
  147.4212  134.5896  154.4694 C   0  0  0  0  0  0  0  0  0  0  0  0
  146.5299  134.2155  155.2309 O   0  0  0  0  0  0  0  0  0  0  0  0
  147.2468  134.5458  153.1374 N   0  0  0  0  0  0  0  0  0  0  0  0
  146.0710  134.0751  152.4076 C   0  0  0  0  0  0  0  0  0  0  0  0
  146.4097  132.7787  151.6567 C   0  0  0  0  0  0  0  0  0  0  0  0
  145.2341  132.3456  150.7651 C   0  0  0  0  0  0  0  0  0  0  0  0
  144.8973  133.3921  149.8606 O   0  0  0  0  0  0  0  0  0  0  0  0
  144.4653  134.5780  150.5193 C   0  0  0  0  0  0  0  0  0  0  0  0
  145.5970  135.1346  151.3981 C   0  0  0  0  0  0  0  0  0  0  0  0
  148.6368  139.5020  154.1507 C   0  0  0  0  0  0  0  0  0  0  0  0
  146.9980  142.5246  154.4826 H   0  0  0  0  0  0  0  0  0  0  0  0
  146.2171  141.0324  154.9731 H   0  0  0  0  0  0  0  0  0  0  0  0
  146.5441  141.3356  153.2756 H   0  0  0  0  0  0  0  0  0  0  0  0
  149.6857  142.3912  155.2014 H   0  0  0  0  0  0  0  0  0  0  0  0
  150.7445  137.8588  153.2668 H   0  0  0  0  0  0  0  0  0  0  0  0
  152.9427  137.6849  154.3701 H   0  0  0  0  0  0  0  0  0  0  0  0
  152.4327  138.7864  155.6457 H   0  0  0  0  0  0  0  0  0  0  0  0
  152.6077  139.3645  153.9908 H   0  0  0  0  0  0  0  0  0  0  0  0
  151.0252  136.2051  155.2051 H   0  0  0  0  0  0  0  0  0  0  0  0
  150.9360  137.7043  157.1604 H   0  0  0  0  0  0  0  0  0  0  0  0
  149.5952  136.5779  157.2207 H   0  0  0  0  0  0  0  0  0  0  0  0
  149.3193  138.2436  156.7163 H   0  0  0  0  0  0  0  0  0  0  0  0
  149.0069  136.6387  153.6486 H   0  0  0  0  0  0  0  0  0  0  0  0
  149.5570  134.4910  154.6687 H   0  0  0  0  0  0  0  0  0  0  0  0
  148.7312  135.0541  156.1182 H   0  0  0  0  0  0  0  0  0  0  0  0
  148.0138  134.8771  152.5702 H   0  0  0  0  0  0  0  0  0  0  0  0
  145.2577  133.8517  153.0994 H   0  0  0  0  0  0  0  0  0  0  0  0
  147.2938  132.9280  151.0349 H   0  0  0  0  0  0  0  0  0  0  0  0
  146.6545  131.9848  152.3634 H   0  0  0  0  0  0  0  0  0  0  0  0
  145.5057  131.4589  150.1919 H   0  0  0  0  0  0  0  0  0  0  0  0
  144.3653  132.0795  151.3691 H   0  0  0  0  0  0  0  0  0  0  0  0
  144.1792  135.3138  149.7674 H   0  0  0  0  0  0  0  0  0  0  0  0
  143.5759  134.3715  151.1166 H   0  0  0  0  0  0  0  0  0  0  0  0
  145.2581  136.0338  151.9128 H   0  0  0  0  0  0  0  0  0  0  0  0
  146.4287  135.4372  150.7600 H   0  0  0  0  0  0  0  0  0  0  0  0
  148.0451  138.6775  153.7810 H   0  0  0  0  0  0  0  0  0  0  0  0
  1  2  1  0  0  0  0
  1 22  1  0  0  0  0
  1 23  1  0  0  0  0
  1 24  1  0  0  0  0
  2 21  2  0  0  0  0
  2  3  1  0  0  0  0
  3  4  2  0  0  0  0
  3 25  1  0  0  0  0
  4  5  1  0  0  0  0
  5  6  1  0  0  0  0
  5 21  1  0  0  0  0
  6  7  1  0  0  0  0
  6  8  1  0  0  0  0
  6 26  1  0  0  0  0
  7 27  1  0  0  0  0
  7 28  1  0  0  0  0
  7 29  1  0  0  0  0
  8  9  1  0  0  0  0
  8 10  1  0  0  0  0
  8 30  1  0  0  0  0
  9 31  1  0  0  0  0
  9 32  1  0  0  0  0
  9 33  1  0  0  0  0
 10 11  1  0  0  0  0
 10 34  1  0  0  0  0
 11 12  1  0  0  0  0
 11 35  1  0  0  0  0
 11 36  1  0  0  0  0
 12 13  2  0  0  0  0
 12 14  1  0  0  0  0
 14 15  1  0  0  0  0
 14 37  1  0  0  0  0
 15 20  1  0  0  0  0
 15 16  1  0  0  0  0
 15 38  1  0  0  0  0
 16 17  1  0  0  0  0
 16 39  1  0  0  0  0
 16 40  1  0  0  0  0
 17 18  1  0  0  0  0
 17 41  1  0  0  0  0
 17 42  1  0  0  0  0
 18 19  1  0  0  0  0
 19 20  1  0  0  0  0
 19 43  1  0  0  0  0
 19 44  1  0  0  0  0
 20 45  1  0  0  0  0
 20 46  1  0  0  0  0
 21 47  1  0  0  0  0
M  END
> <s_m_source_file>
AV-unprocessed.smi

> <i_m_source_file_index>
3028

> <i_lp_mmshare_version>
43012

> <i_f3d_flags>
0

> <s_epik_input>
W0NIM11jMVtjSF1ubihbY0hdMSlbQ0BIXShbQ0gzXSlbQ0BIXShbQ0gzXSlbTkhdW0NIMl1DKD1PKVtOSF1bQ0hdMltDSDJdW0NIMl1PW0NIMl1bQ0gyXTI=

> <s_epik_cmdline>
J2VwaWtfcHl0aG9uJywgJy1waCcsICc3LjAnLCAnLXRuJywgJzgnLCAnLW1hJywgJzIwMCcsICctbWV0YWxfYmluZGluZycsICctaW1hZScsICc8aW5maWxlLm1hZT4nLCAnLW9tYWUnLCAnPG91dGZpbGUubWFlPic=

> <r_lp_tautomer_probability>
1

> <r_epik_Ionization_Penalty>
0.88617

> <r_epik_Ionization_Penalty_Charging>
0

> <r_epik_Ionization_Penalty_Neutral>
0.88617

> <r_epik_State_Penalty>
0.921066

> <r_epik_Charging_Adjusted_Penalty>
0.921066

> <i_epik_Tot_Q>
0

> <i_epik_Tot_abs_Q>
0

> <r_epik_Metal_State_Penalty>
0.917309

> <b_epik_Metal_Only>
0

> <s_lp_Force_Field>
OPLS_2005

> <r_lp_Energy>
18.7055

> <b_lp_Chiralities_Consistent>
1

> <s_lp_Variant>
AV-unprocessed.smi:3028-8

> <Gold.Version>
5.8.1

> <Gold.Id.Protein>
6NUR|6NUR_protein|mol2

> <Gold.PLP.Fitness>
49.0451

> <Gold.PLP.PLP>
-37.8098

> <Gold.PLP.part.hbond>
-3.0000

> <Gold.PLP.part.metal>
0.0000

> <Gold.PLP.part.buried>
-5.7238

> <Gold.PLP.part.nonpolar>
-30.4511

> <Gold.PLP.part.repulsive>
1.3641

> <Gold.PLP.ligand.clash>
0.0000

> <Gold.PLP.ligand.torsion>
0.4740

> <Gold.PLP.Chemscore.Hbond>
3.0000

> <Gold.PLP.Chemscore.CHOScore>
1.0000

> <Gold.PLP.Chemscore.Metal>
0.0000

> <Gold.Chemscore.Hbonds>
donor molecule, donor type, donor heavy atom, donor atom, acceptor molecule, acceptor atom, score
      L1  H    10    34       P1  7948  1.00
      L1  H    14    37       P1  7948  1.00
      P1  H  7989  7998       L1     4  0.95
      L1  C     3    25       P1  8028  1.00

> <Gold.PLP.Chemscore.Internal.Correction>
0.1833

> <Gold.Rescore>
     Score         DG    S(hbond)    S(metal)    S(lipo)     H(rot)  DE(clash)    DE(int)     intcor
     16.97     -18.72       2.42        0.00      86.06       1.92       0.35       1.40       ----

> <Gold.Chemscore.Fitness>
16.9718

> <Gold.Chemscore.DG>
-18.7224

> <Gold.Chemscore.ZeroCoef>
-5.4800

> <Gold.Chemscore.Hbond>
2.4244

> <Gold.Chemscore.Metal>
0.0000

> <Gold.Chemscore.Lipo>
86.0566

> <Gold.Chemscore.Internal_Hbond>
0.0000

> <Gold.Chemscore.DEClash>
0.3457

> <Gold.Chemscore.DEInternal>
1.4049

> <Gold.Chemscore.Rot>
1.9233

> <Gold.Chemscore.Internal.Correction>
   9.000000E+99

> <Gold.Chemscore.Hbonds>
donor molecule, donor type, donor heavy atom, donor atom, acceptor molecule, acceptor atom, score
      L1  H    10    34       P1  7948  0.99
      L1  H    14    37       P1  7948  0.75
      P1  H  7989  7998       L1     4  0.14

> <Gold.Chemscore.Hbond.Weighted>
-8.0974

> <Gold.Chemscore.Metal.Weighted>
-0.0000

> <Gold.Chemscore.Lipo.Weighted>
-10.0686

> <Gold.Chemscore.Internal_Hbond.Weighted>
0.0000

> <Gold.Chemscore.DEClash.Weighted>
0.3457

> <Gold.Chemscore.DEInternal.Weighted>
1.4049

> <Gold.Chemscore.Rot.Weighted>
4.9235

> <Gold.Chemscore.Internal.Correction.Weighted>
   9.000000E+99

> <Gold.Protein.RotatedTorsions>
[ 6907 6896 6895 6894 ] final -125.74 input  -60.11 | X-H torsion
[ 7974 7965 7964 7962 ] final  -10.15 input  175.53 | X-H torsion
[ 8008 7997 7996 7995 ] final   39.56 input   59.86 | X-H torsion
[ 10167 10162 10161 10158 ] final   21.41 input  -65.29 | X-H torsion
[ 10718 10713 10712 10709 ] final  169.21 input   66.30 | X-H torsion
[ 10763 10752 10751 10750 ] final -168.49 input  -60.55 | X-H torsion
[ 11005 11000 10999 10996 ] final  -51.56 input  -57.11 | X-H torsion

> <Gold.Protein.ActiveResidues>
 VAL166  LYS551  ARG553  GLY616  TRP617  ASP618  TYR619  PRO620  LYS621  CYS622 
 ASP623  PHE694  ASN695  SER759  ASP760  ASP761  ALA762  ILE779  LEU786  VAL792 
 PHE793  MET794  SER795  GLU796  ALA797  LYS798  CYS799  TRP800  GLU811  SER814 

> <Gold.Protein.RotatedAtoms>
  150.8898  133.7258  159.2907 H   0  0  0  0  0  0  0  0  0  0  0  0  # atno 6907 bound_to 6896
  151.4812  135.1051  159.9788 H   0  0  0  0  0  0  0  0  0  0  0  0  # atno 6908 bound_to 6896
  152.4813  133.8214  159.7111 H   0  0  0  0  0  0  0  0  0  0  0  0  # atno 6909 bound_to 6896
  146.2230  140.2722  142.8357 H   0  0  0  0  0  0  0  0  0  0  0  0  # atno 7974 bound_to 7965
  155.2387  140.3344  155.4295 H   0  0  0  0  0  0  0  0  0  0  0  0  # atno 8008 bound_to 7997
  156.2265  140.1831  156.7396 H   0  0  0  0  0  0  0  0  0  0  0  0  # atno 8009 bound_to 7997
  154.5907  140.0638  156.9219 H   0  0  0  0  0  0  0  0  0  0  0  0  # atno 8010 bound_to 7997
  140.5429  143.9645  150.6530 H   0  0  0  0  0  0  0  0  0  0  0  0  # atno 10167 bound_to 10162
  157.0259  131.0245  151.2760 H   0  0  0  0  0  0  0  0  0  0  0  0  # atno 10718 bound_to 10713
  154.6623  135.2927  154.9850 H   0  0  0  0  0  0  0  0  0  0  0  0  # atno 10763 bound_to 10752
  154.0905  135.6591  153.4856 H   0  0  0  0  0  0  0  0  0  0  0  0  # atno 10764 bound_to 10752
  153.0437  135.5219  154.7580 H   0  0  0  0  0  0  0  0  0  0  0  0  # atno 10765 bound_to 10752
  141.0878  133.6639  156.3895 H   0  0  0  0  0  0  0  0  0  0  0  0  # atno 11005 bound_to 11000
  144.9259  140.7921  143.5719 LP  0  0  0  0  0  0  0  0  0  0  0  0  # atno 17320 bound_to 7965
  145.2662  139.1972  143.4866 LP  0  0  0  0  0  0  0  0  0  0  0  0  # atno 17321 bound_to 7965
  140.3051  143.3235  152.0934 LP  0  0  0  0  0  0  0  0  0  0  0  0  # atno 17342 bound_to 10162
  139.4996  144.6672  151.6328 LP  0  0  0  0  0  0  0  0  0  0  0  0  # atno 17343 bound_to 10162
  157.5214  130.8000  149.7814 LP  0  0  0  0  0  0  0  0  0  0  0  0  # atno 17370 bound_to 10713
  156.0086  130.3844  150.2343 LP  0  0  0  0  0  0  0  0  0  0  0  0  # atno 17371 bound_to 10713
  140.5323  134.6200  157.5354 LP  0  0  0  0  0  0  0  0  0  0  0  0  # atno 17394 bound_to 11000
  139.9698  134.7311  156.0064 LP  0  0  0  0  0  0  0  0  0  0  0  0  # atno 17395 bound_to 11000

$$$$
