AV-unprocessed.smi:3121|AV-procd|sdf|11895|dock3
  -GOLD-   2272017283D 1   1.00000     0.00000
 Structure written by MMmdl.
 24 25  0  0  0  0  0  0  0  0  2 V2000
  153.5967  142.0161  161.0003 C   0  0  0  0  0  0  0  0  0  0  0  0
  152.7660  143.1483  160.9007 C   0  0  0  0  0  0  0  0  0  0  0  0
  151.9354  143.2830  159.7713 C   0  0  0  0  0  0  0  0  0  0  0  0
  151.9700  142.2749  158.7833 C   0  0  0  0  0  0  0  0  0  0  0  0
  151.0978  142.3796  157.5401 C   0  0  1  0  0  0  0  0  0  0  0  0
  151.3009  141.2920  156.4884 C   0  0  0  0  0  0  0  0  0  0  0  0
  150.0275  141.3904  155.6363 C   0  0  0  0  0  0  0  0  0  0  0  0
  149.0030  142.0600  156.4689 N   0  3  0  0  0  0  0  0  0  0  0  0
  149.5916  142.3309  157.7931 C   0  0  0  0  0  0  0  0  0  0  0  0
  152.7676  141.1856  158.8748 N   0  0  0  0  0  0  0  0  0  0  0  0
  153.5608  141.0654  159.9614 C   0  0  0  0  0  0  0  0  0  0  0  0
  154.2472  141.8803  161.8518 H   0  0  0  0  0  0  0  0  0  0  0  0
  152.7669  143.9003  161.6760 H   0  0  0  0  0  0  0  0  0  0  0  0
  151.2902  144.1434  159.6703 H   0  0  0  0  0  0  0  0  0  0  0  0
  151.3159  143.3371  157.0629 H   0  0  0  0  0  0  0  0  0  0  0  0
  152.2173  141.4215  155.9120 H   0  0  0  0  0  0  0  0  0  0  0  0
  151.3391  140.3093  156.9605 H   0  0  0  0  0  0  0  0  0  0  0  0
  150.2042  141.9984  154.7486 H   0  0  0  0  0  0  0  0  0  0  0  0
  149.6852  140.4088  155.3076 H   0  0  0  0  0  0  0  0  0  0  0  0
  148.7596  142.9373  156.0313 H   0  0  0  0  0  0  0  0  0  0  0  0
  149.3337  141.5010  158.4524 H   0  0  0  0  0  0  0  0  0  0  0  0
  149.2021  143.2486  158.2347 H   0  0  0  0  0  0  0  0  0  0  0  0
  154.1859  140.1857  160.0043 H   0  0  0  0  0  0  0  0  0  0  0  0
  148.1774  141.4853  156.5601 H   0  0  0  0  0  0  0  0  0  0  0  0
  1 11  1  0  0  0  0
  1  2  2  0  0  0  0
  1 12  1  0  0  0  0
  2  3  1  0  0  0  0
  2 13  1  0  0  0  0
  3  4  2  0  0  0  0
  3 14  1  0  0  0  0
  4  5  1  0  0  0  0
  4 10  1  0  0  0  0
  5  9  1  0  0  0  0
  5  6  1  0  0  0  0
  5 15  1  0  0  0  0
  6  7  1  0  0  0  0
  6 16  1  0  0  0  0
  6 17  1  0  0  0  0
  7  8  1  0  0  0  0
  7 18  1  0  0  0  0
  7 19  1  0  0  0  0
  8  9  1  0  0  0  0
  8 20  1  0  0  0  0
  8 24  1  0  0  0  0
  9 21  1  0  0  0  0
  9 22  1  0  0  0  0
 10 11  2  0  0  0  0
 11 23  1  0  0  0  0
M  CHG  1   8   1
M  END
> <s_m_source_file>
AV-unprocessed.smi

> <i_m_source_file_index>
3121

> <i_lp_mmshare_version>
43012

> <i_f3d_flags>
0

> <s_epik_input>
bjFbY0hdW2NIXVtjSF1bY0hdYzFbQ0BASF0yW0NIMl1bQ0gyXVtOSF1bQ0gyXTI=

> <s_epik_cmdline>
J2VwaWtfcHl0aG9uJywgJy1waCcsICc3LjAnLCAnLXRuJywgJzgnLCAnLW1hJywgJzIwMCcsICctbWV0YWxfYmluZGluZycsICctaW1hZScsICc8aW5maWxlLm1hZT4nLCAnLW9tYWUnLCAnPG91dGZpbGUubWFlPic=

> <r_lp_tautomer_probability>
1

> <r_epik_Ionization_Penalty>
0.00154319

> <r_epik_Ionization_Penalty_Charging>
0.000126521

> <r_epik_Ionization_Penalty_Neutral>
0.00141667

> <r_epik_State_Penalty>
-0

> <r_epik_Charging_Adjusted_Penalty>
0.000126521

> <i_epik_Tot_Q>
1

> <i_epik_Tot_abs_Q>
1

> <r_epik_Metal_State_Penalty>
-0

> <b_epik_Metal_Only>
0

> <s_lp_Force_Field>
OPLS_2005

> <r_lp_Energy>
22.4968

> <b_lp_Chiralities_Consistent>
1

> <s_lp_Variant>
AV-unprocessed.smi:3121-2

> <Gold.Version>
5.8.1

> <Gold.Id.Protein>
6NUR|6NUR_protein|mol2

> <Gold.PLP.Fitness>
32.5065

> <Gold.PLP.PLP>
-26.5835

> <Gold.PLP.part.hbond>
-1.0000

> <Gold.PLP.part.metal>
0.0000

> <Gold.PLP.part.buried>
-3.3559

> <Gold.PLP.part.nonpolar>
-22.0396

> <Gold.PLP.part.repulsive>
0.0258

> <Gold.PLP.ligand.clash>
0.0000

> <Gold.PLP.ligand.torsion>
0.0386

> <Gold.PLP.Chemscore.Hbond>
2.0000

> <Gold.PLP.Chemscore.CHOScore>
0.0000

> <Gold.PLP.Chemscore.Metal>
0.0000

> <Gold.Chemscore.Hbonds>
donor molecule, donor type, donor heavy atom, donor atom, acceptor molecule, acceptor atom, score
      L1  H     8    20       P1  8028  2.00

> <Gold.PLP.Chemscore.Internal.Correction>
0.0003

> <Gold.Rescore>
     Score         DG    S(hbond)    S(metal)    S(lipo)     H(rot)  DE(clash)    DE(int)     intcor
     15.71     -15.94       1.00        0.00      82.84       1.00       0.18       0.05       ----

> <Gold.Chemscore.Fitness>
15.7117

> <Gold.Chemscore.DG>
-15.9405

> <Gold.Chemscore.ZeroCoef>
-5.4800

> <Gold.Chemscore.Hbond>
0.9965

> <Gold.Chemscore.Metal>
0.0000

> <Gold.Chemscore.Lipo>
82.8376

> <Gold.Chemscore.Internal_Hbond>
0.0000

> <Gold.Chemscore.DEClash>
0.1771

> <Gold.Chemscore.DEInternal>
0.0516

> <Gold.Chemscore.Rot>
1.0000

> <Gold.Chemscore.Internal.Correction>
   9.000000E+99

> <Gold.Chemscore.Hbonds>
donor molecule, donor type, donor heavy atom, donor atom, acceptor molecule, acceptor atom, score
      L1  H     8    20       P1  8028  0.99

> <Gold.Chemscore.Hbond.Weighted>
-3.3285

> <Gold.Chemscore.Metal.Weighted>
-0.0000

> <Gold.Chemscore.Lipo.Weighted>
-9.6920

> <Gold.Chemscore.Internal_Hbond.Weighted>
0.0000

> <Gold.Chemscore.DEClash.Weighted>
0.1771

> <Gold.Chemscore.DEInternal.Weighted>
0.0516

> <Gold.Chemscore.Rot.Weighted>
2.5600

> <Gold.Chemscore.Internal.Correction.Weighted>
   9.000000E+99

> <Gold.Protein.RotatedTorsions>
[ 6907 6896 6895 6894 ] final  -90.41 input  -60.11 | X-H torsion
[ 7974 7965 7964 7962 ] final -100.18 input  175.53 | X-H torsion
[ 8008 7997 7996 7995 ] final   51.12 input   59.86 | X-H torsion
[ 10167 10162 10161 10158 ] final   49.37 input  -65.29 | X-H torsion
[ 10718 10713 10712 10709 ] final  -45.71 input   66.30 | X-H torsion
[ 10763 10752 10751 10750 ] final  -43.23 input  -60.55 | X-H torsion
[ 11005 11000 10999 10996 ] final  145.42 input  -57.11 | X-H torsion

> <Gold.Protein.ActiveResidues>
 VAL166  LYS551  ARG553  GLY616  TRP617  ASP618  TYR619  PRO620  LYS621  CYS622 
 ASP623  PHE694  ASN695  SER759  ASP760  ASP761  ALA762  ILE779  LEU786  VAL792 
 PHE793  MET794  SER795  GLU796  ALA797  LYS798  CYS799  TRP800  GLU811  SER814 

> <Gold.Protein.RotatedAtoms>
  150.6881  134.2437  159.4482 H   0  0  0  0  0  0  0  0  0  0  0  0  # atno 6907 bound_to 6896
  152.0379  134.9726  160.0583 H   0  0  0  0  0  0  0  0  0  0  0  0  # atno 6908 bound_to 6896
  152.1239  133.4334  159.4726 H   0  0  0  0  0  0  0  0  0  0  0  0  # atno 6909 bound_to 6896
  145.2979  140.9370  143.2840 H   0  0  0  0  0  0  0  0  0  0  0  0  # atno 7974 bound_to 7965
  155.4301  140.3450  155.4279 H   0  0  0  0  0  0  0  0  0  0  0  0  # atno 8008 bound_to 7997
  156.1341  140.1523  156.9051 H   0  0  0  0  0  0  0  0  0  0  0  0  # atno 8009 bound_to 7997
  154.4918  140.0839  156.7591 H   0  0  0  0  0  0  0  0  0  0  0  0  # atno 8010 bound_to 7997
  140.2836  144.3128  150.6258 H   0  0  0  0  0  0  0  0  0  0  0  0  # atno 10167 bound_to 10162
  156.2256  130.4169  149.8938 H   0  0  0  0  0  0  0  0  0  0  0  0  # atno 10718 bound_to 10713
  153.9922  135.6704  153.4754 H   0  0  0  0  0  0  0  0  0  0  0  0  # atno 10763 bound_to 10752
  153.0700  135.4979  154.8280 H   0  0  0  0  0  0  0  0  0  0  0  0  # atno 10764 bound_to 10752
  154.7102  135.3096  154.9171 H   0  0  0  0  0  0  0  0  0  0  0  0  # atno 10765 bound_to 10752
  140.0711  134.9151  157.1346 H   0  0  0  0  0  0  0  0  0  0  0  0  # atno 11005 bound_to 11000
  144.9118  139.4519  143.6583 LP  0  0  0  0  0  0  0  0  0  0  0  0  # atno 17320 bound_to 7965
  146.3162  139.7930  142.8981 LP  0  0  0  0  0  0  0  0  0  0  0  0  # atno 17321 bound_to 7965
  140.5791  143.2174  151.7461 LP  0  0  0  0  0  0  0  0  0  0  0  0  # atno 17342 bound_to 10162
  139.4956  144.4106  152.0084 LP  0  0  0  0  0  0  0  0  0  0  0  0  # atno 17343 bound_to 10162
  156.6570  130.8766  151.3541 LP  0  0  0  0  0  0  0  0  0  0  0  0  # atno 17370 bound_to 10713
  157.7109  130.9439  150.1085 LP  0  0  0  0  0  0  0  0  0  0  0  0  # atno 17371 bound_to 10713
  140.3626  134.2477  155.7185 LP  0  0  0  0  0  0  0  0  0  0  0  0  # atno 17394 bound_to 11000
  141.2012  133.7969  157.0453 LP  0  0  0  0  0  0  0  0  0  0  0  0  # atno 17395 bound_to 11000

$$$$
