AV-unprocessed.smi:2060|AV-procd|sdf|8355|dock8
  -GOLD-   2272011 23D 1   1.00000     0.00000
 Structure written by MMmdl.
 45 46  0  0  0  0  0  0  0  0  1 V2000
  146.9166  139.5076  152.1274 C   0  0  0  0  0  0  0  0  0  0  0  0
  147.3291  139.1791  153.5740 C   0  0  0  0  0  0  0  0  0  0  0  0
  147.5354  140.4088  154.5149 C   0  0  2  0  0  0  0  0  0  0  0  0
  146.4495  141.4472  154.1231 C   0  0  0  0  0  0  0  0  0  0  0  0
  148.9366  141.0360  154.2211 C   0  0  0  0  0  0  0  0  0  0  0  0
  149.3696  142.0156  155.2182 N   0  0  0  0  0  0  0  0  0  0  0  0
  150.2431  141.7886  156.2105 C   0  0  0  0  0  0  0  0  0  0  0  0
  150.7994  140.7057  156.3952 O   0  0  0  0  0  0  0  0  0  0  0  0
  150.4288  142.8905  156.9569 N   0  0  0  0  0  0  0  0  0  0  0  0
  151.2727  143.0363  158.0874 C   0  0  0  0  0  0  0  0  0  0  0  0
  151.5890  141.9219  158.9090 C   0  0  0  0  0  0  0  0  0  0  0  0
  152.4055  142.4634  159.8616 C   0  0  0  0  0  0  0  0  0  0  0  0
  153.1110  141.8845  161.0399 C   0  0  0  0  0  0  0  0  0  0  0  0
  152.5740  143.7955  159.6396 O   0  0  0  0  0  0  0  0  0  0  0  0
  151.8442  144.1570  158.5010 N   0  0  0  0  0  0  0  0  0  0  0  0
  147.3903  140.0136  155.9450 N   0  0  0  0  0  0  0  0  0  0  0  0
  148.4166  139.0939  156.4504 C   0  0  0  0  0  0  0  0  0  0  0  0
  148.2791  138.8528  157.9636 C   0  0  0  0  0  0  0  0  0  0  0  0
  146.9768  138.3608  158.2563 O   0  0  0  0  0  0  0  0  0  0  0  0
  145.9516  139.2508  157.8311 C   0  0  0  0  0  0  0  0  0  0  0  0
  146.0700  139.4896  156.3166 C   0  0  0  0  0  0  0  0  0  0  0  0
  146.7954  138.5913  151.5497 H   0  0  0  0  0  0  0  0  0  0  0  0
  147.6668  140.1129  151.6196 H   0  0  0  0  0  0  0  0  0  0  0  0
  145.9684  140.0436  152.0864 H   0  0  0  0  0  0  0  0  0  0  0  0
  146.5964  138.4949  154.0020 H   0  0  0  0  0  0  0  0  0  0  0  0
  148.2468  138.5932  153.5205 H   0  0  0  0  0  0  0  0  0  0  0  0
  146.3764  141.5771  153.0429 H   0  0  0  0  0  0  0  0  0  0  0  0
  146.6603  142.4333  154.5373 H   0  0  0  0  0  0  0  0  0  0  0  0
  145.4620  141.1505  154.4772 H   0  0  0  0  0  0  0  0  0  0  0  0
  149.7046  140.2637  154.2108 H   0  0  0  0  0  0  0  0  0  0  0  0
  148.9610  141.4868  153.2288 H   0  0  0  0  0  0  0  0  0  0  0  0
  148.9680  142.9388  155.1440 H   0  0  0  0  0  0  0  0  0  0  0  0
  149.9103  143.7140  156.6888 H   0  0  0  0  0  0  0  0  0  0  0  0
  151.2715  140.8938  158.8174 H   0  0  0  0  0  0  0  0  0  0  0  0
  152.6165  140.9744  161.3799 H   0  0  0  0  0  0  0  0  0  0  0  0
  153.1254  142.5901  161.8710 H   0  0  0  0  0  0  0  0  0  0  0  0
  154.1420  141.6360  160.7881 H   0  0  0  0  0  0  0  0  0  0  0  0
  148.3522  138.1347  155.9372 H   0  0  0  0  0  0  0  0  0  0  0  0
  149.4157  139.4853  156.2670 H   0  0  0  0  0  0  0  0  0  0  0  0
  149.0177  138.1251  158.2998 H   0  0  0  0  0  0  0  0  0  0  0  0
  148.4611  139.7741  158.5192 H   0  0  0  0  0  0  0  0  0  0  0  0
  144.9811  138.8164  158.0712 H   0  0  0  0  0  0  0  0  0  0  0  0
  146.0255  140.1926  158.3772 H   0  0  0  0  0  0  0  0  0  0  0  0
  145.2787  140.1771  156.0244 H   0  0  0  0  0  0  0  0  0  0  0  0
  145.8774  138.5485  155.8017 H   0  0  0  0  0  0  0  0  0  0  0  0
  1  2  1  0  0  0  0
  1 22  1  0  0  0  0
  1 23  1  0  0  0  0
  1 24  1  0  0  0  0
  2  3  1  0  0  0  0
  2 25  1  0  0  0  0
  2 26  1  0  0  0  0
  3  4  1  0  0  0  0
  3  5  1  0  0  0  0
  3 16  1  0  0  0  0
  4 27  1  0  0  0  0
  4 28  1  0  0  0  0
  4 29  1  0  0  0  0
  5  6  1  0  0  0  0
  5 30  1  0  0  0  0
  5 31  1  0  0  0  0
  6  7  1  0  0  0  0
  6 32  1  0  0  0  0
  7  8  2  0  0  0  0
  7  9  1  0  0  0  0
  9 10  1  0  0  0  0
  9 33  1  0  0  0  0
 10 15  2  0  0  0  0
 10 11  1  0  0  0  0
 11 12  2  0  0  0  0
 11 34  1  0  0  0  0
 12 13  1  0  0  0  0
 12 14  1  0  0  0  0
 13 35  1  0  0  0  0
 13 36  1  0  0  0  0
 13 37  1  0  0  0  0
 14 15  1  0  0  0  0
 16 21  1  0  0  0  0
 16 17  1  0  0  0  0
 17 18  1  0  0  0  0
 17 38  1  0  0  0  0
 17 39  1  0  0  0  0
 18 19  1  0  0  0  0
 18 40  1  0  0  0  0
 18 41  1  0  0  0  0
 19 20  1  0  0  0  0
 20 21  1  0  0  0  0
 20 42  1  0  0  0  0
 20 43  1  0  0  0  0
 21 44  1  0  0  0  0
 21 45  1  0  0  0  0
M  END
> <s_m_source_file>
AV-unprocessed.smi

> <i_m_source_file_index>
2060

> <i_lp_mmshare_version>
43012

> <i_f3d_flags>
0

> <s_epik_input>
W0NIMl0xW0NIMl1PW0NIMl1bQ0gyXU4xW0NAQF0oW0NIM10pKFtDSDJdW0NIM10pW0NIMl1bTkhdQyg9TylbTkhdYzJbY0hdYyhbQ0gzXSlvbjI=

> <s_epik_cmdline>
J2VwaWtfcHl0aG9uJywgJy1waCcsICc3LjAnLCAnLXRuJywgJzgnLCAnLW1hJywgJzIwMCcsICctbWV0YWxfYmluZGluZycsICctaW1hZScsICc8aW5maWxlLm1hZT4nLCAnLW9tYWUnLCAnPG91dGZpbGUubWFlPic=

> <r_epik_Ionization_Penalty>
0.289127

> <r_epik_Ionization_Penalty_Charging>
0

> <r_epik_Ionization_Penalty_Neutral>
0.289127

> <r_epik_State_Penalty>
0.282056

> <r_epik_Charging_Adjusted_Penalty>
0.282056

> <i_epik_Tot_Q>
0

> <i_epik_Tot_abs_Q>
0

> <r_epik_Metal_State_Penalty>
0.284526

> <b_epik_Metal_Only>
0

> <s_lp_Force_Field>
OPLS_2005

> <r_lp_Energy>
40.1787

> <b_lp_Chiralities_Consistent>
1

> <s_lp_Variant>
AV-unprocessed.smi:2060-2

> <Gold.Version>
5.8.1

> <Gold.Id.Protein>
6NUR|6NUR_protein|mol2

> <Gold.PLP.Fitness>
36.9534

> <Gold.PLP.PLP>
-32.4459

> <Gold.PLP.part.hbond>
-2.6872

> <Gold.PLP.part.metal>
0.0000

> <Gold.PLP.part.buried>
-3.8900

> <Gold.PLP.part.nonpolar>
-26.4679

> <Gold.PLP.part.repulsive>
0.3558

> <Gold.PLP.ligand.clash>
0.0000

> <Gold.PLP.ligand.torsion>
0.7992

> <Gold.PLP.Chemscore.Hbond>
2.0000

> <Gold.PLP.Chemscore.CHOScore>
0.0000

> <Gold.PLP.Chemscore.Metal>
0.0000

> <Gold.Chemscore.Hbonds>
donor molecule, donor type, donor heavy atom, donor atom, acceptor molecule, acceptor atom, score
      L1  H     6    32       P1  8028  1.00
      L1  H     9    33       P1  8028  1.00

> <Gold.PLP.Chemscore.Internal.Correction>
0.1060

> <Gold.Rescore>
     Score         DG    S(hbond)    S(metal)    S(lipo)     H(rot)  DE(clash)    DE(int)     intcor
     14.25     -15.54       1.96        0.00      67.49       1.71       0.14       1.15       ----

> <Gold.Chemscore.Fitness>
14.2505

> <Gold.Chemscore.DG>
-15.5357

> <Gold.Chemscore.ZeroCoef>
-5.4800

> <Gold.Chemscore.Hbond>
1.9605

> <Gold.Chemscore.Metal>
0.0000

> <Gold.Chemscore.Lipo>
67.4897

> <Gold.Chemscore.Internal_Hbond>
0.0000

> <Gold.Chemscore.DEClash>
0.1382

> <Gold.Chemscore.DEInternal>
1.1470

> <Gold.Chemscore.Rot>
1.7143

> <Gold.Chemscore.Internal.Correction>
   9.000000E+99

> <Gold.Chemscore.Hbonds>
donor molecule, donor type, donor heavy atom, donor atom, acceptor molecule, acceptor atom, score
      L1  H     6    32       P1  8028  0.96
      L1  H     9    33       P1  8028  0.99

> <Gold.Chemscore.Hbond.Weighted>
-6.5479

> <Gold.Chemscore.Metal.Weighted>
-0.0000

> <Gold.Chemscore.Lipo.Weighted>
-7.8963

> <Gold.Chemscore.Internal_Hbond.Weighted>
0.0000

> <Gold.Chemscore.DEClash.Weighted>
0.1382

> <Gold.Chemscore.DEInternal.Weighted>
1.1470

> <Gold.Chemscore.Rot.Weighted>
4.3885

> <Gold.Chemscore.Internal.Correction.Weighted>
   9.000000E+99

> <Gold.Protein.RotatedTorsions>
[ 6907 6896 6895 6894 ] final -141.32 input  -60.11 | X-H torsion
[ 7974 7965 7964 7962 ] final  147.63 input  175.53 | X-H torsion
[ 8008 7997 7996 7995 ] final -157.19 input   59.86 | X-H torsion
[ 10167 10162 10161 10158 ] final   40.73 input  -65.29 | X-H torsion
[ 10718 10713 10712 10709 ] final -136.27 input   66.30 | X-H torsion
[ 10763 10752 10751 10750 ] final   57.30 input  -60.55 | X-H torsion
[ 11005 11000 10999 10996 ] final  -42.42 input  -57.11 | X-H torsion

> <Gold.Protein.ActiveResidues>
 VAL166  LYS551  ARG553  GLY616  TRP617  ASP618  TYR619  PRO620  LYS621  CYS622 
 ASP623  PHE694  ASN695  SER759  ASP760  ASP761  ALA762  ILE779  LEU786  VAL792 
 PHE793  MET794  SER795  GLU796  ALA797  LYS798  CYS799  TRP800  GLU811  SER814 

> <Gold.Protein.RotatedAtoms>
  151.0722  133.5457  159.2626 H   0  0  0  0  0  0  0  0  0  0  0  0  # atno 6907 bound_to 6896
  151.2391  135.0582  159.9028 H   0  0  0  0  0  0  0  0  0  0  0  0  # atno 6908 bound_to 6896
  152.5413  134.0500  159.8159 H   0  0  0  0  0  0  0  0  0  0  0  0  # atno 6909 bound_to 6896
  144.8577  139.6052  143.5945 H   0  0  0  0  0  0  0  0  0  0  0  0  # atno 7974 bound_to 7965
  155.7287  140.0799  157.2299 H   0  0  0  0  0  0  0  0  0  0  0  0  # atno 8008 bound_to 7997
  154.4036  140.1599  156.2538 H   0  0  0  0  0  0  0  0  0  0  0  0  # atno 8009 bound_to 7997
  155.9129  140.3402  155.6116 H   0  0  0  0  0  0  0  0  0  0  0  0  # atno 8010 bound_to 7997
  140.3713  144.2101  150.6133 H   0  0  0  0  0  0  0  0  0  0  0  0  # atno 10167 bound_to 10162
  156.2752  130.7289  151.1269 H   0  0  0  0  0  0  0  0  0  0  0  0  # atno 10718 bound_to 10713
  152.9847  135.5646  154.5368 H   0  0  0  0  0  0  0  0  0  0  0  0  # atno 10763 bound_to 10752
  154.4830  135.2789  155.1558 H   0  0  0  0  0  0  0  0  0  0  0  0  # atno 10764 bound_to 10752
  154.3059  135.6298  153.5498 H   0  0  0  0  0  0  0  0  0  0  0  0  # atno 10765 bound_to 10752
  141.0314  133.6818  156.2592 H   0  0  0  0  0  0  0  0  0  0  0  0  # atno 11005 bound_to 11000
  146.2836  139.6943  142.9211 LP  0  0  0  0  0  0  0  0  0  0  0  0  # atno 17320 bound_to 7965
  145.4374  141.0420  143.2876 LP  0  0  0  0  0  0  0  0  0  0  0  0  # atno 17321 bound_to 7965
  140.5030  143.2312  151.8650 LP  0  0  0  0  0  0  0  0  0  0  0  0  # atno 17342 bound_to 10162
  139.4803  144.5037  151.9026 LP  0  0  0  0  0  0  0  0  0  0  0  0  # atno 17343 bound_to 10162
  157.7297  131.0622  150.5762 LP  0  0  0  0  0  0  0  0  0  0  0  0  # atno 17370 bound_to 10713
  156.5862  130.4317  149.5956 LP  0  0  0  0  0  0  0  0  0  0  0  0  # atno 17371 bound_to 10713
  140.6399  134.5176  157.5568 LP  0  0  0  0  0  0  0  0  0  0  0  0  # atno 17394 bound_to 11000
  139.9211  134.8148  156.1210 LP  0  0  0  0  0  0  0  0  0  0  0  0  # atno 17395 bound_to 11000

$$$$
