AV-unprocessed.smi:35|AV-procd|sdf|278|dock7
  -GOLD-   2262016 53D 1   1.00000     0.00000
 Structure written by MMmdl.
 28 29  0  0  0  0  0  0  0  0  2 V2000
  152.0648  135.4472  156.9768 O   0  0  0  0  0  0  0  0  0  0  0  0
  151.7262  136.4956  156.4311 C   0  0  0  0  0  0  0  0  0  0  0  0
  152.2231  137.7134  156.7925 N   0  5  0  0  0  0  0  0  0  0  0  0
  151.8336  138.8762  156.1922 C   0  0  0  0  0  0  0  0  0  0  0  0
  152.2891  139.9771  156.5032 O   0  0  0  0  0  0  0  0  0  0  0  0
  150.8565  138.8278  155.1587 N   0  0  0  0  0  0  0  0  0  0  0  0
  150.4314  140.1283  154.4980 C   0  0  1  0  0  0  0  0  0  0  0  0
  149.4509  139.8654  153.5355 O   0  0  0  0  0  0  0  0  0  0  0  0
  148.1598  140.1003  154.0897 C   0  0  2  0  0  0  0  0  0  0  0  0
  147.0944  140.2301  152.9880 C   0  0  0  0  0  0  0  0  0  0  0  0
  147.1800  139.1307  152.1070 O   0  0  0  0  0  0  0  0  0  0  0  0
  148.4042  141.3549  154.9335 C   0  0  2  0  0  0  0  0  0  0  0  0
  148.3787  142.5154  154.1174 O   0  0  0  0  0  0  0  0  0  0  0  0
  149.7860  141.0825  155.5276 C   0  0  2  0  0  0  0  0  0  0  0  0
  150.5306  142.2672  155.7402 O   0  0  0  0  0  0  0  0  0  0  0  0
  150.3580  137.5997  154.7507 C   0  0  0  0  0  0  0  0  0  0  0  0
  150.7520  136.4552  155.3446 C   0  0  0  0  0  0  0  0  0  0  0  0
  149.9499  134.7768  154.6615 Br  0  0  0  0  0  0  0  0  0  0  0  0
  151.3301  140.5155  154.0146 H   0  0  0  0  0  0  0  0  0  0  0  0
  147.8979  139.2842  154.7659 H   0  0  0  0  0  0  0  0  0  0  0  0
  146.0967  140.2213  153.4276 H   0  0  0  0  0  0  0  0  0  0  0  0
  147.2007  141.1649  152.4365 H   0  0  0  0  0  0  0  0  0  0  0  0
  148.0033  139.1836  151.6456 H   0  0  0  0  0  0  0  0  0  0  0  0
  147.6499  141.4720  155.7122 H   0  0  0  0  0  0  0  0  0  0  0  0
  148.4917  143.2699  154.6758 H   0  0  0  0  0  0  0  0  0  0  0  0
  149.6680  140.5614  156.4790 H   0  0  0  0  0  0  0  0  0  0  0  0
  149.9307  142.9980  155.7133 H   0  0  0  0  0  0  0  0  0  0  0  0
  149.6439  137.5339  153.9446 H   0  0  0  0  0  0  0  0  0  0  0  0
  1  2  2  0  0  0  0
  2 17  1  0  0  0  0
  2  3  1  0  0  0  0
  3  4  1  0  0  0  0
  4  5  2  0  0  0  0
  4  6  1  0  0  0  0
  6  7  1  0  0  0  0
  6 16  1  0  0  0  0
  7 14  1  0  0  0  0
  7  8  1  0  0  0  0
  7 19  1  0  0  0  0
  8  9  1  0  0  0  0
  9 10  1  0  0  0  0
  9 12  1  0  0  0  0
  9 20  1  0  0  0  0
 10 11  1  0  0  0  0
 10 21  1  0  0  0  0
 10 22  1  0  0  0  0
 11 23  1  0  0  0  0
 12 13  1  0  0  0  0
 12 14  1  0  0  0  0
 12 24  1  0  0  0  0
 13 25  1  0  0  0  0
 14 15  1  0  0  0  0
 14 26  1  0  0  0  0
 15 27  1  0  0  0  0
 16 17  2  0  0  0  0
 16 28  1  0  0  0  0
 17 18  1  0  0  0  0
M  CHG  1   3  -1
M  END
> <s_m_source_file>
AV-unprocessed.smi

> <i_m_source_file_index>
35

> <i_lp_mmshare_version>
43012

> <i_f3d_flags>
0

> <s_epik_input>
Tz1jMVtuSF1jKD1PKW4oW2NIXWMxQnIpW0NAQEhdMk9bQ0BASF0oW0NIMl1bT0hdKVtDQEBIXShbT0hdKVtDQEhdMltPSF0=

> <s_epik_cmdline>
J2VwaWtfcHl0aG9uJywgJy1waCcsICc3LjAnLCAnLXRuJywgJzgnLCAnLW1hJywgJzIwMCcsICctbWV0YWxfYmluZGluZycsICctaW1hZScsICc8aW5maWxlLm1hZT4nLCAnLW9tYWUnLCAnPG91dGZpbGUubWFlPic=

> <r_epik_Ionization_Penalty>
1.06112

> <r_epik_Ionization_Penalty_Charging>
2.1796e-09

> <r_epik_Ionization_Penalty_Neutral>
1.06112

> <r_epik_State_Penalty>
1.11484

> <r_epik_Charging_Adjusted_Penalty>
1.11484

> <i_epik_Tot_Q>
-1

> <i_epik_Tot_abs_Q>
1

> <r_epik_Metal_State_Penalty>
0.0032876

> <b_epik_Metal_Only>
0

> <s_epik_Chemistry_Notes>
This compound contains an acetal/aminal-like group ( X-CH(R)-Y where X, Y are N, S, or O) that may be acid/base labile, releasing an aldehyde.

> <s_lp_Force_Field>
OPLS_2005

> <r_lp_Energy>
41.3474

> <b_lp_Chiralities_Consistent>
1

> <s_lp_Variant>
AV-unprocessed.smi:35-32

> <Gold.Version>
5.8.1

> <Gold.Id.Protein>
6NUR|6NUR_protein|mol2

> <Gold.PLP.Fitness>
39.1627

> <Gold.PLP.PLP>
-24.1030

> <Gold.PLP.part.hbond>
-6.9687

> <Gold.PLP.part.metal>
0.0000

> <Gold.PLP.part.buried>
1.2989

> <Gold.PLP.part.nonpolar>
-22.2822

> <Gold.PLP.part.repulsive>
4.7621

> <Gold.PLP.ligand.clash>
0.0000

> <Gold.PLP.ligand.torsion>
0.0723

> <Gold.PLP.Chemscore.Hbond>
4.0679

> <Gold.PLP.Chemscore.CHOScore>
0.9937

> <Gold.PLP.Chemscore.Metal>
0.0000

> <Gold.Chemscore.Hbonds>
donor molecule, donor type, donor heavy atom, donor atom, acceptor molecule, acceptor atom, score
      L1  H    11    23       P1  7957  1.00
      L1  H    13    25       P1  8028  1.00
      L1  H    15    27       P1  8028  1.00
      P1  H  7997  8009       L1     5  0.96
      P1  H  8011  8017       L1    13  0.06
      L1  C    16    28       P1  7948  1.00

> <Gold.PLP.Chemscore.Internal.Correction>
0.0197

> <Gold.Rescore>
     Score         DG    S(hbond)    S(metal)    S(lipo)     H(rot)  DE(clash)    DE(int)     intcor
     10.89     -13.58       3.89        0.00      37.60       3.63       2.35       0.33       ----

> <Gold.Chemscore.Fitness>
10.8898

> <Gold.Chemscore.DG>
-13.5751

> <Gold.Chemscore.ZeroCoef>
-5.4800

> <Gold.Chemscore.Hbond>
3.8857

> <Gold.Chemscore.Metal>
0.0000

> <Gold.Chemscore.Lipo>
37.6042

> <Gold.Chemscore.Internal_Hbond>
0.0000

> <Gold.Chemscore.DEClash>
2.3535

> <Gold.Chemscore.DEInternal>
0.3317

> <Gold.Chemscore.Rot>
3.6261

> <Gold.Chemscore.Internal.Correction>
   9.000000E+99

> <Gold.Chemscore.Hbonds>
donor molecule, donor type, donor heavy atom, donor atom, acceptor molecule, acceptor atom, score
      L1  H    11    23       P1  7957  0.94
      L1  H    13    25       P1  8028  1.00
      L1  H    15    27       P1  8028  0.95
      P1  H  7997  8009       L1     5  0.81
      P1  H  8011  8017       L1    13  0.05

> <Gold.Chemscore.Hbond.Weighted>
-12.9781

> <Gold.Chemscore.Metal.Weighted>
-0.0000

> <Gold.Chemscore.Lipo.Weighted>
-4.3997

> <Gold.Chemscore.Internal_Hbond.Weighted>
0.0000

> <Gold.Chemscore.DEClash.Weighted>
2.3535

> <Gold.Chemscore.DEInternal.Weighted>
0.3317

> <Gold.Chemscore.Rot.Weighted>
9.2828

> <Gold.Chemscore.Internal.Correction.Weighted>
   9.000000E+99

> <Gold.Protein.RotatedTorsions>
[ 6907 6896 6895 6894 ] final  -87.78 input  -60.11 | X-H torsion
[ 7974 7965 7964 7962 ] final  106.08 input  175.53 | X-H torsion
[ 8008 7997 7996 7995 ] final -166.55 input   59.86 | X-H torsion
[ 10167 10162 10161 10158 ] final  -90.40 input  -65.29 | X-H torsion
[ 10718 10713 10712 10709 ] final -147.31 input   66.30 | X-H torsion
[ 10763 10752 10751 10750 ] final -150.24 input  -60.55 | X-H torsion
[ 11005 11000 10999 10996 ] final   59.79 input  -57.11 | X-H torsion

> <Gold.Protein.ActiveResidues>
 VAL166  LYS551  ARG553  GLY616  TRP617  ASP618  TYR619  PRO620  LYS621  CYS622 
 ASP623  PHE694  ASN695  SER759  ASP760  ASP761  ALA762  ILE779  LEU786  VAL792 
 PHE793  MET794  SER795  GLU796  ALA797  LYS798  CYS799  TRP800  GLU811  SER814 

> <Gold.Protein.RotatedAtoms>
  150.6867  134.2844  159.4640 H   0  0  0  0  0  0  0  0  0  0  0  0  # atno 6907 bound_to 6896
  152.0755  134.9503  160.0583 H   0  0  0  0  0  0  0  0  0  0  0  0  # atno 6908 bound_to 6896
  152.0876  133.4149  159.4566 H   0  0  0  0  0  0  0  0  0  0  0  0  # atno 6909 bound_to 6896
  145.3113  139.2539  143.3761 H   0  0  0  0  0  0  0  0  0  0  0  0  # atno 7974 bound_to 7965
  155.8653  140.0984  157.1586 H   0  0  0  0  0  0  0  0  0  0  0  0  # atno 8008 bound_to 7997
  154.3993  140.1357  156.4074 H   0  0  0  0  0  0  0  0  0  0  0  0  # atno 8009 bound_to 7997
  155.7811  140.3458  155.5300 H   0  0  0  0  0  0  0  0  0  0  0  0  # atno 8010 bound_to 7997
  140.3553  143.2870  151.9678 H   0  0  0  0  0  0  0  0  0  0  0  0  # atno 10167 bound_to 10162
  156.4060  130.7957  151.2171 H   0  0  0  0  0  0  0  0  0  0  0  0  # atno 10718 bound_to 10713
  154.8131  135.3289  154.7252 H   0  0  0  0  0  0  0  0  0  0  0  0  # atno 10763 bound_to 10752
  153.7897  135.6912  153.4878 H   0  0  0  0  0  0  0  0  0  0  0  0  # atno 10764 bound_to 10752
  153.1925  135.4546  155.0113 H   0  0  0  0  0  0  0  0  0  0  0  0  # atno 10765 bound_to 10752
  140.0279  134.6056  155.9548 H   0  0  0  0  0  0  0  0  0  0  0  0  # atno 11005 bound_to 11000
  146.3117  140.3650  142.8668 LP  0  0  0  0  0  0  0  0  0  0  0  0  # atno 17320 bound_to 7965
  144.9013  140.7646  143.5865 LP  0  0  0  0  0  0  0  0  0  0  0  0  # atno 17321 bound_to 7965
  139.4821  144.6040  151.7554 LP  0  0  0  0  0  0  0  0  0  0  0  0  # atno 17342 bound_to 10162
  140.5179  144.0924  150.6014 LP  0  0  0  0  0  0  0  0  0  0  0  0  # atno 17343 bound_to 10162
  157.7505  131.0272  150.3996 LP  0  0  0  0  0  0  0  0  0  0  0  0  # atno 17370 bound_to 10713
  156.4285  130.3967  149.6776 LP  0  0  0  0  0  0  0  0  0  0  0  0  # atno 17371 bound_to 10713
  141.1813  133.6547  156.5033 LP  0  0  0  0  0  0  0  0  0  0  0  0  # atno 17394 bound_to 11000
  140.4276  134.7131  157.4924 LP  0  0  0  0  0  0  0  0  0  0  0  0  # atno 17395 bound_to 11000

$$$$
