AV-unprocessed.smi:1893|AV-procd|sdf|7677|dock6
  -GOLD-   22720 9413D 1   1.00000     0.00000
 Structure written by MMmdl.
 43 44  0  0  0  0  0  0  0  0  2 V2000
  152.5992  142.4931  158.9664 C   0  0  0  0  0  0  0  0  0  0  0  0
  151.9437  143.4806  157.9762 C   0  0  2  0  0  0  0  0  0  0  0  0
  152.4618  144.9232  158.1559 C   0  0  0  0  0  0  0  0  0  0  0  0
  151.9082  145.5819  159.4280 C   0  0  0  0  0  0  0  0  0  0  0  0
  150.3768  145.5064  159.4343 C   0  0  0  0  0  0  0  0  0  0  0  0
  149.8900  144.0593  159.2540 C   0  0  0  0  0  0  0  0  0  0  0  0
  150.4504  143.4556  158.0139 N   0  3  2  0  0  0  0  0  0  0  0  0
  149.8682  142.1302  157.6810 C   0  0  0  0  0  0  0  0  0  0  0  0
  150.7962  141.2925  156.7805 C   0  0  0  0  0  0  0  0  0  0  0  0
  150.0398  140.3197  156.0021 N   0  0  0  0  0  0  0  0  0  0  0  0
  150.5236  139.6254  154.9595 C   0  0  0  0  0  0  0  0  0  0  0  0
  151.6680  139.7780  154.5302 O   0  0  0  0  0  0  0  0  0  0  0  0
  149.5688  138.6040  154.3188 C   0  0  1  0  0  0  0  0  0  0  0  0
  149.2758  137.3962  155.2318 C   0  0  0  0  0  0  0  0  0  0  0  0
  148.3428  139.2608  153.8811 N   0  0  0  0  0  0  0  0  0  0  0  0
  147.2998  138.7713  153.2073 C   0  0  0  0  0  0  0  0  0  0  0  0
  146.3638  139.6697  152.9363 N   0  0  0  0  0  0  0  0  0  0  0  0
  146.9328  140.7719  153.5087 C   0  0  0  0  0  0  0  0  0  0  0  0
  148.1231  140.5849  154.0783 N   0  0  0  0  0  0  0  0  0  0  0  0
  153.6858  142.5372  158.8889 H   0  0  0  0  0  0  0  0  0  0  0  0
  152.3097  141.4624  158.7612 H   0  0  0  0  0  0  0  0  0  0  0  0
  152.3406  142.7086  160.0025 H   0  0  0  0  0  0  0  0  0  0  0  0
  152.2415  143.1669  156.9744 H   0  0  0  0  0  0  0  0  0  0  0  0
  153.5521  144.9358  158.1719 H   0  0  0  0  0  0  0  0  0  0  0  0
  152.1662  145.5194  157.2913 H   0  0  0  0  0  0  0  0  0  0  0  0
  152.3087  145.0874  160.3134 H   0  0  0  0  0  0  0  0  0  0  0  0
  152.2324  146.6216  159.4828 H   0  0  0  0  0  0  0  0  0  0  0  0
  149.9876  145.9174  160.3663 H   0  0  0  0  0  0  0  0  0  0  0  0
  149.9769  146.1281  158.6320 H   0  0  0  0  0  0  0  0  0  0  0  0
  150.1610  143.4565  160.1212 H   0  0  0  0  0  0  0  0  0  0  0  0
  148.8016  144.0629  159.2118 H   0  0  0  0  0  0  0  0  0  0  0  0
  149.6972  141.5769  158.6057 H   0  0  0  0  0  0  0  0  0  0  0  0
  148.8908  142.2586  157.2133 H   0  0  0  0  0  0  0  0  0  0  0  0
  151.3315  141.9268  156.0748 H   0  0  0  0  0  0  0  0  0  0  0  0
  151.5544  140.7837  157.3785 H   0  0  0  0  0  0  0  0  0  0  0  0
  149.0882  140.1427  156.2900 H   0  0  0  0  0  0  0  0  0  0  0  0
  150.0650  138.2215  153.4254 H   0  0  0  0  0  0  0  0  0  0  0  0
  150.1932  136.8671  155.4921 H   0  0  0  0  0  0  0  0  0  0  0  0
  148.6197  136.6829  154.7321 H   0  0  0  0  0  0  0  0  0  0  0  0
  148.7902  137.6943  156.1621 H   0  0  0  0  0  0  0  0  0  0  0  0
  147.2261  137.7371  152.9034 H   0  0  0  0  0  0  0  0  0  0  0  0
  146.4589  141.7426  153.4985 H   0  0  0  0  0  0  0  0  0  0  0  0
  150.1658  144.0656  157.2606 H   0  0  0  0  0  0  0  0  0  0  0  0
  1  2  1  0  0  0  0
  1 20  1  0  0  0  0
  1 21  1  0  0  0  0
  1 22  1  0  0  0  0
  2  7  1  0  0  0  0
  2  3  1  0  0  0  0
  2 23  1  0  0  0  0
  3  4  1  0  0  0  0
  3 24  1  0  0  0  0
  3 25  1  0  0  0  0
  4  5  1  0  0  0  0
  4 26  1  0  0  0  0
  4 27  1  0  0  0  0
  5  6  1  0  0  0  0
  5 28  1  0  0  0  0
  5 29  1  0  0  0  0
  6  7  1  0  0  0  0
  6 30  1  0  0  0  0
  6 31  1  0  0  0  0
  7  8  1  0  0  0  0
  7 43  1  0  0  0  0
  8  9  1  0  0  0  0
  8 32  1  0  0  0  0
  8 33  1  0  0  0  0
  9 10  1  0  0  0  0
  9 34  1  0  0  0  0
  9 35  1  0  0  0  0
 10 11  1  0  0  0  0
 10 36  1  0  0  0  0
 11 12  2  0  0  0  0
 11 13  1  0  0  0  0
 13 14  1  0  0  0  0
 13 15  1  0  0  0  0
 13 37  1  0  0  0  0
 14 38  1  0  0  0  0
 14 39  1  0  0  0  0
 14 40  1  0  0  0  0
 15 19  1  0  0  0  0
 15 16  1  0  0  0  0
 16 17  2  0  0  0  0
 16 41  1  0  0  0  0
 17 18  1  0  0  0  0
 18 19  2  0  0  0  0
 18 42  1  0  0  0  0
M  CHG  1   7   1
M  END
> <s_m_source_file>
AV-unprocessed.smi

> <i_m_source_file_index>
1893

> <i_lp_mmshare_version>
43012

> <i_f3d_flags>
0

> <s_epik_input>
W0NIM11bQ0BASF0xW0NIMl1bQ0gyXVtDSDJdW0NIMl1OMVtDSDJdW0NIMl1bTkhdQyg9TylbQ0BIXShbQ0gzXSluMltjSF1uW2NIXW4y

> <s_epik_cmdline>
J2VwaWtfcHl0aG9uJywgJy1waCcsICc3LjAnLCAnLXRuJywgJzgnLCAnLW1hJywgJzIwMCcsICctbWV0YWxfYmluZGluZycsICctaW1hZScsICc8aW5maWxlLm1hZT4nLCAnLW9tYWUnLCAnPG91dGZpbGUubWFlPic=

> <r_lp_tautomer_probability>
1

> <r_epik_Ionization_Penalty>
0.00266409

> <r_epik_Ionization_Penalty_Charging>
0.00265606

> <r_epik_Ionization_Penalty_Neutral>
8.02794e-06

> <r_epik_State_Penalty>
0.00184955

> <r_epik_Charging_Adjusted_Penalty>
0.00450561

> <i_epik_Tot_Q>
1

> <i_epik_Tot_abs_Q>
1

> <r_epik_Metal_State_Penalty>
-0

> <b_epik_Metal_Only>
0

> <s_lp_Force_Field>
OPLS_2005

> <r_lp_Energy>
24.5349

> <b_lp_Chiralities_Consistent>
1

> <s_lp_Variant>
AV-unprocessed.smi:1893-7

> <Gold.Version>
5.8.1

> <Gold.Id.Protein>
6NUR|6NUR_protein|mol2

> <Gold.PLP.Fitness>
42.8362

> <Gold.PLP.PLP>
-34.4249

> <Gold.PLP.part.hbond>
-1.7524

> <Gold.PLP.part.metal>
0.0000

> <Gold.PLP.part.buried>
-1.2336

> <Gold.PLP.part.nonpolar>
-32.4565

> <Gold.PLP.part.repulsive>
1.5810

> <Gold.PLP.ligand.clash>
0.1881

> <Gold.PLP.ligand.torsion>
0.6739

> <Gold.PLP.Chemscore.Hbond>
2.2675

> <Gold.PLP.Chemscore.CHOScore>
1.0000

> <Gold.PLP.Chemscore.Metal>
0.0000

> <Gold.Chemscore.Hbonds>
donor molecule, donor type, donor heavy atom, donor atom, acceptor molecule, acceptor atom, score
      L1  H     7    43       P1  8028  1.50
      P1  H  7989  7998       L1    12  0.91
      L1  C    16    41       P1  7948  0.99

> <Gold.PLP.Chemscore.Internal.Correction>
0.1448

> <Gold.Rescore>
     Score         DG    S(hbond)    S(metal)    S(lipo)     H(rot)  DE(clash)    DE(int)     intcor
     10.50     -14.02       1.46        0.00      86.84       2.54       0.76       2.76       ----

> <Gold.Chemscore.Fitness>
10.5031

> <Gold.Chemscore.DG>
-14.0213

> <Gold.Chemscore.ZeroCoef>
-5.4800

> <Gold.Chemscore.Hbond>
1.4603

> <Gold.Chemscore.Metal>
0.0000

> <Gold.Chemscore.Lipo>
86.8430

> <Gold.Chemscore.Internal_Hbond>
0.0000

> <Gold.Chemscore.DEClash>
0.7558

> <Gold.Chemscore.DEInternal>
2.7624

> <Gold.Chemscore.Rot>
2.5377

> <Gold.Chemscore.Internal.Correction>
   9.000000E+99

> <Gold.Chemscore.Hbonds>
donor molecule, donor type, donor heavy atom, donor atom, acceptor molecule, acceptor atom, score
      L1  H     7    43       P1  8028  0.60
      P1  H  7989  7998       L1    12  0.60

> <Gold.Chemscore.Hbond.Weighted>
-4.8773

> <Gold.Chemscore.Metal.Weighted>
-0.0000

> <Gold.Chemscore.Lipo.Weighted>
-10.1606

> <Gold.Chemscore.Internal_Hbond.Weighted>
0.0000

> <Gold.Chemscore.DEClash.Weighted>
0.7558

> <Gold.Chemscore.DEInternal.Weighted>
2.7624

> <Gold.Chemscore.Rot.Weighted>
6.4966

> <Gold.Chemscore.Internal.Correction.Weighted>
   9.000000E+99

> <Gold.Protein.RotatedTorsions>
[ 6907 6896 6895 6894 ] final  -84.13 input  -60.11 | X-H torsion
[ 7974 7965 7964 7962 ] final  110.10 input  175.53 | X-H torsion
[ 8008 7997 7996 7995 ] final  -75.67 input   59.86 | X-H torsion
[ 10167 10162 10161 10158 ] final  167.00 input  -65.29 | X-H torsion
[ 10718 10713 10712 10709 ] final  -68.42 input   66.30 | X-H torsion
[ 10763 10752 10751 10750 ] final -153.87 input  -60.55 | X-H torsion
[ 11005 11000 10999 10996 ] final -115.12 input  -57.11 | X-H torsion

> <Gold.Protein.ActiveResidues>
 VAL166  LYS551  ARG553  GLY616  TRP617  ASP618  TYR619  PRO620  LYS621  CYS622 
 ASP623  PHE694  ASN695  SER759  ASP760  ASP761  ALA762  ILE779  LEU786  VAL792 
 PHE793  MET794  SER795  GLU796  ALA797  LYS798  CYS799  TRP800  GLU811  SER814 

> <Gold.Protein.RotatedAtoms>
  150.6879  134.3406  159.4865 H   0  0  0  0  0  0  0  0  0  0  0  0  # atno 6907 bound_to 6896
  152.1259  134.9168  160.0570 H   0  0  0  0  0  0  0  0  0  0  0  0  # atno 6908 bound_to 6896
  152.0356  133.3921  159.4352 H   0  0  0  0  0  0  0  0  0  0  0  0  # atno 6909 bound_to 6896
  145.2593  139.2709  143.4025 H   0  0  0  0  0  0  0  0  0  0  0  0  # atno 7974 bound_to 7965
  154.5437  140.0740  156.8553 H   0  0  0  0  0  0  0  0  0  0  0  0  # atno 8008 bound_to 7997
  155.3129  140.3391  155.4225 H   0  0  0  0  0  0  0  0  0  0  0  0  # atno 8009 bound_to 7997
  156.1898  140.1682  156.8100 H   0  0  0  0  0  0  0  0  0  0  0  0  # atno 8010 bound_to 7997
  139.4936  144.3968  151.9455 H   0  0  0  0  0  0  0  0  0  0  0  0  # atno 10167 bound_to 10162
  156.0506  130.4294  150.1998 H   0  0  0  0  0  0  0  0  0  0  0  0  # atno 10718 bound_to 10713
  154.7898  135.3203  154.7803 H   0  0  0  0  0  0  0  0  0  0  0  0  # atno 10763 bound_to 10752
  153.8495  135.6863  153.4798 H   0  0  0  0  0  0  0  0  0  0  0  0  # atno 10764 bound_to 10752
  153.1564  135.4678  154.9650 H   0  0  0  0  0  0  0  0  0  0  0  0  # atno 10765 bound_to 10752
  141.0508  133.9690  157.2839 H   0  0  0  0  0  0  0  0  0  0  0  0  # atno 11005 bound_to 11000
  146.3280  140.3005  142.8620 LP  0  0  0  0  0  0  0  0  0  0  0  0  # atno 17320 bound_to 7965
  144.9433  140.8101  143.5617 LP  0  0  0  0  0  0  0  0  0  0  0  0  # atno 17321 bound_to 7965
  140.3406  144.3207  150.5968 LP  0  0  0  0  0  0  0  0  0  0  0  0  # atno 17342 bound_to 10162
  140.5569  143.2198  151.7832 LP  0  0  0  0  0  0  0  0  0  0  0  0  # atno 17343 bound_to 10162
  157.0082  130.9943  151.3373 LP  0  0  0  0  0  0  0  0  0  0  0  0  # atno 17370 bound_to 10713
  157.5428  130.8131  149.8050 LP  0  0  0  0  0  0  0  0  0  0  0  0  # atno 17371 bound_to 10713
  139.9349  135.0197  156.8522 LP  0  0  0  0  0  0  0  0  0  0  0  0  # atno 17394 bound_to 11000
  140.6059  134.0128  155.7556 LP  0  0  0  0  0  0  0  0  0  0  0  0  # atno 17395 bound_to 11000

$$$$
