AV-unprocessed.smi:3331|AV-procd|sdf|12827|dock10
  -GOLD-   2272019203D 1   1.00000     0.00000
 Structure written by MMmdl.
 46 47  0  0  0  0  0  0  0  0  1 V2000
  150.9135  142.2208  157.0708 C   0  0  0  0  0  0  0  0  0  0  0  0
  151.4165  141.2154  158.1157 C   0  0  2  0  0  0  0  0  0  0  0  0
  152.5217  141.8266  159.0070 C   0  0  0  0  0  0  0  0  0  0  0  0
  153.1373  140.7941  159.9796 C   0  0  2  0  0  0  0  0  0  0  0  0
  154.3181  141.3881  160.7596 C   0  0  0  0  0  0  0  0  0  0  0  0
  153.5432  139.5150  159.2166 C   0  0  0  0  0  0  0  0  0  0  0  0
  152.3600  138.9990  158.5171 N   0  0  0  0  0  0  0  0  0  0  0  0
  151.6934  137.8943  158.9372 C   0  0  0  0  0  0  0  0  0  0  0  0
  152.1320  137.1751  159.8376 O   0  0  0  0  0  0  0  0  0  0  0  0
  150.3356  137.5145  158.2989 C   0  0  1  0  0  0  0  0  0  0  0  0
  150.5557  136.9845  156.8732 C   0  0  0  0  0  0  0  0  0  0  0  0
  149.5995  136.5105  159.0864 N   0  0  0  0  0  0  0  0  0  0  0  0
  148.1638  136.5064  158.8186 C   0  0  0  0  0  0  0  0  0  0  0  0
  147.5064  135.2995  159.5059 C   0  0  0  0  0  0  0  0  0  0  0  0
  147.5110  135.4361  160.9515 N   0  0  0  0  0  0  0  0  0  0  0  0
  147.1172  134.5178  161.9021 C   0  0  0  0  0  0  0  0  0  0  0  0
  147.3254  135.0859  163.1262 C   0  0  0  0  0  0  0  0  0  0  0  0
  147.8561  136.3695  162.8168 C   0  0  0  0  0  0  0  0  0  0  0  0
  147.9645  136.5769  161.5145 N   0  0  0  0  0  0  0  0  0  0  0  0
  151.9339  139.9208  157.4574 C   0  0  0  0  0  0  0  0  0  0  0  0
  151.7120  142.5201  156.3910 H   0  0  0  0  0  0  0  0  0  0  0  0
  150.5268  143.1218  157.5479 H   0  0  0  0  0  0  0  0  0  0  0  0
  150.1089  141.7936  156.4720 H   0  0  0  0  0  0  0  0  0  0  0  0
  150.5712  140.9549  158.7549 H   0  0  0  0  0  0  0  0  0  0  0  0
  153.3109  142.2283  158.3695 H   0  0  0  0  0  0  0  0  0  0  0  0
  152.1216  142.6724  159.5673 H   0  0  0  0  0  0  0  0  0  0  0  0
  152.3703  140.5194  160.7058 H   0  0  0  0  0  0  0  0  0  0  0  0
  155.1261  141.6861  160.0907 H   0  0  0  0  0  0  0  0  0  0  0  0
  154.7226  140.6655  161.4691 H   0  0  0  0  0  0  0  0  0  0  0  0
  154.0113  142.2686  161.3251 H   0  0  0  0  0  0  0  0  0  0  0  0
  154.3298  139.7355  158.4935 H   0  0  0  0  0  0  0  0  0  0  0  0
  153.9753  138.7888  159.9065 H   0  0  0  0  0  0  0  0  0  0  0  0
  149.6894  138.3895  158.2423 H   0  0  0  0  0  0  0  0  0  0  0  0
  151.0849  137.7087  156.2529 H   0  0  0  0  0  0  0  0  0  0  0  0
  149.6042  136.7728  156.3843 H   0  0  0  0  0  0  0  0  0  0  0  0
  151.1387  136.0623  156.8751 H   0  0  0  0  0  0  0  0  0  0  0  0
  149.9712  135.5806  158.9570 H   0  0  0  0  0  0  0  0  0  0  0  0
  147.6791  137.4220  159.1591 H   0  0  0  0  0  0  0  0  0  0  0  0
  148.0113  136.4533  157.7402 H   0  0  0  0  0  0  0  0  0  0  0  0
  146.4718  135.2022  159.1741 H   0  0  0  0  0  0  0  0  0  0  0  0
  148.0104  134.3712  159.2335 H   0  0  0  0  0  0  0  0  0  0  0  0
  146.7324  133.5456  161.6309 H   0  0  0  0  0  0  0  0  0  0  0  0
  147.1316  134.6498  164.0949 H   0  0  0  0  0  0  0  0  0  0  0  0
  148.1639  137.1516  163.4952 H   0  0  0  0  0  0  0  0  0  0  0  0
  151.1920  139.4979  156.7829 H   0  0  0  0  0  0  0  0  0  0  0  0
  152.7881  140.1475  156.8173 H   0  0  0  0  0  0  0  0  0  0  0  0
  1  2  1  0  0  0  0
  1 21  1  0  0  0  0
  1 22  1  0  0  0  0
  1 23  1  0  0  0  0
  2 20  1  0  0  0  0
  2  3  1  0  0  0  0
  2 24  1  0  0  0  0
  3  4  1  0  0  0  0
  3 25  1  0  0  0  0
  3 26  1  0  0  0  0
  4  5  1  0  0  0  0
  4  6  1  0  0  0  0
  4 27  1  0  0  0  0
  5 28  1  0  0  0  0
  5 29  1  0  0  0  0
  5 30  1  0  0  0  0
  6  7  1  0  0  0  0
  6 31  1  0  0  0  0
  6 32  1  0  0  0  0
  7  8  1  0  0  0  0
  7 20  1  0  0  0  0
  8  9  2  0  0  0  0
  8 10  1  0  0  0  0
 10 11  1  0  0  0  0
 10 12  1  0  0  0  0
 10 33  1  0  0  0  0
 11 34  1  0  0  0  0
 11 35  1  0  0  0  0
 11 36  1  0  0  0  0
 12 13  1  0  0  0  0
 12 37  1  0  0  0  0
 13 14  1  0  0  0  0
 13 38  1  0  0  0  0
 13 39  1  0  0  0  0
 14 15  1  0  0  0  0
 14 40  1  0  0  0  0
 14 41  1  0  0  0  0
 15 19  1  0  0  0  0
 15 16  1  0  0  0  0
 16 17  2  0  0  0  0
 16 42  1  0  0  0  0
 17 18  1  0  0  0  0
 17 43  1  0  0  0  0
 18 19  2  0  0  0  0
 18 44  1  0  0  0  0
 20 45  1  0  0  0  0
 20 46  1  0  0  0  0
M  END
> <s_m_source_file>
AV-unprocessed.smi

> <i_m_source_file_index>
3331

> <i_lp_mmshare_version>
43012

> <i_f3d_flags>
0

> <s_epik_input>
W0NIM11bQ0BASF0xW0NIMl1bQ0BASF0oW0NIM10pW0NIMl1OKFtDSDJdMSlDKD1PKVtDQEhdKFtDSDNdKVtOSF1bQ0gyXVtDSDJdbjJbY0hdW2NIXVtjSF1uMg==

> <s_epik_cmdline>
J2VwaWtfcHl0aG9uJywgJy1waCcsICc3LjAnLCAnLXRuJywgJzgnLCAnLW1hJywgJzIwMCcsICctbWV0YWxfYmluZGluZycsICctaW1hZScsICc8aW5maWxlLm1hZT4nLCAnLW9tYWUnLCAnPG91dGZpbGUubWFlPic=

> <r_lp_tautomer_probability>
1

> <r_epik_Ionization_Penalty>
0.767994

> <r_epik_Ionization_Penalty_Charging>
0

> <r_epik_Ionization_Penalty_Neutral>
0.767994

> <r_epik_State_Penalty>
0.795453

> <r_epik_Charging_Adjusted_Penalty>
0.795453

> <i_epik_Tot_Q>
0

> <i_epik_Tot_abs_Q>
0

> <r_epik_Metal_State_Penalty>
0.794784

> <b_epik_Metal_Only>
0

> <s_lp_Force_Field>
OPLS_2005

> <r_lp_Energy>
28.4318

> <b_lp_Chiralities_Consistent>
1

> <s_lp_Variant>
AV-unprocessed.smi:3331-11

> <Gold.Version>
5.8.1

> <Gold.Id.Protein>
6NUR|6NUR_protein|mol2

> <Gold.PLP.Fitness>
43.5039

> <Gold.PLP.PLP>
-40.4853

> <Gold.PLP.part.hbond>
-2.4659

> <Gold.PLP.part.metal>
0.0000

> <Gold.PLP.part.buried>
-5.9989

> <Gold.PLP.part.nonpolar>
-32.8448

> <Gold.PLP.part.repulsive>
0.0000

> <Gold.PLP.ligand.clash>
0.0000

> <Gold.PLP.ligand.torsion>
0.5783

> <Gold.PLP.Chemscore.Hbond>
1.3650

> <Gold.PLP.Chemscore.CHOScore>
0.0000

> <Gold.PLP.Chemscore.Metal>
0.0000

> <Gold.Chemscore.Hbonds>
donor molecule, donor type, donor heavy atom, donor atom, acceptor molecule, acceptor atom, score
      P1  H  6896  6908       L1     9  0.89
      P1  H  6931  6943       L1    19  0.45

> <Gold.PLP.Chemscore.Internal.Correction>
0.0801

> <Gold.Rescore>
     Score         DG    S(hbond)    S(metal)    S(lipo)     H(rot)  DE(clash)    DE(int)     intcor
     16.99     -17.84       1.73        0.00      92.60       1.66       0.00       0.84       ----

> <Gold.Chemscore.Fitness>
16.9921

> <Gold.Chemscore.DG>
-17.8397

> <Gold.Chemscore.ZeroCoef>
-5.4800

> <Gold.Chemscore.Hbond>
1.7327

> <Gold.Chemscore.Metal>
0.0000

> <Gold.Chemscore.Lipo>
92.6038

> <Gold.Chemscore.Internal_Hbond>
0.0000

> <Gold.Chemscore.DEClash>
0.0038

> <Gold.Chemscore.DEInternal>
0.8438

> <Gold.Chemscore.Rot>
1.6649

> <Gold.Chemscore.Internal.Correction>
   9.000000E+99

> <Gold.Chemscore.Hbonds>
donor molecule, donor type, donor heavy atom, donor atom, acceptor molecule, acceptor atom, score
      P1  H  6896  6908       L1     9  0.86
      P1  H  6931  6943       L1    19  0.02

> <Gold.Chemscore.Hbond.Weighted>
-5.7871

> <Gold.Chemscore.Metal.Weighted>
-0.0000

> <Gold.Chemscore.Lipo.Weighted>
-10.8346

> <Gold.Chemscore.Internal_Hbond.Weighted>
0.0000

> <Gold.Chemscore.DEClash.Weighted>
0.0038

> <Gold.Chemscore.DEInternal.Weighted>
0.8438

> <Gold.Chemscore.Rot.Weighted>
4.2621

> <Gold.Chemscore.Internal.Correction.Weighted>
   9.000000E+99

> <Gold.Protein.RotatedTorsions>
[ 6907 6896 6895 6894 ] final -117.41 input  -60.11 | X-H torsion
[ 7974 7965 7964 7962 ] final  -29.03 input  175.53 | X-H torsion
[ 8008 7997 7996 7995 ] final  -50.62 input   59.86 | X-H torsion
[ 10167 10162 10161 10158 ] final  145.32 input  -65.29 | X-H torsion
[ 10718 10713 10712 10709 ] final -132.27 input   66.30 | X-H torsion
[ 10763 10752 10751 10750 ] final  -44.84 input  -60.55 | X-H torsion
[ 11005 11000 10999 10996 ] final  -25.86 input  -57.11 | X-H torsion

> <Gold.Protein.ActiveResidues>
 VAL166  LYS551  ARG553  GLY616  TRP617  ASP618  TYR619  PRO620  LYS621  CYS622 
 ASP623  PHE694  ASN695  SER759  ASP760  ASP761  ALA762  ILE779  LEU786  VAL792 
 PHE793  MET794  SER795  GLU796  ALA797  LYS798  CYS799  TRP800  GLU811  SER814 

> <Gold.Protein.RotatedAtoms>
  150.8134  133.8380  159.3171 H   0  0  0  0  0  0  0  0  0  0  0  0  # atno 6907 bound_to 6896
  151.6159  135.1034  160.0101 H   0  0  0  0  0  0  0  0  0  0  0  0  # atno 6908 bound_to 6896
  152.4226  133.7101  159.6530 H   0  0  0  0  0  0  0  0  0  0  0  0  # atno 6909 bound_to 6896
  146.1246  140.5359  142.8720 H   0  0  0  0  0  0  0  0  0  0  0  0  # atno 7974 bound_to 7965
  154.4066  140.1268  156.4696 H   0  0  0  0  0  0  0  0  0  0  0  0  # atno 8008 bound_to 7997
  155.7192  140.3493  155.4988 H   0  0  0  0  0  0  0  0  0  0  0  0  # atno 8009 bound_to 7997
  155.9230  140.1056  157.1182 H   0  0  0  0  0  0  0  0  0  0  0  0  # atno 8010 bound_to 7997
  139.4928  144.5910  151.6681 H   0  0  0  0  0  0  0  0  0  0  0  0  # atno 10167 bound_to 10162
  156.2329  130.7048  151.0877 H   0  0  0  0  0  0  0  0  0  0  0  0  # atno 10718 bound_to 10713
  154.0186  135.6672  153.4770 H   0  0  0  0  0  0  0  0  0  0  0  0  # atno 10763 bound_to 10752
  153.0590  135.5039  154.8044 H   0  0  0  0  0  0  0  0  0  0  0  0  # atno 10764 bound_to 10752
  154.6951  135.3068  154.9387 H   0  0  0  0  0  0  0  0  0  0  0  0  # atno 10765 bound_to 10752
  140.8976  133.7545  156.0502 H   0  0  0  0  0  0  0  0  0  0  0  0  # atno 11005 bound_to 11000
  144.7630  140.5465  143.6722 LP  0  0  0  0  0  0  0  0  0  0  0  0  # atno 17320 bound_to 7965
  145.5393  139.1475  143.3456 LP  0  0  0  0  0  0  0  0  0  0  0  0  # atno 17321 bound_to 7965
  140.5536  144.0384  150.6138 LP  0  0  0  0  0  0  0  0  0  0  0  0  # atno 17342 bound_to 10162
  140.3447  143.2999  152.0551 LP  0  0  0  0  0  0  0  0  0  0  0  0  # atno 17343 bound_to 10162
  157.7141  131.0719  150.6393 LP  0  0  0  0  0  0  0  0  0  0  0  0  # atno 17370 bound_to 10713
  156.6461  130.4472  149.5735 LP  0  0  0  0  0  0  0  0  0  0  0  0  # atno 17371 bound_to 10713
  140.8269  134.3223  157.5362 LP  0  0  0  0  0  0  0  0  0  0  0  0  # atno 17394 bound_to 11000
  139.8738  134.9341  156.3599 LP  0  0  0  0  0  0  0  0  0  0  0  0  # atno 17395 bound_to 11000

$$$$
