AV-unprocessed.smi:1836|AV-procd|sdf|7478|dock5
  -GOLD-   22720 9173D 1   1.00000     0.00000
 Structure written by MMmdl.
 33 34  0  0  0  0  0  0  0  0  1 V2000
  148.4322  141.5528  154.7225 C   0  0  0  0  0  0  0  0  0  0  0  0
  149.1494  141.4277  156.0737 C   0  0  1  0  0  0  0  0  0  0  0  0
  150.6723  141.6444  155.9147 C   0  0  0  0  0  0  0  0  0  0  0  0
  151.3947  141.5192  157.1799 N   0  0  0  0  0  0  0  0  0  0  0  0
  151.3320  142.5733  158.1791 C   0  0  0  0  0  0  0  0  0  0  0  0
  151.9421  141.9524  159.4428 C   0  0  0  0  0  0  0  0  0  0  0  0
  152.7077  140.7145  158.9631 C   0  0  0  0  0  0  0  0  0  0  0  0
  152.1707  140.4964  157.5588 C   0  0  0  0  0  0  0  0  0  0  0  0
  152.4292  139.4954  156.8921 O   0  0  0  0  0  0  0  0  0  0  0  0
  148.5816  142.4152  156.9905 N   0  0  0  0  0  0  0  0  0  0  0  0
  147.8108  142.1388  158.0535 C   0  0  0  0  0  0  0  0  0  0  0  0
  147.4761  140.9980  158.3736 O   0  0  0  0  0  0  0  0  0  0  0  0
  147.4689  143.2605  158.7111 N   0  0  0  0  0  0  0  0  0  0  0  0
  146.7267  143.3807  159.9156 C   0  0  0  0  0  0  0  0  0  0  0  0
  146.1119  142.3501  160.5171 N   0  0  0  0  0  0  0  0  0  0  0  0
  145.4658  142.7395  161.6834 N   0  0  0  0  0  0  0  0  0  0  0  0
  145.6201  144.0460  161.9161 C   0  0  0  0  0  0  0  0  0  0  0  0
  146.5727  144.9280  160.7351 S   0  0  0  0  0  0  0  0  0  0  0  0
  148.7951  140.8050  154.0166 H   0  0  0  0  0  0  0  0  0  0  0  0
  148.5893  142.5353  154.2761 H   0  0  0  0  0  0  0  0  0  0  0  0
  147.3575  141.4036  154.8322 H   0  0  0  0  0  0  0  0  0  0  0  0
  148.9544  140.4201  156.4453 H   0  0  0  0  0  0  0  0  0  0  0  0
  151.0799  140.9038  155.2247 H   0  0  0  0  0  0  0  0  0  0  0  0
  150.8747  142.6170  155.4635 H   0  0  0  0  0  0  0  0  0  0  0  0
  151.9227  143.4246  157.8379 H   0  0  0  0  0  0  0  0  0  0  0  0
  150.3094  142.9125  158.3479 H   0  0  0  0  0  0  0  0  0  0  0  0
  152.5848  142.6562  159.9722 H   0  0  0  0  0  0  0  0  0  0  0  0
  151.1487  141.6505  160.1283 H   0  0  0  0  0  0  0  0  0  0  0  0
  153.7807  140.9022  158.9157 H   0  0  0  0  0  0  0  0  0  0  0  0
  152.5286  139.8467  159.5987 H   0  0  0  0  0  0  0  0  0  0  0  0
  148.8023  143.3824  156.8042 H   0  0  0  0  0  0  0  0  0  0  0  0
  147.7929  144.1298  158.3137 H   0  0  0  0  0  0  0  0  0  0  0  0
  145.1714  144.4929  162.7908 H   0  0  0  0  0  0  0  0  0  0  0  0
  1  2  1  0  0  0  0
  1 19  1  0  0  0  0
  1 20  1  0  0  0  0
  1 21  1  0  0  0  0
  2  3  1  0  0  0  0
  2 10  1  0  0  0  0
  2 22  1  0  0  0  0
  3  4  1  0  0  0  0
  3 23  1  0  0  0  0
  3 24  1  0  0  0  0
  4  8  1  0  0  0  0
  4  5  1  0  0  0  0
  5  6  1  0  0  0  0
  5 25  1  0  0  0  0
  5 26  1  0  0  0  0
  6  7  1  0  0  0  0
  6 27  1  0  0  0  0
  6 28  1  0  0  0  0
  7  8  1  0  0  0  0
  7 29  1  0  0  0  0
  7 30  1  0  0  0  0
  8  9  2  0  0  0  0
 10 11  1  0  0  0  0
 10 31  1  0  0  0  0
 11 12  2  0  0  0  0
 11 13  1  0  0  0  0
 13 14  1  0  0  0  0
 13 32  1  0  0  0  0
 14 18  1  0  0  0  0
 14 15  2  0  0  0  0
 15 16  1  0  0  0  0
 16 17  2  0  0  0  0
 17 18  1  0  0  0  0
 17 33  1  0  0  0  0
M  END
> <s_m_source_file>
AV-unprocessed.smi

> <i_m_source_file_index>
1836

> <i_lp_mmshare_version>
43012

> <i_f3d_flags>
0

> <s_epik_input>
Tz1DMVtDSDJdW0NIMl1bQ0gyXU4xW0NIMl1bQ0BASF0oW0NIM10pW05IXUMoPU8pW05IXWMybm5bY0hdczI=

> <s_epik_cmdline>
J2VwaWtfcHl0aG9uJywgJy1waCcsICc3LjAnLCAnLXRuJywgJzgnLCAnLW1hJywgJzIwMCcsICctbWV0YWxfYmluZGluZycsICctaW1hZScsICc8aW5maWxlLm1hZT4nLCAnLW9tYWUnLCAnPG91dGZpbGUubWFlPic=

> <r_lp_tautomer_probability>
1

> <r_epik_Ionization_Penalty>
0.00192022

> <r_epik_Ionization_Penalty_Charging>
0

> <r_epik_Ionization_Penalty_Neutral>
0.00192022

> <r_epik_State_Penalty>
-0

> <r_epik_Charging_Adjusted_Penalty>
0

> <i_epik_Tot_Q>
0

> <i_epik_Tot_abs_Q>
0

> <r_epik_Metal_State_Penalty>
0.336618

> <b_epik_Metal_Only>
0

> <s_lp_Force_Field>
OPLS_2005

> <r_lp_Energy>
17.3914

> <b_lp_Chiralities_Consistent>
1

> <s_lp_Variant>
AV-unprocessed.smi:1836-2

> <Gold.Version>
5.8.1

> <Gold.Id.Protein>
6NUR|6NUR_protein|mol2

> <Gold.PLP.Fitness>
42.3645

> <Gold.PLP.PLP>
-30.8933

> <Gold.PLP.part.hbond>
-5.0000

> <Gold.PLP.part.metal>
0.0000

> <Gold.PLP.part.buried>
-5.6315

> <Gold.PLP.part.nonpolar>
-19.6185

> <Gold.PLP.part.repulsive>
0.1459

> <Gold.PLP.ligand.clash>
0.0000

> <Gold.PLP.ligand.torsion>
0.2715

> <Gold.PLP.Chemscore.Hbond>
4.0000

> <Gold.PLP.Chemscore.CHOScore>
0.0000

> <Gold.PLP.Chemscore.Metal>
0.0000

> <Gold.Chemscore.Hbonds>
donor molecule, donor type, donor heavy atom, donor atom, acceptor molecule, acceptor atom, score
      L1  H    10    31       P1  8028  0.99
      L1  H    13    32       P1  8029  0.86
      P1  H  6934  6946       L1    15  1.00
      P1  H  7997  8010       L1     9  0.65

> <Gold.PLP.Chemscore.Internal.Correction>
0.0143

> <Gold.Rescore>
     Score         DG    S(hbond)    S(metal)    S(lipo)     H(rot)  DE(clash)    DE(int)     intcor
     13.92     -16.71       2.65        0.00      58.85       1.76       0.14       2.65       ----

> <Gold.Chemscore.Fitness>
13.9173

> <Gold.Chemscore.DG>
-16.7052

> <Gold.Chemscore.ZeroCoef>
-5.4800

> <Gold.Chemscore.Hbond>
2.6462

> <Gold.Chemscore.Metal>
0.0000

> <Gold.Chemscore.Lipo>
58.8488

> <Gold.Chemscore.Internal_Hbond>
0.0000

> <Gold.Chemscore.DEClash>
0.1382

> <Gold.Chemscore.DEInternal>
2.6497

> <Gold.Chemscore.Rot>
1.7571

> <Gold.Chemscore.Internal.Correction>
   9.000000E+99

> <Gold.Chemscore.Hbonds>
donor molecule, donor type, donor heavy atom, donor atom, acceptor molecule, acceptor atom, score
      L1  H    10    31       P1  8028  0.66
      L1  H    13    32       P1  8029  0.42
      P1  H  6934  6946       L1    15  0.77
      P1  H  7997  8010       L1     9  0.06

> <Gold.Chemscore.Hbond.Weighted>
-8.8382

> <Gold.Chemscore.Metal.Weighted>
-0.0000

> <Gold.Chemscore.Lipo.Weighted>
-6.8853

> <Gold.Chemscore.Internal_Hbond.Weighted>
0.0000

> <Gold.Chemscore.DEClash.Weighted>
0.1382

> <Gold.Chemscore.DEInternal.Weighted>
2.6497

> <Gold.Chemscore.Rot.Weighted>
4.4983

> <Gold.Chemscore.Internal.Correction.Weighted>
   9.000000E+99

> <Gold.Protein.RotatedTorsions>
[ 6907 6896 6895 6894 ] final   -2.00 input  -60.11 | X-H torsion
[ 7974 7965 7964 7962 ] final   25.70 input  175.53 | X-H torsion
[ 8008 7997 7996 7995 ] final   73.43 input   59.86 | X-H torsion
[ 10167 10162 10161 10158 ] final   57.60 input  -65.29 | X-H torsion
[ 10718 10713 10712 10709 ] final -104.65 input   66.30 | X-H torsion
[ 10763 10752 10751 10750 ] final -174.26 input  -60.55 | X-H torsion
[ 11005 11000 10999 10996 ] final -126.14 input  -57.11 | X-H torsion

> <Gold.Protein.ActiveResidues>
 VAL166  LYS551  ARG553  GLY616  TRP617  ASP618  TYR619  PRO620  LYS621  CYS622 
 ASP623  PHE694  ASN695  SER759  ASP760  ASP761  ALA762  ILE779  LEU786  VAL792 
 PHE793  MET794  SER795  GLU796  ALA797  LYS798  CYS799  TRP800  GLU811  SER814 

> <Gold.Protein.RotatedAtoms>
  151.5370  135.1068  159.9916 H   0  0  0  0  0  0  0  0  0  0  0  0  # atno 6907 bound_to 6896
  152.4553  133.7706  159.6807 H   0  0  0  0  0  0  0  0  0  0  0  0  # atno 6908 bound_to 6896
  150.8494  133.7744  159.3055 H   0  0  0  0  0  0  0  0  0  0  0  0  # atno 6909 bound_to 6896
  146.1875  139.7429  142.8856 H   0  0  0  0  0  0  0  0  0  0  0  0  # atno 7974 bound_to 7965
  155.7835  140.3481  155.5310 H   0  0  0  0  0  0  0  0  0  0  0  0  # atno 8008 bound_to 7997
  155.8705  140.0986  157.1574 H   0  0  0  0  0  0  0  0  0  0  0  0  # atno 8009 bound_to 7997
  154.4017  140.1341  156.4059 H   0  0  0  0  0  0  0  0  0  0  0  0  # atno 8010 bound_to 7997
  140.1963  144.4034  150.6549 H   0  0  0  0  0  0  0  0  0  0  0  0  # atno 10167 bound_to 10162
  156.0313  130.5525  150.7427 H   0  0  0  0  0  0  0  0  0  0  0  0  # atno 10718 bound_to 10713
  154.5983  135.2852  155.0562 H   0  0  0  0  0  0  0  0  0  0  0  0  # atno 10763 bound_to 10752
  154.1837  135.6452  153.5045 H   0  0  0  0  0  0  0  0  0  0  0  0  # atno 10764 bound_to 10752
  153.0147  135.5429  154.6693 H   0  0  0  0  0  0  0  0  0  0  0  0  # atno 10765 bound_to 10752
  140.9705  134.0812  157.3874 H   0  0  0  0  0  0  0  0  0  0  0  0  # atno 11005 bound_to 11000
  145.3894  141.0370  143.3133 LP  0  0  0  0  0  0  0  0  0  0  0  0  # atno 17320 bound_to 7965
  144.8424  139.5450  143.6894 LP  0  0  0  0  0  0  0  0  0  0  0  0  # atno 17321 bound_to 7965
  140.6421  143.2206  151.6266 LP  0  0  0  0  0  0  0  0  0  0  0  0  # atno 17342 bound_to 10162
  139.5235  144.3130  152.0976 LP  0  0  0  0  0  0  0  0  0  0  0  0  # atno 17343 bound_to 10162
  157.4992  131.0917  151.0335 LP  0  0  0  0  0  0  0  0  0  0  0  0  # atno 17370 bound_to 10713
  157.0721  130.5868  149.5404 LP  0  0  0  0  0  0  0  0  0  0  0  0  # atno 17371 bound_to 10713
  139.8910  135.0116  156.6770 LP  0  0  0  0  0  0  0  0  0  0  0  0  # atno 17394 bound_to 11000
  140.7335  133.9038  155.8228 LP  0  0  0  0  0  0  0  0  0  0  0  0  # atno 17395 bound_to 11000

$$$$
