AV-unprocessed.smi:2318|AV-procd|sdf|9276|dock3
  -GOLD-   2272012503D 1   1.00000     0.00000
 Structure written by MMmdl.
 37 38  0  0  0  0  0  0  0  0  1 V2000
  151.0106  137.6706  154.1386 C   0  0  0  0  0  0  0  0  0  0  0  0
  151.2285  138.6162  155.2121 N   0  0  0  0  0  0  0  0  0  0  0  0
  151.8848  138.4223  156.4111 C   0  0  0  0  0  0  0  0  0  0  0  0
  151.8335  139.6004  157.1009 C   0  0  0  0  0  0  0  0  0  0  0  0
  151.1162  140.4614  156.2252 C   0  0  0  0  0  0  0  0  0  0  0  0
  150.8517  141.8059  156.5904 N   0  0  0  0  0  0  0  0  0  0  0  0
  150.7870  142.3216  157.8297 C   0  0  0  0  0  0  0  0  0  0  0  0
  150.9435  141.6847  158.8719 O   0  0  0  0  0  0  0  0  0  0  0  0
  150.5301  143.6372  157.7929 N   0  0  0  0  0  0  0  0  0  0  0  0
  150.3737  144.5173  158.9530 C   0  0  1  0  0  0  0  0  0  0  0  0
  149.2147  144.0027  159.8464 C   0  0  0  0  0  0  0  0  0  0  0  0
  147.9183  143.6925  159.0868 C   0  0  0  0  0  0  0  0  0  0  0  0
  146.8396  143.6313  160.1680 C   0  0  0  0  0  0  0  0  0  0  0  0
  147.3025  144.5893  161.2726 C   0  0  0  0  0  0  0  0  0  0  0  0
  148.7450  144.9856  160.9283 C   0  0  0  0  0  0  0  0  0  0  0  0
  151.7322  144.6139  159.6843 C   0  0  0  0  0  0  0  0  0  0  0  0
  151.9465  143.5009  160.3873 F   0  0  0  0  0  0  0  0  0  0  0  0
  152.7355  144.7451  158.8176 F   0  0  0  0  0  0  0  0  0  0  0  0
  151.7426  145.6540  160.5189 F   0  0  0  0  0  0  0  0  0  0  0  0
  150.7512  139.8731  155.0942 N   0  0  0  0  0  0  0  0  0  0  0  0
  151.5754  136.7565  154.3244 H   0  0  0  0  0  0  0  0  0  0  0  0
  151.3371  138.1022  153.1918 H   0  0  0  0  0  0  0  0  0  0  0  0
  149.9500  137.4262  154.0743 H   0  0  0  0  0  0  0  0  0  0  0  0
  152.3288  137.4725  156.6706 H   0  0  0  0  0  0  0  0  0  0  0  0
  152.2452  139.8115  158.0769 H   0  0  0  0  0  0  0  0  0  0  0  0
  150.6969  142.4444  155.8243 H   0  0  0  0  0  0  0  0  0  0  0  0
  150.4179  144.0692  156.8874 H   0  0  0  0  0  0  0  0  0  0  0  0
  150.1183  145.5230  158.6143 H   0  0  0  0  0  0  0  0  0  0  0  0
  149.5325  143.0842  160.3427 H   0  0  0  0  0  0  0  0  0  0  0  0
  147.6920  144.5014  158.3903 H   0  0  0  0  0  0  0  0  0  0  0  0
  147.9751  142.7673  158.5125 H   0  0  0  0  0  0  0  0  0  0  0  0
  145.8542  143.8895  159.7790 H   0  0  0  0  0  0  0  0  0  0  0  0
  146.7798  142.6177  160.5664 H   0  0  0  0  0  0  0  0  0  0  0  0
  146.6652  145.4728  161.3232 H   0  0  0  0  0  0  0  0  0  0  0  0
  147.2535  144.0969  162.2445 H   0  0  0  0  0  0  0  0  0  0  0  0
  149.3885  144.9691  161.8084 H   0  0  0  0  0  0  0  0  0  0  0  0
  148.7528  146.0032  160.5351 H   0  0  0  0  0  0  0  0  0  0  0  0
  1  2  1  0  0  0  0
  1 21  1  0  0  0  0
  1 22  1  0  0  0  0
  1 23  1  0  0  0  0
  2 20  1  0  0  0  0
  2  3  1  0  0  0  0
  3  4  2  0  0  0  0
  3 24  1  0  0  0  0
  4  5  1  0  0  0  0
  4 25  1  0  0  0  0
  5  6  1  0  0  0  0
  5 20  2  0  0  0  0
  6  7  1  0  0  0  0
  6 26  1  0  0  0  0
  7  8  2  0  0  0  0
  7  9  1  0  0  0  0
  9 10  1  0  0  0  0
  9 27  1  0  0  0  0
 10 11  1  0  0  0  0
 10 16  1  0  0  0  0
 10 28  1  0  0  0  0
 11 15  1  0  0  0  0
 11 12  1  0  0  0  0
 11 29  1  0  0  0  0
 12 13  1  0  0  0  0
 12 30  1  0  0  0  0
 12 31  1  0  0  0  0
 13 14  1  0  0  0  0
 13 32  1  0  0  0  0
 13 33  1  0  0  0  0
 14 15  1  0  0  0  0
 14 34  1  0  0  0  0
 14 35  1  0  0  0  0
 15 36  1  0  0  0  0
 15 37  1  0  0  0  0
 16 17  1  0  0  0  0
 16 18  1  0  0  0  0
 16 19  1  0  0  0  0
M  END
> <s_m_source_file>
AV-unprocessed.smi

> <i_m_source_file_index>
2318

> <i_lp_mmshare_version>
43012

> <i_f3d_flags>
0

> <s_epik_input>
W0NIM11uMVtjSF1bY0hdYyhuMSlbTkhdQyg9TylbTkhdW0NAQEhdKEMoRikoRilGKVtDSF0yW0NIMl1bQ0gyXVtDSDJdW0NIMl0y

> <s_epik_cmdline>
J2VwaWtfcHl0aG9uJywgJy1waCcsICc3LjAnLCAnLXRuJywgJzgnLCAnLW1hJywgJzIwMCcsICctbWV0YWxfYmluZGluZycsICctaW1hZScsICc8aW5maWxlLm1hZT4nLCAnLW9tYWUnLCAnPG91dGZpbGUubWFlPic=

> <r_lp_tautomer_probability>
1

> <r_epik_Ionization_Penalty>
2.39546e-05

> <r_epik_Ionization_Penalty_Charging>
0

> <r_epik_Ionization_Penalty_Neutral>
2.39546e-05

> <r_epik_State_Penalty>
-0

> <r_epik_Charging_Adjusted_Penalty>
0

> <i_epik_Tot_Q>
0

> <i_epik_Tot_abs_Q>
0

> <r_epik_Metal_State_Penalty>
-0

> <b_epik_Metal_Only>
0

> <s_lp_Force_Field>
OPLS_2005

> <r_lp_Energy>
23.5829

> <b_lp_Chiralities_Consistent>
1

> <s_lp_Variant>
AV-unprocessed.smi:2318-2

> <Gold.Version>
5.8.1

> <Gold.Id.Protein>
6NUR|6NUR_protein|mol2

> <Gold.PLP.Fitness>
44.5245

> <Gold.PLP.PLP>
-39.9636

> <Gold.PLP.part.hbond>
-2.0000

> <Gold.PLP.part.metal>
0.0000

> <Gold.PLP.part.buried>
-2.7269

> <Gold.PLP.part.nonpolar>
-37.2661

> <Gold.PLP.part.repulsive>
0.1636

> <Gold.PLP.ligand.clash>
0.0000

> <Gold.PLP.ligand.torsion>
0.6159

> <Gold.PLP.Chemscore.Hbond>
1.8160

> <Gold.PLP.Chemscore.CHOScore>
0.0000

> <Gold.PLP.Chemscore.Metal>
0.0000

> <Gold.Chemscore.Hbonds>
donor molecule, donor type, donor heavy atom, donor atom, acceptor molecule, acceptor atom, score
      L1  H     9    27       P1  8028  0.75
      P1  H  7989  7998       L1    20  0.88

> <Gold.PLP.Chemscore.Internal.Correction>
0.3448

> <Gold.Rescore>
     Score         DG    S(hbond)    S(metal)    S(lipo)     H(rot)  DE(clash)    DE(int)     intcor
      9.70     -14.57       1.65        0.00      58.95       1.30       0.32       4.55       ----

> <Gold.Chemscore.Fitness>
9.6983

> <Gold.Chemscore.DG>
-14.5730

> <Gold.Chemscore.ZeroCoef>
-5.4800

> <Gold.Chemscore.Hbond>
1.6542

> <Gold.Chemscore.Metal>
0.0000

> <Gold.Chemscore.Lipo>
58.9451

> <Gold.Chemscore.Internal_Hbond>
0.0000

> <Gold.Chemscore.DEClash>
0.3210

> <Gold.Chemscore.DEInternal>
4.5537

> <Gold.Chemscore.Rot>
1.3003

> <Gold.Chemscore.Internal.Correction>
   9.000000E+99

> <Gold.Chemscore.Hbonds>
donor molecule, donor type, donor heavy atom, donor atom, acceptor molecule, acceptor atom, score
      L1  H     9    27       P1  8028  0.70
      P1  H  7989  7998       L1    20  0.47

> <Gold.Chemscore.Hbond.Weighted>
-5.5252

> <Gold.Chemscore.Metal.Weighted>
-0.0000

> <Gold.Chemscore.Lipo.Weighted>
-6.8966

> <Gold.Chemscore.Internal_Hbond.Weighted>
0.0000

> <Gold.Chemscore.DEClash.Weighted>
0.3210

> <Gold.Chemscore.DEInternal.Weighted>
4.5537

> <Gold.Chemscore.Rot.Weighted>
3.3287

> <Gold.Chemscore.Internal.Correction.Weighted>
   9.000000E+99

> <Gold.Protein.RotatedTorsions>
[ 6907 6896 6895 6894 ] final  -53.54 input  -60.11 | X-H torsion
[ 7974 7965 7964 7962 ] final   74.69 input  175.53 | X-H torsion
[ 8008 7997 7996 7995 ] final  165.29 input   59.86 | X-H torsion
[ 10167 10162 10161 10158 ] final  -91.73 input  -65.29 | X-H torsion
[ 10718 10713 10712 10709 ] final   -0.05 input   66.30 | X-H torsion
[ 10763 10752 10751 10750 ] final   37.70 input  -60.55 | X-H torsion
[ 11005 11000 10999 10996 ] final   51.25 input  -57.11 | X-H torsion

> <Gold.Protein.ActiveResidues>
 VAL166  LYS551  ARG553  GLY616  TRP617  ASP618  TYR619  PRO620  LYS621  CYS622 
 ASP623  PHE694  ASN695  SER759  ASP760  ASP761  ALA762  ILE779  LEU786  VAL792 
 PHE793  MET794  SER795  GLU796  ALA797  LYS798  CYS799  TRP800  GLU811  SER814 

> <Gold.Protein.RotatedAtoms>
  150.8417  134.7712  159.6937 H   0  0  0  0  0  0  0  0  0  0  0  0  # atno 6907 bound_to 6896
  152.4503  134.5404  159.9847 H   0  0  0  0  0  0  0  0  0  0  0  0  # atno 6908 bound_to 6896
  151.5542  133.3375  159.2994 H   0  0  0  0  0  0  0  0  0  0  0  0  # atno 6909 bound_to 6896
  145.7250  139.2662  143.1574 H   0  0  0  0  0  0  0  0  0  0  0  0  # atno 7974 bound_to 7965
  156.1812  140.1674  156.8270 H   0  0  0  0  0  0  0  0  0  0  0  0  # atno 8008 bound_to 7997
  154.5362  140.0746  156.8465 H   0  0  0  0  0  0  0  0  0  0  0  0  # atno 8009 bound_to 7997
  155.3306  140.3379  155.4242 H   0  0  0  0  0  0  0  0  0  0  0  0  # atno 8010 bound_to 7997
  140.3419  143.2937  151.9825 H   0  0  0  0  0  0  0  0  0  0  0  0  # atno 10167 bound_to 10162
  156.8261  130.5473  149.5692 H   0  0  0  0  0  0  0  0  0  0  0  0  # atno 10718 bound_to 10713
  153.0028  135.6270  154.2186 H   0  0  0  0  0  0  0  0  0  0  0  0  # atno 10763 bound_to 10752
  154.1929  135.2808  155.3018 H   0  0  0  0  0  0  0  0  0  0  0  0  # atno 10764 bound_to 10752
  154.5745  135.5666  153.7186 H   0  0  0  0  0  0  0  0  0  0  0  0  # atno 10765 bound_to 10752
  140.0948  134.5160  155.8817 H   0  0  0  0  0  0  0  0  0  0  0  0  # atno 11005 bound_to 11000
  146.0590  140.7990  142.9744 LP  0  0  0  0  0  0  0  0  0  0  0  0  # atno 17320 bound_to 7965
  144.6907  140.3168  143.7239 LP  0  0  0  0  0  0  0  0  0  0  0  0  # atno 17321 bound_to 7965
  139.4839  144.6149  151.7365 LP  0  0  0  0  0  0  0  0  0  0  0  0  # atno 17342 bound_to 10162
  140.5300  144.0744  150.6050 LP  0  0  0  0  0  0  0  0  0  0  0  0  # atno 17343 bound_to 10162
  156.0961  130.5933  150.9815 LP  0  0  0  0  0  0  0  0  0  0  0  0  # atno 17370 bound_to 10713
  157.6431  131.0907  150.8209 LP  0  0  0  0  0  0  0  0  0  0  0  0  # atno 17371 bound_to 10713
  141.2089  133.6678  156.6400 LP  0  0  0  0  0  0  0  0  0  0  0  0  # atno 17394 bound_to 11000
  140.3302  134.7935  157.4320 LP  0  0  0  0  0  0  0  0  0  0  0  0  # atno 17395 bound_to 11000

$$$$
