AV-unprocessed.smi:1191|AV-procd|sdf|4985|dock4
  -GOLD-   22720 3583D 1   1.00000     0.00000
 Structure written by MMmdl.
 47 48  0  0  0  0  0  0  0  0  2 V2000
  147.1739  138.1845  163.5321 C   0  0  0  0  0  0  0  0  0  0  0  0
  147.3401  137.0129  162.6094 C   0  0  0  0  0  0  0  0  0  0  0  0
  147.2782  135.6265  162.9239 C   0  0  0  0  0  0  0  0  0  0  0  0
  147.4986  134.9985  161.7303 C   0  0  0  0  0  0  0  0  0  0  0  0
  147.5556  133.5423  161.4032 C   0  0  0  0  0  0  0  0  0  0  0  0
  147.6773  135.9907  160.7824 N   0  0  0  0  0  0  0  0  0  0  0  0
  147.9369  135.8624  159.3561 C   0  0  0  0  0  0  0  0  0  0  0  0
  149.1189  136.7305  158.9202 C   0  0  0  0  0  0  0  0  0  0  0  0
  150.2605  136.4426  159.2790 O   0  0  0  0  0  0  0  0  0  0  0  0
  148.8347  137.7921  158.1494 N   0  0  0  0  0  0  0  0  0  0  0  0
  149.8153  138.7362  157.6292 C   0  0  0  0  0  0  0  0  0  0  0  0
  150.9048  139.0526  158.6723 C   0  0  0  0  0  0  0  0  0  0  0  0
  151.5088  140.3929  158.4675 N   0  3  2  0  0  0  0  0  0  0  0  0
  152.5199  140.7197  159.5057 C   0  0  0  0  0  0  0  0  0  0  0  0
  153.2446  142.0351  159.1784 C   0  0  0  0  0  0  0  0  0  0  0  0
  152.2453  143.1869  158.9985 C   0  0  0  0  0  0  0  0  0  0  0  0
  151.1560  142.8270  157.9712 C   0  0  1  0  0  0  0  0  0  0  0  0
  151.6707  142.8538  156.5211 C   0  0  0  0  0  0  0  0  0  0  0  0
  150.4990  141.4780  158.3302 C   0  0  0  0  0  0  0  0  0  0  0  0
  147.5756  137.2241  161.3250 N   0  0  0  0  0  0  0  0  0  0  0  0
  147.0946  137.8604  164.5700 H   0  0  0  0  0  0  0  0  0  0  0  0
  146.2732  138.7492  163.2911 H   0  0  0  0  0  0  0  0  0  0  0  0
  148.0234  138.8644  163.4625 H   0  0  0  0  0  0  0  0  0  0  0  0
  147.1005  135.1626  163.8829 H   0  0  0  0  0  0  0  0  0  0  0  0
  147.3718  132.9365  162.2906 H   0  0  0  0  0  0  0  0  0  0  0  0
  148.5351  133.2702  161.0096 H   0  0  0  0  0  0  0  0  0  0  0  0
  146.8047  133.2801  160.6576 H   0  0  0  0  0  0  0  0  0  0  0  0
  148.1405  134.8179  159.1149 H   0  0  0  0  0  0  0  0  0  0  0  0
  147.0389  136.1448  158.8053 H   0  0  0  0  0  0  0  0  0  0  0  0
  147.8675  137.9509  157.9036 H   0  0  0  0  0  0  0  0  0  0  0  0
  150.2693  138.2961  156.7410 H   0  0  0  0  0  0  0  0  0  0  0  0
  149.2983  139.6372  157.2992 H   0  0  0  0  0  0  0  0  0  0  0  0
  150.5142  138.9806  159.6884 H   0  0  0  0  0  0  0  0  0  0  0  0
  151.6808  138.2901  158.5874 H   0  0  0  0  0  0  0  0  0  0  0  0
  152.0336  140.7876  160.4804 H   0  0  0  0  0  0  0  0  0  0  0  0
  153.2555  139.9172  159.5732 H   0  0  0  0  0  0  0  0  0  0  0  0
  153.9495  142.2782  159.9740 H   0  0  0  0  0  0  0  0  0  0  0  0
  153.8387  141.9123  158.2723 H   0  0  0  0  0  0  0  0  0  0  0  0
  151.7751  143.4024  159.9591 H   0  0  0  0  0  0  0  0  0  0  0  0
  152.7660  144.0984  158.7030 H   0  0  0  0  0  0  0  0  0  0  0  0
  150.3840  143.5948  158.0364 H   0  0  0  0  0  0  0  0  0  0  0  0
  152.4317  142.0938  156.3439 H   0  0  0  0  0  0  0  0  0  0  0  0
  152.1070  143.8229  156.2776 H   0  0  0  0  0  0  0  0  0  0  0  0
  150.8586  142.6755  155.8158 H   0  0  0  0  0  0  0  0  0  0  0  0
  149.7612  141.2263  157.5695 H   0  0  0  0  0  0  0  0  0  0  0  0
  149.9509  141.5734  159.2691 H   0  0  0  0  0  0  0  0  0  0  0  0
  152.0118  140.3466  157.5928 H   0  0  0  0  0  0  0  0  0  0  0  0
  1  2  1  0  0  0  0
  1 21  1  0  0  0  0
  1 22  1  0  0  0  0
  1 23  1  0  0  0  0
  2 20  2  0  0  0  0
  2  3  1  0  0  0  0
  3  4  2  0  0  0  0
  3 24  1  0  0  0  0
  4  5  1  0  0  0  0
  4  6  1  0  0  0  0
  5 25  1  0  0  0  0
  5 26  1  0  0  0  0
  5 27  1  0  0  0  0
  6  7  1  0  0  0  0
  6 20  1  0  0  0  0
  7  8  1  0  0  0  0
  7 28  1  0  0  0  0
  7 29  1  0  0  0  0
  8  9  2  0  0  0  0
  8 10  1  0  0  0  0
 10 11  1  0  0  0  0
 10 30  1  0  0  0  0
 11 12  1  0  0  0  0
 11 31  1  0  0  0  0
 11 32  1  0  0  0  0
 12 13  1  0  0  0  0
 12 33  1  0  0  0  0
 12 34  1  0  0  0  0
 13 19  1  0  0  0  0
 13 14  1  0  0  0  0
 13 47  1  0  0  0  0
 14 15  1  0  0  0  0
 14 35  1  0  0  0  0
 14 36  1  0  0  0  0
 15 16  1  0  0  0  0
 15 37  1  0  0  0  0
 15 38  1  0  0  0  0
 16 17  1  0  0  0  0
 16 39  1  0  0  0  0
 16 40  1  0  0  0  0
 17 18  1  0  0  0  0
 17 19  1  0  0  0  0
 17 41  1  0  0  0  0
 18 42  1  0  0  0  0
 18 43  1  0  0  0  0
 18 44  1  0  0  0  0
 19 45  1  0  0  0  0
 19 46  1  0  0  0  0
M  CHG  1  13   1
M  END
> <s_m_source_file>
AV-unprocessed.smi

> <i_m_source_file_index>
1191

> <i_lp_mmshare_version>
43012

> <i_f3d_flags>
0

> <s_epik_input>
W0NIM11jMVtjSF1jKFtDSDNdKW4objEpW0NIMl1DKD1PKVtOSF1bQ0gyXVtDSDJdTjJbQ0gyXVtDSDJdW0NIMl1bQ0BASF0oW0NIM10pW0NIMl0y

> <s_epik_cmdline>
J2VwaWtfcHl0aG9uJywgJy1waCcsICc3LjAnLCAnLXRuJywgJzgnLCAnLW1hJywgJzIwMCcsICctbWV0YWxfYmluZGluZycsICctaW1hZScsICc8aW5maWxlLm1hZT4nLCAnLW9tYWUnLCAnPG91dGZpbGUubWFlPic=

> <r_lp_tautomer_probability>
1

> <r_epik_Ionization_Penalty>
0.00249932

> <r_epik_Ionization_Penalty_Charging>
0.00230623

> <r_epik_Ionization_Penalty_Neutral>
0.000193092

> <r_epik_State_Penalty>
-0

> <r_epik_Charging_Adjusted_Penalty>
0.00230623

> <i_epik_Tot_Q>
1

> <i_epik_Tot_abs_Q>
1

> <r_epik_Metal_State_Penalty>
-0

> <b_epik_Metal_Only>
0

> <s_lp_Force_Field>
OPLS_2005

> <r_lp_Energy>
16.5378

> <b_lp_Chiralities_Consistent>
1

> <s_lp_Variant>
AV-unprocessed.smi:1191-2

> <Gold.Version>
5.8.1

> <Gold.Id.Protein>
6NUR|6NUR_protein|mol2

> <Gold.PLP.Fitness>
43.3023

> <Gold.PLP.PLP>
-37.2741

> <Gold.PLP.part.hbond>
-3.0000

> <Gold.PLP.part.metal>
0.0000

> <Gold.PLP.part.buried>
-2.4558

> <Gold.PLP.part.nonpolar>
-32.3882

> <Gold.PLP.part.repulsive>
0.2700

> <Gold.PLP.ligand.clash>
0.0000

> <Gold.PLP.ligand.torsion>
0.5089

> <Gold.PLP.Chemscore.Hbond>
2.3320

> <Gold.PLP.Chemscore.CHOScore>
0.0000

> <Gold.PLP.Chemscore.Metal>
0.0000

> <Gold.Chemscore.Hbonds>
donor molecule, donor type, donor heavy atom, donor atom, acceptor molecule, acceptor atom, score
      P1  H  6896  6909       L1     9  0.90
      P1  H  6931  6943       L1    20  0.28
      P1  H  6934  6947       L1    20  0.88

> <Gold.PLP.Chemscore.Internal.Correction>
0.0500

> <Gold.Rescore>
     Score         DG    S(hbond)    S(metal)    S(lipo)     H(rot)  DE(clash)    DE(int)     intcor
     16.27     -19.90       1.80        0.00     108.33       1.67       1.36       2.28       ----

> <Gold.Chemscore.Fitness>
16.2674

> <Gold.Chemscore.DG>
-19.9000

> <Gold.Chemscore.ZeroCoef>
-5.4800

> <Gold.Chemscore.Hbond>
1.7993

> <Gold.Chemscore.Metal>
0.0000

> <Gold.Chemscore.Lipo>
108.3288

> <Gold.Chemscore.Internal_Hbond>
0.0000

> <Gold.Chemscore.DEClash>
1.3560

> <Gold.Chemscore.DEInternal>
2.2767

> <Gold.Chemscore.Rot>
1.6657

> <Gold.Chemscore.Internal.Correction>
   9.000000E+99

> <Gold.Chemscore.Hbonds>
donor molecule, donor type, donor heavy atom, donor atom, acceptor molecule, acceptor atom, score
      P1  H  6896  6909       L1     9  0.86
      P1  H  6934  6947       L1    20  0.56

> <Gold.Chemscore.Hbond.Weighted>
-6.0096

> <Gold.Chemscore.Metal.Weighted>
-0.0000

> <Gold.Chemscore.Lipo.Weighted>
-12.6745

> <Gold.Chemscore.Internal_Hbond.Weighted>
0.0000

> <Gold.Chemscore.DEClash.Weighted>
1.3560

> <Gold.Chemscore.DEInternal.Weighted>
2.2767

> <Gold.Chemscore.Rot.Weighted>
4.2641

> <Gold.Chemscore.Internal.Correction.Weighted>
   9.000000E+99

> <Gold.Protein.RotatedTorsions>
[ 6907 6896 6895 6894 ] final   59.18 input  -60.11 | X-H torsion
[ 7974 7965 7964 7962 ] final   38.65 input  175.53 | X-H torsion
[ 8008 7997 7996 7995 ] final -161.93 input   59.86 | X-H torsion
[ 10167 10162 10161 10158 ] final   29.84 input  -65.29 | X-H torsion
[ 10718 10713 10712 10709 ] final  -25.09 input   66.30 | X-H torsion
[ 10763 10752 10751 10750 ] final  179.68 input  -60.55 | X-H torsion
[ 11005 11000 10999 10996 ] final -175.50 input  -57.11 | X-H torsion

> <Gold.Protein.ActiveResidues>
 VAL166  LYS551  ARG553  GLY616  TRP617  ASP618  TYR619  PRO620  LYS621  CYS622 
 ASP623  PHE694  ASN695  SER759  ASP760  ASP761  ALA762  ILE779  LEU786  VAL792 
 PHE793  MET794  SER795  GLU796  ALA797  LYS798  CYS799  TRP800  GLU811  SER814 

> <Gold.Protein.RotatedAtoms>
  152.3891  134.6469  160.0113 H   0  0  0  0  0  0  0  0  0  0  0  0  # atno 6907 bound_to 6896
  151.6709  133.3308  159.3204 H   0  0  0  0  0  0  0  0  0  0  0  0  # atno 6908 bound_to 6896
  150.7811  134.6800  159.6483 H   0  0  0  0  0  0  0  0  0  0  0  0  # atno 6909 bound_to 6896
  146.1045  139.5746  142.9392 H   0  0  0  0  0  0  0  0  0  0  0  0  # atno 7974 bound_to 7965
  155.7994  140.0889  157.1965 H   0  0  0  0  0  0  0  0  0  0  0  0  # atno 8008 bound_to 7997
  154.3982  140.1475  156.3315 H   0  0  0  0  0  0  0  0  0  0  0  0  # atno 8009 bound_to 7997
  155.8478  140.3436  155.5676 H   0  0  0  0  0  0  0  0  0  0  0  0  # atno 8010 bound_to 7997
  140.4730  144.0733  150.6242 H   0  0  0  0  0  0  0  0  0  0  0  0  # atno 10167 bound_to 10162
  156.4689  130.4520  149.6881 H   0  0  0  0  0  0  0  0  0  0  0  0  # atno 10718 bound_to 10713
  154.5238  135.2795  155.1239 H   0  0  0  0  0  0  0  0  0  0  0  0  # atno 10763 bound_to 10752
  154.2786  135.6290  153.5342 H   0  0  0  0  0  0  0  0  0  0  0  0  # atno 10764 bound_to 10752
  152.9942  135.5646  154.5734 H   0  0  0  0  0  0  0  0  0  0  0  0  # atno 10765 bound_to 10752
  140.4625  134.6241  157.4849 H   0  0  0  0  0  0  0  0  0  0  0  0  # atno 11005 bound_to 11000
  145.5788  141.0385  143.2134 LP  0  0  0  0  0  0  0  0  0  0  0  0  # atno 17320 bound_to 7965
  144.7460  139.7320  143.7292 LP  0  0  0  0  0  0  0  0  0  0  0  0  # atno 17321 bound_to 7965
  140.3953  143.2731  152.0012 LP  0  0  0  0  0  0  0  0  0  0  0  0  # atno 17342 bound_to 10162
  139.4821  144.6043  151.7549 LP  0  0  0  0  0  0  0  0  0  0  0  0  # atno 17343 bound_to 10162
  156.3638  130.7495  151.2471 LP  0  0  0  0  0  0  0  0  0  0  0  0  # atno 17370 bound_to 10713
  157.7493  131.0342  150.4308 LP  0  0  0  0  0  0  0  0  0  0  0  0  # atno 17371 bound_to 10713
  139.9936  134.6946  155.9648 LP  0  0  0  0  0  0  0  0  0  0  0  0  # atno 17394 bound_to 11000
  141.1614  133.6538  156.4333 LP  0  0  0  0  0  0  0  0  0  0  0  0  # atno 17395 bound_to 11000

$$$$
