AV-unprocessed.smi:2908|AV-procd|sdf|11168|dock5
  -GOLD-   2272016 53D 1   1.00000     0.00000
 Structure written by MMmdl.
 43 44  0  0  0  0  0  0  0  0  1 V2000
  150.2111  137.7431  159.7734 O   0  0  0  0  0  0  0  0  0  0  0  0
  150.2411  137.9260  158.5557 C   0  0  0  0  0  0  0  0  0  0  0  0
  149.4790  137.2181  157.7077 N   0  0  0  0  0  0  0  0  0  0  0  0
  148.4295  136.2813  158.0910 C   0  0  0  0  0  0  0  0  0  0  0  0
  147.4025  136.9399  159.0307 C   0  0  0  0  0  0  0  0  0  0  0  0
  147.3067  136.2660  160.3908 C   0  0  0  0  0  0  0  0  0  0  0  0
  147.0887  134.8755  160.4879 C   0  0  0  0  0  0  0  0  0  0  0  0
  147.0456  134.2904  161.7682 C   0  0  0  0  0  0  0  0  0  0  0  0
  147.2204  135.1140  162.8970 C   0  0  0  0  0  0  0  0  0  0  0  0
  147.4297  136.4923  162.6944 C   0  0  0  0  0  0  0  0  0  0  0  0
  147.4770  137.0625  161.4713 N   0  0  0  0  0  0  0  0  0  0  0  0
  151.0318  138.8544  157.9599 N   0  0  0  0  0  0  0  0  0  0  0  0
  150.7037  139.6232  156.7488 C   0  0  0  0  0  0  0  0  0  0  0  0
  150.2245  141.0196  157.1806 C   0  0  0  0  0  0  0  0  0  0  0  0
  151.2905  141.7457  158.0386 C   0  0  0  0  0  0  0  0  0  0  0  0
  150.7790  143.1291  158.5194 C   0  0  1  0  0  0  0  0  0  0  0  0
  149.8163  142.9657  159.5442 O   0  0  0  0  0  0  0  0  0  0  0  0
  151.8704  144.1144  158.9933 C   0  0  0  0  0  0  0  0  0  0  0  0
  151.2991  145.2440  159.4119 F   0  0  0  0  0  0  0  0  0  0  0  0
  152.6081  143.6097  159.9821 F   0  0  0  0  0  0  0  0  0  0  0  0
  152.6732  144.4181  157.9734 F   0  0  0  0  0  0  0  0  0  0  0  0
  151.8176  140.8253  159.1708 C   0  0  0  0  0  0  0  0  0  0  0  0
  152.1967  139.4295  158.6395 C   0  0  0  0  0  0  0  0  0  0  0  0
  149.5699  137.4151  156.7215 H   0  0  0  0  0  0  0  0  0  0  0  0
  147.9368  135.8998  157.1964 H   0  0  0  0  0  0  0  0  0  0  0  0
  148.8721  135.4236  158.6007 H   0  0  0  0  0  0  0  0  0  0  0  0
  147.6635  137.9895  159.1758 H   0  0  0  0  0  0  0  0  0  0  0  0
  146.4185  136.9373  158.5605 H   0  0  0  0  0  0  0  0  0  0  0  0
  146.9665  134.2694  159.6021 H   0  0  0  0  0  0  0  0  0  0  0  0
  146.8842  133.2288  161.8825 H   0  0  0  0  0  0  0  0  0  0  0  0
  147.1944  134.7002  163.8940 H   0  0  0  0  0  0  0  0  0  0  0  0
  147.5693  137.1540  163.5363 H   0  0  0  0  0  0  0  0  0  0  0  0
  151.5930  139.7117  156.1231 H   0  0  0  0  0  0  0  0  0  0  0  0
  149.9553  139.1491  156.1138 H   0  0  0  0  0  0  0  0  0  0  0  0
  149.9841  141.6141  156.2986 H   0  0  0  0  0  0  0  0  0  0  0  0
  149.2964  140.9164  157.7445 H   0  0  0  0  0  0  0  0  0  0  0  0
  152.1343  141.9317  157.3729 H   0  0  0  0  0  0  0  0  0  0  0  0
  150.2655  143.5999  157.6799 H   0  0  0  0  0  0  0  0  0  0  0  0
  149.6253  142.0446  159.6320 H   0  0  0  0  0  0  0  0  0  0  0  0
  152.6934  141.2660  159.6452 H   0  0  0  0  0  0  0  0  0  0  0  0
  151.0626  140.7172  159.9506 H   0  0  0  0  0  0  0  0  0  0  0  0
  152.5574  138.8017  159.4555 H   0  0  0  0  0  0  0  0  0  0  0  0
  153.0289  139.5071  157.9384 H   0  0  0  0  0  0  0  0  0  0  0  0
  1  2  2  0  0  0  0
  2  3  1  0  0  0  0
  2 12  1  0  0  0  0
  3  4  1  0  0  0  0
  3 24  1  0  0  0  0
  4  5  1  0  0  0  0
  4 25  1  0  0  0  0
  4 26  1  0  0  0  0
  5  6  1  0  0  0  0
  5 27  1  0  0  0  0
  5 28  1  0  0  0  0
  6 11  1  0  0  0  0
  6  7  2  0  0  0  0
  7  8  1  0  0  0  0
  7 29  1  0  0  0  0
  8  9  2  0  0  0  0
  8 30  1  0  0  0  0
  9 10  1  0  0  0  0
  9 31  1  0  0  0  0
 10 11  2  0  0  0  0
 10 32  1  0  0  0  0
 12 23  1  0  0  0  0
 12 13  1  0  0  0  0
 13 14  1  0  0  0  0
 13 33  1  0  0  0  0
 13 34  1  0  0  0  0
 14 15  1  0  0  0  0
 14 35  1  0  0  0  0
 14 36  1  0  0  0  0
 15 16  1  0  0  0  0
 15 22  1  0  0  0  0
 15 37  1  0  0  0  0
 16 17  1  0  0  0  0
 16 18  1  0  0  0  0
 16 38  1  0  0  0  0
 17 39  1  0  0  0  0
 18 19  1  0  0  0  0
 18 20  1  0  0  0  0
 18 21  1  0  0  0  0
 22 23  1  0  0  0  0
 22 40  1  0  0  0  0
 22 41  1  0  0  0  0
 23 42  1  0  0  0  0
 23 43  1  0  0  0  0
M  END
> <s_m_source_file>
AV-unprocessed.smi

> <i_m_source_file_index>
2908

> <i_lp_mmshare_version>
43012

> <i_f3d_flags>
0

> <s_epik_input>
RkMoRikoRilbQ0BASF0oW09IXSlbQ0hdKFtDSDJdW0NIMl0xKVtDSDJdW0NIMl1OMUMoPU8pW05IXVtDSDJdW0NIMl1jMltjSF1bY0hdW2NIXVtjSF1uMg==

> <s_epik_cmdline>
J2VwaWtfcHl0aG9uJywgJy1waCcsICc3LjAnLCAnLXRuJywgJzgnLCAnLW1hJywgJzIwMCcsICctbWV0YWxfYmluZGluZycsICctaW1hZScsICc8aW5maWxlLm1hZT4nLCAnLW9tYWUnLCAnPG91dGZpbGUubWFlPic=

> <r_epik_Ionization_Penalty>
0.0451198

> <r_epik_Ionization_Penalty_Charging>
0

> <r_epik_Ionization_Penalty_Neutral>
0.0451198

> <r_epik_State_Penalty>
0.0381178

> <r_epik_Charging_Adjusted_Penalty>
0.0381178

> <i_epik_Tot_Q>
0

> <i_epik_Tot_abs_Q>
0

> <r_epik_Metal_State_Penalty>
0.0354176

> <b_epik_Metal_Only>
0

> <s_lp_Force_Field>
OPLS_2005

> <r_lp_Energy>
37.4058

> <b_lp_Chiralities_Consistent>
1

> <s_lp_Variant>
AV-unprocessed.smi:2908-2

> <Gold.Version>
5.8.1

> <Gold.Id.Protein>
6NUR|6NUR_protein|mol2

> <Gold.PLP.Fitness>
53.4531

> <Gold.PLP.PLP>
-50.2993

> <Gold.PLP.part.hbond>
-4.0000

> <Gold.PLP.part.metal>
0.0000

> <Gold.PLP.part.buried>
-5.4622

> <Gold.PLP.part.nonpolar>
-41.2735

> <Gold.PLP.part.repulsive>
0.0683

> <Gold.PLP.ligand.clash>
0.0000

> <Gold.PLP.ligand.torsion>
0.9584

> <Gold.PLP.Chemscore.Hbond>
1.5930

> <Gold.PLP.Chemscore.CHOScore>
0.0000

> <Gold.PLP.Chemscore.Metal>
0.0000

> <Gold.Chemscore.Hbonds>
donor molecule, donor type, donor heavy atom, donor atom, acceptor molecule, acceptor atom, score
      P1  H  6931  6943       L1    11  0.74
      P1  H  6934  6947       L1    11  0.86

> <Gold.PLP.Chemscore.Internal.Correction>
0.2916

> <Gold.Rescore>
     Score         DG    S(hbond)    S(metal)    S(lipo)     H(rot)  DE(clash)    DE(int)     intcor
     11.73     -12.79       0.91        0.00      86.81       2.30       0.00       1.06       ----

> <Gold.Chemscore.Fitness>
11.7303

> <Gold.Chemscore.DG>
-12.7893

> <Gold.Chemscore.ZeroCoef>
-5.4800

> <Gold.Chemscore.Hbond>
0.9142

> <Gold.Chemscore.Metal>
0.0000

> <Gold.Chemscore.Lipo>
86.8057

> <Gold.Chemscore.Internal_Hbond>
0.0000

> <Gold.Chemscore.DEClash>
0.0000

> <Gold.Chemscore.DEInternal>
1.0590

> <Gold.Chemscore.Rot>
2.3048

> <Gold.Chemscore.Internal.Correction>
   9.000000E+99

> <Gold.Chemscore.Hbonds>
donor molecule, donor type, donor heavy atom, donor atom, acceptor molecule, acceptor atom, score
      P1  H  6931  6943       L1    11  0.08
      P1  H  6934  6947       L1    11  0.59

> <Gold.Chemscore.Hbond.Weighted>
-3.0534

> <Gold.Chemscore.Metal.Weighted>
-0.0000

> <Gold.Chemscore.Lipo.Weighted>
-10.1563

> <Gold.Chemscore.Internal_Hbond.Weighted>
0.0000

> <Gold.Chemscore.DEClash.Weighted>
0.0000

> <Gold.Chemscore.DEInternal.Weighted>
1.0590

> <Gold.Chemscore.Rot.Weighted>
5.9004

> <Gold.Chemscore.Internal.Correction.Weighted>
   9.000000E+99

> <Gold.Protein.RotatedTorsions>
[ 6907 6896 6895 6894 ] final  -27.52 input  -60.11 | X-H torsion
[ 7974 7965 7964 7962 ] final -169.48 input  175.53 | X-H torsion
[ 8008 7997 7996 7995 ] final   23.59 input   59.86 | X-H torsion
[ 10167 10162 10161 10158 ] final   57.52 input  -65.29 | X-H torsion
[ 10718 10713 10712 10709 ] final -155.16 input   66.30 | X-H torsion
[ 10763 10752 10751 10750 ] final  153.04 input  -60.55 | X-H torsion
[ 11005 11000 10999 10996 ] final  133.84 input  -57.11 | X-H torsion

> <Gold.Protein.ActiveResidues>
 VAL166  LYS551  ARG553  GLY616  TRP617  ASP618  TYR619  PRO620  LYS621  CYS622 
 ASP623  PHE694  ASN695  SER759  ASP760  ASP761  ALA762  ILE779  LEU786  VAL792 
 PHE793  MET794  SER795  GLU796  ALA797  LYS798  CYS799  TRP800  GLU811  SER814 

> <Gold.Protein.RotatedAtoms>
  151.1458  135.0202  159.8645 H   0  0  0  0  0  0  0  0  0  0  0  0  # atno 6907 bound_to 6896
  152.5453  134.1446  159.8503 H   0  0  0  0  0  0  0  0  0  0  0  0  # atno 6908 bound_to 6896
  151.1526  133.4852  159.2628 H   0  0  0  0  0  0  0  0  0  0  0  0  # atno 6909 bound_to 6896
  144.7185  140.2215  143.6315 H   0  0  0  0  0  0  0  0  0  0  0  0  # atno 7974 bound_to 7965
  154.9832  140.3104  155.4937 H   0  0  0  0  0  0  0  0  0  0  0  0  # atno 8008 bound_to 7997
  156.2950  140.2262  156.4872 H   0  0  0  0  0  0  0  0  0  0  0  0  # atno 8009 bound_to 7997
  154.7770  140.0448  157.1085 H   0  0  0  0  0  0  0  0  0  0  0  0  # atno 8010 bound_to 7997
  140.1971  144.4026  150.6545 H   0  0  0  0  0  0  0  0  0  0  0  0  # atno 10167 bound_to 10162
  156.5090  130.8426  151.2639 H   0  0  0  0  0  0  0  0  0  0  0  0  # atno 10718 bound_to 10713
  154.1298  135.2827  155.3188 H   0  0  0  0  0  0  0  0  0  0  0  0  # atno 10763 bound_to 10752
  154.6364  135.5417  153.7742 H   0  0  0  0  0  0  0  0  0  0  0  0  # atno 10764 bound_to 10752
  153.0285  135.6475  154.1449 H   0  0  0  0  0  0  0  0  0  0  0  0  # atno 10765 bound_to 10752
  139.9877  134.9526  156.9782 H   0  0  0  0  0  0  0  0  0  0  0  0  # atno 11005 bound_to 11000
  145.8496  139.2169  143.1780 LP  0  0  0  0  0  0  0  0  0  0  0  0  # atno 17320 bound_to 7965
  146.0272  140.8292  142.9894 LP  0  0  0  0  0  0  0  0  0  0  0  0  # atno 17321 bound_to 7965
  140.6416  143.2205  151.6277 LP  0  0  0  0  0  0  0  0  0  0  0  0  # atno 17342 bound_to 10162
  139.5232  144.3139  152.0969 LP  0  0  0  0  0  0  0  0  0  0  0  0  # atno 17343 bound_to 10162
  157.7453  130.9956  150.2749 LP  0  0  0  0  0  0  0  0  0  0  0  0  # atno 17370 bound_to 10713
  156.3258  130.3793  149.7534 LP  0  0  0  0  0  0  0  0  0  0  0  0  # atno 17371 bound_to 10713
  140.4969  134.1136  155.7243 LP  0  0  0  0  0  0  0  0  0  0  0  0  # atno 17394 bound_to 11000
  141.1539  133.8918  157.2028 LP  0  0  0  0  0  0  0  0  0  0  0  0  # atno 17395 bound_to 11000

$$$$
