AV-unprocessed.smi:1631|AV-procd|sdf|6526|dock10
  -GOLD-   22720 7203D 1   1.00000     0.00000
 Structure written by MMmdl.
 38 39  0  0  0  0  0  0  0  0  1 V2000
  146.1127  142.0472  154.1550 C   0  0  0  0  0  0  0  0  0  0  0  0
  146.9127  140.7795  154.3088 C   0  0  0  0  0  0  0  0  0  0  0  0
  146.2191  139.6894  154.3342 N   0  0  0  0  0  0  0  0  0  0  0  0
  146.8185  138.4530  154.4638 N   0  0  0  0  0  0  0  0  0  0  0  0
  145.8712  137.3301  154.4608 C   0  0  0  0  0  0  0  0  0  0  0  0
  145.3408  137.0112  153.0439 C   0  0  2  0  0  0  0  0  0  0  0  0
  145.1144  138.2322  152.3661 O   0  0  0  0  0  0  0  0  0  0  0  0
  144.0596  136.1792  153.1081 C   0  0  0  0  0  0  0  0  0  0  0  0
  142.9658  136.7018  153.8370 C   0  0  0  0  0  0  0  0  0  0  0  0
  141.7595  135.9885  153.9450 C   0  0  0  0  0  0  0  0  0  0  0  0
  141.6320  134.7370  153.3213 C   0  0  0  0  0  0  0  0  0  0  0  0
  142.7098  134.2047  152.5914 C   0  0  0  0  0  0  0  0  0  0  0  0
  143.9310  134.9106  152.4726 C   0  0  0  0  0  0  0  0  0  0  0  0
  145.0686  134.2892  151.6612 C   0  0  0  0  0  0  0  0  0  0  0  0
  144.7046  133.1374  151.0959 F   0  0  0  0  0  0  0  0  0  0  0  0
  145.4408  135.1168  150.6844 F   0  0  0  0  0  0  0  0  0  0  0  0
  146.1121  134.0361  152.4499 F   0  0  0  0  0  0  0  0  0  0  0  0
  148.1613  138.2514  154.5820 C   0  0  0  0  0  0  0  0  0  0  0  0
  148.6558  137.1298  154.6995 O   0  0  0  0  0  0  0  0  0  0  0  0
  148.9451  139.4880  154.5531 C   0  0  0  0  0  0  0  0  0  0  0  0
  150.3577  139.3178  154.6693 C   0  0  0  0  0  0  0  0  0  0  0  0
  151.5060  139.1982  154.7555 N   0  0  0  0  0  0  0  0  0  0  0  0
  148.3689  140.7100  154.4242 C   0  0  0  0  0  0  0  0  0  0  0  0
  149.1513  142.0159  154.3905 C   0  0  0  0  0  0  0  0  0  0  0  0
  146.7297  142.9437  154.1571 H   0  0  0  0  0  0  0  0  0  0  0  0
  145.3921  142.1480  154.9674 H   0  0  0  0  0  0  0  0  0  0  0  0
  145.5567  142.0383  153.2170 H   0  0  0  0  0  0  0  0  0  0  0  0
  146.3710  136.4487  154.8676 H   0  0  0  0  0  0  0  0  0  0  0  0
  145.0439  137.5234  155.1467 H   0  0  0  0  0  0  0  0  0  0  0  0
  146.1116  136.4893  152.4838 H   0  0  0  0  0  0  0  0  0  0  0  0
  144.7426  138.0387  151.5191 H   0  0  0  0  0  0  0  0  0  0  0  0
  143.0493  137.6633  154.3221 H   0  0  0  0  0  0  0  0  0  0  0  0
  140.9336  136.4010  154.5056 H   0  0  0  0  0  0  0  0  0  0  0  0
  140.7073  134.1847  153.4014 H   0  0  0  0  0  0  0  0  0  0  0  0
  142.5816  133.2410  152.1217 H   0  0  0  0  0  0  0  0  0  0  0  0
  150.2249  141.8589  154.4896 H   0  0  0  0  0  0  0  0  0  0  0  0
  148.8423  142.6685  155.2078 H   0  0  0  0  0  0  0  0  0  0  0  0
  148.9839  142.5369  153.4472 H   0  0  0  0  0  0  0  0  0  0  0  0
  1  2  1  0  0  0  0
  1 25  1  0  0  0  0
  1 26  1  0  0  0  0
  1 27  1  0  0  0  0
  2 23  1  0  0  0  0
  2  3  2  0  0  0  0
  3  4  1  0  0  0  0
  4  5  1  0  0  0  0
  4 18  1  0  0  0  0
  5  6  1  0  0  0  0
  5 28  1  0  0  0  0
  5 29  1  0  0  0  0
  6  7  1  0  0  0  0
  6  8  1  0  0  0  0
  6 30  1  0  0  0  0
  7 31  1  0  0  0  0
  8 13  1  0  0  0  0
  8  9  2  0  0  0  0
  9 10  1  0  0  0  0
  9 32  1  0  0  0  0
 10 11  2  0  0  0  0
 10 33  1  0  0  0  0
 11 12  1  0  0  0  0
 11 34  1  0  0  0  0
 12 13  2  0  0  0  0
 12 35  1  0  0  0  0
 13 14  1  0  0  0  0
 14 15  1  0  0  0  0
 14 16  1  0  0  0  0
 14 17  1  0  0  0  0
 18 19  2  0  0  0  0
 18 20  1  0  0  0  0
 20 21  1  0  0  0  0
 20 23  2  0  0  0  0
 21 22  3  0  0  0  0
 23 24  1  0  0  0  0
 24 36  1  0  0  0  0
 24 37  1  0  0  0  0
 24 38  1  0  0  0  0
M  END
> <s_m_source_file>
AV-unprocessed.smi

> <i_m_source_file_index>
1631

> <i_lp_mmshare_version>
43012

> <i_f3d_flags>
0

> <s_epik_input>
TiNDYyhjMVtDSDNdKWMoPU8pbihuYzFbQ0gzXSlbQ0gyXVtDQEhdKFtPSF0pYzJbY0hdW2NIXVtjSF1bY0hdYzJDKEYpKEYpRg==

> <s_epik_cmdline>
J2VwaWtfcHl0aG9uJywgJy1waCcsICc3LjAnLCAnLXRuJywgJzgnLCAnLW1hJywgJzIwMCcsICctbWV0YWxfYmluZGluZycsICctaW1hZScsICc8aW5maWxlLm1hZT4nLCAnLW9tYWUnLCAnPG91dGZpbGUubWFlPic=

> <r_lp_tautomer_probability>
1

> <r_epik_Ionization_Penalty>
7.1854e-08

> <r_epik_Ionization_Penalty_Charging>
1.40848e-10

> <r_epik_Ionization_Penalty_Neutral>
7.17131e-08

> <r_epik_State_Penalty>
-0

> <r_epik_Charging_Adjusted_Penalty>
1.40848e-10

> <i_epik_Tot_Q>
0

> <i_epik_Tot_abs_Q>
0

> <r_epik_Metal_State_Penalty>
-0

> <b_epik_Metal_Only>
0

> <s_lp_Force_Field>
OPLS_2005

> <r_lp_Energy>
30.0509

> <b_lp_Chiralities_Consistent>
1

> <s_lp_Variant>
AV-unprocessed.smi:1631-1

> <Gold.Version>
5.8.1

> <Gold.Id.Protein>
6NUR|6NUR_protein|mol2

> <Gold.PLP.Fitness>
39.3807

> <Gold.PLP.PLP>
-36.4497

> <Gold.PLP.part.hbond>
-2.4190

> <Gold.PLP.part.metal>
0.0000

> <Gold.PLP.part.buried>
-3.0834

> <Gold.PLP.part.nonpolar>
-31.5110

> <Gold.PLP.part.repulsive>
1.1393

> <Gold.PLP.ligand.clash>
1.3736

> <Gold.PLP.ligand.torsion>
0.4448

> <Gold.PLP.Chemscore.Hbond>
1.2559

> <Gold.PLP.Chemscore.CHOScore>
0.0000

> <Gold.PLP.Chemscore.Metal>
0.0000

> <Gold.Chemscore.Hbonds>
donor molecule, donor type, donor heavy atom, donor atom, acceptor molecule, acceptor atom, score
      L1  H     7    31       P1 10171  1.00
      P1  H  7989  7998       L1    22  0.30

> <Gold.PLP.Chemscore.Internal.Correction>
1.4263

> <Gold.Rescore>
     Score         DG    S(hbond)    S(metal)    S(lipo)     H(rot)  DE(clash)    DE(int)     intcor
     10.78     -11.76       0.99        0.00      71.55       2.11       0.11       0.87       ----

> <Gold.Chemscore.Fitness>
10.7785

> <Gold.Chemscore.DG>
-11.7631

> <Gold.Chemscore.ZeroCoef>
-5.4800

> <Gold.Chemscore.Hbond>
0.9937

> <Gold.Chemscore.Metal>
0.0000

> <Gold.Chemscore.Lipo>
71.5546

> <Gold.Chemscore.Internal_Hbond>
0.0000

> <Gold.Chemscore.DEClash>
0.1120

> <Gold.Chemscore.DEInternal>
0.8726

> <Gold.Chemscore.Rot>
2.1124

> <Gold.Chemscore.Internal.Correction>
   9.000000E+99

> <Gold.Chemscore.Hbonds>
donor molecule, donor type, donor heavy atom, donor atom, acceptor molecule, acceptor atom, score
      L1  H     7    31       P1 10171  0.93
      P1  H  7989  7998       L1    22  0.01

> <Gold.Chemscore.Hbond.Weighted>
-3.3190

> <Gold.Chemscore.Metal.Weighted>
-0.0000

> <Gold.Chemscore.Lipo.Weighted>
-8.3719

> <Gold.Chemscore.Internal_Hbond.Weighted>
0.0000

> <Gold.Chemscore.DEClash.Weighted>
0.1120

> <Gold.Chemscore.DEInternal.Weighted>
0.8726

> <Gold.Chemscore.Rot.Weighted>
5.4078

> <Gold.Chemscore.Internal.Correction.Weighted>
   9.000000E+99

> <Gold.Protein.RotatedTorsions>
[ 6907 6896 6895 6894 ] final  107.12 input  -60.11 | X-H torsion
[ 7974 7965 7964 7962 ] final  -53.78 input  175.53 | X-H torsion
[ 8008 7997 7996 7995 ] final  -70.80 input   59.86 | X-H torsion
[ 10167 10162 10161 10158 ] final   72.23 input  -65.29 | X-H torsion
[ 10718 10713 10712 10709 ] final  -63.10 input   66.30 | X-H torsion
[ 10763 10752 10751 10750 ] final  -57.70 input  -60.55 | X-H torsion
[ 11005 11000 10999 10996 ] final  173.07 input  -57.11 | X-H torsion

> <Gold.Protein.ActiveResidues>
 VAL166  LYS551  ARG553  GLY616  TRP617  ASP618  TYR619  PRO620  LYS621  CYS622 
 ASP623  PHE694  ASN695  SER759  ASP760  ASP761  ALA762  ILE779  LEU786  VAL792 
 PHE793  MET794  SER795  GLU796  ALA797  LYS798  CYS799  TRP800  GLU811  SER814 

> <Gold.Protein.RotatedAtoms>
  152.5167  133.9281  159.7566 H   0  0  0  0  0  0  0  0  0  0  0  0  # atno 6907 bound_to 6896
  150.9638  133.6408  159.2756 H   0  0  0  0  0  0  0  0  0  0  0  0  # atno 6908 bound_to 6896
  151.3644  135.0916  159.9498 H   0  0  0  0  0  0  0  0  0  0  0  0  # atno 6909 bound_to 6896
  145.8930  140.8055  142.9782 H   0  0  0  0  0  0  0  0  0  0  0  0  # atno 7974 bound_to 7965
  154.5039  140.0827  156.7854 H   0  0  0  0  0  0  0  0  0  0  0  0  # atno 8008 bound_to 7997
  155.3939  140.3434  155.4235 H   0  0  0  0  0  0  0  0  0  0  0  0  # atno 8009 bound_to 7997
  156.1491  140.1553  156.8786 H   0  0  0  0  0  0  0  0  0  0  0  0  # atno 8010 bound_to 7997
  140.0376  144.5416  150.7459 H   0  0  0  0  0  0  0  0  0  0  0  0  # atno 10167 bound_to 10162
  156.0813  130.4216  150.1229 H   0  0  0  0  0  0  0  0  0  0  0  0  # atno 10718 bound_to 10713
  154.2265  135.6368  153.5161 H   0  0  0  0  0  0  0  0  0  0  0  0  # atno 10763 bound_to 10752
  152.9958  135.5509  154.6058 H   0  0  0  0  0  0  0  0  0  0  0  0  # atno 10764 bound_to 10752
  154.5531  135.2903  155.0964 H   0  0  0  0  0  0  0  0  0  0  0  0  # atno 10765 bound_to 10752
  140.3365  134.7313  157.4172 H   0  0  0  0  0  0  0  0  0  0  0  0  # atno 11005 bound_to 11000
  144.6731  140.1559  143.7426 LP  0  0  0  0  0  0  0  0  0  0  0  0  # atno 17320 bound_to 7965
  145.8885  139.2362  143.1563 LP  0  0  0  0  0  0  0  0  0  0  0  0  # atno 17321 bound_to 7965
  140.7275  143.2652  151.4070 LP  0  0  0  0  0  0  0  0  0  0  0  0  # atno 17342 bound_to 10162
  139.6035  144.1246  152.2224 LP  0  0  0  0  0  0  0  0  0  0  0  0  # atno 17343 bound_to 10162
  156.9259  130.9698  151.3541 LP  0  0  0  0  0  0  0  0  0  0  0  0  # atno 17370 bound_to 10713
  157.5930  130.8457  149.8687 LP  0  0  0  0  0  0  0  0  0  0  0  0  # atno 17371 bound_to 10713
  140.0817  134.5722  155.8534 LP  0  0  0  0  0  0  0  0  0  0  0  0  # atno 17394 bound_to 11000
  141.2050  133.6643  156.6153 LP  0  0  0  0  0  0  0  0  0  0  0  0  # atno 17395 bound_to 11000

$$$$
