AV-unprocessed.smi:2597|AV-procd|sdf|10172|dock10
  -GOLD-   2272014183D 1   1.00000     0.00000
 Structure written by MMmdl.
 31 32  0  0  0  0  0  0  0  0  2 V2000
  149.8526  143.0471  157.0543 N   0  3  0  0  0  0  0  0  0  0  0  0
  151.1221  142.8343  157.7747 C   0  0  1  0  0  0  0  0  0  0  0  0
  151.1323  143.6527  159.0799 C   0  0  0  0  0  0  0  0  0  0  0  0
  152.4296  143.4334  159.8740 C   0  0  0  0  0  0  0  0  0  0  0  0
  152.6544  141.9429  160.1674 C   0  0  0  0  0  0  0  0  0  0  0  0
  152.6551  141.1178  158.8717 C   0  0  0  0  0  0  0  0  0  0  0  0
  151.3571  141.3289  158.0646 C   0  0  2  0  0  0  0  0  0  0  0  0
  151.3739  140.5204  156.8518 N   0  0  0  0  0  0  0  0  0  0  0  0
  152.1520  139.4146  156.5777 C   0  0  0  0  0  0  0  0  0  0  0  0
  151.7882  139.0736  155.3056 C   0  0  0  0  0  0  0  0  0  0  0  0
  152.2853  137.9533  154.4442 C   0  0  0  0  0  0  0  0  0  0  0  0
  151.2398  137.0089  154.3651 O   0  0  0  0  0  0  0  0  0  0  0  0
  150.8198  139.9727  154.8628 N   0  0  0  0  0  0  0  0  0  0  0  0
  150.5898  140.8440  155.7928 N   0  0  0  0  0  0  0  0  0  0  0  0
  151.9219  143.2092  157.1344 H   0  0  0  0  0  0  0  0  0  0  0  0
  150.5260  140.9688  158.6740 H   0  0  0  0  0  0  0  0  0  0  0  0
  149.1089  143.2083  157.7184 H   0  0  0  0  0  0  0  0  0  0  0  0
  149.6389  142.2281  156.5026 H   0  0  0  0  0  0  0  0  0  0  0  0
  151.0168  144.7143  158.8575 H   0  0  0  0  0  0  0  0  0  0  0  0
  150.2796  143.3725  159.7001 H   0  0  0  0  0  0  0  0  0  0  0  0
  153.2763  143.8275  159.3103 H   0  0  0  0  0  0  0  0  0  0  0  0
  152.3931  143.9937  160.8088 H   0  0  0  0  0  0  0  0  0  0  0  0
  153.5989  141.8062  160.6950 H   0  0  0  0  0  0  0  0  0  0  0  0
  151.8720  141.5778  160.8339 H   0  0  0  0  0  0  0  0  0  0  0  0
  153.5201  141.3978  158.2688 H   0  0  0  0  0  0  0  0  0  0  0  0
  152.7777  140.0608  159.1118 H   0  0  0  0  0  0  0  0  0  0  0  0
  152.8653  138.9912  157.2693 H   0  0  0  0  0  0  0  0  0  0  0  0
  152.5380  138.3050  153.4439 H   0  0  0  0  0  0  0  0  0  0  0  0
  153.1727  137.4813  154.8670 H   0  0  0  0  0  0  0  0  0  0  0  0
  150.9712  136.9332  153.4623 H   0  0  0  0  0  0  0  0  0  0  0  0
  149.9399  143.8485  156.4457 H   0  0  0  0  0  0  0  0  0  0  0  0
  1  2  1  0  0  0  0
  1 17  1  0  0  0  0
  1 18  1  0  0  0  0
  1 31  1  0  0  0  0
  2 15  1  0  0  0  0
  2  7  1  0  0  0  0
  2  3  1  0  0  0  0
  3  4  1  0  0  0  0
  3 19  1  0  0  0  0
  3 20  1  0  0  0  0
  4  5  1  0  0  0  0
  4 21  1  0  0  0  0
  4 22  1  0  0  0  0
  5  6  1  0  0  0  0
  5 23  1  0  0  0  0
  5 24  1  0  0  0  0
  6  7  1  0  0  0  0
  6 25  1  0  0  0  0
  6 26  1  0  0  0  0
  7 16  1  0  0  0  0
  7  8  1  0  0  0  0
  8 14  1  0  0  0  0
  8  9  1  0  0  0  0
  9 10  2  0  0  0  0
  9 27  1  0  0  0  0
 10 11  1  0  0  0  0
 10 13  1  0  0  0  0
 11 12  1  0  0  0  0
 11 28  1  0  0  0  0
 11 29  1  0  0  0  0
 12 30  1  0  0  0  0
 13 14  2  0  0  0  0
M  CHG  1   1   1
M  END
> <s_m_source_file>
AV-unprocessed.smi

> <i_m_source_file_index>
2597

> <i_lp_mmshare_version>
43012

> <i_f3d_flags>
0

> <s_epik_input>
W05IMl1bQ0BIXTFbQ0gyXVtDSDJdW0NIMl1bQ0gyXVtDQEhdMW4yW2NIXWMobm4yKVtDSDJdW09IXQ==

> <s_epik_cmdline>
J2VwaWtfcHl0aG9uJywgJy1waCcsICc3LjAnLCAnLXRuJywgJzgnLCAnLW1hJywgJzIwMCcsICctbWV0YWxfYmluZGluZycsICctaW1hZScsICc8aW5maWxlLm1hZT4nLCAnLW9tYWUnLCAnPG91dGZpbGUubWFlPic=

> <r_lp_tautomer_probability>
1

> <r_epik_Ionization_Penalty>
0.014346

> <r_epik_Ionization_Penalty_Charging>
0.014316

> <r_epik_Ionization_Penalty_Neutral>
3.00097e-05

> <r_epik_State_Penalty>
0.0111909

> <r_epik_Charging_Adjusted_Penalty>
0.0255069

> <i_epik_Tot_Q>
1

> <i_epik_Tot_abs_Q>
1

> <r_epik_Metal_State_Penalty>
0.011192

> <b_epik_Metal_Only>
0

> <s_lp_Force_Field>
OPLS_2005

> <r_lp_Energy>
13.7949

> <b_lp_Chiralities_Consistent>
1

> <s_lp_Variant>
AV-unprocessed.smi:2597-3

> <Gold.Version>
5.8.1

> <Gold.Id.Protein>
6NUR|6NUR_protein|mol2

> <Gold.PLP.Fitness>
42.9419

> <Gold.PLP.PLP>
-30.1935

> <Gold.PLP.part.hbond>
-4.0222

> <Gold.PLP.part.metal>
0.0000

> <Gold.PLP.part.buried>
-3.4242

> <Gold.PLP.part.nonpolar>
-22.5729

> <Gold.PLP.part.repulsive>
0.1223

> <Gold.PLP.ligand.clash>
0.0000

> <Gold.PLP.ligand.torsion>
0.7648

> <Gold.PLP.Chemscore.Hbond>
4.7500

> <Gold.PLP.Chemscore.CHOScore>
0.0000

> <Gold.PLP.Chemscore.Metal>
0.0000

> <Gold.Chemscore.Hbonds>
donor molecule, donor type, donor heavy atom, donor atom, acceptor molecule, acceptor atom, score
      L1  H     1    31       P1  8028  1.34
      L1  H    12    30       P1  7949  0.59
      P1  H  7989  7998       L1    13  1.00

> <Gold.PLP.Chemscore.Internal.Correction>
0.0279

> <Gold.Rescore>
     Score         DG    S(hbond)    S(metal)    S(lipo)     H(rot)  DE(clash)    DE(int)     intcor
     15.85     -18.16       2.59        0.00      74.87       1.86       0.00       2.31       ----

> <Gold.Chemscore.Fitness>
15.8482

> <Gold.Chemscore.DG>
-18.1570

> <Gold.Chemscore.ZeroCoef>
-5.4800

> <Gold.Chemscore.Hbond>
2.5946

> <Gold.Chemscore.Metal>
0.0000

> <Gold.Chemscore.Lipo>
74.8707

> <Gold.Chemscore.Internal_Hbond>
0.0000

> <Gold.Chemscore.DEClash>
0.0019

> <Gold.Chemscore.DEInternal>
2.3069

> <Gold.Chemscore.Rot>
1.8551

> <Gold.Chemscore.Internal.Correction>
   9.000000E+99

> <Gold.Chemscore.Hbonds>
donor molecule, donor type, donor heavy atom, donor atom, acceptor molecule, acceptor atom, score
      L1  H     1    31       P1  8028  0.66
      L1  H    12    30       P1  7949  0.14
      P1  H  7989  7998       L1    13  0.27

> <Gold.Chemscore.Hbond.Weighted>
-8.6661

> <Gold.Chemscore.Metal.Weighted>
-0.0000

> <Gold.Chemscore.Lipo.Weighted>
-8.7599

> <Gold.Chemscore.Internal_Hbond.Weighted>
0.0000

> <Gold.Chemscore.DEClash.Weighted>
0.0019

> <Gold.Chemscore.DEInternal.Weighted>
2.3069

> <Gold.Chemscore.Rot.Weighted>
4.7489

> <Gold.Chemscore.Internal.Correction.Weighted>
   9.000000E+99

> <Gold.Protein.RotatedTorsions>
[ 6907 6896 6895 6894 ] final  159.77 input  -60.11 | X-H torsion
[ 7974 7965 7964 7962 ] final -179.11 input  175.53 | X-H torsion
[ 8008 7997 7996 7995 ] final -142.21 input   59.86 | X-H torsion
[ 10167 10162 10161 10158 ] final -159.40 input  -65.29 | X-H torsion
[ 10718 10713 10712 10709 ] final  -35.00 input   66.30 | X-H torsion
[ 10763 10752 10751 10750 ] final   35.45 input  -60.55 | X-H torsion
[ 11005 11000 10999 10996 ] final  -51.66 input  -57.11 | X-H torsion

> <Gold.Protein.ActiveResidues>
 VAL166  LYS551  ARG553  GLY616  TRP617  ASP618  TYR619  PRO620  LYS621  CYS622 
 ASP623  PHE694  ASN695  SER759  ASP760  ASP761  ALA762  ILE779  LEU786  VAL792 
 PHE793  MET794  SER795  GLU796  ALA797  LYS798  CYS799  TRP800  GLU811  SER814 

> <Gold.Protein.RotatedAtoms>
  151.9806  133.3756  159.4105 H   0  0  0  0  0  0  0  0  0  0  0  0  # atno 6907 bound_to 6896
  150.6935  134.4043  159.5142 H   0  0  0  0  0  0  0  0  0  0  0  0  # atno 6908 bound_to 6896
  152.1761  134.8793  160.0581 H   0  0  0  0  0  0  0  0  0  0  0  0  # atno 6909 bound_to 6896
  144.7134  140.0767  143.6427 H   0  0  0  0  0  0  0  0  0  0  0  0  # atno 7974 bound_to 7965
  155.4906  140.0567  157.2954 H   0  0  0  0  0  0  0  0  0  0  0  0  # atno 8008 bound_to 7997
  154.4625  140.2003  156.0158 H   0  0  0  0  0  0  0  0  0  0  0  0  # atno 8009 bound_to 7997
  156.0915  140.3232  155.7826 H   0  0  0  0  0  0  0  0  0  0  0  0  # atno 8010 bound_to 7997
  139.6618  143.9900  152.2230 H   0  0  0  0  0  0  0  0  0  0  0  0  # atno 10167 bound_to 10162
  156.3438  130.4297  149.7764 H   0  0  0  0  0  0  0  0  0  0  0  0  # atno 10718 bound_to 10713
  153.0119  135.6333  154.1829 H   0  0  0  0  0  0  0  0  0  0  0  0  # atno 10763 bound_to 10752
  154.1570  135.2825  155.3121 H   0  0  0  0  0  0  0  0  0  0  0  0  # atno 10764 bound_to 10752
  154.6010  135.5587  153.7435 H   0  0  0  0  0  0  0  0  0  0  0  0  # atno 10765 bound_to 10752
  141.0883  133.6638  156.3911 H   0  0  0  0  0  0  0  0  0  0  0  0  # atno 11005 bound_to 11000
  145.9737  139.2889  143.1083 LP  0  0  0  0  0  0  0  0  0  0  0  0  # atno 17320 bound_to 7965
  145.9088  140.9194  143.0465 LP  0  0  0  0  0  0  0  0  0  0  0  0  # atno 17321 bound_to 7965
  139.9641  144.6538  150.8052 LP  0  0  0  0  0  0  0  0  0  0  0  0  # atno 17342 bound_to 10162
  140.7583  143.3104  151.2859 LP  0  0  0  0  0  0  0  0  0  0  0  0  # atno 17343 bound_to 10162
  156.4990  130.8120  151.3125 LP  0  0  0  0  0  0  0  0  0  0  0  0  # atno 17370 bound_to 10713
  157.7451  130.9951  150.2731 LP  0  0  0  0  0  0  0  0  0  0  0  0  # atno 17371 bound_to 10713
  140.5311  134.6211  157.5350 LP  0  0  0  0  0  0  0  0  0  0  0  0  # atno 17394 bound_to 11000
  139.9705  134.7301  156.0052 LP  0  0  0  0  0  0  0  0  0  0  0  0  # atno 17395 bound_to 11000

$$$$
