AV-unprocessed.smi:2400|AV-procd|sdf|9502|dock1
  -GOLD-   2272013133D 1   1.00000     0.00000
 Structure written by MMmdl.
 44 45  0  0  0  0  0  0  0  0  1 V2000
  152.2288  138.6113  154.6280 C   0  0  0  0  0  0  0  0  0  0  0  0
  150.9439  138.4433  155.2019 O   0  0  0  0  0  0  0  0  0  0  0  0
  150.1164  139.4881  154.9850 C   0  0  0  0  0  0  0  0  0  0  0  0
  149.0081  139.6277  154.1960 C   0  0  0  0  0  0  0  0  0  0  0  0
  148.3694  138.6873  153.3478 N   0  0  0  0  0  0  0  0  0  0  0  0
  147.0514  138.4639  153.2281 C   0  0  0  0  0  0  0  0  0  0  0  0
  146.1759  139.0378  153.8749 O   0  0  0  0  0  0  0  0  0  0  0  0
  146.8010  137.5102  152.3200 N   0  0  0  0  0  0  0  0  0  0  0  0
  145.4721  137.0235  151.9493 C   0  0  1  0  0  0  0  0  0  0  0  0
  145.5804  136.0002  150.8012 C   0  0  0  0  0  0  0  0  0  0  0  0
  145.0087  134.6882  151.3338 C   0  0  0  0  0  0  0  0  0  0  0  0
  144.0308  135.1212  152.4211 C   0  0  0  0  0  0  0  0  0  0  0  0
  144.7005  136.3232  153.1118 C   0  0  0  0  0  0  0  0  0  0  0  0
  145.6205  135.8063  154.2448 C   0  0  0  0  0  0  0  0  0  0  0  0
  143.6429  137.2600  153.7256 C   0  0  0  0  0  0  0  0  0  0  0  0
  148.5456  140.9504  154.4414 C   0  0  0  0  0  0  0  0  0  0  0  0
  147.3481  141.6599  153.8777 C   0  0  0  0  0  0  0  0  0  0  0  0
  149.3460  141.5890  155.2877 N   0  0  0  0  0  0  0  0  0  0  0  0
  150.3132  140.6983  155.6166 N   0  0  0  0  0  0  0  0  0  0  0  0
  151.3523  141.0862  156.5482 C   0  0  0  0  0  0  0  0  0  0  0  0
  152.8466  137.7423  154.8541 H   0  0  0  0  0  0  0  0  0  0  0  0
  152.7343  139.4935  155.0226 H   0  0  0  0  0  0  0  0  0  0  0  0
  152.1612  138.7042  153.5433 H   0  0  0  0  0  0  0  0  0  0  0  0
  148.9818  138.0737  152.8309 H   0  0  0  0  0  0  0  0  0  0  0  0
  147.5854  137.0888  151.8448 H   0  0  0  0  0  0  0  0  0  0  0  0
  144.8836  137.8613  151.5689 H   0  0  0  0  0  0  0  0  0  0  0  0
  144.9805  136.3414  149.9563 H   0  0  0  0  0  0  0  0  0  0  0  0
  146.5993  135.8687  150.4337 H   0  0  0  0  0  0  0  0  0  0  0  0
  144.5320  134.0937  150.5540 H   0  0  0  0  0  0  0  0  0  0  0  0
  145.8059  134.0848  151.7694 H   0  0  0  0  0  0  0  0  0  0  0  0
  143.0972  135.4310  151.9484 H   0  0  0  0  0  0  0  0  0  0  0  0
  143.7875  134.3097  153.1083 H   0  0  0  0  0  0  0  0  0  0  0  0
  145.0549  135.2283  154.9767 H   0  0  0  0  0  0  0  0  0  0  0  0
  146.0926  136.6262  154.7870 H   0  0  0  0  0  0  0  0  0  0  0  0
  146.4129  135.1615  153.8639 H   0  0  0  0  0  0  0  0  0  0  0  0
  143.0527  136.7459  154.4846 H   0  0  0  0  0  0  0  0  0  0  0  0
  142.9510  137.6355  152.9708 H   0  0  0  0  0  0  0  0  0  0  0  0
  144.1093  138.1241  154.2001 H   0  0  0  0  0  0  0  0  0  0  0  0
  146.7806  141.0151  153.2068 H   0  0  0  0  0  0  0  0  0  0  0  0
  147.6469  142.5428  153.3120 H   0  0  0  0  0  0  0  0  0  0  0  0
  146.6751  141.9841  154.6718 H   0  0  0  0  0  0  0  0  0  0  0  0
  152.1775  140.3747  156.5106 H   0  0  0  0  0  0  0  0  0  0  0  0
  150.9474  141.1072  157.5600 H   0  0  0  0  0  0  0  0  0  0  0  0
  151.7310  142.0764  156.2924 H   0  0  0  0  0  0  0  0  0  0  0  0
  1  2  1  0  0  0  0
  1 21  1  0  0  0  0
  1 22  1  0  0  0  0
  1 23  1  0  0  0  0
  2  3  1  0  0  0  0
  3 19  1  0  0  0  0
  3  4  2  0  0  0  0
  4  5  1  0  0  0  0
  4 16  1  0  0  0  0
  5  6  1  0  0  0  0
  5 24  1  0  0  0  0
  6  7  2  0  0  0  0
  6  8  1  0  0  0  0
  8  9  1  0  0  0  0
  8 25  1  0  0  0  0
  9 13  1  0  0  0  0
  9 10  1  0  0  0  0
  9 26  1  0  0  0  0
 10 11  1  0  0  0  0
 10 27  1  0  0  0  0
 10 28  1  0  0  0  0
 11 12  1  0  0  0  0
 11 29  1  0  0  0  0
 11 30  1  0  0  0  0
 12 13  1  0  0  0  0
 12 31  1  0  0  0  0
 12 32  1  0  0  0  0
 13 14  1  0  0  0  0
 13 15  1  0  0  0  0
 14 33  1  0  0  0  0
 14 34  1  0  0  0  0
 14 35  1  0  0  0  0
 15 36  1  0  0  0  0
 15 37  1  0  0  0  0
 15 38  1  0  0  0  0
 16 17  1  0  0  0  0
 16 18  2  0  0  0  0
 17 39  1  0  0  0  0
 17 40  1  0  0  0  0
 17 41  1  0  0  0  0
 18 19  1  0  0  0  0
 19 20  1  0  0  0  0
 20 42  1  0  0  0  0
 20 43  1  0  0  0  0
 20 44  1  0  0  0  0
M  END
> <s_m_source_file>
AV-unprocessed.smi

> <i_m_source_file_index>
2400

> <i_lp_mmshare_version>
43012

> <i_f3d_flags>
0

> <s_epik_input>
W0NIM11uMW5jKFtDSDNdKWMoYzFPW0NIM10pW05IXUMoPU8pW05IXVtDQEBIXShDMihbQ0gzXSlbQ0gzXSlbQ0gyXVtDSDJdW0NIMl0y

> <s_epik_cmdline>
J2VwaWtfcHl0aG9uJywgJy1waCcsICc3LjAnLCAnLXRuJywgJzgnLCAnLW1hJywgJzIwMCcsICctbWV0YWxfYmluZGluZycsICctaW1hZScsICc8aW5maWxlLm1hZT4nLCAnLW9tYWUnLCAnPG91dGZpbGUubWFlPic=

> <r_lp_tautomer_probability>
1

> <r_epik_Ionization_Penalty>
0.000423583

> <r_epik_Ionization_Penalty_Charging>
0

> <r_epik_Ionization_Penalty_Neutral>
0.000423583

> <r_epik_State_Penalty>
-0

> <r_epik_Charging_Adjusted_Penalty>
0

> <i_epik_Tot_Q>
0

> <i_epik_Tot_abs_Q>
0

> <r_epik_Metal_State_Penalty>
-0

> <b_epik_Metal_Only>
0

> <s_lp_Force_Field>
OPLS_2005

> <r_lp_Energy>
29.9284

> <b_lp_Chiralities_Consistent>
1

> <s_lp_Variant>
AV-unprocessed.smi:2400-2

> <Gold.Version>
5.8.1

> <Gold.Id.Protein>
6NUR|6NUR_protein|mol2

> <Gold.PLP.Fitness>
39.2341

> <Gold.PLP.PLP>
-34.7212

> <Gold.PLP.part.hbond>
-2.9379

> <Gold.PLP.part.metal>
0.0000

> <Gold.PLP.part.buried>
-4.1619

> <Gold.PLP.part.nonpolar>
-28.5328

> <Gold.PLP.part.repulsive>
0.4928

> <Gold.PLP.ligand.clash>
0.0000

> <Gold.PLP.ligand.torsion>
0.4616

> <Gold.PLP.Chemscore.Hbond>
1.8112

> <Gold.PLP.Chemscore.CHOScore>
0.0000

> <Gold.PLP.Chemscore.Metal>
0.0000

> <Gold.Chemscore.Hbonds>
donor molecule, donor type, donor heavy atom, donor atom, acceptor molecule, acceptor atom, score
      L1  H     5    24       P1  7948  0.78
      L1  H     8    25       P1  7948  1.00

> <Gold.PLP.Chemscore.Internal.Correction>
0.0026

> <Gold.Rescore>
     Score         DG    S(hbond)    S(metal)    S(lipo)     H(rot)  DE(clash)    DE(int)     intcor
     15.27     -15.93       1.91        0.00      61.17       1.21       0.00       0.66       ----

> <Gold.Chemscore.Fitness>
15.2666

> <Gold.Chemscore.DG>
-15.9273

> <Gold.Chemscore.ZeroCoef>
-5.4800

> <Gold.Chemscore.Hbond>
1.9141

> <Gold.Chemscore.Metal>
0.0000

> <Gold.Chemscore.Lipo>
61.1659

> <Gold.Chemscore.Internal_Hbond>
0.0000

> <Gold.Chemscore.DEClash>
0.0021

> <Gold.Chemscore.DEInternal>
0.6585

> <Gold.Chemscore.Rot>
1.2119

> <Gold.Chemscore.Internal.Correction>
   9.000000E+99

> <Gold.Chemscore.Hbonds>
donor molecule, donor type, donor heavy atom, donor atom, acceptor molecule, acceptor atom, score
      L1  H     5    24       P1  7948  0.75
      L1  H     8    25       P1  7948  0.95

> <Gold.Chemscore.Hbond.Weighted>
-6.3932

> <Gold.Chemscore.Metal.Weighted>
-0.0000

> <Gold.Chemscore.Lipo.Weighted>
-7.1564

> <Gold.Chemscore.Internal_Hbond.Weighted>
0.0000

> <Gold.Chemscore.DEClash.Weighted>
0.0021

> <Gold.Chemscore.DEInternal.Weighted>
0.6585

> <Gold.Chemscore.Rot.Weighted>
3.1024

> <Gold.Chemscore.Internal.Correction.Weighted>
   9.000000E+99

> <Gold.Protein.RotatedTorsions>
[ 6907 6896 6895 6894 ] final -163.57 input  -60.11 | X-H torsion
[ 7974 7965 7964 7962 ] final  150.99 input  175.53 | X-H torsion
[ 8008 7997 7996 7995 ] final -173.96 input   59.86 | X-H torsion
[ 10167 10162 10161 10158 ] final -140.46 input  -65.29 | X-H torsion
[ 10718 10713 10712 10709 ] final  177.37 input   66.30 | X-H torsion
[ 10763 10752 10751 10750 ] final  174.00 input  -60.55 | X-H torsion
[ 11005 11000 10999 10996 ] final -101.79 input  -57.11 | X-H torsion

> <Gold.Protein.ActiveResidues>
 VAL166  LYS551  ARG553  GLY616  TRP617  ASP618  TYR619  PRO620  LYS621  CYS622 
 ASP623  PHE694  ASN695  SER759  ASP760  ASP761  ALA762  ILE779  LEU786  VAL792 
 PHE793  MET794  SER795  GLU796  ALA797  LYS798  CYS799  TRP800  GLU811  SER814 

> <Gold.Protein.RotatedAtoms>
  151.3981  133.3766  159.2728 H   0  0  0  0  0  0  0  0  0  0  0  0  # atno 6907 bound_to 6896
  150.9454  134.8860  159.7649 H   0  0  0  0  0  0  0  0  0  0  0  0  # atno 6908 bound_to 6896
  152.5089  134.3934  159.9444 H   0  0  0  0  0  0  0  0  0  0  0  0  # atno 6909 bound_to 6896
  144.8325  139.6479  143.6053 H   0  0  0  0  0  0  0  0  0  0  0  0  # atno 7974 bound_to 7965
  155.9640  140.1150  157.0870 H   0  0  0  0  0  0  0  0  0  0  0  0  # atno 8008 bound_to 7997
  154.4139  140.1176  156.5285 H   0  0  0  0  0  0  0  0  0  0  0  0  # atno 8009 bound_to 7997
  155.6683  140.3473  155.4811 H   0  0  0  0  0  0  0  0  0  0  0  0  # atno 8010 bound_to 7997
  139.8280  143.7485  152.2666 H   0  0  0  0  0  0  0  0  0  0  0  0  # atno 10167 bound_to 10162
  156.9063  130.9895  151.3028 H   0  0  0  0  0  0  0  0  0  0  0  0  # atno 10718 bound_to 10713
  154.4479  135.2764  155.1802 H   0  0  0  0  0  0  0  0  0  0  0  0  # atno 10763 bound_to 10752
  154.3641  135.6123  153.5709 H   0  0  0  0  0  0  0  0  0  0  0  0  # atno 10764 bound_to 10752
  152.9845  135.5841  154.4818 H   0  0  0  0  0  0  0  0  0  0  0  0  # atno 10765 bound_to 10752
  141.1216  133.8506  157.1277 H   0  0  0  0  0  0  0  0  0  0  0  0  # atno 11005 bound_to 11000
  146.2626  139.6446  142.9351 LP  0  0  0  0  0  0  0  0  0  0  0  0  # atno 17320 bound_to 7965
  145.4866  141.0438  143.2616 LP  0  0  0  0  0  0  0  0  0  0  0  0  # atno 17321 bound_to 7965
  139.7684  144.7484  151.0261 LP  0  0  0  0  0  0  0  0  0  0  0  0  # atno 17342 bound_to 10162
  140.7809  143.4673  151.0195 LP  0  0  0  0  0  0  0  0  0  0  0  0  # atno 17343 bound_to 10162
  157.5995  130.8502  149.8780 LP  0  0  0  0  0  0  0  0  0  0  0  0  # atno 17370 bound_to 10713
  156.0557  130.3709  150.1096 LP  0  0  0  0  0  0  0  0  0  0  0  0  # atno 17371 bound_to 10713
  140.0179  134.9959  157.0531 LP  0  0  0  0  0  0  0  0  0  0  0  0  # atno 17394 bound_to 11000
  140.4489  134.1603  155.7180 LP  0  0  0  0  0  0  0  0  0  0  0  0  # atno 17395 bound_to 11000

$$$$
