AV-unprocessed.smi:1722|AV-procd|sdf|6944|dock8
  -GOLD-   22720 8153D 1   1.00000     0.00000
 Structure written by MMmdl.
 38 39  0  0  0  0  0  0  0  0  2 V2000
  155.7015  140.2380  162.3376 O   0  0  0  0  0  0  0  0  0  0  0  0
  154.9463  140.2085  161.3666 C   0  0  0  0  0  0  0  0  0  0  0  0
  154.2055  141.4816  160.9611 C   0  0  0  0  0  0  0  0  0  0  0  0
  153.4330  141.2114  159.7987 O   0  0  0  0  0  0  0  0  0  0  0  0
  152.2375  141.9717  159.6920 C   0  0  0  0  0  0  0  0  0  0  0  0
  151.6209  141.6595  158.3168 C   0  0  0  0  0  0  0  0  0  0  0  0
  150.3595  142.4996  158.0600 C   0  0  0  0  0  0  0  0  0  0  0  0
  150.6559  144.0014  158.1957 C   0  0  0  0  0  0  0  0  0  0  0  0
  151.2720  144.3227  159.5666 C   0  0  0  0  0  0  0  0  0  0  0  0
  152.5325  143.4807  159.8239 C   0  0  0  0  0  0  0  0  0  0  0  0
  154.6781  139.1199  160.6188 N   0  0  0  0  0  0  0  0  0  0  0  0
  155.2200  137.8260  160.6973 C   0  0  0  0  0  0  0  0  0  0  0  0
  155.7907  137.2907  161.8119 C   0  0  0  0  0  0  0  0  0  0  0  0
  156.3575  135.9479  161.8303 C   0  0  0  0  0  0  0  0  0  0  0  0
  157.0714  135.3505  163.0299 C   0  0  0  0  0  0  0  0  0  0  0  0
  158.3106  134.9975  162.6915 F   0  0  0  0  0  0  0  0  0  0  0  0
  157.1480  136.2296  164.0292 F   0  0  0  0  0  0  0  0  0  0  0  0
  156.4366  134.2651  163.4729 F   0  0  0  0  0  0  0  0  0  0  0  0
  156.2703  135.3258  160.6000 C   0  0  0  0  0  0  0  0  0  0  0  0
  155.7163  135.7797  159.4542 N   0  5  0  0  0  0  0  0  0  0  0  0
  155.1820  137.0336  159.4508 C   0  0  0  0  0  0  0  0  0  0  0  0
  154.6713  137.5135  158.4381 O   0  0  0  0  0  0  0  0  0  0  0  0
  153.5617  141.7953  161.7841 H   0  0  0  0  0  0  0  0  0  0  0  0
  154.9262  142.2787  160.7774 H   0  0  0  0  0  0  0  0  0  0  0  0
  151.5296  141.6628  160.4636 H   0  0  0  0  0  0  0  0  0  0  0  0
  152.3535  141.8567  157.5329 H   0  0  0  0  0  0  0  0  0  0  0  0
  151.3780  140.5984  158.2514 H   0  0  0  0  0  0  0  0  0  0  0  0
  149.9672  142.2867  157.0651 H   0  0  0  0  0  0  0  0  0  0  0  0
  149.5800  142.2147  158.7677 H   0  0  0  0  0  0  0  0  0  0  0  0
  151.3410  144.3116  157.4057 H   0  0  0  0  0  0  0  0  0  0  0  0
  149.7404  144.5763  158.0544 H   0  0  0  0  0  0  0  0  0  0  0  0
  151.5155  145.3836  159.6250 H   0  0  0  0  0  0  0  0  0  0  0  0
  150.5387  144.1303  160.3507 H   0  0  0  0  0  0  0  0  0  0  0  0
  152.9216  143.7123  160.8149 H   0  0  0  0  0  0  0  0  0  0  0  0
  153.3097  143.7645  159.1131 H   0  0  0  0  0  0  0  0  0  0  0  0
  153.9714  139.2323  159.9061 H   0  0  0  0  0  0  0  0  0  0  0  0
  155.8600  137.8598  162.7243 H   0  0  0  0  0  0  0  0  0  0  0  0
  156.7180  134.3120  160.5233 H   0  0  0  0  0  0  0  0  0  0  0  0
  1  2  2  0  0  0  0
  2  3  1  0  0  0  0
  2 11  1  0  0  0  0
  3  4  1  0  0  0  0
  3 23  1  0  0  0  0
  3 24  1  0  0  0  0
  4  5  1  0  0  0  0
  5 10  1  0  0  0  0
  5  6  1  0  0  0  0
  5 25  1  0  0  0  0
  6  7  1  0  0  0  0
  6 26  1  0  0  0  0
  6 27  1  0  0  0  0
  7  8  1  0  0  0  0
  7 28  1  0  0  0  0
  7 29  1  0  0  0  0
  8  9  1  0  0  0  0
  8 30  1  0  0  0  0
  8 31  1  0  0  0  0
  9 10  1  0  0  0  0
  9 32  1  0  0  0  0
  9 33  1  0  0  0  0
 10 34  1  0  0  0  0
 10 35  1  0  0  0  0
 11 12  1  0  0  0  0
 11 36  1  0  0  0  0
 12 21  1  0  0  0  0
 12 13  2  0  0  0  0
 13 14  1  0  0  0  0
 13 37  1  0  0  0  0
 14 15  1  0  0  0  0
 14 19  2  0  0  0  0
 15 16  1  0  0  0  0
 15 17  1  0  0  0  0
 15 18  1  0  0  0  0
 19 20  1  0  0  0  0
 19 38  1  0  0  0  0
 20 21  1  0  0  0  0
 21 22  2  0  0  0  0
M  CHG  1  20  -1
M  END
> <s_m_source_file>
AV-unprocessed.smi

> <i_m_source_file_index>
1722

> <i_lp_mmshare_version>
43012

> <i_f3d_flags>
0

> <s_epik_input>
Tz1jMVtuSF1bY0hdYyhDKEYpKEYpRilbY0hdYzFbTkhdQyg9TylbQ0gyXU9bQ0hdMltDSDJdW0NIMl1bQ0gyXVtDSDJdW0NIMl0y

> <s_epik_cmdline>
J2VwaWtfcHl0aG9uJywgJy1waCcsICc3LjAnLCAnLXRuJywgJzgnLCAnLW1hJywgJzIwMCcsICctbWV0YWxfYmluZGluZycsICctaW1hZScsICc8aW5maWxlLm1hZT4nLCAnLW9tYWUnLCAnPG91dGZpbGUubWFlPic=

> <r_epik_Ionization_Penalty>
2.55378

> <r_epik_Ionization_Penalty_Charging>
0.0617094

> <r_epik_Ionization_Penalty_Neutral>
2.49207

> <r_epik_State_Penalty>
2.65647

> <r_epik_Charging_Adjusted_Penalty>
2.71818

> <i_epik_Tot_Q>
-1

> <i_epik_Tot_abs_Q>
1

> <r_epik_Metal_State_Penalty>
0.516461

> <b_epik_Metal_Only>
0

> <s_lp_Force_Field>
OPLS_2005

> <r_lp_Energy>
27.5399

> <b_lp_Chiralities_Consistent>
1

> <s_lp_Variant>
AV-unprocessed.smi:1722-2

> <Gold.Version>
5.8.1

> <Gold.Id.Protein>
6NUR|6NUR_protein|mol2

> <Gold.PLP.Fitness>
45.2020

> <Gold.PLP.PLP>
-39.9977

> <Gold.PLP.part.hbond>
-1.0000

> <Gold.PLP.part.metal>
0.0000

> <Gold.PLP.part.buried>
-3.0205

> <Gold.PLP.part.nonpolar>
-36.2213

> <Gold.PLP.part.repulsive>
0.0163

> <Gold.PLP.ligand.clash>
0.0000

> <Gold.PLP.ligand.torsion>
0.4380

> <Gold.PLP.Chemscore.Hbond>
2.0000

> <Gold.PLP.Chemscore.CHOScore>
0.0000

> <Gold.PLP.Chemscore.Metal>
0.0000

> <Gold.PLP.Chemscore.Internal.Correction>
0.0804

> <Gold.Rescore>
     Score         DG    S(hbond)    S(metal)    S(lipo)     H(rot)  DE(clash)    DE(int)     intcor
     15.26     -17.05       0.79        0.00     110.65       1.57       0.11       1.68       ----

> <Gold.Chemscore.Fitness>
15.2601

> <Gold.Chemscore.DG>
-17.0543

> <Gold.Chemscore.ZeroCoef>
-5.4800

> <Gold.Chemscore.Hbond>
0.7941

> <Gold.Chemscore.Metal>
0.0000

> <Gold.Chemscore.Lipo>
110.6474

> <Gold.Chemscore.Internal_Hbond>
0.0000

> <Gold.Chemscore.DEClash>
0.1107

> <Gold.Chemscore.DEInternal>
1.6835

> <Gold.Chemscore.Rot>
1.5717

> <Gold.Chemscore.Internal.Correction>
   9.000000E+99

> <Gold.Chemscore.Hbond.Weighted>
-2.6522

> <Gold.Chemscore.Metal.Weighted>
-0.0000

> <Gold.Chemscore.Lipo.Weighted>
-12.9457

> <Gold.Chemscore.Internal_Hbond.Weighted>
0.0000

> <Gold.Chemscore.DEClash.Weighted>
0.1107

> <Gold.Chemscore.DEInternal.Weighted>
1.6835

> <Gold.Chemscore.Rot.Weighted>
4.0237

> <Gold.Chemscore.Internal.Correction.Weighted>
   9.000000E+99

> <Gold.Protein.RotatedTorsions>
[ 6907 6896 6895 6894 ] final  175.34 input  -60.11 | X-H torsion
[ 7974 7965 7964 7962 ] final  -95.63 input  175.53 | X-H torsion
[ 8008 7997 7996 7995 ] final -151.22 input   59.86 | X-H torsion
[ 10167 10162 10161 10158 ] final   37.42 input  -65.29 | X-H torsion
[ 10718 10713 10712 10709 ] final  -54.69 input   66.30 | X-H torsion
[ 10763 10752 10751 10750 ] final -119.08 input  -60.55 | X-H torsion
[ 11005 11000 10999 10996 ] final  -87.36 input  -57.11 | X-H torsion

> <Gold.Protein.ActiveResidues>
 VAL166  LYS551  ARG553  GLY616  TRP617  ASP618  TYR619  PRO620  LYS621  CYS622 
 ASP623  PHE694  ASN695  SER759  ASP760  ASP761  ALA762  ILE779  LEU786  VAL792 
 PHE793  MET794  SER795  GLU796  ALA797  LYS798  CYS799  TRP800  GLU811  SER814 

> <Gold.Protein.RotatedAtoms>
  151.7378  133.3320  159.3357 H   0  0  0  0  0  0  0  0  0  0  0  0  # atno 6907 bound_to 6896
  150.7586  134.6305  159.6193 H   0  0  0  0  0  0  0  0  0  0  0  0  # atno 6908 bound_to 6896
  152.3550  134.6955  160.0276 H   0  0  0  0  0  0  0  0  0  0  0  0  # atno 6909 bound_to 6896
  145.3575  140.9486  143.2519 H   0  0  0  0  0  0  0  0  0  0  0  0  # atno 7974 bound_to 7965
  155.6359  140.0696  157.2634 H   0  0  0  0  0  0  0  0  0  0  0  0  # atno 8008 bound_to 7997
  154.4195  140.1759  156.1571 H   0  0  0  0  0  0  0  0  0  0  0  0  # atno 8009 bound_to 7997
  155.9895  140.3346  155.6742 H   0  0  0  0  0  0  0  0  0  0  0  0  # atno 8010 bound_to 7997
  140.4034  144.1692  150.6135 H   0  0  0  0  0  0  0  0  0  0  0  0  # atno 10167 bound_to 10162
  156.1429  130.4154  150.0072 H   0  0  0  0  0  0  0  0  0  0  0  0  # atno 10718 bound_to 10713
  154.8607  135.4251  154.2242 H   0  0  0  0  0  0  0  0  0  0  0  0  # atno 10763 bound_to 10752
  153.3240  135.6984  153.7011 H   0  0  0  0  0  0  0  0  0  0  0  0  # atno 10764 bound_to 10752
  153.6054  135.3529  155.2934 H   0  0  0  0  0  0  0  0  0  0  0  0  # atno 10765 bound_to 10752
  141.1618  133.7507  156.9295 H   0  0  0  0  0  0  0  0  0  0  0  0  # atno 11005 bound_to 11000
  144.8671  139.5092  143.6785 LP  0  0  0  0  0  0  0  0  0  0  0  0  # atno 17320 bound_to 7965
  146.2941  139.7227  142.9139 LP  0  0  0  0  0  0  0  0  0  0  0  0  # atno 17321 bound_to 7965
  140.4715  143.2411  151.9082 LP  0  0  0  0  0  0  0  0  0  0  0  0  # atno 17342 bound_to 10162
  139.4784  144.5364  151.8592 LP  0  0  0  0  0  0  0  0  0  0  0  0  # atno 17343 bound_to 10162
  156.7952  130.9270  151.3646 LP  0  0  0  0  0  0  0  0  0  0  0  0  # atno 17370 bound_to 10713
  157.6592  130.8951  149.9793 LP  0  0  0  0  0  0  0  0  0  0  0  0  # atno 17371 bound_to 10713
  140.1396  134.9302  157.2449 LP  0  0  0  0  0  0  0  0  0  0  0  0  # atno 17394 bound_to 11000
  140.2853  134.3303  155.7331 LP  0  0  0  0  0  0  0  0  0  0  0  0  # atno 17395 bound_to 11000

$$$$
