AV-unprocessed.smi:733|AV-procd|sdf|3529|dock5
  -GOLD-   22720 0523D 1   1.00000     0.00000
 Structure written by MMmdl.
 43 44  0  0  0  0  0  0  0  0  1 V2000
  151.9046  144.9232  160.9129 C   0  0  0  0  0  0  0  0  0  0  0  0
  151.7610  143.8040  159.9278 C   0  0  0  0  0  0  0  0  0  0  0  0
  150.9622  143.9798  158.7941 N   0  0  0  0  0  0  0  0  0  0  0  0
  150.9391  142.8920  158.0174 C   0  0  0  0  0  0  0  0  0  0  0  0
  150.2123  142.7894  156.8024 N   0  0  0  0  0  0  0  0  0  0  0  0
  150.0310  141.7032  156.0312 C   0  0  0  0  0  0  0  0  0  0  0  0
  150.4947  140.5852  156.2577 O   0  0  0  0  0  0  0  0  0  0  0  0
  149.2659  141.9893  154.9678 N   0  0  0  0  0  0  0  0  0  0  0  0
  148.8482  141.0446  153.9324 C   0  0  0  0  0  0  0  0  0  0  0  0
  147.3289  140.7196  153.9851 C   0  0  0  0  0  0  0  0  0  0  0  0
  146.5273  141.7929  154.7812 C   0  0  0  0  0  0  0  0  0  0  0  0
  146.2243  143.1253  154.0628 C   0  0  0  0  0  0  0  0  0  0  0  0
  144.8522  143.4528  154.1097 O   0  0  0  0  0  0  0  0  0  0  0  0
  146.7842  140.5592  152.5445 C   0  0  0  0  0  0  0  0  0  0  0  0
  146.8073  139.0647  152.2403 C   0  0  0  0  0  0  0  0  0  0  0  0
  146.4163  138.4383  153.5704 C   0  0  0  0  0  0  0  0  0  0  0  0
  147.1016  139.3170  154.6198 C   0  0  0  0  0  0  0  0  0  0  0  0
  151.9076  141.5651  158.6351 S   0  0  0  0  0  0  0  0  0  0  0  0
  152.3452  142.5604  160.0016 C   0  0  0  0  0  0  0  0  0  0  0  0
  153.2491  142.0413  161.0699 C   0  0  0  0  0  0  0  0  0  0  0  0
  151.4751  144.6533  161.8777 H   0  0  0  0  0  0  0  0  0  0  0  0
  151.4031  145.8294  160.5714 H   0  0  0  0  0  0  0  0  0  0  0  0
  152.9536  145.1710  161.0752 H   0  0  0  0  0  0  0  0  0  0  0  0
  149.7723  143.6414  156.4879 H   0  0  0  0  0  0  0  0  0  0  0  0
  148.9340  142.9374  154.8693 H   0  0  0  0  0  0  0  0  0  0  0  0
  149.1071  141.4831  152.9687 H   0  0  0  0  0  0  0  0  0  0  0  0
  149.4295  140.1224  153.9871 H   0  0  0  0  0  0  0  0  0  0  0  0
  145.5897  141.3606  155.1340 H   0  0  0  0  0  0  0  0  0  0  0  0
  147.0815  142.0344  155.6890 H   0  0  0  0  0  0  0  0  0  0  0  0
  146.7707  143.9302  154.5551 H   0  0  0  0  0  0  0  0  0  0  0  0
  146.5638  143.1147  153.0278 H   0  0  0  0  0  0  0  0  0  0  0  0
  144.3513  142.6517  154.1312 H   0  0  0  0  0  0  0  0  0  0  0  0
  145.7481  140.8961  152.4903 H   0  0  0  0  0  0  0  0  0  0  0  0
  147.3431  141.1372  151.8076 H   0  0  0  0  0  0  0  0  0  0  0  0
  146.1316  138.7888  151.4303 H   0  0  0  0  0  0  0  0  0  0  0  0
  147.8150  138.7537  151.9613 H   0  0  0  0  0  0  0  0  0  0  0  0
  145.3339  138.4903  153.6966 H   0  0  0  0  0  0  0  0  0  0  0  0
  146.7101  137.3908  153.6439 H   0  0  0  0  0  0  0  0  0  0  0  0
  148.0485  138.8507  154.8908 H   0  0  0  0  0  0  0  0  0  0  0  0
  146.5103  139.3561  155.5354 H   0  0  0  0  0  0  0  0  0  0  0  0
  154.1827  142.6041  161.0931 H   0  0  0  0  0  0  0  0  0  0  0  0
  153.4934  140.9915  160.9061 H   0  0  0  0  0  0  0  0  0  0  0  0
  152.7787  142.1268  162.0496 H   0  0  0  0  0  0  0  0  0  0  0  0
  1  2  1  0  0  0  0
  1 21  1  0  0  0  0
  1 22  1  0  0  0  0
  1 23  1  0  0  0  0
  2 19  2  0  0  0  0
  2  3  1  0  0  0  0
  3  4  2  0  0  0  0
  4  5  1  0  0  0  0
  4 18  1  0  0  0  0
  5  6  1  0  0  0  0
  5 24  1  0  0  0  0
  6  7  2  0  0  0  0
  6  8  1  0  0  0  0
  8  9  1  0  0  0  0
  8 25  1  0  0  0  0
  9 10  1  0  0  0  0
  9 26  1  0  0  0  0
  9 27  1  0  0  0  0
 10 17  1  0  0  0  0
 10 11  1  0  0  0  0
 10 14  1  0  0  0  0
 11 12  1  0  0  0  0
 11 28  1  0  0  0  0
 11 29  1  0  0  0  0
 12 13  1  0  0  0  0
 12 30  1  0  0  0  0
 12 31  1  0  0  0  0
 13 32  1  0  0  0  0
 14 15  1  0  0  0  0
 14 33  1  0  0  0  0
 14 34  1  0  0  0  0
 15 16  1  0  0  0  0
 15 35  1  0  0  0  0
 15 36  1  0  0  0  0
 16 17  1  0  0  0  0
 16 37  1  0  0  0  0
 16 38  1  0  0  0  0
 17 39  1  0  0  0  0
 17 40  1  0  0  0  0
 18 19  1  0  0  0  0
 19 20  1  0  0  0  0
 20 41  1  0  0  0  0
 20 42  1  0  0  0  0
 20 43  1  0  0  0  0
M  END
> <s_m_source_file>
AV-unprocessed.smi

> <i_m_source_file_index>
733

> <i_lp_mmshare_version>
43012

> <i_f3d_flags>
0

> <s_epik_input>
W0NIM11jMW5jKHNjMVtDSDNdKVtOSF1DKD1PKVtOSF1bQ0gyXUMyKFtDSDJdW0NIMl1bT0hdKVtDSDJdW0NIMl1bQ0gyXVtDSDJdMg==

> <s_epik_cmdline>
J2VwaWtfcHl0aG9uJywgJy1waCcsICc3LjAnLCAnLXRuJywgJzgnLCAnLW1hJywgJzIwMCcsICctbWV0YWxfYmluZGluZycsICctaW1hZScsICc8aW5maWxlLm1hZT4nLCAnLW9tYWUnLCAnPG91dGZpbGUubWFlPic=

> <r_lp_tautomer_probability>
0.999

> <r_epik_Ionization_Penalty>
0.000695797

> <r_epik_Ionization_Penalty_Charging>
0

> <r_epik_Ionization_Penalty_Neutral>
0.000695797

> <r_epik_State_Penalty>
0.000177984

> <r_epik_Charging_Adjusted_Penalty>
0.000177984

> <i_epik_Tot_Q>
0

> <i_epik_Tot_abs_Q>
0

> <r_epik_Metal_State_Penalty>
-0

> <b_epik_Metal_Only>
0

> <s_lp_Force_Field>
OPLS_2005

> <r_lp_Energy>
29.226

> <b_lp_Chiralities_Consistent>
1

> <s_lp_Variant>
AV-unprocessed.smi:733-1

> <Gold.Version>
5.8.1

> <Gold.Id.Protein>
6NUR|6NUR_protein|mol2

> <Gold.PLP.Fitness>
45.0617

> <Gold.PLP.PLP>
-42.1904

> <Gold.PLP.part.hbond>
-2.5941

> <Gold.PLP.part.metal>
0.0000

> <Gold.PLP.part.buried>
-2.5700

> <Gold.PLP.part.nonpolar>
-36.8701

> <Gold.PLP.part.repulsive>
0.4117

> <Gold.PLP.ligand.clash>
0.0000

> <Gold.PLP.ligand.torsion>
1.4878

> <Gold.PLP.Chemscore.Hbond>
1.9280

> <Gold.PLP.Chemscore.CHOScore>
0.0000

> <Gold.PLP.Chemscore.Metal>
0.0000

> <Gold.Chemscore.Hbonds>
donor molecule, donor type, donor heavy atom, donor atom, acceptor molecule, acceptor atom, score
      L1  H     5    24       P1  8028  1.00
      L1  H     8    25       P1  8028  0.94

> <Gold.PLP.Chemscore.Internal.Correction>
0.0628

> <Gold.Rescore>
     Score         DG    S(hbond)    S(metal)    S(lipo)     H(rot)  DE(clash)    DE(int)     intcor
     14.19     -18.33       1.91        0.00     105.49       2.30       1.42       2.72       ----

> <Gold.Chemscore.Fitness>
14.1947

> <Gold.Chemscore.DG>
-18.3297

> <Gold.Chemscore.ZeroCoef>
-5.4800

> <Gold.Chemscore.Hbond>
1.9140

> <Gold.Chemscore.Metal>
0.0000

> <Gold.Chemscore.Lipo>
105.4911

> <Gold.Chemscore.Internal_Hbond>
0.0000

> <Gold.Chemscore.DEClash>
1.4150

> <Gold.Chemscore.DEInternal>
2.7200

> <Gold.Chemscore.Rot>
2.2990

> <Gold.Chemscore.Internal.Correction>
   9.000000E+99

> <Gold.Chemscore.Hbonds>
donor molecule, donor type, donor heavy atom, donor atom, acceptor molecule, acceptor atom, score
      L1  H     5    24       P1  8028  0.99
      L1  H     8    25       P1  8028  0.90

> <Gold.Chemscore.Hbond.Weighted>
-6.3927

> <Gold.Chemscore.Metal.Weighted>
-0.0000

> <Gold.Chemscore.Lipo.Weighted>
-12.3425

> <Gold.Chemscore.Internal_Hbond.Weighted>
0.0000

> <Gold.Chemscore.DEClash.Weighted>
1.4150

> <Gold.Chemscore.DEInternal.Weighted>
2.7200

> <Gold.Chemscore.Rot.Weighted>
5.8854

> <Gold.Chemscore.Internal.Correction.Weighted>
   9.000000E+99

> <Gold.Protein.RotatedTorsions>
[ 6907 6896 6895 6894 ] final   72.07 input  -60.11 | X-H torsion
[ 7974 7965 7964 7962 ] final  115.40 input  175.53 | X-H torsion
[ 8008 7997 7996 7995 ] final    1.29 input   59.86 | X-H torsion
[ 10167 10162 10161 10158 ] final -164.09 input  -65.29 | X-H torsion
[ 10718 10713 10712 10709 ] final    7.07 input   66.30 | X-H torsion
[ 10763 10752 10751 10750 ] final  136.48 input  -60.55 | X-H torsion
[ 11005 11000 10999 10996 ] final -179.24 input  -57.11 | X-H torsion

> <Gold.Protein.ActiveResidues>
 VAL166  LYS551  ARG553  GLY616  TRP617  ASP618  TYR619  PRO620  LYS621  CYS622 
 ASP623  PHE694  ASN695  SER759  ASP760  ASP761  ALA762  ILE779  LEU786  VAL792 
 PHE793  MET794  SER795  GLU796  ALA797  LYS798  CYS799  TRP800  GLU811  SER814 

> <Gold.Protein.RotatedAtoms>
  152.4847  134.4626  159.9609 H   0  0  0  0  0  0  0  0  0  0  0  0  # atno 6907 bound_to 6896
  151.4625  133.3583  159.2819 H   0  0  0  0  0  0  0  0  0  0  0  0  # atno 6908 bound_to 6896
  150.8947  134.8379  159.7378 H   0  0  0  0  0  0  0  0  0  0  0  0  # atno 6909 bound_to 6896
  145.1925  139.2993  143.4361 H   0  0  0  0  0  0  0  0  0  0  0  0  # atno 7974 bound_to 7965
  154.6780  140.2626  155.6937 H   0  0  0  0  0  0  0  0  0  0  0  0  # atno 8008 bound_to 7997
  156.2686  140.2816  156.1237 H   0  0  0  0  0  0  0  0  0  0  0  0  # atno 8009 bound_to 7997
  155.1072  140.0375  157.2704 H   0  0  0  0  0  0  0  0  0  0  0  0  # atno 8010 bound_to 7997
  139.6275  144.0504  152.1987 H   0  0  0  0  0  0  0  0  0  0  0  0  # atno 10167 bound_to 10162
  156.9315  130.5828  149.5649 H   0  0  0  0  0  0  0  0  0  0  0  0  # atno 10718 bound_to 10713
  153.8572  135.3072  155.3436 H   0  0  0  0  0  0  0  0  0  0  0  0  # atno 10763 bound_to 10752
  154.7865  135.4807  153.9960 H   0  0  0  0  0  0  0  0  0  0  0  0  # atno 10764 bound_to 10752
  153.1483  135.6838  153.9015 H   0  0  0  0  0  0  0  0  0  0  0  0  # atno 10765 bound_to 10752
  140.4208  134.6607  157.4663 H   0  0  0  0  0  0  0  0  0  0  0  0  # atno 11005 bound_to 11000
  146.3433  140.2142  142.8590 LP  0  0  0  0  0  0  0  0  0  0  0  0  # atno 17320 bound_to 7965
  145.0027  140.8646  143.5272 LP  0  0  0  0  0  0  0  0  0  0  0  0  # atno 17321 bound_to 7965
  140.0162  144.6187  150.7605 LP  0  0  0  0  0  0  0  0  0  0  0  0  # atno 17342 bound_to 10162
  140.7419  143.2825  151.3558 LP  0  0  0  0  0  0  0  0  0  0  0  0  # atno 17343 bound_to 10162
  156.0445  130.5523  150.8848 LP  0  0  0  0  0  0  0  0  0  0  0  0  # atno 17370 bound_to 10713
  157.5844  131.0946  150.9220 LP  0  0  0  0  0  0  0  0  0  0  0  0  # atno 17371 bound_to 10713
  140.0201  134.6559  155.9251 LP  0  0  0  0  0  0  0  0  0  0  0  0  # atno 17394 bound_to 11000
  141.1785  133.6543  156.4923 LP  0  0  0  0  0  0  0  0  0  0  0  0  # atno 17395 bound_to 11000

$$$$
