AV-unprocessed.smi:280|AV-procd|sdf|2098|dock1
  -GOLD-   2262021383D 1   1.00000     0.00000
 Structure written by MMmdl.
 59 62  0  0  0  0  0  0  0  0  2 V2000
  146.8909  133.8651  153.7609 C   0  0  0  0  0  0  0  0  0  0  0  0
  147.5591  133.1436  152.5696 C   0  0  1  0  0  0  0  0  0  0  0  0
  149.0675  132.9169  152.8088 C   0  0  0  0  0  0  0  0  0  0  0  0
  149.2916  131.8474  153.7823 N   0  0  0  0  0  0  0  0  0  0  0  0
  149.5738  132.1886  155.0702 C   0  0  0  0  0  0  0  0  0  0  0  0
  150.5176  133.1464  155.2661 N   0  0  0  0  0  0  0  0  0  0  0  0
  150.8507  133.5369  156.4983 C   0  0  0  0  0  0  0  0  0  0  0  0
  150.3704  133.1078  157.6645 N   0  0  0  0  0  0  0  0  0  0  0  0
  149.4231  132.1450  157.4862 C   0  0  0  0  0  0  0  0  0  0  0  0
  148.9648  131.6308  156.2371 C   0  0  0  0  0  0  0  0  0  0  0  0
  147.9760  130.6797  156.4684 N   0  0  0  0  0  0  0  0  0  0  0  0
  147.8649  130.6290  157.7667 C   0  0  0  0  0  0  0  0  0  0  0  0
  148.7055  131.4696  158.4584 N   0  0  0  0  0  0  0  0  0  0  0  0
  148.7871  131.6165  159.9046 C   0  0  0  0  0  0  0  0  0  0  0  0
  147.5481  132.2708  160.5474 C   0  0  0  0  0  0  0  0  0  0  0  0
  146.3883  131.2535  160.5496 C   0  0  0  0  0  0  0  0  0  0  0  0
  145.2180  131.7651  161.1555 O   0  0  0  0  0  0  0  0  0  0  0  0
  147.7796  133.0218  161.8669 C   0  0  0  0  0  0  0  0  0  0  0  0
  147.1352  134.2126  161.3638 O   0  0  0  0  0  0  0  0  0  0  0  0
  147.2171  133.6767  160.0248 C   0  0  0  0  0  0  0  0  0  0  0  0
  148.6438  130.5821  153.4537 C   0  0  0  0  0  0  0  0  0  0  0  0
  147.1351  130.7792  153.2132 C   0  0  0  0  0  0  0  0  0  0  0  0
  146.8959  131.8544  152.2120 N   0  3  1  0  0  0  0  0  0  0  0  0
  145.4740  131.9907  151.7922 C   0  0  0  0  0  0  0  0  0  0  0  0
  145.3114  132.5437  150.3552 C   0  0  0  0  0  0  0  0  0  0  0  0
  146.2376  131.7821  149.3916 C   0  0  0  0  0  0  0  0  0  0  0  0
  143.8543  132.4693  149.8623 C   0  0  0  0  0  0  0  0  0  0  0  0
  145.7252  133.8942  150.3165 O   0  0  0  0  0  0  0  0  0  0  0  0
  147.4020  134.8041  153.9748 H   0  0  0  0  0  0  0  0  0  0  0  0
  146.9179  133.2700  154.6732 H   0  0  0  0  0  0  0  0  0  0  0  0
  145.8482  134.1092  153.5598 H   0  0  0  0  0  0  0  0  0  0  0  0
  147.4712  133.8009  151.7035 H   0  0  0  0  0  0  0  0  0  0  0  0
  149.5408  132.6157  151.8735 H   0  0  0  0  0  0  0  0  0  0  0  0
  149.5445  133.8550  153.0925 H   0  0  0  0  0  0  0  0  0  0  0  0
  151.6101  134.3027  156.5583 H   0  0  0  0  0  0  0  0  0  0  0  0
  147.1654  129.9689  158.2591 H   0  0  0  0  0  0  0  0  0  0  0  0
  148.9637  130.6278  160.3303 H   0  0  0  0  0  0  0  0  0  0  0  0
  149.6807  132.1978  160.1349 H   0  0  0  0  0  0  0  0  0  0  0  0
  146.1357  130.9489  159.5334 H   0  0  0  0  0  0  0  0  0  0  0  0
  146.6609  130.3492  161.0938 H   0  0  0  0  0  0  0  0  0  0  0  0
  144.5450  131.1027  161.1173 H   0  0  0  0  0  0  0  0  0  0  0  0
  147.2625  132.5906  162.7247 H   0  0  0  0  0  0  0  0  0  0  0  0
  148.8282  133.2087  162.0988 H   0  0  0  0  0  0  0  0  0  0  0  0
  148.0254  134.1391  159.4558 H   0  0  0  0  0  0  0  0  0  0  0  0
  146.2744  133.7486  159.4811 H   0  0  0  0  0  0  0  0  0  0  0  0
  149.1040  130.2053  152.5397 H   0  0  0  0  0  0  0  0  0  0  0  0
  148.8336  129.8197  154.2081 H   0  0  0  0  0  0  0  0  0  0  0  0
  146.7068  129.8382  152.8724 H   0  0  0  0  0  0  0  0  0  0  0  0
  146.6250  131.0266  154.1438 H   0  0  0  0  0  0  0  0  0  0  0  0
  144.9561  131.0372  151.9091 H   0  0  0  0  0  0  0  0  0  0  0  0
  144.9651  132.6863  152.4610 H   0  0  0  0  0  0  0  0  0  0  0  0
  145.9768  130.7241  149.3466 H   0  0  0  0  0  0  0  0  0  0  0  0
  147.2805  131.8494  149.7040 H   0  0  0  0  0  0  0  0  0  0  0  0
  146.1730  132.1780  148.3771 H   0  0  0  0  0  0  0  0  0  0  0  0
  143.4853  131.4430  149.8793 H   0  0  0  0  0  0  0  0  0  0  0  0
  143.7639  132.8325  148.8378 H   0  0  0  0  0  0  0  0  0  0  0  0
  143.1845  133.0703  150.4779 H   0  0  0  0  0  0  0  0  0  0  0  0
  145.9912  134.1034  149.4334 H   0  0  0  0  0  0  0  0  0  0  0  0
  147.3777  131.5478  151.3789 H   0  0  0  0  0  0  0  0  0  0  0  0
  1  2  1  0  0  0  0
  1 29  1  0  0  0  0
  1 30  1  0  0  0  0
  1 31  1  0  0  0  0
  2 23  1  0  0  0  0
  2  3  1  0  0  0  0
  2 32  1  0  0  0  0
  3  4  1  0  0  0  0
  3 33  1  0  0  0  0
  3 34  1  0  0  0  0
  4  5  1  0  0  0  0
  4 21  1  0  0  0  0
  5 10  1  0  0  0  0
  5  6  2  0  0  0  0
  6  7  1  0  0  0  0
  7  8  2  0  0  0  0
  7 35  1  0  0  0  0
  8  9  1  0  0  0  0
  9 13  1  0  0  0  0
  9 10  2  0  0  0  0
 10 11  1  0  0  0  0
 11 12  2  0  0  0  0
 12 13  1  0  0  0  0
 12 36  1  0  0  0  0
 13 14  1  0  0  0  0
 14 15  1  0  0  0  0
 14 37  1  0  0  0  0
 14 38  1  0  0  0  0
 15 20  1  0  0  0  0
 15 16  1  0  0  0  0
 15 18  1  0  0  0  0
 16 17  1  0  0  0  0
 16 39  1  0  0  0  0
 16 40  1  0  0  0  0
 17 41  1  0  0  0  0
 18 19  1  0  0  0  0
 18 42  1  0  0  0  0
 18 43  1  0  0  0  0
 19 20  1  0  0  0  0
 20 44  1  0  0  0  0
 20 45  1  0  0  0  0
 21 22  1  0  0  0  0
 21 46  1  0  0  0  0
 21 47  1  0  0  0  0
 22 23  1  0  0  0  0
 22 48  1  0  0  0  0
 22 49  1  0  0  0  0
 23 24  1  0  0  0  0
 23 59  1  0  0  0  0
 24 25  1  0  0  0  0
 24 50  1  0  0  0  0
 24 51  1  0  0  0  0
 25 26  1  0  0  0  0
 25 27  1  0  0  0  0
 25 28  1  0  0  0  0
 26 52  1  0  0  0  0
 26 53  1  0  0  0  0
 26 54  1  0  0  0  0
 27 55  1  0  0  0  0
 27 56  1  0  0  0  0
 27 57  1  0  0  0  0
 28 58  1  0  0  0  0
M  CHG  1  23   1
M  END
> <s_m_source_file>
AV-unprocessed.smi

> <i_m_source_file_index>
280

> <i_lp_mmshare_version>
43012

> <i_f3d_flags>
0

> <s_epik_input>
W0NIM11DKFtDSDNdKShbT0hdKVtDSDJdTjFbQ0gyXVtDSDJdTihbQ0gyXVtDQEhdMVtDSDNdKWMobltjSF1uMiljKGMyMyluW2NIXW4zW0NIMl1DNChbQ0gyXVtPSF0pW0NIMl1PW0NIMl00

> <s_epik_cmdline>
J2VwaWtfcHl0aG9uJywgJy1waCcsICc3LjAnLCAnLXRuJywgJzgnLCAnLW1hJywgJzIwMCcsICctbWV0YWxfYmluZGluZycsICctaW1hZScsICc8aW5maWxlLm1hZT4nLCAnLW9tYWUnLCAnPG91dGZpbGUubWFlPic=

> <r_lp_tautomer_probability>
1

> <r_epik_Ionization_Penalty>
0.00179402

> <r_epik_Ionization_Penalty_Charging>
0.00173996

> <r_epik_Ionization_Penalty_Neutral>
5.40607e-05

> <r_epik_State_Penalty>
-0

> <r_epik_Charging_Adjusted_Penalty>
0.00173996

> <i_epik_Tot_Q>
1

> <i_epik_Tot_abs_Q>
1

> <r_epik_Metal_State_Penalty>
-0

> <b_epik_Metal_Only>
0

> <s_lp_Force_Field>
OPLS_2005

> <r_lp_Energy>
54.8934

> <b_lp_Chiralities_Consistent>
1

> <s_lp_Variant>
AV-unprocessed.smi:280-2

> <Gold.Version>
5.8.1

> <Gold.Id.Protein>
6NUR|6NUR_protein|mol2

> <Gold.PLP.Fitness>
46.2477

> <Gold.PLP.PLP>
-38.9874

> <Gold.PLP.part.hbond>
-2.8788

> <Gold.PLP.part.metal>
0.0000

> <Gold.PLP.part.buried>
-4.2170

> <Gold.PLP.part.nonpolar>
-31.3871

> <Gold.PLP.part.repulsive>
0.0271

> <Gold.PLP.ligand.clash>
0.0000

> <Gold.PLP.ligand.torsion>
1.1633

> <Gold.PLP.Chemscore.Hbond>
2.7963

> <Gold.PLP.Chemscore.CHOScore>
0.0000

> <Gold.PLP.Chemscore.Metal>
0.0000

> <Gold.Chemscore.Hbonds>
donor molecule, donor type, donor heavy atom, donor atom, acceptor molecule, acceptor atom, score
      L1  H    23    59       P1 10747  0.93
      L1  H    28    58       P1  7921  1.00
      P1  H  6896  6907       L1     8  1.00

> <Gold.PLP.Chemscore.Internal.Correction>
1.1983

> <Gold.Rescore>
     Score         DG    S(hbond)    S(metal)    S(lipo)     H(rot)  DE(clash)    DE(int)     intcor
     13.97     -16.49       2.56        0.00      93.09       3.30       0.24       2.28       ----

> <Gold.Chemscore.Fitness>
13.9690

> <Gold.Chemscore.DG>
-16.4904

> <Gold.Chemscore.ZeroCoef>
-5.4800

> <Gold.Chemscore.Hbond>
2.5642

> <Gold.Chemscore.Metal>
0.0000

> <Gold.Chemscore.Lipo>
93.0918

> <Gold.Chemscore.Internal_Hbond>
0.0000

> <Gold.Chemscore.DEClash>
0.2436

> <Gold.Chemscore.DEInternal>
2.2779

> <Gold.Chemscore.Rot>
3.2991

> <Gold.Chemscore.Internal.Correction>
   9.000000E+99

> <Gold.Chemscore.Hbonds>
donor molecule, donor type, donor heavy atom, donor atom, acceptor molecule, acceptor atom, score
      L1  H    23    59       P1 10747  0.87
      L1  H    28    58       P1  7921  0.25
      P1  H  6896  6907       L1     8  0.97

> <Gold.Chemscore.Hbond.Weighted>
-8.5643

> <Gold.Chemscore.Metal.Weighted>
-0.0000

> <Gold.Chemscore.Lipo.Weighted>
-10.8917

> <Gold.Chemscore.Internal_Hbond.Weighted>
0.0000

> <Gold.Chemscore.DEClash.Weighted>
0.2436

> <Gold.Chemscore.DEInternal.Weighted>
2.2779

> <Gold.Chemscore.Rot.Weighted>
8.4456

> <Gold.Chemscore.Internal.Correction.Weighted>
   9.000000E+99

> <Gold.Protein.RotatedTorsions>
[ 6907 6896 6895 6894 ] final -146.44 input  -60.11 | X-H torsion
[ 7974 7965 7964 7962 ] final  -84.62 input  175.53 | X-H torsion
[ 8008 7997 7996 7995 ] final  -99.14 input   59.86 | X-H torsion
[ 10167 10162 10161 10158 ] final  -44.15 input  -65.29 | X-H torsion
[ 10718 10713 10712 10709 ] final -148.57 input   66.30 | X-H torsion
[ 10763 10752 10751 10750 ] final  -89.64 input  -60.55 | X-H torsion
[ 11005 11000 10999 10996 ] final  -51.67 input  -57.11 | X-H torsion

> <Gold.Protein.ActiveResidues>
 VAL166  LYS551  ARG553  GLY616  TRP617  ASP618  TYR619  PRO620  LYS621  CYS622 
 ASP623  PHE694  ASN695  SER759  ASP760  ASP761  ALA762  ILE779  LEU786  VAL792 
 PHE793  MET794  SER795  GLU796  ALA797  LYS798  CYS799  TRP800  GLU811  SER814 

> <Gold.Protein.RotatedAtoms>
  151.1416  133.4967  159.2596 H   0  0  0  0  0  0  0  0  0  0  0  0  # atno 6907 bound_to 6896
  151.1648  135.0290  159.8736 H   0  0  0  0  0  0  0  0  0  0  0  0  # atno 6908 bound_to 6896
  152.5462  134.1286  159.8483 H   0  0  0  0  0  0  0  0  0  0  0  0  # atno 6909 bound_to 6896
  145.5041  140.9545  143.1743 H   0  0  0  0  0  0  0  0  0  0  0  0  # atno 7974 bound_to 7965
  154.8107  140.0450  157.1340 H   0  0  0  0  0  0  0  0  0  0  0  0  # atno 8008 bound_to 7997
  154.9372  140.3047  155.5119 H   0  0  0  0  0  0  0  0  0  0  0  0  # atno 8009 bound_to 7997
  156.2971  140.2312  156.4437 H   0  0  0  0  0  0  0  0  0  0  0  0  # atno 8010 bound_to 7997
  140.6907  143.2945  151.3454 H   0  0  0  0  0  0  0  0  0  0  0  0  # atno 10167 bound_to 10162
  156.4220  130.8033  151.2256 H   0  0  0  0  0  0  0  0  0  0  0  0  # atno 10718 bound_to 10713
  154.6574  135.5333  153.7975 H   0  0  0  0  0  0  0  0  0  0  0  0  # atno 10763 bound_to 10752
  153.0421  135.6497  154.0925 H   0  0  0  0  0  0  0  0  0  0  0  0  # atno 10764 bound_to 10752
  154.0837  135.2945  155.3265 H   0  0  0  0  0  0  0  0  0  0  0  0  # atno 10765 bound_to 10752
  141.0883  133.6638  156.3911 H   0  0  0  0  0  0  0  0  0  0  0  0  # atno 11005 bound_to 11000
  144.7763  139.6622  143.7173 LP  0  0  0  0  0  0  0  0  0  0  0  0  # atno 17320 bound_to 7965
  146.2207  139.5631  142.9620 LP  0  0  0  0  0  0  0  0  0  0  0  0  # atno 17321 bound_to 7965
  139.6308  144.0725  152.2474 LP  0  0  0  0  0  0  0  0  0  0  0  0  # atno 17342 bound_to 10162
  140.0199  144.6161  150.7576 LP  0  0  0  0  0  0  0  0  0  0  0  0  # atno 17343 bound_to 10162
  157.7508  131.0225  150.3795 LP  0  0  0  0  0  0  0  0  0  0  0  0  # atno 17370 bound_to 10713
  156.4114  130.3935  149.6889 LP  0  0  0  0  0  0  0  0  0  0  0  0  # atno 17371 bound_to 10713
  140.5311  134.6212  157.5350 LP  0  0  0  0  0  0  0  0  0  0  0  0  # atno 17394 bound_to 11000
  139.9705  134.7301  156.0051 LP  0  0  0  0  0  0  0  0  0  0  0  0  # atno 17395 bound_to 11000

$$$$
