AV-unprocessed.smi:2837|AV-procd|sdf|10926|dock1
  -GOLD-   2272015373D 1   1.00000     0.00000
 Structure written by MMmdl.
 33 35  0  0  0  0  0  0  0  0  2 V2000
  153.6466  142.6930  162.2526 F   0  0  0  0  0  0  0  0  0  0  0  0
  152.7493  143.0198  161.2906 C   0  0  0  0  0  0  0  0  0  0  0  0
  152.6485  144.3703  161.2675 F   0  0  0  0  0  0  0  0  0  0  0  0
  153.1685  142.5703  160.0778 O   0  0  0  0  0  0  0  0  0  0  0  0
  152.2717  142.5056  159.0359 C   0  0  0  0  0  0  0  0  0  0  0  0
  151.9054  141.2348  158.5459 C   0  0  0  0  0  0  0  0  0  0  0  0
  150.9799  141.1290  157.4876 C   0  0  0  0  0  0  0  0  0  0  0  0
  150.4193  142.3046  156.9342 C   0  0  0  0  0  0  0  0  0  0  0  0
  149.4925  142.3253  155.8829 N   0  0  0  0  0  0  0  0  0  0  0  0
  149.0232  141.0917  155.2624 C   0  0  2  0  0  0  0  0  0  0  0  0
  148.7880  141.2306  153.7562 C   0  0  0  0  0  0  0  0  0  0  0  0
  147.3457  140.7246  153.6137 C   0  0  2  0  0  0  0  0  0  0  0  0
  146.3333  141.7601  154.1193 C   0  0  0  0  0  0  0  0  0  0  0  0
  146.5355  141.6788  155.6309 C   0  0  0  0  0  0  0  0  0  0  0  0
  147.6398  140.6141  155.7487 C   0  0  1  0  0  0  0  0  0  0  0  0
  147.2872  139.7732  154.6637 O   0  0  0  0  0  0  0  0  0  0  0  0
  150.7878  143.5029  157.4383 N   0  3  0  0  0  0  0  0  0  0  0  0
  151.6723  143.6462  158.4495 C   0  0  0  0  0  0  0  0  0  0  0  0
  151.7707  142.6170  161.5530 H   0  0  0  0  0  0  0  0  0  0  0  0
  152.3359  140.3432  158.9782 H   0  0  0  0  0  0  0  0  0  0  0  0
  150.7168  140.1488  157.1192 H   0  0  0  0  0  0  0  0  0  0  0  0
  149.0026  143.1825  155.6705 H   0  0  0  0  0  0  0  0  0  0  0  0
  149.7607  140.3039  155.4202 H   0  0  0  0  0  0  0  0  0  0  0  0
  148.9005  142.2499  153.3833 H   0  0  0  0  0  0  0  0  0  0  0  0
  149.4803  140.5924  153.2059 H   0  0  0  0  0  0  0  0  0  0  0  0
  147.1123  140.3231  152.6273 H   0  0  0  0  0  0  0  0  0  0  0  0
  146.5211  142.7568  153.7184 H   0  0  0  0  0  0  0  0  0  0  0  0
  145.3158  141.4707  153.8539 H   0  0  0  0  0  0  0  0  0  0  0  0
  146.8108  142.6349  156.0765 H   0  0  0  0  0  0  0  0  0  0  0  0
  145.6209  141.3351  156.1151 H   0  0  0  0  0  0  0  0  0  0  0  0
  147.6575  140.1056  156.7127 H   0  0  0  0  0  0  0  0  0  0  0  0
  151.8626  144.6650  158.7542 H   0  0  0  0  0  0  0  0  0  0  0  0
  150.3753  144.3458  157.0379 H   0  0  0  0  0  0  0  0  0  0  0  0
  1  2  1  0  0  0  0
  2  3  1  0  0  0  0
  2  4  1  0  0  0  0
  2 19  1  0  0  0  0
  4  5  1  0  0  0  0
  5 18  1  0  0  0  0
  5  6  2  0  0  0  0
  6  7  1  0  0  0  0
  6 20  1  0  0  0  0
  7  8  2  0  0  0  0
  7 21  1  0  0  0  0
  8  9  1  0  0  0  0
  8 17  1  0  0  0  0
  9 10  1  0  0  0  0
  9 22  1  0  0  0  0
 10 15  1  0  0  0  0
 10 11  1  0  0  0  0
 10 23  1  0  0  0  0
 11 12  1  0  0  0  0
 11 24  1  0  0  0  0
 11 25  1  0  0  0  0
 12 16  1  0  0  0  0
 12 13  1  0  0  0  0
 12 26  1  0  0  0  0
 13 14  1  0  0  0  0
 13 27  1  0  0  0  0
 13 28  1  0  0  0  0
 14 15  1  0  0  0  0
 14 29  1  0  0  0  0
 14 30  1  0  0  0  0
 15 16  1  0  0  0  0
 15 31  1  0  0  0  0
 17 18  2  0  0  0  0
 17 33  1  0  0  0  0
 18 32  1  0  0  0  0
M  CHG  1  17   1
M  END
> <s_m_source_file>
AV-unprocessed.smi

> <i_m_source_file_index>
2837

> <i_lp_mmshare_version>
43012

> <i_f3d_flags>
0

> <s_epik_input>
RltDSF0oRilPYzFbY0hdW2NIXWMobltjSF0xKVtOSF1bQ0BIXShbQ0gyXVtDQEBIXTIzKVtDQEBIXShPMylbQ0gyXVtDSDJdMg==

> <s_epik_cmdline>
J2VwaWtfcHl0aG9uJywgJy1waCcsICc3LjAnLCAnLXRuJywgJzgnLCAnLW1hJywgJzIwMCcsICctbWV0YWxfYmluZGluZycsICctaW1hZScsICc8aW5maWxlLm1hZT4nLCAnLW9tYWUnLCAnPG91dGZpbGUubWFlPic=

> <r_lp_tautomer_probability>
0.999429

> <r_epik_Ionization_Penalty>
2.29716

> <r_epik_Ionization_Penalty_Charging>
2.29716

> <r_epik_Ionization_Penalty_Neutral>
1.42285e-06

> <r_epik_State_Penalty>
2.44762

> <r_epik_Charging_Adjusted_Penalty>
4.74478

> <i_epik_Tot_Q>
1

> <i_epik_Tot_abs_Q>
1

> <r_epik_Metal_State_Penalty>
6.53078

> <b_epik_Metal_Only>
0

> <s_lp_Force_Field>
OPLS_2005

> <r_lp_Energy>
46.8355

> <b_lp_Chiralities_Consistent>
1

> <s_lp_Variant>
AV-unprocessed.smi:2837-7

> <Gold.Version>
5.8.1

> <Gold.Id.Protein>
6NUR|6NUR_protein|mol2

> <Gold.PLP.Fitness>
44.9775

> <Gold.PLP.PLP>
-35.5226

> <Gold.PLP.part.hbond>
-1.8675

> <Gold.PLP.part.metal>
0.0000

> <Gold.PLP.part.buried>
-0.3114

> <Gold.PLP.part.nonpolar>
-33.6912

> <Gold.PLP.part.repulsive>
0.2304

> <Gold.PLP.ligand.clash>
0.0000

> <Gold.PLP.ligand.torsion>
0.4886

> <Gold.PLP.Chemscore.Hbond>
3.4720

> <Gold.PLP.Chemscore.CHOScore>
0.0000

> <Gold.PLP.Chemscore.Metal>
0.0000

> <Gold.Chemscore.Hbonds>
donor molecule, donor type, donor heavy atom, donor atom, acceptor molecule, acceptor atom, score
      L1  H     9    22       P1  8028  2.00
      L1  H    17    33       P1  8028  1.43

> <Gold.PLP.Chemscore.Internal.Correction>
0.0161

> <Gold.Rescore>
     Score         DG    S(hbond)    S(metal)    S(lipo)     H(rot)  DE(clash)    DE(int)     intcor
     15.52     -16.93       1.72        0.00      78.05       1.34       0.84       0.57       ----

> <Gold.Chemscore.Fitness>
15.5235

> <Gold.Chemscore.DG>
-16.9340

> <Gold.Chemscore.ZeroCoef>
-5.4800

> <Gold.Chemscore.Hbond>
1.7197

> <Gold.Chemscore.Metal>
0.0000

> <Gold.Chemscore.Lipo>
78.0540

> <Gold.Chemscore.Internal_Hbond>
0.0000

> <Gold.Chemscore.DEClash>
0.8443

> <Gold.Chemscore.DEInternal>
0.5661

> <Gold.Chemscore.Rot>
1.3368

> <Gold.Chemscore.Internal.Correction>
   9.000000E+99

> <Gold.Chemscore.Hbonds>
donor molecule, donor type, donor heavy atom, donor atom, acceptor molecule, acceptor atom, score
      L1  H     9    22       P1  8028  0.92
      L1  H    17    33       P1  8028  0.59

> <Gold.Chemscore.Hbond.Weighted>
-5.7440

> <Gold.Chemscore.Metal.Weighted>
-0.0000

> <Gold.Chemscore.Lipo.Weighted>
-9.1323

> <Gold.Chemscore.Internal_Hbond.Weighted>
0.0000

> <Gold.Chemscore.DEClash.Weighted>
0.8443

> <Gold.Chemscore.DEInternal.Weighted>
0.5661

> <Gold.Chemscore.Rot.Weighted>
3.4223

> <Gold.Chemscore.Internal.Correction.Weighted>
   9.000000E+99

> <Gold.Protein.RotatedTorsions>
[ 6907 6896 6895 6894 ] final   66.72 input  -60.11 | X-H torsion
[ 7974 7965 7964 7962 ] final  -42.55 input  175.53 | X-H torsion
[ 8008 7997 7996 7995 ] final   73.29 input   59.86 | X-H torsion
[ 10167 10162 10161 10158 ] final  -20.11 input  -65.29 | X-H torsion
[ 10718 10713 10712 10709 ] final  -25.86 input   66.30 | X-H torsion
[ 10763 10752 10751 10750 ] final   -3.68 input  -60.55 | X-H torsion
[ 11005 11000 10999 10996 ] final   88.98 input  -57.11 | X-H torsion

> <Gold.Protein.ActiveResidues>
 VAL166  LYS551  ARG553  GLY616  TRP617  ASP618  TYR619  PRO620  LYS621  CYS622 
 ASP623  PHE694  ASN695  SER759  ASP760  ASP761  ALA762  ILE779  LEU786  VAL792 
 PHE793  MET794  SER795  GLU796  ALA797  LYS798  CYS799  TRP800  GLU811  SER814 

> <Gold.Protein.RotatedAtoms>
  152.4501  134.5411  159.9839 H   0  0  0  0  0  0  0  0  0  0  0  0  # atno 6907 bound_to 6896
  151.5486  133.3415  159.2956 H   0  0  0  0  0  0  0  0  0  0  0  0  # atno 6908 bound_to 6896
  150.8428  134.7758  159.7009 H   0  0  0  0  0  0  0  0  0  0  0  0  # atno 6909 bound_to 6896
  146.0105  140.6970  142.9227 H   0  0  0  0  0  0  0  0  0  0  0  0  # atno 7974 bound_to 7965
  155.7814  140.3482  155.5299 H   0  0  0  0  0  0  0  0  0  0  0  0  # atno 8008 bound_to 7997
  155.8725  140.0989  157.1561 H   0  0  0  0  0  0  0  0  0  0  0  0  # atno 8009 bound_to 7997
  154.4018  140.1338  156.4083 H   0  0  0  0  0  0  0  0  0  0  0  0  # atno 8010 bound_to 7997
  140.7274  143.4754  151.0190 H   0  0  0  0  0  0  0  0  0  0  0  0  # atno 10167 bound_to 10162
  156.4588  130.4499  149.6942 H   0  0  0  0  0  0  0  0  0  0  0  0  # atno 10718 bound_to 10713
  153.3746  135.6996  153.6611 H   0  0  0  0  0  0  0  0  0  0  0  0  # atno 10763 bound_to 10752
  153.5247  135.3604  155.2649 H   0  0  0  0  0  0  0  0  0  0  0  0  # atno 10764 bound_to 10752
  154.8685  135.4166  154.3032 H   0  0  0  0  0  0  0  0  0  0  0  0  # atno 10765 bound_to 10752
  139.8885  134.8523  156.3078 H   0  0  0  0  0  0  0  0  0  0  0  0  # atno 11005 bound_to 11000
  144.6951  140.3390  143.7202 LP  0  0  0  0  0  0  0  0  0  0  0  0  # atno 17320 bound_to 7965
  145.7349  139.1747  143.2409 LP  0  0  0  0  0  0  0  0  0  0  0  0  # atno 17321 bound_to 7965
  139.8449  143.7515  152.3179 LP  0  0  0  0  0  0  0  0  0  0  0  0  # atno 17342 bound_to 10162
  139.7677  144.7487  151.0271 LP  0  0  0  0  0  0  0  0  0  0  0  0  # atno 17343 bound_to 10162
  156.3738  130.7544  151.2530 LP  0  0  0  0  0  0  0  0  0  0  0  0  # atno 17370 bound_to 10713
  157.7499  131.0315  150.4185 LP  0  0  0  0  0  0  0  0  0  0  0  0  # atno 17371 bound_to 10713
  140.9871  133.7232  156.0757 LP  0  0  0  0  0  0  0  0  0  0  0  0  # atno 17394 bound_to 11000
  140.7674  134.3871  157.5514 LP  0  0  0  0  0  0  0  0  0  0  0  0  # atno 17395 bound_to 11000

$$$$
