AV-unprocessed.smi:910|AV-procd|sdf|4116|dock4
  -GOLD-   22720 2 13D 1   1.00000     0.00000
 Structure written by MMmdl.
 46 47  0  0  0  0  0  0  0  0  1 V2000
  146.5377  134.1400  162.3164 C   0  0  0  0  0  0  0  0  0  0  0  0
  147.2085  135.2347  161.5479 C   0  0  0  0  0  0  0  0  0  0  0  0
  147.8176  135.0102  160.3214 N   0  0  0  0  0  0  0  0  0  0  0  0
  148.2932  136.2033  159.9601 C   0  0  0  0  0  0  0  0  0  0  0  0
  149.0020  136.5049  158.7706 N   0  0  0  0  0  0  0  0  0  0  0  0
  149.5455  137.6816  158.4183 C   0  0  0  0  0  0  0  0  0  0  0  0
  149.4862  138.7185  159.0797 O   0  0  0  0  0  0  0  0  0  0  0  0
  150.1830  137.5883  157.2429 N   0  0  0  0  0  0  0  0  0  0  0  0
  150.9529  138.6571  156.6147 C   0  0  0  0  0  0  0  0  0  0  0  0
  151.7955  139.4255  157.6437 C   0  0  0  0  0  0  0  0  0  0  0  0
  151.4458  140.8003  157.5778 O   0  0  0  0  0  0  0  0  0  0  0  0
  152.3084  141.6660  158.3031 C   0  0  2  0  0  0  0  0  0  0  0  0
  152.5205  141.1062  159.7244 C   0  0  0  0  0  0  0  0  0  0  0  0
  153.3295  142.0775  160.5966 C   0  0  0  0  0  0  0  0  0  0  0  0
  152.6646  143.4607  160.6434 C   0  0  0  0  0  0  0  0  0  0  0  0
  152.4616  144.0243  159.2286 C   0  0  0  0  0  0  0  0  0  0  0  0
  151.6471  143.0617  158.3411 C   0  0  1  0  0  0  0  0  0  0  0  0
  151.4682  143.6433  156.9284 C   0  0  0  0  0  0  0  0  0  0  0  0
  148.0409  137.1914  160.8588 O   0  0  0  0  0  0  0  0  0  0  0  0
  147.3525  136.5626  161.8619 C   0  0  0  0  0  0  0  0  0  0  0  0
  146.9162  137.3842  163.0271 C   0  0  0  0  0  0  0  0  0  0  0  0
  145.6324  134.4994  162.8058 H   0  0  0  0  0  0  0  0  0  0  0  0
  147.1969  133.7439  163.0890 H   0  0  0  0  0  0  0  0  0  0  0  0
  146.2533  133.3119  161.6664 H   0  0  0  0  0  0  0  0  0  0  0  0
  149.1272  135.7360  158.1294 H   0  0  0  0  0  0  0  0  0  0  0  0
  150.1777  136.6974  156.7682 H   0  0  0  0  0  0  0  0  0  0  0  0
  151.6044  138.2115  155.8627 H   0  0  0  0  0  0  0  0  0  0  0  0
  150.2845  139.3381  156.0860 H   0  0  0  0  0  0  0  0  0  0  0  0
  151.6115  139.0347  158.6446 H   0  0  0  0  0  0  0  0  0  0  0  0
  152.8571  139.2890  157.4320 H   0  0  0  0  0  0  0  0  0  0  0  0
  153.2719  141.7591  157.7981 H   0  0  0  0  0  0  0  0  0  0  0  0
  151.5528  140.9198  160.1916 H   0  0  0  0  0  0  0  0  0  0  0  0
  153.0328  140.1451  159.6825 H   0  0  0  0  0  0  0  0  0  0  0  0
  153.4275  141.6774  161.6062 H   0  0  0  0  0  0  0  0  0  0  0  0
  154.3412  142.1704  160.1998 H   0  0  0  0  0  0  0  0  0  0  0  0
  151.7015  143.3880  161.1502 H   0  0  0  0  0  0  0  0  0  0  0  0
  153.2739  144.1461  161.2332 H   0  0  0  0  0  0  0  0  0  0  0  0
  151.9588  144.9900  159.2907 H   0  0  0  0  0  0  0  0  0  0  0  0
  153.4343  144.2128  158.7715 H   0  0  0  0  0  0  0  0  0  0  0  0
  150.6557  142.9561  158.7844 H   0  0  0  0  0  0  0  0  0  0  0  0
  152.4274  143.7588  156.4227 H   0  0  0  0  0  0  0  0  0  0  0  0
  150.9910  144.6229  156.9645 H   0  0  0  0  0  0  0  0  0  0  0  0
  150.8431  142.9997  156.3087 H   0  0  0  0  0  0  0  0  0  0  0  0
  147.0646  136.8415  163.9608 H   0  0  0  0  0  0  0  0  0  0  0  0
  145.8587  137.6356  162.9463 H   0  0  0  0  0  0  0  0  0  0  0  0
  147.4818  138.3144  163.0845 H   0  0  0  0  0  0  0  0  0  0  0  0
  1  2  1  0  0  0  0
  1 22  1  0  0  0  0
  1 23  1  0  0  0  0
  1 24  1  0  0  0  0
  2 20  2  0  0  0  0
  2  3  1  0  0  0  0
  3  4  2  0  0  0  0
  4  5  1  0  0  0  0
  4 19  1  0  0  0  0
  5  6  1  0  0  0  0
  5 25  1  0  0  0  0
  6  7  2  0  0  0  0
  6  8  1  0  0  0  0
  8  9  1  0  0  0  0
  8 26  1  0  0  0  0
  9 10  1  0  0  0  0
  9 27  1  0  0  0  0
  9 28  1  0  0  0  0
 10 11  1  0  0  0  0
 10 29  1  0  0  0  0
 10 30  1  0  0  0  0
 11 12  1  0  0  0  0
 12 17  1  0  0  0  0
 12 13  1  0  0  0  0
 12 31  1  0  0  0  0
 13 14  1  0  0  0  0
 13 32  1  0  0  0  0
 13 33  1  0  0  0  0
 14 15  1  0  0  0  0
 14 34  1  0  0  0  0
 14 35  1  0  0  0  0
 15 16  1  0  0  0  0
 15 36  1  0  0  0  0
 15 37  1  0  0  0  0
 16 17  1  0  0  0  0
 16 38  1  0  0  0  0
 16 39  1  0  0  0  0
 17 18  1  0  0  0  0
 17 40  1  0  0  0  0
 18 41  1  0  0  0  0
 18 42  1  0  0  0  0
 18 43  1  0  0  0  0
 19 20  1  0  0  0  0
 20 21  1  0  0  0  0
 21 44  1  0  0  0  0
 21 45  1  0  0  0  0
 21 46  1  0  0  0  0
M  END
> <s_m_source_file>
AV-unprocessed.smi

> <i_m_source_file_index>
910

> <i_lp_mmshare_version>
43012

> <i_f3d_flags>
0

> <s_epik_input>
W0NIM11jMW5jKG9jMVtDSDNdKVtOSF1DKD1PKVtOSF1bQ0gyXVtDSDJdT1tDQEBIXTJbQ0gyXVtDSDJdW0NIMl1bQ0gyXVtDQEhdMltDSDNd

> <s_epik_cmdline>
J2VwaWtfcHl0aG9uJywgJy1waCcsICc3LjAnLCAnLXRuJywgJzgnLCAnLW1hJywgJzIwMCcsICctbWV0YWxfYmluZGluZycsICctaW1hZScsICc8aW5maWxlLm1hZT4nLCAnLW9tYWUnLCAnPG91dGZpbGUubWFlPic=

> <r_lp_tautomer_probability>
0.785861

> <r_epik_Ionization_Penalty>
4.15957e-05

> <r_epik_Ionization_Penalty_Charging>
0

> <r_epik_Ionization_Penalty_Neutral>
4.15957e-05

> <r_epik_State_Penalty>
0.0240523

> <r_epik_Charging_Adjusted_Penalty>
0.0240523

> <i_epik_Tot_Q>
0

> <i_epik_Tot_abs_Q>
0

> <r_epik_Metal_State_Penalty>
0.057053

> <b_epik_Metal_Only>
0

> <s_lp_Force_Field>
OPLS_2005

> <r_lp_Energy>
8.24802

> <b_lp_Chiralities_Consistent>
1

> <s_lp_Variant>
AV-unprocessed.smi:910-1

> <Gold.Version>
5.8.1

> <Gold.Id.Protein>
6NUR|6NUR_protein|mol2

> <Gold.PLP.Fitness>
43.5202

> <Gold.PLP.PLP>
-40.3454

> <Gold.PLP.part.hbond>
-4.0000

> <Gold.PLP.part.metal>
0.0000

> <Gold.PLP.part.buried>
-1.8967

> <Gold.PLP.part.nonpolar>
-35.8465

> <Gold.PLP.part.repulsive>
0.1831

> <Gold.PLP.ligand.clash>
0.0000

> <Gold.PLP.ligand.torsion>
0.5937

> <Gold.PLP.Chemscore.Hbond>
1.4462

> <Gold.PLP.Chemscore.CHOScore>
0.0000

> <Gold.PLP.Chemscore.Metal>
0.0000

> <Gold.Chemscore.Hbonds>
donor molecule, donor type, donor heavy atom, donor atom, acceptor molecule, acceptor atom, score
      P1  H  6931  6943       L1    19  0.81
      P1  H  6934  6947       L1    19  0.74

> <Gold.PLP.Chemscore.Internal.Correction>
0.0237

> <Gold.Rescore>
     Score         DG    S(hbond)    S(metal)    S(lipo)     H(rot)  DE(clash)    DE(int)     intcor
     13.95     -17.33       0.70        0.00     117.57       1.66       0.09       3.29       ----

> <Gold.Chemscore.Fitness>
13.9518

> <Gold.Chemscore.DG>
-17.3293

> <Gold.Chemscore.ZeroCoef>
-5.4800

> <Gold.Chemscore.Hbond>
0.6996

> <Gold.Chemscore.Metal>
0.0000

> <Gold.Chemscore.Lipo>
117.5744

> <Gold.Chemscore.Internal_Hbond>
0.0000

> <Gold.Chemscore.DEClash>
0.0861

> <Gold.Chemscore.DEInternal>
3.2914

> <Gold.Chemscore.Rot>
1.6576

> <Gold.Chemscore.Internal.Correction>
   9.000000E+99

> <Gold.Chemscore.Hbonds>
donor molecule, donor type, donor heavy atom, donor atom, acceptor molecule, acceptor atom, score
      P1  H  6931  6943       L1    19  0.16
      P1  H  6934  6947       L1    19  0.20

> <Gold.Chemscore.Hbond.Weighted>
-2.3366

> <Gold.Chemscore.Metal.Weighted>
-0.0000

> <Gold.Chemscore.Lipo.Weighted>
-13.7562

> <Gold.Chemscore.Internal_Hbond.Weighted>
0.0000

> <Gold.Chemscore.DEClash.Weighted>
0.0861

> <Gold.Chemscore.DEInternal.Weighted>
3.2914

> <Gold.Chemscore.Rot.Weighted>
4.2436

> <Gold.Chemscore.Internal.Correction.Weighted>
   9.000000E+99

> <Gold.Protein.RotatedTorsions>
[ 6907 6896 6895 6894 ] final   88.44 input  -60.11 | X-H torsion
[ 7974 7965 7964 7962 ] final  106.79 input  175.53 | X-H torsion
[ 8008 7997 7996 7995 ] final -160.34 input   59.86 | X-H torsion
[ 10167 10162 10161 10158 ] final  -28.40 input  -65.29 | X-H torsion
[ 10718 10713 10712 10709 ] final  136.08 input   66.30 | X-H torsion
[ 10763 10752 10751 10750 ] final  -40.79 input  -60.55 | X-H torsion
[ 11005 11000 10999 10996 ] final -104.04 input  -57.11 | X-H torsion

> <Gold.Protein.ActiveResidues>
 VAL166  LYS551  ARG553  GLY616  TRP617  ASP618  TYR619  PRO620  LYS621  CYS622 
 ASP623  PHE694  ASN695  SER759  ASP760  ASP761  ALA762  ILE779  LEU786  VAL792 
 PHE793  MET794  SER795  GLU796  ALA797  LYS798  CYS799  TRP800  GLU811  SER814 

> <Gold.Protein.RotatedAtoms>
  152.5425  134.2122  159.8754 H   0  0  0  0  0  0  0  0  0  0  0  0  # atno 6907 bound_to 6896
  151.2104  133.4552  159.2605 H   0  0  0  0  0  0  0  0  0  0  0  0  # atno 6908 bound_to 6896
  151.0903  134.9924  159.8455 H   0  0  0  0  0  0  0  0  0  0  0  0  # atno 6909 bound_to 6896
  145.3021  139.2566  143.3808 H   0  0  0  0  0  0  0  0  0  0  0  0  # atno 7974 bound_to 7965
  155.7760  140.0858  157.2083 H   0  0  0  0  0  0  0  0  0  0  0  0  # atno 8008 bound_to 7997
  154.3993  140.1516  156.3055 H   0  0  0  0  0  0  0  0  0  0  0  0  # atno 8009 bound_to 7997
  155.8700  140.3426  155.5817 H   0  0  0  0  0  0  0  0  0  0  0  0  # atno 8010 bound_to 7997
  140.7270  143.4013  151.1259 H   0  0  0  0  0  0  0  0  0  0  0  0  # atno 10167 bound_to 10162
  157.4504  131.1065  151.0040 H   0  0  0  0  0  0  0  0  0  0  0  0  # atno 10718 bound_to 10713
  153.9518  135.6749  153.4744 H   0  0  0  0  0  0  0  0  0  0  0  0  # atno 10763 bound_to 10752
  153.0881  135.4889  154.8633 H   0  0  0  0  0  0  0  0  0  0  0  0  # atno 10764 bound_to 10752
  154.7321  135.3140  154.8833 H   0  0  0  0  0  0  0  0  0  0  0  0  # atno 10765 bound_to 10752
  141.1118  133.8690  157.1562 H   0  0  0  0  0  0  0  0  0  0  0  0  # atno 11005 bound_to 11000
  146.3148  140.3537  142.8658 LP  0  0  0  0  0  0  0  0  0  0  0  0  # atno 17320 bound_to 7965
  144.9085  140.7729  143.5822 LP  0  0  0  0  0  0  0  0  0  0  0  0  # atno 17321 bound_to 7965
  139.7634  143.8602  152.3105 LP  0  0  0  0  0  0  0  0  0  0  0  0  # atno 17342 bound_to 10162
  139.8495  144.7171  150.9231 LP  0  0  0  0  0  0  0  0  0  0  0  0  # atno 17343 bound_to 10162
  157.0872  130.5927  149.5432 LP  0  0  0  0  0  0  0  0  0  0  0  0  # atno 17370 bound_to 10713
  155.9985  130.5059  150.7572 LP  0  0  0  0  0  0  0  0  0  0  0  0  # atno 17371 bound_to 10713
  140.0017  135.0025  157.0204 LP  0  0  0  0  0  0  0  0  0  0  0  0  # atno 17394 bound_to 11000
  140.4754  134.1344  155.7209 LP  0  0  0  0  0  0  0  0  0  0  0  0  # atno 17395 bound_to 11000

$$$$
