AV-unprocessed.smi:2567|AV-procd|sdf|10082|dock1
  -GOLD-   2272014103D 1   1.00000     0.00000
 Structure written by MMmdl.
 33 34  0  0  0  0  0  0  0  0  1 V2000
  140.0926  137.5180  155.6067 C   0  0  0  0  0  0  0  0  0  0  0  0
  140.1445  137.3893  154.0679 C   0  0  0  0  0  0  0  0  0  0  0  0
  138.7059  137.0769  153.6005 C   0  0  0  0  0  0  0  0  0  0  0  0
  140.6121  138.7186  153.4485 C   0  0  0  0  0  0  0  0  0  0  0  0
  141.0832  136.2796  153.6541 C   0  0  0  0  0  0  0  0  0  0  0  0
  140.9365  135.0358  154.1180 N   0  0  0  0  0  0  0  0  0  0  0  0
  142.0298  134.4127  153.6321 N   0  0  0  0  0  0  0  0  0  0  0  0
  142.7825  135.2933  152.9724 C   0  0  0  0  0  0  0  0  0  0  0  0
  144.0868  134.9134  152.3453 C   0  0  2  0  0  0  0  0  0  0  0  0
  144.1246  135.2264  150.8367 C   0  0  0  0  0  0  0  0  0  0  0  0
  145.3801  134.7567  150.2532 N   0  0  0  0  0  0  0  0  0  0  0  0
  145.5889  133.3353  150.5253 C   0  0  0  0  0  0  0  0  0  0  0  0
  145.5087  133.0616  152.0380 C   0  0  0  0  0  0  0  0  0  0  0  0
  144.2545  133.5112  152.5395 O   0  0  0  0  0  0  0  0  0  0  0  0
  142.2533  136.5123  152.9795 N   0  0  0  0  0  0  0  0  0  0  0  0
  142.2239  133.4342  153.7900 H   0  0  0  0  0  0  0  0  0  0  0  0
  139.3877  138.2904  155.9164 H   0  0  0  0  0  0  0  0  0  0  0  0
  141.0632  137.7882  156.0241 H   0  0  0  0  0  0  0  0  0  0  0  0
  139.7803  136.5831  156.0741 H   0  0  0  0  0  0  0  0  0  0  0  0
  138.3535  136.1273  154.0052 H   0  0  0  0  0  0  0  0  0  0  0  0
  138.6377  137.0177  152.5136 H   0  0  0  0  0  0  0  0  0  0  0  0
  138.0069  137.8499  153.9215 H   0  0  0  0  0  0  0  0  0  0  0  0
  139.9497  139.5399  153.7239 H   0  0  0  0  0  0  0  0  0  0  0  0
  140.6319  138.6621  152.3595 H   0  0  0  0  0  0  0  0  0  0  0  0
  141.6170  138.9799  153.7824 H   0  0  0  0  0  0  0  0  0  0  0  0
  144.8867  135.4485  152.8610 H   0  0  0  0  0  0  0  0  0  0  0  0
  143.2832  134.7432  150.3386 H   0  0  0  0  0  0  0  0  0  0  0  0
  144.0134  136.2985  150.6721 H   0  0  0  0  0  0  0  0  0  0  0  0
  145.3673  134.9116  149.2502 H   0  0  0  0  0  0  0  0  0  0  0  0
  144.8339  132.7437  150.0063 H   0  0  0  0  0  0  0  0  0  0  0  0
  146.5570  133.0178  150.1376 H   0  0  0  0  0  0  0  0  0  0  0  0
  145.6026  131.9930  152.2307 H   0  0  0  0  0  0  0  0  0  0  0  0
  146.3257  133.5536  152.5684 H   0  0  0  0  0  0  0  0  0  0  0  0
  1  2  1  0  0  0  0
  1 17  1  0  0  0  0
  1 18  1  0  0  0  0
  1 19  1  0  0  0  0
  2  3  1  0  0  0  0
  2  4  1  0  0  0  0
  2  5  1  0  0  0  0
  3 20  1  0  0  0  0
  3 21  1  0  0  0  0
  3 22  1  0  0  0  0
  4 23  1  0  0  0  0
  4 24  1  0  0  0  0
  4 25  1  0  0  0  0
  5 15  1  0  0  0  0
  5  6  2  0  0  0  0
  6  7  1  0  0  0  0
  7 16  1  0  0  0  0
  7  8  1  0  0  0  0
  8  9  1  0  0  0  0
  8 15  2  0  0  0  0
  9 14  1  0  0  0  0
  9 10  1  0  0  0  0
  9 26  1  0  0  0  0
 10 11  1  0  0  0  0
 10 27  1  0  0  0  0
 10 28  1  0  0  0  0
 11 12  1  0  0  0  0
 11 29  1  0  0  0  0
 12 13  1  0  0  0  0
 12 30  1  0  0  0  0
 12 31  1  0  0  0  0
 13 14  1  0  0  0  0
 13 32  1  0  0  0  0
 13 33  1  0  0  0  0
M  END
> <s_m_source_file>
AV-unprocessed.smi

> <i_m_source_file_index>
2567

> <i_lp_mmshare_version>
43012

> <i_f3d_flags>
0

> <s_epik_input>
W0NIM11DKFtDSDNdKShbQ0gzXSljMW5bbkhdYyhuMSlbQ0BASF0yW0NIMl1bTkhdW0NIMl1bQ0gyXU8y

> <s_epik_cmdline>
J2VwaWtfcHl0aG9uJywgJy1waCcsICc3LjAnLCAnLXRuJywgJzgnLCAnLW1hJywgJzIwMCcsICctbWV0YWxfYmluZGluZycsICctaW1hZScsICc8aW5maWxlLm1hZT4nLCAnLW9tYWUnLCAnPG91dGZpbGUubWFlPic=

> <r_epik_Ionization_Penalty>
0.981987

> <r_epik_Ionization_Penalty_Charging>
0

> <r_epik_Ionization_Penalty_Neutral>
0.981987

> <r_epik_State_Penalty>
2.09479

> <r_epik_Charging_Adjusted_Penalty>
2.09479

> <i_epik_Tot_Q>
0

> <i_epik_Tot_abs_Q>
0

> <r_epik_Metal_State_Penalty>
2.40362

> <b_epik_Metal_Only>
0

> <s_lp_Force_Field>
OPLS_2005

> <r_lp_Energy>
12.9727

> <b_lp_Chiralities_Consistent>
1

> <s_lp_Variant>
AV-unprocessed.smi:2567-7

> <Gold.Version>
5.8.1

> <Gold.Id.Protein>
6NUR|6NUR_protein|mol2

> <Gold.PLP.Fitness>
35.6962

> <Gold.PLP.PLP>
-26.7390

> <Gold.PLP.part.hbond>
-3.3920

> <Gold.PLP.part.metal>
0.0000

> <Gold.PLP.part.buried>
-5.1602

> <Gold.PLP.part.nonpolar>
-17.7398

> <Gold.PLP.part.repulsive>
0.5522

> <Gold.PLP.ligand.clash>
0.0000

> <Gold.PLP.ligand.torsion>
0.1233

> <Gold.PLP.Chemscore.Hbond>
3.0000

> <Gold.PLP.Chemscore.CHOScore>
0.0000

> <Gold.PLP.Chemscore.Metal>
0.0000

> <Gold.Chemscore.Hbonds>
donor molecule, donor type, donor heavy atom, donor atom, acceptor molecule, acceptor atom, score
      L1  H     7    16       P1 10957  1.00
      L1  H    11    29       P1  7921  1.00
      P1  H 11000 11005       L1     6  1.00

> <Gold.PLP.Chemscore.Internal.Correction>
0.2037

> <Gold.Rescore>
     Score         DG    S(hbond)    S(metal)    S(lipo)     H(rot)  DE(clash)    DE(int)     intcor
     17.48     -17.61       2.91        0.00      47.83       1.25       0.02       0.11       ----

> <Gold.Chemscore.Fitness>
17.4827

> <Gold.Chemscore.DG>
-17.6090

> <Gold.Chemscore.ZeroCoef>
-5.4800

> <Gold.Chemscore.Hbond>
2.9101

> <Gold.Chemscore.Metal>
0.0000

> <Gold.Chemscore.Lipo>
47.8327

> <Gold.Chemscore.Internal_Hbond>
0.0000

> <Gold.Chemscore.DEClash>
0.0170

> <Gold.Chemscore.DEInternal>
0.1093

> <Gold.Chemscore.Rot>
1.2450

> <Gold.Chemscore.Internal.Correction>
   9.000000E+99

> <Gold.Chemscore.Hbonds>
donor molecule, donor type, donor heavy atom, donor atom, acceptor molecule, acceptor atom, score
      L1  H     7    16       P1 10957  0.97
      L1  H    11    29       P1  7921  0.95
      P1  H 11000 11005       L1     6  0.88

> <Gold.Chemscore.Hbond.Weighted>
-9.7198

> <Gold.Chemscore.Metal.Weighted>
-0.0000

> <Gold.Chemscore.Lipo.Weighted>
-5.5964

> <Gold.Chemscore.Internal_Hbond.Weighted>
0.0000

> <Gold.Chemscore.DEClash.Weighted>
0.0170

> <Gold.Chemscore.DEInternal.Weighted>
0.1093

> <Gold.Chemscore.Rot.Weighted>
3.1872

> <Gold.Chemscore.Internal.Correction.Weighted>
   9.000000E+99

> <Gold.Protein.RotatedTorsions>
[ 6907 6896 6895 6894 ] final   93.08 input  -60.11 | X-H torsion
[ 7974 7965 7964 7962 ] final  144.35 input  175.53 | X-H torsion
[ 8008 7997 7996 7995 ] final -130.56 input   59.86 | X-H torsion
[ 10167 10162 10161 10158 ] final  151.09 input  -65.29 | X-H torsion
[ 10718 10713 10712 10709 ] final   57.32 input   66.30 | X-H torsion
[ 10763 10752 10751 10750 ] final   73.88 input  -60.55 | X-H torsion
[ 11005 11000 10999 10996 ] final   33.99 input  -57.11 | X-H torsion

> <Gold.Protein.ActiveResidues>
 VAL166  LYS551  ARG553  GLY616  TRP617  ASP618  TYR619  PRO620  LYS621  CYS622 
 ASP623  PHE694  ASN695  SER759  ASP760  ASP761  ALA762  ILE779  LEU786  VAL792 
 PHE793  MET794  SER795  GLU796  ALA797  LYS798  CYS799  TRP800  GLU811  SER814 

> <Gold.Protein.RotatedAtoms>
  152.5453  134.1403  159.8475 H   0  0  0  0  0  0  0  0  0  0  0  0  # atno 6907 bound_to 6896
  151.1440  133.4945  159.2604 H   0  0  0  0  0  0  0  0  0  0  0  0  # atno 6908 bound_to 6896
  151.1543  135.0253  159.8737 H   0  0  0  0  0  0  0  0  0  0  0  0  # atno 6909 bound_to 6896
  144.8843  139.5652  143.5828 H   0  0  0  0  0  0  0  0  0  0  0  0  # atno 7974 bound_to 7965
  155.2978  140.0451  157.3027 H   0  0  0  0  0  0  0  0  0  0  0  0  # atno 8008 bound_to 7997
  154.5504  140.2315  155.8461 H   0  0  0  0  0  0  0  0  0  0  0  0  # atno 8009 bound_to 7997
  156.1962  140.3038  155.9438 H   0  0  0  0  0  0  0  0  0  0  0  0  # atno 8010 bound_to 7997
  139.4844  144.5469  151.7468 H   0  0  0  0  0  0  0  0  0  0  0  0  # atno 10167 bound_to 10162
  157.5505  130.8762  149.8956 H   0  0  0  0  0  0  0  0  0  0  0  0  # atno 10718 bound_to 10713
  153.0550  135.5046  154.7960 H   0  0  0  0  0  0  0  0  0  0  0  0  # atno 10763 bound_to 10752
  154.6792  135.2965  154.9638 H   0  0  0  0  0  0  0  0  0  0  0  0  # atno 10764 bound_to 10752
  154.0430  135.6714  153.4845 H   0  0  0  0  0  0  0  0  0  0  0  0  # atno 10765 bound_to 10752
  140.2574  134.3232  155.7869 H   0  0  0  0  0  0  0  0  0  0  0  0  # atno 11005 bound_to 11000
  146.3014  139.7440  142.9088 LP  0  0  0  0  0  0  0  0  0  0  0  0  # atno 17320 bound_to 7965
  145.3897  141.0370  143.3131 LP  0  0  0  0  0  0  0  0  0  0  0  0  # atno 17321 bound_to 7965
  140.5017  144.1159  150.5973 LP  0  0  0  0  0  0  0  0  0  0  0  0  # atno 17342 bound_to 10162
  140.4054  143.2683  151.9897 LP  0  0  0  0  0  0  0  0  0  0  0  0  # atno 17343 bound_to 10162
  156.0572  130.3706  150.1063 LP  0  0  0  0  0  0  0  0  0  0  0  0  # atno 17370 bound_to 10713
  156.9236  130.9691  151.3544 LP  0  0  0  0  0  0  0  0  0  0  0  0  # atno 17371 bound_to 10713
  141.2194  133.7389  156.9133 LP  0  0  0  0  0  0  0  0  0  0  0  0  # atno 17394 bound_to 11000
  140.1498  134.9238  157.2578 LP  0  0  0  0  0  0  0  0  0  0  0  0  # atno 17395 bound_to 11000

$$$$
