AV-unprocessed.smi:2180|AV-procd|sdf|8859|dock6
  -GOLD-   2272012 53D 1   1.00000     0.00000
 Structure written by MMmdl.
 39 40  0  0  0  0  0  0  0  0  1 V2000
  153.9204  141.8072  162.2060 C   0  0  0  0  0  0  0  0  0  0  0  0
  153.1185  142.7042  161.3095 C   0  0  0  0  0  0  0  0  0  0  0  0
  152.4760  143.9307  161.6365 C   0  0  0  0  0  0  0  0  0  0  0  0
  151.8927  144.3299  160.4669 C   0  0  0  0  0  0  0  0  0  0  0  0
  151.0705  145.5422  160.1726 C   0  0  0  0  0  0  0  0  0  0  0  0
  152.1935  143.3655  159.5190 N   0  0  0  0  0  0  0  0  0  0  0  0
  151.8148  143.3000  158.1155 C   0  0  0  0  0  0  0  0  0  0  0  0
  151.2884  141.9116  157.7489 C   0  0  0  0  0  0  0  0  0  0  0  0
  151.2738  141.0144  158.5913 O   0  0  0  0  0  0  0  0  0  0  0  0
  150.8534  141.7533  156.4892 N   0  0  0  0  0  0  0  0  0  0  0  0
  150.2624  140.5377  155.9324 C   0  0  2  0  0  0  0  0  0  0  0  0
  148.9937  140.1318  156.7254 C   0  0  0  0  0  0  0  0  0  0  0  0
  148.6081  138.6387  156.6693 C   0  0  0  0  0  0  0  0  0  0  0  0
  148.4686  138.0412  155.2544 C   0  0  0  0  0  0  0  0  0  0  0  0
  149.6893  138.1859  154.3141 C   0  0  0  0  0  0  0  0  0  0  0  0
  150.9674  138.3581  155.0040 N   0  0  0  0  0  0  0  0  0  0  0  0
  151.3119  139.4246  155.7462 C   0  0  0  0  0  0  0  0  0  0  0  0
  152.4187  139.5064  156.2779 O   0  0  0  0  0  0  0  0  0  0  0  0
  152.9482  142.3733  160.0405 N   0  0  0  0  0  0  0  0  0  0  0  0
  153.7951  142.0837  163.2530 H   0  0  0  0  0  0  0  0  0  0  0  0
  154.9831  141.8678  161.9706 H   0  0  0  0  0  0  0  0  0  0  0  0
  153.6137  140.7660  162.1005 H   0  0  0  0  0  0  0  0  0  0  0  0
  152.4467  144.4404  162.5881 H   0  0  0  0  0  0  0  0  0  0  0  0
  151.1629  146.2765  160.9730 H   0  0  0  0  0  0  0  0  0  0  0  0
  150.0162  145.2818  160.0804 H   0  0  0  0  0  0  0  0  0  0  0  0
  151.3866  146.0205  159.2455 H   0  0  0  0  0  0  0  0  0  0  0  0
  151.0650  144.0655  157.9123 H   0  0  0  0  0  0  0  0  0  0  0  0
  152.6800  143.5349  157.4932 H   0  0  0  0  0  0  0  0  0  0  0  0
  150.9035  142.5491  155.8694 H   0  0  0  0  0  0  0  0  0  0  0  0
  149.9445  140.7961  154.9213 H   0  0  0  0  0  0  0  0  0  0  0  0
  149.1249  140.3954  157.7761 H   0  0  0  0  0  0  0  0  0  0  0  0
  148.1534  140.7330  156.3760 H   0  0  0  0  0  0  0  0  0  0  0  0
  149.3352  138.0554  157.2358 H   0  0  0  0  0  0  0  0  0  0  0  0
  147.6652  138.5029  157.1997 H   0  0  0  0  0  0  0  0  0  0  0  0
  148.2481  136.9792  155.3678 H   0  0  0  0  0  0  0  0  0  0  0  0
  147.5932  138.4679  154.7634 H   0  0  0  0  0  0  0  0  0  0  0  0
  149.7602  137.3064  153.6739 H   0  0  0  0  0  0  0  0  0  0  0  0
  149.5380  139.0233  153.6321 H   0  0  0  0  0  0  0  0  0  0  0  0
  151.6489  137.6207  154.8942 H   0  0  0  0  0  0  0  0  0  0  0  0
  1  2  1  0  0  0  0
  1 20  1  0  0  0  0
  1 21  1  0  0  0  0
  1 22  1  0  0  0  0
  2 19  2  0  0  0  0
  2  3  1  0  0  0  0
  3  4  2  0  0  0  0
  3 23  1  0  0  0  0
  4  5  1  0  0  0  0
  4  6  1  0  0  0  0
  5 24  1  0  0  0  0
  5 25  1  0  0  0  0
  5 26  1  0  0  0  0
  6  7  1  0  0  0  0
  6 19  1  0  0  0  0
  7  8  1  0  0  0  0
  7 27  1  0  0  0  0
  7 28  1  0  0  0  0
  8  9  2  0  0  0  0
  8 10  1  0  0  0  0
 10 11  1  0  0  0  0
 10 29  1  0  0  0  0
 11 17  1  0  0  0  0
 11 12  1  0  0  0  0
 11 30  1  0  0  0  0
 12 13  1  0  0  0  0
 12 31  1  0  0  0  0
 12 32  1  0  0  0  0
 13 14  1  0  0  0  0
 13 33  1  0  0  0  0
 13 34  1  0  0  0  0
 14 15  1  0  0  0  0
 14 35  1  0  0  0  0
 14 36  1  0  0  0  0
 15 16  1  0  0  0  0
 15 37  1  0  0  0  0
 15 38  1  0  0  0  0
 16 17  1  0  0  0  0
 16 39  1  0  0  0  0
 17 18  2  0  0  0  0
M  END
> <s_m_source_file>
AV-unprocessed.smi

> <i_m_source_file_index>
2180

> <i_lp_mmshare_version>
43012

> <i_f3d_flags>
0

> <s_epik_input>
W0NIM11jMVtjSF1jKFtDSDNdKW4objEpW0NIMl1DKD1PKVtOSF1bQ0BASF0yW0NIMl1bQ0gyXVtDSDJdW0NIMl1bTkhdQzI9Tw==

> <s_epik_cmdline>
J2VwaWtfcHl0aG9uJywgJy1waCcsICc3LjAnLCAnLXRuJywgJzgnLCAnLW1hJywgJzIwMCcsICctbWV0YWxfYmluZGluZycsICctaW1hZScsICc8aW5maWxlLm1hZT4nLCAnLW9tYWUnLCAnPG91dGZpbGUubWFlPic=

> <r_lp_tautomer_probability>
1

> <r_epik_Ionization_Penalty>
0.000287215

> <r_epik_Ionization_Penalty_Charging>
0

> <r_epik_Ionization_Penalty_Neutral>
0.000287215

> <r_epik_State_Penalty>
-0

> <r_epik_Charging_Adjusted_Penalty>
0

> <i_epik_Tot_Q>
0

> <i_epik_Tot_abs_Q>
0

> <r_epik_Metal_State_Penalty>
-0

> <b_epik_Metal_Only>
0

> <s_lp_Force_Field>
OPLS_2005

> <r_lp_Energy>
13.5369

> <b_lp_Chiralities_Consistent>
1

> <s_lp_Variant>
AV-unprocessed.smi:2180-1

> <Gold.Version>
5.8.1

> <Gold.Id.Protein>
6NUR|6NUR_protein|mol2

> <Gold.PLP.Fitness>
41.5983

> <Gold.PLP.PLP>
-38.9790

> <Gold.PLP.part.hbond>
-1.0000

> <Gold.PLP.part.metal>
0.0000

> <Gold.PLP.part.buried>
-4.7584

> <Gold.PLP.part.nonpolar>
-33.7184

> <Gold.PLP.part.repulsive>
0.2266

> <Gold.PLP.ligand.clash>
0.0000

> <Gold.PLP.ligand.torsion>
0.2171

> <Gold.PLP.Chemscore.Hbond>
1.0000

> <Gold.PLP.Chemscore.CHOScore>
0.0000

> <Gold.PLP.Chemscore.Metal>
0.0000

> <Gold.Chemscore.Hbonds>
donor molecule, donor type, donor heavy atom, donor atom, acceptor molecule, acceptor atom, score
      P1  H  7997  8008       L1    18  0.84

> <Gold.PLP.Chemscore.Internal.Correction>
0.0534

> <Gold.Rescore>
     Score         DG    S(hbond)    S(metal)    S(lipo)     H(rot)  DE(clash)    DE(int)     intcor
     12.73     -15.49       1.00        0.00      89.51       1.48       0.10       2.66       ----

> <Gold.Chemscore.Fitness>
12.7267

> <Gold.Chemscore.DG>
-15.4878

> <Gold.Chemscore.ZeroCoef>
-5.4800

> <Gold.Chemscore.Hbond>
0.9983

> <Gold.Chemscore.Metal>
0.0000

> <Gold.Chemscore.Lipo>
89.5101

> <Gold.Chemscore.Internal_Hbond>
0.0000

> <Gold.Chemscore.DEClash>
0.1049

> <Gold.Chemscore.DEInternal>
2.6561

> <Gold.Chemscore.Rot>
1.4840

> <Gold.Chemscore.Internal.Correction>
   9.000000E+99

> <Gold.Chemscore.Hbonds>
donor molecule, donor type, donor heavy atom, donor atom, acceptor molecule, acceptor atom, score
      P1  H  7997  8008       L1    18  0.81

> <Gold.Chemscore.Hbond.Weighted>
-3.3342

> <Gold.Chemscore.Metal.Weighted>
-0.0000

> <Gold.Chemscore.Lipo.Weighted>
-10.4727

> <Gold.Chemscore.Internal_Hbond.Weighted>
0.0000

> <Gold.Chemscore.DEClash.Weighted>
0.1049

> <Gold.Chemscore.DEInternal.Weighted>
2.6561

> <Gold.Chemscore.Rot.Weighted>
3.7991

> <Gold.Chemscore.Internal.Correction.Weighted>
   9.000000E+99

> <Gold.Protein.RotatedTorsions>
[ 6907 6896 6895 6894 ] final -162.44 input  -60.11 | X-H torsion
[ 7974 7965 7964 7962 ] final    2.25 input  175.53 | X-H torsion
[ 8008 7997 7996 7995 ] final  -24.61 input   59.86 | X-H torsion
[ 10167 10162 10161 10158 ] final -174.56 input  -65.29 | X-H torsion
[ 10718 10713 10712 10709 ] final  114.00 input   66.30 | X-H torsion
[ 10763 10752 10751 10750 ] final -131.48 input  -60.55 | X-H torsion
[ 11005 11000 10999 10996 ] final  -99.82 input  -57.11 | X-H torsion

> <Gold.Protein.ActiveResidues>
 VAL166  LYS551  ARG553  GLY616  TRP617  ASP618  TYR619  PRO620  LYS621  CYS622 
 ASP623  PHE694  ASN695  SER759  ASP760  ASP761  ALA762  ILE779  LEU786  VAL792 
 PHE793  MET794  SER795  GLU796  ALA797  LYS798  CYS799  TRP800  GLU811  SER814 

> <Gold.Protein.RotatedAtoms>
  151.3804  133.3823  159.2709 H   0  0  0  0  0  0  0  0  0  0  0  0  # atno 6907 bound_to 6896
  150.9582  134.8975  159.7725 H   0  0  0  0  0  0  0  0  0  0  0  0  # atno 6908 bound_to 6896
  152.5139  134.3762  159.9387 H   0  0  0  0  0  0  0  0  0  0  0  0  # atno 6909 bound_to 6896
  146.2443  140.0864  142.8354 H   0  0  0  0  0  0  0  0  0  0  0  0  # atno 7974 bound_to 7965
  154.4520  140.1949  156.0491 H   0  0  0  0  0  0  0  0  0  0  0  0  # atno 8008 bound_to 7997
  156.0668  140.3289  155.7500 H   0  0  0  0  0  0  0  0  0  0  0  0  # atno 8009 bound_to 7997
  155.5326  140.0579  157.2876 H   0  0  0  0  0  0  0  0  0  0  0  0  # atno 8010 bound_to 7997
  139.5627  144.1830  152.1264 H   0  0  0  0  0  0  0  0  0  0  0  0  # atno 10167 bound_to 10162
  157.6306  131.0992  150.7123 H   0  0  0  0  0  0  0  0  0  0  0  0  # atno 10718 bound_to 10713
  154.8750  135.3828  154.4254 H   0  0  0  0  0  0  0  0  0  0  0  0  # atno 10763 bound_to 10752
  153.4953  135.7030  153.5866 H   0  0  0  0  0  0  0  0  0  0  0  0  # atno 10764 bound_to 10752
  153.4222  135.3899  155.2085 H   0  0  0  0  0  0  0  0  0  0  0  0  # atno 10765 bound_to 10752
  141.1294  133.8351  157.1021 H   0  0  0  0  0  0  0  0  0  0  0  0  # atno 11005 bound_to 11000
  145.0688  140.9140  143.4894 LP  0  0  0  0  0  0  0  0  0  0  0  0  # atno 17320 bound_to 7965
  145.0994  139.2833  143.5694 LP  0  0  0  0  0  0  0  0  0  0  0  0  # atno 17321 bound_to 7965
  140.1347  144.5257  150.6781 LP  0  0  0  0  0  0  0  0  0  0  0  0  # atno 17342 bound_to 10162
  140.6908  143.2375  151.5135 LP  0  0  0  0  0  0  0  0  0  0  0  0  # atno 17343 bound_to 10162
  156.7463  130.4755  149.5466 LP  0  0  0  0  0  0  0  0  0  0  0  0  # atno 17370 bound_to 10713
  156.1507  130.6308  151.0591 LP  0  0  0  0  0  0  0  0  0  0  0  0  # atno 17371 bound_to 10713
  140.0327  134.9893  157.0811 LP  0  0  0  0  0  0  0  0  0  0  0  0  # atno 17394 bound_to 11000
  140.4260  134.1830  155.7166 LP  0  0  0  0  0  0  0  0  0  0  0  0  # atno 17395 bound_to 11000

$$$$
