AV-unprocessed.smi:2932|AV-procd|sdf|11251|dock6
  -GOLD-   2272016143D 1   1.00000     0.00000
 Structure written by MMmdl.
 30 30  0  0  0  0  0  0  0  0  2 V2000
  154.4043  140.9701  161.7978 C   0  0  0  0  0  0  0  0  0  0  0  0
  153.4536  141.8532  161.0434 C   0  0  0  0  0  0  0  0  0  0  0  0
  153.1290  141.5607  159.7934 N   0  0  0  0  0  0  0  0  0  0  0  0
  152.2779  142.5431  159.4012 N   0  0  0  0  0  0  0  0  0  0  0  0
  151.7460  142.5144  158.0461 C   0  0  0  0  0  0  0  0  0  0  0  0
  151.2002  141.1314  157.6823 C   0  0  0  0  0  0  0  0  0  0  0  0
  150.1918  140.7039  158.2441 O   0  0  0  0  0  0  0  0  0  0  0  0
  151.8711  140.4487  156.7412 N   0  0  0  0  0  0  0  0  0  0  0  0
  151.5213  139.1280  156.2276 C   0  0  1  0  0  0  0  0  0  0  0  0
  151.1653  139.2005  154.7331 C   0  0  0  0  0  0  0  0  0  0  0  0
  152.6352  138.1266  156.5457 C   0  0  0  0  0  0  0  0  0  0  0  0
  152.4804  136.9503  156.1506 O   0  0  0  0  0  0  0  0  0  0  0  0
  153.6256  138.5536  157.1803 O   0  5  0  0  0  0  0  0  0  0  0  0
  152.0468  143.4675  160.4085 C   0  0  0  0  0  0  0  0  0  0  0  0
  151.1497  144.6521  160.2480 C   0  0  0  0  0  0  0  0  0  0  0  0
  152.7966  143.0387  161.4634 C   0  0  0  0  0  0  0  0  0  0  0  0
  152.9267  143.7944  163.0099 Cl  0  0  0  0  0  0  0  0  0  0  0  0
  150.6322  138.7843  156.7603 H   0  0  0  0  0  0  0  0  0  0  0  0
  154.3279  141.1335  162.8728 H   0  0  0  0  0  0  0  0  0  0  0  0
  155.4353  141.1674  161.5040 H   0  0  0  0  0  0  0  0  0  0  0  0
  154.1996  139.9159  161.6095 H   0  0  0  0  0  0  0  0  0  0  0  0
  150.9511  143.2552  157.9467 H   0  0  0  0  0  0  0  0  0  0  0  0
  152.5370  142.8014  157.3524 H   0  0  0  0  0  0  0  0  0  0  0  0
  152.6933  140.8774  156.3398 H   0  0  0  0  0  0  0  0  0  0  0  0
  150.9106  138.2147  154.3426 H   0  0  0  0  0  0  0  0  0  0  0  0
  151.9984  139.5867  154.1445 H   0  0  0  0  0  0  0  0  0  0  0  0
  150.3079  139.8519  154.5617 H   0  0  0  0  0  0  0  0  0  0  0  0
  151.0130  145.1729  161.1957 H   0  0  0  0  0  0  0  0  0  0  0  0
  150.1660  144.3508  159.8881 H   0  0  0  0  0  0  0  0  0  0  0  0
  151.5697  145.3613  159.5347 H   0  0  0  0  0  0  0  0  0  0  0  0
  1  2  1  0  0  0  0
  1 19  1  0  0  0  0
  1 20  1  0  0  0  0
  1 21  1  0  0  0  0
  2 16  1  0  0  0  0
  2  3  2  0  0  0  0
  3  4  1  0  0  0  0
  4  5  1  0  0  0  0
  4 14  1  0  0  0  0
  5  6  1  0  0  0  0
  5 22  1  0  0  0  0
  5 23  1  0  0  0  0
  6  7  2  0  0  0  0
  6  8  1  0  0  0  0
  8  9  1  0  0  0  0
  8 24  1  0  0  0  0
  9 18  1  0  0  0  0
  9 10  1  0  0  0  0
  9 11  1  0  0  0  0
 10 25  1  0  0  0  0
 10 26  1  0  0  0  0
 10 27  1  0  0  0  0
 11 12  2  0  0  0  0
 11 13  1  0  0  0  0
 14 15  1  0  0  0  0
 14 16  2  0  0  0  0
 15 28  1  0  0  0  0
 15 29  1  0  0  0  0
 15 30  1  0  0  0  0
 16 17  1  0  0  0  0
M  CHG  1  13  -1
M  END
> <s_m_source_file>
AV-unprocessed.smi

> <i_m_source_file_index>
2932

> <i_lp_mmshare_version>
43012

> <i_f3d_flags>
0

> <s_epik_input>
W0NIM11jMW5uKGMoW0NIM10pYzFDbClbQ0gyXUMoPU8pW05IXVtDQEhdKFtDSDNdKUMoPU8pW09IXQ==

> <s_epik_cmdline>
J2VwaWtfcHl0aG9uJywgJy1waCcsICc3LjAnLCAnLXRuJywgJzgnLCAnLW1hJywgJzIwMCcsICctbWV0YWxfYmluZGluZycsICctaW1hZScsICc8aW5maWxlLm1hZT4nLCAnLW9tYWUnLCAnPG91dGZpbGUubWFlPic=

> <r_lp_tautomer_probability>
1

> <r_epik_Ionization_Penalty>
0.000148999

> <r_epik_Ionization_Penalty_Charging>
0.000144005

> <r_epik_Ionization_Penalty_Neutral>
4.99331e-06

> <r_epik_State_Penalty>
-0

> <r_epik_Charging_Adjusted_Penalty>
0.000144005

> <i_epik_Tot_Q>
-1

> <i_epik_Tot_abs_Q>
1

> <r_epik_Metal_State_Penalty>
-0

> <b_epik_Metal_Only>
0

> <s_lp_Force_Field>
OPLS_2005

> <r_lp_Energy>
1.5608

> <b_lp_Chiralities_Consistent>
1

> <s_lp_Variant>
AV-unprocessed.smi:2932-2

> <Gold.Version>
5.8.1

> <Gold.Id.Protein>
6NUR|6NUR_protein|mol2

> <Gold.PLP.Fitness>
47.5459

> <Gold.PLP.PLP>
-35.9476

> <Gold.PLP.part.hbond>
-2.0000

> <Gold.PLP.part.metal>
0.0000

> <Gold.PLP.part.buried>
-3.3658

> <Gold.PLP.part.nonpolar>
-30.2621

> <Gold.PLP.part.repulsive>
0.1408

> <Gold.PLP.ligand.clash>
0.0000

> <Gold.PLP.ligand.torsion>
0.2299

> <Gold.PLP.Chemscore.Hbond>
4.0000

> <Gold.PLP.Chemscore.CHOScore>
0.0000

> <Gold.PLP.Chemscore.Metal>
0.0000

> <Gold.Chemscore.Hbonds>
donor molecule, donor type, donor heavy atom, donor atom, acceptor molecule, acceptor atom, score
      P1  H  7997  8010       L1    13  1.95
      P1  H 10752 10765       L1    12  1.86

> <Gold.PLP.Chemscore.Internal.Correction>
0.0582

> <Gold.Rescore>
     Score         DG    S(hbond)    S(metal)    S(lipo)     H(rot)  DE(clash)    DE(int)     intcor
     16.08     -16.83       1.86        0.00      90.91       2.15       0.49       0.26       ----

> <Gold.Chemscore.Fitness>
16.0796

> <Gold.Chemscore.DG>
-16.8299

> <Gold.Chemscore.ZeroCoef>
-5.4800

> <Gold.Chemscore.Hbond>
1.8647

> <Gold.Chemscore.Metal>
0.0000

> <Gold.Chemscore.Lipo>
90.9104

> <Gold.Chemscore.Internal_Hbond>
0.0000

> <Gold.Chemscore.DEClash>
0.4937

> <Gold.Chemscore.DEInternal>
0.2566

> <Gold.Chemscore.Rot>
2.1542

> <Gold.Chemscore.Internal.Correction>
   9.000000E+99

> <Gold.Chemscore.Hbonds>
donor molecule, donor type, donor heavy atom, donor atom, acceptor molecule, acceptor atom, score
      P1  H  7997  8010       L1    13  0.93
      P1  H 10752 10765       L1    12  0.90

> <Gold.Chemscore.Hbond.Weighted>
-6.2280

> <Gold.Chemscore.Metal.Weighted>
-0.0000

> <Gold.Chemscore.Lipo.Weighted>
-10.6365

> <Gold.Chemscore.Internal_Hbond.Weighted>
0.0000

> <Gold.Chemscore.DEClash.Weighted>
0.4937

> <Gold.Chemscore.DEInternal.Weighted>
0.2566

> <Gold.Chemscore.Rot.Weighted>
5.5146

> <Gold.Chemscore.Internal.Correction.Weighted>
   9.000000E+99

> <Gold.Protein.RotatedTorsions>
[ 6907 6896 6895 6894 ] final -178.79 input  -60.11 | X-H torsion
[ 7974 7965 7964 7962 ] final  -85.45 input  175.53 | X-H torsion
[ 8008 7997 7996 7995 ] final   43.00 input   59.86 | X-H torsion
[ 10167 10162 10161 10158 ] final  122.49 input  -65.29 | X-H torsion
[ 10718 10713 10712 10709 ] final   14.12 input   66.30 | X-H torsion
[ 10763 10752 10751 10750 ] final -145.66 input  -60.55 | X-H torsion
[ 11005 11000 10999 10996 ] final   97.14 input  -57.11 | X-H torsion

> <Gold.Protein.ActiveResidues>
 VAL166  LYS551  ARG553  GLY616  TRP617  ASP618  TYR619  PRO620  LYS621  CYS622 
 ASP623  PHE694  ASN695  SER759  ASP760  ASP761  ALA762  ILE779  LEU786  VAL792 
 PHE793  MET794  SER795  GLU796  ALA797  LYS798  CYS799  TRP800  GLU811  SER814 

> <Gold.Protein.RotatedAtoms>
  151.6430  133.3325  159.3134 H   0  0  0  0  0  0  0  0  0  0  0  0  # atno 6907 bound_to 6896
  150.7998  134.7088  159.6601 H   0  0  0  0  0  0  0  0  0  0  0  0  # atno 6908 bound_to 6896
  152.4090  134.6162  160.0090 H   0  0  0  0  0  0  0  0  0  0  0  0  # atno 6909 bound_to 6896
  145.4930  140.9551  143.1801 H   0  0  0  0  0  0  0  0  0  0  0  0  # atno 7974 bound_to 7965
  155.2955  140.3381  155.4250 H   0  0  0  0  0  0  0  0  0  0  0  0  # atno 8008 bound_to 7997
  156.2026  140.1739  156.7907 H   0  0  0  0  0  0  0  0  0  0  0  0  # atno 8009 bound_to 7997
  154.5579  140.0693  156.8756 H   0  0  0  0  0  0  0  0  0  0  0  0  # atno 8010 bound_to 7997
  139.5855  144.7005  151.3419 H   0  0  0  0  0  0  0  0  0  0  0  0  # atno 10167 bound_to 10162
  157.0346  130.6206  149.5741 H   0  0  0  0  0  0  0  0  0  0  0  0  # atno 10718 bound_to 10713
  154.8373  135.3407  154.6539 H   0  0  0  0  0  0  0  0  0  0  0  0  # atno 10763 bound_to 10752
  153.7153  135.6961  153.5031 H   0  0  0  0  0  0  0  0  0  0  0  0  # atno 10764 bound_to 10752
  153.2422  135.4381  155.0663 H   0  0  0  0  0  0  0  0  0  0  0  0  # atno 10765 bound_to 10752
  139.8777  134.8986  156.4263 H   0  0  0  0  0  0  0  0  0  0  0  0  # atno 11005 bound_to 11000
  144.7823  139.6500  143.7149 LP  0  0  0  0  0  0  0  0  0  0  0  0  # atno 17320 bound_to 7965
  146.2272  139.5745  142.9579 LP  0  0  0  0  0  0  0  0  0  0  0  0  # atno 17321 bound_to 7965
  140.7128  143.7346  150.7598 LP  0  0  0  0  0  0  0  0  0  0  0  0  # atno 17342 bound_to 10162
  140.0890  143.4896  152.2489 LP  0  0  0  0  0  0  0  0  0  0  0  0  # atno 17343 bound_to 10162
  156.0058  130.5144  150.7825 LP  0  0  0  0  0  0  0  0  0  0  0  0  # atno 17370 bound_to 10713
  157.5152  131.0928  151.0149 LP  0  0  0  0  0  0  0  0  0  0  0  0  # atno 17371 bound_to 10713
  140.9098  133.7720  155.9778 LP  0  0  0  0  0  0  0  0  0  0  0  0  # atno 17394 bound_to 11000
  140.8559  134.2899  157.5256 LP  0  0  0  0  0  0  0  0  0  0  0  0  # atno 17395 bound_to 11000

$$$$
