AV-unprocessed.smi:861|AV-procd|sdf|3969|dock6
  -GOLD-   22720 1443D 1   1.00000     0.00000
 Structure written by MMmdl.
 44 45  0  0  0  0  0  0  0  0  2 V2000
  143.8573  132.7321  149.0198 C   0  0  0  0  0  0  0  0  0  0  0  0
  144.1791  132.4810  150.5033 C   0  0  0  0  0  0  0  0  0  0  0  0
  143.8261  133.7211  151.3396 C   0  0  0  0  0  0  0  0  0  0  0  0
  145.6496  132.0699  150.7284 C   0  0  0  0  0  0  0  0  0  0  0  0
  145.9216  131.4518  152.1144 C   0  0  0  0  0  0  0  0  0  0  0  0
  147.0100  130.4418  152.0877 N   0  3  2  0  0  0  0  0  0  0  0  0
  146.5081  129.0855  151.7621 C   0  0  0  0  0  0  0  0  0  0  0  0
  147.6708  128.0829  151.6911 C   0  0  0  0  0  0  0  0  0  0  0  0
  148.3821  128.0954  152.9217 O   0  0  0  0  0  0  0  0  0  0  0  0
  148.9600  129.3674  153.1974 C   0  0  2  0  0  0  0  0  0  0  0  0
  149.7796  129.2548  154.4904 C   0  0  0  0  0  0  0  0  0  0  0  0
  151.1645  128.8949  154.2186 N   0  0  0  0  0  0  0  0  0  0  0  0
  152.2159  129.5479  154.8754 C   0  0  0  0  0  0  0  0  0  0  0  0
  153.5366  129.3253  154.4373 C   0  0  0  0  0  0  0  0  0  0  0  0
  154.5700  129.9986  155.1116 C   0  0  0  0  0  0  0  0  0  0  0  0
  154.2032  130.8442  156.1745 C   0  0  0  0  0  0  0  0  0  0  0  0
  152.9173  131.0207  156.5537 N   0  0  0  0  0  0  0  0  0  0  0  0
  151.9349  130.3791  155.9107 N   0  0  0  0  0  0  0  0  0  0  0  0
  147.8259  130.4035  153.3274 C   0  0  0  0  0  0  0  0  0  0  0  0
  144.4935  133.5137  148.6030 H   0  0  0  0  0  0  0  0  0  0  0  0
  142.8215  133.0484  148.8932 H   0  0  0  0  0  0  0  0  0  0  0  0
  143.9910  131.8355  148.4156 H   0  0  0  0  0  0  0  0  0  0  0  0
  143.5419  131.6673  150.8522 H   0  0  0  0  0  0  0  0  0  0  0  0
  144.4333  134.5798  151.0514 H   0  0  0  0  0  0  0  0  0  0  0  0
  143.9877  133.5402  152.4027 H   0  0  0  0  0  0  0  0  0  0  0  0
  142.7787  133.9966  151.2121 H   0  0  0  0  0  0  0  0  0  0  0  0
  145.9576  131.3751  149.9457 H   0  0  0  0  0  0  0  0  0  0  0  0
  146.2720  132.9558  150.6065 H   0  0  0  0  0  0  0  0  0  0  0  0
  146.1522  132.2279  152.8459 H   0  0  0  0  0  0  0  0  0  0  0  0
  145.0134  130.9604  152.4623 H   0  0  0  0  0  0  0  0  0  0  0  0
  145.7891  128.7703  152.5202 H   0  0  0  0  0  0  0  0  0  0  0  0
  145.9816  129.1017  150.8070 H   0  0  0  0  0  0  0  0  0  0  0  0
  147.2897  127.0770  151.5127 H   0  0  0  0  0  0  0  0  0  0  0  0
  148.3425  128.3205  150.8647 H   0  0  0  0  0  0  0  0  0  0  0  0
  149.6223  129.6578  152.3793 H   0  0  0  0  0  0  0  0  0  0  0  0
  149.7690  130.2134  155.0110 H   0  0  0  0  0  0  0  0  0  0  0  0
  149.3318  128.5192  155.1600 H   0  0  0  0  0  0  0  0  0  0  0  0
  151.3599  128.1126  153.6108 H   0  0  0  0  0  0  0  0  0  0  0  0
  153.7529  128.6627  153.6121 H   0  0  0  0  0  0  0  0  0  0  0  0
  155.6035  129.8725  154.8254 H   0  0  0  0  0  0  0  0  0  0  0  0
  154.9523  131.3889  156.7302 H   0  0  0  0  0  0  0  0  0  0  0  0
  148.2610  131.3823  153.5252 H   0  0  0  0  0  0  0  0  0  0  0  0
  147.1873  130.1596  154.1783 H   0  0  0  0  0  0  0  0  0  0  0  0
  147.6290  130.7035  151.3335 H   0  0  0  0  0  0  0  0  0  0  0  0
  1  2  1  0  0  0  0
  1 20  1  0  0  0  0
  1 21  1  0  0  0  0
  1 22  1  0  0  0  0
  2  3  1  0  0  0  0
  2  4  1  0  0  0  0
  2 23  1  0  0  0  0
  3 24  1  0  0  0  0
  3 25  1  0  0  0  0
  3 26  1  0  0  0  0
  4  5  1  0  0  0  0
  4 27  1  0  0  0  0
  4 28  1  0  0  0  0
  5  6  1  0  0  0  0
  5 29  1  0  0  0  0
  5 30  1  0  0  0  0
  6 19  1  0  0  0  0
  6  7  1  0  0  0  0
  6 44  1  0  0  0  0
  7  8  1  0  0  0  0
  7 31  1  0  0  0  0
  7 32  1  0  0  0  0
  8  9  1  0  0  0  0
  8 33  1  0  0  0  0
  8 34  1  0  0  0  0
  9 10  1  0  0  0  0
 10 11  1  0  0  0  0
 10 19  1  0  0  0  0
 10 35  1  0  0  0  0
 11 12  1  0  0  0  0
 11 36  1  0  0  0  0
 11 37  1  0  0  0  0
 12 13  1  0  0  0  0
 12 38  1  0  0  0  0
 13 18  1  0  0  0  0
 13 14  2  0  0  0  0
 14 15  1  0  0  0  0
 14 39  1  0  0  0  0
 15 16  2  0  0  0  0
 15 40  1  0  0  0  0
 16 17  1  0  0  0  0
 16 41  1  0  0  0  0
 17 18  2  0  0  0  0
 19 42  1  0  0  0  0
 19 43  1  0  0  0  0
M  CHG  1   6   1
M  END
> <s_m_source_file>
AV-unprocessed.smi

> <i_m_source_file_index>
861

> <i_lp_mmshare_version>
43012

> <i_f3d_flags>
0

> <s_epik_input>
W0NIM11bQ0hdKFtDSDNdKVtDSDJdW0NIMl1OMVtDSDJdW0NIMl1PW0NASF0oW0NIMl0xKVtDSDJdW05IXWMyW2NIXVtjSF1bY0hdbm4y

> <s_epik_cmdline>
J2VwaWtfcHl0aG9uJywgJy1waCcsICc3LjAnLCAnLXRuJywgJzgnLCAnLW1hJywgJzIwMCcsICctbWV0YWxfYmluZGluZycsICctaW1hZScsICc8aW5maWxlLm1hZT4nLCAnLW9tYWUnLCAnPG91dGZpbGUubWFlPic=

> <r_lp_tautomer_probability>
0.999978

> <r_epik_Ionization_Penalty>
0.114704

> <r_epik_Ionization_Penalty_Charging>
0.0953451

> <r_epik_Ionization_Penalty_Neutral>
0.0193593

> <r_epik_State_Penalty>
0.104983

> <r_epik_Charging_Adjusted_Penalty>
0.200328

> <i_epik_Tot_Q>
1

> <i_epik_Tot_abs_Q>
1

> <r_epik_Metal_State_Penalty>
0.100113

> <b_epik_Metal_Only>
0

> <s_lp_Force_Field>
OPLS_2005

> <r_lp_Energy>
25.0457

> <b_lp_Chiralities_Consistent>
1

> <s_lp_Variant>
AV-unprocessed.smi:861-4

> <Gold.Version>
5.8.1

> <Gold.Id.Protein>
6NUR|6NUR_protein|mol2

> <Gold.PLP.Fitness>
43.1543

> <Gold.PLP.PLP>
-39.8382

> <Gold.PLP.part.hbond>
-2.0000

> <Gold.PLP.part.metal>
0.0000

> <Gold.PLP.part.buried>
-5.3020

> <Gold.PLP.part.nonpolar>
-31.5618

> <Gold.PLP.part.repulsive>
0.2023

> <Gold.PLP.ligand.clash>
0.0000

> <Gold.PLP.ligand.torsion>
1.1880

> <Gold.PLP.Chemscore.Hbond>
1.8640

> <Gold.PLP.Chemscore.CHOScore>
0.0000

> <Gold.PLP.Chemscore.Metal>
0.0000

> <Gold.Chemscore.Hbonds>
donor molecule, donor type, donor heavy atom, donor atom, acceptor molecule, acceptor atom, score
      L1  H     6    44       P1 10747  1.00
      L1  H    12    38       P1 10737  0.78

> <Gold.PLP.Chemscore.Internal.Correction>
0.1001

> <Gold.Rescore>
     Score         DG    S(hbond)    S(metal)    S(lipo)     H(rot)  DE(clash)    DE(int)     intcor
     18.02     -19.43       1.96        0.00     100.64       1.71       0.04       1.37       ----

> <Gold.Chemscore.Fitness>
18.0204

> <Gold.Chemscore.DG>
-19.4300

> <Gold.Chemscore.ZeroCoef>
-5.4800

> <Gold.Chemscore.Hbond>
1.9638

> <Gold.Chemscore.Metal>
0.0000

> <Gold.Chemscore.Lipo>
100.6424

> <Gold.Chemscore.Internal_Hbond>
0.0000

> <Gold.Chemscore.DEClash>
0.0411

> <Gold.Chemscore.DEInternal>
1.3684

> <Gold.Chemscore.Rot>
1.7127

> <Gold.Chemscore.Internal.Correction>
   9.000000E+99

> <Gold.Chemscore.Hbonds>
donor molecule, donor type, donor heavy atom, donor atom, acceptor molecule, acceptor atom, score
      L1  H     6    44       P1 10747  1.00
      L1  H    12    38       P1 10737  0.73

> <Gold.Chemscore.Hbond.Weighted>
-6.5592

> <Gold.Chemscore.Metal.Weighted>
-0.0000

> <Gold.Chemscore.Lipo.Weighted>
-11.7752

> <Gold.Chemscore.Internal_Hbond.Weighted>
0.0000

> <Gold.Chemscore.DEClash.Weighted>
0.0411

> <Gold.Chemscore.DEInternal.Weighted>
1.3684

> <Gold.Chemscore.Rot.Weighted>
4.3844

> <Gold.Chemscore.Internal.Correction.Weighted>
   9.000000E+99

> <Gold.Protein.RotatedTorsions>
[ 6907 6896 6895 6894 ] final    6.49 input  -60.11 | X-H torsion
[ 7974 7965 7964 7962 ] final  157.55 input  175.53 | X-H torsion
[ 8008 7997 7996 7995 ] final   86.33 input   59.86 | X-H torsion
[ 10167 10162 10161 10158 ] final -176.86 input  -65.29 | X-H torsion
[ 10718 10713 10712 10709 ] final   50.76 input   66.30 | X-H torsion
[ 10763 10752 10751 10750 ] final  142.33 input  -60.55 | X-H torsion
[ 11005 11000 10999 10996 ] final  117.44 input  -57.11 | X-H torsion

> <Gold.Protein.ActiveResidues>
 VAL166  LYS551  ARG553  GLY616  TRP617  ASP618  TYR619  PRO620  LYS621  CYS622 
 ASP623  PHE694  ASN695  SER759  ASP760  ASP761  ALA762  ILE779  LEU786  VAL792 
 PHE793  MET794  SER795  GLU796  ALA797  LYS798  CYS799  TRP800  GLU811  SER814 

> <Gold.Protein.RotatedAtoms>
  151.6745  135.0971  160.0203 H   0  0  0  0  0  0  0  0  0  0  0  0  # atno 6907 bound_to 6896
  152.3872  133.6623  159.6217 H   0  0  0  0  0  0  0  0  0  0  0  0  # atno 6908 bound_to 6896
  150.7795  133.8932  159.3360 H   0  0  0  0  0  0  0  0  0  0  0  0  # atno 6909 bound_to 6896
  144.7897  139.7356  143.6226 H   0  0  0  0  0  0  0  0  0  0  0  0  # atno 7974 bound_to 7965
  155.9614  140.3393  155.6494 H   0  0  0  0  0  0  0  0  0  0  0  0  # atno 8008 bound_to 7997
  155.6793  140.0736  157.2509 H   0  0  0  0  0  0  0  0  0  0  0  0  # atno 8009 bound_to 7997
  154.4144  140.1677  156.1953 H   0  0  0  0  0  0  0  0  0  0  0  0  # atno 8010 bound_to 7997
  139.5508  144.2114  152.1074 H   0  0  0  0  0  0  0  0  0  0  0  0  # atno 10167 bound_to 10162
  157.4916  130.8379  149.8209 H   0  0  0  0  0  0  0  0  0  0  0  0  # atno 10718 bound_to 10713
  153.9539  135.2967  155.3437 H   0  0  0  0  0  0  0  0  0  0  0  0  # atno 10763 bound_to 10752
  154.7411  135.5024  153.9128 H   0  0  0  0  0  0  0  0  0  0  0  0  # atno 10764 bound_to 10752
  153.0980  135.6726  153.9835 H   0  0  0  0  0  0  0  0  0  0  0  0  # atno 10765 bound_to 10752
  139.9074  134.9610  156.7351 H   0  0  0  0  0  0  0  0  0  0  0  0  # atno 11005 bound_to 11000
  146.2143  139.5522  142.9660 LP  0  0  0  0  0  0  0  0  0  0  0  0  # atno 17320 bound_to 7965
  145.5828  141.0380  143.2113 LP  0  0  0  0  0  0  0  0  0  0  0  0  # atno 17321 bound_to 7965
  140.1609  144.5027  150.6633 LP  0  0  0  0  0  0  0  0  0  0  0  0  # atno 17342 bound_to 10162
  140.6770  143.2309  151.5481 LP  0  0  0  0  0  0  0  0  0  0  0  0  # atno 17343 bound_to 10162
  156.0176  130.3807  150.2060 LP  0  0  0  0  0  0  0  0  0  0  0  0  # atno 17370 bound_to 10713
  157.0249  130.9990  151.3329 LP  0  0  0  0  0  0  0  0  0  0  0  0  # atno 17371 bound_to 10713
  140.6894  133.9403  155.7957 LP  0  0  0  0  0  0  0  0  0  0  0  0  # atno 17394 bound_to 11000
  141.0452  134.0563  157.3852 LP  0  0  0  0  0  0  0  0  0  0  0  0  # atno 17395 bound_to 11000

$$$$
