AV-unprocessed.smi:1053|AV-procd|sdf|4620|dock2
  -GOLD-   22720 3123D 1   1.00000     0.00000
 Structure written by MMmdl.
 38 39  0  0  0  0  0  0  0  0  2 V2000
  147.1260  140.6565  153.5717 C   0  0  0  0  0  0  0  0  0  0  0  0
  147.5141  139.3379  152.8878 C   0  0  0  0  0  0  0  0  0  0  0  0
  148.5801  138.6095  153.6198 N   0  3  2  0  0  0  0  0  0  0  0  0
  148.0430  137.8023  154.7408 C   0  0  0  0  0  0  0  0  0  0  0  0
  149.1753  137.0338  155.4405 C   0  0  0  0  0  0  0  0  0  0  0  0
  150.1639  137.9522  155.8873 O   0  0  0  0  0  0  0  0  0  0  0  0
  150.7665  138.6649  154.8113 C   0  0  2  0  0  0  0  0  0  0  0  0
  151.8644  139.5665  155.3913 C   0  0  0  0  0  0  0  0  0  0  0  0
  151.3134  140.5998  156.2550 N   0  0  0  0  0  0  0  0  0  0  0  0
  151.9086  141.0245  157.4274 C   0  0  0  0  0  0  0  0  0  0  0  0
  152.8007  140.2177  158.0129 N   0  0  0  0  0  0  0  0  0  0  0  0
  153.3734  140.6614  159.1525 C   0  0  0  0  0  0  0  0  0  0  0  0
  153.0505  141.9163  159.7054 C   0  0  0  0  0  0  0  0  0  0  0  0
  152.0930  142.6825  159.0036 C   0  0  0  0  0  0  0  0  0  0  0  0
  151.6450  144.0548  159.4841 C   0  0  0  0  0  0  0  0  0  0  0  0
  150.3141  144.0958  159.5473 F   0  0  0  0  0  0  0  0  0  0  0  0
  152.1347  144.3347  160.6926 F   0  0  0  0  0  0  0  0  0  0  0  0
  152.0648  144.9894  158.6312 F   0  0  0  0  0  0  0  0  0  0  0  0
  151.5257  142.2265  157.8621 N   0  0  0  0  0  0  0  0  0  0  0  0
  149.6772  139.4883  154.0960 C   0  0  0  0  0  0  0  0  0  0  0  0
  146.4035  141.2033  152.9652 H   0  0  0  0  0  0  0  0  0  0  0  0
  147.9950  141.3005  153.7091 H   0  0  0  0  0  0  0  0  0  0  0  0
  146.6689  140.4934  154.5473 H   0  0  0  0  0  0  0  0  0  0  0  0
  146.6398  138.6973  152.7619 H   0  0  0  0  0  0  0  0  0  0  0  0
  147.8698  139.5755  151.8843 H   0  0  0  0  0  0  0  0  0  0  0  0
  147.5392  138.4564  155.4545 H   0  0  0  0  0  0  0  0  0  0  0  0
  147.2978  137.0980  154.3692 H   0  0  0  0  0  0  0  0  0  0  0  0
  148.7841  136.4894  156.3002 H   0  0  0  0  0  0  0  0  0  0  0  0
  149.6201  136.2956  154.7712 H   0  0  0  0  0  0  0  0  0  0  0  0
  151.2129  137.9617  154.1053 H   0  0  0  0  0  0  0  0  0  0  0  0
  152.5605  138.9678  155.9802 H   0  0  0  0  0  0  0  0  0  0  0  0
  152.4385  140.0268  154.5859 H   0  0  0  0  0  0  0  0  0  0  0  0
  150.4838  141.0898  155.9536 H   0  0  0  0  0  0  0  0  0  0  0  0
  154.0945  140.0114  159.6253 H   0  0  0  0  0  0  0  0  0  0  0  0
  153.5146  142.2638  160.6164 H   0  0  0  0  0  0  0  0  0  0  0  0
  150.1238  140.0200  153.2560 H   0  0  0  0  0  0  0  0  0  0  0  0
  149.2716  140.2425  154.7725 H   0  0  0  0  0  0  0  0  0  0  0  0
  148.9849  137.9541  152.9666 H   0  0  0  0  0  0  0  0  0  0  0  0
  1  2  1  0  0  0  0
  1 21  1  0  0  0  0
  1 22  1  0  0  0  0
  1 23  1  0  0  0  0
  2  3  1  0  0  0  0
  2 24  1  0  0  0  0
  2 25  1  0  0  0  0
  3 20  1  0  0  0  0
  3  4  1  0  0  0  0
  3 38  1  0  0  0  0
  4  5  1  0  0  0  0
  4 26  1  0  0  0  0
  4 27  1  0  0  0  0
  5  6  1  0  0  0  0
  5 28  1  0  0  0  0
  5 29  1  0  0  0  0
  6  7  1  0  0  0  0
  7  8  1  0  0  0  0
  7 20  1  0  0  0  0
  7 30  1  0  0  0  0
  8  9  1  0  0  0  0
  8 31  1  0  0  0  0
  8 32  1  0  0  0  0
  9 10  1  0  0  0  0
  9 33  1  0  0  0  0
 10 19  1  0  0  0  0
 10 11  2  0  0  0  0
 11 12  1  0  0  0  0
 12 13  2  0  0  0  0
 12 34  1  0  0  0  0
 13 14  1  0  0  0  0
 13 35  1  0  0  0  0
 14 15  1  0  0  0  0
 14 19  2  0  0  0  0
 15 16  1  0  0  0  0
 15 17  1  0  0  0  0
 15 18  1  0  0  0  0
 20 36  1  0  0  0  0
 20 37  1  0  0  0  0
M  CHG  1   3   1
M  END
> <s_m_source_file>
AV-unprocessed.smi

> <i_m_source_file_index>
1053

> <i_lp_mmshare_version>
43012

> <i_f3d_flags>
0

> <s_epik_input>
W0NIM11bQ0gyXU4xW0NIMl1bQ0gyXU9bQ0BIXShbQ0gyXTEpW0NIMl1bTkhdYzJuW2NIXVtjSF1jKG4yKUMoRikoRilG

> <s_epik_cmdline>
J2VwaWtfcHl0aG9uJywgJy1waCcsICc3LjAnLCAnLXRuJywgJzgnLCAnLW1hJywgJzIwMCcsICctbWV0YWxfYmluZGluZycsICctaW1hZScsICc8aW5maWxlLm1hZT4nLCAnLW9tYWUnLCAnPG91dGZpbGUubWFlPic=

> <r_lp_tautomer_probability>
1

> <r_epik_Ionization_Penalty>
0.178506

> <r_epik_Ionization_Penalty_Charging>
0.178504

> <r_epik_Ionization_Penalty_Neutral>
2.47619e-06

> <r_epik_State_Penalty>
0.167974

> <r_epik_Charging_Adjusted_Penalty>
0.346478

> <i_epik_Tot_Q>
1

> <i_epik_Tot_abs_Q>
1

> <r_epik_Metal_State_Penalty>
0.167974

> <b_epik_Metal_Only>
0

> <s_lp_Force_Field>
OPLS_2005

> <r_lp_Energy>
10.8481

> <b_lp_Chiralities_Consistent>
1

> <s_lp_Variant>
AV-unprocessed.smi:1053-4

> <Gold.Version>
5.8.1

> <Gold.Id.Protein>
6NUR|6NUR_protein|mol2

> <Gold.PLP.Fitness>
47.2478

> <Gold.PLP.PLP>
-39.5906

> <Gold.PLP.part.hbond>
-3.0000

> <Gold.PLP.part.metal>
0.0000

> <Gold.PLP.part.buried>
-0.3628

> <Gold.PLP.part.nonpolar>
-35.2944

> <Gold.PLP.part.repulsive>
0.2354

> <Gold.PLP.ligand.clash>
0.0000

> <Gold.PLP.ligand.torsion>
0.6239

> <Gold.PLP.Chemscore.Hbond>
2.9516

> <Gold.PLP.Chemscore.CHOScore>
0.0000

> <Gold.PLP.Chemscore.Metal>
0.0000

> <Gold.Chemscore.Hbonds>
donor molecule, donor type, donor heavy atom, donor atom, acceptor molecule, acceptor atom, score
      L1  H     3    38       P1  7948  2.00
      P1  H  7997  8008       L1    11  0.95

> <Gold.PLP.Chemscore.Internal.Correction>
0.0503

> <Gold.Rescore>
     Score         DG    S(hbond)    S(metal)    S(lipo)     H(rot)  DE(clash)    DE(int)     intcor
     13.83     -14.32       1.07        0.00      79.15       1.55       0.15       0.34       ----

> <Gold.Chemscore.Fitness>
13.8323

> <Gold.Chemscore.DG>
-14.3185

> <Gold.Chemscore.ZeroCoef>
-5.4800

> <Gold.Chemscore.Hbond>
1.0656

> <Gold.Chemscore.Metal>
0.0000

> <Gold.Chemscore.Lipo>
79.1458

> <Gold.Chemscore.Internal_Hbond>
0.0000

> <Gold.Chemscore.DEClash>
0.1467

> <Gold.Chemscore.DEInternal>
0.3395

> <Gold.Chemscore.Rot>
1.5549

> <Gold.Chemscore.Internal.Correction>
   9.000000E+99

> <Gold.Chemscore.Hbonds>
donor molecule, donor type, donor heavy atom, donor atom, acceptor molecule, acceptor atom, score
      L1  H     3    38       P1  7948  0.92
      P1  H  7997  8008       L1    11  0.15

> <Gold.Chemscore.Hbond.Weighted>
-3.5590

> <Gold.Chemscore.Metal.Weighted>
-0.0000

> <Gold.Chemscore.Lipo.Weighted>
-9.2601

> <Gold.Chemscore.Internal_Hbond.Weighted>
0.0000

> <Gold.Chemscore.DEClash.Weighted>
0.1467

> <Gold.Chemscore.DEInternal.Weighted>
0.3395

> <Gold.Chemscore.Rot.Weighted>
3.9806

> <Gold.Chemscore.Internal.Correction.Weighted>
   9.000000E+99

> <Gold.Protein.RotatedTorsions>
[ 6907 6896 6895 6894 ] final  -40.49 input  -60.11 | X-H torsion
[ 7974 7965 7964 7962 ] final  -25.28 input  175.53 | X-H torsion
[ 8008 7997 7996 7995 ] final  -71.05 input   59.86 | X-H torsion
[ 10167 10162 10161 10158 ] final  -91.17 input  -65.29 | X-H torsion
[ 10718 10713 10712 10709 ] final  -79.83 input   66.30 | X-H torsion
[ 10763 10752 10751 10750 ] final -104.08 input  -60.55 | X-H torsion
[ 11005 11000 10999 10996 ] final  135.34 input  -57.11 | X-H torsion

> <Gold.Protein.ActiveResidues>
 VAL166  LYS551  ARG553  GLY616  TRP617  ASP618  TYR619  PRO620  LYS621  CYS622 
 ASP623  PHE694  ASN695  SER759  ASP760  ASP761  ALA762  ILE779  LEU786  VAL792 
 PHE793  MET794  SER795  GLU796  ALA797  LYS798  CYS799  TRP800  GLU811  SER814 

> <Gold.Protein.RotatedAtoms>
  150.9779  134.9139  159.7826 H   0  0  0  0  0  0  0  0  0  0  0  0  # atno 6907 bound_to 6896
  152.5212  134.3451  159.9241 H   0  0  0  0  0  0  0  0  0  0  0  0  # atno 6908 bound_to 6896
  151.3459  133.3903  159.2710 H   0  0  0  0  0  0  0  0  0  0  0  0  # atno 6909 bound_to 6896
  146.1501  140.4864  142.8615 H   0  0  0  0  0  0  0  0  0  0  0  0  # atno 7974 bound_to 7965
  154.5058  140.0823  156.7891 H   0  0  0  0  0  0  0  0  0  0  0  0  # atno 8008 bound_to 7997
  155.3897  140.3432  155.4232 H   0  0  0  0  0  0  0  0  0  0  0  0  # atno 8009 bound_to 7997
  156.1514  140.1559  156.8751 H   0  0  0  0  0  0  0  0  0  0  0  0  # atno 8010 bound_to 7997
  140.3475  143.2908  151.9764 H   0  0  0  0  0  0  0  0  0  0  0  0  # atno 10167 bound_to 10162
  156.0083  130.4557  150.3709 H   0  0  0  0  0  0  0  0  0  0  0  0  # atno 10718 bound_to 10713
  154.7853  135.4799  153.9933 H   0  0  0  0  0  0  0  0  0  0  0  0  # atno 10763 bound_to 10752
  153.1552  135.6798  153.8831 H   0  0  0  0  0  0  0  0  0  0  0  0  # atno 10764 bound_to 10752
  153.8462  135.3173  155.3407 H   0  0  0  0  0  0  0  0  0  0  0  0  # atno 10765 bound_to 10752
  139.9973  134.9492  156.9993 H   0  0  0  0  0  0  0  0  0  0  0  0  # atno 11005 bound_to 11000
  144.7894  140.6001  143.6552 LP  0  0  0  0  0  0  0  0  0  0  0  0  # atno 17320 bound_to 7965
  145.4843  139.1493  143.3745 LP  0  0  0  0  0  0  0  0  0  0  0  0  # atno 17321 bound_to 7965
  139.4831  144.6104  151.7444 LP  0  0  0  0  0  0  0  0  0  0  0  0  # atno 17342 bound_to 10162
  140.5250  144.0820  150.6034 LP  0  0  0  0  0  0  0  0  0  0  0  0  # atno 17343 bound_to 10162
  157.1793  131.0388  151.2756 LP  0  0  0  0  0  0  0  0  0  0  0  0  # atno 17370 bound_to 10713
  157.4160  130.7411  149.6876 LP  0  0  0  0  0  0  0  0  0  0  0  0  # atno 17371 bound_to 10713
  140.4794  134.1305  155.7214 LP  0  0  0  0  0  0  0  0  0  0  0  0  # atno 17394 bound_to 11000
  141.1614  133.8785  157.1836 LP  0  0  0  0  0  0  0  0  0  0  0  0  # atno 17395 bound_to 11000

$$$$
