AV-unprocessed.smi:2682|AV-procd|sdf|10374|dock1
  -GOLD-   2272014403D 1   1.00000     0.00000
 Structure written by MMmdl.
 30 30  0  0  0  0  0  0  0  0  1 V2000
  153.1191  142.5415  162.5448 C   0  0  0  0  0  0  0  0  0  0  0  0
  152.0109  142.8392  161.7139 O   0  0  0  0  0  0  0  0  0  0  0  0
  152.1939  144.0363  160.9766 C   0  0  0  0  0  0  0  0  0  0  0  0
  151.3712  143.9631  159.6872 C   0  0  0  0  0  0  0  0  0  0  0  0
  151.2760  142.6097  159.2756 O   0  0  0  0  0  0  0  0  0  0  0  0
  152.5442  141.9857  159.1506 C   0  0  0  0  0  0  0  0  0  0  0  0
  152.4527  140.8768  158.1039 C   0  0  0  0  0  0  0  0  0  0  0  0
  153.1858  139.8946  158.2075 O   0  0  0  0  0  0  0  0  0  0  0  0
  151.5476  141.0792  157.1254 N   0  0  0  0  0  0  0  0  0  0  0  0
  151.2394  140.2879  156.0052 C   0  0  0  0  0  0  0  0  0  0  0  0
  151.9943  139.2549  155.5457 C   0  0  0  0  0  0  0  0  0  0  0  0
  151.5991  138.5039  154.3728 C   0  0  0  0  0  0  0  0  0  0  0  0
  150.4695  138.8576  153.7423 C   0  0  0  0  0  0  0  0  0  0  0  0
  149.6954  139.9230  154.2084 N   0  0  0  0  0  0  0  0  0  0  0  0
  150.0012  140.6670  155.2979 C   0  0  0  0  0  0  0  0  0  0  0  0
  149.2657  141.5920  155.6413 O   0  0  0  0  0  0  0  0  0  0  0  0
  152.9312  141.6160  163.0887 H   0  0  0  0  0  0  0  0  0  0  0  0
  153.2882  143.3333  163.2757 H   0  0  0  0  0  0  0  0  0  0  0  0
  154.0278  142.4081  161.9564 H   0  0  0  0  0  0  0  0  0  0  0  0
  151.8541  144.8815  161.5771 H   0  0  0  0  0  0  0  0  0  0  0  0
  153.2483  144.1991  160.7474 H   0  0  0  0  0  0  0  0  0  0  0  0
  150.3818  144.3970  159.8393 H   0  0  0  0  0  0  0  0  0  0  0  0
  151.8674  144.5423  158.9072 H   0  0  0  0  0  0  0  0  0  0  0  0
  153.2994  142.7089  158.8386 H   0  0  0  0  0  0  0  0  0  0  0  0
  152.8569  141.5676  160.1090 H   0  0  0  0  0  0  0  0  0  0  0  0
  150.9836  141.9126  157.2144 H   0  0  0  0  0  0  0  0  0  0  0  0
  152.9159  138.9643  156.0219 H   0  0  0  0  0  0  0  0  0  0  0  0
  152.1993  137.6804  154.0148 H   0  0  0  0  0  0  0  0  0  0  0  0
  150.0809  138.3701  152.8604 H   0  0  0  0  0  0  0  0  0  0  0  0
  148.8567  140.1420  153.6903 H   0  0  0  0  0  0  0  0  0  0  0  0
  1  2  1  0  0  0  0
  1 17  1  0  0  0  0
  1 18  1  0  0  0  0
  1 19  1  0  0  0  0
  2  3  1  0  0  0  0
  3  4  1  0  0  0  0
  3 20  1  0  0  0  0
  3 21  1  0  0  0  0
  4  5  1  0  0  0  0
  4 22  1  0  0  0  0
  4 23  1  0  0  0  0
  5  6  1  0  0  0  0
  6  7  1  0  0  0  0
  6 24  1  0  0  0  0
  6 25  1  0  0  0  0
  7  8  2  0  0  0  0
  7  9  1  0  0  0  0
  9 26  1  0  0  0  0
  9 10  1  0  0  0  0
 10 11  2  0  0  0  0
 10 15  1  0  0  0  0
 11 12  1  0  0  0  0
 11 27  1  0  0  0  0
 12 13  2  0  0  0  0
 12 28  1  0  0  0  0
 13 14  1  0  0  0  0
 13 29  1  0  0  0  0
 14 15  1  0  0  0  0
 14 30  1  0  0  0  0
 15 16  2  0  0  0  0
M  END
> <s_m_source_file>
AV-unprocessed.smi

> <i_m_source_file_index>
2682

> <i_lp_mmshare_version>
43012

> <i_f3d_flags>
0

> <s_epik_input>
W0NIM11PW0NIMl1bQ0gyXU9bQ0gyXUMoPU8pW05IXWMxW2NIXVtjSF1bY0hdbmMxW09IXQ==

> <s_epik_cmdline>
J2VwaWtfcHl0aG9uJywgJy1waCcsICc3LjAnLCAnLXRuJywgJzgnLCAnLW1hJywgJzIwMCcsICctbWV0YWxfYmluZGluZycsICctaW1hZScsICc8aW5maWxlLm1hZT4nLCAnLW9tYWUnLCAnPG91dGZpbGUubWFlPic=

> <r_lp_tautomer_probability>
1

> <r_epik_Ionization_Penalty>
0.000101939

> <r_epik_Ionization_Penalty_Charging>
0.000101884

> <r_epik_Ionization_Penalty_Neutral>
5.41789e-08

> <r_epik_State_Penalty>
-0

> <r_epik_Charging_Adjusted_Penalty>
0.000101884

> <i_epik_Tot_Q>
0

> <i_epik_Tot_abs_Q>
0

> <r_epik_Metal_State_Penalty>
0.0807852

> <b_epik_Metal_Only>
0

> <s_lp_Force_Field>
OPLS_2005

> <r_lp_Energy>
15.1735

> <b_lp_Chiralities_Consistent>
1

> <s_lp_Variant>
AV-unprocessed.smi:2682-1

> <Gold.Version>
5.8.1

> <Gold.Id.Protein>
6NUR|6NUR_protein|mol2

> <Gold.PLP.Fitness>
39.9352

> <Gold.PLP.PLP>
-33.0331

> <Gold.PLP.part.hbond>
-2.6229

> <Gold.PLP.part.metal>
0.0000

> <Gold.PLP.part.buried>
-4.7012

> <Gold.PLP.part.nonpolar>
-25.5622

> <Gold.PLP.part.repulsive>
0.4925

> <Gold.PLP.ligand.clash>
0.0000

> <Gold.PLP.ligand.torsion>
0.9310

> <Gold.PLP.Chemscore.Hbond>
1.2574

> <Gold.PLP.Chemscore.CHOScore>
1.6036

> <Gold.PLP.Chemscore.Metal>
0.0000

> <Gold.Chemscore.Hbonds>
donor molecule, donor type, donor heavy atom, donor atom, acceptor molecule, acceptor atom, score
      P1  H  6933  6945       L1     2  0.24
      P1  H  7997  8009       L1     8  1.00
      L1  C    13    29       P1  7948  0.92
      L1  C    13    29       P1  7957  0.60

> <Gold.PLP.Chemscore.Internal.Correction>
0.1810

> <Gold.Rescore>
     Score         DG    S(hbond)    S(metal)    S(lipo)     H(rot)  DE(clash)    DE(int)     intcor
     11.40     -14.52       1.81        0.00      73.26       2.17       0.07       3.05       ----

> <Gold.Chemscore.Fitness>
11.3990

> <Gold.Chemscore.DG>
-14.5194

> <Gold.Chemscore.ZeroCoef>
-5.4800

> <Gold.Chemscore.Hbond>
1.8070

> <Gold.Chemscore.Metal>
0.0000

> <Gold.Chemscore.Lipo>
73.2565

> <Gold.Chemscore.Internal_Hbond>
0.0000

> <Gold.Chemscore.DEClash>
0.0716

> <Gold.Chemscore.DEInternal>
3.0488

> <Gold.Chemscore.Rot>
2.1746

> <Gold.Chemscore.Internal.Correction>
   9.000000E+99

> <Gold.Chemscore.Hbonds>
donor molecule, donor type, donor heavy atom, donor atom, acceptor molecule, acceptor atom, score
      P1  H  6933  6945       L1     2  0.23
      P1  H  7997  8009       L1     8  0.53

> <Gold.Chemscore.Hbond.Weighted>
-6.0353

> <Gold.Chemscore.Metal.Weighted>
-0.0000

> <Gold.Chemscore.Lipo.Weighted>
-8.5710

> <Gold.Chemscore.Internal_Hbond.Weighted>
0.0000

> <Gold.Chemscore.DEClash.Weighted>
0.0716

> <Gold.Chemscore.DEInternal.Weighted>
3.0488

> <Gold.Chemscore.Rot.Weighted>
5.5669

> <Gold.Chemscore.Internal.Correction.Weighted>
   9.000000E+99

> <Gold.Protein.RotatedTorsions>
[ 6907 6896 6895 6894 ] final  141.16 input  -60.11 | X-H torsion
[ 7974 7965 7964 7962 ] final  115.76 input  175.53 | X-H torsion
[ 8008 7997 7996 7995 ] final  168.63 input   59.86 | X-H torsion
[ 10167 10162 10161 10158 ] final  -35.22 input  -65.29 | X-H torsion
[ 10718 10713 10712 10709 ] final   -4.11 input   66.30 | X-H torsion
[ 10763 10752 10751 10750 ] final   97.84 input  -60.55 | X-H torsion
[ 11005 11000 10999 10996 ] final  -49.01 input  -57.11 | X-H torsion

> <Gold.Protein.ActiveResidues>
 VAL166  LYS551  ARG553  GLY616  TRP617  ASP618  TYR619  PRO620  LYS621  CYS622 
 ASP623  PHE694  ASN695  SER759  ASP760  ASP761  ALA762  ILE779  LEU786  VAL792 
 PHE793  MET794  SER795  GLU796  ALA797  LYS798  CYS799  TRP800  GLU811  SER814 

> <Gold.Protein.RotatedAtoms>
  152.2343  133.5083  159.5233 H   0  0  0  0  0  0  0  0  0  0  0  0  # atno 6907 bound_to 6896
  150.7046  134.1174  159.4031 H   0  0  0  0  0  0  0  0  0  0  0  0  # atno 6908 bound_to 6896
  151.9095  135.0344  160.0564 H   0  0  0  0  0  0  0  0  0  0  0  0  # atno 6909 bound_to 6896
  145.1880  139.3015  143.4383 H   0  0  0  0  0  0  0  0  0  0  0  0  # atno 7974 bound_to 7965
  156.1529  140.1585  156.8740 H   0  0  0  0  0  0  0  0  0  0  0  0  # atno 8008 bound_to 7997
  154.5088  140.0806  156.7985 H   0  0  0  0  0  0  0  0  0  0  0  0  # atno 8009 bound_to 7997
  155.3860  140.3407  155.4251 H   0  0  0  0  0  0  0  0  0  0  0  0  # atno 8010 bound_to 7997
  140.7169  143.3492  151.2191 H   0  0  0  0  0  0  0  0  0  0  0  0  # atno 10167 bound_to 10162
  156.7661  130.5285  149.5776 H   0  0  0  0  0  0  0  0  0  0  0  0  # atno 10718 bound_to 10713
  153.2818  135.4169  155.1086 H   0  0  0  0  0  0  0  0  0  0  0  0  # atno 10763 bound_to 10752
  154.8492  135.3497  154.6101 H   0  0  0  0  0  0  0  0  0  0  0  0  # atno 10764 bound_to 10752
  153.6522  135.7052  153.5263 H   0  0  0  0  0  0  0  0  0  0  0  0  # atno 10765 bound_to 10752
  141.0734  133.6672  156.3524 H   0  0  0  0  0  0  0  0  0  0  0  0  # atno 11005 bound_to 11000
  146.3441  140.2082  142.8590 LP  0  0  0  0  0  0  0  0  0  0  0  0  # atno 17320 bound_to 7965
  145.0070  140.8681  143.5247 LP  0  0  0  0  0  0  0  0  0  0  0  0  # atno 17321 bound_to 7965
  139.7019  143.9519  152.2909 LP  0  0  0  0  0  0  0  0  0  0  0  0  # atno 17342 bound_to 10162
  139.9215  144.6797  150.8457 LP  0  0  0  0  0  0  0  0  0  0  0  0  # atno 17343 bound_to 10162
  156.1308  130.6176  151.0330 LP  0  0  0  0  0  0  0  0  0  0  0  0  # atno 17370 bound_to 10713
  157.6712  131.0861  150.7607 LP  0  0  0  0  0  0  0  0  0  0  0  0  # atno 17371 bound_to 10713
  140.5625  134.5920  157.5437 LP  0  0  0  0  0  0  0  0  0  0  0  0  # atno 17394 bound_to 11000
  139.9547  134.7556  156.0369 LP  0  0  0  0  0  0  0  0  0  0  0  0  # atno 17395 bound_to 11000

$$$$
