AV-unprocessed.smi:2751|AV-procd|sdf|10602|dock3
  -GOLD-   2272015 53D 1   1.00000     0.00000
 Structure written by MMmdl.
 34 35  0  0  0  0  0  0  0  0  1 V2000
  149.4943  140.9662  153.6441 O   0  0  0  0  0  0  0  0  0  0  0  0
  149.2539  140.2454  154.6180 C   0  0  0  0  0  0  0  0  0  0  0  0
  149.9025  140.4016  155.7818 N   0  0  0  0  0  0  0  0  0  0  0  0
  150.9386  141.3937  156.0468 C   0  0  0  0  0  0  0  0  0  0  0  0
  151.6423  141.1302  157.3891 C   0  0  0  0  0  0  0  0  0  0  0  0
  151.4503  142.2724  158.3989 C   0  0  1  0  0  0  0  0  0  0  0  0
  152.5119  142.2371  159.5156 C   0  0  0  0  0  0  0  0  0  0  0  0
  152.3416  143.4316  160.4612 C   0  0  0  0  0  0  0  0  0  0  0  0
  152.3249  144.7325  159.6519 C   0  0  0  0  0  0  0  0  0  0  0  0
  151.2832  144.6470  158.5250 C   0  0  0  0  0  0  0  0  0  0  0  0
  151.5484  143.5142  157.7034 O   0  0  0  0  0  0  0  0  0  0  0  0
  148.3450  139.2010  154.7171 N   0  0  0  0  0  0  0  0  0  0  0  0
  147.5931  138.8931  153.7047 C   0  0  0  0  0  0  0  0  0  0  0  0
  147.4701  139.4139  152.4192 N   0  0  0  0  0  0  0  0  0  0  0  0
  146.5106  138.6987  151.7590 C   0  0  0  0  0  0  0  0  0  0  0  0
  146.0484  137.7673  152.5876 C   0  0  0  0  0  0  0  0  0  0  0  0
  146.6916  137.8617  153.7852 O   0  0  0  0  0  0  0  0  0  0  0  0
  149.6615  139.7812  156.5414 H   0  0  0  0  0  0  0  0  0  0  0  0
  151.6597  141.4102  155.2280 H   0  0  0  0  0  0  0  0  0  0  0  0
  150.4668  142.3766  156.0627 H   0  0  0  0  0  0  0  0  0  0  0  0
  151.2517  140.2053  157.8155 H   0  0  0  0  0  0  0  0  0  0  0  0
  152.7084  140.9660  157.2268 H   0  0  0  0  0  0  0  0  0  0  0  0
  150.4565  142.1863  158.8423 H   0  0  0  0  0  0  0  0  0  0  0  0
  152.4398  141.3053  160.0776 H   0  0  0  0  0  0  0  0  0  0  0  0
  153.5100  142.2609  159.0759 H   0  0  0  0  0  0  0  0  0  0  0  0
  151.4076  143.3312  161.0155 H   0  0  0  0  0  0  0  0  0  0  0  0
  153.1446  143.4515  161.1984 H   0  0  0  0  0  0  0  0  0  0  0  0
  152.1095  145.5800  160.3029 H   0  0  0  0  0  0  0  0  0  0  0  0
  153.3118  144.9092  159.2226 H   0  0  0  0  0  0  0  0  0  0  0  0
  150.2726  144.5860  158.9317 H   0  0  0  0  0  0  0  0  0  0  0  0
  151.3240  145.5454  157.9091 H   0  0  0  0  0  0  0  0  0  0  0  0
  147.9769  140.1837  152.0058 H   0  0  0  0  0  0  0  0  0  0  0  0
  146.2541  138.9400  150.7381 H   0  0  0  0  0  0  0  0  0  0  0  0
  145.2979  136.9980  152.4814 H   0  0  0  0  0  0  0  0  0  0  0  0
  1  2  2  0  0  0  0
  2 12  1  0  0  0  0
  2  3  1  0  0  0  0
  3  4  1  0  0  0  0
  3 18  1  0  0  0  0
  4  5  1  0  0  0  0
  4 19  1  0  0  0  0
  4 20  1  0  0  0  0
  5  6  1  0  0  0  0
  5 21  1  0  0  0  0
  5 22  1  0  0  0  0
  6 11  1  0  0  0  0
  6  7  1  0  0  0  0
  6 23  1  0  0  0  0
  7  8  1  0  0  0  0
  7 24  1  0  0  0  0
  7 25  1  0  0  0  0
  8  9  1  0  0  0  0
  8 26  1  0  0  0  0
  8 27  1  0  0  0  0
  9 10  1  0  0  0  0
  9 28  1  0  0  0  0
  9 29  1  0  0  0  0
 10 11  1  0  0  0  0
 10 30  1  0  0  0  0
 10 31  1  0  0  0  0
 12 13  2  0  0  0  0
 13 17  1  0  0  0  0
 13 14  1  0  0  0  0
 14 32  1  0  0  0  0
 14 15  1  0  0  0  0
 15 33  1  0  0  0  0
 15 16  2  0  0  0  0
 16 34  1  0  0  0  0
 16 17  1  0  0  0  0
M  END
> <s_m_source_file>
AV-unprocessed.smi

> <i_m_source_file_index>
2751

> <i_lp_mmshare_version>
43012

> <i_f3d_flags>
0

> <s_epik_input>
bzFbY0hdW2NIXW5jMVtOSF1DKD1PKVtOSF1bQ0gyXVtDSDJdW0NAQEhdMltDSDJdW0NIMl1bQ0gyXVtDSDJdTzI=

> <s_epik_cmdline>
J2VwaWtfcHl0aG9uJywgJy1waCcsICc3LjAnLCAnLXRuJywgJzgnLCAnLW1hJywgJzIwMCcsICctbWV0YWxfYmluZGluZycsICctaW1hZScsICc8aW5maWxlLm1hZT4nLCAnLW9tYWUnLCAnPG91dGZpbGUubWFlPic=

> <r_lp_tautomer_probability>
0.107061

> <r_epik_Ionization_Penalty>
1.421

> <r_epik_Ionization_Penalty_Charging>
1.42064

> <r_epik_Ionization_Penalty_Neutral>
0.0003614

> <r_epik_State_Penalty>
2.61489

> <r_epik_Charging_Adjusted_Penalty>
4.03553

> <i_epik_Tot_Q>
0

> <i_epik_Tot_abs_Q>
0

> <r_epik_Metal_State_Penalty>
3.57288

> <b_epik_Metal_Only>
0

> <s_lp_Force_Field>
OPLS_2005

> <r_lp_Energy>
32.5629

> <b_lp_Chiralities_Consistent>
1

> <s_lp_Variant>
AV-unprocessed.smi:2751-8

> <Gold.Version>
5.8.1

> <Gold.Id.Protein>
6NUR|6NUR_protein|mol2

> <Gold.PLP.Fitness>
40.1777

> <Gold.PLP.PLP>
-33.6020

> <Gold.PLP.part.hbond>
-3.0000

> <Gold.PLP.part.metal>
0.0000

> <Gold.PLP.part.buried>
-6.5486

> <Gold.PLP.part.nonpolar>
-29.1650

> <Gold.PLP.part.repulsive>
3.6423

> <Gold.PLP.ligand.clash>
0.0000

> <Gold.PLP.ligand.torsion>
0.6037

> <Gold.PLP.Chemscore.Hbond>
1.7741

> <Gold.PLP.Chemscore.CHOScore>
0.8157

> <Gold.PLP.Chemscore.Metal>
0.0000

> <Gold.Chemscore.Hbonds>
donor molecule, donor type, donor heavy atom, donor atom, acceptor molecule, acceptor atom, score
      L1  H    14    32       P1  7957  0.51
      P1  H  7989  7998       L1     1  0.25
      P1  H  8011  8017       L1     1  1.00
      L1  C    15    33       P1 10171  0.80

> <Gold.PLP.Chemscore.Internal.Correction>
0.0138

> <Gold.Rescore>
     Score         DG    S(hbond)    S(metal)    S(lipo)     H(rot)  DE(clash)    DE(int)     intcor
     16.12     -18.47       2.06        0.00      88.09       1.63       1.68       0.67       ----

> <Gold.Chemscore.Fitness>
16.1244

> <Gold.Chemscore.DG>
-18.4727

> <Gold.Chemscore.ZeroCoef>
-5.4800

> <Gold.Chemscore.Hbond>
2.0558

> <Gold.Chemscore.Metal>
0.0000

> <Gold.Chemscore.Lipo>
88.0884

> <Gold.Chemscore.Internal_Hbond>
0.0000

> <Gold.Chemscore.DEClash>
1.6773

> <Gold.Chemscore.DEInternal>
0.6710

> <Gold.Chemscore.Rot>
1.6328

> <Gold.Chemscore.Internal.Correction>
   9.000000E+99

> <Gold.Chemscore.Hbonds>
donor molecule, donor type, donor heavy atom, donor atom, acceptor molecule, acceptor atom, score
      L1  H    14    32       P1  7957  0.50
      P1  H  7989  7998       L1     1  0.11
      P1  H  8011  8017       L1     1  0.94

> <Gold.Chemscore.Hbond.Weighted>
-6.8663

> <Gold.Chemscore.Metal.Weighted>
-0.0000

> <Gold.Chemscore.Lipo.Weighted>
-10.3063

> <Gold.Chemscore.Internal_Hbond.Weighted>
0.0000

> <Gold.Chemscore.DEClash.Weighted>
1.6773

> <Gold.Chemscore.DEInternal.Weighted>
0.6710

> <Gold.Chemscore.Rot.Weighted>
4.1799

> <Gold.Chemscore.Internal.Correction.Weighted>
   9.000000E+99

> <Gold.Protein.RotatedTorsions>
[ 6907 6896 6895 6894 ] final -116.04 input  -60.11 | X-H torsion
[ 7974 7965 7964 7962 ] final  136.06 input  175.53 | X-H torsion
[ 8008 7997 7996 7995 ] final  179.96 input   59.86 | X-H torsion
[ 10167 10162 10161 10158 ] final   52.58 input  -65.29 | X-H torsion
[ 10718 10713 10712 10709 ] final -135.53 input   66.30 | X-H torsion
[ 10763 10752 10751 10750 ] final  -16.07 input  -60.55 | X-H torsion
[ 11005 11000 10999 10996 ] final   58.62 input  -57.11 | X-H torsion

> <Gold.Protein.ActiveResidues>
 VAL166  LYS551  ARG553  GLY616  TRP617  ASP618  TYR619  PRO620  LYS621  CYS622 
 ASP623  PHE694  ASN695  SER759  ASP760  ASP761  ALA762  ILE779  LEU786  VAL792 
 PHE793  MET794  SER795  GLU796  ALA797  LYS798  CYS799  TRP800  GLU811  SER814 

> <Gold.Protein.RotatedAtoms>
  150.8024  133.8573  159.3221 H   0  0  0  0  0  0  0  0  0  0  0  0  # atno 6907 bound_to 6896
  151.6381  135.1014  160.0145 H   0  0  0  0  0  0  0  0  0  0  0  0  # atno 6908 bound_to 6896
  152.4113  133.6928  159.6435 H   0  0  0  0  0  0  0  0  0  0  0  0  # atno 6909 bound_to 6896
  144.9602  139.4719  143.5483 H   0  0  0  0  0  0  0  0  0  0  0  0  # atno 7974 bound_to 7965
  156.0374  140.1296  157.0193 H   0  0  0  0  0  0  0  0  0  0  0  0  # atno 8008 bound_to 7997
  154.4376  140.1037  156.6258 H   0  0  0  0  0  0  0  0  0  0  0  0  # atno 8009 bound_to 7997
  155.5717  140.3466  155.4519 H   0  0  0  0  0  0  0  0  0  0  0  0  # atno 8010 bound_to 7997
  140.2499  144.3491  150.6352 H   0  0  0  0  0  0  0  0  0  0  0  0  # atno 10167 bound_to 10162
  156.2672  130.7244  151.1199 H   0  0  0  0  0  0  0  0  0  0  0  0  # atno 10718 bound_to 10713
  153.5529  135.7011  153.5583 H   0  0  0  0  0  0  0  0  0  0  0  0  # atno 10763 bound_to 10752
  153.3499  135.3998  155.1638 H   0  0  0  0  0  0  0  0  0  0  0  0  # atno 10764 bound_to 10752
  154.8659  135.3763  154.5041 H   0  0  0  0  0  0  0  0  0  0  0  0  # atno 10765 bound_to 10752
  140.0364  134.5937  155.9439 H   0  0  0  0  0  0  0  0  0  0  0  0  # atno 11005 bound_to 11000
  146.3350  139.8746  142.8834 LP  0  0  0  0  0  0  0  0  0  0  0  0  # atno 17320 bound_to 7965
  145.2712  141.0109  143.3771 LP  0  0  0  0  0  0  0  0  0  0  0  0  # atno 17321 bound_to 7965
  140.6049  143.2167  151.7001 LP  0  0  0  0  0  0  0  0  0  0  0  0  # atno 17342 bound_to 10162
  139.5050  144.3735  152.0447 LP  0  0  0  0  0  0  0  0  0  0  0  0  # atno 17343 bound_to 10162
  157.7271  131.0641  150.5879 LP  0  0  0  0  0  0  0  0  0  0  0  0  # atno 17370 bound_to 10713
  156.5972  130.4345  149.5912 LP  0  0  0  0  0  0  0  0  0  0  0  0  # atno 17371 bound_to 10713
  141.1859  133.6556  156.5219 LP  0  0  0  0  0  0  0  0  0  0  0  0  # atno 17394 bound_to 11000
  140.4141  134.7246  157.4852 LP  0  0  0  0  0  0  0  0  0  0  0  0  # atno 17395 bound_to 11000

$$$$
