AV-unprocessed.smi:427|AV-procd|sdf|2542|dock3
  -GOLD-   2262022503D 1   1.00000     0.00000
 Structure written by MMmdl.
 51 52  0  0  0  0  0  0  0  0  1 V2000
  148.4439  140.8606  156.5981 C   0  0  0  0  0  0  0  0  0  0  0  0
  149.5847  140.9353  157.5962 C   0  0  0  0  0  0  0  0  0  0  0  0
  150.1365  142.1899  157.9300 C   0  0  0  0  0  0  0  0  0  0  0  0
  151.2056  142.2963  158.8522 C   0  0  0  0  0  0  0  0  0  0  0  0
  151.8327  143.6496  159.2390 C   0  0  0  0  0  0  0  0  0  0  0  0
  153.0171  143.4123  160.1982 C   0  0  0  0  0  0  0  0  0  0  0  0
  150.8373  144.5968  159.9465 C   0  0  0  0  0  0  0  0  0  0  0  0
  152.3396  144.3701  157.9719 C   0  0  0  0  0  0  0  0  0  0  0  0
  151.7021  141.1070  159.4330 C   0  0  0  0  0  0  0  0  0  0  0  0
  151.1572  139.8526  159.1029 C   0  0  0  0  0  0  0  0  0  0  0  0
  150.0916  139.7522  158.1767 C   0  0  0  0  0  0  0  0  0  0  0  0
  149.5102  138.5589  157.8037 O   0  0  0  0  0  0  0  0  0  0  0  0
  149.8425  137.3835  158.5306 C   0  0  0  0  0  0  0  0  0  0  0  0
  149.2984  136.1707  157.7617 C   0  0  2  0  0  0  0  0  0  0  0  0
  149.6735  136.3286  156.4085 O   0  0  0  0  0  0  0  0  0  0  0  0
  147.7579  136.0746  157.8443 C   0  0  0  0  0  0  0  0  0  0  0  0
  147.2934  135.4114  159.0503 N   0  0  0  0  0  0  0  0  0  0  0  0
  147.3428  133.9962  159.0919 C   0  0  0  0  0  0  0  0  0  0  0  0
  147.7628  133.3250  158.1486 O   0  0  0  0  0  0  0  0  0  0  0  0
  146.8738  133.4057  160.3410 C   0  0  0  0  0  0  0  0  0  0  0  0
  146.4498  134.1834  161.3610 C   0  0  0  0  0  0  0  0  0  0  0  0
  146.4340  135.5629  161.2944 N   0  0  0  0  0  0  0  0  0  0  0  0
  145.9983  136.3824  162.3880 C   0  0  0  0  0  0  0  0  0  0  0  0
  146.8658  136.2264  160.1258 C   0  0  0  0  0  0  0  0  0  0  0  0
  146.8768  137.4588  160.0565 O   0  0  0  0  0  0  0  0  0  0  0  0
  148.0983  141.8533  156.3081 H   0  0  0  0  0  0  0  0  0  0  0  0
  147.5979  140.3208  157.0246 H   0  0  0  0  0  0  0  0  0  0  0  0
  148.7664  140.3374  155.6976 H   0  0  0  0  0  0  0  0  0  0  0  0
  149.7185  143.0653  157.4584 H   0  0  0  0  0  0  0  0  0  0  0  0
  153.4746  144.3535  160.5048 H   0  0  0  0  0  0  0  0  0  0  0  0
  153.8018  142.8101  159.7399 H   0  0  0  0  0  0  0  0  0  0  0  0
  152.6932  142.8958  161.1025 H   0  0  0  0  0  0  0  0  0  0  0  0
  150.4643  144.1691  160.8780 H   0  0  0  0  0  0  0  0  0  0  0  0
  149.9805  144.8275  159.3120 H   0  0  0  0  0  0  0  0  0  0  0  0
  151.3090  145.5466  160.2014 H   0  0  0  0  0  0  0  0  0  0  0  0
  152.7682  145.3436  158.2137 H   0  0  0  0  0  0  0  0  0  0  0  0
  151.5279  144.5375  157.2628 H   0  0  0  0  0  0  0  0  0  0  0  0
  153.1139  143.8023  157.4560 H   0  0  0  0  0  0  0  0  0  0  0  0
  152.5129  141.1446  160.1449 H   0  0  0  0  0  0  0  0  0  0  0  0
  151.5758  138.9792  159.5788 H   0  0  0  0  0  0  0  0  0  0  0  0
  150.9235  137.2950  158.6537 H   0  0  0  0  0  0  0  0  0  0  0  0
  149.3883  137.4297  159.5220 H   0  0  0  0  0  0  0  0  0  0  0  0
  149.7707  135.2667  158.1488 H   0  0  0  0  0  0  0  0  0  0  0  0
  149.0197  136.8567  155.9760 H   0  0  0  0  0  0  0  0  0  0  0  0
  147.2940  137.0627  157.8446 H   0  0  0  0  0  0  0  0  0  0  0  0
  147.3175  135.5816  156.9758 H   0  0  0  0  0  0  0  0  0  0  0  0
  146.8696  132.3312  160.4514 H   0  0  0  0  0  0  0  0  0  0  0  0
  146.1140  133.7014  162.2675 H   0  0  0  0  0  0  0  0  0  0  0  0
  145.1577  136.9832  162.0362 H   0  0  0  0  0  0  0  0  0  0  0  0
  146.8454  136.9985  162.6948 H   0  0  0  0  0  0  0  0  0  0  0  0
  145.6874  135.7234  163.1996 H   0  0  0  0  0  0  0  0  0  0  0  0
  1  2  1  0  0  0  0
  1 26  1  0  0  0  0
  1 27  1  0  0  0  0
  1 28  1  0  0  0  0
  2 11  1  0  0  0  0
  2  3  2  0  0  0  0
  3  4  1  0  0  0  0
  3 29  1  0  0  0  0
  4  5  1  0  0  0  0
  4  9  2  0  0  0  0
  5  6  1  0  0  0  0
  5  7  1  0  0  0  0
  5  8  1  0  0  0  0
  6 30  1  0  0  0  0
  6 31  1  0  0  0  0
  6 32  1  0  0  0  0
  7 33  1  0  0  0  0
  7 34  1  0  0  0  0
  7 35  1  0  0  0  0
  8 36  1  0  0  0  0
  8 37  1  0  0  0  0
  8 38  1  0  0  0  0
  9 10  1  0  0  0  0
  9 39  1  0  0  0  0
 10 11  2  0  0  0  0
 10 40  1  0  0  0  0
 11 12  1  0  0  0  0
 12 13  1  0  0  0  0
 13 14  1  0  0  0  0
 13 41  1  0  0  0  0
 13 42  1  0  0  0  0
 14 15  1  0  0  0  0
 14 16  1  0  0  0  0
 14 43  1  0  0  0  0
 15 44  1  0  0  0  0
 16 17  1  0  0  0  0
 16 45  1  0  0  0  0
 16 46  1  0  0  0  0
 17 24  1  0  0  0  0
 17 18  1  0  0  0  0
 18 19  2  0  0  0  0
 18 20  1  0  0  0  0
 20 21  2  0  0  0  0
 20 47  1  0  0  0  0
 21 22  1  0  0  0  0
 21 48  1  0  0  0  0
 22 23  1  0  0  0  0
 22 24  1  0  0  0  0
 23 49  1  0  0  0  0
 23 50  1  0  0  0  0
 23 51  1  0  0  0  0
 24 25  2  0  0  0  0
M  END
> <s_m_source_file>
AV-unprocessed.smi

> <i_m_source_file_index>
427

> <i_lp_mmshare_version>
43012

> <i_f3d_flags>
0

> <s_epik_input>
W0NIM11jMVtjSF1jKEMoW0NIM10pKFtDSDNdKVtDSDNdKVtjSF1bY0hdYzFPW0NIMl1bQ0BIXShbT0hdKVtDSDJdbjJjKD1PKVtjSF1bY0hdbihbQ0gzXSljMj1P

> <s_epik_cmdline>
J2VwaWtfcHl0aG9uJywgJy1waCcsICc3LjAnLCAnLXRuJywgJzgnLCAnLW1hJywgJzIwMCcsICctbWV0YWxfYmluZGluZycsICctaW1hZScsICc8aW5maWxlLm1hZT4nLCAnLW9tYWUnLCAnPG91dGZpbGUubWFlPic=

> <r_lp_tautomer_probability>
1

> <r_epik_Ionization_Penalty>
2.02112e-07

> <r_epik_Ionization_Penalty_Charging>
8.49383e-08

> <r_epik_Ionization_Penalty_Neutral>
1.17174e-07

> <r_epik_State_Penalty>
-0

> <r_epik_Charging_Adjusted_Penalty>
8.49383e-08

> <i_epik_Tot_Q>
0

> <i_epik_Tot_abs_Q>
0

> <r_epik_Metal_State_Penalty>
-0

> <b_epik_Metal_Only>
0

> <s_lp_Force_Field>
OPLS_2005

> <r_lp_Energy>
25.5029

> <b_lp_Chiralities_Consistent>
1

> <s_lp_Variant>
AV-unprocessed.smi:427-1

> <Gold.Version>
5.8.1

> <Gold.Id.Protein>
6NUR|6NUR_protein|mol2

> <Gold.PLP.Fitness>
51.0978

> <Gold.PLP.PLP>
-47.0962

> <Gold.PLP.part.hbond>
-2.0000

> <Gold.PLP.part.metal>
0.0000

> <Gold.PLP.part.buried>
-7.2206

> <Gold.PLP.part.nonpolar>
-38.2188

> <Gold.PLP.part.repulsive>
0.0000

> <Gold.PLP.ligand.clash>
0.0000

> <Gold.PLP.ligand.torsion>
0.7637

> <Gold.PLP.Chemscore.Hbond>
1.8080

> <Gold.PLP.Chemscore.CHOScore>
0.0000

> <Gold.PLP.Chemscore.Metal>
0.0000

> <Gold.Chemscore.Hbonds>
donor molecule, donor type, donor heavy atom, donor atom, acceptor molecule, acceptor atom, score
      P1  H  6934  6947       L1    25  1.00

> <Gold.PLP.Chemscore.Internal.Correction>
0.1051

> <Gold.Rescore>
     Score         DG    S(hbond)    S(metal)    S(lipo)     H(rot)  DE(clash)    DE(int)     intcor
     17.49     -18.15       1.75        0.00     112.76       2.49       0.01       0.65       ----

> <Gold.Chemscore.Fitness>
17.4881

> <Gold.Chemscore.DG>
-18.1543

> <Gold.Chemscore.ZeroCoef>
-5.4800

> <Gold.Chemscore.Hbond>
1.7527

> <Gold.Chemscore.Metal>
0.0000

> <Gold.Chemscore.Lipo>
112.7614

> <Gold.Chemscore.Internal_Hbond>
0.0000

> <Gold.Chemscore.DEClash>
0.0120

> <Gold.Chemscore.DEInternal>
0.6542

> <Gold.Chemscore.Rot>
2.4894

> <Gold.Chemscore.Internal.Correction>
   9.000000E+99

> <Gold.Chemscore.Hbonds>
donor molecule, donor type, donor heavy atom, donor atom, acceptor molecule, acceptor atom, score
      P1  H  6934  6947       L1    25  0.99

> <Gold.Chemscore.Hbond.Weighted>
-5.8540

> <Gold.Chemscore.Metal.Weighted>
-0.0000

> <Gold.Chemscore.Lipo.Weighted>
-13.1931

> <Gold.Chemscore.Internal_Hbond.Weighted>
0.0000

> <Gold.Chemscore.DEClash.Weighted>
0.0120

> <Gold.Chemscore.DEInternal.Weighted>
0.6542

> <Gold.Chemscore.Rot.Weighted>
6.3728

> <Gold.Chemscore.Internal.Correction.Weighted>
   9.000000E+99

> <Gold.Protein.RotatedTorsions>
[ 6907 6896 6895 6894 ] final   -1.61 input  -60.11 | X-H torsion
[ 7974 7965 7964 7962 ] final   66.27 input  175.53 | X-H torsion
[ 8008 7997 7996 7995 ] final  -53.21 input   59.86 | X-H torsion
[ 10167 10162 10161 10158 ] final -129.29 input  -65.29 | X-H torsion
[ 10718 10713 10712 10709 ] final -164.50 input   66.30 | X-H torsion
[ 10763 10752 10751 10750 ] final -128.84 input  -60.55 | X-H torsion
[ 11005 11000 10999 10996 ] final -108.56 input  -57.11 | X-H torsion

> <Gold.Protein.ActiveResidues>
 VAL166  LYS551  ARG553  GLY616  TRP617  ASP618  TYR619  PRO620  LYS621  CYS622 
 ASP623  PHE694  ASN695  SER759  ASP760  ASP761  ALA762  ILE779  LEU786  VAL792 
 PHE793  MET794  SER795  GLU796  ALA797  LYS798  CYS799  TRP800  GLU811  SER814 

> <Gold.Protein.RotatedAtoms>
  151.5433  135.1068  159.9931 H   0  0  0  0  0  0  0  0  0  0  0  0  # atno 6907 bound_to 6896
  152.4525  133.7654  159.6780 H   0  0  0  0  0  0  0  0  0  0  0  0  # atno 6908 bound_to 6896
  150.8458  133.7797  159.3068 H   0  0  0  0  0  0  0  0  0  0  0  0  # atno 6909 bound_to 6896
  145.8286  139.3126  143.1001 H   0  0  0  0  0  0  0  0  0  0  0  0  # atno 7974 bound_to 7965
  154.4127  140.1205  156.5117 H   0  0  0  0  0  0  0  0  0  0  0  0  # atno 8008 bound_to 7997
  155.6792  140.3496  155.4829 H   0  0  0  0  0  0  0  0  0  0  0  0  # atno 8009 bound_to 7997
  155.9566  140.1115  157.0922 H   0  0  0  0  0  0  0  0  0  0  0  0  # atno 8010 bound_to 7997
  139.9413  143.6160  152.2502 H   0  0  0  0  0  0  0  0  0  0  0  0  # atno 10167 bound_to 10162
  156.6399  130.8964  151.2994 H   0  0  0  0  0  0  0  0  0  0  0  0  # atno 10718 bound_to 10713
  154.8757  135.3915  154.3822 H   0  0  0  0  0  0  0  0  0  0  0  0  # atno 10763 bound_to 10752
  153.4568  135.7029  153.6080 H   0  0  0  0  0  0  0  0  0  0  0  0  # atno 10764 bound_to 10752
  153.4596  135.3815  155.2299 H   0  0  0  0  0  0  0  0  0  0  0  0  # atno 10765 bound_to 10752
  141.0895  133.9080  157.2109 H   0  0  0  0  0  0  0  0  0  0  0  0  # atno 11005 bound_to 11000
  145.9596  140.8846  143.0217 LP  0  0  0  0  0  0  0  0  0  0  0  0  # atno 17320 bound_to 7965
  144.6741  140.1794  143.7407 LP  0  0  0  0  0  0  0  0  0  0  0  0  # atno 17321 bound_to 7965
  139.6702  144.7661  151.1797 LP  0  0  0  0  0  0  0  0  0  0  0  0  # atno 17342 bound_to 10162
  140.7610  143.5876  150.8829 LP  0  0  0  0  0  0  0  0  0  0  0  0  # atno 17343 bound_to 10162
  157.7174  130.9514  150.1307 LP  0  0  0  0  0  0  0  0  0  0  0  0  # atno 17370 bound_to 10713
  156.2167  130.3671  149.8605 LP  0  0  0  0  0  0  0  0  0  0  0  0  # atno 17371 bound_to 10713
  139.9718  135.0126  156.9531 LP  0  0  0  0  0  0  0  0  0  0  0  0  # atno 17394 bound_to 11000
  140.5286  134.0836  155.7310 LP  0  0  0  0  0  0  0  0  0  0  0  0  # atno 17395 bound_to 11000

$$$$
