AV-unprocessed.smi:1036|AV-procd|sdf|4519|dock7
  -GOLD-   22720 2533D 1   1.00000     0.00000
 Structure written by MMmdl.
 41 43  0  0  0  0  0  0  0  0  1 V2000
  153.5669  136.1866  160.5606 O   0  0  0  0  0  0  0  0  0  0  0  0
  153.4102  137.5824  160.4183 C   0  0  0  0  0  0  0  0  0  0  0  0
  153.6942  137.9979  158.9680 C   0  0  0  0  0  0  0  0  0  0  0  0
  152.6880  138.9107  158.4578 N   0  0  0  0  0  0  0  0  0  0  0  0
  152.4466  140.2597  158.6883 C   0  0  0  0  0  0  0  0  0  0  0  0
  153.1837  141.0184  159.4978 N   0  0  0  0  0  0  0  0  0  0  0  0
  152.5679  142.2509  159.3859 C   0  0  0  0  0  0  0  0  0  0  0  0
  152.8714  143.4880  159.9983 C   0  0  0  0  0  0  0  0  0  0  0  0
  152.0903  144.6304  159.7263 C   0  0  0  0  0  0  0  0  0  0  0  0
  150.9968  144.5533  158.8393 C   0  0  0  0  0  0  0  0  0  0  0  0
  150.6759  143.3309  158.2183 C   0  0  0  0  0  0  0  0  0  0  0  0
  151.4574  142.1931  158.4942 C   0  0  0  0  0  0  0  0  0  0  0  0
  151.4127  140.8714  158.0622 N   0  0  0  0  0  0  0  0  0  0  0  0
  150.4478  140.3039  157.1289 C   0  0  0  0  0  0  0  0  0  0  0  0
  150.6300  140.8352  155.6938 C   0  0  1  0  0  0  0  0  0  0  0  0
  151.7300  140.1927  155.0768 O   0  0  0  0  0  0  0  0  0  0  0  0
  149.3450  140.6924  154.8891 C   0  0  0  0  0  0  0  0  0  0  0  0
  148.5017  141.8075  154.6809 C   0  0  0  0  0  0  0  0  0  0  0  0
  147.3184  141.6752  153.9288 C   0  0  0  0  0  0  0  0  0  0  0  0
  146.5156  142.7483  153.7358 F   0  0  0  0  0  0  0  0  0  0  0  0
  146.9713  140.4284  153.3757 C   0  0  0  0  0  0  0  0  0  0  0  0
  147.8103  139.3152  153.5719 C   0  0  0  0  0  0  0  0  0  0  0  0
  148.9947  139.4451  154.3236 C   0  0  0  0  0  0  0  0  0  0  0  0
  149.7952  138.3655  154.4940 F   0  0  0  0  0  0  0  0  0  0  0  0
  154.4868  135.9973  160.6642 H   0  0  0  0  0  0  0  0  0  0  0  0
  152.3782  137.8241  160.6723 H   0  0  0  0  0  0  0  0  0  0  0  0
  154.0474  138.1139  161.1262 H   0  0  0  0  0  0  0  0  0  0  0  0
  154.6852  138.4422  158.8719 H   0  0  0  0  0  0  0  0  0  0  0  0
  153.6852  137.1129  158.3311 H   0  0  0  0  0  0  0  0  0  0  0  0
  152.0948  138.4971  157.7528 H   0  0  0  0  0  0  0  0  0  0  0  0
  153.7074  143.5581  160.6788 H   0  0  0  0  0  0  0  0  0  0  0  0
  152.3318  145.5706  160.2000 H   0  0  0  0  0  0  0  0  0  0  0  0
  150.4040  145.4332  158.6360 H   0  0  0  0  0  0  0  0  0  0  0  0
  149.8394  143.2689  157.5381 H   0  0  0  0  0  0  0  0  0  0  0  0
  150.5137  139.2155  157.1496 H   0  0  0  0  0  0  0  0  0  0  0  0
  149.4487  140.5510  157.4902 H   0  0  0  0  0  0  0  0  0  0  0  0
  150.8894  141.8934  155.7428 H   0  0  0  0  0  0  0  0  0  0  0  0
  151.7324  139.2845  155.3382 H   0  0  0  0  0  0  0  0  0  0  0  0
  148.7600  142.7716  155.0941 H   0  0  0  0  0  0  0  0  0  0  0  0
  146.0641  140.3266  152.7987 H   0  0  0  0  0  0  0  0  0  0  0  0
  147.5463  138.3598  153.1431 H   0  0  0  0  0  0  0  0  0  0  0  0
  1  2  1  0  0  0  0
  1 25  1  0  0  0  0
  2  3  1  0  0  0  0
  2 26  1  0  0  0  0
  2 27  1  0  0  0  0
  3  4  1  0  0  0  0
  3 28  1  0  0  0  0
  3 29  1  0  0  0  0
  4  5  1  0  0  0  0
  4 30  1  0  0  0  0
  5 13  1  0  0  0  0
  5  6  2  0  0  0  0
  6  7  1  0  0  0  0
  7 12  2  0  0  0  0
  7  8  1  0  0  0  0
  8  9  2  0  0  0  0
  8 31  1  0  0  0  0
  9 10  1  0  0  0  0
  9 32  1  0  0  0  0
 10 11  2  0  0  0  0
 10 33  1  0  0  0  0
 11 12  1  0  0  0  0
 11 34  1  0  0  0  0
 12 13  1  0  0  0  0
 13 14  1  0  0  0  0
 14 15  1  0  0  0  0
 14 35  1  0  0  0  0
 14 36  1  0  0  0  0
 15 16  1  0  0  0  0
 15 17  1  0  0  0  0
 15 37  1  0  0  0  0
 16 38  1  0  0  0  0
 17 23  1  0  0  0  0
 17 18  2  0  0  0  0
 18 19  1  0  0  0  0
 18 39  1  0  0  0  0
 19 20  1  0  0  0  0
 19 21  2  0  0  0  0
 21 22  1  0  0  0  0
 21 40  1  0  0  0  0
 22 23  2  0  0  0  0
 22 41  1  0  0  0  0
 23 24  1  0  0  0  0
M  END
> <s_m_source_file>
AV-unprocessed.smi

> <i_m_source_file_index>
1036

> <i_lp_mmshare_version>
43012

> <i_f3d_flags>
0

> <s_epik_input>
W09IXVtDSDJdW0NIMl1bTkhdYyhuMSluKGMoYzEyKVtjSF1bY0hdW2NIXVtjSF0yKVtDSDJdW0NASF0oW09IXSljM1tjSF1jKEYpW2NIXVtjSF1jM0Y=

> <s_epik_cmdline>
J2VwaWtfcHl0aG9uJywgJy1waCcsICc3LjAnLCAnLXRuJywgJzgnLCAnLW1hJywgJzIwMCcsICctbWV0YWxfYmluZGluZycsICctaW1hZScsICc8aW5maWxlLm1hZT4nLCAnLW9tYWUnLCAnPG91dGZpbGUubWFlPic=

> <r_epik_Ionization_Penalty>
1.30972

> <r_epik_Ionization_Penalty_Charging>
0

> <r_epik_Ionization_Penalty_Neutral>
1.30972

> <r_epik_State_Penalty>
1.38438

> <r_epik_Charging_Adjusted_Penalty>
1.38438

> <i_epik_Tot_Q>
0

> <i_epik_Tot_abs_Q>
0

> <r_epik_Metal_State_Penalty>
0.00551145

> <b_epik_Metal_Only>
0

> <s_lp_Force_Field>
OPLS_2005

> <r_lp_Energy>
10.9481

> <b_lp_Chiralities_Consistent>
1

> <s_lp_Variant>
AV-unprocessed.smi:1036-4

> <Gold.Version>
5.8.1

> <Gold.Id.Protein>
6NUR|6NUR_protein|mol2

> <Gold.PLP.Fitness>
54.6650

> <Gold.PLP.PLP>
-51.2949

> <Gold.PLP.part.hbond>
-2.0000

> <Gold.PLP.part.metal>
0.0000

> <Gold.PLP.part.buried>
-4.2299

> <Gold.PLP.part.nonpolar>
-44.6066

> <Gold.PLP.part.repulsive>
0.0806

> <Gold.PLP.ligand.clash>
0.0000

> <Gold.PLP.ligand.torsion>
1.1553

> <Gold.PLP.Chemscore.Hbond>
1.8800

> <Gold.PLP.Chemscore.CHOScore>
0.0000

> <Gold.PLP.Chemscore.Metal>
0.0000

> <Gold.Chemscore.Hbonds>
donor molecule, donor type, donor heavy atom, donor atom, acceptor molecule, acceptor atom, score
      P1  H  6896  6908       L1     1  1.00
      P1  H  7989  7998       L1    16  0.91

> <Gold.PLP.Chemscore.Internal.Correction>
0.0407

> <Gold.Rescore>
     Score         DG    S(hbond)    S(metal)    S(lipo)     H(rot)  DE(clash)    DE(int)     intcor
     14.73     -17.12       1.70        0.00     121.34       3.22       0.09       2.30       ----

> <Gold.Chemscore.Fitness>
14.7281

> <Gold.Chemscore.DG>
-17.1153

> <Gold.Chemscore.ZeroCoef>
-5.4800

> <Gold.Chemscore.Hbond>
1.7007

> <Gold.Chemscore.Metal>
0.0000

> <Gold.Chemscore.Lipo>
121.3386

> <Gold.Chemscore.Internal_Hbond>
0.0000

> <Gold.Chemscore.DEClash>
0.0889

> <Gold.Chemscore.DEInternal>
2.2983

> <Gold.Chemscore.Rot>
3.2194

> <Gold.Chemscore.Internal.Correction>
   9.000000E+99

> <Gold.Chemscore.Hbonds>
donor molecule, donor type, donor heavy atom, donor atom, acceptor molecule, acceptor atom, score
      P1  H  6896  6908       L1     1  0.99
      P1  H  7989  7998       L1    16  0.27

> <Gold.Chemscore.Hbond.Weighted>
-5.6803

> <Gold.Chemscore.Metal.Weighted>
-0.0000

> <Gold.Chemscore.Lipo.Weighted>
-14.1966

> <Gold.Chemscore.Internal_Hbond.Weighted>
0.0000

> <Gold.Chemscore.DEClash.Weighted>
0.0889

> <Gold.Chemscore.DEInternal.Weighted>
2.2983

> <Gold.Chemscore.Rot.Weighted>
8.2416

> <Gold.Chemscore.Internal.Correction.Weighted>
   9.000000E+99

> <Gold.Protein.RotatedTorsions>
[ 6907 6896 6895 6894 ] final  -75.02 input  -60.11 | X-H torsion
[ 7974 7965 7964 7962 ] final  -28.06 input  175.53 | X-H torsion
[ 8008 7997 7996 7995 ] final -112.98 input   59.86 | X-H torsion
[ 10167 10162 10161 10158 ] final  -83.40 input  -65.29 | X-H torsion
[ 10718 10713 10712 10709 ] final   53.10 input   66.30 | X-H torsion
[ 10763 10752 10751 10750 ] final   76.68 input  -60.55 | X-H torsion
[ 11005 11000 10999 10996 ] final   94.31 input  -57.11 | X-H torsion

> <Gold.Protein.ActiveResidues>
 VAL166  LYS551  ARG553  GLY616  TRP617  ASP618  TYR619  PRO620  LYS621  CYS622 
 ASP623  PHE694  ASN695  SER759  ASP760  ASP761  ALA762  ILE779  LEU786  VAL792 
 PHE793  MET794  SER795  GLU796  ALA797  LYS798  CYS799  TRP800  GLU811  SER814 

> <Gold.Protein.RotatedAtoms>
  150.7073  134.4783  159.5457 H   0  0  0  0  0  0  0  0  0  0  0  0  # atno 6907 bound_to 6896
  152.2425  134.8211  160.0467 H   0  0  0  0  0  0  0  0  0  0  0  0  # atno 6908 bound_to 6896
  151.8987  133.3498  159.3860 H   0  0  0  0  0  0  0  0  0  0  0  0  # atno 6909 bound_to 6896
  146.1315  140.5233  142.8691 H   0  0  0  0  0  0  0  0  0  0  0  0  # atno 7974 bound_to 7965
  155.0136  140.0393  157.2409 H   0  0  0  0  0  0  0  0  0  0  0  0  # atno 8008 bound_to 7997
  154.7439  140.2754  155.6326 H   0  0  0  0  0  0  0  0  0  0  0  0  # atno 8009 bound_to 7997
  156.2870  140.2660  156.2174 H   0  0  0  0  0  0  0  0  0  0  0  0  # atno 8010 bound_to 7997
  140.4230  143.2577  151.8865 H   0  0  0  0  0  0  0  0  0  0  0  0  # atno 10167 bound_to 10162
  157.5136  130.8517  149.8466 H   0  0  0  0  0  0  0  0  0  0  0  0  # atno 10718 bound_to 10713
  153.0743  135.4942  154.8371 H   0  0  0  0  0  0  0  0  0  0  0  0  # atno 10763 bound_to 10752
  154.7066  135.3012  154.9263 H   0  0  0  0  0  0  0  0  0  0  0  0  # atno 10764 bound_to 10752
  153.9970  135.6771  153.4810 H   0  0  0  0  0  0  0  0  0  0  0  0  # atno 10765 bound_to 10752
  139.8800  134.8838  156.3845 H   0  0  0  0  0  0  0  0  0  0  0  0  # atno 11005 bound_to 11000
  144.7695  140.5606  143.6680 LP  0  0  0  0  0  0  0  0  0  0  0  0  # atno 17320 bound_to 7965
  145.5251  139.1476  143.3531 LP  0  0  0  0  0  0  0  0  0  0  0  0  # atno 17321 bound_to 7965
  139.4783  144.5417  151.8518 LP  0  0  0  0  0  0  0  0  0  0  0  0  # atno 17342 bound_to 10162
  140.4513  144.1851  150.5897 LP  0  0  0  0  0  0  0  0  0  0  0  0  # atno 17343 bound_to 10162
  156.0305  130.3766  150.1701 LP  0  0  0  0  0  0  0  0  0  0  0  0  # atno 17370 bound_to 10713
  156.9890  130.9887  151.3419 LP  0  0  0  0  0  0  0  0  0  0  0  0  # atno 17371 bound_to 10713
  140.9376  133.7536  156.0104 LP  0  0  0  0  0  0  0  0  0  0  0  0  # atno 17394 bound_to 11000
  140.8257  134.3237  157.5366 LP  0  0  0  0  0  0  0  0  0  0  0  0  # atno 17395 bound_to 11000

$$$$
