AV-unprocessed.smi:1473|AV-procd|sdf|5969|dock4
  -GOLD-   22720 6 53D 1   1.00000     0.00000
 Structure written by MMmdl.
 35 36  0  0  0  0  0  0  0  0  2 V2000
  149.4317  136.9322  157.1264 N   0  0  0  0  0  0  0  0  0  0  0  0
  150.0610  136.0041  155.8244 S   0  0  0  0  0  0  0  0  0  0  0  0
  151.4357  135.5951  156.1494 O   0  0  0  0  0  0  0  0  0  0  0  0
  149.0490  135.0244  155.4028 O   0  0  0  0  0  0  0  0  0  0  0  0
  150.1371  137.2459  154.6321 N   0  0  0  0  0  0  0  0  0  0  0  0
  151.1970  138.2511  154.6786 C   0  0  0  0  0  0  0  0  0  0  0  0
  150.6827  139.6207  155.0760 C   0  0  0  0  0  0  0  0  0  0  0  0
  149.5942  140.2000  154.3927 C   0  0  0  0  0  0  0  0  0  0  0  0
  149.1291  141.4632  154.8017 C   0  0  0  0  0  0  0  0  0  0  0  0
  149.7231  142.0954  155.8367 N   0  3  0  0  0  0  0  0  0  0  0  0
  150.7681  141.5881  156.5373 C   0  0  0  0  0  0  0  0  0  0  0  0
  151.2957  142.3554  157.6017 N   0  0  0  0  0  0  0  0  0  0  0  0
  152.2285  141.6785  158.5031 C   0  0  0  0  0  0  0  0  0  0  0  0
  152.4612  142.5129  159.7737 C   0  0  0  0  0  0  0  0  0  0  0  0
  152.8795  143.8249  159.4172 O   0  0  0  0  0  0  0  0  0  0  0  0
  151.8834  144.5055  158.6638 C   0  0  0  0  0  0  0  0  0  0  0  0
  151.6229  143.7564  157.3459 C   0  0  0  0  0  0  0  0  0  0  0  0
  151.2723  140.3191  156.1525 C   0  0  0  0  0  0  0  0  0  0  0  0
  149.1480  136.3519  157.9157 H   0  0  0  0  0  0  0  0  0  0  0  0
  148.7116  137.5878  156.8238 H   0  0  0  0  0  0  0  0  0  0  0  0
  149.8342  136.9661  153.6992 H   0  0  0  0  0  0  0  0  0  0  0  0
  151.9795  137.9232  155.3638 H   0  0  0  0  0  0  0  0  0  0  0  0
  151.6560  138.3188  153.6919 H   0  0  0  0  0  0  0  0  0  0  0  0
  149.1198  139.6835  153.5709 H   0  0  0  0  0  0  0  0  0  0  0  0
  148.3035  141.9832  154.3380 H   0  0  0  0  0  0  0  0  0  0  0  0
  151.8602  140.6964  158.7991 H   0  0  0  0  0  0  0  0  0  0  0  0
  153.1728  141.5227  157.9798 H   0  0  0  0  0  0  0  0  0  0  0  0
  151.5554  142.5591  160.3808 H   0  0  0  0  0  0  0  0  0  0  0  0
  153.2322  142.0499  160.3896 H   0  0  0  0  0  0  0  0  0  0  0  0
  150.9664  144.5936  159.2490 H   0  0  0  0  0  0  0  0  0  0  0  0
  152.2257  145.5195  158.4565 H   0  0  0  0  0  0  0  0  0  0  0  0
  152.5016  143.8090  156.7015 H   0  0  0  0  0  0  0  0  0  0  0  0
  150.8019  144.2523  156.8277 H   0  0  0  0  0  0  0  0  0  0  0  0
  152.0930  139.8536  156.6770 H   0  0  0  0  0  0  0  0  0  0  0  0
  149.3617  143.0100  156.1083 H   0  0  0  0  0  0  0  0  0  0  0  0
  1  2  1  0  0  0  0
  1 19  1  0  0  0  0
  1 20  1  0  0  0  0
  2  3  2  0  0  0  0
  2  4  2  0  0  0  0
  2  5  1  0  0  0  0
  5  6  1  0  0  0  0
  5 21  1  0  0  0  0
  6  7  1  0  0  0  0
  6 22  1  0  0  0  0
  6 23  1  0  0  0  0
  7 18  1  0  0  0  0
  7  8  2  0  0  0  0
  8  9  1  0  0  0  0
  8 24  1  0  0  0  0
  9 10  2  0  0  0  0
  9 25  1  0  0  0  0
 10 11  1  0  0  0  0
 10 35  1  0  0  0  0
 11 12  1  0  0  0  0
 11 18  2  0  0  0  0
 12 17  1  0  0  0  0
 12 13  1  0  0  0  0
 13 14  1  0  0  0  0
 13 26  1  0  0  0  0
 13 27  1  0  0  0  0
 14 15  1  0  0  0  0
 14 28  1  0  0  0  0
 14 29  1  0  0  0  0
 15 16  1  0  0  0  0
 16 17  1  0  0  0  0
 16 30  1  0  0  0  0
 16 31  1  0  0  0  0
 17 32  1  0  0  0  0
 17 33  1  0  0  0  0
 18 34  1  0  0  0  0
M  CHG  1  10   1
M  END
> <s_m_source_file>
AV-unprocessed.smi

> <i_m_source_file_index>
1473

> <i_lp_mmshare_version>
43012

> <i_f3d_flags>
0

> <s_epik_input>
W05IMl1TKD1PKSg9TylbTkhdW0NIMl1jMVtjSF1bY0hdbmMoW2NIXTEpTjJbQ0gyXVtDSDJdT1tDSDJdW0NIMl0y

> <s_epik_cmdline>
J2VwaWtfcHl0aG9uJywgJy1waCcsICc3LjAnLCAnLXRuJywgJzgnLCAnLW1hJywgJzIwMCcsICctbWV0YWxfYmluZGluZycsICctaW1hZScsICc8aW5maWxlLm1hZT4nLCAnLW9tYWUnLCAnPG91dGZpbGUubWFlPic=

> <r_lp_tautomer_probability>
0.999994

> <r_epik_Ionization_Penalty>
2.36475

> <r_epik_Ionization_Penalty_Charging>
1.69468

> <r_epik_Ionization_Penalty_Neutral>
0.670067

> <r_epik_State_Penalty>
1.95548

> <r_epik_Charging_Adjusted_Penalty>
3.65016

> <i_epik_Tot_Q>
1

> <i_epik_Tot_abs_Q>
1

> <r_epik_Metal_State_Penalty>
4.27053

> <b_epik_Metal_Only>
0

> <s_lp_Force_Field>
OPLS_2005

> <r_lp_Energy>
21.3801

> <b_lp_Chiralities_Consistent>
1

> <s_lp_Variant>
AV-unprocessed.smi:1473-4

> <Gold.Version>
5.8.1

> <Gold.Id.Protein>
6NUR|6NUR_protein|mol2

> <Gold.PLP.Fitness>
47.5490

> <Gold.PLP.PLP>
-35.8114

> <Gold.PLP.part.hbond>
-3.0000

> <Gold.PLP.part.metal>
0.0000

> <Gold.PLP.part.buried>
-2.8260

> <Gold.PLP.part.nonpolar>
-30.4876

> <Gold.PLP.part.repulsive>
0.3970

> <Gold.PLP.ligand.clash>
0.0000

> <Gold.PLP.ligand.torsion>
0.8316

> <Gold.PLP.Chemscore.Hbond>
3.9840

> <Gold.PLP.Chemscore.CHOScore>
0.0000

> <Gold.PLP.Chemscore.Metal>
0.0000

> <Gold.Chemscore.Hbonds>
donor molecule, donor type, donor heavy atom, donor atom, acceptor molecule, acceptor atom, score
      L1  H     5    21       P1  7948  0.75
      L1  H    10    35       P1  8028  1.98
      P1  H 10752 10765       L1     3  0.93

> <Gold.PLP.Chemscore.Internal.Correction>
1.4488

> <Gold.Rescore>
     Score         DG    S(hbond)    S(metal)    S(lipo)     H(rot)  DE(clash)    DE(int)     intcor
     18.60     -19.36       2.75        0.00      82.30       1.93       0.01       0.76       ----

> <Gold.Chemscore.Fitness>
18.5961

> <Gold.Chemscore.DG>
-19.3606

> <Gold.Chemscore.ZeroCoef>
-5.4800

> <Gold.Chemscore.Hbond>
2.7515

> <Gold.Chemscore.Metal>
0.0000

> <Gold.Chemscore.Lipo>
82.3021

> <Gold.Chemscore.Internal_Hbond>
0.0000

> <Gold.Chemscore.DEClash>
0.0063

> <Gold.Chemscore.DEInternal>
0.7582

> <Gold.Chemscore.Rot>
1.9292

> <Gold.Chemscore.Internal.Correction>
   9.000000E+99

> <Gold.Chemscore.Hbonds>
donor molecule, donor type, donor heavy atom, donor atom, acceptor molecule, acceptor atom, score
      L1  H     5    21       P1  7948  0.41
      L1  H    10    35       P1  8028  0.94
      P1  H 10752 10765       L1     3  0.87

> <Gold.Chemscore.Hbond.Weighted>
-9.1899

> <Gold.Chemscore.Metal.Weighted>
-0.0000

> <Gold.Chemscore.Lipo.Weighted>
-9.6293

> <Gold.Chemscore.Internal_Hbond.Weighted>
0.0000

> <Gold.Chemscore.DEClash.Weighted>
0.0063

> <Gold.Chemscore.DEInternal.Weighted>
0.7582

> <Gold.Chemscore.Rot.Weighted>
4.9386

> <Gold.Chemscore.Internal.Correction.Weighted>
   9.000000E+99

> <Gold.Protein.RotatedTorsions>
[ 6907 6896 6895 6894 ] final   24.03 input  -60.11 | X-H torsion
[ 7974 7965 7964 7962 ] final  145.75 input  175.53 | X-H torsion
[ 8008 7997 7996 7995 ] final   80.71 input   59.86 | X-H torsion
[ 10167 10162 10161 10158 ] final   94.73 input  -65.29 | X-H torsion
[ 10718 10713 10712 10709 ] final -124.35 input   66.30 | X-H torsion
[ 10763 10752 10751 10750 ] final -169.19 input  -60.55 | X-H torsion
[ 11005 11000 10999 10996 ] final   -6.51 input  -57.11 | X-H torsion

> <Gold.Protein.ActiveResidues>
 VAL166  LYS551  ARG553  GLY616  TRP617  ASP618  TYR619  PRO620  LYS621  CYS622 
 ASP623  PHE694  ASN695  SER759  ASP760  ASP761  ALA762  ILE779  LEU786  VAL792 
 PHE793  MET794  SER795  GLU796  ALA797  LYS798  CYS799  TRP800  GLU811  SER814 

> <Gold.Protein.RotatedAtoms>
  151.9513  135.0167  160.0541 H   0  0  0  0  0  0  0  0  0  0  0  0  # atno 6907 bound_to 6896
  152.1950  133.4795  159.5036 H   0  0  0  0  0  0  0  0  0  0  0  0  # atno 6908 bound_to 6896
  150.6943  134.1580  159.4208 H   0  0  0  0  0  0  0  0  0  0  0  0  # atno 6909 bound_to 6896
  144.8726  139.5822  143.5879 H   0  0  0  0  0  0  0  0  0  0  0  0  # atno 7974 bound_to 7965
  155.8873  140.3441  155.5930 H   0  0  0  0  0  0  0  0  0  0  0  0  # atno 8008 bound_to 7997
  155.7651  140.0838  157.2155 H   0  0  0  0  0  0  0  0  0  0  0  0  # atno 8009 bound_to 7997
  154.4030  140.1528  156.2865 H   0  0  0  0  0  0  0  0  0  0  0  0  # atno 8010 bound_to 7997
  139.8055  144.6796  150.9708 H   0  0  0  0  0  0  0  0  0  0  0  0  # atno 10167 bound_to 10162
  156.1580  130.6582  151.0010 H   0  0  0  0  0  0  0  0  0  0  0  0  # atno 10718 bound_to 10713
  154.6550  135.2916  154.9939 H   0  0  0  0  0  0  0  0  0  0  0  0  # atno 10763 bound_to 10752
  154.1019  135.6575  153.4873 H   0  0  0  0  0  0  0  0  0  0  0  0  # atno 10764 bound_to 10752
  153.0397  135.5244  154.7474 H   0  0  0  0  0  0  0  0  0  0  0  0  # atno 10765 bound_to 10752
  140.7028  133.8975  155.8695 H   0  0  0  0  0  0  0  0  0  0  0  0  # atno 11005 bound_to 11000
  146.2941  139.7225  142.9139 LP  0  0  0  0  0  0  0  0  0  0  0  0  # atno 17320 bound_to 7965
  145.4101  141.0395  143.3022 LP  0  0  0  0  0  0  0  0  0  0  0  0  # atno 17321 bound_to 7965
  140.7819  143.4238  151.0801 LP  0  0  0  0  0  0  0  0  0  0  0  0  # atno 17342 bound_to 10162
  139.7907  143.8222  152.3151 LP  0  0  0  0  0  0  0  0  0  0  0  0  # atno 17343 bound_to 10162
  157.6710  131.0861  150.7611 LP  0  0  0  0  0  0  0  0  0  0  0  0  # atno 17370 bound_to 10713
  156.7675  130.4818  149.5425 LP  0  0  0  0  0  0  0  0  0  0  0  0  # atno 17371 bound_to 10713
  141.0149  134.0969  157.4182 LP  0  0  0  0  0  0  0  0  0  0  0  0  # atno 17394 bound_to 11000
  139.8892  135.0103  156.6666 LP  0  0  0  0  0  0  0  0  0  0  0  0  # atno 17395 bound_to 11000

$$$$
