AV-unprocessed.smi:898|AV-procd|sdf|4084|dock4
  -GOLD-   22720 1573D 1   1.00000     0.00000
 Structure written by MMmdl.
 34 36  0  0  0  0  0  0  0  0  1 V2000
  150.7260  140.6954  156.4039 O   0  0  0  0  0  0  0  0  0  0  0  0
  150.1080  141.7310  156.1557 C   0  0  0  0  0  0  0  0  0  0  0  0
  149.0781  141.8359  155.2978 N   0  0  0  0  0  0  0  0  0  0  0  0
  148.4856  140.8179  154.5046 C   0  0  0  0  0  0  0  0  0  0  0  0
  148.8461  139.5283  154.5564 N   0  0  0  0  0  0  0  0  0  0  0  0
  148.1074  138.7485  153.6775 N   0  0  0  0  0  0  0  0  0  0  0  0
  147.2115  139.4671  152.9899 C   0  0  0  0  0  0  0  0  0  0  0  0
  146.2984  138.8491  151.9841 C   0  0  0  0  0  0  0  0  0  0  0  0
  146.0924  137.3515  151.9141 C   0  0  0  0  0  0  0  0  0  0  0  0
  146.8522  138.0584  150.8210 C   0  0  0  0  0  0  0  0  0  0  0  0
  147.2015  141.1873  153.3664 S   0  0  0  0  0  0  0  0  0  0  0  0
  150.3875  142.9133  156.7238 N   0  0  0  0  0  0  0  0  0  0  0  0
  151.4490  143.1523  157.6979 C   0  0  1  0  0  0  0  0  0  0  0  0
  151.3451  144.6005  158.2130 C   0  0  0  0  0  0  0  0  0  0  0  0
  152.4746  144.9634  159.1906 C   0  0  0  0  0  0  0  0  0  0  0  0
  152.4659  144.0803  160.4461 C   0  0  0  0  0  0  0  0  0  0  0  0
  152.7299  142.3368  160.0238 S   0  0  0  0  0  0  0  0  0  0  0  0
  151.3636  142.1297  158.8482 C   0  0  0  0  0  0  0  0  0  0  0  0
  148.6687  142.7532  155.2001 H   0  0  0  0  0  0  0  0  0  0  0  0
  145.4377  139.4895  151.8019 H   0  0  0  0  0  0  0  0  0  0  0  0
  146.6666  136.7192  152.5883 H   0  0  0  0  0  0  0  0  0  0  0  0
  145.0920  136.9935  151.6796 H   0  0  0  0  0  0  0  0  0  0  0  0
  146.3597  138.1722  149.8575 H   0  0  0  0  0  0  0  0  0  0  0  0
  147.9290  137.9060  150.7798 H   0  0  0  0  0  0  0  0  0  0  0  0
  149.8270  143.7106  156.4613 H   0  0  0  0  0  0  0  0  0  0  0  0
  152.4123  143.0392  157.1964 H   0  0  0  0  0  0  0  0  0  0  0  0
  151.3763  145.2896  157.3679 H   0  0  0  0  0  0  0  0  0  0  0  0
  150.3800  144.7553  158.6975 H   0  0  0  0  0  0  0  0  0  0  0  0
  153.4394  144.8815  158.6884 H   0  0  0  0  0  0  0  0  0  0  0  0
  152.3720  146.0081  159.4858 H   0  0  0  0  0  0  0  0  0  0  0  0
  153.2501  144.3953  161.1349 H   0  0  0  0  0  0  0  0  0  0  0  0
  151.5172  144.1790  160.9748 H   0  0  0  0  0  0  0  0  0  0  0  0
  150.4187  142.2321  159.3831 H   0  0  0  0  0  0  0  0  0  0  0  0
  151.4027  141.1107  158.4623 H   0  0  0  0  0  0  0  0  0  0  0  0
  1  2  2  0  0  0  0
  2  3  1  0  0  0  0
  2 12  1  0  0  0  0
  3  4  1  0  0  0  0
  3 19  1  0  0  0  0
  4 11  1  0  0  0  0
  4  5  2  0  0  0  0
  5  6  1  0  0  0  0
  6  7  2  0  0  0  0
  7  8  1  0  0  0  0
  7 11  1  0  0  0  0
  8 10  1  0  0  0  0
  8  9  1  0  0  0  0
  8 20  1  0  0  0  0
  9 10  1  0  0  0  0
  9 21  1  0  0  0  0
  9 22  1  0  0  0  0
 10 23  1  0  0  0  0
 10 24  1  0  0  0  0
 12 13  1  0  0  0  0
 12 25  1  0  0  0  0
 13 18  1  0  0  0  0
 13 14  1  0  0  0  0
 13 26  1  0  0  0  0
 14 15  1  0  0  0  0
 14 27  1  0  0  0  0
 14 28  1  0  0  0  0
 15 16  1  0  0  0  0
 15 29  1  0  0  0  0
 15 30  1  0  0  0  0
 16 17  1  0  0  0  0
 16 31  1  0  0  0  0
 16 32  1  0  0  0  0
 17 18  1  0  0  0  0
 18 33  1  0  0  0  0
 18 34  1  0  0  0  0
M  END
> <s_m_source_file>
AV-unprocessed.smi

> <i_m_source_file_index>
898

> <i_lp_mmshare_version>
43012

> <i_f3d_flags>
0

> <s_epik_input>
W0NIMl0xU1tDSDJdW0NIMl1bQ0gyXVtDQEhdMVtOSF1DKD1PKVtOSF1jMm5uYyhzMilbQ0hdM1tDSDJdW0NIMl0z

> <s_epik_cmdline>
J2VwaWtfcHl0aG9uJywgJy1waCcsICc3LjAnLCAnLXRuJywgJzgnLCAnLW1hJywgJzIwMCcsICctbWV0YWxfYmluZGluZycsICctaW1hZScsICc8aW5maWxlLm1hZT4nLCAnLW9tYWUnLCAnPG91dGZpbGUubWFlPic=

> <r_lp_tautomer_probability>
1

> <r_epik_Ionization_Penalty>
0.000291725

> <r_epik_Ionization_Penalty_Charging>
0

> <r_epik_Ionization_Penalty_Neutral>
0.000291725

> <r_epik_State_Penalty>
-0

> <r_epik_Charging_Adjusted_Penalty>
0

> <i_epik_Tot_Q>
0

> <i_epik_Tot_abs_Q>
0

> <r_epik_Metal_State_Penalty>
0.160962

> <b_epik_Metal_Only>
0

> <s_lp_Force_Field>
OPLS_2005

> <r_lp_Energy>
2.40818

> <b_lp_Chiralities_Consistent>
1

> <s_lp_Variant>
AV-unprocessed.smi:898-2

> <Gold.Version>
5.8.1

> <Gold.Id.Protein>
6NUR|6NUR_protein|mol2

> <Gold.PLP.Fitness>
39.4737

> <Gold.PLP.PLP>
-34.2376

> <Gold.PLP.part.hbond>
-2.0000

> <Gold.PLP.part.metal>
0.0000

> <Gold.PLP.part.buried>
4.2692

> <Gold.PLP.part.nonpolar>
-36.8076

> <Gold.PLP.part.repulsive>
0.5321

> <Gold.PLP.ligand.clash>
0.0000

> <Gold.PLP.ligand.torsion>
0.2561

> <Gold.PLP.Chemscore.Hbond>
1.8723

> <Gold.PLP.Chemscore.CHOScore>
0.0000

> <Gold.PLP.Chemscore.Metal>
0.0000

> <Gold.Chemscore.Hbonds>
donor molecule, donor type, donor heavy atom, donor atom, acceptor molecule, acceptor atom, score
      L1  H     3    19       P1  8028  0.91
      L1  H    12    25       P1  8028  1.00

> <Gold.PLP.Chemscore.Internal.Correction>
0.1314

> <Gold.Rescore>
     Score         DG    S(hbond)    S(metal)    S(lipo)     H(rot)  DE(clash)    DE(int)     intcor
     16.44     -22.02       1.90        0.00     113.54       1.20       2.91       2.67       ----

> <Gold.Chemscore.Fitness>
16.4430

> <Gold.Chemscore.DG>
-22.0211

> <Gold.Chemscore.ZeroCoef>
-5.4800

> <Gold.Chemscore.Hbond>
1.8987

> <Gold.Chemscore.Metal>
0.0000

> <Gold.Chemscore.Lipo>
113.5397

> <Gold.Chemscore.Internal_Hbond>
0.0000

> <Gold.Chemscore.DEClash>
2.9111

> <Gold.Chemscore.DEInternal>
2.6669

> <Gold.Chemscore.Rot>
1.2050

> <Gold.Chemscore.Internal.Correction>
   9.000000E+99

> <Gold.Chemscore.Hbonds>
donor molecule, donor type, donor heavy atom, donor atom, acceptor molecule, acceptor atom, score
      L1  H     3    19       P1  8028  0.85
      L1  H    12    25       P1  8028  0.98

> <Gold.Chemscore.Hbond.Weighted>
-6.3416

> <Gold.Chemscore.Metal.Weighted>
-0.0000

> <Gold.Chemscore.Lipo.Weighted>
-13.2841

> <Gold.Chemscore.Internal_Hbond.Weighted>
0.0000

> <Gold.Chemscore.DEClash.Weighted>
2.9111

> <Gold.Chemscore.DEInternal.Weighted>
2.6669

> <Gold.Chemscore.Rot.Weighted>
3.0847

> <Gold.Chemscore.Internal.Correction.Weighted>
   9.000000E+99

> <Gold.Protein.RotatedTorsions>
[ 6907 6896 6895 6894 ] final   76.64 input  -60.11 | X-H torsion
[ 7974 7965 7964 7962 ] final  100.50 input  175.53 | X-H torsion
[ 8008 7997 7996 7995 ] final  -88.09 input   59.86 | X-H torsion
[ 10167 10162 10161 10158 ] final  110.42 input  -65.29 | X-H torsion
[ 10718 10713 10712 10709 ] final  129.25 input   66.30 | X-H torsion
[ 10763 10752 10751 10750 ] final   99.05 input  -60.55 | X-H torsion
[ 11005 11000 10999 10996 ] final  -51.63 input  -57.11 | X-H torsion

> <Gold.Protein.ActiveResidues>
 VAL166  LYS551  ARG553  GLY616  TRP617  ASP618  TYR619  PRO620  LYS621  CYS622 
 ASP623  PHE694  ASN695  SER759  ASP760  ASP761  ALA762  ILE779  LEU786  VAL792 
 PHE793  MET794  SER795  GLU796  ALA797  LYS798  CYS799  TRP800  GLU811  SER814 

> <Gold.Protein.RotatedAtoms>
  152.5082  134.3938  159.9392 H   0  0  0  0  0  0  0  0  0  0  0  0  # atno 6907 bound_to 6896
  151.3899  133.3786  159.2727 H   0  0  0  0  0  0  0  0  0  0  0  0  # atno 6908 bound_to 6896
  150.9440  134.8867  159.7689 H   0  0  0  0  0  0  0  0  0  0  0  0  # atno 6909 bound_to 6896
  145.3848  139.2373  143.3384 H   0  0  0  0  0  0  0  0  0  0  0  0  # atno 7974 bound_to 7965
  154.6708  140.0558  157.0163 H   0  0  0  0  0  0  0  0  0  0  0  0  # atno 8008 bound_to 7997
  155.1092  140.3236  155.4507 H   0  0  0  0  0  0  0  0  0  0  0  0  # atno 8009 bound_to 7997
  156.2656  140.2017  156.6216 H   0  0  0  0  0  0  0  0  0  0  0  0  # atno 8010 bound_to 7997
  139.6689  144.7126  151.1724 H   0  0  0  0  0  0  0  0  0  0  0  0  # atno 10167 bound_to 10162
  157.5171  131.1097  150.9208 H   0  0  0  0  0  0  0  0  0  0  0  0  # atno 10718 bound_to 10713
  153.2966  135.4127  155.1215 H   0  0  0  0  0  0  0  0  0  0  0  0  # atno 10763 bound_to 10752
  154.8536  135.3531  154.5909 H   0  0  0  0  0  0  0  0  0  0  0  0  # atno 10764 bound_to 10752
  153.6333  135.7060  153.5326 H   0  0  0  0  0  0  0  0  0  0  0  0  # atno 10765 bound_to 10752
  141.0881  133.6638  156.3905 H   0  0  0  0  0  0  0  0  0  0  0  0  # atno 11005 bound_to 11000
  146.2825  140.4521  142.8771 LP  0  0  0  0  0  0  0  0  0  0  0  0  # atno 17320 bound_to 7965
  144.8482  140.6961  143.6185 LP  0  0  0  0  0  0  0  0  0  0  0  0  # atno 17321 bound_to 7965
  140.7610  143.5875  150.8831 LP  0  0  0  0  0  0  0  0  0  0  0  0  # atno 17342 bound_to 10162
  139.9538  143.6241  152.3021 LP  0  0  0  0  0  0  0  0  0  0  0  0  # atno 17343 bound_to 10162
  156.9830  130.5534  149.5297 LP  0  0  0  0  0  0  0  0  0  0  0  0  # atno 17370 bound_to 10713
  156.0328  130.5418  150.8577 LP  0  0  0  0  0  0  0  0  0  0  0  0  # atno 17371 bound_to 10713
  140.5315  134.6207  157.5351 LP  0  0  0  0  0  0  0  0  0  0  0  0  # atno 17394 bound_to 11000
  139.9702  134.7305  156.0056 LP  0  0  0  0  0  0  0  0  0  0  0  0  # atno 17395 bound_to 11000

$$$$
