AV-unprocessed.smi:3200|AV-procd|sdf|12236|dock4
  -GOLD-   2272018 73D 1   1.00000     0.00000
 Structure written by MMmdl.
 38 39  0  0  0  0  0  0  0  0  2 V2000
  151.0787  129.0249  155.5090 C   0  0  0  0  0  0  0  0  0  0  0  0
  150.7369  130.4753  155.4651 C   0  0  0  0  0  0  0  0  0  0  0  0
  151.3500  131.3533  156.2496 N   0  0  0  0  0  0  0  0  0  0  0  0
  150.7532  132.5729  155.8994 O   0  0  0  0  0  0  0  0  0  0  0  0
  149.8311  132.2736  154.9535 C   0  0  0  0  0  0  0  0  0  0  0  0
  149.0509  133.3823  154.3310 C   0  0  0  0  0  0  0  0  0  0  0  0
  148.2035  132.9034  153.1460 C   0  0  0  0  0  0  0  0  0  0  0  0
  147.3320  133.9856  152.6456 N   0  3  0  0  0  0  0  0  0  0  0  0
  146.4737  133.6108  151.4993 C   0  0  1  0  0  0  0  0  0  0  0  0
  145.8953  132.1923  151.6068 C   0  0  0  0  0  0  0  0  0  0  0  0
  144.5966  132.2151  150.7900 C   0  0  0  0  0  0  0  0  0  0  0  0
  144.3635  133.6795  150.3907 C   0  0  0  0  0  0  0  0  0  0  0  0
  145.2467  134.5306  151.3208 C   0  0  0  0  0  0  0  0  0  0  0  0
  144.5010  134.8027  152.6482 C   0  0  0  0  0  0  0  0  0  0  0  0
  145.6235  135.8687  150.6576 C   0  0  0  0  0  0  0  0  0  0  0  0
  149.7900  130.9839  154.6295 N   0  0  0  0  0  0  0  0  0  0  0  0
  152.0780  128.8742  155.9188 H   0  0  0  0  0  0  0  0  0  0  0  0
  151.0520  128.5971  154.5065 H   0  0  0  0  0  0  0  0  0  0  0  0
  150.3632  128.4894  156.1335 H   0  0  0  0  0  0  0  0  0  0  0  0
  148.4126  133.8286  155.0946 H   0  0  0  0  0  0  0  0  0  0  0  0
  149.7462  134.1589  154.0097 H   0  0  0  0  0  0  0  0  0  0  0  0
  148.8523  132.5610  152.3385 H   0  0  0  0  0  0  0  0  0  0  0  0
  147.5919  132.0536  153.4514 H   0  0  0  0  0  0  0  0  0  0  0  0
  146.7404  134.3078  153.3982 H   0  0  0  0  0  0  0  0  0  0  0  0
  147.0759  133.6638  150.5899 H   0  0  0  0  0  0  0  0  0  0  0  0
  146.5932  131.4378  151.2422 H   0  0  0  0  0  0  0  0  0  0  0  0
  145.6662  131.9483  152.6452 H   0  0  0  0  0  0  0  0  0  0  0  0
  144.6652  131.5781  149.9075 H   0  0  0  0  0  0  0  0  0  0  0  0
  143.7685  131.8445  151.3950 H   0  0  0  0  0  0  0  0  0  0  0  0
  144.6819  133.8110  149.3555 H   0  0  0  0  0  0  0  0  0  0  0  0
  143.3098  133.9579  150.4333 H   0  0  0  0  0  0  0  0  0  0  0  0
  143.5777  135.3552  152.4715 H   0  0  0  0  0  0  0  0  0  0  0  0
  145.1029  135.3997  153.3338 H   0  0  0  0  0  0  0  0  0  0  0  0
  144.2312  133.8813  153.1645 H   0  0  0  0  0  0  0  0  0  0  0  0
  144.7363  136.4682  150.4508 H   0  0  0  0  0  0  0  0  0  0  0  0
  146.1434  135.7174  149.7109 H   0  0  0  0  0  0  0  0  0  0  0  0
  146.2775  136.4588  151.3003 H   0  0  0  0  0  0  0  0  0  0  0  0
  147.9237  134.7499  152.3527 H   0  0  0  0  0  0  0  0  0  0  0  0
  1  2  1  0  0  0  0
  1 17  1  0  0  0  0
  1 18  1  0  0  0  0
  1 19  1  0  0  0  0
  2 16  1  0  0  0  0
  2  3  2  0  0  0  0
  3  4  1  0  0  0  0
  4  5  1  0  0  0  0
  5  6  1  0  0  0  0
  5 16  2  0  0  0  0
  6  7  1  0  0  0  0
  6 20  1  0  0  0  0
  6 21  1  0  0  0  0
  7  8  1  0  0  0  0
  7 22  1  0  0  0  0
  7 23  1  0  0  0  0
  8  9  1  0  0  0  0
  8 24  1  0  0  0  0
  8 38  1  0  0  0  0
  9 13  1  0  0  0  0
  9 10  1  0  0  0  0
  9 25  1  0  0  0  0
 10 11  1  0  0  0  0
 10 26  1  0  0  0  0
 10 27  1  0  0  0  0
 11 12  1  0  0  0  0
 11 28  1  0  0  0  0
 11 29  1  0  0  0  0
 12 13  1  0  0  0  0
 12 30  1  0  0  0  0
 12 31  1  0  0  0  0
 13 14  1  0  0  0  0
 13 15  1  0  0  0  0
 14 32  1  0  0  0  0
 14 33  1  0  0  0  0
 14 34  1  0  0  0  0
 15 35  1  0  0  0  0
 15 36  1  0  0  0  0
 15 37  1  0  0  0  0
M  CHG  1   8   1
M  END
> <s_m_source_file>
AV-unprocessed.smi

> <i_m_source_file_index>
3200

> <i_lp_mmshare_version>
43012

> <i_f3d_flags>
0

> <s_epik_input>
W0NIM11jMW5vYyhuMSlbQ0gyXVtDSDJdW05IXVtDQEBIXShDMihbQ0gzXSlbQ0gzXSlbQ0gyXVtDSDJdW0NIMl0y

> <s_epik_cmdline>
J2VwaWtfcHl0aG9uJywgJy1waCcsICc3LjAnLCAnLXRuJywgJzgnLCAnLW1hJywgJzIwMCcsICctbWV0YWxfYmluZGluZycsICctaW1hZScsICc8aW5maWxlLm1hZT4nLCAnLW9tYWUnLCAnPG91dGZpbGUubWFlPic=

> <r_lp_tautomer_probability>
1

> <r_epik_Ionization_Penalty>
0.000953161

> <r_epik_Ionization_Penalty_Charging>
0.000953161

> <r_epik_Ionization_Penalty_Neutral>
4.23223e-13

> <r_epik_State_Penalty>
0.000619331

> <r_epik_Charging_Adjusted_Penalty>
0.00157249

> <i_epik_Tot_Q>
1

> <i_epik_Tot_abs_Q>
1

> <r_epik_Metal_State_Penalty>
-0

> <b_epik_Metal_Only>
0

> <s_lp_Force_Field>
OPLS_2005

> <r_lp_Energy>
25.6419

> <b_lp_Chiralities_Consistent>
1

> <s_lp_Variant>
AV-unprocessed.smi:3200-2

> <Gold.Version>
5.8.1

> <Gold.Id.Protein>
6NUR|6NUR_protein|mol2

> <Gold.PLP.Fitness>
36.7272

> <Gold.PLP.PLP>
-31.2236

> <Gold.PLP.part.hbond>
-1.0000

> <Gold.PLP.part.metal>
0.0000

> <Gold.PLP.part.buried>
-5.5514

> <Gold.PLP.part.nonpolar>
-24.5959

> <Gold.PLP.part.repulsive>
0.0731

> <Gold.PLP.ligand.clash>
0.0000

> <Gold.PLP.ligand.torsion>
0.2548

> <Gold.PLP.Chemscore.Hbond>
2.0000

> <Gold.PLP.Chemscore.CHOScore>
0.0000

> <Gold.PLP.Chemscore.Metal>
0.0000

> <Gold.Chemscore.Hbonds>
donor molecule, donor type, donor heavy atom, donor atom, acceptor molecule, acceptor atom, score
      L1  H     8    38       P1  7948  2.00

> <Gold.PLP.Chemscore.Internal.Correction>
0.0132

> <Gold.Rescore>
     Score         DG    S(hbond)    S(metal)    S(lipo)     H(rot)  DE(clash)    DE(int)     intcor
     11.09     -11.39       0.94        0.00      62.79       1.79       0.16       0.15       ----

> <Gold.Chemscore.Fitness>
11.0866

> <Gold.Chemscore.DG>
-11.3946

> <Gold.Chemscore.ZeroCoef>
-5.4800

> <Gold.Chemscore.Hbond>
0.9413

> <Gold.Chemscore.Metal>
0.0000

> <Gold.Chemscore.Lipo>
62.7872

> <Gold.Chemscore.Internal_Hbond>
0.0000

> <Gold.Chemscore.DEClash>
0.1596

> <Gold.Chemscore.DEInternal>
0.1484

> <Gold.Chemscore.Rot>
1.7872

> <Gold.Chemscore.Internal.Correction>
   9.000000E+99

> <Gold.Chemscore.Hbonds>
donor molecule, donor type, donor heavy atom, donor atom, acceptor molecule, acceptor atom, score
      L1  H     8    38       P1  7948  0.65

> <Gold.Chemscore.Hbond.Weighted>
-3.1438

> <Gold.Chemscore.Metal.Weighted>
-0.0000

> <Gold.Chemscore.Lipo.Weighted>
-7.3461

> <Gold.Chemscore.Internal_Hbond.Weighted>
0.0000

> <Gold.Chemscore.DEClash.Weighted>
0.1596

> <Gold.Chemscore.DEInternal.Weighted>
0.1484

> <Gold.Chemscore.Rot.Weighted>
4.5753

> <Gold.Chemscore.Internal.Correction.Weighted>
   9.000000E+99

> <Gold.Protein.RotatedTorsions>
[ 6907 6896 6895 6894 ] final  -89.61 input  -60.11 | X-H torsion
[ 7974 7965 7964 7962 ] final -126.68 input  175.53 | X-H torsion
[ 8008 7997 7996 7995 ] final -124.52 input   59.86 | X-H torsion
[ 10167 10162 10161 10158 ] final -102.33 input  -65.29 | X-H torsion
[ 10718 10713 10712 10709 ] final -177.18 input   66.30 | X-H torsion
[ 10763 10752 10751 10750 ] final  103.40 input  -60.55 | X-H torsion
[ 11005 11000 10999 10996 ] final  -39.13 input  -57.11 | X-H torsion

> <Gold.Protein.ActiveResidues>
 VAL166  LYS551  ARG553  GLY616  TRP617  ASP618  TYR619  PRO620  LYS621  CYS622 
 ASP623  PHE694  ASN695  SER759  ASP760  ASP761  ALA762  ILE779  LEU786  VAL792 
 PHE793  MET794  SER795  GLU796  ALA797  LYS798  CYS799  TRP800  GLU811  SER814 

> <Gold.Protein.RotatedAtoms>
  150.6875  134.2561  159.4529 H   0  0  0  0  0  0  0  0  0  0  0  0  # atno 6907 bound_to 6896
  152.0494  134.9660  160.0584 H   0  0  0  0  0  0  0  0  0  0  0  0  # atno 6908 bound_to 6896
  152.1130  133.4276  159.4677 H   0  0  0  0  0  0  0  0  0  0  0  0  # atno 6909 bound_to 6896
  144.9848  140.7675  143.4590 H   0  0  0  0  0  0  0  0  0  0  0  0  # atno 7974 bound_to 7965
  155.1982  140.0415  157.2912 H   0  0  0  0  0  0  0  0  0  0  0  0  # atno 8008 bound_to 7997
  154.6092  140.2472  155.7662 H   0  0  0  0  0  0  0  0  0  0  0  0  # atno 8009 bound_to 7997
  156.2369  140.2918  156.0346 H   0  0  0  0  0  0  0  0  0  0  0  0  # atno 8010 bound_to 7997
  140.2318  143.3601  152.0880 H   0  0  0  0  0  0  0  0  0  0  0  0  # atno 10167 bound_to 10162
  156.8256  130.9635  151.3109 H   0  0  0  0  0  0  0  0  0  0  0  0  # atno 10718 bound_to 10713
  153.3521  135.3978  155.1654 H   0  0  0  0  0  0  0  0  0  0  0  0  # atno 10763 bound_to 10752
  154.8664  135.3659  154.5208 H   0  0  0  0  0  0  0  0  0  0  0  0  # atno 10764 bound_to 10752
  153.5661  135.7080  153.5585 H   0  0  0  0  0  0  0  0  0  0  0  0  # atno 10765 bound_to 10752
  141.0079  133.6922  156.2146 H   0  0  0  0  0  0  0  0  0  0  0  0  # atno 11005 bound_to 11000
  145.2369  139.2090  143.5013 LP  0  0  0  0  0  0  0  0  0  0  0  0  # atno 17320 bound_to 7965
  146.3417  140.2257  142.8592 LP  0  0  0  0  0  0  0  0  0  0  0  0  # atno 17321 bound_to 7965
  139.5107  144.6889  151.5813 LP  0  0  0  0  0  0  0  0  0  0  0  0  # atno 17342 bound_to 10162
  140.6179  143.9313  150.6503 LP  0  0  0  0  0  0  0  0  0  0  0  0  # atno 17343 bound_to 10162
  157.6434  130.8824  149.9491 LP  0  0  0  0  0  0  0  0  0  0  0  0  # atno 17370 bound_to 10713
  156.0963  130.3659  150.0300 LP  0  0  0  0  0  0  0  0  0  0  0  0  # atno 17371 bound_to 10713
  140.6782  134.4795  157.5588 LP  0  0  0  0  0  0  0  0  0  0  0  0  # atno 17394 bound_to 11000
  139.9073  134.8420  156.1656 LP  0  0  0  0  0  0  0  0  0  0  0  0  # atno 17395 bound_to 11000

$$$$
