AV-unprocessed.smi:99|AV-procd|sdf|896|dock3
  -GOLD-   2262017393D 1   1.00000     0.00000
 Structure written by MMmdl.
 52 55  0  0  0  0  0  0  0  0  2 V2000
  145.8093  135.2663  158.0976 O   0  0  0  0  0  0  0  0  0  0  0  0
  146.5958  135.1426  159.0383 C   0  0  0  0  0  0  0  0  0  0  0  0
  147.6821  134.3473  159.0057 O   0  0  0  0  0  0  0  0  0  0  0  0
  148.1289  133.7808  157.7842 C   0  0  0  0  0  0  0  0  0  0  0  0
  148.8301  134.8685  156.9607 C   0  0  1  0  0  0  0  0  0  0  0  0
  150.0759  135.2056  157.5620 O   0  0  0  0  0  0  0  0  0  0  0  0
  150.9463  135.7350  156.5993 C   0  0  2  0  0  0  0  0  0  0  0  0
  151.1833  137.2058  156.8860 N   0  0  0  0  0  0  0  0  0  0  0  0
  150.5335  137.8564  157.9226 C   0  0  0  0  0  0  0  0  0  0  0  0
  150.7454  139.1652  158.1712 C   0  0  0  0  0  0  0  0  0  0  0  0
  151.6770  139.9135  157.3320 C   0  0  0  0  0  0  0  0  0  0  0  0
  151.8668  141.1048  157.5688 O   0  0  0  0  0  0  0  0  0  0  0  0
  152.2984  139.2517  156.3135 N   0  5  0  0  0  0  0  0  0  0  0  0
  152.0829  137.9286  156.0569 C   0  0  0  0  0  0  0  0  0  0  0  0
  152.6233  137.3237  155.1305 O   0  0  0  0  0  0  0  0  0  0  0  0
  150.3088  135.4824  155.2110 C   0  0  2  0  0  0  0  0  0  0  0  0
  149.7123  136.6465  154.6576 O   0  0  0  0  0  0  0  0  0  0  0  0
  149.2632  134.4346  155.5613 C   0  0  2  0  0  0  0  0  0  0  0  0
  148.2119  134.3819  154.6000 O   0  0  0  0  0  0  0  0  0  0  0  0
  148.1491  133.3959  153.6789 C   0  0  0  0  0  0  0  0  0  0  0  0
  148.9206  132.4353  153.6458 O   0  0  0  0  0  0  0  0  0  0  0  0
  147.0141  133.5680  152.7280 C   0  0  0  0  0  0  0  0  0  0  0  0
  146.7846  132.5840  151.7383 C   0  0  0  0  0  0  0  0  0  0  0  0
  145.7045  132.7059  150.8430 C   0  0  0  0  0  0  0  0  0  0  0  0
  144.8427  133.8149  150.9246 C   0  0  0  0  0  0  0  0  0  0  0  0
  145.0626  134.8024  151.9023 C   0  0  0  0  0  0  0  0  0  0  0  0
  146.1412  134.6812  152.8000 C   0  0  0  0  0  0  0  0  0  0  0  0
  146.4623  135.8792  160.3285 C   0  0  0  0  0  0  0  0  0  0  0  0
  147.4511  135.7159  161.3263 C   0  0  0  0  0  0  0  0  0  0  0  0
  147.3381  136.3802  162.5632 C   0  0  0  0  0  0  0  0  0  0  0  0
  146.2352  137.2158  162.8173 C   0  0  0  0  0  0  0  0  0  0  0  0
  145.2470  137.3900  161.8311 C   0  0  0  0  0  0  0  0  0  0  0  0
  145.3595  136.7285  160.5932 C   0  0  0  0  0  0  0  0  0  0  0  0
  148.8216  132.9686  158.0066 H   0  0  0  0  0  0  0  0  0  0  0  0
  147.2996  133.3600  157.2133 H   0  0  0  0  0  0  0  0  0  0  0  0
  148.2133  135.7675  156.9106 H   0  0  0  0  0  0  0  0  0  0  0  0
  151.9139  135.2469  156.7284 H   0  0  0  0  0  0  0  0  0  0  0  0
  149.8377  137.3223  158.5510 H   0  0  0  0  0  0  0  0  0  0  0  0
  150.2290  139.6571  158.9824 H   0  0  0  0  0  0  0  0  0  0  0  0
  151.0587  135.1004  154.5181 H   0  0  0  0  0  0  0  0  0  0  0  0
  149.6716  136.5397  153.7189 H   0  0  0  0  0  0  0  0  0  0  0  0
  149.7762  133.4746  155.6391 H   0  0  0  0  0  0  0  0  0  0  0  0
  147.4284  131.7197  151.6617 H   0  0  0  0  0  0  0  0  0  0  0  0
  145.5359  131.9453  150.0951 H   0  0  0  0  0  0  0  0  0  0  0  0
  144.0138  133.9082  150.2385 H   0  0  0  0  0  0  0  0  0  0  0  0
  144.4027  135.6548  151.9653 H   0  0  0  0  0  0  0  0  0  0  0  0
  146.2808  135.4555  153.5401 H   0  0  0  0  0  0  0  0  0  0  0  0
  148.3036  135.0739  161.1567 H   0  0  0  0  0  0  0  0  0  0  0  0
  148.0980  136.2455  163.3189 H   0  0  0  0  0  0  0  0  0  0  0  0
  146.1468  137.7219  163.7671 H   0  0  0  0  0  0  0  0  0  0  0  0
  144.3974  138.0278  162.0251 H   0  0  0  0  0  0  0  0  0  0  0  0
  144.5788  136.8788  159.8619 H   0  0  0  0  0  0  0  0  0  0  0  0
  1  2  2  0  0  0  0
  2  3  1  0  0  0  0
  2 28  1  0  0  0  0
  3  4  1  0  0  0  0
  4  5  1  0  0  0  0
  4 34  1  0  0  0  0
  4 35  1  0  0  0  0
  5 18  1  0  0  0  0
  5  6  1  0  0  0  0
  5 36  1  0  0  0  0
  6  7  1  0  0  0  0
  7  8  1  0  0  0  0
  7 16  1  0  0  0  0
  7 37  1  0  0  0  0
  8 14  1  0  0  0  0
  8  9  1  0  0  0  0
  9 10  2  0  0  0  0
  9 38  1  0  0  0  0
 10 11  1  0  0  0  0
 10 39  1  0  0  0  0
 11 12  2  0  0  0  0
 11 13  1  0  0  0  0
 13 14  1  0  0  0  0
 14 15  2  0  0  0  0
 16 17  1  0  0  0  0
 16 18  1  0  0  0  0
 16 40  1  0  0  0  0
 17 41  1  0  0  0  0
 18 19  1  0  0  0  0
 18 42  1  0  0  0  0
 19 20  1  0  0  0  0
 20 21  2  0  0  0  0
 20 22  1  0  0  0  0
 22 27  1  0  0  0  0
 22 23  2  0  0  0  0
 23 24  1  0  0  0  0
 23 43  1  0  0  0  0
 24 25  2  0  0  0  0
 24 44  1  0  0  0  0
 25 26  1  0  0  0  0
 25 45  1  0  0  0  0
 26 27  2  0  0  0  0
 26 46  1  0  0  0  0
 27 47  1  0  0  0  0
 28 33  1  0  0  0  0
 28 29  2  0  0  0  0
 29 30  1  0  0  0  0
 29 48  1  0  0  0  0
 30 31  2  0  0  0  0
 30 49  1  0  0  0  0
 31 32  1  0  0  0  0
 31 50  1  0  0  0  0
 32 33  2  0  0  0  0
 32 51  1  0  0  0  0
 33 52  1  0  0  0  0
M  CHG  1  13  -1
M  END
> <s_m_source_file>
AV-unprocessed.smi

> <i_m_source_file_index>
99

> <i_lp_mmshare_version>
43012

> <i_f3d_flags>
0

> <s_epik_input>
W2NIXTFbY0hdW2NIXVtjSF1bY0hdYzFDKD1PKU9bQ0gyXVtDQEBIXTJPW0NAQEhdKG4zW2NIXVtjSF1jKD1PKVtuSF1jMz1PKVtDQEBIXShbT0hdKVtDQEhdMk9DKD1PKWM0W2NIXVtjSF1bY0hdW2NIXVtjSF00

> <s_epik_cmdline>
J2VwaWtfcHl0aG9uJywgJy1waCcsICc3LjAnLCAnLXRuJywgJzgnLCAnLW1hJywgJzIwMCcsICctbWV0YWxfYmluZGluZycsICctaW1hZScsICc8aW5maWxlLm1hZT4nLCAnLW9tYWUnLCAnPG91dGZpbGUubWFlPic=

> <r_lp_tautomer_probability>
1

> <r_epik_Ionization_Penalty>
2.89159

> <r_epik_Ionization_Penalty_Charging>
2.1077e-08

> <r_epik_Ionization_Penalty_Neutral>
2.89159

> <r_epik_State_Penalty>
2.88671

> <r_epik_Charging_Adjusted_Penalty>
2.88671

> <i_epik_Tot_Q>
-1

> <i_epik_Tot_abs_Q>
1

> <r_epik_Metal_State_Penalty>
0.0727308

> <b_epik_Metal_Only>
1

> <s_epik_Chemistry_Notes>
This compound has an ester and may undergo hydrolysis at high or low pH. This compound contains an acetal/aminal-like group ( X-CH(R)-Y where X, Y are N, S, or O) that may be acid/base labile, releasing an aldehyde.

> <s_lp_Force_Field>
OPLS_2005

> <r_lp_Energy>
52.3549

> <b_lp_Chiralities_Consistent>
1

> <s_lp_Variant>
AV-unprocessed.smi:99-32

> <Gold.Version>
5.8.1

> <Gold.Id.Protein>
6NUR|6NUR_protein|mol2

> <Gold.PLP.Fitness>
52.5068

> <Gold.PLP.PLP>
-42.1753

> <Gold.PLP.part.hbond>
-4.0000

> <Gold.PLP.part.metal>
0.0000

> <Gold.PLP.part.buried>
-5.5767

> <Gold.PLP.part.nonpolar>
-32.4818

> <Gold.PLP.part.repulsive>
0.3141

> <Gold.PLP.ligand.clash>
0.0000

> <Gold.PLP.ligand.torsion>
0.8525

> <Gold.PLP.Chemscore.Hbond>
3.8251

> <Gold.PLP.Chemscore.CHOScore>
0.0000

> <Gold.PLP.Chemscore.Metal>
0.0000

> <Gold.Chemscore.Hbonds>
donor molecule, donor type, donor heavy atom, donor atom, acceptor molecule, acceptor atom, score
      L1  H    17    41       P1  7948  1.00
      P1  H  6896  6907       L1     6  0.59
      P1  H  7997  8009       L1    13  0.78
      P1  H 10752 10765       L1    15  0.56

> <Gold.PLP.Chemscore.Internal.Correction>
0.5611

> <Gold.Rescore>
     Score         DG    S(hbond)    S(metal)    S(lipo)     H(rot)  DE(clash)    DE(int)     intcor
     14.63     -16.09       2.19        0.00      96.76       3.13       0.19       1.27       ----

> <Gold.Chemscore.Fitness>
14.6254

> <Gold.Chemscore.DG>
-16.0881

> <Gold.Chemscore.ZeroCoef>
-5.4800

> <Gold.Chemscore.Hbond>
2.1893

> <Gold.Chemscore.Metal>
0.0000

> <Gold.Chemscore.Lipo>
96.7553

> <Gold.Chemscore.Internal_Hbond>
0.0000

> <Gold.Chemscore.DEClash>
0.1902

> <Gold.Chemscore.DEInternal>
1.2725

> <Gold.Chemscore.Rot>
3.1346

> <Gold.Chemscore.Internal.Correction>
   9.000000E+99

> <Gold.Chemscore.Hbonds>
donor molecule, donor type, donor heavy atom, donor atom, acceptor molecule, acceptor atom, score
      L1  H    17    41       P1  7948  0.59
      P1  H  6896  6907       L1     6  0.56
      P1  H  7997  8009       L1    13  0.23
      P1  H 10752 10765       L1    15  0.56

> <Gold.Chemscore.Hbond.Weighted>
-7.3123

> <Gold.Chemscore.Metal.Weighted>
-0.0000

> <Gold.Chemscore.Lipo.Weighted>
-11.3204

> <Gold.Chemscore.Internal_Hbond.Weighted>
0.0000

> <Gold.Chemscore.DEClash.Weighted>
0.1902

> <Gold.Chemscore.DEInternal.Weighted>
1.2725

> <Gold.Chemscore.Rot.Weighted>
8.0246

> <Gold.Chemscore.Internal.Correction.Weighted>
   9.000000E+99

> <Gold.Protein.RotatedTorsions>
[ 6907 6896 6895 6894 ] final  -85.27 input  -60.11 | X-H torsion
[ 7974 7965 7964 7962 ] final -115.07 input  175.53 | X-H torsion
[ 8008 7997 7996 7995 ] final -146.94 input   59.86 | X-H torsion
[ 10167 10162 10161 10158 ] final  -43.59 input  -65.29 | X-H torsion
[ 10718 10713 10712 10709 ] final  -17.21 input   66.30 | X-H torsion
[ 10763 10752 10751 10750 ] final  179.97 input  -60.55 | X-H torsion
[ 11005 11000 10999 10996 ] final -130.36 input  -57.11 | X-H torsion

> <Gold.Protein.ActiveResidues>
 VAL166  LYS551  ARG553  GLY616  TRP617  ASP618  TYR619  PRO620  LYS621  CYS622 
 ASP623  PHE694  ASN695  SER759  ASP760  ASP761  ALA762  ILE779  LEU786  VAL792 
 PHE793  MET794  SER795  GLU796  ALA797  LYS798  CYS799  TRP800  GLU811  SER814 

> <Gold.Protein.RotatedAtoms>
  150.6871  134.3230  159.4794 H   0  0  0  0  0  0  0  0  0  0  0  0  # atno 6907 bound_to 6896
  152.1104  134.9276  160.0576 H   0  0  0  0  0  0  0  0  0  0  0  0  # atno 6908 bound_to 6896
  152.0521  133.3989  159.4418 H   0  0  0  0  0  0  0  0  0  0  0  0  # atno 6909 bound_to 6896
  145.1127  140.8621  143.3860 H   0  0  0  0  0  0  0  0  0  0  0  0  # atno 7974 bound_to 7965
  155.5675  140.0631  157.2814 H   0  0  0  0  0  0  0  0  0  0  0  0  # atno 8008 bound_to 7997
  154.4371  140.1875  156.0891 H   0  0  0  0  0  0  0  0  0  0  0  0  # atno 8009 bound_to 7997
  156.0401  140.3296  155.7238 H   0  0  0  0  0  0  0  0  0  0  0  0  # atno 8010 bound_to 7997
  140.6928  143.2975  151.3374 H   0  0  0  0  0  0  0  0  0  0  0  0  # atno 10167 bound_to 10162
  156.5767  130.4763  149.6338 H   0  0  0  0  0  0  0  0  0  0  0  0  # atno 10718 bound_to 10713
  154.5275  135.2797  155.1209 H   0  0  0  0  0  0  0  0  0  0  0  0  # atno 10763 bound_to 10752
  154.2742  135.6298  153.5325 H   0  0  0  0  0  0  0  0  0  0  0  0  # atno 10764 bound_to 10752
  152.9950  135.5635  154.5780 H   0  0  0  0  0  0  0  0  0  0  0  0  # atno 10765 bound_to 10752
  140.9352  134.1266  157.4200 H   0  0  0  0  0  0  0  0  0  0  0  0  # atno 11005 bound_to 11000
  145.0829  139.2946  143.5774 LP  0  0  0  0  0  0  0  0  0  0  0  0  # atno 17320 bound_to 7965
  146.3525  140.0341  142.8648 LP  0  0  0  0  0  0  0  0  0  0  0  0  # atno 17321 bound_to 7965
  139.6349  144.0649  152.2507 LP  0  0  0  0  0  0  0  0  0  0  0  0  # atno 17342 bound_to 10162
  140.0136  144.6206  150.7626 LP  0  0  0  0  0  0  0  0  0  0  0  0  # atno 17343 bound_to 10162
  156.2667  130.6993  151.1778 LP  0  0  0  0  0  0  0  0  0  0  0  0  # atno 17370 bound_to 10713
  157.7336  131.0589  150.5569 LP  0  0  0  0  0  0  0  0  0  0  0  0  # atno 17371 bound_to 10713
  139.8806  135.0018  156.6091 LP  0  0  0  0  0  0  0  0  0  0  0  0  # atno 17394 bound_to 11000
  140.7809  133.8661  155.8566 LP  0  0  0  0  0  0  0  0  0  0  0  0  # atno 17395 bound_to 11000

$$$$
