AV-unprocessed.smi:3055|AV-procd|sdf|11643|dock8
  -GOLD-   2272017 33D 1   1.00000     0.00000
 Structure written by MMmdl.
 47 49  0  0  0  0  0  0  0  0  2 V2000
  150.8516  137.2031  159.7956 O   0  0  0  0  0  0  0  0  0  0  0  0
  151.6116  137.9538  159.1836 C   0  0  0  0  0  0  0  0  0  0  0  0
  152.9140  138.0517  159.4939 N   0  0  0  0  0  0  0  0  0  0  0  0
  153.5669  137.3097  160.5630 C   0  0  0  0  0  0  0  0  0  0  0  0
  154.3702  138.2566  161.4643 C   0  0  0  0  0  0  0  0  0  0  0  0
  154.4294  137.7674  162.8266 N   0  0  0  0  0  0  0  0  0  0  0  0
  153.7267  136.6967  163.3633 C   0  0  0  0  0  0  0  0  0  0  0  0
  154.0981  136.6067  164.6860 C   0  0  0  0  0  0  0  0  0  0  0  0
  155.0223  137.6058  164.9825 N   0  0  0  0  0  0  0  0  0  0  0  0
  155.1687  138.2529  163.8334 C   0  0  0  0  0  0  0  0  0  0  0  0
  151.2115  138.7282  158.1427 N   0  0  0  0  0  0  0  0  0  0  0  0
  149.8371  138.8571  157.6265 C   0  0  0  0  0  0  0  0  0  0  0  0
  149.3370  140.2889  157.8824 C   0  0  0  0  0  0  0  0  0  0  0  0
  150.2964  141.3244  157.2653 C   0  0  0  0  0  0  0  0  0  0  0  0
  151.7666  141.1021  157.7072 C   0  0  1  0  0  0  0  0  0  0  0  0
  151.9914  141.4760  159.1351 N   0  3  0  0  0  0  0  0  0  0  0  0
  153.3474  141.1982  159.6534 C   0  0  0  0  0  0  0  0  0  0  0  0
  153.4422  142.0053  160.9426 C   0  0  0  0  0  0  0  0  0  0  0  0
  152.6449  143.2707  160.6368 C   0  0  0  0  0  0  0  0  0  0  0  0
  151.7078  142.8900  159.4813 C   0  0  0  0  0  0  0  0  0  0  0  0
  152.1361  139.6225  157.4273 C   0  0  0  0  0  0  0  0  0  0  0  0
  153.4877  138.6846  158.9555 H   0  0  0  0  0  0  0  0  0  0  0  0
  152.8111  136.7840  161.1485 H   0  0  0  0  0  0  0  0  0  0  0  0
  154.2264  136.5544  160.1322 H   0  0  0  0  0  0  0  0  0  0  0  0
  155.3899  138.3669  161.0928 H   0  0  0  0  0  0  0  0  0  0  0  0
  153.9232  139.2518  161.4696 H   0  0  0  0  0  0  0  0  0  0  0  0
  153.0391  136.1051  162.7772 H   0  0  0  0  0  0  0  0  0  0  0  0
  153.7729  135.9060  165.4409 H   0  0  0  0  0  0  0  0  0  0  0  0
  155.8283  139.1009  163.7221 H   0  0  0  0  0  0  0  0  0  0  0  0
  149.8414  138.6527  156.5548 H   0  0  0  0  0  0  0  0  0  0  0  0
  149.1304  138.1438  158.0500 H   0  0  0  0  0  0  0  0  0  0  0  0
  148.3374  140.4145  157.4654 H   0  0  0  0  0  0  0  0  0  0  0  0
  149.2475  140.4601  158.9559 H   0  0  0  0  0  0  0  0  0  0  0  0
  150.2469  141.2283  156.1798 H   0  0  0  0  0  0  0  0  0  0  0  0
  149.9499  142.3356  157.4760 H   0  0  0  0  0  0  0  0  0  0  0  0
  152.4046  141.7432  157.0968 H   0  0  0  0  0  0  0  0  0  0  0  0
  153.5214  140.1381  159.8305 H   0  0  0  0  0  0  0  0  0  0  0  0
  154.0942  141.5498  158.9397 H   0  0  0  0  0  0  0  0  0  0  0  0
  152.9644  141.4557  161.7549 H   0  0  0  0  0  0  0  0  0  0  0  0
  154.4712  142.2124  161.2380 H   0  0  0  0  0  0  0  0  0  0  0  0
  152.0981  143.6230  161.5122 H   0  0  0  0  0  0  0  0  0  0  0  0
  153.3149  144.0720  160.3229 H   0  0  0  0  0  0  0  0  0  0  0  0
  151.9059  143.5420  158.6290 H   0  0  0  0  0  0  0  0  0  0  0  0
  150.6592  143.0071  159.7567 H   0  0  0  0  0  0  0  0  0  0  0  0
  153.1827  139.4290  157.6639 H   0  0  0  0  0  0  0  0  0  0  0  0
  152.0558  139.4231  156.3578 H   0  0  0  0  0  0  0  0  0  0  0  0
  151.3591  140.9201  159.6930 H   0  0  0  0  0  0  0  0  0  0  0  0
  1  2  2  0  0  0  0
  2  3  1  0  0  0  0
  2 11  1  0  0  0  0
  3  4  1  0  0  0  0
  3 22  1  0  0  0  0
  4  5  1  0  0  0  0
  4 23  1  0  0  0  0
  4 24  1  0  0  0  0
  5  6  1  0  0  0  0
  5 25  1  0  0  0  0
  5 26  1  0  0  0  0
  6 10  1  0  0  0  0
  6  7  1  0  0  0  0
  7  8  2  0  0  0  0
  7 27  1  0  0  0  0
  8  9  1  0  0  0  0
  8 28  1  0  0  0  0
  9 10  2  0  0  0  0
 10 29  1  0  0  0  0
 11 21  1  0  0  0  0
 11 12  1  0  0  0  0
 12 13  1  0  0  0  0
 12 30  1  0  0  0  0
 12 31  1  0  0  0  0
 13 14  1  0  0  0  0
 13 32  1  0  0  0  0
 13 33  1  0  0  0  0
 14 15  1  0  0  0  0
 14 34  1  0  0  0  0
 14 35  1  0  0  0  0
 15 16  1  0  0  0  0
 15 21  1  0  0  0  0
 15 36  1  0  0  0  0
 16 20  1  0  0  0  0
 16 17  1  0  0  0  0
 16 47  1  0  0  0  0
 17 18  1  0  0  0  0
 17 37  1  0  0  0  0
 17 38  1  0  0  0  0
 18 19  1  0  0  0  0
 18 39  1  0  0  0  0
 18 40  1  0  0  0  0
 19 20  1  0  0  0  0
 19 41  1  0  0  0  0
 19 42  1  0  0  0  0
 20 43  1  0  0  0  0
 20 44  1  0  0  0  0
 21 45  1  0  0  0  0
 21 46  1  0  0  0  0
M  CHG  1  16   1
M  END
> <s_m_source_file>
AV-unprocessed.smi

> <i_m_source_file_index>
3055

> <i_lp_mmshare_version>
43012

> <i_f3d_flags>
0

> <s_epik_input>
W2NIXTFuW2NIXVtjSF1uMVtDSDJdW0NIMl1bTkhdQyg9TylOMltDSDJdW0NIMl1bQ0gyXVtDQEhdKFtDSDJdMilOM1tDSDJdW0NIMl1bQ0gyXVtDSDJdMw==

> <s_epik_cmdline>
J2VwaWtfcHl0aG9uJywgJy1waCcsICc3LjAnLCAnLXRuJywgJzgnLCAnLW1hJywgJzIwMCcsICctbWV0YWxfYmluZGluZycsICctaW1hZScsICc8aW5maWxlLm1hZT4nLCAnLW9tYWUnLCAnPG91dGZpbGUubWFlPic=

> <r_lp_tautomer_probability>
1

> <r_epik_Ionization_Penalty>
0.618392

> <r_epik_Ionization_Penalty_Charging>
0.618355

> <r_epik_Ionization_Penalty_Neutral>
3.68592e-05

> <r_epik_State_Penalty>
0.635579

> <r_epik_Charging_Adjusted_Penalty>
1.25393

> <i_epik_Tot_Q>
1

> <i_epik_Tot_abs_Q>
1

> <r_epik_Metal_State_Penalty>
0.306847

> <b_epik_Metal_Only>
0

> <s_lp_Force_Field>
OPLS_2005

> <r_lp_Energy>
66.9505

> <b_lp_Chiralities_Consistent>
1

> <s_lp_Variant>
AV-unprocessed.smi:3055-3

> <Gold.Version>
5.8.1

> <Gold.Id.Protein>
6NUR|6NUR_protein|mol2

> <Gold.PLP.Fitness>
40.3676

> <Gold.PLP.PLP>
-39.9366

> <Gold.PLP.part.hbond>
-0.9506

> <Gold.PLP.part.metal>
0.0000

> <Gold.PLP.part.buried>
-5.2190

> <Gold.PLP.part.nonpolar>
-34.4530

> <Gold.PLP.part.repulsive>
0.3039

> <Gold.PLP.ligand.clash>
1.4461

> <Gold.PLP.ligand.torsion>
0.3219

> <Gold.PLP.Chemscore.Hbond>
0.8288

> <Gold.PLP.Chemscore.CHOScore>
0.0000

> <Gold.PLP.Chemscore.Metal>
0.0000

> <Gold.Chemscore.Hbonds>
donor molecule, donor type, donor heavy atom, donor atom, acceptor molecule, acceptor atom, score
      P1  H  6896  6909       L1     1  0.78

> <Gold.PLP.Chemscore.Internal.Correction>
0.0347

> <Gold.Rescore>
     Score         DG    S(hbond)    S(metal)    S(lipo)     H(rot)  DE(clash)    DE(int)     intcor
     14.91     -15.14       0.99        0.00      93.83       1.81       0.03       0.21       ----

> <Gold.Chemscore.Fitness>
14.9092

> <Gold.Chemscore.DG>
-15.1408

> <Gold.Chemscore.ZeroCoef>
-5.4800

> <Gold.Chemscore.Hbond>
0.9902

> <Gold.Chemscore.Metal>
0.0000

> <Gold.Chemscore.Lipo>
93.8320

> <Gold.Chemscore.Internal_Hbond>
0.0000

> <Gold.Chemscore.DEClash>
0.0263

> <Gold.Chemscore.DEInternal>
0.2054

> <Gold.Chemscore.Rot>
1.8066

> <Gold.Chemscore.Internal.Correction>
   9.000000E+99

> <Gold.Chemscore.Hbonds>
donor molecule, donor type, donor heavy atom, donor atom, acceptor molecule, acceptor atom, score
      P1  H  6896  6909       L1     1  0.76

> <Gold.Chemscore.Hbond.Weighted>
-3.3074

> <Gold.Chemscore.Metal.Weighted>
-0.0000

> <Gold.Chemscore.Lipo.Weighted>
-10.9783

> <Gold.Chemscore.Internal_Hbond.Weighted>
0.0000

> <Gold.Chemscore.DEClash.Weighted>
0.0263

> <Gold.Chemscore.DEInternal.Weighted>
0.2054

> <Gold.Chemscore.Rot.Weighted>
4.6249

> <Gold.Chemscore.Internal.Correction.Weighted>
   9.000000E+99

> <Gold.Protein.RotatedTorsions>
[ 6907 6896 6895 6894 ] final   96.73 input  -60.11 | X-H torsion
[ 7974 7965 7964 7962 ] final -122.68 input  175.53 | X-H torsion
[ 8008 7997 7996 7995 ] final   70.59 input   59.86 | X-H torsion
[ 10167 10162 10161 10158 ] final  -13.43 input  -65.29 | X-H torsion
[ 10718 10713 10712 10709 ] final   74.14 input   66.30 | X-H torsion
[ 10763 10752 10751 10750 ] final  -35.93 input  -60.55 | X-H torsion
[ 11005 11000 10999 10996 ] final  -35.52 input  -57.11 | X-H torsion

> <Gold.Protein.ActiveResidues>
 VAL166  LYS551  ARG553  GLY616  TRP617  ASP618  TYR619  PRO620  LYS621  CYS622 
 ASP623  PHE694  ASN695  SER759  ASP760  ASP761  ALA762  ILE779  LEU786  VAL792 
 PHE793  MET794  SER795  GLU796  ALA797  LYS798  CYS799  TRP800  GLU811  SER814 

> <Gold.Protein.RotatedAtoms>
  152.5432  134.0841  159.8248 H   0  0  0  0  0  0  0  0  0  0  0  0  # atno 6907 bound_to 6896
  151.0939  133.5287  159.2621 H   0  0  0  0  0  0  0  0  0  0  0  0  # atno 6908 bound_to 6896
  151.2068  135.0474  159.8949 H   0  0  0  0  0  0  0  0  0  0  0  0  # atno 6909 bound_to 6896
  145.0268  140.8034  143.4348 H   0  0  0  0  0  0  0  0  0  0  0  0  # atno 7974 bound_to 7965
  155.7412  140.3490  155.5105 H   0  0  0  0  0  0  0  0  0  0  0  0  # atno 8008 bound_to 7997
  155.9093  140.1047  157.1313 H   0  0  0  0  0  0  0  0  0  0  0  0  # atno 8009 bound_to 7997
  154.4054  140.1271  156.4523 H   0  0  0  0  0  0  0  0  0  0  0  0  # atno 8010 bound_to 7997
  140.7182  143.5427  150.9391 H   0  0  0  0  0  0  0  0  0  0  0  0  # atno 10167 bound_to 10162
  157.6579  130.9663  150.1168 H   0  0  0  0  0  0  0  0  0  0  0  0  # atno 10718 bound_to 10713
  153.8713  135.6830  153.4774 H   0  0  0  0  0  0  0  0  0  0  0  0  # atno 10763 bound_to 10752
  153.1286  135.4708  154.9310 H   0  0  0  0  0  0  0  0  0  0  0  0  # atno 10764 bound_to 10752
  154.7713  135.3239  154.8135 H   0  0  0  0  0  0  0  0  0  0  0  0  # atno 10765 bound_to 10752
  140.9803  133.7060  156.1672 H   0  0  0  0  0  0  0  0  0  0  0  0  # atno 11005 bound_to 11000
  145.1823  139.2345  143.5286 LP  0  0  0  0  0  0  0  0  0  0  0  0  # atno 17320 bound_to 7965
  146.3493  140.1600  142.8591 LP  0  0  0  0  0  0  0  0  0  0  0  0  # atno 17321 bound_to 7965
  139.9150  143.6674  152.3108 LP  0  0  0  0  0  0  0  0  0  0  0  0  # atno 17342 bound_to 10162
  139.7071  144.7626  151.1175 LP  0  0  0  0  0  0  0  0  0  0  0  0  # atno 17343 bound_to 10162
  156.2050  130.3663  149.8740 LP  0  0  0  0  0  0  0  0  0  0  0  0  # atno 17370 bound_to 10713
  156.6634  130.8791  151.3551 LP  0  0  0  0  0  0  0  0  0  0  0  0  # atno 17371 bound_to 10713
  140.7197  134.4372  157.5576 LP  0  0  0  0  0  0  0  0  0  0  0  0  # atno 17394 bound_to 11000
  139.8947  134.8699  156.2163 LP  0  0  0  0  0  0  0  0  0  0  0  0  # atno 17395 bound_to 11000

$$$$
