AV-unprocessed.smi:47|AV-procd|sdf|423|dock9
  -GOLD-   2262016303D 1   1.00000     0.00000
 Structure written by MMmdl.
 32 34  0  0  0  0  0  0  0  0  2 V2000
  145.1376  140.3900  154.7806 O   0  0  0  0  0  0  0  0  0  0  0  0
  146.5452  140.2872  154.7524 C   0  0  1  0  0  0  0  0  0  0  0  0
  147.0514  139.6425  153.4637 C   0  0  0  0  0  0  0  0  0  0  0  0
  148.4355  140.1253  153.3085 N   0  3  0  0  0  0  0  0  0  0  0  0
  148.5879  141.3814  154.0766 C   0  0  2  0  0  0  0  0  0  0  0  0
  149.6899  141.2638  155.0852 C   0  0  0  0  0  0  0  0  0  0  0  0
  150.6034  140.3039  154.9887 N   0  0  0  0  0  0  0  0  0  0  0  0
  151.4111  140.5836  156.0323 N   0  0  0  0  0  0  0  0  0  0  0  0
  150.9749  141.6712  156.6804 C   0  0  0  0  0  0  0  0  0  0  0  0
  151.6198  142.2577  157.8573 C   0  0  0  0  0  0  0  0  0  0  0  0
  152.2556  141.4311  158.8126 C   0  0  0  0  0  0  0  0  0  0  0  0
  152.8763  141.9943  159.9446 C   0  0  0  0  0  0  0  0  0  0  0  0
  152.8680  143.3889  160.1333 C   0  0  0  0  0  0  0  0  0  0  0  0
  152.2380  144.2203  159.1888 C   0  0  0  0  0  0  0  0  0  0  0  0
  151.6172  143.6583  158.0563 C   0  0  0  0  0  0  0  0  0  0  0  0
  149.8718  142.1540  156.1072 N   0  0  0  0  0  0  0  0  0  0  0  0
  147.2234  141.6545  154.7299 C   0  0  0  0  0  0  0  0  0  0  0  0
  146.8893  139.7152  155.6154 H   0  0  0  0  0  0  0  0  0  0  0  0
  148.8325  142.1868  153.3824 H   0  0  0  0  0  0  0  0  0  0  0  0
  152.2270  140.0316  156.2562 H   0  0  0  0  0  0  0  0  0  0  0  0
  144.8050  140.2490  153.9069 H   0  0  0  0  0  0  0  0  0  0  0  0
  147.0018  138.5536  153.4850 H   0  0  0  0  0  0  0  0  0  0  0  0
  146.4725  139.9924  152.6075 H   0  0  0  0  0  0  0  0  0  0  0  0
  149.0635  139.4428  153.7097 H   0  0  0  0  0  0  0  0  0  0  0  0
  152.2742  140.3583  158.6890 H   0  0  0  0  0  0  0  0  0  0  0  0
  153.3588  141.3552  160.6695 H   0  0  0  0  0  0  0  0  0  0  0  0
  153.3439  143.8204  161.0017 H   0  0  0  0  0  0  0  0  0  0  0  0
  152.2302  145.2908  159.3329 H   0  0  0  0  0  0  0  0  0  0  0  0
  151.1395  144.3153  157.3444 H   0  0  0  0  0  0  0  0  0  0  0  0
  146.6543  142.3273  154.0860 H   0  0  0  0  0  0  0  0  0  0  0  0
  147.2916  142.1241  155.7124 H   0  0  0  0  0  0  0  0  0  0  0  0
  148.6612  140.2638  152.3340 H   0  0  0  0  0  0  0  0  0  0  0  0
  1  2  1  0  0  0  0
  1 21  1  0  0  0  0
  2 18  1  0  0  0  0
  2 17  1  0  0  0  0
  2  3  1  0  0  0  0
  3  4  1  0  0  0  0
  3 22  1  0  0  0  0
  3 23  1  0  0  0  0
  4  5  1  0  0  0  0
  4 24  1  0  0  0  0
  4 32  1  0  0  0  0
  5 19  1  0  0  0  0
  5  6  1  0  0  0  0
  5 17  1  0  0  0  0
  6 16  1  0  0  0  0
  6  7  2  0  0  0  0
  7  8  1  0  0  0  0
  8 20  1  0  0  0  0
  8  9  1  0  0  0  0
  9 10  1  0  0  0  0
  9 16  2  0  0  0  0
 10 15  1  0  0  0  0
 10 11  2  0  0  0  0
 11 12  1  0  0  0  0
 11 25  1  0  0  0  0
 12 13  2  0  0  0  0
 12 26  1  0  0  0  0
 13 14  1  0  0  0  0
 13 27  1  0  0  0  0
 14 15  2  0  0  0  0
 14 28  1  0  0  0  0
 15 29  1  0  0  0  0
 17 30  1  0  0  0  0
 17 31  1  0  0  0  0
M  CHG  1   4   1
M  END
> <s_m_source_file>
AV-unprocessed.smi

> <i_m_source_file_index>
47

> <i_lp_mmshare_version>
43012

> <i_f3d_flags>
0

> <s_epik_input>
W09IXVtDQEhdMVtDSDJdW05IXVtDQEBIXShbQ0gyXTEpYzJuW25IXWMobjIpLWMzW2NIXVtjSF1bY0hdW2NIXVtjSF0z

> <s_epik_cmdline>
J2VwaWtfcHl0aG9uJywgJy1waCcsICc3LjAnLCAnLXRuJywgJzgnLCAnLW1hJywgJzIwMCcsICctbWV0YWxfYmluZGluZycsICctaW1hZScsICc8aW5maWxlLm1hZT4nLCAnLW9tYWUnLCAnPG91dGZpbGUubWFlPic=

> <r_lp_tautomer_probability>
0.948284

> <r_epik_Ionization_Penalty>
0.163822

> <r_epik_Ionization_Penalty_Charging>
0.0371552

> <r_epik_Ionization_Penalty_Neutral>
0.126667

> <r_epik_State_Penalty>
0.318338

> <r_epik_Charging_Adjusted_Penalty>
0.355493

> <i_epik_Tot_Q>
1

> <i_epik_Tot_abs_Q>
1

> <r_epik_Metal_State_Penalty>
0.81572

> <b_epik_Metal_Only>
0

> <s_lp_Force_Field>
OPLS_2005

> <r_lp_Energy>
24.5404

> <b_lp_Chiralities_Consistent>
1

> <s_lp_Variant>
AV-unprocessed.smi:47-1

> <Gold.Version>
5.8.1

> <Gold.Id.Protein>
6NUR|6NUR_protein|mol2

> <Gold.PLP.Fitness>
43.8144

> <Gold.PLP.PLP>
-36.5197

> <Gold.PLP.part.hbond>
-2.7712

> <Gold.PLP.part.metal>
0.0000

> <Gold.PLP.part.buried>
-5.9144

> <Gold.PLP.part.nonpolar>
-30.6745

> <Gold.PLP.part.repulsive>
2.6753

> <Gold.PLP.ligand.clash>
0.0000

> <Gold.PLP.ligand.torsion>
0.8602

> <Gold.PLP.Chemscore.Hbond>
3.0000

> <Gold.PLP.Chemscore.CHOScore>
0.0000

> <Gold.PLP.Chemscore.Metal>
0.0000

> <Gold.Chemscore.Hbonds>
donor molecule, donor type, donor heavy atom, donor atom, acceptor molecule, acceptor atom, score
      L1  H     1    21       P1 10175  1.00
      L1  H     4    32       P1  7957  0.96
      P1  H  7989  7998       L1     7  1.00

> <Gold.PLP.Chemscore.Internal.Correction>
0.0150

> <Gold.Rescore>
     Score         DG    S(hbond)    S(metal)    S(lipo)     H(rot)  DE(clash)    DE(int)     intcor
     17.11     -18.70       2.04        0.00      87.40       1.50       0.76       0.83       ----

> <Gold.Chemscore.Fitness>
17.1095

> <Gold.Chemscore.DG>
-18.7027

> <Gold.Chemscore.ZeroCoef>
-5.4800

> <Gold.Chemscore.Hbond>
2.0443

> <Gold.Chemscore.Metal>
0.0000

> <Gold.Chemscore.Lipo>
87.4011

> <Gold.Chemscore.Internal_Hbond>
0.0000

> <Gold.Chemscore.DEClash>
0.7620

> <Gold.Chemscore.DEInternal>
0.8312

> <Gold.Chemscore.Rot>
1.4966

> <Gold.Chemscore.Internal.Correction>
   9.000000E+99

> <Gold.Chemscore.Hbonds>
donor molecule, donor type, donor heavy atom, donor atom, acceptor molecule, acceptor atom, score
      L1  H     1    21       P1 10175  0.99
      L1  H     4    32       P1  7957  0.87
      P1  H  7989  7998       L1     7  0.14

> <Gold.Chemscore.Hbond.Weighted>
-6.8280

> <Gold.Chemscore.Metal.Weighted>
-0.0000

> <Gold.Chemscore.Lipo.Weighted>
-10.2259

> <Gold.Chemscore.Internal_Hbond.Weighted>
0.0000

> <Gold.Chemscore.DEClash.Weighted>
0.7620

> <Gold.Chemscore.DEInternal.Weighted>
0.8312

> <Gold.Chemscore.Rot.Weighted>
3.8312

> <Gold.Chemscore.Internal.Correction.Weighted>
   9.000000E+99

> <Gold.Protein.RotatedTorsions>
[ 6907 6896 6895 6894 ] final  -88.91 input  -60.11 | X-H torsion
[ 7974 7965 7964 7962 ] final  164.26 input  175.53 | X-H torsion
[ 8008 7997 7996 7995 ] final  132.24 input   59.86 | X-H torsion
[ 10167 10162 10161 10158 ] final   50.60 input  -65.29 | X-H torsion
[ 10718 10713 10712 10709 ] final -117.40 input   66.30 | X-H torsion
[ 10763 10752 10751 10750 ] final  -55.31 input  -60.55 | X-H torsion
[ 11005 11000 10999 10996 ] final  -43.15 input  -57.11 | X-H torsion

> <Gold.Protein.ActiveResidues>
 VAL166  LYS551  ARG553  GLY616  TRP617  ASP618  TYR619  PRO620  LYS621  CYS622 
 ASP623  PHE694  ASN695  SER759  ASP760  ASP761  ALA762  ILE779  LEU786  VAL792 
 PHE793  MET794  SER795  GLU796  ALA797  LYS798  CYS799  TRP800  GLU811  SER814 

> <Gold.Protein.RotatedAtoms>
  150.6871  134.2668  159.4571 H   0  0  0  0  0  0  0  0  0  0  0  0  # atno 6907 bound_to 6896
  152.0593  134.9602  160.0584 H   0  0  0  0  0  0  0  0  0  0  0  0  # atno 6908 bound_to 6896
  152.1035  133.4227  159.4635 H   0  0  0  0  0  0  0  0  0  0  0  0  # atno 6909 bound_to 6896
  144.7553  139.8300  143.6352 H   0  0  0  0  0  0  0  0  0  0  0  0  # atno 7974 bound_to 7965
  156.2980  140.2551  156.3057 H   0  0  0  0  0  0  0  0  0  0  0  0  # atno 8008 bound_to 7997
  154.9375  140.0397  157.2098 H   0  0  0  0  0  0  0  0  0  0  0  0  # atno 8009 bound_to 7997
  154.8159  140.2852  155.5825 H   0  0  0  0  0  0  0  0  0  0  0  0  # atno 8010 bound_to 7997
  140.2707  144.3269  150.6291 H   0  0  0  0  0  0  0  0  0  0  0  0  # atno 10167 bound_to 10162
  156.1031  130.6188  150.9159 H   0  0  0  0  0  0  0  0  0  0  0  0  # atno 10718 bound_to 10713
  154.1888  135.6431  153.5054 H   0  0  0  0  0  0  0  0  0  0  0  0  # atno 10763 bound_to 10752
  153.0040  135.5423  154.6437 H   0  0  0  0  0  0  0  0  0  0  0  0  # atno 10764 bound_to 10752
  154.5821  135.2926  155.0695 H   0  0  0  0  0  0  0  0  0  0  0  0  # atno 10765 bound_to 10752
  141.0364  133.6798  156.2693 H   0  0  0  0  0  0  0  0  0  0  0  0  # atno 11005 bound_to 11000
  146.1555  139.4652  143.0021 LP  0  0  0  0  0  0  0  0  0  0  0  0  # atno 17320 bound_to 7965
  145.6801  141.0193  143.1611 LP  0  0  0  0  0  0  0  0  0  0  0  0  # atno 17321 bound_to 7965
  140.5892  143.2168  151.7285 LP  0  0  0  0  0  0  0  0  0  0  0  0  # atno 17342 bound_to 10162
  139.4990  144.3965  152.0226 LP  0  0  0  0  0  0  0  0  0  0  0  0  # atno 17343 bound_to 10162
  157.6204  131.0930  150.8632 LP  0  0  0  0  0  0  0  0  0  0  0  0  # atno 17370 bound_to 10713
  156.8756  130.5161  149.5294 LP  0  0  0  0  0  0  0  0  0  0  0  0  # atno 17371 bound_to 10713
  140.6314  134.5260  157.5560 LP  0  0  0  0  0  0  0  0  0  0  0  0  # atno 17394 bound_to 11000
  139.9244  134.8086  156.1114 LP  0  0  0  0  0  0  0  0  0  0  0  0  # atno 17395 bound_to 11000

$$$$
