AV-unprocessed.smi:916|AV-procd|sdf|4158|dock5
  -GOLD-   22720 2 63D 1   1.00000     0.00000
 Structure written by MMmdl.
 43 44  0  0  0  0  0  0  0  0  1 V2000
  141.5873  136.5195  154.1690 C   0  0  0  0  0  0  0  0  0  0  0  0
  142.0822  135.1755  153.6234 C   0  0  0  0  0  0  0  0  0  0  0  0
  143.3868  135.3001  152.8963 C   0  0  0  0  0  0  0  0  0  0  0  0
  143.6282  134.9923  151.5796 C   0  0  0  0  0  0  0  0  0  0  0  0
  145.2859  135.2916  151.1308 S   0  0  0  0  0  0  0  0  0  0  0  0
  145.5942  135.8240  152.7759 C   0  0  0  0  0  0  0  0  0  0  0  0
  146.8728  136.2803  153.1900 N   0  0  0  0  0  0  0  0  0  0  0  0
  147.1915  136.9586  154.3061 C   0  0  0  0  0  0  0  0  0  0  0  0
  146.4089  137.2440  155.2130 O   0  0  0  0  0  0  0  0  0  0  0  0
  148.4923  137.2838  154.3193 N   0  0  0  0  0  0  0  0  0  0  0  0
  149.1725  138.0178  155.3821 C   0  0  0  0  0  0  0  0  0  0  0  0
  150.5128  138.6053  154.9002 C   0  0  2  0  0  0  0  0  0  0  0  0
  151.5947  137.5759  154.6324 C   0  0  0  0  0  0  0  0  0  0  0  0
  152.8580  138.4300  154.6563 C   0  0  0  0  0  0  0  0  0  0  0  0
  152.5953  139.4887  155.5721 O   0  0  0  0  0  0  0  0  0  0  0  0
  151.2170  139.4929  155.9375 C   0  0  1  0  0  0  0  0  0  0  0  0
  150.6807  140.9362  156.0833 C   0  0  0  0  0  0  0  0  0  0  0  0
  151.3309  141.7196  157.2380 C   0  0  0  0  0  0  0  0  0  0  0  0
  149.1505  140.9388  156.2233 C   0  0  0  0  0  0  0  0  0  0  0  0
  144.5185  135.7714  153.5696 N   0  0  0  0  0  0  0  0  0  0  0  0
  140.6398  136.3997  154.6944 H   0  0  0  0  0  0  0  0  0  0  0  0
  141.4327  137.2390  153.3642 H   0  0  0  0  0  0  0  0  0  0  0  0
  142.3051  136.9479  154.8692 H   0  0  0  0  0  0  0  0  0  0  0  0
  142.1805  134.4689  154.4482 H   0  0  0  0  0  0  0  0  0  0  0  0
  141.3249  134.7561  152.9603 H   0  0  0  0  0  0  0  0  0  0  0  0
  142.9315  134.6110  150.8480 H   0  0  0  0  0  0  0  0  0  0  0  0
  147.6302  136.0823  152.5529 H   0  0  0  0  0  0  0  0  0  0  0  0
  149.0579  137.0040  153.5313 H   0  0  0  0  0  0  0  0  0  0  0  0
  148.5102  138.8244  155.6960 H   0  0  0  0  0  0  0  0  0  0  0  0
  149.3216  137.3894  156.2619 H   0  0  0  0  0  0  0  0  0  0  0  0
  150.3495  139.1644  153.9794 H   0  0  0  0  0  0  0  0  0  0  0  0
  151.6268  136.8388  155.4362 H   0  0  0  0  0  0  0  0  0  0  0  0
  151.4620  137.0452  153.6892 H   0  0  0  0  0  0  0  0  0  0  0  0
  153.7405  137.8596  154.9473 H   0  0  0  0  0  0  0  0  0  0  0  0
  153.0427  138.8630  153.6726 H   0  0  0  0  0  0  0  0  0  0  0  0
  151.1531  138.9921  156.9052 H   0  0  0  0  0  0  0  0  0  0  0  0
  150.9102  141.4681  155.1597 H   0  0  0  0  0  0  0  0  0  0  0  0
  151.1757  141.2210  158.1952 H   0  0  0  0  0  0  0  0  0  0  0  0
  150.9056  142.7204  157.3164 H   0  0  0  0  0  0  0  0  0  0  0  0
  152.4033  141.8436  157.0947 H   0  0  0  0  0  0  0  0  0  0  0  0
  148.8343  140.4302  157.1347 H   0  0  0  0  0  0  0  0  0  0  0  0
  148.6762  140.4358  155.3802 H   0  0  0  0  0  0  0  0  0  0  0  0
  148.7599  141.9563  156.2586 H   0  0  0  0  0  0  0  0  0  0  0  0
  1  2  1  0  0  0  0
  1 21  1  0  0  0  0
  1 22  1  0  0  0  0
  1 23  1  0  0  0  0
  2  3  1  0  0  0  0
  2 24  1  0  0  0  0
  2 25  1  0  0  0  0
  3 20  1  0  0  0  0
  3  4  2  0  0  0  0
  4  5  1  0  0  0  0
  4 26  1  0  0  0  0
  5  6  1  0  0  0  0
  6  7  1  0  0  0  0
  6 20  2  0  0  0  0
  7  8  1  0  0  0  0
  7 27  1  0  0  0  0
  8  9  2  0  0  0  0
  8 10  1  0  0  0  0
 10 11  1  0  0  0  0
 10 28  1  0  0  0  0
 11 12  1  0  0  0  0
 11 29  1  0  0  0  0
 11 30  1  0  0  0  0
 12 16  1  0  0  0  0
 12 13  1  0  0  0  0
 12 31  1  0  0  0  0
 13 14  1  0  0  0  0
 13 32  1  0  0  0  0
 13 33  1  0  0  0  0
 14 15  1  0  0  0  0
 14 34  1  0  0  0  0
 14 35  1  0  0  0  0
 15 16  1  0  0  0  0
 16 17  1  0  0  0  0
 16 36  1  0  0  0  0
 17 18  1  0  0  0  0
 17 19  1  0  0  0  0
 17 37  1  0  0  0  0
 18 38  1  0  0  0  0
 18 39  1  0  0  0  0
 18 40  1  0  0  0  0
 19 41  1  0  0  0  0
 19 42  1  0  0  0  0
 19 43  1  0  0  0  0
M  END
> <s_m_source_file>
AV-unprocessed.smi

> <i_m_source_file_index>
916

> <i_lp_mmshare_version>
43012

> <i_f3d_flags>
0

> <s_epik_input>
W0NIM11bQ0gyXWMxW2NIXXNjKG4xKVtOSF1DKD1PKVtOSF1bQ0gyXVtDQEBIXTJbQ0gyXVtDSDJdT1tDQEhdMltDSF0oW0NIM10pW0NIM10=

> <s_epik_cmdline>
J2VwaWtfcHl0aG9uJywgJy1waCcsICc3LjAnLCAnLXRuJywgJzgnLCAnLW1hJywgJzIwMCcsICctbWV0YWxfYmluZGluZycsICctaW1hZScsICc8aW5maWxlLm1hZT4nLCAnLW9tYWUnLCAnPG91dGZpbGUubWFlPic=

> <r_lp_tautomer_probability>
0.999

> <r_epik_Ionization_Penalty>
0.000518907

> <r_epik_Ionization_Penalty_Charging>
0

> <r_epik_Ionization_Penalty_Neutral>
0.000518907

> <r_epik_State_Penalty>
0.000177984

> <r_epik_Charging_Adjusted_Penalty>
0.000177984

> <i_epik_Tot_Q>
0

> <i_epik_Tot_abs_Q>
0

> <r_epik_Metal_State_Penalty>
-0

> <b_epik_Metal_Only>
0

> <s_lp_Force_Field>
OPLS_2005

> <r_lp_Energy>
16.7546

> <b_lp_Chiralities_Consistent>
1

> <s_lp_Variant>
AV-unprocessed.smi:916-1

> <Gold.Version>
5.8.1

> <Gold.Id.Protein>
6NUR|6NUR_protein|mol2

> <Gold.PLP.Fitness>
44.9017

> <Gold.PLP.PLP>
-33.8561

> <Gold.PLP.part.hbond>
-3.4624

> <Gold.PLP.part.metal>
0.0000

> <Gold.PLP.part.buried>
-5.5230

> <Gold.PLP.part.nonpolar>
-26.2339

> <Gold.PLP.part.repulsive>
0.0773

> <Gold.PLP.ligand.clash>
0.0000

> <Gold.PLP.ligand.torsion>
0.2762

> <Gold.PLP.Chemscore.Hbond>
2.8448

> <Gold.PLP.Chemscore.CHOScore>
1.0000

> <Gold.PLP.Chemscore.Metal>
0.0000

> <Gold.Chemscore.Hbonds>
donor molecule, donor type, donor heavy atom, donor atom, acceptor molecule, acceptor atom, score
      L1  H     7    27       P1  7948  0.91
      L1  H    10    28       P1  7948  0.88
      P1  H  7997  8010       L1    15  1.00
      L1  C     4    26       P1 10186  0.94

> <Gold.PLP.Chemscore.Internal.Correction>
0.0638

> <Gold.Rescore>
     Score         DG    S(hbond)    S(metal)    S(lipo)     H(rot)  DE(clash)    DE(int)     intcor
     18.16     -19.72       2.84        0.00      74.03       1.52       0.07       1.48       ----

> <Gold.Chemscore.Fitness>
18.1643

> <Gold.Chemscore.DG>
-19.7157

> <Gold.Chemscore.ZeroCoef>
-5.4800

> <Gold.Chemscore.Hbond>
2.8368

> <Gold.Chemscore.Metal>
0.0000

> <Gold.Chemscore.Lipo>
74.0311

> <Gold.Chemscore.Internal_Hbond>
0.0000

> <Gold.Chemscore.DEClash>
0.0727

> <Gold.Chemscore.DEInternal>
1.4787

> <Gold.Chemscore.Rot>
1.5238

> <Gold.Chemscore.Internal.Correction>
   9.000000E+99

> <Gold.Chemscore.Hbonds>
donor molecule, donor type, donor heavy atom, donor atom, acceptor molecule, acceptor atom, score
      L1  H     7    27       P1  7948  0.87
      L1  H    10    28       P1  7948  0.86
      P1  H  7997  8010       L1    15  0.49

> <Gold.Chemscore.Hbond.Weighted>
-9.4749

> <Gold.Chemscore.Metal.Weighted>
-0.0000

> <Gold.Chemscore.Lipo.Weighted>
-8.6616

> <Gold.Chemscore.Internal_Hbond.Weighted>
0.0000

> <Gold.Chemscore.DEClash.Weighted>
0.0727

> <Gold.Chemscore.DEInternal.Weighted>
1.4787

> <Gold.Chemscore.Rot.Weighted>
3.9008

> <Gold.Chemscore.Internal.Correction.Weighted>
   9.000000E+99

> <Gold.Protein.RotatedTorsions>
[ 6907 6896 6895 6894 ] final  178.82 input  -60.11 | X-H torsion
[ 7974 7965 7964 7962 ] final   -4.43 input  175.53 | X-H torsion
[ 8008 7997 7996 7995 ] final   92.70 input   59.86 | X-H torsion
[ 10167 10162 10161 10158 ] final   10.62 input  -65.29 | X-H torsion
[ 10718 10713 10712 10709 ] final -148.97 input   66.30 | X-H torsion
[ 10763 10752 10751 10750 ] final  -13.72 input  -60.55 | X-H torsion
[ 11005 11000 10999 10996 ] final -171.77 input  -57.11 | X-H torsion

> <Gold.Protein.ActiveResidues>
 VAL166  LYS551  ARG553  GLY616  TRP617  ASP618  TYR619  PRO620  LYS621  CYS622 
 ASP623  PHE694  ASN695  SER759  ASP760  ASP761  ALA762  ILE779  LEU786  VAL792 
 PHE793  MET794  SER795  GLU796  ALA797  LYS798  CYS799  TRP800  GLU811  SER814 

> <Gold.Protein.RotatedAtoms>
  151.6817  133.3312  159.3220 H   0  0  0  0  0  0  0  0  0  0  0  0  # atno 6907 bound_to 6896
  150.7820  134.6775  159.6435 H   0  0  0  0  0  0  0  0  0  0  0  0  # atno 6908 bound_to 6896
  152.3880  134.6491  160.0170 H   0  0  0  0  0  0  0  0  0  0  0  0  # atno 6909 bound_to 6896
  146.2372  140.1869  142.8332 H   0  0  0  0  0  0  0  0  0  0  0  0  # atno 7974 bound_to 7965
  156.0383  140.3322  155.7216 H   0  0  0  0  0  0  0  0  0  0  0  0  # atno 8008 bound_to 7997
  155.5782  140.0634  157.2807 H   0  0  0  0  0  0  0  0  0  0  0  0  # atno 8009 bound_to 7997
  154.4382  140.1848  156.0937 H   0  0  0  0  0  0  0  0  0  0  0  0  # atno 8010 bound_to 7997
  140.6183  143.8260  150.7144 H   0  0  0  0  0  0  0  0  0  0  0  0  # atno 10167 bound_to 10162
  156.4271  130.8057  151.2283 H   0  0  0  0  0  0  0  0  0  0  0  0  # atno 10718 bound_to 10713
  153.5175  135.7016  153.5749 H   0  0  0  0  0  0  0  0  0  0  0  0  # atno 10763 bound_to 10752
  153.3812  135.3919  155.1858 H   0  0  0  0  0  0  0  0  0  0  0  0  # atno 10764 bound_to 10752
  154.8698  135.3835  154.4660 H   0  0  0  0  0  0  0  0  0  0  0  0  # atno 10765 bound_to 10752
  140.5045  134.5861  157.4999 H   0  0  0  0  0  0  0  0  0  0  0  0  # atno 11005 bound_to 11000
  144.9889  140.8528  143.5351 LP  0  0  0  0  0  0  0  0  0  0  0  0  # atno 17320 bound_to 7965
  145.1873  139.2320  143.5261 LP  0  0  0  0  0  0  0  0  0  0  0  0  # atno 17321 bound_to 7965
  140.1844  143.4088  152.1909 LP  0  0  0  0  0  0  0  0  0  0  0  0  # atno 17342 bound_to 10162
  139.5417  144.7262  151.4713 LP  0  0  0  0  0  0  0  0  0  0  0  0  # atno 17343 bound_to 10162
  157.7508  131.0210  150.3731 LP  0  0  0  0  0  0  0  0  0  0  0  0  # atno 17370 bound_to 10713
  156.4061  130.3925  149.6925 LP  0  0  0  0  0  0  0  0  0  0  0  0  # atno 17371 bound_to 10713
  139.9694  134.7318  156.0072 LP  0  0  0  0  0  0  0  0  0  0  0  0  # atno 17394 bound_to 11000
  141.1418  133.6563  156.3752 LP  0  0  0  0  0  0  0  0  0  0  0  0  # atno 17395 bound_to 11000

$$$$
