AV-unprocessed.smi:374|AV-procd|sdf|2452|dock2
  -GOLD-   2262022393D 1   1.00000     0.00000
 Structure written by MMmdl.
 37 38  0  0  0  0  0  0  0  0  1 V2000
  152.6332  136.4234  157.8577 C   0  0  0  0  0  0  0  0  0  0  0  0
  152.1188  137.8673  157.6851 C   0  0  1  0  0  0  0  0  0  0  0  0
  153.0765  138.9044  158.2906 C   0  0  0  0  0  0  0  0  0  0  0  0
  154.2740  138.8922  158.0036 O   0  0  0  0  0  0  0  0  0  0  0  0
  152.5309  139.7990  159.1307 N   0  0  0  0  0  0  0  0  0  0  0  0
  153.2475  140.8802  159.8014 C   0  0  0  0  0  0  0  0  0  0  0  0
  152.3872  142.1512  159.9651 C   0  0  0  0  0  0  0  0  0  0  0  0
  152.4892  143.0358  158.7050 C   0  0  0  0  0  0  0  0  0  0  0  0
  151.6390  144.3108  158.8253 C   0  0  0  0  0  0  0  0  0  0  0  0
  152.0186  145.1154  160.0767 C   0  0  0  0  0  0  0  0  0  0  0  0
  151.9077  144.2501  161.3402 C   0  0  0  0  0  0  0  0  0  0  0  0
  152.7563  142.9737  161.2208 C   0  0  0  0  0  0  0  0  0  0  0  0
  151.8408  138.1969  156.2925 N   0  0  0  0  0  0  0  0  0  0  0  0
  151.4863  139.3607  155.7432 C   0  0  0  0  0  0  0  0  0  0  0  0
  151.3612  139.3191  154.4242 N   0  0  0  0  0  0  0  0  0  0  0  0
  151.6906  138.0115  154.2056 C   0  0  0  0  0  0  0  0  0  0  0  0
  151.9968  137.2976  155.2886 N   0  0  0  0  0  0  0  0  0  0  0  0
  152.7758  136.1821  158.9116 H   0  0  0  0  0  0  0  0  0  0  0  0
  153.5862  136.2625  157.3520 H   0  0  0  0  0  0  0  0  0  0  0  0
  151.9193  135.7054  157.4529 H   0  0  0  0  0  0  0  0  0  0  0  0
  151.1715  137.9361  158.2230 H   0  0  0  0  0  0  0  0  0  0  0  0
  151.5402  139.7320  159.3130 H   0  0  0  0  0  0  0  0  0  0  0  0
  153.6319  140.5544  160.7696 H   0  0  0  0  0  0  0  0  0  0  0  0
  154.1235  141.1093  159.1940 H   0  0  0  0  0  0  0  0  0  0  0  0
  151.3468  141.8372  160.0653 H   0  0  0  0  0  0  0  0  0  0  0  0
  153.5306  143.3115  158.5335 H   0  0  0  0  0  0  0  0  0  0  0  0
  152.1724  142.4717  157.8270 H   0  0  0  0  0  0  0  0  0  0  0  0
  151.7672  144.9275  157.9352 H   0  0  0  0  0  0  0  0  0  0  0  0
  150.5822  144.0440  158.8674 H   0  0  0  0  0  0  0  0  0  0  0  0
  153.0384  145.4893  159.9774 H   0  0  0  0  0  0  0  0  0  0  0  0
  151.3748  145.9910  160.1666 H   0  0  0  0  0  0  0  0  0  0  0  0
  152.2217  144.8241  162.2126 H   0  0  0  0  0  0  0  0  0  0  0  0
  150.8642  143.9798  161.5070 H   0  0  0  0  0  0  0  0  0  0  0  0
  152.6178  142.3771  162.1223 H   0  0  0  0  0  0  0  0  0  0  0  0
  153.8136  143.2403  161.1872 H   0  0  0  0  0  0  0  0  0  0  0  0
  151.3207  140.2588  156.3200 H   0  0  0  0  0  0  0  0  0  0  0  0
  151.7116  137.5745  153.2179 H   0  0  0  0  0  0  0  0  0  0  0  0
  1  2  1  0  0  0  0
  1 18  1  0  0  0  0
  1 19  1  0  0  0  0
  1 20  1  0  0  0  0
  2  3  1  0  0  0  0
  2 13  1  0  0  0  0
  2 21  1  0  0  0  0
  3  4  2  0  0  0  0
  3  5  1  0  0  0  0
  5  6  1  0  0  0  0
  5 22  1  0  0  0  0
  6  7  1  0  0  0  0
  6 23  1  0  0  0  0
  6 24  1  0  0  0  0
  7 12  1  0  0  0  0
  7  8  1  0  0  0  0
  7 25  1  0  0  0  0
  8  9  1  0  0  0  0
  8 26  1  0  0  0  0
  8 27  1  0  0  0  0
  9 10  1  0  0  0  0
  9 28  1  0  0  0  0
  9 29  1  0  0  0  0
 10 11  1  0  0  0  0
 10 30  1  0  0  0  0
 10 31  1  0  0  0  0
 11 12  1  0  0  0  0
 11 32  1  0  0  0  0
 11 33  1  0  0  0  0
 12 34  1  0  0  0  0
 12 35  1  0  0  0  0
 13 17  1  0  0  0  0
 13 14  1  0  0  0  0
 14 15  2  0  0  0  0
 14 36  1  0  0  0  0
 15 16  1  0  0  0  0
 16 17  2  0  0  0  0
 16 37  1  0  0  0  0
M  END
> <s_m_source_file>
AV-unprocessed.smi

> <i_m_source_file_index>
374

> <i_lp_mmshare_version>
43012

> <i_f3d_flags>
0

> <s_epik_input>
bjFbY0hdbltjSF1uMVtDQEhdKFtDSDNdKUMoPU8pW05IXVtDSDJdW0NIXTJbQ0gyXVtDSDJdW0NIMl1bQ0gyXVtDSDJdMg==

> <s_epik_cmdline>
J2VwaWtfcHl0aG9uJywgJy1waCcsICc3LjAnLCAnLXRuJywgJzgnLCAnLW1hJywgJzIwMCcsICctbWV0YWxfYmluZGluZycsICctaW1hZScsICc8aW5maWxlLm1hZT4nLCAnLW9tYWUnLCAnPG91dGZpbGUubWFlPic=

> <r_lp_tautomer_probability>
1

> <r_epik_Ionization_Penalty>
1.24899e-05

> <r_epik_Ionization_Penalty_Charging>
0

> <r_epik_Ionization_Penalty_Neutral>
1.24899e-05

> <r_epik_State_Penalty>
-0

> <r_epik_Charging_Adjusted_Penalty>
0

> <i_epik_Tot_Q>
0

> <i_epik_Tot_abs_Q>
0

> <r_epik_Metal_State_Penalty>
-0

> <b_epik_Metal_Only>
0

> <s_lp_Force_Field>
OPLS_2005

> <r_lp_Energy>
16.3067

> <b_lp_Chiralities_Consistent>
1

> <s_lp_Variant>
AV-unprocessed.smi:374-2

> <Gold.Version>
5.8.1

> <Gold.Id.Protein>
6NUR|6NUR_protein|mol2

> <Gold.PLP.Fitness>
46.2491

> <Gold.PLP.PLP>
-36.2128

> <Gold.PLP.part.hbond>
-2.7511

> <Gold.PLP.part.metal>
0.0000

> <Gold.PLP.part.buried>
-3.7736

> <Gold.PLP.part.nonpolar>
-30.9876

> <Gold.PLP.part.repulsive>
0.3020

> <Gold.PLP.ligand.clash>
0.0000

> <Gold.PLP.ligand.torsion>
0.8887

> <Gold.PLP.Chemscore.Hbond>
2.8960

> <Gold.PLP.Chemscore.CHOScore>
1.0000

> <Gold.PLP.Chemscore.Metal>
0.0000

> <Gold.Chemscore.Hbonds>
donor molecule, donor type, donor heavy atom, donor atom, acceptor molecule, acceptor atom, score
      P1  H  7989  7998       L1    15  1.00
      P1  H  7997  8008       L1     4  0.96
      P1  H 10752 10764       L1    17  0.84
      L1  C    16    37       P1  7949  1.00

> <Gold.PLP.Chemscore.Internal.Correction>
0.1257

> <Gold.Rescore>
     Score         DG    S(hbond)    S(metal)    S(lipo)     H(rot)  DE(clash)    DE(int)     intcor
     17.64     -18.60       2.62        0.00      84.17       2.14       0.04       0.92       ----

> <Gold.Chemscore.Fitness>
17.6447

> <Gold.Chemscore.DG>
-18.5997

> <Gold.Chemscore.ZeroCoef>
-5.4800

> <Gold.Chemscore.Hbond>
2.6184

> <Gold.Chemscore.Metal>
0.0000

> <Gold.Chemscore.Lipo>
84.1740

> <Gold.Chemscore.Internal_Hbond>
0.0000

> <Gold.Chemscore.DEClash>
0.0363

> <Gold.Chemscore.DEInternal>
0.9187

> <Gold.Chemscore.Rot>
2.1383

> <Gold.Chemscore.Internal.Correction>
   9.000000E+99

> <Gold.Chemscore.Hbonds>
donor molecule, donor type, donor heavy atom, donor atom, acceptor molecule, acceptor atom, score
      P1  H  7989  7998       L1    15  0.95
      P1  H  7997  8008       L1     4  0.71
      P1  H 10752 10764       L1    17  0.48

> <Gold.Chemscore.Hbond.Weighted>
-8.7454

> <Gold.Chemscore.Metal.Weighted>
-0.0000

> <Gold.Chemscore.Lipo.Weighted>
-9.8484

> <Gold.Chemscore.Internal_Hbond.Weighted>
0.0000

> <Gold.Chemscore.DEClash.Weighted>
0.0363

> <Gold.Chemscore.DEInternal.Weighted>
0.9187

> <Gold.Chemscore.Rot.Weighted>
5.4741

> <Gold.Chemscore.Internal.Correction.Weighted>
   9.000000E+99

> <Gold.Protein.RotatedTorsions>
[ 6907 6896 6895 6894 ] final   65.07 input  -60.11 | X-H torsion
[ 7974 7965 7964 7962 ] final  -92.40 input  175.53 | X-H torsion
[ 8008 7997 7996 7995 ] final  -86.79 input   59.86 | X-H torsion
[ 10167 10162 10161 10158 ] final -173.25 input  -65.29 | X-H torsion
[ 10718 10713 10712 10709 ] final -126.01 input   66.30 | X-H torsion
[ 10763 10752 10751 10750 ] final  -56.13 input  -60.55 | X-H torsion
[ 11005 11000 10999 10996 ] final -131.43 input  -57.11 | X-H torsion

> <Gold.Protein.ActiveResidues>
 VAL166  LYS551  ARG553  GLY616  TRP617  ASP618  TYR619  PRO620  LYS621  CYS622 
 ASP623  PHE694  ASN695  SER759  ASP760  ASP761  ALA762  ILE779  LEU786  VAL792 
 PHE793  MET794  SER795  GLU796  ALA797  LYS798  CYS799  TRP800  GLU811  SER814 

> <Gold.Protein.RotatedAtoms>
  152.4380  134.5648  159.9904 H   0  0  0  0  0  0  0  0  0  0  0  0  # atno 6907 bound_to 6896
  151.5754  133.3379  159.3005 H   0  0  0  0  0  0  0  0  0  0  0  0  # atno 6908 bound_to 6896
  150.8281  134.7556  159.6894 H   0  0  0  0  0  0  0  0  0  0  0  0  # atno 6909 bound_to 6896
  145.4004  140.9537  143.2290 H   0  0  0  0  0  0  0  0  0  0  0  0  # atno 7974 bound_to 7965
  154.6559  140.0574  157.0008 H   0  0  0  0  0  0  0  0  0  0  0  0  # atno 8008 bound_to 7997
  155.1301  140.3255  155.4458 H   0  0  0  0  0  0  0  0  0  0  0  0  # atno 8009 bound_to 7997
  156.2597  140.1982  156.6420 H   0  0  0  0  0  0  0  0  0  0  0  0  # atno 8010 bound_to 7997
  139.5698  144.1668  152.1368 H   0  0  0  0  0  0  0  0  0  0  0  0  # atno 10167 bound_to 10162
  156.1727  130.6678  151.0201 H   0  0  0  0  0  0  0  0  0  0  0  0  # atno 10718 bound_to 10713
  154.2018  135.6409  153.5089 H   0  0  0  0  0  0  0  0  0  0  0  0  # atno 10763 bound_to 10752
  153.0010  135.5453  154.6307 H   0  0  0  0  0  0  0  0  0  0  0  0  # atno 10764 bound_to 10752
  154.5722  135.2918  155.0789 H   0  0  0  0  0  0  0  0  0  0  0  0  # atno 10765 bound_to 10752
  140.9259  134.1383  157.4276 H   0  0  0  0  0  0  0  0  0  0  0  0  # atno 11005 bound_to 11000
  144.8378  139.5521  143.6914 LP  0  0  0  0  0  0  0  0  0  0  0  0  # atno 17320 bound_to 7965
  146.2755  139.6741  142.9266 LP  0  0  0  0  0  0  0  0  0  0  0  0  # atno 17321 bound_to 7965
  140.1198  144.5383  150.6870 LP  0  0  0  0  0  0  0  0  0  0  0  0  # atno 17342 bound_to 10162
  140.6983  143.2418  151.4938 LP  0  0  0  0  0  0  0  0  0  0  0  0  # atno 17343 bound_to 10162
  157.6814  131.0837  150.7360 LP  0  0  0  0  0  0  0  0  0  0  0  0  # atno 17370 bound_to 10713
  156.7419  130.4741  149.5475 LP  0  0  0  0  0  0  0  0  0  0  0  0  # atno 17371 bound_to 10713
  139.8785  134.9988  156.5919 LP  0  0  0  0  0  0  0  0  0  0  0  0  # atno 17394 bound_to 11000
  140.7927  133.8569  155.8659 LP  0  0  0  0  0  0  0  0  0  0  0  0  # atno 17395 bound_to 11000

$$$$
