AV-unprocessed.smi:232|AV-procd|sdf|1779|dock2
  -GOLD-   2262020323D 1   1.00000     0.00000
 Structure written by MMmdl.
 52 55  0  0  0  0  0  0  0  0  1 V2000
  152.4427  145.0172  158.5974 C   0  0  0  0  0  0  0  0  0  0  0  0
  151.5381  144.7999  159.8180 C   0  0  0  0  0  0  0  0  0  0  0  0
  151.7314  143.4255  160.4844 C   0  0  2  0  0  0  0  0  0  0  0  0
  152.4320  143.5100  161.8525 C   0  0  0  0  0  0  0  0  0  0  0  0
  153.3167  142.2680  161.8920 C   0  0  0  0  0  0  0  0  0  0  0  0
  153.7360  142.1551  160.4301 C   0  0  1  0  0  0  0  0  0  0  0  0
  154.4199  140.8251  160.0543 C   0  0  0  0  0  0  0  0  0  0  0  0
  152.5433  142.5198  159.6620 N   0  0  0  0  0  0  0  0  0  0  0  0
  151.8741  141.5291  159.0244 C   0  0  0  0  0  0  0  0  0  0  0  0
  151.7610  140.2964  159.5869 N   0  0  0  0  0  0  0  0  0  0  0  0
  151.1026  139.3270  158.9436 C   0  0  0  0  0  0  0  0  0  0  0  0
  150.4995  139.3742  157.7532 N   0  0  0  0  0  0  0  0  0  0  0  0
  150.6231  140.6081  157.1850 C   0  0  0  0  0  0  0  0  0  0  0  0
  151.2921  141.7307  157.7462 C   0  0  0  0  0  0  0  0  0  0  0  0
  151.2173  142.8147  156.8809 N   0  0  0  0  0  0  0  0  0  0  0  0
  150.5354  142.3594  155.8649 C   0  0  0  0  0  0  0  0  0  0  0  0
  150.1354  141.0460  155.9674 N   0  0  0  0  0  0  0  0  0  0  0  0
  149.3595  140.2923  154.9994 C   0  0  0  0  0  0  0  0  0  0  0  0
  148.5335  141.2079  154.0756 C   0  0  1  0  0  0  0  0  0  0  0  0
  147.9891  140.4689  152.9984 O   0  0  0  0  0  0  0  0  0  0  0  0
  147.4205  141.9676  154.8247 C   0  0  1  0  0  0  0  0  0  0  0  0
  146.5393  142.8916  153.9795 C   0  0  0  0  0  0  0  0  0  0  0  0
  145.2906  142.9664  154.8292 C   0  0  0  0  0  0  0  0  0  0  0  0
  145.1911  141.5392  155.3615 C   0  0  0  0  0  0  0  0  0  0  0  0
  146.5331  141.0798  155.5012 O   0  0  0  0  0  0  0  0  0  0  0  0
  152.2281  145.9746  158.1224 H   0  0  0  0  0  0  0  0  0  0  0  0
  152.2931  144.2354  157.8525 H   0  0  0  0  0  0  0  0  0  0  0  0
  153.4964  145.0178  158.8764 H   0  0  0  0  0  0  0  0  0  0  0  0
  151.7048  145.5952  160.5457 H   0  0  0  0  0  0  0  0  0  0  0  0
  150.5004  144.8934  159.4958 H   0  0  0  0  0  0  0  0  0  0  0  0
  150.7425  142.9997  160.6565 H   0  0  0  0  0  0  0  0  0  0  0  0
  153.0613  144.3998  161.9039 H   0  0  0  0  0  0  0  0  0  0  0  0
  151.7280  143.5533  162.6839 H   0  0  0  0  0  0  0  0  0  0  0  0
  154.1629  142.3707  162.5716 H   0  0  0  0  0  0  0  0  0  0  0  0
  152.7346  141.3960  162.1941 H   0  0  0  0  0  0  0  0  0  0  0  0
  154.4598  142.9466  160.2304 H   0  0  0  0  0  0  0  0  0  0  0  0
  155.3309  140.6857  160.6363 H   0  0  0  0  0  0  0  0  0  0  0  0
  154.7003  140.8084  159.0007 H   0  0  0  0  0  0  0  0  0  0  0  0
  153.7773  139.9655  160.2478 H   0  0  0  0  0  0  0  0  0  0  0  0
  151.0508  138.3781  159.4567 H   0  0  0  0  0  0  0  0  0  0  0  0
  150.2976  142.9754  155.0099 H   0  0  0  0  0  0  0  0  0  0  0  0
  150.0398  139.6697  154.4168 H   0  0  0  0  0  0  0  0  0  0  0  0
  148.7024  139.6129  155.5439 H   0  0  0  0  0  0  0  0  0  0  0  0
  149.2036  141.9478  153.6357 H   0  0  0  0  0  0  0  0  0  0  0  0
  148.6249  139.8232  152.7300 H   0  0  0  0  0  0  0  0  0  0  0  0
  147.8851  142.5747  155.6037 H   0  0  0  0  0  0  0  0  0  0  0  0
  146.9948  143.8656  153.7996 H   0  0  0  0  0  0  0  0  0  0  0  0
  146.2961  142.4461  153.0143 H   0  0  0  0  0  0  0  0  0  0  0  0
  145.4385  143.6665  155.6526 H   0  0  0  0  0  0  0  0  0  0  0  0
  144.4075  143.2759  154.2696 H   0  0  0  0  0  0  0  0  0  0  0  0
  144.6491  141.4822  156.3056 H   0  0  0  0  0  0  0  0  0  0  0  0
  144.6816  140.9007  154.6390 H   0  0  0  0  0  0  0  0  0  0  0  0
  1  2  1  0  0  0  0
  1 26  1  0  0  0  0
  1 27  1  0  0  0  0
  1 28  1  0  0  0  0
  2  3  1  0  0  0  0
  2 29  1  0  0  0  0
  2 30  1  0  0  0  0
  3  8  1  0  0  0  0
  3  4  1  0  0  0  0
  3 31  1  0  0  0  0
  4  5  1  0  0  0  0
  4 32  1  0  0  0  0
  4 33  1  0  0  0  0
  5  6  1  0  0  0  0
  5 34  1  0  0  0  0
  5 35  1  0  0  0  0
  6  7  1  0  0  0  0
  6  8  1  0  0  0  0
  6 36  1  0  0  0  0
  7 37  1  0  0  0  0
  7 38  1  0  0  0  0
  7 39  1  0  0  0  0
  8  9  1  0  0  0  0
  9 14  1  0  0  0  0
  9 10  2  0  0  0  0
 10 11  1  0  0  0  0
 11 12  2  0  0  0  0
 11 40  1  0  0  0  0
 12 13  1  0  0  0  0
 13 17  1  0  0  0  0
 13 14  2  0  0  0  0
 14 15  1  0  0  0  0
 15 16  2  0  0  0  0
 16 17  1  0  0  0  0
 16 41  1  0  0  0  0
 17 18  1  0  0  0  0
 18 19  1  0  0  0  0
 18 42  1  0  0  0  0
 18 43  1  0  0  0  0
 19 20  1  0  0  0  0
 19 21  1  0  0  0  0
 19 44  1  0  0  0  0
 20 45  1  0  0  0  0
 21 25  1  0  0  0  0
 21 22  1  0  0  0  0
 21 46  1  0  0  0  0
 22 23  1  0  0  0  0
 22 47  1  0  0  0  0
 22 48  1  0  0  0  0
 23 24  1  0  0  0  0
 23 49  1  0  0  0  0
 23 50  1  0  0  0  0
 24 25  1  0  0  0  0
 24 51  1  0  0  0  0
 24 52  1  0  0  0  0
M  END
> <s_m_source_file>
AV-unprocessed.smi

> <i_m_source_file_index>
232

> <i_lp_mmshare_version>
43012

> <i_f3d_flags>
0

> <s_epik_input>
W0NIM11bQ0gyXVtDQEBIXTFbQ0gyXVtDSDJdW0NAQEhdKFtDSDNdKU4xYyhuW2NIXW4yKWMoYzIzKW5bY0hdbjNbQ0gyXVtDQEhdKFtPSF0pW0NAQEhdNFtDSDJdW0NIMl1bQ0gyXU80

> <s_epik_cmdline>
J2VwaWtfcHl0aG9uJywgJy1waCcsICc3LjAnLCAnLXRuJywgJzgnLCAnLW1hJywgJzIwMCcsICctbWV0YWxfYmluZGluZycsICctaW1hZScsICc8aW5maWxlLm1hZT4nLCAnLW9tYWUnLCAnPG91dGZpbGUubWFlPic=

> <r_lp_tautomer_probability>
1

> <r_epik_Ionization_Penalty>
0.00258048

> <r_epik_Ionization_Penalty_Charging>
0

> <r_epik_Ionization_Penalty_Neutral>
0.00258048

> <r_epik_State_Penalty>
0.00168551

> <r_epik_Charging_Adjusted_Penalty>
0.00168551

> <i_epik_Tot_Q>
0

> <i_epik_Tot_abs_Q>
0

> <r_epik_Metal_State_Penalty>
-0

> <b_epik_Metal_Only>
0

> <s_lp_Force_Field>
OPLS_2005

> <r_lp_Energy>
58.3384

> <b_lp_Chiralities_Consistent>
1

> <s_lp_Variant>
AV-unprocessed.smi:232-13

> <Gold.Version>
5.8.1

> <Gold.Id.Protein>
6NUR|6NUR_protein|mol2

> <Gold.PLP.Fitness>
51.5600

> <Gold.PLP.PLP>
-51.5629

> <Gold.PLP.part.hbond>
-0.9628

> <Gold.PLP.part.metal>
0.0000

> <Gold.PLP.part.buried>
-5.5031

> <Gold.PLP.part.nonpolar>
-45.2715

> <Gold.PLP.part.repulsive>
0.1861

> <Gold.PLP.ligand.clash>
0.0000

> <Gold.PLP.ligand.torsion>
1.7654

> <Gold.PLP.Chemscore.Hbond>
0.4640

> <Gold.PLP.Chemscore.CHOScore>
0.6400

> <Gold.PLP.Chemscore.Metal>
0.0000

> <Gold.Chemscore.Hbonds>
donor molecule, donor type, donor heavy atom, donor atom, acceptor molecule, acceptor atom, score
      L1  H    20    45       P1  7957  0.42
      L1  C    16    41       P1  8028  0.61

> <Gold.PLP.Chemscore.Internal.Correction>
0.2160

> <Gold.Rescore>
     Score         DG    S(hbond)    S(metal)    S(lipo)     H(rot)  DE(clash)    DE(int)     intcor
      9.46     -14.89       0.74        0.00     112.46       2.43       2.42       3.01       ----

> <Gold.Chemscore.Fitness>
9.4555

> <Gold.Chemscore.DG>
-14.8907

> <Gold.Chemscore.ZeroCoef>
-5.4800

> <Gold.Chemscore.Hbond>
0.7377

> <Gold.Chemscore.Metal>
0.0000

> <Gold.Chemscore.Lipo>
112.4586

> <Gold.Chemscore.Internal_Hbond>
0.0000

> <Gold.Chemscore.DEClash>
2.4234

> <Gold.Chemscore.DEInternal>
3.0118

> <Gold.Chemscore.Rot>
2.4260

> <Gold.Chemscore.Internal.Correction>
   9.000000E+99

> <Gold.Chemscore.Hbonds>
donor molecule, donor type, donor heavy atom, donor atom, acceptor molecule, acceptor atom, score
      L1  H    20    45       P1  7957  0.42

> <Gold.Chemscore.Hbond.Weighted>
-2.4638

> <Gold.Chemscore.Metal.Weighted>
-0.0000

> <Gold.Chemscore.Lipo.Weighted>
-13.1577

> <Gold.Chemscore.Internal_Hbond.Weighted>
0.0000

> <Gold.Chemscore.DEClash.Weighted>
2.4234

> <Gold.Chemscore.DEInternal.Weighted>
3.0118

> <Gold.Chemscore.Rot.Weighted>
6.2107

> <Gold.Chemscore.Internal.Correction.Weighted>
   9.000000E+99

> <Gold.Protein.RotatedTorsions>
[ 6907 6896 6895 6894 ] final  -12.32 input  -60.11 | X-H torsion
[ 7974 7965 7964 7962 ] final -139.11 input  175.53 | X-H torsion
[ 8008 7997 7996 7995 ] final  -83.87 input   59.86 | X-H torsion
[ 10167 10162 10161 10158 ] final  164.01 input  -65.29 | X-H torsion
[ 10718 10713 10712 10709 ] final   69.47 input   66.30 | X-H torsion
[ 10763 10752 10751 10750 ] final  159.78 input  -60.55 | X-H torsion
[ 11005 11000 10999 10996 ] final -145.73 input  -57.11 | X-H torsion

> <Gold.Protein.ActiveResidues>
 VAL166  LYS551  ARG553  GLY616  TRP617  ASP618  TYR619  PRO620  LYS621  CYS622 
 ASP623  PHE694  ASN695  SER759  ASP760  ASP761  ALA762  ILE779  LEU786  VAL792 
 PHE793  MET794  SER795  GLU796  ALA797  LYS798  CYS799  TRP800  GLU811  SER814 

> <Gold.Protein.RotatedAtoms>
  151.3723  135.0925  159.9469 H   0  0  0  0  0  0  0  0  0  0  0  0  # atno 6907 bound_to 6896
  152.5132  133.9153  159.7518 H   0  0  0  0  0  0  0  0  0  0  0  0  # atno 6908 bound_to 6896
  150.9569  133.6433  159.2790 H   0  0  0  0  0  0  0  0  0  0  0  0  # atno 6909 bound_to 6896
  144.8703  140.6357  143.5271 H   0  0  0  0  0  0  0  0  0  0  0  0  # atno 7974 bound_to 7965
  154.6237  140.0613  156.9647 H   0  0  0  0  0  0  0  0  0  0  0  0  # atno 8008 bound_to 7997
  155.1776  140.3296  155.4362 H   0  0  0  0  0  0  0  0  0  0  0  0  # atno 8009 bound_to 7997
  156.2445  140.1903  156.6875 H   0  0  0  0  0  0  0  0  0  0  0  0  # atno 8010 bound_to 7997
  139.4882  144.4279  151.9107 H   0  0  0  0  0  0  0  0  0  0  0  0  # atno 10167 bound_to 10162
  157.6347  130.9427  150.0517 H   0  0  0  0  0  0  0  0  0  0  0  0  # atno 10718 bound_to 10713
  154.2371  135.2776  155.2868 H   0  0  0  0  0  0  0  0  0  0  0  0  # atno 10763 bound_to 10752
  154.5576  135.5656  153.6981 H   0  0  0  0  0  0  0  0  0  0  0  0  # atno 10764 bound_to 10752
  153.0008  135.6290  154.2514 H   0  0  0  0  0  0  0  0  0  0  0  0  # atno 10765 bound_to 10752
  140.7893  134.2988  157.5019 H   0  0  0  0  0  0  0  0  0  0  0  0  # atno 11005 bound_to 11000
  145.4143  139.1575  143.4109 LP  0  0  0  0  0  0  0  0  0  0  0  0  # atno 17320 bound_to 7965
  146.2925  140.4249  142.8734 LP  0  0  0  0  0  0  0  0  0  0  0  0  # atno 17321 bound_to 7965
  140.3725  144.2837  150.5918 LP  0  0  0  0  0  0  0  0  0  0  0  0  # atno 17342 bound_to 10162
  140.5306  143.2244  151.8245 LP  0  0  0  0  0  0  0  0  0  0  0  0  # atno 17343 bound_to 10162
  156.1577  130.3643  149.9344 LP  0  0  0  0  0  0  0  0  0  0  0  0  # atno 17370 bound_to 10713
  156.7350  130.9057  151.3628 LP  0  0  0  0  0  0  0  0  0  0  0  0  # atno 17371 bound_to 10713
  139.8733  134.9365  156.3661 LP  0  0  0  0  0  0  0  0  0  0  0  0  # atno 17394 bound_to 11000
  140.9406  133.7517  156.0141 LP  0  0  0  0  0  0  0  0  0  0  0  0  # atno 17395 bound_to 11000

$$$$
