AV-unprocessed.smi:2596|AV-procd|sdf|10169|dock2
  -GOLD-   2272014183D 1   1.00000     0.00000
 Structure written by MMmdl.
 32 33  0  0  0  0  0  0  0  0  1 V2000
  149.9044  141.7569  157.9163 O   0  0  0  0  0  0  0  0  0  0  0  0
  150.6386  142.1248  156.9999 C   0  0  0  0  0  0  0  0  0  0  0  0
  150.9895  141.1577  155.8646 C   0  0  0  0  0  0  0  0  0  0  0  0
  149.8198  140.8566  155.0233 N   0  0  0  0  0  0  0  0  0  0  0  0
  148.8278  141.8531  154.9249 C   0  0  0  0  0  0  0  0  0  0  0  0
  147.7301  141.6821  154.1726 C   0  0  0  0  0  0  0  0  0  0  0  0
  146.8008  142.6478  154.0883 F   0  0  0  0  0  0  0  0  0  0  0  0
  147.5699  140.4426  153.4520 C   0  0  0  0  0  0  0  0  0  0  0  0
  148.5142  139.4848  153.5392 C   0  0  0  0  0  0  0  0  0  0  0  0
  149.7201  139.6634  154.3577 C   0  0  0  0  0  0  0  0  0  0  0  0
  150.5870  138.7932  154.4386 O   0  0  0  0  0  0  0  0  0  0  0  0
  151.1892  143.3472  156.9344 N   0  0  0  0  0  0  0  0  0  0  0  0
  151.0655  144.3834  157.9520 C   0  0  0  0  0  0  0  0  0  0  0  0
  152.1034  144.1819  159.0525 C   0  0  0  0  0  0  0  0  0  0  0  0
  152.1952  142.8369  159.7909 C   0  0  0  0  0  0  0  0  0  0  0  0
  152.5688  143.6117  161.0572 C   0  0  0  0  0  0  0  0  0  0  0  0
  151.8911  144.8320  160.4277 C   0  0  0  0  0  0  0  0  0  0  0  0
  151.7954  141.5812  155.2621 H   0  0  0  0  0  0  0  0  0  0  0  0
  151.4056  140.2452  156.2946 H   0  0  0  0  0  0  0  0  0  0  0  0
  149.0209  142.7550  155.4876 H   0  0  0  0  0  0  0  0  0  0  0  0
  146.6929  140.2822  152.8421 H   0  0  0  0  0  0  0  0  0  0  0  0
  148.3823  138.5613  152.9946 H   0  0  0  0  0  0  0  0  0  0  0  0
  151.7753  143.5600  156.1404 H   0  0  0  0  0  0  0  0  0  0  0  0
  151.2143  145.3489  157.4685 H   0  0  0  0  0  0  0  0  0  0  0  0
  150.0561  144.4052  158.3664 H   0  0  0  0  0  0  0  0  0  0  0  0
  153.0998  144.4499  158.6939 H   0  0  0  0  0  0  0  0  0  0  0  0
  151.2312  142.3326  159.8754 H   0  0  0  0  0  0  0  0  0  0  0  0
  152.9682  142.1644  159.4173 H   0  0  0  0  0  0  0  0  0  0  0  0
  152.0995  143.2479  161.9716 H   0  0  0  0  0  0  0  0  0  0  0  0
  153.6464  143.7378  161.1741 H   0  0  0  0  0  0  0  0  0  0  0  0
  152.4189  145.7749  160.5735 H   0  0  0  0  0  0  0  0  0  0  0  0
  150.8377  144.9145  160.7006 H   0  0  0  0  0  0  0  0  0  0  0  0
  1  2  2  0  0  0  0
  2  3  1  0  0  0  0
  2 12  1  0  0  0  0
  3  4  1  0  0  0  0
  3 18  1  0  0  0  0
  3 19  1  0  0  0  0
  4 10  1  0  0  0  0
  4  5  1  0  0  0  0
  5  6  2  0  0  0  0
  5 20  1  0  0  0  0
  6  7  1  0  0  0  0
  6  8  1  0  0  0  0
  8  9  2  0  0  0  0
  8 21  1  0  0  0  0
  9 10  1  0  0  0  0
  9 22  1  0  0  0  0
 10 11  2  0  0  0  0
 12 13  1  0  0  0  0
 12 23  1  0  0  0  0
 13 14  1  0  0  0  0
 13 24  1  0  0  0  0
 13 25  1  0  0  0  0
 14 17  1  0  0  0  0
 14 15  1  0  0  0  0
 14 26  1  0  0  0  0
 15 16  1  0  0  0  0
 15 27  1  0  0  0  0
 15 28  1  0  0  0  0
 16 17  1  0  0  0  0
 16 29  1  0  0  0  0
 16 30  1  0  0  0  0
 17 31  1  0  0  0  0
 17 32  1  0  0  0  0
M  END
> <s_m_source_file>
AV-unprocessed.smi

> <i_m_source_file_index>
2596

> <i_lp_mmshare_version>
43012

> <i_f3d_flags>
0

> <s_epik_input>
W0NIMl0xW0NIMl1bQ0gyXVtDSF0xW0NIMl1bTkhdQyg9TylbQ0gyXW4yW2NIXWMoRilbY0hdW2NIXWMyPU8=

> <s_epik_cmdline>
J2VwaWtfcHl0aG9uJywgJy1waCcsICc3LjAnLCAnLXRuJywgJzgnLCAnLW1hJywgJzIwMCcsICctbWV0YWxfYmluZGluZycsICctaW1hZScsICc8aW5maWxlLm1hZT4nLCAnLW9tYWUnLCAnPG91dGZpbGUubWFlPic=

> <r_lp_tautomer_probability>
1

> <r_epik_Ionization_Penalty>
2.75493e-07

> <r_epik_Ionization_Penalty_Charging>
2.56191e-07

> <r_epik_Ionization_Penalty_Neutral>
1.93017e-08

> <r_epik_State_Penalty>
-0

> <r_epik_Charging_Adjusted_Penalty>
2.56191e-07

> <i_epik_Tot_Q>
0

> <i_epik_Tot_abs_Q>
0

> <r_epik_Metal_State_Penalty>
-0

> <b_epik_Metal_Only>
0

> <s_lp_Force_Field>
OPLS_2005

> <r_lp_Energy>
22.7993

> <b_lp_Chiralities_Consistent>
1

> <s_lp_Variant>
AV-unprocessed.smi:2596-1

> <Gold.Version>
5.8.1

> <Gold.Id.Protein>
6NUR|6NUR_protein|mol2

> <Gold.PLP.Fitness>
43.5209

> <Gold.PLP.PLP>
-41.8326

> <Gold.PLP.part.hbond>
-1.0000

> <Gold.PLP.part.metal>
0.0000

> <Gold.PLP.part.buried>
1.6195

> <Gold.PLP.part.nonpolar>
-42.2186

> <Gold.PLP.part.repulsive>
0.2631

> <Gold.PLP.ligand.clash>
0.0000

> <Gold.PLP.ligand.torsion>
0.7043

> <Gold.PLP.Chemscore.Hbond>
0.0000

> <Gold.PLP.Chemscore.CHOScore>
1.0000

> <Gold.PLP.Chemscore.Metal>
0.0000

> <Gold.Chemscore.Hbonds>
donor molecule, donor type, donor heavy atom, donor atom, acceptor molecule, acceptor atom, score
      L1  C     5    20       P1  8028  0.85

> <Gold.PLP.Chemscore.Internal.Correction>
0.0968

> <Gold.Rescore>
     Score         DG    S(hbond)    S(metal)    S(lipo)     H(rot)  DE(clash)    DE(int)     intcor
     11.38     -12.10       0.00        0.00      93.95       1.71       0.09       0.63       ----

> <Gold.Chemscore.Fitness>
11.3781

> <Gold.Chemscore.DG>
-12.1000

> <Gold.Chemscore.ZeroCoef>
-5.4800

> <Gold.Chemscore.Hbond>
0.0000

> <Gold.Chemscore.Metal>
0.0000

> <Gold.Chemscore.Lipo>
93.9484

> <Gold.Chemscore.Internal_Hbond>
0.0000

> <Gold.Chemscore.DEClash>
0.0919

> <Gold.Chemscore.DEInternal>
0.6299

> <Gold.Chemscore.Rot>
1.7078

> <Gold.Chemscore.Internal.Correction>
   9.000000E+99

> <Gold.Chemscore.Hbond.Weighted>
-0.0000

> <Gold.Chemscore.Metal.Weighted>
-0.0000

> <Gold.Chemscore.Lipo.Weighted>
-10.9920

> <Gold.Chemscore.Internal_Hbond.Weighted>
0.0000

> <Gold.Chemscore.DEClash.Weighted>
0.0919

> <Gold.Chemscore.DEInternal.Weighted>
0.6299

> <Gold.Chemscore.Rot.Weighted>
4.3719

> <Gold.Chemscore.Internal.Correction.Weighted>
   9.000000E+99

> <Gold.Protein.RotatedTorsions>
[ 6907 6896 6895 6894 ] final -111.76 input  -60.11 | X-H torsion
[ 7974 7965 7964 7962 ] final   24.25 input  175.53 | X-H torsion
[ 8008 7997 7996 7995 ] final -163.26 input   59.86 | X-H torsion
[ 10167 10162 10161 10158 ] final   -9.74 input  -65.29 | X-H torsion
[ 10718 10713 10712 10709 ] final  123.16 input   66.30 | X-H torsion
[ 10763 10752 10751 10750 ] final  -97.14 input  -60.55 | X-H torsion
[ 11005 11000 10999 10996 ] final -162.82 input  -57.11 | X-H torsion

> <Gold.Protein.ActiveResidues>
 VAL166  LYS551  ARG553  GLY616  TRP617  ASP618  TYR619  PRO620  LYS621  CYS622 
 ASP623  PHE694  ASN695  SER759  ASP760  ASP761  ALA762  ILE779  LEU786  VAL792 
 PHE793  MET794  SER795  GLU796  ALA797  LYS798  CYS799  TRP800  GLU811  SER814 

> <Gold.Protein.RotatedAtoms>
  150.7712  133.9188  159.3391 H   0  0  0  0  0  0  0  0  0  0  0  0  # atno 6907 bound_to 6896
  151.7074  135.0917  160.0271 H   0  0  0  0  0  0  0  0  0  0  0  0  # atno 6908 bound_to 6896
  152.3730  133.6406  159.6137 H   0  0  0  0  0  0  0  0  0  0  0  0  # atno 6909 bound_to 6896
  146.1946  139.7631  142.8806 H   0  0  0  0  0  0  0  0  0  0  0  0  # atno 7974 bound_to 7965
  155.8187  140.0916  157.1861 H   0  0  0  0  0  0  0  0  0  0  0  0  # atno 8008 bound_to 7997
  154.3979  140.1441  156.3534 H   0  0  0  0  0  0  0  0  0  0  0  0  # atno 8009 bound_to 7997
  155.8289  140.3443  155.5562 H   0  0  0  0  0  0  0  0  0  0  0  0  # atno 8010 bound_to 7997
  140.7095  143.5825  150.8977 H   0  0  0  0  0  0  0  0  0  0  0  0  # atno 10167 bound_to 10162
  157.5686  131.1085  150.8408 H   0  0  0  0  0  0  0  0  0  0  0  0  # atno 10718 bound_to 10713
  154.7302  135.5057  153.8951 H   0  0  0  0  0  0  0  0  0  0  0  0  # atno 10763 bound_to 10752
  153.0942  135.6668  153.9803 H   0  0  0  0  0  0  0  0  0  0  0  0  # atno 10764 bound_to 10752
  153.9606  135.3048  155.3413 H   0  0  0  0  0  0  0  0  0  0  0  0  # atno 10765 bound_to 10752
  140.6050  134.4908  157.5209 H   0  0  0  0  0  0  0  0  0  0  0  0  # atno 11005 bound_to 11000
  145.3684  141.0338  143.3245 LP  0  0  0  0  0  0  0  0  0  0  0  0  # atno 17320 bound_to 7965
  144.8555  139.5256  143.6836 LP  0  0  0  0  0  0  0  0  0  0  0  0  # atno 17321 bound_to 7965
  139.9551  143.6228  152.3018 LP  0  0  0  0  0  0  0  0  0  0  0  0  # atno 17342 bound_to 10162
  139.6760  144.7658  151.1695 LP  0  0  0  0  0  0  0  0  0  0  0  0  # atno 17343 bound_to 10162
  156.8886  130.5205  149.5287 LP  0  0  0  0  0  0  0  0  0  0  0  0  # atno 17370 bound_to 10713
  156.0733  130.5761  150.9425 LP  0  0  0  0  0  0  0  0  0  0  0  0  # atno 17371 bound_to 10713
  139.9216  134.8137  156.1194 LP  0  0  0  0  0  0  0  0  0  0  0  0  # atno 17394 bound_to 11000
  141.0847  133.6739  156.2410 LP  0  0  0  0  0  0  0  0  0  0  0  0  # atno 17395 bound_to 11000

$$$$
