AV-unprocessed.smi:500|AV-procd|sdf|2734|dock7
  -GOLD-   2262023183D 1   1.00000     0.00000
 Structure written by MMmdl.
 45 47  0  0  0  0  0  0  0  0  1 V2000
  156.6917  138.7066  159.0222 C   0  0  0  0  0  0  0  0  0  0  0  0
  155.4324  137.8323  158.9453 C   0  0  0  0  0  0  0  0  0  0  0  0
  154.2779  138.5940  158.6200 O   0  0  0  0  0  0  0  0  0  0  0  0
  153.8247  139.4410  159.6645 C   0  0  0  0  0  0  0  0  0  0  0  0
  153.5751  140.8402  159.0882 C   0  0  0  0  0  0  0  0  0  0  0  0
  153.3663  141.8267  160.1377 N   0  0  0  0  0  0  0  0  0  0  0  0
  152.5703  142.9283  160.1211 C   0  0  0  0  0  0  0  0  0  0  0  0
  151.7298  143.3125  158.9283 C   0  0  2  0  0  0  0  0  0  0  0  0
  152.3016  144.5261  158.1825 C   0  0  0  0  0  0  0  0  0  0  0  0
  150.3738  143.5945  159.3927 N   0  0  0  0  0  0  0  0  0  0  0  0
  149.9587  144.7656  159.9022 C   0  0  0  0  0  0  0  0  0  0  0  0
  150.6991  145.7359  160.0625 O   0  0  0  0  0  0  0  0  0  0  0  0
  148.5339  144.8335  160.2770 C   0  0  0  0  0  0  0  0  0  0  0  0
  147.7818  145.8532  160.7988 C   0  0  0  0  0  0  0  0  0  0  0  0
  146.4667  145.3406  160.9733 C   0  0  0  0  0  0  0  0  0  0  0  0
  146.5097  144.0437  160.5490 C   0  0  0  0  0  0  0  0  0  0  0  0
  147.7611  143.7188  160.1253 O   0  0  0  0  0  0  0  0  0  0  0  0
  152.5676  143.6520  161.2440 N   0  0  0  0  0  0  0  0  0  0  0  0
  153.4465  142.9649  162.0561 C   0  0  0  0  0  0  0  0  0  0  0  0
  153.8738  143.2308  163.3767 C   0  0  0  0  0  0  0  0  0  0  0  0
  154.7964  142.3758  164.0139 C   0  0  0  0  0  0  0  0  0  0  0  0
  155.3033  141.2454  163.3411 C   0  0  0  0  0  0  0  0  0  0  0  0
  154.8896  140.9621  162.0251 C   0  0  0  0  0  0  0  0  0  0  0  0
  153.9673  141.8184  161.3934 C   0  0  0  0  0  0  0  0  0  0  0  0
  157.5779  138.0908  159.1774 H   0  0  0  0  0  0  0  0  0  0  0  0
  156.6434  139.4194  159.8448 H   0  0  0  0  0  0  0  0  0  0  0  0
  156.8347  139.2673  158.0984 H   0  0  0  0  0  0  0  0  0  0  0  0
  155.5682  137.0921  158.1566 H   0  0  0  0  0  0  0  0  0  0  0  0
  155.2846  137.2740  159.8708 H   0  0  0  0  0  0  0  0  0  0  0  0
  152.9022  139.0463  160.0932 H   0  0  0  0  0  0  0  0  0  0  0  0
  154.5631  139.4913  160.4640 H   0  0  0  0  0  0  0  0  0  0  0  0
  154.4009  141.1576  158.4519 H   0  0  0  0  0  0  0  0  0  0  0  0
  152.6960  140.8215  158.4438 H   0  0  0  0  0  0  0  0  0  0  0  0
  151.6827  142.4924  158.2135 H   0  0  0  0  0  0  0  0  0  0  0  0
  153.3120  144.3241  157.8258 H   0  0  0  0  0  0  0  0  0  0  0  0
  152.3463  145.4065  158.8245 H   0  0  0  0  0  0  0  0  0  0  0  0
  151.6900  144.7775  157.3155 H   0  0  0  0  0  0  0  0  0  0  0  0
  149.6954  142.8532  159.2952 H   0  0  0  0  0  0  0  0  0  0  0  0
  148.1338  146.8481  161.0297 H   0  0  0  0  0  0  0  0  0  0  0  0
  145.6001  145.8546  161.3620 H   0  0  0  0  0  0  0  0  0  0  0  0
  145.7802  143.2500  160.4850 H   0  0  0  0  0  0  0  0  0  0  0  0
  153.4912  144.0945  163.9001 H   0  0  0  0  0  0  0  0  0  0  0  0
  155.1170  142.5887  165.0232 H   0  0  0  0  0  0  0  0  0  0  0  0
  156.0101  140.5954  163.8358 H   0  0  0  0  0  0  0  0  0  0  0  0
  155.2784  140.0967  161.5093 H   0  0  0  0  0  0  0  0  0  0  0  0
  1  2  1  0  0  0  0
  1 25  1  0  0  0  0
  1 26  1  0  0  0  0
  1 27  1  0  0  0  0
  2  3  1  0  0  0  0
  2 28  1  0  0  0  0
  2 29  1  0  0  0  0
  3  4  1  0  0  0  0
  4  5  1  0  0  0  0
  4 30  1  0  0  0  0
  4 31  1  0  0  0  0
  5  6  1  0  0  0  0
  5 32  1  0  0  0  0
  5 33  1  0  0  0  0
  6 24  1  0  0  0  0
  6  7  1  0  0  0  0
  7  8  1  0  0  0  0
  7 18  2  0  0  0  0
  8  9  1  0  0  0  0
  8 10  1  0  0  0  0
  8 34  1  0  0  0  0
  9 35  1  0  0  0  0
  9 36  1  0  0  0  0
  9 37  1  0  0  0  0
 10 11  1  0  0  0  0
 10 38  1  0  0  0  0
 11 12  2  0  0  0  0
 11 13  1  0  0  0  0
 13 17  1  0  0  0  0
 13 14  2  0  0  0  0
 14 15  1  0  0  0  0
 14 39  1  0  0  0  0
 15 16  2  0  0  0  0
 15 40  1  0  0  0  0
 16 17  1  0  0  0  0
 16 41  1  0  0  0  0
 18 19  1  0  0  0  0
 19 24  2  0  0  0  0
 19 20  1  0  0  0  0
 20 21  2  0  0  0  0
 20 42  1  0  0  0  0
 21 22  1  0  0  0  0
 21 43  1  0  0  0  0
 22 23  2  0  0  0  0
 22 44  1  0  0  0  0
 23 24  1  0  0  0  0
 23 45  1  0  0  0  0
M  END
> <s_m_source_file>
AV-unprocessed.smi

> <i_m_source_file_index>
500

> <i_lp_mmshare_version>
43012

> <i_f3d_flags>
0

> <s_epik_input>
W0NIM11bQ0gyXU9bQ0gyXVtDSDJdbihjKGMxMilbY0hdW2NIXVtjSF1bY0hdMiljKG4xKVtDQEhdKFtDSDNdKVtOSF1DKD1PKWMzW2NIXVtjSF1bY0hdbzM=

> <s_epik_cmdline>
J2VwaWtfcHl0aG9uJywgJy1waCcsICc3LjAnLCAnLXRuJywgJzgnLCAnLW1hJywgJzIwMCcsICctbWV0YWxfYmluZGluZycsICctaW1hZScsICc8aW5maWxlLm1hZT4nLCAnLW9tYWUnLCAnPG91dGZpbGUubWFlPic=

> <r_epik_Ionization_Penalty>
0.109801

> <r_epik_Ionization_Penalty_Charging>
0

> <r_epik_Ionization_Penalty_Neutral>
0.109801

> <r_epik_State_Penalty>
0.0995533

> <r_epik_Charging_Adjusted_Penalty>
0.0995533

> <i_epik_Tot_Q>
0

> <i_epik_Tot_abs_Q>
0

> <r_epik_Metal_State_Penalty>
0.0918163

> <b_epik_Metal_Only>
0

> <s_lp_Force_Field>
OPLS_2005

> <r_lp_Energy>
8.25657

> <b_lp_Chiralities_Consistent>
1

> <s_lp_Variant>
AV-unprocessed.smi:500-1

> <Gold.Version>
5.8.1

> <Gold.Id.Protein>
6NUR|6NUR_protein|mol2

> <Gold.PLP.Fitness>
55.4558

> <Gold.PLP.PLP>
-52.0329

> <Gold.PLP.part.hbond>
-3.0000

> <Gold.PLP.part.metal>
0.0000

> <Gold.PLP.part.buried>
-3.2897

> <Gold.PLP.part.nonpolar>
-44.9832

> <Gold.PLP.part.repulsive>
1.1577

> <Gold.PLP.ligand.clash>
0.0000

> <Gold.PLP.ligand.torsion>
1.3597

> <Gold.PLP.Chemscore.Hbond>
2.0000

> <Gold.PLP.Chemscore.CHOScore>
0.0000

> <Gold.PLP.Chemscore.Metal>
0.0000

> <Gold.Chemscore.Hbonds>
donor molecule, donor type, donor heavy atom, donor atom, acceptor molecule, acceptor atom, score
      P1  H  6933  6944       L1    17  1.00
      P1  H  7997  8008       L1     3  0.94

> <Gold.PLP.Chemscore.Internal.Correction>
0.1422

> <Gold.Rescore>
     Score         DG    S(hbond)    S(metal)    S(lipo)     H(rot)  DE(clash)    DE(int)     intcor
     14.62     -20.20       1.37        0.00     128.57       1.92       1.82       3.76       ----

> <Gold.Chemscore.Fitness>
14.6185

> <Gold.Chemscore.DG>
-20.1951

> <Gold.Chemscore.ZeroCoef>
-5.4800

> <Gold.Chemscore.Hbond>
1.3701

> <Gold.Chemscore.Metal>
0.0000

> <Gold.Chemscore.Lipo>
128.5723

> <Gold.Chemscore.Internal_Hbond>
0.0000

> <Gold.Chemscore.DEClash>
1.8213

> <Gold.Chemscore.DEInternal>
3.7553

> <Gold.Chemscore.Rot>
1.9156

> <Gold.Chemscore.Internal.Correction>
   9.000000E+99

> <Gold.Chemscore.Hbonds>
donor molecule, donor type, donor heavy atom, donor atom, acceptor molecule, acceptor atom, score
      P1  H  6933  6944       L1    17  0.28
      P1  H  7997  8008       L1     3  0.12

> <Gold.Chemscore.Hbond.Weighted>
-4.5762

> <Gold.Chemscore.Metal.Weighted>
-0.0000

> <Gold.Chemscore.Lipo.Weighted>
-15.0430

> <Gold.Chemscore.Internal_Hbond.Weighted>
0.0000

> <Gold.Chemscore.DEClash.Weighted>
1.8213

> <Gold.Chemscore.DEInternal.Weighted>
3.7553

> <Gold.Chemscore.Rot.Weighted>
4.9041

> <Gold.Chemscore.Internal.Correction.Weighted>
   9.000000E+99

> <Gold.Protein.RotatedTorsions>
[ 6907 6896 6895 6894 ] final  178.14 input  -60.11 | X-H torsion
[ 7974 7965 7964 7962 ] final -122.18 input  175.53 | X-H torsion
[ 8008 7997 7996 7995 ] final -108.58 input   59.86 | X-H torsion
[ 10167 10162 10161 10158 ] final  140.14 input  -65.29 | X-H torsion
[ 10718 10713 10712 10709 ] final -172.26 input   66.30 | X-H torsion
[ 10763 10752 10751 10750 ] final -169.34 input  -60.55 | X-H torsion
[ 11005 11000 10999 10996 ] final  -24.30 input  -57.11 | X-H torsion

> <Gold.Protein.ActiveResidues>
 VAL166  LYS551  ARG553  GLY616  TRP617  ASP618  TYR619  PRO620  LYS621  CYS622 
 ASP623  PHE694  ASN695  SER759  ASP760  ASP761  ALA762  ILE779  LEU786  VAL792 
 PHE793  MET794  SER795  GLU796  ALA797  LYS798  CYS799  TRP800  GLU811  SER814 

> <Gold.Protein.RotatedAtoms>
  151.6927  133.3311  159.3246 H   0  0  0  0  0  0  0  0  0  0  0  0  # atno 6907 bound_to 6896
  150.7771  134.6684  159.6387 H   0  0  0  0  0  0  0  0  0  0  0  0  # atno 6908 bound_to 6896
  152.3817  134.6583  160.0192 H   0  0  0  0  0  0  0  0  0  0  0  0  # atno 6909 bound_to 6896
  145.0322  140.8077  143.4317 H   0  0  0  0  0  0  0  0  0  0  0  0  # atno 7974 bound_to 7965
  154.9464  140.0401  157.2122 H   0  0  0  0  0  0  0  0  0  0  0  0  # atno 8008 bound_to 7997
  154.8020  140.2853  155.5893 H   0  0  0  0  0  0  0  0  0  0  0  0  # atno 8009 bound_to 7997
  156.2962  140.2553  156.2890 H   0  0  0  0  0  0  0  0  0  0  0  0  # atno 8010 bound_to 7997
  139.5058  144.6252  151.5954 H   0  0  0  0  0  0  0  0  0  0  0  0  # atno 10167 bound_to 10162
  156.7530  130.9385  151.3115 H   0  0  0  0  0  0  0  0  0  0  0  0  # atno 10718 bound_to 10713
  154.6533  135.2914  154.9959 H   0  0  0  0  0  0  0  0  0  0  0  0  # atno 10763 bound_to 10752
  154.1044  135.6572  153.4878 H   0  0  0  0  0  0  0  0  0  0  0  0  # atno 10764 bound_to 10752
  153.0388  135.5250  154.7451 H   0  0  0  0  0  0  0  0  0  0  0  0  # atno 10765 bound_to 10752
  140.8832  133.7639  156.0328 H   0  0  0  0  0  0  0  0  0  0  0  0  # atno 11005 bound_to 11000
  145.1756  139.2380  143.5319 LP  0  0  0  0  0  0  0  0  0  0  0  0  # atno 17320 bound_to 7965
  146.3500  140.1517  142.8592 LP  0  0  0  0  0  0  0  0  0  0  0  0  # atno 17321 bound_to 7965
  140.5967  143.9683  150.6359 LP  0  0  0  0  0  0  0  0  0  0  0  0  # atno 17342 bound_to 10162
  140.2881  143.3343  152.1088 LP  0  0  0  0  0  0  0  0  0  0  0  0  # atno 17343 bound_to 10162
  157.6768  130.9102  150.0171 LP  0  0  0  0  0  0  0  0  0  0  0  0  # atno 17370 bound_to 10713
  156.1389  130.3642  149.9614 LP  0  0  0  0  0  0  0  0  0  0  0  0  # atno 17371 bound_to 10713
  140.8436  134.3037  157.5304 LP  0  0  0  0  0  0  0  0  0  0  0  0  # atno 17394 bound_to 11000
  139.8722  134.9429  156.3839 LP  0  0  0  0  0  0  0  0  0  0  0  0  # atno 17395 bound_to 11000

$$$$
