AV-unprocessed.smi:3074|AV-procd|sdf|11722|dock1
  -GOLD-   2272017123D 1   1.00000     0.00000
 Structure written by MMmdl.
 20 21  0  0  0  0  0  0  0  0  3 V2000
  152.9612  142.9113  162.2626 C   0  0  0  0  0  0  0  0  0  0  0  0
  152.2318  143.7553  161.4652 C   0  0  0  0  0  0  0  0  0  0  0  0
  152.1908  143.1810  160.2198 N   0  0  0  0  0  0  0  0  0  0  0  0
  151.4913  143.6604  159.0622 C   0  0  0  0  0  0  0  0  0  0  0  0
  151.3665  142.8076  157.7992 C   0  0  0  0  0  0  0  0  0  0  0  0
  151.4218  144.0452  157.0303 N   0  3  0  0  0  0  0  0  0  0  0  0
  152.1230  144.6952  158.1310 C   0  0  0  0  0  0  0  0  0  0  0  0
  152.8243  142.0005  160.2437 C   0  0  0  0  0  0  0  0  0  0  0  0
  153.3102  141.8443  161.4795 N   0  3  0  0  0  0  0  0  0  0  0  0
  153.2408  142.9823  163.3039 H   0  0  0  0  0  0  0  0  0  0  0  0
  151.7556  144.6993  161.6886 H   0  0  0  0  0  0  0  0  0  0  0  0
  150.5103  143.9953  159.4073 H   0  0  0  0  0  0  0  0  0  0  0  0
  152.2330  142.1699  157.6125 H   0  0  0  0  0  0  0  0  0  0  0  0
  150.4265  142.2640  157.7002 H   0  0  0  0  0  0  0  0  0  0  0  0
  151.9616  143.9783  156.1788 H   0  0  0  0  0  0  0  0  0  0  0  0
  151.8131  145.7258  158.3071 H   0  0  0  0  0  0  0  0  0  0  0  0
  153.2070  144.6006  158.0392 H   0  0  0  0  0  0  0  0  0  0  0  0
  152.9286  141.3085  159.4267 H   0  0  0  0  0  0  0  0  0  0  0  0
  150.5010  144.4382  156.8942 H   0  0  0  0  0  0  0  0  0  0  0  0
  153.8462  141.0440  161.7923 H   0  0  0  0  0  0  0  0  0  0  0  0
  1  9  1  0  0  0  0
  1  2  2  0  0  0  0
  1 10  1  0  0  0  0
  2  3  1  0  0  0  0
  2 11  1  0  0  0  0
  3  4  1  0  0  0  0
  3  8  1  0  0  0  0
  4  7  1  0  0  0  0
  4  5  1  0  0  0  0
  4 12  1  0  0  0  0
  5  6  1  0  0  0  0
  5 13  1  0  0  0  0
  5 14  1  0  0  0  0
  6  7  1  0  0  0  0
  6 15  1  0  0  0  0
  6 19  1  0  0  0  0
  7 16  1  0  0  0  0
  7 17  1  0  0  0  0
  8  9  2  0  0  0  0
  8 18  1  0  0  0  0
  9 20  1  0  0  0  0
M  CHG  1   6   1
M  CHG  1   9   1
M  END
> <s_m_source_file>
AV-unprocessed.smi

> <i_m_source_file_index>
3074

> <i_lp_mmshare_version>
43012

> <i_f3d_flags>
0

> <s_epik_input>
W2NIXTFuW2NIXVtjSF1uMVtDSF0yW0NIMl1bTkhdW0NIMl0y

> <s_epik_cmdline>
J2VwaWtfcHl0aG9uJywgJy1waCcsICc3LjAnLCAnLXRuJywgJzgnLCAnLW1hJywgJzIwMCcsICctbWV0YWxfYmluZGluZycsICctaW1hZScsICc8aW5maWxlLm1hZT4nLCAnLW9tYWUnLCAnPG91dGZpbGUubWFlPic=

> <r_lp_tautomer_probability>
1

> <r_epik_Ionization_Penalty>
1.41643

> <r_epik_Ionization_Penalty_Charging>
0.0219601

> <r_epik_Ionization_Penalty_Neutral>
1.39447

> <r_epik_State_Penalty>
1.13931

> <r_epik_Charging_Adjusted_Penalty>
1.16127

> <i_epik_Tot_Q>
2

> <i_epik_Tot_abs_Q>
2

> <r_epik_Metal_State_Penalty>
5.12948

> <b_epik_Metal_Only>
0

> <s_lp_Force_Field>
OPLS_2005

> <r_lp_Energy>
25.5014

> <b_lp_Chiralities_Consistent>
1

> <s_lp_Variant>
AV-unprocessed.smi:3074-2

> <Gold.Version>
5.8.1

> <Gold.Id.Protein>
6NUR|6NUR_protein|mol2

> <Gold.PLP.Fitness>
34.7857

> <Gold.PLP.PLP>
-29.2741

> <Gold.PLP.part.hbond>
-1.0000

> <Gold.PLP.part.metal>
0.0000

> <Gold.PLP.part.buried>
-4.4215

> <Gold.PLP.part.nonpolar>
-24.0615

> <Gold.PLP.part.repulsive>
0.0787

> <Gold.PLP.ligand.clash>
0.0000

> <Gold.PLP.ligand.torsion>
0.3572

> <Gold.PLP.Chemscore.Hbond>
1.9840

> <Gold.PLP.Chemscore.CHOScore>
0.0000

> <Gold.PLP.Chemscore.Metal>
0.0000

> <Gold.Chemscore.Hbonds>
donor molecule, donor type, donor heavy atom, donor atom, acceptor molecule, acceptor atom, score
      L1  H     6    19       P1  8028  1.98

> <Gold.PLP.Chemscore.Internal.Correction>
0.2741

> <Gold.Rescore>
     Score         DG    S(hbond)    S(metal)    S(lipo)     H(rot)  DE(clash)    DE(int)     intcor
     13.09     -13.25       0.99        0.00      59.91       1.00       0.02       0.14       ----

> <Gold.Chemscore.Fitness>
13.0872

> <Gold.Chemscore.DG>
-13.2471

> <Gold.Chemscore.ZeroCoef>
-5.4800

> <Gold.Chemscore.Hbond>
0.9933

> <Gold.Chemscore.Metal>
0.0000

> <Gold.Chemscore.Lipo>
59.9085

> <Gold.Chemscore.Internal_Hbond>
0.0000

> <Gold.Chemscore.DEClash>
0.0207

> <Gold.Chemscore.DEInternal>
0.1392

> <Gold.Chemscore.Rot>
1.0000

> <Gold.Chemscore.Internal.Correction>
   9.000000E+99

> <Gold.Chemscore.Hbonds>
donor molecule, donor type, donor heavy atom, donor atom, acceptor molecule, acceptor atom, score
      L1  H     6    19       P1  8028  0.82

> <Gold.Chemscore.Hbond.Weighted>
-3.3178

> <Gold.Chemscore.Metal.Weighted>
-0.0000

> <Gold.Chemscore.Lipo.Weighted>
-7.0093

> <Gold.Chemscore.Internal_Hbond.Weighted>
0.0000

> <Gold.Chemscore.DEClash.Weighted>
0.0207

> <Gold.Chemscore.DEInternal.Weighted>
0.1392

> <Gold.Chemscore.Rot.Weighted>
2.5600

> <Gold.Chemscore.Internal.Correction.Weighted>
   9.000000E+99

> <Gold.Protein.RotatedTorsions>
[ 6907 6896 6895 6894 ] final  147.57 input  -60.11 | X-H torsion
[ 7974 7965 7964 7962 ] final   -9.77 input  175.53 | X-H torsion
[ 8008 7997 7996 7995 ] final -136.85 input   59.86 | X-H torsion
[ 10167 10162 10161 10158 ] final  -16.22 input  -65.29 | X-H torsion
[ 10718 10713 10712 10709 ] final  152.67 input   66.30 | X-H torsion
[ 10763 10752 10751 10750 ] final  -28.84 input  -60.55 | X-H torsion
[ 11005 11000 10999 10996 ] final  -51.94 input  -57.11 | X-H torsion

> <Gold.Protein.ActiveResidues>
 VAL166  LYS551  ARG553  GLY616  TRP617  ASP618  TYR619  PRO620  LYS621  CYS622 
 ASP623  PHE694  ASN695  SER759  ASP760  ASP761  ALA762  ILE779  LEU786  VAL792 
 PHE793  MET794  SER795  GLU796  ALA797  LYS798  CYS799  TRP800  GLU811  SER814 

> <Gold.Protein.RotatedAtoms>
  152.1531  133.4534  159.4822 H   0  0  0  0  0  0  0  0  0  0  0  0  # atno 6907 bound_to 6896
  150.6898  134.2165  159.4389 H   0  0  0  0  0  0  0  0  0  0  0  0  # atno 6908 bound_to 6896
  152.0063  134.9900  160.0617 H   0  0  0  0  0  0  0  0  0  0  0  0  # atno 6909 bound_to 6896
  146.2242  140.2665  142.8354 H   0  0  0  0  0  0  0  0  0  0  0  0  # atno 7974 bound_to 7965
  155.4020  140.0506  157.3036 H   0  0  0  0  0  0  0  0  0  0  0  0  # atno 8008 bound_to 7997
  154.4986  140.2148  155.9355 H   0  0  0  0  0  0  0  0  0  0  0  0  # atno 8009 bound_to 7997
  156.1438  140.3149  155.8543 H   0  0  0  0  0  0  0  0  0  0  0  0  # atno 8010 bound_to 7997
  140.7230  143.5138  150.9717 H   0  0  0  0  0  0  0  0  0  0  0  0  # atno 10167 bound_to 10162
  157.2548  131.0786  151.1706 H   0  0  0  0  0  0  0  0  0  0  0  0  # atno 10718 bound_to 10713
  153.7548  135.6923  153.4938 H   0  0  0  0  0  0  0  0  0  0  0  0  # atno 10763 bound_to 10752
  153.1978  135.4447  155.0228 H   0  0  0  0  0  0  0  0  0  0  0  0  # atno 10764 bound_to 10752
  154.8174  135.3405  154.7067 H   0  0  0  0  0  0  0  0  0  0  0  0  # atno 10765 bound_to 10752
  141.0898  133.6635  156.3951 H   0  0  0  0  0  0  0  0  0  0  0  0  # atno 11005 bound_to 11000
  144.9300  140.7964  143.5695 LP  0  0  0  0  0  0  0  0  0  0  0  0  # atno 17320 bound_to 7965
  145.2608  139.1993  143.4893 LP  0  0  0  0  0  0  0  0  0  0  0  0  # atno 17321 bound_to 7965
  139.8852  143.7021  152.3152 LP  0  0  0  0  0  0  0  0  0  0  0  0  # atno 17342 bound_to 10162
  139.7318  144.7580  151.0790 LP  0  0  0  0  0  0  0  0  0  0  0  0  # atno 17343 bound_to 10162
  157.3239  130.6951  149.6285 LP  0  0  0  0  0  0  0  0  0  0  0  0  # atno 17370 bound_to 10713
  155.9665  130.4327  150.4975 LP  0  0  0  0  0  0  0  0  0  0  0  0  # atno 17371 bound_to 10713
  140.5279  134.6241  157.5340 LP  0  0  0  0  0  0  0  0  0  0  0  0  # atno 17394 bound_to 11000
  139.9722  134.7274  156.0020 LP  0  0  0  0  0  0  0  0  0  0  0  0  # atno 17395 bound_to 11000

$$$$
