AV-unprocessed.smi:110|AV-procd|sdf|1071|dock5
  -GOLD-   2262018153D 1   1.00000     0.00000
 Structure written by MMmdl.
 46 50  0  0  0  0  0  0  0  0  1 V2000
  145.1793  141.5910  156.2370 O   0  0  0  0  0  0  0  0  0  0  0  0
  146.4954  141.9720  155.8984 C   0  0  0  0  0  0  0  0  0  0  0  0
  146.7091  141.8228  154.3732 C   0  0  1  0  0  0  0  0  0  0  0  0
  148.0194  142.2460  154.0091 O   0  0  0  0  0  0  0  0  0  0  0  0
  148.9426  141.2014  154.1215 C   0  0  1  0  0  0  0  0  0  0  0  0
  149.7223  141.3783  155.3959 N   0  0  0  0  0  0  0  0  0  0  0  0
  149.4175  142.1639  156.4884 C   0  0  0  0  0  0  0  0  0  0  0  0
  150.2649  142.1036  157.4782 N   0  0  0  0  0  0  0  0  0  0  0  0
  151.2105  141.1751  157.0633 C   0  0  0  0  0  0  0  0  0  0  0  0
  152.3867  140.6209  157.6450 C   0  0  0  0  0  0  0  0  0  0  0  0
  152.8761  140.9600  158.8603 N   0  0  0  0  0  0  0  0  0  0  0  0
  153.5911  139.9533  159.6574 C   0  0  0  0  0  0  0  0  0  0  0  0
  153.6378  140.4599  161.1115 C   0  0  0  0  0  0  0  0  0  0  0  0
  153.0049  141.8064  160.9660 C   0  0  0  0  0  0  0  0  0  0  0  0
  152.8285  142.7775  161.9668 C   0  0  0  0  0  0  0  0  0  0  0  0
  152.2252  144.0015  161.6069 C   0  0  0  0  0  0  0  0  0  0  0  0
  151.8243  144.2351  160.2710 C   0  0  0  0  0  0  0  0  0  0  0  0
  152.0138  143.2454  159.2815 C   0  0  0  0  0  0  0  0  0  0  0  0
  152.5964  142.0161  159.6527 C   0  0  0  0  0  0  0  0  0  0  0  0
  153.0323  139.6477  156.9542 N   0  0  0  0  0  0  0  0  0  0  0  0
  152.5843  139.2672  155.7554 C   0  0  0  0  0  0  0  0  0  0  0  0
  151.5242  139.7154  155.0818 N   0  0  0  0  0  0  0  0  0  0  0  0
  150.8547  140.6815  155.7758 C   0  0  0  0  0  0  0  0  0  0  0  0
  148.1230  139.8923  154.1289 C   0  0  2  0  0  0  0  0  0  0  0  0
  148.5418  139.0051  153.1119 O   0  0  0  0  0  0  0  0  0  0  0  0
  146.7102  140.3848  153.8383 C   0  0  1  0  0  0  0  0  0  0  0  0
  145.7316  139.5661  154.4485 O   0  0  0  0  0  0  0  0  0  0  0  0
  145.9625  142.4154  153.8427 H   0  0  0  0  0  0  0  0  0  0  0  0
  149.6956  141.2638  153.3351 H   0  0  0  0  0  0  0  0  0  0  0  0
  148.1599  139.4106  155.1060 H   0  0  0  0  0  0  0  0  0  0  0  0
  146.5326  140.4150  152.7617 H   0  0  0  0  0  0  0  0  0  0  0  0
  144.6900  142.3674  156.4629 H   0  0  0  0  0  0  0  0  0  0  0  0
  146.7001  142.9786  156.2592 H   0  0  0  0  0  0  0  0  0  0  0  0
  147.1598  141.3034  156.4450 H   0  0  0  0  0  0  0  0  0  0  0  0
  148.5428  142.7956  156.5359 H   0  0  0  0  0  0  0  0  0  0  0  0
  153.0902  138.9861  159.5969 H   0  0  0  0  0  0  0  0  0  0  0  0
  154.6006  139.8316  159.2630 H   0  0  0  0  0  0  0  0  0  0  0  0
  153.0497  139.8329  161.7822 H   0  0  0  0  0  0  0  0  0  0  0  0
  154.6571  140.5404  161.4894 H   0  0  0  0  0  0  0  0  0  0  0  0
  153.1503  142.5946  162.9811 H   0  0  0  0  0  0  0  0  0  0  0  0
  152.0769  144.7673  162.3539 H   0  0  0  0  0  0  0  0  0  0  0  0
  151.3741  145.1796  160.0038 H   0  0  0  0  0  0  0  0  0  0  0  0
  151.7194  143.4370  158.2604 H   0  0  0  0  0  0  0  0  0  0  0  0
  153.1576  138.4949  155.2643 H   0  0  0  0  0  0  0  0  0  0  0  0
  148.9234  139.5103  152.4104 H   0  0  0  0  0  0  0  0  0  0  0  0
  144.9146  139.6861  153.9885 H   0  0  0  0  0  0  0  0  0  0  0  0
  1  2  1  0  0  0  0
  1 32  1  0  0  0  0
  2  3  1  0  0  0  0
  2 33  1  0  0  0  0
  2 34  1  0  0  0  0
  3 28  1  0  0  0  0
  3 26  1  0  0  0  0
  3  4  1  0  0  0  0
  4  5  1  0  0  0  0
  5 29  1  0  0  0  0
  5  6  1  0  0  0  0
  5 24  1  0  0  0  0
  6 23  1  0  0  0  0
  6  7  1  0  0  0  0
  7  8  2  0  0  0  0
  7 35  1  0  0  0  0
  8  9  1  0  0  0  0
  9 23  2  0  0  0  0
  9 10  1  0  0  0  0
 10 11  1  0  0  0  0
 10 20  2  0  0  0  0
 11 19  1  0  0  0  0
 11 12  1  0  0  0  0
 12 13  1  0  0  0  0
 12 36  1  0  0  0  0
 12 37  1  0  0  0  0
 13 14  1  0  0  0  0
 13 38  1  0  0  0  0
 13 39  1  0  0  0  0
 14 19  2  0  0  0  0
 14 15  1  0  0  0  0
 15 16  2  0  0  0  0
 15 40  1  0  0  0  0
 16 17  1  0  0  0  0
 16 41  1  0  0  0  0
 17 18  2  0  0  0  0
 17 42  1  0  0  0  0
 18 19  1  0  0  0  0
 18 43  1  0  0  0  0
 20 21  1  0  0  0  0
 21 22  2  0  0  0  0
 21 44  1  0  0  0  0
 22 23  1  0  0  0  0
 24 30  1  0  0  0  0
 24 25  1  0  0  0  0
 24 26  1  0  0  0  0
 25 45  1  0  0  0  0
 26 31  1  0  0  0  0
 26 27  1  0  0  0  0
 27 46  1  0  0  0  0
M  END
> <s_m_source_file>
AV-unprocessed.smi

> <i_m_source_file_index>
110

> <i_lp_mmshare_version>
43012

> <i_f3d_flags>
0

> <s_epik_input>
W09IXVtDSDJdW0NASF0xT1tDQEhdKFtDQEhdKFtPSF0pW0NAQEhdMVtPSF0pbihbY0hdbjIpYyhjMjMpbltjSF1uYzNOKFtDSDJdW0NIMl00KWMoYzQ1KVtjSF1bY0hdW2NIXVtjSF01

> <s_epik_cmdline>
J2VwaWtfcHl0aG9uJywgJy1waCcsICc3LjAnLCAnLXRuJywgJzgnLCAnLW1hJywgJzIwMCcsICctbWV0YWxfYmluZGluZycsICctaW1hZScsICc8aW5maWxlLm1hZT4nLCAnLW9tYWUnLCAnPG91dGZpbGUubWFlPic=

> <r_lp_tautomer_probability>
1

> <r_epik_Ionization_Penalty>
0.00068475

> <r_epik_Ionization_Penalty_Charging>
0

> <r_epik_Ionization_Penalty_Neutral>
0.00068475

> <r_epik_State_Penalty>
0.000417442

> <r_epik_Charging_Adjusted_Penalty>
0.000417442

> <i_epik_Tot_Q>
0

> <i_epik_Tot_abs_Q>
0

> <r_epik_Metal_State_Penalty>
-0

> <b_epik_Metal_Only>
0

> <s_epik_Chemistry_Notes>
This compound contains an acetal/aminal-like group ( X-CH(R)-Y where X, Y are N, S, or O) that may be acid/base labile, releasing an aldehyde.

> <s_lp_Force_Field>
OPLS_2005

> <r_lp_Energy>
59.87

> <b_lp_Chiralities_Consistent>
1

> <s_lp_Variant>
AV-unprocessed.smi:110-9

> <Gold.Version>
5.8.1

> <Gold.Id.Protein>
6NUR|6NUR_protein|mol2

> <Gold.PLP.Fitness>
64.2853

> <Gold.PLP.PLP>
-53.1740

> <Gold.PLP.part.hbond>
-5.7011

> <Gold.PLP.part.metal>
0.0000

> <Gold.PLP.part.buried>
0.6339

> <Gold.PLP.part.nonpolar>
-48.1860

> <Gold.PLP.part.repulsive>
0.8243

> <Gold.PLP.ligand.clash>
0.4243

> <Gold.PLP.ligand.torsion>
0.6325

> <Gold.PLP.Chemscore.Hbond>
3.4956

> <Gold.PLP.Chemscore.CHOScore>
0.7300

> <Gold.PLP.Chemscore.Metal>
0.0000

> <Gold.Chemscore.Hbonds>
donor molecule, donor type, donor heavy atom, donor atom, acceptor molecule, acceptor atom, score
      L1  H    25    45       P1  7957  0.96
      L1  H    27    46       P1 10175  0.81
      P1  H  7989  7998       L1    22  0.60
      P1  H  7997  8009       L1    20  0.98
      L1  C     7    35       P1  8028  0.66

> <Gold.PLP.Chemscore.Internal.Correction>
0.1236

> <Gold.Rescore>
     Score         DG    S(hbond)    S(metal)    S(lipo)     H(rot)  DE(clash)    DE(int)     intcor
     11.94     -16.99       2.11        0.00     112.12       3.38       2.08       2.97       ----

> <Gold.Chemscore.Fitness>
11.9396

> <Gold.Chemscore.DG>
-16.9870

> <Gold.Chemscore.ZeroCoef>
-5.4800

> <Gold.Chemscore.Hbond>
2.1113

> <Gold.Chemscore.Metal>
0.0000

> <Gold.Chemscore.Lipo>
112.1159

> <Gold.Chemscore.Internal_Hbond>
0.0000

> <Gold.Chemscore.DEClash>
2.0781

> <Gold.Chemscore.DEInternal>
2.9692

> <Gold.Chemscore.Rot>
3.3837

> <Gold.Chemscore.Internal.Correction>
   9.000000E+99

> <Gold.Chemscore.Hbonds>
donor molecule, donor type, donor heavy atom, donor atom, acceptor molecule, acceptor atom, score
      L1  H    25    45       P1  7957  0.91
      L1  H    27    46       P1 10175  0.79
      P1  H  7989  7998       L1    22  0.04
      P1  H  7997  8009       L1    20  0.41

> <Gold.Chemscore.Hbond.Weighted>
-7.0516

> <Gold.Chemscore.Metal.Weighted>
-0.0000

> <Gold.Chemscore.Lipo.Weighted>
-13.1176

> <Gold.Chemscore.Internal_Hbond.Weighted>
0.0000

> <Gold.Chemscore.DEClash.Weighted>
2.0781

> <Gold.Chemscore.DEInternal.Weighted>
2.9692

> <Gold.Chemscore.Rot.Weighted>
8.6622

> <Gold.Chemscore.Internal.Correction.Weighted>
   9.000000E+99

> <Gold.Protein.RotatedTorsions>
[ 6907 6896 6895 6894 ] final   66.47 input  -60.11 | X-H torsion
[ 7974 7965 7964 7962 ] final  122.01 input  175.53 | X-H torsion
[ 8008 7997 7996 7995 ] final  161.87 input   59.86 | X-H torsion
[ 10167 10162 10161 10158 ] final  124.15 input  -65.29 | X-H torsion
[ 10718 10713 10712 10709 ] final   34.54 input   66.30 | X-H torsion
[ 10763 10752 10751 10750 ] final    2.32 input  -60.55 | X-H torsion
[ 11005 11000 10999 10996 ] final   -9.09 input  -57.11 | X-H torsion

> <Gold.Protein.ActiveResidues>
 VAL166  LYS551  ARG553  GLY616  TRP617  ASP618  TYR619  PRO620  LYS621  CYS622 
 ASP623  PHE694  ASN695  SER759  ASP760  ASP761  ALA762  ILE779  LEU786  VAL792 
 PHE793  MET794  SER795  GLU796  ALA797  LYS798  CYS799  TRP800  GLU811  SER814 

> <Gold.Protein.RotatedAtoms>
  152.4483  134.5448  159.9849 H   0  0  0  0  0  0  0  0  0  0  0  0  # atno 6907 bound_to 6896
  151.5527  133.3409  159.2964 H   0  0  0  0  0  0  0  0  0  0  0  0  # atno 6908 bound_to 6896
  150.8405  134.7727  159.6992 H   0  0  0  0  0  0  0  0  0  0  0  0  # atno 6909 bound_to 6896
  145.1126  139.3442  143.4755 H   0  0  0  0  0  0  0  0  0  0  0  0  # atno 7974 bound_to 7965
  156.2072  140.1765  156.7774 H   0  0  0  0  0  0  0  0  0  0  0  0  # atno 8008 bound_to 7997
  154.5671  140.0689  156.8939 H   0  0  0  0  0  0  0  0  0  0  0  0  # atno 8009 bound_to 7997
  155.2740  140.3344  155.4265 H   0  0  0  0  0  0  0  0  0  0  0  0  # atno 8010 bound_to 7997
  139.5758  144.6962  151.3657 H   0  0  0  0  0  0  0  0  0  0  0  0  # atno 10167 bound_to 10162
  157.3116  130.7402  149.6728 H   0  0  0  0  0  0  0  0  0  0  0  0  # atno 10718 bound_to 10713
  153.2970  135.6953  153.7238 H   0  0  0  0  0  0  0  0  0  0  0  0  # atno 10763 bound_to 10752
  153.6167  135.3434  155.2998 H   0  0  0  0  0  0  0  0  0  0  0  0  # atno 10764 bound_to 10752
  154.8540  135.4376  154.2070 H   0  0  0  0  0  0  0  0  0  0  0  0  # atno 10765 bound_to 10752
  140.7304  133.8754  155.8889 H   0  0  0  0  0  0  0  0  0  0  0  0  # atno 11005 bound_to 11000
  146.3525  140.1051  142.8606 LP  0  0  0  0  0  0  0  0  0  0  0  0  # atno 17320 bound_to 7965
  145.0830  140.9234  143.4814 LP  0  0  0  0  0  0  0  0  0  0  0  0  # atno 17321 bound_to 7965
  140.7041  143.7559  150.7451 LP  0  0  0  0  0  0  0  0  0  0  0  0  # atno 17342 bound_to 10162
  140.1078  143.4727  152.2388 LP  0  0  0  0  0  0  0  0  0  0  0  0  # atno 17343 bound_to 10162
  155.9678  130.4250  150.4632 LP  0  0  0  0  0  0  0  0  0  0  0  0  # atno 17370 bound_to 10713
  157.2632  131.0571  151.2307 LP  0  0  0  0  0  0  0  0  0  0  0  0  # atno 17371 bound_to 10713
  140.9926  134.1258  157.4394 LP  0  0  0  0  0  0  0  0  0  0  0  0  # atno 17394 bound_to 11000
  139.8827  135.0045  156.6252 LP  0  0  0  0  0  0  0  0  0  0  0  0  # atno 17395 bound_to 11000

$$$$
