AV-unprocessed.smi:1586|AV-procd|sdf|6377|dock1
  -GOLD-   22720 7 03D 1   1.00000     0.00000
 Structure written by MMmdl.
 46 47  0  0  0  0  0  0  0  0  1 V2000
  152.5283  144.9781  158.5559 C   0  0  0  0  0  0  0  0  0  0  0  0
  151.8621  143.6906  159.0628 C   0  0  0  0  0  0  0  0  0  0  0  0
  151.9624  142.5481  158.1569 N   0  0  0  0  0  0  0  0  0  0  0  0
  151.8121  141.2687  158.8479 C   0  0  0  0  0  0  0  0  0  0  0  0
  151.9223  140.0803  157.8746 C   0  0  0  0  0  0  0  0  0  0  0  0
  150.9133  140.1284  156.8044 N   0  0  0  0  0  0  0  0  0  0  0  0
  151.0314  138.9949  155.8581 C   0  0  2  0  0  0  0  0  0  0  0  0
  152.3542  139.0240  155.0508 C   0  0  0  0  0  0  0  0  0  0  0  0
  149.8397  138.8968  154.8612 C   0  0  0  0  0  0  0  0  0  0  0  0
  149.6704  137.5642  154.2874 N   0  0  0  0  0  0  0  0  0  0  0  0
  149.8785  136.4127  154.9424 C   0  0  0  0  0  0  0  0  0  0  0  0
  150.2334  136.3584  156.1198 O   0  0  0  0  0  0  0  0  0  0  0  0
  149.6518  135.3533  154.1474 N   0  0  0  0  0  0  0  0  0  0  0  0
  149.7642  133.9744  154.4620 C   0  0  0  0  0  0  0  0  0  0  0  0
  149.6718  132.8880  153.5438 C   0  0  0  0  0  0  0  0  0  0  0  0
  149.8473  131.7949  154.3443 C   0  0  0  0  0  0  0  0  0  0  0  0
  149.8742  130.3305  154.0694 C   0  0  0  0  0  0  0  0  0  0  0  0
  150.0289  132.1779  155.6365 O   0  0  0  0  0  0  0  0  0  0  0  0
  149.9745  133.5748  155.7029 N   0  0  0  0  0  0  0  0  0  0  0  0
  151.0495  141.4324  156.1365 C   0  0  0  0  0  0  0  0  0  0  0  0
  150.9393  142.6133  157.1181 C   0  0  0  0  0  0  0  0  0  0  0  0
  152.3194  145.8080  159.2310 H   0  0  0  0  0  0  0  0  0  0  0  0
  152.1539  145.2518  157.5692 H   0  0  0  0  0  0  0  0  0  0  0  0
  153.6116  144.8791  158.4919 H   0  0  0  0  0  0  0  0  0  0  0  0
  152.2704  143.4284  160.0400 H   0  0  0  0  0  0  0  0  0  0  0  0
  150.8073  143.9137  159.2294 H   0  0  0  0  0  0  0  0  0  0  0  0
  152.5823  141.1607  159.6107 H   0  0  0  0  0  0  0  0  0  0  0  0
  150.8519  141.2318  159.3653 H   0  0  0  0  0  0  0  0  0  0  0  0
  152.9244  140.0483  157.4439 H   0  0  0  0  0  0  0  0  0  0  0  0
  151.8062  139.1795  158.4729 H   0  0  0  0  0  0  0  0  0  0  0  0
  151.0384  138.0744  156.4438 H   0  0  0  0  0  0  0  0  0  0  0  0
  152.4126  138.2212  154.3170 H   0  0  0  0  0  0  0  0  0  0  0  0
  153.2287  138.8894  155.6859 H   0  0  0  0  0  0  0  0  0  0  0  0
  152.4678  139.9665  154.5143 H   0  0  0  0  0  0  0  0  0  0  0  0
  148.8906  139.1568  155.3274 H   0  0  0  0  0  0  0  0  0  0  0  0
  149.9829  139.6028  154.0427 H   0  0  0  0  0  0  0  0  0  0  0  0
  149.3797  137.5193  153.3217 H   0  0  0  0  0  0  0  0  0  0  0  0
  149.3641  135.5565  153.2015 H   0  0  0  0  0  0  0  0  0  0  0  0
  149.5066  132.8905  152.4772 H   0  0  0  0  0  0  0  0  0  0  0  0
  149.9456  130.1366  152.9991 H   0  0  0  0  0  0  0  0  0  0  0  0
  148.9684  129.8511  154.4406 H   0  0  0  0  0  0  0  0  0  0  0  0
  150.7299  129.8608  154.5547 H   0  0  0  0  0  0  0  0  0  0  0  0
  152.0010  141.4834  155.6046 H   0  0  0  0  0  0  0  0  0  0  0  0
  150.2648  141.5658  155.3942 H   0  0  0  0  0  0  0  0  0  0  0  0
  149.9457  142.6237  157.5694 H   0  0  0  0  0  0  0  0  0  0  0  0
  151.0379  143.5469  156.5632 H   0  0  0  0  0  0  0  0  0  0  0  0
  1  2  1  0  0  0  0
  1 22  1  0  0  0  0
  1 23  1  0  0  0  0
  1 24  1  0  0  0  0
  2  3  1  0  0  0  0
  2 25  1  0  0  0  0
  2 26  1  0  0  0  0
  3 21  1  0  0  0  0
  3  4  1  0  0  0  0
  4  5  1  0  0  0  0
  4 27  1  0  0  0  0
  4 28  1  0  0  0  0
  5  6  1  0  0  0  0
  5 29  1  0  0  0  0
  5 30  1  0  0  0  0
  6  7  1  0  0  0  0
  6 20  1  0  0  0  0
  7  8  1  0  0  0  0
  7  9  1  0  0  0  0
  7 31  1  0  0  0  0
  8 32  1  0  0  0  0
  8 33  1  0  0  0  0
  8 34  1  0  0  0  0
  9 10  1  0  0  0  0
  9 35  1  0  0  0  0
  9 36  1  0  0  0  0
 10 11  1  0  0  0  0
 10 37  1  0  0  0  0
 11 12  2  0  0  0  0
 11 13  1  0  0  0  0
 13 14  1  0  0  0  0
 13 38  1  0  0  0  0
 14 19  2  0  0  0  0
 14 15  1  0  0  0  0
 15 16  2  0  0  0  0
 15 39  1  0  0  0  0
 16 17  1  0  0  0  0
 16 18  1  0  0  0  0
 17 40  1  0  0  0  0
 17 41  1  0  0  0  0
 17 42  1  0  0  0  0
 18 19  1  0  0  0  0
 20 21  1  0  0  0  0
 20 43  1  0  0  0  0
 20 44  1  0  0  0  0
 21 45  1  0  0  0  0
 21 46  1  0  0  0  0
M  END
> <s_m_source_file>
AV-unprocessed.smi

> <i_m_source_file_index>
1586

> <i_lp_mmshare_version>
43012

> <i_f3d_flags>
0

> <s_epik_input>
W0NIM11bQ0gyXU4xW0NIMl1bQ0gyXU4oW0NIMl1bQ0gyXTEpW0NASF0oW0NIM10pW0NIMl1bTkhdQyg9TylbTkhdYzJbY0hdYyhbQ0gzXSlvbjI=

> <s_epik_cmdline>
J2VwaWtfcHl0aG9uJywgJy1waCcsICc3LjAnLCAnLXRuJywgJzgnLCAnLW1hJywgJzIwMCcsICctbWV0YWxfYmluZGluZycsICctaW1hZScsICc8aW5maWxlLm1hZT4nLCAnLW9tYWUnLCAnPG91dGZpbGUubWFlPic=

> <r_epik_Ionization_Penalty>
2.42597

> <r_epik_Ionization_Penalty_Charging>
0

> <r_epik_Ionization_Penalty_Neutral>
2.42597

> <r_epik_State_Penalty>
1.76326

> <r_epik_Charging_Adjusted_Penalty>
1.76326

> <i_epik_Tot_Q>
0

> <i_epik_Tot_abs_Q>
0

> <r_epik_Metal_State_Penalty>
1.7742

> <b_epik_Metal_Only>
0

> <s_lp_Force_Field>
OPLS_2005

> <r_lp_Energy>
40.1671

> <b_lp_Chiralities_Consistent>
1

> <s_lp_Variant>
AV-unprocessed.smi:1586-5

> <Gold.Version>
5.8.1

> <Gold.Id.Protein>
6NUR|6NUR_protein|mol2

> <Gold.PLP.Fitness>
42.8874

> <Gold.PLP.PLP>
-38.1756

> <Gold.PLP.part.hbond>
-2.0000

> <Gold.PLP.part.metal>
0.0000

> <Gold.PLP.part.buried>
-5.1998

> <Gold.PLP.part.nonpolar>
-31.0890

> <Gold.PLP.part.repulsive>
0.0823

> <Gold.PLP.ligand.clash>
0.0000

> <Gold.PLP.ligand.torsion>
0.6299

> <Gold.PLP.Chemscore.Hbond>
1.9600

> <Gold.PLP.Chemscore.CHOScore>
0.0000

> <Gold.PLP.Chemscore.Metal>
0.0000

> <Gold.Chemscore.Hbonds>
donor molecule, donor type, donor heavy atom, donor atom, acceptor molecule, acceptor atom, score
      L1  H    10    37       P1  7948  0.85
      L1  H    13    38       P1  7948  0.81

> <Gold.PLP.Chemscore.Internal.Correction>
0.0915

> <Gold.Rescore>
     Score         DG    S(hbond)    S(metal)    S(lipo)     H(rot)  DE(clash)    DE(int)     intcor
     13.83     -16.97       1.84        0.00      83.37       1.72       0.00       3.14       ----

> <Gold.Chemscore.Fitness>
13.8319

> <Gold.Chemscore.DG>
-16.9697

> <Gold.Chemscore.ZeroCoef>
-5.4800

> <Gold.Chemscore.Hbond>
1.8363

> <Gold.Chemscore.Metal>
0.0000

> <Gold.Chemscore.Lipo>
83.3676

> <Gold.Chemscore.Internal_Hbond>
0.0000

> <Gold.Chemscore.DEClash>
0.0000

> <Gold.Chemscore.DEInternal>
3.1377

> <Gold.Chemscore.Rot>
1.7178

> <Gold.Chemscore.Internal.Correction>
   9.000000E+99

> <Gold.Chemscore.Hbonds>
donor molecule, donor type, donor heavy atom, donor atom, acceptor molecule, acceptor atom, score
      L1  H    10    37       P1  7948  0.80
      L1  H    13    38       P1  7948  0.13

> <Gold.Chemscore.Hbond.Weighted>
-6.1333

> <Gold.Chemscore.Metal.Weighted>
-0.0000

> <Gold.Chemscore.Lipo.Weighted>
-9.7540

> <Gold.Chemscore.Internal_Hbond.Weighted>
0.0000

> <Gold.Chemscore.DEClash.Weighted>
0.0000

> <Gold.Chemscore.DEInternal.Weighted>
3.1377

> <Gold.Chemscore.Rot.Weighted>
4.3976

> <Gold.Chemscore.Internal.Correction.Weighted>
   9.000000E+99

> <Gold.Protein.RotatedTorsions>
[ 6907 6896 6895 6894 ] final -132.59 input  -60.11 | X-H torsion
[ 7974 7965 7964 7962 ] final  -97.04 input  175.53 | X-H torsion
[ 8008 7997 7996 7995 ] final -164.37 input   59.86 | X-H torsion
[ 10167 10162 10161 10158 ] final  -42.54 input  -65.29 | X-H torsion
[ 10718 10713 10712 10709 ] final -128.74 input   66.30 | X-H torsion
[ 10763 10752 10751 10750 ] final  142.16 input  -60.55 | X-H torsion
[ 11005 11000 10999 10996 ] final  -28.30 input  -57.11 | X-H torsion

> <Gold.Protein.ActiveResidues>
 VAL166  LYS551  ARG553  GLY616  TRP617  ASP618  TYR619  PRO620  LYS621  CYS622 
 ASP623  PHE694  ASN695  SER759  ASP760  ASP761  ALA762  ILE779  LEU786  VAL792 
 PHE793  MET794  SER795  GLU796  ALA797  LYS798  CYS799  TRP800  GLU811  SER814 

> <Gold.Protein.RotatedAtoms>
  150.9641  133.6413  159.2748 H   0  0  0  0  0  0  0  0  0  0  0  0  # atno 6907 bound_to 6896
  151.3725  135.0924  159.9480 H   0  0  0  0  0  0  0  0  0  0  0  0  # atno 6908 bound_to 6896
  152.5159  133.9193  159.7581 H   0  0  0  0  0  0  0  0  0  0  0  0  # atno 6909 bound_to 6896
  145.3390  140.9456  143.2618 H   0  0  0  0  0  0  0  0  0  0  0  0  # atno 7974 bound_to 7965
  155.8347  140.0939  157.1771 H   0  0  0  0  0  0  0  0  0  0  0  0  # atno 8008 bound_to 7997
  154.3980  140.1412  156.3717 H   0  0  0  0  0  0  0  0  0  0  0  0  # atno 8009 bound_to 7997
  155.8129  140.3449  155.5470 H   0  0  0  0  0  0  0  0  0  0  0  0  # atno 8010 bound_to 7997
  140.6966  143.3032  151.3223 H   0  0  0  0  0  0  0  0  0  0  0  0  # atno 10167 bound_to 10162
  156.1979  130.6838  151.0504 H   0  0  0  0  0  0  0  0  0  0  0  0  # atno 10718 bound_to 10713
  153.9512  135.2970  155.3438 H   0  0  0  0  0  0  0  0  0  0  0  0  # atno 10763 bound_to 10752
  154.7425  135.5018  153.9150 H   0  0  0  0  0  0  0  0  0  0  0  0  # atno 10764 bound_to 10752
  153.0993  135.6730  153.9812 H   0  0  0  0  0  0  0  0  0  0  0  0  # atno 10765 bound_to 10752
  140.9196  133.7407  156.0783 H   0  0  0  0  0  0  0  0  0  0  0  0  # atno 11005 bound_to 11000
  144.8805  139.4911  143.6725 LP  0  0  0  0  0  0  0  0  0  0  0  0  # atno 17320 bound_to 7965
  146.3015  139.7442  142.9088 LP  0  0  0  0  0  0  0  0  0  0  0  0  # atno 17321 bound_to 7965
  139.6428  144.0507  152.2568 LP  0  0  0  0  0  0  0  0  0  0  0  0  # atno 17342 bound_to 10162
  140.0018  144.6288  150.7723 LP  0  0  0  0  0  0  0  0  0  0  0  0  # atno 17343 bound_to 10162
  157.6968  131.0791  150.6943 LP  0  0  0  0  0  0  0  0  0  0  0  0  # atno 17370 bound_to 10713
  156.7000  130.4620  149.5575 LP  0  0  0  0  0  0  0  0  0  0  0  0  # atno 17371 bound_to 10713
  140.8005  134.3515  157.5441 LP  0  0  0  0  0  0  0  0  0  0  0  0  # atno 17394 bound_to 11000
  139.8773  134.9194  156.3227 LP  0  0  0  0  0  0  0  0  0  0  0  0  # atno 17395 bound_to 11000

$$$$
