AV-unprocessed.smi:2102|AV-procd|sdf|8581|dock5
  -GOLD-   2272011313D 1   1.00000     0.00000
 Structure written by MMmdl.
 29 30  0  0  0  0  0  0  0  0  1 V2000
  153.7121  141.0116  160.0583 C   0  0  0  0  0  0  0  0  0  0  0  0
  152.6564  141.7672  159.4169 N   0  0  0  0  0  0  0  0  0  0  0  0
  152.1689  142.9421  160.0391 C   0  0  0  0  0  0  0  0  0  0  0  0
  152.6083  143.3586  161.1114 O   0  0  0  0  0  0  0  0  0  0  0  0
  151.1027  143.6144  159.3058 C   0  0  0  0  0  0  0  0  0  0  0  0
  150.6482  143.1214  158.1329 C   0  0  0  0  0  0  0  0  0  0  0  0
  151.1434  141.9709  157.5465 N   0  0  0  0  0  0  0  0  0  0  0  0
  150.6047  141.5194  156.2571 C   0  0  0  0  0  0  0  0  0  0  0  0
  149.0872  141.2910  156.2919 C   0  0  0  0  0  0  0  0  0  0  0  0
  148.6138  140.3086  156.8650 O   0  0  0  0  0  0  0  0  0  0  0  0
  148.3404  142.2032  155.6530 N   0  0  0  0  0  0  0  0  0  0  0  0
  146.9166  142.1869  155.5551 C   0  0  0  0  0  0  0  0  0  0  0  0
  146.2784  141.0657  154.7641 C   0  0  0  0  0  0  0  0  0  0  0  0
  146.3025  142.4591  154.1988 C   0  0  0  0  0  0  0  0  0  0  0  0
  152.1765  141.2571  158.1909 C   0  0  0  0  0  0  0  0  0  0  0  0
  152.6371  140.2270  157.6919 O   0  0  0  0  0  0  0  0  0  0  0  0
  154.0427  141.4918  160.9786 H   0  0  0  0  0  0  0  0  0  0  0  0
  154.5452  140.9552  159.3552 H   0  0  0  0  0  0  0  0  0  0  0  0
  153.3101  140.0213  160.2791 H   0  0  0  0  0  0  0  0  0  0  0  0
  150.6728  144.5202  159.7070 H   0  0  0  0  0  0  0  0  0  0  0  0
  149.8594  143.6591  157.6270 H   0  0  0  0  0  0  0  0  0  0  0  0
  150.8552  142.2377  155.4740 H   0  0  0  0  0  0  0  0  0  0  0  0
  151.0823  140.5842  155.9615 H   0  0  0  0  0  0  0  0  0  0  0  0
  148.8172  142.9736  155.2074 H   0  0  0  0  0  0  0  0  0  0  0  0
  146.3519  142.5445  156.4152 H   0  0  0  0  0  0  0  0  0  0  0  0
  146.9339  140.3272  154.3063 H   0  0  0  0  0  0  0  0  0  0  0  0
  145.3229  140.6839  155.1181 H   0  0  0  0  0  0  0  0  0  0  0  0
  145.3638  143.0091  154.1757 H   0  0  0  0  0  0  0  0  0  0  0  0
  146.9737  142.6496  153.3633 H   0  0  0  0  0  0  0  0  0  0  0  0
  1  2  1  0  0  0  0
  1 17  1  0  0  0  0
  1 18  1  0  0  0  0
  1 19  1  0  0  0  0
  2 15  1  0  0  0  0
  2  3  1  0  0  0  0
  3  4  2  0  0  0  0
  3  5  1  0  0  0  0
  5  6  2  0  0  0  0
  5 20  1  0  0  0  0
  6  7  1  0  0  0  0
  6 21  1  0  0  0  0
  7  8  1  0  0  0  0
  7 15  1  0  0  0  0
  8  9  1  0  0  0  0
  8 22  1  0  0  0  0
  8 23  1  0  0  0  0
  9 10  2  0  0  0  0
  9 11  1  0  0  0  0
 11 12  1  0  0  0  0
 11 24  1  0  0  0  0
 12 14  1  0  0  0  0
 12 13  1  0  0  0  0
 12 25  1  0  0  0  0
 13 14  1  0  0  0  0
 13 26  1  0  0  0  0
 13 27  1  0  0  0  0
 14 28  1  0  0  0  0
 14 29  1  0  0  0  0
 15 16  2  0  0  0  0
M  END
> <s_m_source_file>
AV-unprocessed.smi

> <i_m_source_file_index>
2102

> <i_lp_mmshare_version>
43012

> <i_f3d_flags>
0

> <s_epik_input>
W0NIM11uMWMoPU8pW2NIXVtjSF1uKGMxPU8pW0NIMl1DKD1PKVtOSF1bQ0hdMltDSDJdW0NIMl0y

> <s_epik_cmdline>
J2VwaWtfcHl0aG9uJywgJy1waCcsICc3LjAnLCAnLXRuJywgJzgnLCAnLW1hJywgJzIwMCcsICctbWV0YWxfYmluZGluZycsICctaW1hZScsICc8aW5maWxlLm1hZT4nLCAnLW9tYWUnLCAnPG91dGZpbGUubWFlPic=

> <r_lp_tautomer_probability>
1

> <r_epik_Ionization_Penalty>
3.25544e-08

> <r_epik_Ionization_Penalty_Charging>
1.18841e-08

> <r_epik_Ionization_Penalty_Neutral>
2.06703e-08

> <r_epik_State_Penalty>
-0

> <r_epik_Charging_Adjusted_Penalty>
1.18841e-08

> <i_epik_Tot_Q>
0

> <i_epik_Tot_abs_Q>
0

> <r_epik_Metal_State_Penalty>
-0

> <b_epik_Metal_Only>
0

> <s_lp_Force_Field>
OPLS_2005

> <r_lp_Energy>
23.1094

> <b_lp_Chiralities_Consistent>
1

> <s_lp_Variant>
AV-unprocessed.smi:2102-1

> <Gold.Version>
5.8.1

> <Gold.Id.Protein>
6NUR|6NUR_protein|mol2

> <Gold.PLP.Fitness>
37.6089

> <Gold.PLP.PLP>
-30.4681

> <Gold.PLP.part.hbond>
-1.7990

> <Gold.PLP.part.metal>
0.0000

> <Gold.PLP.part.buried>
-3.7504

> <Gold.PLP.part.nonpolar>
-25.5973

> <Gold.PLP.part.repulsive>
0.2067

> <Gold.PLP.ligand.clash>
0.0000

> <Gold.PLP.ligand.torsion>
0.2763

> <Gold.PLP.Chemscore.Hbond>
1.5520

> <Gold.PLP.Chemscore.CHOScore>
1.0000

> <Gold.PLP.Chemscore.Metal>
0.0000

> <Gold.Chemscore.Hbonds>
donor molecule, donor type, donor heavy atom, donor atom, acceptor molecule, acceptor atom, score
      L1  H    11    24       P1  8028  0.61
      P1  H  7997  8010       L1    16  0.89
      L1  C     6    21       P1  8028  1.00

> <Gold.PLP.Chemscore.Internal.Correction>
0.0375

> <Gold.Rescore>
     Score         DG    S(hbond)    S(metal)    S(lipo)     H(rot)  DE(clash)    DE(int)     intcor
     12.57     -12.85       1.86        0.00      45.35       1.62       0.03       0.25       ----

> <Gold.Chemscore.Fitness>
12.5702

> <Gold.Chemscore.DG>
-12.8513

> <Gold.Chemscore.ZeroCoef>
-5.4800

> <Gold.Chemscore.Hbond>
1.8596

> <Gold.Chemscore.Metal>
0.0000

> <Gold.Chemscore.Lipo>
45.3461

> <Gold.Chemscore.Internal_Hbond>
0.0000

> <Gold.Chemscore.DEClash>
0.0331

> <Gold.Chemscore.DEInternal>
0.2481

> <Gold.Chemscore.Rot>
1.6192

> <Gold.Chemscore.Internal.Correction>
   9.000000E+99

> <Gold.Chemscore.Hbonds>
donor molecule, donor type, donor heavy atom, donor atom, acceptor molecule, acceptor atom, score
      L1  H    11    24       P1  8028  0.62
      P1  H  7997  8010       L1    16  0.80

> <Gold.Chemscore.Hbond.Weighted>
-6.2111

> <Gold.Chemscore.Metal.Weighted>
-0.0000

> <Gold.Chemscore.Lipo.Weighted>
-5.3055

> <Gold.Chemscore.Internal_Hbond.Weighted>
0.0000

> <Gold.Chemscore.DEClash.Weighted>
0.0331

> <Gold.Chemscore.DEInternal.Weighted>
0.2481

> <Gold.Chemscore.Rot.Weighted>
4.1452

> <Gold.Chemscore.Internal.Correction.Weighted>
   9.000000E+99

> <Gold.Protein.RotatedTorsions>
[ 6907 6896 6895 6894 ] final  -12.22 input  -60.11 | X-H torsion
[ 7974 7965 7964 7962 ] final   23.49 input  175.53 | X-H torsion
[ 8008 7997 7996 7995 ] final   62.49 input   59.86 | X-H torsion
[ 10167 10162 10161 10158 ] final  -52.29 input  -65.29 | X-H torsion
[ 10718 10713 10712 10709 ] final    9.14 input   66.30 | X-H torsion
[ 10763 10752 10751 10750 ] final   96.17 input  -60.55 | X-H torsion
[ 11005 11000 10999 10996 ] final   -8.98 input  -57.11 | X-H torsion

> <Gold.Protein.ActiveResidues>
 VAL166  LYS551  ARG553  GLY616  TRP617  ASP618  TYR619  PRO620  LYS621  CYS622 
 ASP623  PHE694  ASN695  SER759  ASP760  ASP761  ALA762  ILE779  LEU786  VAL792 
 PHE793  MET794  SER795  GLU796  ALA797  LYS798  CYS799  TRP800  GLU811  SER814 

> <Gold.Protein.RotatedAtoms>
  151.3739  135.0927  159.9474 H   0  0  0  0  0  0  0  0  0  0  0  0  # atno 6907 bound_to 6896
  152.5128  133.9138  159.7511 H   0  0  0  0  0  0  0  0  0  0  0  0  # atno 6908 bound_to 6896
  150.9557  133.6445  159.2792 H   0  0  0  0  0  0  0  0  0  0  0  0  # atno 6909 bound_to 6896
  146.1982  139.7737  142.8782 H   0  0  0  0  0  0  0  0  0  0  0  0  # atno 7974 bound_to 7965
  155.6152  140.3495  155.4634 H   0  0  0  0  0  0  0  0  0  0  0  0  # atno 8008 bound_to 7997
  156.0123  140.1236  157.0465 H   0  0  0  0  0  0  0  0  0  0  0  0  # atno 8009 bound_to 7997
  154.4285  140.1079  156.5833 H   0  0  0  0  0  0  0  0  0  0  0  0  # atno 8010 bound_to 7997
  140.6545  143.2589  151.4627 H   0  0  0  0  0  0  0  0  0  0  0  0  # atno 10167 bound_to 10162
  156.9619  130.5936  149.5663 H   0  0  0  0  0  0  0  0  0  0  0  0  # atno 10718 bound_to 10713
  153.2617  135.4228  155.0901 H   0  0  0  0  0  0  0  0  0  0  0  0  # atno 10763 bound_to 10752
  154.8423  135.3450  154.6368 H   0  0  0  0  0  0  0  0  0  0  0  0  # atno 10764 bound_to 10752
  153.6788  135.7040  153.5181 H   0  0  0  0  0  0  0  0  0  0  0  0  # atno 10765 bound_to 10752
  140.7293  133.8762  155.8880 H   0  0  0  0  0  0  0  0  0  0  0  0  # atno 11005 bound_to 11000
  145.3574  141.0319  143.3304 LP  0  0  0  0  0  0  0  0  0  0  0  0  # atno 17320 bound_to 7965
  144.8625  139.5157  143.6806 LP  0  0  0  0  0  0  0  0  0  0  0  0  # atno 17321 bound_to 7965
  139.5765  144.1808  152.1910 LP  0  0  0  0  0  0  0  0  0  0  0  0  # atno 17342 bound_to 10162
  140.1120  144.5449  150.6919 LP  0  0  0  0  0  0  0  0  0  0  0  0  # atno 17343 bound_to 10162
  156.0318  130.5409  150.8554 LP  0  0  0  0  0  0  0  0  0  0  0  0  # atno 17370 bound_to 10713
  157.5652  131.0946  150.9501 LP  0  0  0  0  0  0  0  0  0  0  0  0  # atno 17371 bound_to 10713
  140.9935  134.1246  157.4386 LP  0  0  0  0  0  0  0  0  0  0  0  0  # atno 17394 bound_to 11000
  139.8830  135.0047  156.6269 LP  0  0  0  0  0  0  0  0  0  0  0  0  # atno 17395 bound_to 11000

$$$$
