AV-unprocessed.smi:1461|AV-procd|sdf|5930|dock2
  -GOLD-   22720 6 13D 1   1.00000     0.00000
 Structure written by MMmdl.
 41 42  0  0  0  0  0  0  0  0  1 V2000
  152.6229  144.8727  157.8948 C   0  0  0  0  0  0  0  0  0  0  0  0
  151.9907  144.5236  159.2538 C   0  0  0  0  0  0  0  0  0  0  0  0
  152.6509  143.2706  159.8474 C   0  0  0  0  0  0  0  0  0  0  0  0
  150.4599  144.3445  159.1750 C   0  0  0  0  0  0  0  0  0  0  0  0
  150.0398  143.7097  157.9290 N   0  0  0  0  0  0  0  0  0  0  0  0
  150.3225  142.4516  157.5621 C   0  0  0  0  0  0  0  0  0  0  0  0
  150.9669  141.6641  158.2555 O   0  0  0  0  0  0  0  0  0  0  0  0
  149.8364  142.1831  156.3393 N   0  0  0  0  0  0  0  0  0  0  0  0
  150.0263  141.0004  155.5722 C   0  0  0  0  0  0  0  0  0  0  0  0
  151.2564  140.2997  155.5990 C   0  0  0  0  0  0  0  0  0  0  0  0
  151.3808  139.0974  154.8820 C   0  0  0  0  0  0  0  0  0  0  0  0
  150.2620  138.6281  154.1741 C   0  0  0  0  0  0  0  0  0  0  0  0
  149.0803  139.2764  154.1496 N   0  0  0  0  0  0  0  0  0  0  0  0
  148.9485  140.4456  154.8240 C   0  0  0  0  0  0  0  0  0  0  0  0
  147.6917  141.0897  154.7456 N   0  0  0  0  0  0  0  0  0  0  0  0
  147.5118  142.2606  153.8940 C   0  0  0  0  0  0  0  0  0  0  0  0
  146.1970  142.8845  154.3522 C   0  0  0  0  0  0  0  0  0  0  0  0
  146.2201  142.6239  155.8551 C   0  0  0  0  0  0  0  0  0  0  0  0
  146.9305  141.2718  155.9785 C   0  0  0  0  0  0  0  0  0  0  0  0
  152.4078  144.1055  157.1503 H   0  0  0  0  0  0  0  0  0  0  0  0
  153.7065  144.9609  157.9775 H   0  0  0  0  0  0  0  0  0  0  0  0
  152.2530  145.8232  157.5107 H   0  0  0  0  0  0  0  0  0  0  0  0
  152.1967  145.3512  159.9340 H   0  0  0  0  0  0  0  0  0  0  0  0
  152.4878  142.3991  159.2127 H   0  0  0  0  0  0  0  0  0  0  0  0
  152.2488  143.0433  160.8348 H   0  0  0  0  0  0  0  0  0  0  0  0
  153.7272  143.4059  159.9559 H   0  0  0  0  0  0  0  0  0  0  0  0
  150.0981  143.7892  160.0421 H   0  0  0  0  0  0  0  0  0  0  0  0
  149.9749  145.3200  159.2199 H   0  0  0  0  0  0  0  0  0  0  0  0
  149.5064  144.2803  157.2895 H   0  0  0  0  0  0  0  0  0  0  0  0
  149.4085  142.9549  155.8489 H   0  0  0  0  0  0  0  0  0  0  0  0
  152.0968  140.6552  156.1760 H   0  0  0  0  0  0  0  0  0  0  0  0
  152.3073  138.5426  154.8859 H   0  0  0  0  0  0  0  0  0  0  0  0
  150.3146  137.7045  153.6168 H   0  0  0  0  0  0  0  0  0  0  0  0
  148.3228  142.9747  154.0427 H   0  0  0  0  0  0  0  0  0  0  0  0
  147.4846  141.9853  152.8394 H   0  0  0  0  0  0  0  0  0  0  0  0
  146.1180  143.9426  154.1020 H   0  0  0  0  0  0  0  0  0  0  0  0
  145.3555  142.3617  153.8954 H   0  0  0  0  0  0  0  0  0  0  0  0
  146.8113  143.3952  156.3508 H   0  0  0  0  0  0  0  0  0  0  0  0
  145.2263  142.6222  156.3035 H   0  0  0  0  0  0  0  0  0  0  0  0
  146.1929  140.4728  156.0576 H   0  0  0  0  0  0  0  0  0  0  0  0
  147.5660  141.2352  156.8644 H   0  0  0  0  0  0  0  0  0  0  0  0
  1  2  1  0  0  0  0
  1 20  1  0  0  0  0
  1 21  1  0  0  0  0
  1 22  1  0  0  0  0
  2  3  1  0  0  0  0
  2  4  1  0  0  0  0
  2 23  1  0  0  0  0
  3 24  1  0  0  0  0
  3 25  1  0  0  0  0
  3 26  1  0  0  0  0
  4  5  1  0  0  0  0
  4 27  1  0  0  0  0
  4 28  1  0  0  0  0
  5  6  1  0  0  0  0
  5 29  1  0  0  0  0
  6  7  2  0  0  0  0
  6  8  1  0  0  0  0
  8  9  1  0  0  0  0
  8 30  1  0  0  0  0
  9 14  1  0  0  0  0
  9 10  2  0  0  0  0
 10 11  1  0  0  0  0
 10 31  1  0  0  0  0
 11 12  2  0  0  0  0
 11 32  1  0  0  0  0
 12 13  1  0  0  0  0
 12 33  1  0  0  0  0
 13 14  2  0  0  0  0
 14 15  1  0  0  0  0
 15 19  1  0  0  0  0
 15 16  1  0  0  0  0
 16 17  1  0  0  0  0
 16 34  1  0  0  0  0
 16 35  1  0  0  0  0
 17 18  1  0  0  0  0
 17 36  1  0  0  0  0
 17 37  1  0  0  0  0
 18 19  1  0  0  0  0
 18 38  1  0  0  0  0
 18 39  1  0  0  0  0
 19 40  1  0  0  0  0
 19 41  1  0  0  0  0
M  END
> <s_m_source_file>
AV-unprocessed.smi

> <i_m_source_file_index>
1461

> <i_lp_mmshare_version>
43012

> <i_f3d_flags>
0

> <s_epik_input>
W0NIM11bQ0hdKFtDSDNdKVtDSDJdW05IXUMoPU8pW05IXWMxW2NIXVtjSF1bY0hdbmMxTjJbQ0gyXVtDSDJdW0NIMl1bQ0gyXTI=

> <s_epik_cmdline>
J2VwaWtfcHl0aG9uJywgJy1waCcsICc3LjAnLCAnLXRuJywgJzgnLCAnLW1hJywgJzIwMCcsICctbWV0YWxfYmluZGluZycsICctaW1hZScsICc8aW5maWxlLm1hZT4nLCAnLW9tYWUnLCAnPG91dGZpbGUubWFlPic=

> <r_lp_tautomer_probability>
1

> <r_epik_Ionization_Penalty>
0.101487

> <r_epik_Ionization_Penalty_Charging>
0

> <r_epik_Ionization_Penalty_Neutral>
0.101487

> <r_epik_State_Penalty>
0.0909146

> <r_epik_Charging_Adjusted_Penalty>
0.0909146

> <i_epik_Tot_Q>
0

> <i_epik_Tot_abs_Q>
0

> <r_epik_Metal_State_Penalty>
0.0775598

> <b_epik_Metal_Only>
0

> <s_lp_Force_Field>
OPLS_2005

> <r_lp_Energy>
32.2638

> <b_lp_Chiralities_Consistent>
1

> <s_lp_Variant>
AV-unprocessed.smi:1461-1

> <Gold.Version>
5.8.1

> <Gold.Id.Protein>
6NUR|6NUR_protein|mol2

> <Gold.PLP.Fitness>
50.8666

> <Gold.PLP.PLP>
-42.7952

> <Gold.PLP.part.hbond>
-2.2338

> <Gold.PLP.part.metal>
0.0000

> <Gold.PLP.part.buried>
-5.5435

> <Gold.PLP.part.nonpolar>
-35.7923

> <Gold.PLP.part.repulsive>
0.6026

> <Gold.PLP.ligand.clash>
0.0000

> <Gold.PLP.ligand.torsion>
0.8068

> <Gold.PLP.Chemscore.Hbond>
2.0000

> <Gold.PLP.Chemscore.CHOScore>
1.1082

> <Gold.PLP.Chemscore.Metal>
0.0000

> <Gold.Chemscore.Hbonds>
donor molecule, donor type, donor heavy atom, donor atom, acceptor molecule, acceptor atom, score
      L1  H     5    29       P1  8028  0.90
      L1  H     8    30       P1  8028  1.00
      L1  C    12    33       P1  7948  0.77
      L1  C    12    33       P1  7949  0.08

> <Gold.PLP.Chemscore.Internal.Correction>
0.3604

> <Gold.Rescore>
     Score         DG    S(hbond)    S(metal)    S(lipo)     H(rot)  DE(clash)    DE(int)     intcor
     16.30     -18.39       1.43        0.00      98.55       1.32       0.21       1.88       ----

> <Gold.Chemscore.Fitness>
16.2980

> <Gold.Chemscore.DG>
-18.3927

> <Gold.Chemscore.ZeroCoef>
-5.4800

> <Gold.Chemscore.Hbond>
1.4294

> <Gold.Chemscore.Metal>
0.0000

> <Gold.Chemscore.Lipo>
98.5462

> <Gold.Chemscore.Internal_Hbond>
0.0000

> <Gold.Chemscore.DEClash>
0.2138

> <Gold.Chemscore.DEInternal>
1.8808

> <Gold.Chemscore.Rot>
1.3248

> <Gold.Chemscore.Internal.Correction>
   9.000000E+99

> <Gold.Chemscore.Hbonds>
donor molecule, donor type, donor heavy atom, donor atom, acceptor molecule, acceptor atom, score
      L1  H     5    29       P1  8028  0.18
      L1  H     8    30       P1  8028  0.98

> <Gold.Chemscore.Hbond.Weighted>
-4.7742

> <Gold.Chemscore.Metal.Weighted>
-0.0000

> <Gold.Chemscore.Lipo.Weighted>
-11.5299

> <Gold.Chemscore.Internal_Hbond.Weighted>
0.0000

> <Gold.Chemscore.DEClash.Weighted>
0.2138

> <Gold.Chemscore.DEInternal.Weighted>
1.8808

> <Gold.Chemscore.Rot.Weighted>
3.3915

> <Gold.Chemscore.Internal.Correction.Weighted>
   9.000000E+99

> <Gold.Protein.RotatedTorsions>
[ 6907 6896 6895 6894 ] final   97.84 input  -60.11 | X-H torsion
[ 7974 7965 7964 7962 ] final -153.34 input  175.53 | X-H torsion
[ 8008 7997 7996 7995 ] final -131.63 input   59.86 | X-H torsion
[ 10167 10162 10161 10158 ] final   93.21 input  -65.29 | X-H torsion
[ 10718 10713 10712 10709 ] final  111.42 input   66.30 | X-H torsion
[ 10763 10752 10751 10750 ] final  -94.92 input  -60.55 | X-H torsion
[ 11005 11000 10999 10996 ] final  119.37 input  -57.11 | X-H torsion

> <Gold.Protein.ActiveResidues>
 VAL166  LYS551  ARG553  GLY616  TRP617  ASP618  TYR619  PRO620  LYS621  CYS622 
 ASP623  PHE694  ASN695  SER759  ASP760  ASP761  ALA762  ILE779  LEU786  VAL792 
 PHE793  MET794  SER795  GLU796  ALA797  LYS798  CYS799  TRP800  GLU811  SER814 

> <Gold.Protein.RotatedAtoms>
  152.5418  134.0672  159.8177 H   0  0  0  0  0  0  0  0  0  0  0  0  # atno 6907 bound_to 6896
  151.0791  133.5397  159.2629 H   0  0  0  0  0  0  0  0  0  0  0  0  # atno 6908 bound_to 6896
  151.2231  135.0534  159.9011 H   0  0  0  0  0  0  0  0  0  0  0  0  # atno 6909 bound_to 6896
  144.7746  140.4539  143.5883 H   0  0  0  0  0  0  0  0  0  0  0  0  # atno 7974 bound_to 7965
  155.3156  140.0459  157.3037 H   0  0  0  0  0  0  0  0  0  0  0  0  # atno 8008 bound_to 7997
  154.5409  140.2287  155.8610 H   0  0  0  0  0  0  0  0  0  0  0  0  # atno 8009 bound_to 7997
  156.1879  140.3058  155.9281 H   0  0  0  0  0  0  0  0  0  0  0  0  # atno 8010 bound_to 7997
  139.8201  144.6735  150.9529 H   0  0  0  0  0  0  0  0  0  0  0  0  # atno 10167 bound_to 10162
  157.6445  131.0950  150.6747 H   0  0  0  0  0  0  0  0  0  0  0  0  # atno 10718 bound_to 10713
  154.7101  135.5139  153.8653 H   0  0  0  0  0  0  0  0  0  0  0  0  # atno 10763 bound_to 10752
  153.0773  135.6620  154.0127 H   0  0  0  0  0  0  0  0  0  0  0  0  # atno 10764 bound_to 10752
  153.9971  135.3014  155.3386 H   0  0  0  0  0  0  0  0  0  0  0  0  # atno 10765 bound_to 10752
  139.9144  134.9628  156.7645 H   0  0  0  0  0  0  0  0  0  0  0  0  # atno 11005 bound_to 11000
  145.6224  139.1526  143.3015 LP  0  0  0  0  0  0  0  0  0  0  0  0  # atno 17320 bound_to 7965
  146.1916  140.6333  142.9143 LP  0  0  0  0  0  0  0  0  0  0  0  0  # atno 17321 bound_to 7965
  140.7813  143.4100  151.1009 LP  0  0  0  0  0  0  0  0  0  0  0  0  # atno 17342 bound_to 10162
  139.7761  143.8424  152.3129 LP  0  0  0  0  0  0  0  0  0  0  0  0  # atno 17343 bound_to 10162
  156.7066  130.4639  149.5558 LP  0  0  0  0  0  0  0  0  0  0  0  0  # atno 17370 bound_to 10713
  156.1759  130.6467  151.0893 LP  0  0  0  0  0  0  0  0  0  0  0  0  # atno 17371 bound_to 10713
  140.6671  133.9593  155.7836 LP  0  0  0  0  0  0  0  0  0  0  0  0  # atno 17394 bound_to 11000
  141.0603  134.0355  157.3667 LP  0  0  0  0  0  0  0  0  0  0  0  0  # atno 17395 bound_to 11000

$$$$
