AV-unprocessed.smi:1401|AV-procd|sdf|5695|dock8
  -GOLD-   22720 5323D 1   1.00000     0.00000
 Structure written by MMmdl.
 48 50  0  0  0  0  0  0  0  0  1 V2000
  146.9072  138.8525  154.2274 C   0  0  0  0  0  0  0  0  0  0  0  0
  148.2631  138.2531  154.4862 C   0  0  0  0  0  0  0  0  0  0  0  0
  148.3061  136.9749  154.6734 N   0  0  0  0  0  0  0  0  0  0  0  0
  149.4982  136.3255  154.9288 N   0  0  0  0  0  0  0  0  0  0  0  0
  149.3598  134.8802  155.1598 C   0  0  0  0  0  0  0  0  0  0  0  0
  147.9097  134.4052  155.0007 C   0  0  0  0  0  0  0  0  0  0  0  0
  147.2963  133.9536  155.9682 O   0  0  0  0  0  0  0  0  0  0  0  0
  147.3822  134.5143  153.7713 N   0  0  0  0  0  0  0  0  0  0  0  0
  146.0579  134.0524  153.3589 C   0  0  1  0  0  0  0  0  0  0  0  0
  144.9977  134.9649  153.9939 C   0  0  0  0  0  0  0  0  0  0  0  0
  145.9733  134.0346  151.8119 C   0  0  1  0  0  0  0  0  0  0  0  0
  146.9936  133.1113  151.1040 C   0  0  0  0  0  0  0  0  0  0  0  0
  146.1185  132.3173  150.1173 C   0  0  1  0  0  0  0  0  0  0  0  0
  145.3004  131.2755  150.9016 C   0  0  0  0  0  0  0  0  0  0  0  0
  144.2535  132.1435  151.6230 C   0  0  0  0  0  0  0  0  0  0  0  0
  144.6330  133.5738  151.1865 C   0  0  2  0  0  0  0  0  0  0  0  0
  145.0510  133.3371  149.7385 C   0  0  0  0  0  0  0  0  0  0  0  0
  150.7176  136.9355  154.9901 C   0  0  0  0  0  0  0  0  0  0  0  0
  151.7592  136.3145  155.2095 O   0  0  0  0  0  0  0  0  0  0  0  0
  150.6609  138.3830  154.7775 C   0  0  0  0  0  0  0  0  0  0  0  0
  151.9138  139.0626  154.8498 C   0  0  0  0  0  0  0  0  0  0  0  0
  152.9288  139.6136  154.9293 N   0  0  0  0  0  0  0  0  0  0  0  0
  149.4958  139.0333  154.5337 C   0  0  0  0  0  0  0  0  0  0  0  0
  149.3847  140.5351  154.3103 C   0  0  0  0  0  0  0  0  0  0  0  0
  146.8527  139.2632  153.2192 H   0  0  0  0  0  0  0  0  0  0  0  0
  146.6967  139.6563  154.9330 H   0  0  0  0  0  0  0  0  0  0  0  0
  146.1107  138.1138  154.3270 H   0  0  0  0  0  0  0  0  0  0  0  0
  149.9781  134.3185  154.4573 H   0  0  0  0  0  0  0  0  0  0  0  0
  149.7361  134.6252  156.1525 H   0  0  0  0  0  0  0  0  0  0  0  0
  147.9656  134.9073  153.0469 H   0  0  0  0  0  0  0  0  0  0  0  0
  145.8948  133.0447  153.7413 H   0  0  0  0  0  0  0  0  0  0  0  0
  143.9892  134.6183  153.7683 H   0  0  0  0  0  0  0  0  0  0  0  0
  145.0866  135.9901  153.6329 H   0  0  0  0  0  0  0  0  0  0  0  0
  145.0970  134.9836  155.0798 H   0  0  0  0  0  0  0  0  0  0  0  0
  146.1549  135.0539  151.4649 H   0  0  0  0  0  0  0  0  0  0  0  0
  147.7442  133.7026  150.5781 H   0  0  0  0  0  0  0  0  0  0  0  0
  147.5207  132.4455  151.7878 H   0  0  0  0  0  0  0  0  0  0  0  0
  146.6750  131.8957  149.2798 H   0  0  0  0  0  0  0  0  0  0  0  0
  144.8146  130.5711  150.2254 H   0  0  0  0  0  0  0  0  0  0  0  0
  145.9156  130.7024  151.5960 H   0  0  0  0  0  0  0  0  0  0  0  0
  143.2520  131.8942  151.2705 H   0  0  0  0  0  0  0  0  0  0  0  0
  144.2576  132.0024  152.7028 H   0  0  0  0  0  0  0  0  0  0  0  0
  143.8239  134.2947  151.3062 H   0  0  0  0  0  0  0  0  0  0  0  0
  145.4557  134.2258  149.2506 H   0  0  0  0  0  0  0  0  0  0  0  0
  144.2549  132.9205  149.1188 H   0  0  0  0  0  0  0  0  0  0  0  0
  150.3606  141.0153  154.2449 H   0  0  0  0  0  0  0  0  0  0  0  0
  148.8415  141.0005  155.1335 H   0  0  0  0  0  0  0  0  0  0  0  0
  148.8554  140.7512  153.3816 H   0  0  0  0  0  0  0  0  0  0  0  0
  1  2  1  0  0  0  0
  1 25  1  0  0  0  0
  1 26  1  0  0  0  0
  1 27  1  0  0  0  0
  2 23  1  0  0  0  0
  2  3  2  0  0  0  0
  3  4  1  0  0  0  0
  4  5  1  0  0  0  0
  4 18  1  0  0  0  0
  5  6  1  0  0  0  0
  5 28  1  0  0  0  0
  5 29  1  0  0  0  0
  6  7  2  0  0  0  0
  6  8  1  0  0  0  0
  8  9  1  0  0  0  0
  8 30  1  0  0  0  0
  9 10  1  0  0  0  0
  9 11  1  0  0  0  0
  9 31  1  0  0  0  0
 10 32  1  0  0  0  0
 10 33  1  0  0  0  0
 10 34  1  0  0  0  0
 11 16  1  0  0  0  0
 11 12  1  0  0  0  0
 11 35  1  0  0  0  0
 12 13  1  0  0  0  0
 12 36  1  0  0  0  0
 12 37  1  0  0  0  0
 13 17  1  0  0  0  0
 13 14  1  0  0  0  0
 13 38  1  0  0  0  0
 14 15  1  0  0  0  0
 14 39  1  0  0  0  0
 14 40  1  0  0  0  0
 15 16  1  0  0  0  0
 15 41  1  0  0  0  0
 15 42  1  0  0  0  0
 16 17  1  0  0  0  0
 16 43  1  0  0  0  0
 17 44  1  0  0  0  0
 17 45  1  0  0  0  0
 18 19  2  0  0  0  0
 18 20  1  0  0  0  0
 20 21  1  0  0  0  0
 20 23  2  0  0  0  0
 21 22  3  0  0  0  0
 23 24  1  0  0  0  0
 24 46  1  0  0  0  0
 24 47  1  0  0  0  0
 24 48  1  0  0  0  0
M  END
> <s_m_source_file>
AV-unprocessed.smi

> <i_m_source_file_index>
1401

> <i_lp_mmshare_version>
43012

> <i_f3d_flags>
0

> <s_epik_input>
TiNDYyhjMVtDSDNdKWMoPU8pbihuYzFbQ0gzXSlbQ0gyXUMoPU8pW05IXVtDQEhdKFtDSDNdKVtDQEhdKFtDSDJdW0NASF0yMylbQ0BIXShbQ0gyXTMpW0NIMl1bQ0gyXTI=

> <s_epik_cmdline>
J2VwaWtfcHl0aG9uJywgJy1waCcsICc3LjAnLCAnLXRuJywgJzgnLCAnLW1hJywgJzIwMCcsICctbWV0YWxfYmluZGluZycsICctaW1hZScsICc8aW5maWxlLm1hZT4nLCAnLW9tYWUnLCAnPG91dGZpbGUubWFlPic=

> <r_lp_tautomer_probability>
1

> <r_epik_Ionization_Penalty>
2.16501e-08

> <r_epik_Ionization_Penalty_Charging>
2.29436e-11

> <r_epik_Ionization_Penalty_Neutral>
2.16271e-08

> <r_epik_State_Penalty>
-0

> <r_epik_Charging_Adjusted_Penalty>
2.29436e-11

> <i_epik_Tot_Q>
0

> <i_epik_Tot_abs_Q>
0

> <r_epik_Metal_State_Penalty>
-0

> <b_epik_Metal_Only>
0

> <s_lp_Force_Field>
OPLS_2005

> <r_lp_Energy>
66.0828

> <b_lp_Chiralities_Consistent>
1

> <s_lp_Variant>
AV-unprocessed.smi:1401-8

> <Gold.Version>
5.8.1

> <Gold.Id.Protein>
6NUR|6NUR_protein|mol2

> <Gold.PLP.Fitness>
44.4770

> <Gold.PLP.PLP>
-35.8154

> <Gold.PLP.part.hbond>
-4.0000

> <Gold.PLP.part.metal>
0.0000

> <Gold.PLP.part.buried>
-1.0067

> <Gold.PLP.part.nonpolar>
-31.5817

> <Gold.PLP.part.repulsive>
0.9267

> <Gold.PLP.ligand.clash>
0.0000

> <Gold.PLP.ligand.torsion>
0.1730

> <Gold.PLP.Chemscore.Hbond>
3.0000

> <Gold.PLP.Chemscore.CHOScore>
0.0000

> <Gold.PLP.Chemscore.Metal>
0.0000

> <Gold.Chemscore.Hbonds>
donor molecule, donor type, donor heavy atom, donor atom, acceptor molecule, acceptor atom, score
      L1  H     8    30       P1  7948  1.00
      P1  H  7997  8010       L1    22  1.00
      P1  H 10752 10765       L1    19  1.00

> <Gold.PLP.Chemscore.Internal.Correction>
0.0077

> <Gold.Rescore>
     Score         DG    S(hbond)    S(metal)    S(lipo)     H(rot)  DE(clash)    DE(int)     intcor
     20.22     -21.69       2.98        0.00      89.18       1.63       1.19       0.28       ----

> <Gold.Chemscore.Fitness>
20.2236

> <Gold.Chemscore.DG>
-21.6917

> <Gold.Chemscore.ZeroCoef>
-5.4800

> <Gold.Chemscore.Hbond>
2.9776

> <Gold.Chemscore.Metal>
0.0000

> <Gold.Chemscore.Lipo>
89.1823

> <Gold.Chemscore.Internal_Hbond>
0.0000

> <Gold.Chemscore.DEClash>
1.1925

> <Gold.Chemscore.DEInternal>
0.2756

> <Gold.Chemscore.Rot>
1.6281

> <Gold.Chemscore.Internal.Correction>
   9.000000E+99

> <Gold.Chemscore.Hbonds>
donor molecule, donor type, donor heavy atom, donor atom, acceptor molecule, acceptor atom, score
      L1  H     8    30       P1  7948  0.91
      P1  H  7997  8010       L1    22  1.00
      P1  H 10752 10765       L1    19  0.93

> <Gold.Chemscore.Hbond.Weighted>
-9.9452

> <Gold.Chemscore.Metal.Weighted>
-0.0000

> <Gold.Chemscore.Lipo.Weighted>
-10.4343

> <Gold.Chemscore.Internal_Hbond.Weighted>
0.0000

> <Gold.Chemscore.DEClash.Weighted>
1.1925

> <Gold.Chemscore.DEInternal.Weighted>
0.2756

> <Gold.Chemscore.Rot.Weighted>
4.1678

> <Gold.Chemscore.Internal.Correction.Weighted>
   9.000000E+99

> <Gold.Protein.RotatedTorsions>
[ 6907 6896 6895 6894 ] final  133.59 input  -60.11 | X-H torsion
[ 7974 7965 7964 7962 ] final   43.60 input  175.53 | X-H torsion
[ 8008 7997 7996 7995 ] final  102.93 input   59.86 | X-H torsion
[ 10167 10162 10161 10158 ] final   28.07 input  -65.29 | X-H torsion
[ 10718 10713 10712 10709 ] final -139.06 input   66.30 | X-H torsion
[ 10763 10752 10751 10750 ] final -159.39 input  -60.55 | X-H torsion
[ 11005 11000 10999 10996 ] final   31.68 input  -57.11 | X-H torsion

> <Gold.Protein.ActiveResidues>
 VAL166  LYS551  ARG553  GLY616  TRP617  ASP618  TYR619  PRO620  LYS621  CYS622 
 ASP623  PHE694  ASN695  SER759  ASP760  ASP761  ALA762  ILE779  LEU786  VAL792 
 PHE793  MET794  SER795  GLU796  ALA797  LYS798  CYS799  TRP800  GLU811  SER814 

> <Gold.Protein.RotatedAtoms>
  152.3203  133.5847  159.5739 H   0  0  0  0  0  0  0  0  0  0  0  0  # atno 6907 bound_to 6896
  150.7368  134.0020  159.3650 H   0  0  0  0  0  0  0  0  0  0  0  0  # atno 6908 bound_to 6896
  151.7905  135.0737  160.0437 H   0  0  0  0  0  0  0  0  0  0  0  0  # atno 6909 bound_to 6896
  146.0641  139.5168  142.9639 H   0  0  0  0  0  0  0  0  0  0  0  0  # atno 7974 bound_to 7965
  156.1438  140.3173  155.8537 H   0  0  0  0  0  0  0  0  0  0  0  0  # atno 8008 bound_to 7997
  155.4104  140.0505  157.3049 H   0  0  0  0  0  0  0  0  0  0  0  0  # atno 8009 bound_to 7997
  154.4999  140.2125  155.9381 H   0  0  0  0  0  0  0  0  0  0  0  0  # atno 8010 bound_to 7997
  140.4884  144.0505  150.6288 H   0  0  0  0  0  0  0  0  0  0  0  0  # atno 10167 bound_to 10162
  156.3064  130.7457  151.1522 H   0  0  0  0  0  0  0  0  0  0  0  0  # atno 10718 bound_to 10713
  154.7479  135.3085  154.8612 H   0  0  0  0  0  0  0  0  0  0  0  0  # atno 10763 bound_to 10752
  153.9407  135.6775  153.4748 H   0  0  0  0  0  0  0  0  0  0  0  0  # atno 10764 bound_to 10752
  153.1075  135.4882  154.8904 H   0  0  0  0  0  0  0  0  0  0  0  0  # atno 10765 bound_to 10752
  140.2813  134.2969  155.7800 H   0  0  0  0  0  0  0  0  0  0  0  0  # atno 11005 bound_to 11000
  145.6508  141.0263  143.1761 LP  0  0  0  0  0  0  0  0  0  0  0  0  # atno 17320 bound_to 7965
  144.7192  139.8089  143.7388 LP  0  0  0  0  0  0  0  0  0  0  0  0  # atno 17321 bound_to 7965
  140.3767  143.2824  152.0216 LP  0  0  0  0  0  0  0  0  0  0  0  0  # atno 17342 bound_to 10162
  139.4846  144.6187  151.7297 LP  0  0  0  0  0  0  0  0  0  0  0  0  # atno 17343 bound_to 10162
  157.7381  131.0545  150.5318 LP  0  0  0  0  0  0  0  0  0  0  0  0  # atno 17370 bound_to 10713
  156.5452  130.4218  149.6134 LP  0  0  0  0  0  0  0  0  0  0  0  0  # atno 17371 bound_to 10713
  141.2162  133.7527  156.9485 LP  0  0  0  0  0  0  0  0  0  0  0  0  # atno 17394 bound_to 11000
  140.1281  134.9374  157.2298 LP  0  0  0  0  0  0  0  0  0  0  0  0  # atno 17395 bound_to 11000

$$$$
