AV-unprocessed.smi:234|AV-procd|sdf|1793|dock1
  -GOLD-   2262020353D 1   1.00000     0.00000
 Structure written by MMmdl.
 59 62  0  0  0  0  0  0  0  0  1 V2000
  151.4004  145.4161  159.4488 C   0  0  0  0  0  0  0  0  0  0  0  0
  150.2725  144.3962  159.2794 C   0  0  0  0  0  0  0  0  0  0  0  0
  150.8367  143.0973  159.2024 O   0  0  0  0  0  0  0  0  0  0  0  0
  150.8319  142.5645  157.8833 C   0  0  2  0  0  0  0  0  0  0  0  0
  149.4227  142.1822  157.4207 C   0  0  0  0  0  0  0  0  0  0  0  0
  149.6888  140.8076  158.0507 C   0  0  1  0  0  0  0  0  0  0  0  0
  149.1422  139.6794  157.2888 N   0  0  0  0  0  0  0  0  0  0  0  0
  149.0087  139.8333  155.8439 C   0  0  0  0  0  0  0  0  0  0  0  0
  149.5285  138.4262  157.6369 C   0  0  0  0  0  0  0  0  0  0  0  0
  150.7933  138.0013  157.3736 N   0  0  0  0  0  0  0  0  0  0  0  0
  151.1699  136.7634  157.7063 C   0  0  0  0  0  0  0  0  0  0  0  0
  150.4552  135.8041  158.2976 N   0  0  0  0  0  0  0  0  0  0  0  0
  149.1847  136.2244  158.5611 C   0  0  0  0  0  0  0  0  0  0  0  0
  148.6420  137.5051  158.2595 C   0  0  0  0  0  0  0  0  0  0  0  0
  147.3163  137.5682  158.6704 N   0  0  0  0  0  0  0  0  0  0  0  0
  147.0890  136.3922  159.1888 C   0  0  0  0  0  0  0  0  0  0  0  0
  148.1601  135.5267  159.1767 N   0  0  0  0  0  0  0  0  0  0  0  0
  148.1881  134.1693  159.7000 C   0  0  0  0  0  0  0  0  0  0  0  0
  147.5332  134.0319  161.0969 C   0  0  1  0  0  0  0  0  0  0  0  0
  147.8756  132.7616  161.6261 O   0  0  0  0  0  0  0  0  0  0  0  0
  148.0279  135.1037  162.0745 C   0  0  0  0  0  0  0  0  0  0  0  0
  146.8056  135.9828  162.3131 C   0  0  0  0  0  0  0  0  0  0  0  0
  145.7315  135.0655  162.2092 O   0  0  0  0  0  0  0  0  0  0  0  0
  145.9967  134.2446  161.0813 C   0  0  2  0  0  0  0  0  0  0  0  0
  145.1120  132.9870  161.1060 C   0  0  0  0  0  0  0  0  0  0  0  0
  151.2086  141.0612  157.8434 C   0  0  0  0  0  0  0  0  0  0  0  0
  151.8331  140.6098  156.5126 C   0  0  0  0  0  0  0  0  0  0  0  0
  152.1455  140.5772  158.9538 C   0  0  0  0  0  0  0  0  0  0  0  0
  151.0032  146.4295  159.5084 H   0  0  0  0  0  0  0  0  0  0  0  0
  152.0925  145.3765  158.6072 H   0  0  0  0  0  0  0  0  0  0  0  0
  151.9677  145.2241  160.3599 H   0  0  0  0  0  0  0  0  0  0  0  0
  149.5813  144.4659  160.1200 H   0  0  0  0  0  0  0  0  0  0  0  0
  149.7088  144.6136  158.3710 H   0  0  0  0  0  0  0  0  0  0  0  0
  151.3930  143.1719  157.1709 H   0  0  0  0  0  0  0  0  0  0  0  0
  148.6095  142.7412  157.8841 H   0  0  0  0  0  0  0  0  0  0  0  0
  149.3237  142.1593  156.3341 H   0  0  0  0  0  0  0  0  0  0  0  0
  149.4190  140.7915  159.1083 H   0  0  0  0  0  0  0  0  0  0  0  0
  149.6195  139.1121  155.2982 H   0  0  0  0  0  0  0  0  0  0  0  0
  149.3166  140.8277  155.5228 H   0  0  0  0  0  0  0  0  0  0  0  0
  147.9690  139.6912  155.5488 H   0  0  0  0  0  0  0  0  0  0  0  0
  152.1902  136.5048  157.4642 H   0  0  0  0  0  0  0  0  0  0  0  0
  146.1296  136.1242  159.6075 H   0  0  0  0  0  0  0  0  0  0  0  0
  147.6896  133.5172  158.9815 H   0  0  0  0  0  0  0  0  0  0  0  0
  149.2271  133.8393  159.7393 H   0  0  0  0  0  0  0  0  0  0  0  0
  148.8119  132.6531  161.5554 H   0  0  0  0  0  0  0  0  0  0  0  0
  148.3337  134.6598  163.0236 H   0  0  0  0  0  0  0  0  0  0  0  0
  148.8761  135.6768  161.6986 H   0  0  0  0  0  0  0  0  0  0  0  0
  146.8235  136.4761  163.2853 H   0  0  0  0  0  0  0  0  0  0  0  0
  146.7148  136.7465  161.5388 H   0  0  0  0  0  0  0  0  0  0  0  0
  145.7254  134.8398  160.2086 H   0  0  0  0  0  0  0  0  0  0  0  0
  145.3242  132.3377  160.2564 H   0  0  0  0  0  0  0  0  0  0  0  0
  144.0575  133.2586  161.0569 H   0  0  0  0  0  0  0  0  0  0  0  0
  145.2587  132.4090  162.0186 H   0  0  0  0  0  0  0  0  0  0  0  0
  151.9895  139.5313  156.4826 H   0  0  0  0  0  0  0  0  0  0  0  0
  152.8026  141.0819  156.3508 H   0  0  0  0  0  0  0  0  0  0  0  0
  151.2077  140.8656  155.6571 H   0  0  0  0  0  0  0  0  0  0  0  0
  152.3398  139.5069  158.8837 H   0  0  0  0  0  0  0  0  0  0  0  0
  151.7261  140.7595  159.9435 H   0  0  0  0  0  0  0  0  0  0  0  0
  153.1077  141.0880  158.9110 H   0  0  0  0  0  0  0  0  0  0  0  0
  1  2  1  0  0  0  0
  1 29  1  0  0  0  0
  1 30  1  0  0  0  0
  1 31  1  0  0  0  0
  2  3  1  0  0  0  0
  2 32  1  0  0  0  0
  2 33  1  0  0  0  0
  3  4  1  0  0  0  0
  4 26  1  0  0  0  0
  4  5  1  0  0  0  0
  4 34  1  0  0  0  0
  5  6  1  0  0  0  0
  5 35  1  0  0  0  0
  5 36  1  0  0  0  0
  6  7  1  0  0  0  0
  6 26  1  0  0  0  0
  6 37  1  0  0  0  0
  7  8  1  0  0  0  0
  7  9  1  0  0  0  0
  8 38  1  0  0  0  0
  8 39  1  0  0  0  0
  8 40  1  0  0  0  0
  9 14  1  0  0  0  0
  9 10  2  0  0  0  0
 10 11  1  0  0  0  0
 11 12  2  0  0  0  0
 11 41  1  0  0  0  0
 12 13  1  0  0  0  0
 13 17  1  0  0  0  0
 13 14  2  0  0  0  0
 14 15  1  0  0  0  0
 15 16  2  0  0  0  0
 16 17  1  0  0  0  0
 16 42  1  0  0  0  0
 17 18  1  0  0  0  0
 18 19  1  0  0  0  0
 18 43  1  0  0  0  0
 18 44  1  0  0  0  0
 19 24  1  0  0  0  0
 19 20  1  0  0  0  0
 19 21  1  0  0  0  0
 20 45  1  0  0  0  0
 21 22  1  0  0  0  0
 21 46  1  0  0  0  0
 21 47  1  0  0  0  0
 22 23  1  0  0  0  0
 22 48  1  0  0  0  0
 22 49  1  0  0  0  0
 23 24  1  0  0  0  0
 24 25  1  0  0  0  0
 24 50  1  0  0  0  0
 25 51  1  0  0  0  0
 25 52  1  0  0  0  0
 25 53  1  0  0  0  0
 26 27  1  0  0  0  0
 26 28  1  0  0  0  0
 27 54  1  0  0  0  0
 27 55  1  0  0  0  0
 27 56  1  0  0  0  0
 28 57  1  0  0  0  0
 28 58  1  0  0  0  0
 28 59  1  0  0  0  0
M  END
> <s_m_source_file>
AV-unprocessed.smi

> <i_m_source_file_index>
234

> <i_lp_mmshare_version>
43012

> <i_f3d_flags>
0

> <s_epik_input>
W0NIM11bQ0gyXU9bQ0BASF0oQzEoW0NIM10pW0NIM10pW0NIMl1bQ0BIXTFOKFtDSDNdKWMobltjSF1uMiljKGMyMyluW2NIXW4zW0NIMl1bQ0BAXTQoW09IXSlbQ0gyXVtDSDJdT1tDQEhdNFtDSDNd

> <s_epik_cmdline>
J2VwaWtfcHl0aG9uJywgJy1waCcsICc3LjAnLCAnLXRuJywgJzgnLCAnLW1hJywgJzIwMCcsICctbWV0YWxfYmluZGluZycsICctaW1hZScsICc8aW5maWxlLm1hZT4nLCAnLW9tYWUnLCAnPG91dGZpbGUubWFlPic=

> <r_lp_tautomer_probability>
1

> <r_epik_Ionization_Penalty>
0.00349132

> <r_epik_Ionization_Penalty_Charging>
0

> <r_epik_Ionization_Penalty_Neutral>
0.00349132

> <r_epik_State_Penalty>
0.00242418

> <r_epik_Charging_Adjusted_Penalty>
0.00242418

> <i_epik_Tot_Q>
0

> <i_epik_Tot_abs_Q>
0

> <r_epik_Metal_State_Penalty>
-0

> <b_epik_Metal_Only>
0

> <s_lp_Force_Field>
OPLS_2005

> <r_lp_Energy>
48.0221

> <b_lp_Chiralities_Consistent>
1

> <s_lp_Variant>
AV-unprocessed.smi:234-9

> <Gold.Version>
5.8.1

> <Gold.Id.Protein>
6NUR|6NUR_protein|mol2

> <Gold.PLP.Fitness>
42.1049

> <Gold.PLP.PLP>
-39.5168

> <Gold.PLP.part.hbond>
-2.0000

> <Gold.PLP.part.metal>
0.0000

> <Gold.PLP.part.buried>
-5.5021

> <Gold.PLP.part.nonpolar>
-32.7291

> <Gold.PLP.part.repulsive>
0.0521

> <Gold.PLP.ligand.clash>
0.0000

> <Gold.PLP.ligand.torsion>
1.1736

> <Gold.PLP.Chemscore.Hbond>
1.1612

> <Gold.PLP.Chemscore.CHOScore>
0.0000

> <Gold.PLP.Chemscore.Metal>
0.0000

> <Gold.Chemscore.Hbonds>
donor molecule, donor type, donor heavy atom, donor atom, acceptor molecule, acceptor atom, score
      P1  H  6896  6907       L1    12  0.69

> <Gold.PLP.Chemscore.Internal.Correction>
1.4518

> <Gold.Rescore>
     Score         DG    S(hbond)    S(metal)    S(lipo)     H(rot)  DE(clash)    DE(int)     intcor
     11.14     -14.06       0.91        0.00     104.71       2.62       0.62       2.30       ----

> <Gold.Chemscore.Fitness>
11.1376

> <Gold.Chemscore.DG>
-14.0638

> <Gold.Chemscore.ZeroCoef>
-5.4800

> <Gold.Chemscore.Hbond>
0.9116

> <Gold.Chemscore.Metal>
0.0000

> <Gold.Chemscore.Lipo>
104.7094

> <Gold.Chemscore.Internal_Hbond>
0.0000

> <Gold.Chemscore.DEClash>
0.6215

> <Gold.Chemscore.DEInternal>
2.3047

> <Gold.Chemscore.Rot>
2.6219

> <Gold.Chemscore.Internal.Correction>
   9.000000E+99

> <Gold.Chemscore.Hbonds>
donor molecule, donor type, donor heavy atom, donor atom, acceptor molecule, acceptor atom, score
      P1  H  6896  6907       L1    12  0.24

> <Gold.Chemscore.Hbond.Weighted>
-3.0449

> <Gold.Chemscore.Metal.Weighted>
-0.0000

> <Gold.Chemscore.Lipo.Weighted>
-12.2510

> <Gold.Chemscore.Internal_Hbond.Weighted>
0.0000

> <Gold.Chemscore.DEClash.Weighted>
0.6215

> <Gold.Chemscore.DEInternal.Weighted>
2.3047

> <Gold.Chemscore.Rot.Weighted>
6.7121

> <Gold.Chemscore.Internal.Correction.Weighted>
   9.000000E+99

> <Gold.Protein.RotatedTorsions>
[ 6907 6896 6895 6894 ] final  -69.97 input  -60.11 | X-H torsion
[ 7974 7965 7964 7962 ] final  -99.57 input  175.53 | X-H torsion
[ 8008 7997 7996 7995 ] final   14.10 input   59.86 | X-H torsion
[ 10167 10162 10161 10158 ] final  128.76 input  -65.29 | X-H torsion
[ 10718 10713 10712 10709 ] final  135.58 input   66.30 | X-H torsion
[ 10763 10752 10751 10750 ] final -168.57 input  -60.55 | X-H torsion
[ 11005 11000 10999 10996 ] final    6.46 input  -57.11 | X-H torsion

> <Gold.Protein.ActiveResidues>
 VAL166  LYS551  ARG553  GLY616  TRP617  ASP618  TYR619  PRO620  LYS621  CYS622 
 ASP623  PHE694  ASN695  SER759  ASP760  ASP761  ALA762  ILE779  LEU786  VAL792 
 PHE793  MET794  SER795  GLU796  ALA797  LYS798  CYS799  TRP800  GLU811  SER814 

> <Gold.Protein.RotatedAtoms>
  150.7280  134.5520  159.5799 H   0  0  0  0  0  0  0  0  0  0  0  0  # atno 6907 bound_to 6896
  152.3005  134.7613  160.0368 H   0  0  0  0  0  0  0  0  0  0  0  0  # atno 6908 bound_to 6896
  151.8195  133.3357  159.3616 H   0  0  0  0  0  0  0  0  0  0  0  0  # atno 6909 bound_to 6896
  145.3058  140.9388  143.2797 H   0  0  0  0  0  0  0  0  0  0  0  0  # atno 7974 bound_to 7965
  154.8437  140.2918  155.5643 H   0  0  0  0  0  0  0  0  0  0  0  0  # atno 8008 bound_to 7997
  156.3013  140.2509  156.3315 H   0  0  0  0  0  0  0  0  0  0  0  0  # atno 8009 bound_to 7997
  154.9097  140.0389  157.1929 H   0  0  0  0  0  0  0  0  0  0  0  0  # atno 8010 bound_to 7997
  139.5511  144.6813  151.4322 H   0  0  0  0  0  0  0  0  0  0  0  0  # atno 10167 bound_to 10162
  157.4556  131.1069  150.9982 H   0  0  0  0  0  0  0  0  0  0  0  0  # atno 10718 bound_to 10713
  154.6614  135.2925  154.9861 H   0  0  0  0  0  0  0  0  0  0  0  0  # atno 10763 bound_to 10752
  154.0919  135.6589  153.4858 H   0  0  0  0  0  0  0  0  0  0  0  0  # atno 10764 bound_to 10752
  153.0432  135.5222  154.7567 H   0  0  0  0  0  0  0  0  0  0  0  0  # atno 10765 bound_to 10752
  140.5593  134.0208  155.7965 H   0  0  0  0  0  0  0  0  0  0  0  0  # atno 11005 bound_to 11000
  144.9056  139.4594  143.6612 LP  0  0  0  0  0  0  0  0  0  0  0  0  # atno 17320 bound_to 7965
  146.3135  139.7835  142.9001 LP  0  0  0  0  0  0  0  0  0  0  0  0  # atno 17321 bound_to 7965
  140.6773  143.8160  150.7075 LP  0  0  0  0  0  0  0  0  0  0  0  0  # atno 17342 bound_to 10162
  140.1603  143.4281  152.2071 LP  0  0  0  0  0  0  0  0  0  0  0  0  # atno 17343 bound_to 10162
  157.0797  130.5898  149.5418 LP  0  0  0  0  0  0  0  0  0  0  0  0  # atno 17370 bound_to 10713
  156.0006  130.5084  150.7647 LP  0  0  0  0  0  0  0  0  0  0  0  0  # atno 17371 bound_to 10713
  141.1124  133.9594  157.2885 LP  0  0  0  0  0  0  0  0  0  0  0  0  # atno 17394 bound_to 11000
  139.9416  135.0190  156.8725 LP  0  0  0  0  0  0  0  0  0  0  0  0  # atno 17395 bound_to 11000

$$$$
