AV-unprocessed.smi:2106|AV-procd|sdf|8595|dock10
  -GOLD-   2272011333D 1   1.00000     0.00000
 Structure written by MMmdl.
 47 48  0  0  0  0  0  0  0  0  1 V2000
  152.8403  142.8042  162.7104 C   0  0  0  0  0  0  0  0  0  0  0  0
  152.5085  143.0099  161.2619 C   0  0  0  0  0  0  0  0  0  0  0  0
  152.4233  144.2345  160.5425 C   0  0  0  0  0  0  0  0  0  0  0  0
  152.0880  143.8577  159.2725 C   0  0  0  0  0  0  0  0  0  0  0  0
  151.8495  144.6887  158.0547 C   0  0  0  0  0  0  0  0  0  0  0  0
  151.9898  142.4771  159.2763 N   0  0  0  0  0  0  0  0  0  0  0  0
  151.6498  141.5762  158.1865 C   0  0  0  0  0  0  0  0  0  0  0  0
  152.1513  140.1595  158.4672 C   0  0  0  0  0  0  0  0  0  0  0  0
  151.5487  139.1919  158.0030 O   0  0  0  0  0  0  0  0  0  0  0  0
  153.2527  140.0553  159.2270 N   0  0  0  0  0  0  0  0  0  0  0  0
  153.9127  138.8074  159.5960 C   0  0  0  0  0  0  0  0  0  0  0  0
  152.9065  137.7682  160.1293 C   0  0  0  0  0  0  0  0  0  0  0  0
  153.3488  136.9988  161.2923 N   0  0  0  0  0  0  0  0  0  0  0  0
  154.2865  135.9521  160.9092 C   0  0  0  0  0  0  0  0  0  0  0  0
  154.7125  135.0958  162.1155 C   0  0  1  0  0  0  0  0  0  0  0  0
  155.7647  134.0484  161.7365 C   0  0  0  0  0  0  0  0  0  0  0  0
  155.2694  135.9382  163.1231 O   0  0  0  0  0  0  0  0  0  0  0  0
  154.4371  137.0216  163.5407 C   0  0  2  0  0  0  0  0  0  0  0  0
  153.2796  136.5425  164.4334 C   0  0  0  0  0  0  0  0  0  0  0  0
  153.9668  137.8351  162.3187 C   0  0  0  0  0  0  0  0  0  0  0  0
  152.2495  141.9613  160.4981 N   0  0  0  0  0  0  0  0  0  0  0  0
  153.0573  143.7522  163.2031 H   0  0  0  0  0  0  0  0  0  0  0  0
  153.7141  142.1628  162.8264 H   0  0  0  0  0  0  0  0  0  0  0  0
  152.0095  142.3377  163.2404 H   0  0  0  0  0  0  0  0  0  0  0  0
  152.5823  145.2392  160.9051 H   0  0  0  0  0  0  0  0  0  0  0  0
  152.0226  145.7444  158.2641 H   0  0  0  0  0  0  0  0  0  0  0  0
  150.8229  144.5810  157.7052 H   0  0  0  0  0  0  0  0  0  0  0  0
  152.5179  144.3958  157.2449 H   0  0  0  0  0  0  0  0  0  0  0  0
  150.5680  141.5649  158.0508 H   0  0  0  0  0  0  0  0  0  0  0  0
  152.0788  141.9550  157.2572 H   0  0  0  0  0  0  0  0  0  0  0  0
  153.6708  140.9085  159.5682 H   0  0  0  0  0  0  0  0  0  0  0  0
  154.3786  138.4128  158.6931 H   0  0  0  0  0  0  0  0  0  0  0  0
  154.7310  138.9803  160.2956 H   0  0  0  0  0  0  0  0  0  0  0  0
  151.9866  138.2980  160.3809 H   0  0  0  0  0  0  0  0  0  0  0  0
  152.6401  137.0831  159.3231 H   0  0  0  0  0  0  0  0  0  0  0  0
  153.8313  135.3072  160.1566 H   0  0  0  0  0  0  0  0  0  0  0  0
  155.1680  136.3977  160.4454 H   0  0  0  0  0  0  0  0  0  0  0  0
  153.8423  134.5767  162.5184 H   0  0  0  0  0  0  0  0  0  0  0  0
  155.3850  133.3681  160.9736 H   0  0  0  0  0  0  0  0  0  0  0  0
  156.0479  133.4509  162.6033 H   0  0  0  0  0  0  0  0  0  0  0  0
  156.6677  134.5189  161.3467 H   0  0  0  0  0  0  0  0  0  0  0  0
  155.0635  137.6704  164.1533 H   0  0  0  0  0  0  0  0  0  0  0  0
  152.7229  137.3905  164.8325 H   0  0  0  0  0  0  0  0  0  0  0  0
  153.6529  135.9654  165.2793 H   0  0  0  0  0  0  0  0  0  0  0  0
  152.5719  135.9184  163.8881 H   0  0  0  0  0  0  0  0  0  0  0  0
  154.8249  138.3565  161.8914 H   0  0  0  0  0  0  0  0  0  0  0  0
  153.2763  138.6075  162.6542 H   0  0  0  0  0  0  0  0  0  0  0  0
  1  2  1  0  0  0  0
  1 22  1  0  0  0  0
  1 23  1  0  0  0  0
  1 24  1  0  0  0  0
  2 21  2  0  0  0  0
  2  3  1  0  0  0  0
  3  4  2  0  0  0  0
  3 25  1  0  0  0  0
  4  5  1  0  0  0  0
  4  6  1  0  0  0  0
  5 26  1  0  0  0  0
  5 27  1  0  0  0  0
  5 28  1  0  0  0  0
  6  7  1  0  0  0  0
  6 21  1  0  0  0  0
  7  8  1  0  0  0  0
  7 29  1  0  0  0  0
  7 30  1  0  0  0  0
  8  9  2  0  0  0  0
  8 10  1  0  0  0  0
 10 11  1  0  0  0  0
 10 31  1  0  0  0  0
 11 12  1  0  0  0  0
 11 32  1  0  0  0  0
 11 33  1  0  0  0  0
 12 13  1  0  0  0  0
 12 34  1  0  0  0  0
 12 35  1  0  0  0  0
 13 20  1  0  0  0  0
 13 14  1  0  0  0  0
 14 15  1  0  0  0  0
 14 36  1  0  0  0  0
 14 37  1  0  0  0  0
 15 16  1  0  0  0  0
 15 17  1  0  0  0  0
 15 38  1  0  0  0  0
 16 39  1  0  0  0  0
 16 40  1  0  0  0  0
 16 41  1  0  0  0  0
 17 18  1  0  0  0  0
 18 19  1  0  0  0  0
 18 20  1  0  0  0  0
 18 42  1  0  0  0  0
 19 43  1  0  0  0  0
 19 44  1  0  0  0  0
 19 45  1  0  0  0  0
 20 46  1  0  0  0  0
 20 47  1  0  0  0  0
M  END
> <s_m_source_file>
AV-unprocessed.smi

> <i_m_source_file_index>
2106

> <i_lp_mmshare_version>
43012

> <i_f3d_flags>
0

> <s_epik_input>
W0NIM11jMVtjSF1jKFtDSDNdKW4objEpW0NIMl1DKD1PKVtOSF1bQ0gyXVtDSDJdTjJbQ0gyXVtDQEBIXShbQ0gzXSlPW0NAQEhdKFtDSDNdKVtDSDJdMg==

> <s_epik_cmdline>
J2VwaWtfcHl0aG9uJywgJy1waCcsICc3LjAnLCAnLXRuJywgJzgnLCAnLW1hJywgJzIwMCcsICctbWV0YWxfYmluZGluZycsICctaW1hZScsICc8aW5maWxlLm1hZT4nLCAnLW9tYWUnLCAnPG91dGZpbGUubWFlPic=

> <r_lp_tautomer_probability>
1

> <r_epik_Ionization_Penalty>
0.197284

> <r_epik_Ionization_Penalty_Charging>
0

> <r_epik_Ionization_Penalty_Neutral>
0.197284

> <r_epik_State_Penalty>
0.186684

> <r_epik_Charging_Adjusted_Penalty>
0.186684

> <i_epik_Tot_Q>
0

> <i_epik_Tot_abs_Q>
0

> <r_epik_Metal_State_Penalty>
0.186634

> <b_epik_Metal_Only>
0

> <s_lp_Force_Field>
OPLS_2005

> <r_lp_Energy>
25.1516

> <b_lp_Chiralities_Consistent>
1

> <s_lp_Variant>
AV-unprocessed.smi:2106-3

> <Gold.Version>
5.8.1

> <Gold.Id.Protein>
6NUR|6NUR_protein|mol2

> <Gold.PLP.Fitness>
41.3753

> <Gold.PLP.PLP>
-43.6707

> <Gold.PLP.part.hbond>
0.0000

> <Gold.PLP.part.metal>
0.0000

> <Gold.PLP.part.buried>
-6.3755

> <Gold.PLP.part.nonpolar>
-36.0649

> <Gold.PLP.part.repulsive>
0.1054

> <Gold.PLP.ligand.clash>
0.0000

> <Gold.PLP.ligand.torsion>
1.1561

> <Gold.PLP.Chemscore.Hbond>
0.0000

> <Gold.PLP.Chemscore.CHOScore>
0.0000

> <Gold.PLP.Chemscore.Metal>
0.0000

> <Gold.PLP.Chemscore.Internal.Correction>
0.0169

> <Gold.Rescore>
     Score         DG    S(hbond)    S(metal)    S(lipo)     H(rot)  DE(clash)    DE(int)     intcor
     11.05     -15.22       0.00        0.00     119.66       1.67       0.02       4.15       ----

> <Gold.Chemscore.Fitness>
11.0477

> <Gold.Chemscore.DG>
-15.2163

> <Gold.Chemscore.ZeroCoef>
-5.4800

> <Gold.Chemscore.Hbond>
0.0000

> <Gold.Chemscore.Metal>
0.0000

> <Gold.Chemscore.Lipo>
119.6612

> <Gold.Chemscore.Internal_Hbond>
0.0000

> <Gold.Chemscore.DEClash>
0.0181

> <Gold.Chemscore.DEInternal>
4.1505

> <Gold.Chemscore.Rot>
1.6657

> <Gold.Chemscore.Internal.Correction>
   9.000000E+99

> <Gold.Chemscore.Hbond.Weighted>
-0.0000

> <Gold.Chemscore.Metal.Weighted>
-0.0000

> <Gold.Chemscore.Lipo.Weighted>
-14.0004

> <Gold.Chemscore.Internal_Hbond.Weighted>
0.0000

> <Gold.Chemscore.DEClash.Weighted>
0.0181

> <Gold.Chemscore.DEInternal.Weighted>
4.1505

> <Gold.Chemscore.Rot.Weighted>
4.2641

> <Gold.Chemscore.Internal.Correction.Weighted>
   9.000000E+99

> <Gold.Protein.RotatedTorsions>
[ 6907 6896 6895 6894 ] final -138.26 input  -60.11 | X-H torsion
[ 7974 7965 7964 7962 ] final -106.19 input  175.53 | X-H torsion
[ 8008 7997 7996 7995 ] final   41.79 input   59.86 | X-H torsion
[ 10167 10162 10161 10158 ] final  120.25 input  -65.29 | X-H torsion
[ 10718 10713 10712 10709 ] final  -96.13 input   66.30 | X-H torsion
[ 10763 10752 10751 10750 ] final  -64.40 input  -60.55 | X-H torsion
[ 11005 11000 10999 10996 ] final -178.75 input  -57.11 | X-H torsion

> <Gold.Protein.ActiveResidues>
 VAL166  LYS551  ARG553  GLY616  TRP617  ASP618  TYR619  PRO620  LYS621  CYS622 
 ASP623  PHE694  ASN695  SER759  ASP760  ASP761  ALA762  ILE779  LEU786  VAL792 
 PHE793  MET794  SER795  GLU796  ALA797  LYS798  CYS799  TRP800  GLU811  SER814 

> <Gold.Protein.RotatedAtoms>
  151.0328  133.5775  159.2658 H   0  0  0  0  0  0  0  0  0  0  0  0  # atno 6907 bound_to 6896
  151.2850  135.0724  159.9193 H   0  0  0  0  0  0  0  0  0  0  0  0  # atno 6908 bound_to 6896
  152.5348  134.0036  159.7960 H   0  0  0  0  0  0  0  0  0  0  0  0  # atno 6909 bound_to 6896
  145.2210  140.9134  143.3260 H   0  0  0  0  0  0  0  0  0  0  0  0  # atno 7974 bound_to 7965
  155.2754  140.3369  155.4262 H   0  0  0  0  0  0  0  0  0  0  0  0  # atno 8008 bound_to 7997
  156.2114  140.1771  156.7728 H   0  0  0  0  0  0  0  0  0  0  0  0  # atno 8009 bound_to 7997
  154.5691  140.0673  156.8922 H   0  0  0  0  0  0  0  0  0  0  0  0  # atno 8010 bound_to 7997
  139.5994  144.7052  151.3099 H   0  0  0  0  0  0  0  0  0  0  0  0  # atno 10167 bound_to 10162
  156.0056  130.5138  150.6179 H   0  0  0  0  0  0  0  0  0  0  0  0  # atno 10718 bound_to 10713
  154.3295  135.6179  153.5545 H   0  0  0  0  0  0  0  0  0  0  0  0  # atno 10763 bound_to 10752
  152.9812  135.5743  154.4978 H   0  0  0  0  0  0  0  0  0  0  0  0  # atno 10764 bound_to 10752
  154.4661  135.2857  155.1654 H   0  0  0  0  0  0  0  0  0  0  0  0  # atno 10765 bound_to 10752
  140.4263  134.6560  157.4689 H   0  0  0  0  0  0  0  0  0  0  0  0  # atno 11005 bound_to 11000
  144.9766  139.3826  143.6283 LP  0  0  0  0  0  0  0  0  0  0  0  0  # atno 17320 bound_to 7965
  146.3376  139.8887  142.8812 LP  0  0  0  0  0  0  0  0  0  0  0  0  # atno 17321 bound_to 7965
  140.7238  143.7063  150.7805 LP  0  0  0  0  0  0  0  0  0  0  0  0  # atno 17342 bound_to 10162
  140.0636  143.5131  152.2615 LP  0  0  0  0  0  0  0  0  0  0  0  0  # atno 17343 bound_to 10162
  157.4000  131.0808  151.1317 LP  0  0  0  0  0  0  0  0  0  0  0  0  # atno 17370 bound_to 10713
  157.1981  130.6382  149.5728 LP  0  0  0  0  0  0  0  0  0  0  0  0  # atno 17371 bound_to 10713
  140.0165  134.6611  155.9302 LP  0  0  0  0  0  0  0  0  0  0  0  0  # atno 17394 bound_to 11000
  141.1764  133.6541  156.4844 LP  0  0  0  0  0  0  0  0  0  0  0  0  # atno 17395 bound_to 11000

$$$$
