AV-unprocessed.smi:3137|AV-procd|sdf|11953|dock7
  -GOLD-   2272017353D 1   1.00000     0.00000
 Structure written by MMmdl.
 40 40  0  0  0  0  0  0  0  0  2 V2000
  144.1302  134.6426  151.3050 C   0  0  0  0  0  0  0  0  0  0  0  0
  143.6013  135.9013  151.9993 C   0  0  0  0  0  0  0  0  0  0  0  0
  144.4977  137.0268  151.7748 N   0  0  0  0  0  0  0  0  0  0  0  0
  145.7067  137.1556  152.3400 C   0  0  0  0  0  0  0  0  0  0  0  0
  146.1789  136.3244  153.1159 O   0  0  0  0  0  0  0  0  0  0  0  0
  146.4948  138.4179  151.9760 C   0  0  0  0  0  0  0  0  0  0  0  0
  147.1453  139.0919  153.1960 C   0  0  0  0  0  0  0  0  0  0  0  0
  148.6072  138.8707  153.2036 N   0  3  0  0  0  0  0  0  0  0  0  0
  149.2840  139.0839  154.5046 C   0  0  1  0  0  0  0  0  0  0  0  0
  150.7128  138.5300  154.4182 C   0  0  0  0  0  0  0  0  0  0  0  0
  149.3120  140.5780  154.9035 C   0  0  0  0  0  0  0  0  0  0  0  0
  150.1152  140.8553  156.0806 N   0  0  0  0  0  0  0  0  0  0  0  0
  150.5663  142.0732  156.5444 C   0  0  0  0  0  0  0  0  0  0  0  0
  151.2906  141.8381  157.6787 C   0  0  0  0  0  0  0  0  0  0  0  0
  151.9867  142.8269  158.5688 C   0  0  0  0  0  0  0  0  0  0  0  0
  151.2369  140.4222  157.8189 C   0  0  0  0  0  0  0  0  0  0  0  0
  150.5380  139.8374  156.8598 N   0  0  0  0  0  0  0  0  0  0  0  0
  143.4603  133.7989  151.4713 H   0  0  0  0  0  0  0  0  0  0  0  0
  145.1136  134.3650  151.6854 H   0  0  0  0  0  0  0  0  0  0  0  0
  144.2153  134.7914  150.2280 H   0  0  0  0  0  0  0  0  0  0  0  0
  142.6078  136.1441  151.6198 H   0  0  0  0  0  0  0  0  0  0  0  0
  143.5034  135.7212  153.0707 H   0  0  0  0  0  0  0  0  0  0  0  0
  144.1763  137.7528  151.1509 H   0  0  0  0  0  0  0  0  0  0  0  0
  147.2637  138.1630  151.2451 H   0  0  0  0  0  0  0  0  0  0  0  0
  145.8133  139.1136  151.4856 H   0  0  0  0  0  0  0  0  0  0  0  0
  146.9350  140.1597  153.1820 H   0  0  0  0  0  0  0  0  0  0  0  0
  146.7171  138.6910  154.1159 H   0  0  0  0  0  0  0  0  0  0  0  0
  148.7547  137.9053  152.9464 H   0  0  0  0  0  0  0  0  0  0  0  0
  148.7690  138.5055  155.2732 H   0  0  0  0  0  0  0  0  0  0  0  0
  151.2318  138.6315  155.3718 H   0  0  0  0  0  0  0  0  0  0  0  0
  151.2995  139.0549  153.6634 H   0  0  0  0  0  0  0  0  0  0  0  0
  150.7089  137.4703  154.1608 H   0  0  0  0  0  0  0  0  0  0  0  0
  149.7218  141.1731  154.0862 H   0  0  0  0  0  0  0  0  0  0  0  0
  148.2993  140.9467  155.0734 H   0  0  0  0  0  0  0  0  0  0  0  0
  150.3330  142.9987  156.0388 H   0  0  0  0  0  0  0  0  0  0  0  0
  152.2316  142.3955  159.5398 H   0  0  0  0  0  0  0  0  0  0  0  0
  151.3698  143.7060  158.7554 H   0  0  0  0  0  0  0  0  0  0  0  0
  152.9205  143.1760  158.1278 H   0  0  0  0  0  0  0  0  0  0  0  0
  151.6838  139.8055  158.5848 H   0  0  0  0  0  0  0  0  0  0  0  0
  149.0433  139.4555  152.5052 H   0  0  0  0  0  0  0  0  0  0  0  0
  1  2  1  0  0  0  0
  1 18  1  0  0  0  0
  1 19  1  0  0  0  0
  1 20  1  0  0  0  0
  2  3  1  0  0  0  0
  2 21  1  0  0  0  0
  2 22  1  0  0  0  0
  3  4  1  0  0  0  0
  3 23  1  0  0  0  0
  4  5  2  0  0  0  0
  4  6  1  0  0  0  0
  6  7  1  0  0  0  0
  6 24  1  0  0  0  0
  6 25  1  0  0  0  0
  7  8  1  0  0  0  0
  7 26  1  0  0  0  0
  7 27  1  0  0  0  0
  8  9  1  0  0  0  0
  8 28  1  0  0  0  0
  8 40  1  0  0  0  0
  9 10  1  0  0  0  0
  9 11  1  0  0  0  0
  9 29  1  0  0  0  0
 10 30  1  0  0  0  0
 10 31  1  0  0  0  0
 10 32  1  0  0  0  0
 11 12  1  0  0  0  0
 11 33  1  0  0  0  0
 11 34  1  0  0  0  0
 12 17  1  0  0  0  0
 12 13  1  0  0  0  0
 13 14  2  0  0  0  0
 13 35  1  0  0  0  0
 14 15  1  0  0  0  0
 14 16  1  0  0  0  0
 15 36  1  0  0  0  0
 15 37  1  0  0  0  0
 15 38  1  0  0  0  0
 16 17  2  0  0  0  0
 16 39  1  0  0  0  0
M  CHG  1   8   1
M  END
> <s_m_source_file>
AV-unprocessed.smi

> <i_m_source_file_index>
3137

> <i_lp_mmshare_version>
43012

> <i_f3d_flags>
0

> <s_epik_input>
W0NIM11bQ0gyXVtOSF1DKD1PKVtDSDJdW0NIMl1bTkhdW0NASF0oW0NIM10pW0NIMl1uMVtjSF1jKFtDSDNdKVtjSF1uMQ==

> <s_epik_cmdline>
J2VwaWtfcHl0aG9uJywgJy1waCcsICc3LjAnLCAnLXRuJywgJzgnLCAnLW1hJywgJzIwMCcsICctbWV0YWxfYmluZGluZycsICctaW1hZScsICc8aW5maWxlLm1hZT4nLCAnLW9tYWUnLCAnPG91dGZpbGUubWFlPic=

> <r_lp_tautomer_probability>
1

> <r_epik_Ionization_Penalty>
0.00598586

> <r_epik_Ionization_Penalty_Charging>
0.00597743

> <r_epik_Ionization_Penalty_Neutral>
8.43172e-06

> <r_epik_State_Penalty>
0.00439883

> <r_epik_Charging_Adjusted_Penalty>
0.0103763

> <i_epik_Tot_Q>
1

> <i_epik_Tot_abs_Q>
1

> <r_epik_Metal_State_Penalty>
-0

> <b_epik_Metal_Only>
0

> <s_lp_Force_Field>
OPLS_2005

> <r_lp_Energy>
6.05872

> <b_lp_Chiralities_Consistent>
1

> <s_lp_Variant>
AV-unprocessed.smi:3137-2

> <Gold.Version>
5.8.1

> <Gold.Id.Protein>
6NUR|6NUR_protein|mol2

> <Gold.PLP.Fitness>
47.5911

> <Gold.PLP.PLP>
-34.3740

> <Gold.PLP.part.hbond>
-2.9661

> <Gold.PLP.part.metal>
0.0000

> <Gold.PLP.part.buried>
-6.1629

> <Gold.PLP.part.nonpolar>
-27.7917

> <Gold.PLP.part.repulsive>
0.7952

> <Gold.PLP.ligand.clash>
0.0000

> <Gold.PLP.ligand.torsion>
0.9211

> <Gold.PLP.Chemscore.Hbond>
4.0000

> <Gold.PLP.Chemscore.CHOScore>
1.0000

> <Gold.PLP.Chemscore.Metal>
0.0000

> <Gold.Chemscore.Hbonds>
donor molecule, donor type, donor heavy atom, donor atom, acceptor molecule, acceptor atom, score
      L1  H     3    23       P1 10171  1.00
      L1  H     8    28       P1  7948  2.00
      L1  H     8    40       P1  7957  1.00
      L1  C    13    35       P1  8028  1.00

> <Gold.PLP.Chemscore.Internal.Correction>
0.0592

> <Gold.Rescore>
     Score         DG    S(hbond)    S(metal)    S(lipo)     H(rot)  DE(clash)    DE(int)     intcor
     16.41     -18.62       2.96        0.00      78.11       2.30       0.00       2.21       ----

> <Gold.Chemscore.Fitness>
16.4098

> <Gold.Chemscore.DG>
-18.6206

> <Gold.Chemscore.ZeroCoef>
-5.4800

> <Gold.Chemscore.Hbond>
2.9581

> <Gold.Chemscore.Metal>
0.0000

> <Gold.Chemscore.Lipo>
78.1133

> <Gold.Chemscore.Internal_Hbond>
0.0000

> <Gold.Chemscore.DEClash>
0.0000

> <Gold.Chemscore.DEInternal>
2.2107

> <Gold.Chemscore.Rot>
2.2963

> <Gold.Chemscore.Internal.Correction>
   9.000000E+99

> <Gold.Chemscore.Hbonds>
donor molecule, donor type, donor heavy atom, donor atom, acceptor molecule, acceptor atom, score
      L1  H     3    23       P1 10171  0.98
      L1  H     8    28       P1  7948  0.97
      L1  H     8    40       P1  7957  0.97

> <Gold.Chemscore.Hbond.Weighted>
-9.8799

> <Gold.Chemscore.Metal.Weighted>
-0.0000

> <Gold.Chemscore.Lipo.Weighted>
-9.1393

> <Gold.Chemscore.Internal_Hbond.Weighted>
0.0000

> <Gold.Chemscore.DEClash.Weighted>
0.0000

> <Gold.Chemscore.DEInternal.Weighted>
2.2107

> <Gold.Chemscore.Rot.Weighted>
5.8786

> <Gold.Chemscore.Internal.Correction.Weighted>
   9.000000E+99

> <Gold.Protein.RotatedTorsions>
[ 6907 6896 6895 6894 ] final   14.88 input  -60.11 | X-H torsion
[ 7974 7965 7964 7962 ] final -179.51 input  175.53 | X-H torsion
[ 8008 7997 7996 7995 ] final   14.67 input   59.86 | X-H torsion
[ 10167 10162 10161 10158 ] final -133.86 input  -65.29 | X-H torsion
[ 10718 10713 10712 10709 ] final  157.00 input   66.30 | X-H torsion
[ 10763 10752 10751 10750 ] final  150.58 input  -60.55 | X-H torsion
[ 11005 11000 10999 10996 ] final -119.92 input  -57.11 | X-H torsion

> <Gold.Protein.ActiveResidues>
 VAL166  LYS551  ARG553  GLY616  TRP617  ASP618  TYR619  PRO620  LYS621  CYS622 
 ASP623  PHE694  ASN695  SER759  ASP760  ASP761  ALA762  ILE779  LEU786  VAL792 
 PHE793  MET794  SER795  GLU796  ALA797  LYS798  CYS799  TRP800  GLU811  SER814 

> <Gold.Protein.RotatedAtoms>
  151.8093  135.0685  160.0410 H   0  0  0  0  0  0  0  0  0  0  0  0  # atno 6907 bound_to 6896
  152.3032  133.5672  159.5640 H   0  0  0  0  0  0  0  0  0  0  0  0  # atno 6908 bound_to 6896
  150.7283  134.0177  159.3733 H   0  0  0  0  0  0  0  0  0  0  0  0  # atno 6909 bound_to 6896
  144.7137  140.0707  143.6429 H   0  0  0  0  0  0  0  0  0  0  0  0  # atno 7974 bound_to 7965
  154.8518  140.2931  155.5593 H   0  0  0  0  0  0  0  0  0  0  0  0  # atno 8008 bound_to 7997
  156.3017  140.2494  156.3410 H   0  0  0  0  0  0  0  0  0  0  0  0  # atno 8009 bound_to 7997
  154.9013  140.0391  157.1884 H   0  0  0  0  0  0  0  0  0  0  0  0  # atno 8010 bound_to 7997
  139.8940  143.6688  152.2607 H   0  0  0  0  0  0  0  0  0  0  0  0  # atno 10167 bound_to 10162
  157.1973  131.0668  151.2045 H   0  0  0  0  0  0  0  0  0  0  0  0  # atno 10718 bound_to 10713
  154.0899  135.2853  155.3273 H   0  0  0  0  0  0  0  0  0  0  0  0  # atno 10763 bound_to 10752
  154.6627  135.5328  153.8042 H   0  0  0  0  0  0  0  0  0  0  0  0  # atno 10764 bound_to 10752
  153.0417  135.6538  154.1068 H   0  0  0  0  0  0  0  0  0  0  0  0  # atno 10765 bound_to 10752
  141.0181  134.0165  157.3322 H   0  0  0  0  0  0  0  0  0  0  0  0  # atno 11005 bound_to 11000
  145.9785  139.2923  143.1056 LP  0  0  0  0  0  0  0  0  0  0  0  0  # atno 17320 bound_to 7965
  145.9037  140.9226  143.0490 LP  0  0  0  0  0  0  0  0  0  0  0  0  # atno 17321 bound_to 7965
  139.7084  144.7624  151.1153 LP  0  0  0  0  0  0  0  0  0  0  0  0  # atno 17342 bound_to 10162
  140.7721  143.5363  150.9364 LP  0  0  0  0  0  0  0  0  0  0  0  0  # atno 17343 bound_to 10162
  157.3801  130.7227  149.6624 LP  0  0  0  0  0  0  0  0  0  0  0  0  # atno 17370 bound_to 10713
  155.9704  130.4175  150.4281 LP  0  0  0  0  0  0  0  0  0  0  0  0  # atno 17371 bound_to 10713
  139.9129  135.0193  156.7765 LP  0  0  0  0  0  0  0  0  0  0  0  0  # atno 17394 bound_to 11000
  140.6620  133.9636  155.7810 LP  0  0  0  0  0  0  0  0  0  0  0  0  # atno 17395 bound_to 11000

$$$$
