AV-unprocessed.smi:1599|AV-procd|sdf|6426|dock3
  -GOLD-   22720 7 63D 1   1.00000     0.00000
 Structure written by MMmdl.
 39 40  0  0  0  0  0  0  0  0  1 V2000
  153.0517  144.6734  158.0089 C   0  0  0  0  0  0  0  0  0  0  0  0
  151.6242  144.5350  158.5659 C   0  0  1  0  0  0  0  0  0  0  0  0
  150.7812  143.8502  157.5891 N   0  0  0  0  0  0  0  0  0  0  0  0
  150.9864  142.6103  157.1223 C   0  0  0  0  0  0  0  0  0  0  0  0
  151.9139  141.8885  157.4891 O   0  0  0  0  0  0  0  0  0  0  0  0
  150.0558  142.2698  156.2157 N   0  0  0  0  0  0  0  0  0  0  0  0
  149.9575  141.0487  155.5019 C   0  0  0  0  0  0  0  0  0  0  0  0
  148.8940  140.7047  154.6277 C   0  0  0  0  0  0  0  0  0  0  0  0
  149.0753  139.5027  154.1019 N   0  0  0  0  0  0  0  0  0  0  0  0
  150.2455  139.0610  154.6277 N   0  0  0  0  0  0  0  0  0  0  0  0
  150.7540  137.7503  154.2554 C   0  0  0  0  0  0  0  0  0  0  0  0
  150.0973  136.6080  155.0417 C   0  0  0  0  0  0  0  0  0  0  0  0
  149.2419  135.8378  154.3648 N   0  0  0  0  0  0  0  0  0  0  0  0
  150.3454  136.4151  156.2312 O   0  0  0  0  0  0  0  0  0  0  0  0
  150.8120  139.9829  155.4866 C   0  0  0  0  0  0  0  0  0  0  0  0
  151.5874  143.7579  159.8954 C   0  0  1  0  0  0  0  0  0  0  0  0
  152.6454  142.6608  160.0272 C   0  0  0  0  0  0  0  0  0  0  0  0
  152.8527  142.5355  161.5293 C   0  0  0  0  0  0  0  0  0  0  0  0
  152.1867  143.7878  162.1054 C   0  0  0  0  0  0  0  0  0  0  0  0
  151.9153  144.6117  160.9812 O   0  0  0  0  0  0  0  0  0  0  0  0
  153.6955  145.2196  158.6982 H   0  0  0  0  0  0  0  0  0  0  0  0
  153.0559  145.2181  157.0641 H   0  0  0  0  0  0  0  0  0  0  0  0
  153.5050  143.6976  157.8318 H   0  0  0  0  0  0  0  0  0  0  0  0
  151.2227  145.5339  158.7461 H   0  0  0  0  0  0  0  0  0  0  0  0
  149.9955  144.3704  157.2270 H   0  0  0  0  0  0  0  0  0  0  0  0
  149.3466  142.9583  156.0106 H   0  0  0  0  0  0  0  0  0  0  0  0
  148.0161  141.2744  154.3612 H   0  0  0  0  0  0  0  0  0  0  0  0
  150.5976  137.5923  153.1872 H   0  0  0  0  0  0  0  0  0  0  0  0
  151.8310  137.7390  154.4277 H   0  0  0  0  0  0  0  0  0  0  0  0
  148.7790  135.0688  154.8273 H   0  0  0  0  0  0  0  0  0  0  0  0
  149.0619  136.0272  153.3894 H   0  0  0  0  0  0  0  0  0  0  0  0
  151.7469  139.7941  155.9928 H   0  0  0  0  0  0  0  0  0  0  0  0
  150.5941  143.3377  160.0660 H   0  0  0  0  0  0  0  0  0  0  0  0
  152.3379  141.7228  159.5642 H   0  0  0  0  0  0  0  0  0  0  0  0
  153.5778  142.9767  159.5577 H   0  0  0  0  0  0  0  0  0  0  0  0
  152.3849  141.6339  161.9262 H   0  0  0  0  0  0  0  0  0  0  0  0
  153.9152  142.4974  161.7713 H   0  0  0  0  0  0  0  0  0  0  0  0
  151.2472  143.5314  162.5969 H   0  0  0  0  0  0  0  0  0  0  0  0
  152.8190  144.3045  162.8276 H   0  0  0  0  0  0  0  0  0  0  0  0
  1  2  1  0  0  0  0
  1 21  1  0  0  0  0
  1 22  1  0  0  0  0
  1 23  1  0  0  0  0
  2  3  1  0  0  0  0
  2 16  1  0  0  0  0
  2 24  1  0  0  0  0
  3  4  1  0  0  0  0
  3 25  1  0  0  0  0
  4  5  2  0  0  0  0
  4  6  1  0  0  0  0
  6  7  1  0  0  0  0
  6 26  1  0  0  0  0
  7 15  2  0  0  0  0
  7  8  1  0  0  0  0
  8  9  2  0  0  0  0
  8 27  1  0  0  0  0
  9 10  1  0  0  0  0
 10 11  1  0  0  0  0
 10 15  1  0  0  0  0
 11 12  1  0  0  0  0
 11 28  1  0  0  0  0
 11 29  1  0  0  0  0
 12 13  1  0  0  0  0
 12 14  2  0  0  0  0
 13 30  1  0  0  0  0
 13 31  1  0  0  0  0
 15 32  1  0  0  0  0
 16 20  1  0  0  0  0
 16 17  1  0  0  0  0
 16 33  1  0  0  0  0
 17 18  1  0  0  0  0
 17 34  1  0  0  0  0
 17 35  1  0  0  0  0
 18 19  1  0  0  0  0
 18 36  1  0  0  0  0
 18 37  1  0  0  0  0
 19 20  1  0  0  0  0
 19 38  1  0  0  0  0
 19 39  1  0  0  0  0
M  END
> <s_m_source_file>
AV-unprocessed.smi

> <i_m_source_file_index>
1599

> <i_lp_mmshare_version>
43012

> <i_f3d_flags>
0

> <s_epik_input>
TzFbQ0gyXVtDSDJdW0NIMl1bQ0BIXTFbQ0BIXShbQ0gzXSlbTkhdQyg9TylbTkhdYzJbY0hdbm4oW2NIXTIpW0NIMl1DKD1PKVtOSDJd

> <s_epik_cmdline>
J2VwaWtfcHl0aG9uJywgJy1waCcsICc3LjAnLCAnLXRuJywgJzgnLCAnLW1hJywgJzIwMCcsICctbWV0YWxfYmluZGluZycsICctaW1hZScsICc8aW5maWxlLm1hZT4nLCAnLW9tYWUnLCAnPG91dGZpbGUubWFlPic=

> <r_lp_tautomer_probability>
1

> <r_epik_Ionization_Penalty>
4.15391e-05

> <r_epik_Ionization_Penalty_Charging>
0

> <r_epik_Ionization_Penalty_Neutral>
4.15391e-05

> <r_epik_State_Penalty>
-0

> <r_epik_Charging_Adjusted_Penalty>
0

> <i_epik_Tot_Q>
0

> <i_epik_Tot_abs_Q>
0

> <r_epik_Metal_State_Penalty>
-0

> <b_epik_Metal_Only>
0

> <s_lp_Force_Field>
OPLS_2005

> <r_lp_Energy>
23.4533

> <b_lp_Chiralities_Consistent>
1

> <s_lp_Variant>
AV-unprocessed.smi:1599-4

> <Gold.Version>
5.8.1

> <Gold.Id.Protein>
6NUR|6NUR_protein|mol2

> <Gold.PLP.Fitness>
50.1027

> <Gold.PLP.PLP>
-43.1924

> <Gold.PLP.part.hbond>
-3.0000

> <Gold.PLP.part.metal>
0.0000

> <Gold.PLP.part.buried>
-2.8817

> <Gold.PLP.part.nonpolar>
-38.8292

> <Gold.PLP.part.repulsive>
1.1046

> <Gold.PLP.ligand.clash>
0.0000

> <Gold.PLP.ligand.torsion>
1.0088

> <Gold.PLP.Chemscore.Hbond>
2.9520

> <Gold.PLP.Chemscore.CHOScore>
0.0000

> <Gold.PLP.Chemscore.Metal>
0.0000

> <Gold.Chemscore.Hbonds>
donor molecule, donor type, donor heavy atom, donor atom, acceptor molecule, acceptor atom, score
      L1  H     3    25       P1  8028  0.93
      L1  H     6    26       P1  8028  0.99
      L1  H    13    31       P1  7948  0.98

> <Gold.PLP.Chemscore.Internal.Correction>
0.0719

> <Gold.Rescore>
     Score         DG    S(hbond)    S(metal)    S(lipo)     H(rot)  DE(clash)    DE(int)     intcor
     14.76     -20.93       2.67        0.00     105.88       2.28       1.75       4.42       ----

> <Gold.Chemscore.Fitness>
14.7579

> <Gold.Chemscore.DG>
-20.9283

> <Gold.Chemscore.ZeroCoef>
-5.4800

> <Gold.Chemscore.Hbond>
2.6657

> <Gold.Chemscore.Metal>
0.0000

> <Gold.Chemscore.Lipo>
105.8762

> <Gold.Chemscore.Internal_Hbond>
0.0000

> <Gold.Chemscore.DEClash>
1.7497

> <Gold.Chemscore.DEInternal>
4.4206

> <Gold.Chemscore.Rot>
2.2823

> <Gold.Chemscore.Internal.Correction>
   9.000000E+99

> <Gold.Chemscore.Hbonds>
donor molecule, donor type, donor heavy atom, donor atom, acceptor molecule, acceptor atom, score
      L1  H     3    25       P1  8028  0.45
      L1  H     6    26       P1  8028  0.94
      L1  H    13    31       P1  7948  0.86

> <Gold.Chemscore.Hbond.Weighted>
-8.9034

> <Gold.Chemscore.Metal.Weighted>
-0.0000

> <Gold.Chemscore.Lipo.Weighted>
-12.3875

> <Gold.Chemscore.Internal_Hbond.Weighted>
0.0000

> <Gold.Chemscore.DEClash.Weighted>
1.7497

> <Gold.Chemscore.DEInternal.Weighted>
4.4206

> <Gold.Chemscore.Rot.Weighted>
5.8427

> <Gold.Chemscore.Internal.Correction.Weighted>
   9.000000E+99

> <Gold.Protein.RotatedTorsions>
[ 6907 6896 6895 6894 ] final  -49.38 input  -60.11 | X-H torsion
[ 7974 7965 7964 7962 ] final  -96.39 input  175.53 | X-H torsion
[ 8008 7997 7996 7995 ] final  122.80 input   59.86 | X-H torsion
[ 10167 10162 10161 10158 ] final   -1.06 input  -65.29 | X-H torsion
[ 10718 10713 10712 10709 ] final -167.40 input   66.30 | X-H torsion
[ 10763 10752 10751 10750 ] final  128.94 input  -60.55 | X-H torsion
[ 11005 11000 10999 10996 ] final   47.84 input  -57.11 | X-H torsion

> <Gold.Protein.ActiveResidues>
 VAL166  LYS551  ARG553  GLY616  TRP617  ASP618  TYR619  PRO620  LYS621  CYS622 
 ASP623  PHE694  ASN695  SER759  ASP760  ASP761  ALA762  ILE779  LEU786  VAL792 
 PHE793  MET794  SER795  GLU796  ALA797  LYS798  CYS799  TRP800  GLU811  SER814 

> <Gold.Protein.RotatedAtoms>
  150.8810  134.8201  159.7224 H   0  0  0  0  0  0  0  0  0  0  0  0  # atno 6907 bound_to 6896
  152.4778  134.4795  159.9671 H   0  0  0  0  0  0  0  0  0  0  0  0  # atno 6908 bound_to 6896
  151.4870  133.3494  159.2883 H   0  0  0  0  0  0  0  0  0  0  0  0  # atno 6909 bound_to 6896
  145.3475  140.9471  143.2573 H   0  0  0  0  0  0  0  0  0  0  0  0  # atno 7974 bound_to 7965
  156.2741  140.2777  156.1525 H   0  0  0  0  0  0  0  0  0  0  0  0  # atno 8008 bound_to 7997
  155.0838  140.0388  157.2665 H   0  0  0  0  0  0  0  0  0  0  0  0  # atno 8009 bound_to 7997
  154.6943  140.2635  155.6787 H   0  0  0  0  0  0  0  0  0  0  0  0  # atno 8010 bound_to 7997
  140.6794  143.6820  150.8097 H   0  0  0  0  0  0  0  0  0  0  0  0  # atno 10167 bound_to 10162
  156.6819  130.9125  151.3058 H   0  0  0  0  0  0  0  0  0  0  0  0  # atno 10718 bound_to 10713
  153.7337  135.3235  155.3291 H   0  0  0  0  0  0  0  0  0  0  0  0  # atno 10763 bound_to 10752
  154.8317  135.4528  154.1096 H   0  0  0  0  0  0  0  0  0  0  0  0  # atno 10764 bound_to 10752
  153.2251  135.6953  153.8036 H   0  0  0  0  0  0  0  0  0  0  0  0  # atno 10765 bound_to 10752
  140.1243  134.4788  155.8572 H   0  0  0  0  0  0  0  0  0  0  0  0  # atno 11005 bound_to 11000
  144.8743  139.4994  143.6753 LP  0  0  0  0  0  0  0  0  0  0  0  0  # atno 17320 bound_to 7965
  146.2982  139.7343  142.9111 LP  0  0  0  0  0  0  0  0  0  0  0  0  # atno 17321 bound_to 7965
  140.0518  143.5242  152.2670 LP  0  0  0  0  0  0  0  0  0  0  0  0  # atno 17342 bound_to 10162
  139.6107  144.7608  151.2959 LP  0  0  0  0  0  0  0  0  0  0  0  0  # atno 17343 bound_to 10162
  157.7040  130.9365  150.0874 LP  0  0  0  0  0  0  0  0  0  0  0  0  # atno 17370 bound_to 10713
  156.1861  130.3652  149.8970 LP  0  0  0  0  0  0  0  0  0  0  0  0  # atno 17371 bound_to 10713
  141.2158  133.6772  156.6948 LP  0  0  0  0  0  0  0  0  0  0  0  0  # atno 17394 bound_to 11000
  140.2924  134.8230  157.4028 LP  0  0  0  0  0  0  0  0  0  0  0  0  # atno 17395 bound_to 11000

$$$$
