AV-unprocessed.smi:103|AV-procd|sdf|983|dock6
  -GOLD-   2262017553D 1   1.00000     0.00000
 Structure written by MMmdl.
 53 55  0  0  0  0  0  0  0  0  1 V2000
  153.0467  138.6860  154.5830 C   0  0  0  0  0  0  0  0  0  0  0  0
  152.9259  138.0344  155.9542 C   0  0  0  0  0  0  0  0  0  0  0  0
  153.4078  138.5559  156.9598 O   0  0  0  0  0  0  0  0  0  0  0  0
  152.2565  136.8739  155.9093 O   0  0  0  0  0  0  0  0  0  0  0  0
  151.9652  136.1791  157.1107 C   0  0  0  0  0  0  0  0  0  0  0  0
  151.0151  137.0233  157.9678 C   0  0  2  0  0  0  0  0  0  0  0  0
  150.2572  136.1765  158.8171 O   0  0  0  0  0  0  0  0  0  0  0  0
  149.0648  136.8071  159.1631 C   0  0  2  0  0  0  0  0  0  0  0  0
  147.9778  135.7722  159.1274 N   0  0  0  0  0  0  0  0  0  0  0  0
  147.1037  135.3699  160.1180 C   0  0  0  0  0  0  0  0  0  0  0  0
  147.0069  136.0201  161.7828 S   0  0  0  0  0  0  0  0  0  0  0  0
  147.5511  134.5814  162.7914 C   0  0  0  0  0  0  0  0  0  0  0  0
  148.0146  137.0872  161.8865 O   0  0  0  0  0  0  0  0  0  0  0  0
  145.5898  136.3023  162.0572 O   0  0  0  0  0  0  0  0  0  0  0  0
  146.2125  134.4755  159.7857 N   0  0  0  0  0  0  0  0  0  0  0  0
  146.5082  134.2143  158.4557 C   0  0  0  0  0  0  0  0  0  0  0  0
  145.9552  133.3540  157.4740 C   0  0  0  0  0  0  0  0  0  0  0  0
  144.9205  132.5371  157.7162 N   0  0  0  0  0  0  0  0  0  0  0  0
  146.4943  133.3584  156.2325 N   0  0  0  0  0  0  0  0  0  0  0  0
  147.5249  134.1667  155.9644 C   0  0  0  0  0  0  0  0  0  0  0  0
  148.1480  135.0234  156.7777 N   0  0  0  0  0  0  0  0  0  0  0  0
  147.6073  135.0150  158.0321 C   0  0  0  0  0  0  0  0  0  0  0  0
  148.8233  137.9562  158.1600 C   0  0  2  0  0  0  0  0  0  0  0  0
  147.5564  137.8594  157.5152 O   0  0  0  0  0  0  0  0  0  0  0  0
  146.4220  137.9831  158.2200 C   0  0  0  0  0  0  0  0  0  0  0  0
  145.1843  137.9146  157.3362 C   0  0  0  0  0  0  0  0  0  0  0  0
  146.3372  138.1338  159.4387 O   0  0  0  0  0  0  0  0  0  0  0  0
  149.9610  137.7862  157.1646 C   0  0  1  0  0  0  0  0  0  0  0  0
  150.4401  139.0677  156.7746 O   0  0  0  0  0  0  0  0  0  0  0  0
  151.0682  139.8619  157.6589 C   0  0  0  0  0  0  0  0  0  0  0  0
  151.5402  141.1662  157.0314 C   0  0  0  0  0  0  0  0  0  0  0  0
  151.2587  139.6174  158.8500 O   0  0  0  0  0  0  0  0  0  0  0  0
  152.1003  139.1463  154.2992 H   0  0  0  0  0  0  0  0  0  0  0  0
  153.3106  137.9426  153.8304 H   0  0  0  0  0  0  0  0  0  0  0  0
  153.8180  139.4563  154.5921 H   0  0  0  0  0  0  0  0  0  0  0  0
  151.5156  135.2069  156.9018 H   0  0  0  0  0  0  0  0  0  0  0  0
  152.8972  136.0000  157.6481 H   0  0  0  0  0  0  0  0  0  0  0  0
  151.5766  137.7073  158.6069 H   0  0  0  0  0  0  0  0  0  0  0  0
  149.1160  137.1570  160.1903 H   0  0  0  0  0  0  0  0  0  0  0  0
  147.5857  134.8687  163.8419 H   0  0  0  0  0  0  0  0  0  0  0  0
  148.5429  134.2656  162.4683 H   0  0  0  0  0  0  0  0  0  0  0  0
  146.8504  133.7574  162.6674 H   0  0  0  0  0  0  0  0  0  0  0  0
  144.4992  132.5169  158.6339 H   0  0  0  0  0  0  0  0  0  0  0  0
  144.5688  131.9381  156.9835 H   0  0  0  0  0  0  0  0  0  0  0  0
  147.9048  134.1208  154.9543 H   0  0  0  0  0  0  0  0  0  0  0  0
  148.9271  138.8904  158.7149 H   0  0  0  0  0  0  0  0  0  0  0  0
  145.1551  136.9662  156.7995 H   0  0  0  0  0  0  0  0  0  0  0  0
  145.1952  138.7253  156.6077 H   0  0  0  0  0  0  0  0  0  0  0  0
  144.2785  138.0011  157.9367 H   0  0  0  0  0  0  0  0  0  0  0  0
  149.6207  137.1762  156.3261 H   0  0  0  0  0  0  0  0  0  0  0  0
  151.9759  140.9815  156.0494 H   0  0  0  0  0  0  0  0  0  0  0  0
  152.2944  141.6411  157.6589 H   0  0  0  0  0  0  0  0  0  0  0  0
  150.7023  141.8539  156.9166 H   0  0  0  0  0  0  0  0  0  0  0  0
  1  2  1  0  0  0  0
  1 33  1  0  0  0  0
  1 34  1  0  0  0  0
  1 35  1  0  0  0  0
  2  3  2  0  0  0  0
  2  4  1  0  0  0  0
  4  5  1  0  0  0  0
  5  6  1  0  0  0  0
  5 36  1  0  0  0  0
  5 37  1  0  0  0  0
  6 28  1  0  0  0  0
  6  7  1  0  0  0  0
  6 38  1  0  0  0  0
  7  8  1  0  0  0  0
  8  9  1  0  0  0  0
  8 23  1  0  0  0  0
  8 39  1  0  0  0  0
  9 22  1  0  0  0  0
  9 10  1  0  0  0  0
 10 11  1  0  0  0  0
 10 15  2  0  0  0  0
 11 12  1  0  0  0  0
 11 13  2  0  0  0  0
 11 14  2  0  0  0  0
 12 40  1  0  0  0  0
 12 41  1  0  0  0  0
 12 42  1  0  0  0  0
 15 16  1  0  0  0  0
 16 22  2  0  0  0  0
 16 17  1  0  0  0  0
 17 18  1  0  0  0  0
 17 19  2  0  0  0  0
 18 43  1  0  0  0  0
 18 44  1  0  0  0  0
 19 20  1  0  0  0  0
 20 21  2  0  0  0  0
 20 45  1  0  0  0  0
 21 22  1  0  0  0  0
 23 24  1  0  0  0  0
 23 28  1  0  0  0  0
 23 46  1  0  0  0  0
 24 25  1  0  0  0  0
 25 26  1  0  0  0  0
 25 27  2  0  0  0  0
 26 47  1  0  0  0  0
 26 48  1  0  0  0  0
 26 49  1  0  0  0  0
 28 29  1  0  0  0  0
 28 50  1  0  0  0  0
 29 30  1  0  0  0  0
 30 31  1  0  0  0  0
 30 32  2  0  0  0  0
 31 51  1  0  0  0  0
 31 52  1  0  0  0  0
 31 53  1  0  0  0  0
M  END
> <s_m_source_file>
AV-unprocessed.smi

> <i_m_source_file_index>
103

> <i_lp_mmshare_version>
43012

> <i_f3d_flags>
0

> <s_epik_input>
W0NIM11DKD1PKU9bQ0gyXVtDQEBIXTFPW0NASF0oW0NAQEhdKE9DKD1PKVtDSDNdKVtDQEhdMU9DKD1PKVtDSDNdKW4oYyhuMilTKD1PKSg9TylbQ0gzXSljKGMyMyluW2NIXW5jM1tOSDJd

> <s_epik_cmdline>
J2VwaWtfcHl0aG9uJywgJy1waCcsICc3LjAnLCAnLXRuJywgJzgnLCAnLW1hJywgJzIwMCcsICctbWV0YWxfYmluZGluZycsICctaW1hZScsICc8aW5maWxlLm1hZT4nLCAnLW9tYWUnLCAnPG91dGZpbGUubWFlPic=

> <r_lp_tautomer_probability>
1

> <r_epik_Ionization_Penalty>
1.51338e-05

> <r_epik_Ionization_Penalty_Charging>
0

> <r_epik_Ionization_Penalty_Neutral>
1.51338e-05

> <r_epik_State_Penalty>
-0

> <r_epik_Charging_Adjusted_Penalty>
0

> <i_epik_Tot_Q>
0

> <i_epik_Tot_abs_Q>
0

> <r_epik_Metal_State_Penalty>
-0

> <b_epik_Metal_Only>
0

> <s_epik_Chemistry_Notes>
This compound has an ester and may undergo hydrolysis at high or low pH. This compound contains an acetal/aminal-like group ( X-CH(R)-Y where X, Y are N, S, or O) that may be acid/base labile, releasing an aldehyde.

> <s_lp_Force_Field>
OPLS_2005

> <r_lp_Energy>
14.5233

> <b_lp_Chiralities_Consistent>
1

> <s_lp_Variant>
AV-unprocessed.smi:103-7

> <Gold.Version>
5.8.1

> <Gold.Id.Protein>
6NUR|6NUR_protein|mol2

> <Gold.PLP.Fitness>
41.4909

> <Gold.PLP.PLP>
-30.9905

> <Gold.PLP.part.hbond>
-6.0000

> <Gold.PLP.part.metal>
0.0000

> <Gold.PLP.part.buried>
-5.1925

> <Gold.PLP.part.nonpolar>
-19.9764

> <Gold.PLP.part.repulsive>
0.0383

> <Gold.PLP.ligand.clash>
0.0000

> <Gold.PLP.ligand.torsion>
1.4211

> <Gold.PLP.Chemscore.Hbond>
3.6720

> <Gold.PLP.Chemscore.CHOScore>
0.0000

> <Gold.PLP.Chemscore.Metal>
0.0000

> <Gold.Chemscore.Hbonds>
donor molecule, donor type, donor heavy atom, donor atom, acceptor molecule, acceptor atom, score
      P1  H  6896  6909       L1     7  1.00
      P1  H  6931  6943       L1    13  1.00
      P1  H  6934  6947       L1    27  0.69
      P1  H  7997  8008       L1     3  0.96

> <Gold.PLP.Chemscore.Internal.Correction>
2.3266

> <Gold.Rescore>
     Score         DG    S(hbond)    S(metal)    S(lipo)     H(rot)  DE(clash)    DE(int)     intcor
      2.39     -10.68       3.51        0.00      37.04       4.25       0.03       8.25       ----

> <Gold.Chemscore.Fitness>
2.3941

> <Gold.Chemscore.DG>
-10.6751

> <Gold.Chemscore.ZeroCoef>
-5.4800

> <Gold.Chemscore.Hbond>
3.5120

> <Gold.Chemscore.Metal>
0.0000

> <Gold.Chemscore.Lipo>
37.0403

> <Gold.Chemscore.Internal_Hbond>
0.0000

> <Gold.Chemscore.DEClash>
0.0308

> <Gold.Chemscore.DEInternal>
8.2502

> <Gold.Chemscore.Rot>
4.2456

> <Gold.Chemscore.Internal.Correction>
   9.000000E+99

> <Gold.Chemscore.Hbonds>
donor molecule, donor type, donor heavy atom, donor atom, acceptor molecule, acceptor atom, score
      P1  H  6896  6909       L1     7  0.95
      P1  H  6931  6943       L1    13  0.94
      P1  H  6934  6947       L1    27  0.68
      P1  H  7997  8008       L1     3  0.91

> <Gold.Chemscore.Hbond.Weighted>
-11.7301

> <Gold.Chemscore.Metal.Weighted>
-0.0000

> <Gold.Chemscore.Lipo.Weighted>
-4.3337

> <Gold.Chemscore.Internal_Hbond.Weighted>
0.0000

> <Gold.Chemscore.DEClash.Weighted>
0.0308

> <Gold.Chemscore.DEInternal.Weighted>
8.2502

> <Gold.Chemscore.Rot.Weighted>
10.8687

> <Gold.Chemscore.Internal.Correction.Weighted>
   9.000000E+99

> <Gold.Protein.RotatedTorsions>
[ 6907 6896 6895 6894 ] final   64.74 input  -60.11 | X-H torsion
[ 7974 7965 7964 7962 ] final  129.97 input  175.53 | X-H torsion
[ 8008 7997 7996 7995 ] final  -76.03 input   59.86 | X-H torsion
[ 10167 10162 10161 10158 ] final   -4.97 input  -65.29 | X-H torsion
[ 10718 10713 10712 10709 ] final  161.80 input   66.30 | X-H torsion
[ 10763 10752 10751 10750 ] final -103.68 input  -60.55 | X-H torsion
[ 11005 11000 10999 10996 ] final  -57.51 input  -57.11 | X-H torsion

> <Gold.Protein.ActiveResidues>
 VAL166  LYS551  ARG553  GLY616  TRP617  ASP618  TYR619  PRO620  LYS621  CYS622 
 ASP623  PHE694  ASN695  SER759  ASP760  ASP761  ALA762  ILE779  LEU786  VAL792 
 PHE793  MET794  SER795  GLU796  ALA797  LYS798  CYS799  TRP800  GLU811  SER814 

> <Gold.Protein.RotatedAtoms>
  152.4354  134.5696  159.9917 H   0  0  0  0  0  0  0  0  0  0  0  0  # atno 6907 bound_to 6896
  151.5807  133.3372  159.3016 H   0  0  0  0  0  0  0  0  0  0  0  0  # atno 6908 bound_to 6896
  150.8252  134.7515  159.6871 H   0  0  0  0  0  0  0  0  0  0  0  0  # atno 6909 bound_to 6896
  145.0229  139.4115  143.5188 H   0  0  0  0  0  0  0  0  0  0  0  0  # atno 7974 bound_to 7965
  154.5469  140.0734  156.8604 H   0  0  0  0  0  0  0  0  0  0  0  0  # atno 8008 bound_to 7997
  155.3069  140.3388  155.4227 H   0  0  0  0  0  0  0  0  0  0  0  0  # atno 8009 bound_to 7997
  156.1926  140.1692  156.8047 H   0  0  0  0  0  0  0  0  0  0  0  0  # atno 8010 bound_to 7997
  140.6946  143.6362  150.8477 H   0  0  0  0  0  0  0  0  0  0  0  0  # atno 10167 bound_to 10162
  157.1315  131.0517  151.2369 H   0  0  0  0  0  0  0  0  0  0  0  0  # atno 10718 bound_to 10713
  154.7824  135.4814  153.9873 H   0  0  0  0  0  0  0  0  0  0  0  0  # atno 10763 bound_to 10752
  153.1513  135.6791  153.8886 H   0  0  0  0  0  0  0  0  0  0  0  0  # atno 10764 bound_to 10752
  153.8529  135.3165  155.3412 H   0  0  0  0  0  0  0  0  0  0  0  0  # atno 10765 bound_to 10752
  141.1167  133.6610  156.4780 H   0  0  0  0  0  0  0  0  0  0  0  0  # atno 11005 bound_to 11000
  146.3488  139.9737  142.8703 LP  0  0  0  0  0  0  0  0  0  0  0  0  # atno 17320 bound_to 7965
  145.1871  140.9794  143.4232 LP  0  0  0  0  0  0  0  0  0  0  0  0  # atno 17321 bound_to 7965
  140.0079  143.5674  152.2850 LP  0  0  0  0  0  0  0  0  0  0  0  0  # atno 17342 bound_to 10162
  139.6387  144.7652  151.2384 LP  0  0  0  0  0  0  0  0  0  0  0  0  # atno 17343 bound_to 10162
  157.4388  130.7532  149.7052 LP  0  0  0  0  0  0  0  0  0  0  0  0  # atno 17370 bound_to 10713
  155.9807  130.4027  150.3513 LP  0  0  0  0  0  0  0  0  0  0  0  0  # atno 17371 bound_to 10713
  140.4624  134.6829  157.5091 LP  0  0  0  0  0  0  0  0  0  0  0  0  # atno 17394 bound_to 11000
  140.0095  134.6712  155.9403 LP  0  0  0  0  0  0  0  0  0  0  0  0  # atno 17395 bound_to 11000

$$$$
