AV-unprocessed.smi:148|AV-procd|sdf|1216|dock6
  -GOLD-   2262018403D 1   1.00000     0.00000
 Structure written by MMmdl.
 63 67  0  0  0  0  0  0  0  0  1 V2000
  148.0377  134.1883  153.7397 O   0  0  0  0  0  0  0  0  0  0  0  0
  147.9235  134.5209  155.1075 C   0  0  0  0  0  0  0  0  0  0  0  0
  148.9988  133.8008  155.9556 C   0  0  2  0  0  0  0  0  0  0  0  0
  150.3919  134.4603  155.7845 C   0  0  0  0  0  0  0  0  0  0  0  0
  150.4324  135.8161  156.3024 N   0  0  0  0  0  0  0  0  0  0  0  0
  149.9208  136.2504  157.5046 C   0  0  0  0  0  0  0  0  0  0  0  0
  150.0634  137.5259  157.7424 N   0  0  0  0  0  0  0  0  0  0  0  0
  150.7253  138.0034  156.6186 C   0  0  0  0  0  0  0  0  0  0  0  0
  151.1647  139.2874  156.2050 C   0  0  0  0  0  0  0  0  0  0  0  0
  150.9577  140.3905  156.9604 N   0  0  0  0  0  0  0  0  0  0  0  0
  152.2038  140.7802  157.6208 C   0  0  0  0  0  0  0  0  0  0  0  0
  151.9679  141.8887  158.6535 C   0  0  0  0  0  0  0  0  0  0  0  0
  151.2804  143.0865  157.9928 C   0  0  0  0  0  0  0  0  0  0  0  0
  149.9712  142.6383  157.3302 C   0  0  0  0  0  0  0  0  0  0  0  0
  150.1956  141.4805  156.3217 C   0  0  2  0  0  0  0  0  0  0  0  0
  148.8732  140.9809  155.6552 C   0  0  1  0  0  0  0  0  0  0  0  0
  147.5792  141.1948  156.4653 C   0  0  0  0  0  0  0  0  0  0  0  0
  146.4436  141.3419  155.4392 C   0  0  0  0  0  0  0  0  0  0  0  0
  147.0861  141.1682  154.0595 C   0  0  0  0  0  0  0  0  0  0  0  0
  148.5486  141.5583  154.2697 C   0  0  2  0  0  0  0  0  0  0  0  0
  149.3761  141.0205  153.2588 O   0  0  0  0  0  0  0  0  0  0  0  0
  151.8026  139.3892  155.0085 N   0  0  0  0  0  0  0  0  0  0  0  0
  151.9830  138.2996  154.2557 C   0  0  0  0  0  0  0  0  0  0  0  0
  151.6106  137.0417  154.5040 N   0  0  0  0  0  0  0  0  0  0  0  0
  150.9789  136.9403  155.7091 C   0  0  0  0  0  0  0  0  0  0  0  0
  149.0084  132.2688  155.6966 C   0  0  2  0  0  0  0  0  0  0  0  0
  149.7558  131.8107  154.4431 C   0  0  0  0  0  0  0  0  0  0  0  0
  148.8115  130.7986  153.7916 C   0  0  0  0  0  0  0  0  0  0  0  0
  147.9289  130.4151  154.8343 O   0  0  0  0  0  0  0  0  0  0  0  0
  147.6394  131.5896  155.5729 C   0  0  0  0  0  0  0  0  0  0  0  0
  148.5573  134.8516  153.3117 H   0  0  0  0  0  0  0  0  0  0  0  0
  147.9948  135.6024  155.2254 H   0  0  0  0  0  0  0  0  0  0  0  0
  146.9195  134.2344  155.4188 H   0  0  0  0  0  0  0  0  0  0  0  0
  148.7146  133.9327  157.0010 H   0  0  0  0  0  0  0  0  0  0  0  0
  151.1669  133.8926  156.2978 H   0  0  0  0  0  0  0  0  0  0  0  0
  150.6802  134.4887  154.7340 H   0  0  0  0  0  0  0  0  0  0  0  0
  149.4268  135.5873  158.2000 H   0  0  0  0  0  0  0  0  0  0  0  0
  152.6494  139.9148  158.1139 H   0  0  0  0  0  0  0  0  0  0  0  0
  152.9195  141.1229  156.8720 H   0  0  0  0  0  0  0  0  0  0  0  0
  151.3501  141.5093  159.4685 H   0  0  0  0  0  0  0  0  0  0  0  0
  152.9158  142.1964  159.0956 H   0  0  0  0  0  0  0  0  0  0  0  0
  151.0815  143.8623  158.7327 H   0  0  0  0  0  0  0  0  0  0  0  0
  151.9415  143.5272  157.2456 H   0  0  0  0  0  0  0  0  0  0  0  0
  149.2728  142.3384  158.1107 H   0  0  0  0  0  0  0  0  0  0  0  0
  149.5298  143.5021  156.8357 H   0  0  0  0  0  0  0  0  0  0  0  0
  150.8268  141.8775  155.5251 H   0  0  0  0  0  0  0  0  0  0  0  0
  148.9544  139.9038  155.5001 H   0  0  0  0  0  0  0  0  0  0  0  0
  147.3973  140.3548  157.1356 H   0  0  0  0  0  0  0  0  0  0  0  0
  147.6258  142.0885  157.0858 H   0  0  0  0  0  0  0  0  0  0  0  0
  145.6463  140.6163  155.6039 H   0  0  0  0  0  0  0  0  0  0  0  0
  146.0020  142.3358  155.5212 H   0  0  0  0  0  0  0  0  0  0  0  0
  147.0174  140.1208  153.7607 H   0  0  0  0  0  0  0  0  0  0  0  0
  146.5968  141.7648  153.2891 H   0  0  0  0  0  0  0  0  0  0  0  0
  148.6214  142.6447  154.2600 H   0  0  0  0  0  0  0  0  0  0  0  0
  148.8463  140.4797  152.6934 H   0  0  0  0  0  0  0  0  0  0  0  0
  152.4948  138.4591  153.3181 H   0  0  0  0  0  0  0  0  0  0  0  0
  149.5190  131.7864  156.5309 H   0  0  0  0  0  0  0  0  0  0  0  0
  150.0052  132.6173  153.7546 H   0  0  0  0  0  0  0  0  0  0  0  0
  150.6934  131.3310  154.7260 H   0  0  0  0  0  0  0  0  0  0  0  0
  148.2385  131.2688  152.9910 H   0  0  0  0  0  0  0  0  0  0  0  0
  149.3374  129.9392  153.3755 H   0  0  0  0  0  0  0  0  0  0  0  0
  147.1998  131.3533  156.5422 H   0  0  0  0  0  0  0  0  0  0  0  0
  146.9228  132.1876  155.0105 H   0  0  0  0  0  0  0  0  0  0  0  0
  1  2  1  0  0  0  0
  1 31  1  0  0  0  0
  2  3  1  0  0  0  0
  2 32  1  0  0  0  0
  2 33  1  0  0  0  0
  3  4  1  0  0  0  0
  3 26  1  0  0  0  0
  3 34  1  0  0  0  0
  4  5  1  0  0  0  0
  4 35  1  0  0  0  0
  4 36  1  0  0  0  0
  5 25  1  0  0  0  0
  5  6  1  0  0  0  0
  6  7  2  0  0  0  0
  6 37  1  0  0  0  0
  7  8  1  0  0  0  0
  8 25  2  0  0  0  0
  8  9  1  0  0  0  0
  9 10  1  0  0  0  0
  9 22  2  0  0  0  0
 10 15  1  0  0  0  0
 10 11  1  0  0  0  0
 11 12  1  0  0  0  0
 11 38  1  0  0  0  0
 11 39  1  0  0  0  0
 12 13  1  0  0  0  0
 12 40  1  0  0  0  0
 12 41  1  0  0  0  0
 13 14  1  0  0  0  0
 13 42  1  0  0  0  0
 13 43  1  0  0  0  0
 14 15  1  0  0  0  0
 14 44  1  0  0  0  0
 14 45  1  0  0  0  0
 15 16  1  0  0  0  0
 15 46  1  0  0  0  0
 16 20  1  0  0  0  0
 16 17  1  0  0  0  0
 16 47  1  0  0  0  0
 17 18  1  0  0  0  0
 17 48  1  0  0  0  0
 17 49  1  0  0  0  0
 18 19  1  0  0  0  0
 18 50  1  0  0  0  0
 18 51  1  0  0  0  0
 19 20  1  0  0  0  0
 19 52  1  0  0  0  0
 19 53  1  0  0  0  0
 20 21  1  0  0  0  0
 20 54  1  0  0  0  0
 21 55  1  0  0  0  0
 22 23  1  0  0  0  0
 23 24  2  0  0  0  0
 23 56  1  0  0  0  0
 24 25  1  0  0  0  0
 26 30  1  0  0  0  0
 26 27  1  0  0  0  0
 26 57  1  0  0  0  0
 27 28  1  0  0  0  0
 27 58  1  0  0  0  0
 27 59  1  0  0  0  0
 28 29  1  0  0  0  0
 28 60  1  0  0  0  0
 28 61  1  0  0  0  0
 29 30  1  0  0  0  0
 30 62  1  0  0  0  0
 30 63  1  0  0  0  0
M  END
> <s_m_source_file>
AV-unprocessed.smi

> <i_m_source_file_index>
148

> <i_lp_mmshare_version>
43012

> <i_f3d_flags>
0

> <s_epik_input>
W0NIMl0xT1tDSDJdW0NIMl1bQ0BIXTFbQ0BIXShbQ0gyXVtPSF0pW0NIMl1uKFtjSF1uMiljKGMyMyluW2NIXW5jM040W0NIMl1bQ0gyXVtDSDJdW0NIMl1bQ0BIXTRbQ0BASF01W0NIMl1bQ0gyXVtDSDJdW0NASF01W09IXQ==

> <s_epik_cmdline>
J2VwaWtfcHl0aG9uJywgJy1waCcsICc3LjAnLCAnLXRuJywgJzgnLCAnLW1hJywgJzIwMCcsICctbWV0YWxfYmluZGluZycsICctaW1hZScsICc8aW5maWxlLm1hZT4nLCAnLW9tYWUnLCAnPG91dGZpbGUubWFlPic=

> <r_lp_tautomer_probability>
1

> <r_epik_Ionization_Penalty>
0.00556303

> <r_epik_Ionization_Penalty_Charging>
0

> <r_epik_Ionization_Penalty_Neutral>
0.00556303

> <r_epik_State_Penalty>
0.00401767

> <r_epik_Charging_Adjusted_Penalty>
0.00401767

> <i_epik_Tot_Q>
0

> <i_epik_Tot_abs_Q>
0

> <r_epik_Metal_State_Penalty>
-0

> <b_epik_Metal_Only>
0

> <s_lp_Force_Field>
OPLS_2005

> <r_lp_Energy>
68.7662

> <b_lp_Chiralities_Consistent>
1

> <s_lp_Variant>
AV-unprocessed.smi:148-15

> <Gold.Version>
5.8.1

> <Gold.Id.Protein>
6NUR|6NUR_protein|mol2

> <Gold.PLP.Fitness>
49.4416

> <Gold.PLP.PLP>
-39.7343

> <Gold.PLP.part.hbond>
-5.1895

> <Gold.PLP.part.metal>
0.0000

> <Gold.PLP.part.buried>
-3.3073

> <Gold.PLP.part.nonpolar>
-29.5276

> <Gold.PLP.part.repulsive>
0.2380

> <Gold.PLP.ligand.clash>
0.0000

> <Gold.PLP.ligand.torsion>
1.8430

> <Gold.PLP.Chemscore.Hbond>
4.3098

> <Gold.PLP.Chemscore.CHOScore>
0.0000

> <Gold.PLP.Chemscore.Metal>
0.0000

> <Gold.Chemscore.Hbonds>
donor molecule, donor type, donor heavy atom, donor atom, acceptor molecule, acceptor atom, score
      L1  H     1    31       P1  7948  1.00
      L1  H    21    55       P1  7957  0.30
      P1  H  7989  7998       L1    22  0.80
      P1  H  8011  8017       L1    21  1.00
      P1  H 10752 10763       L1    24  1.00

> <Gold.PLP.Chemscore.Internal.Correction>
0.4640

> <Gold.Rescore>
     Score         DG    S(hbond)    S(metal)    S(lipo)     H(rot)  DE(clash)    DE(int)     intcor
     13.91     -16.54       2.50        0.00      95.83       3.32       0.81       1.83       ----

> <Gold.Chemscore.Fitness>
13.9052

> <Gold.Chemscore.DG>
-16.5374

> <Gold.Chemscore.ZeroCoef>
-5.4800

> <Gold.Chemscore.Hbond>
2.4988

> <Gold.Chemscore.Metal>
0.0000

> <Gold.Chemscore.Lipo>
95.8252

> <Gold.Chemscore.Internal_Hbond>
0.0000

> <Gold.Chemscore.DEClash>
0.8070

> <Gold.Chemscore.DEInternal>
1.8252

> <Gold.Chemscore.Rot>
3.3203

> <Gold.Chemscore.Internal.Correction>
   9.000000E+99

> <Gold.Chemscore.Hbonds>
donor molecule, donor type, donor heavy atom, donor atom, acceptor molecule, acceptor atom, score
      L1  H     1    31       P1  7948  0.56
      L1  H    21    55       P1  7957  0.30
      P1  H  7989  7998       L1    22  0.19
      P1  H  8011  8017       L1    21  0.22
      P1  H 10752 10763       L1    24  0.80

> <Gold.Chemscore.Hbond.Weighted>
-8.3459

> <Gold.Chemscore.Metal.Weighted>
-0.0000

> <Gold.Chemscore.Lipo.Weighted>
-11.2115

> <Gold.Chemscore.Internal_Hbond.Weighted>
0.0000

> <Gold.Chemscore.DEClash.Weighted>
0.8070

> <Gold.Chemscore.DEInternal.Weighted>
1.8252

> <Gold.Chemscore.Rot.Weighted>
8.5000

> <Gold.Chemscore.Internal.Correction.Weighted>
   9.000000E+99

> <Gold.Protein.RotatedTorsions>
[ 6907 6896 6895 6894 ] final -124.81 input  -60.11 | X-H torsion
[ 7974 7965 7964 7962 ] final   45.23 input  175.53 | X-H torsion
[ 8008 7997 7996 7995 ] final  139.47 input   59.86 | X-H torsion
[ 10167 10162 10161 10158 ] final   30.89 input  -65.29 | X-H torsion
[ 10718 10713 10712 10709 ] final  179.02 input   66.30 | X-H torsion
[ 10763 10752 10751 10750 ] final   36.09 input  -60.55 | X-H torsion
[ 11005 11000 10999 10996 ] final  131.23 input  -57.11 | X-H torsion

> <Gold.Protein.ActiveResidues>
 VAL166  LYS551  ARG553  GLY616  TRP617  ASP618  TYR619  PRO620  LYS621  CYS622 
 ASP623  PHE694  ASN695  SER759  ASP760  ASP761  ALA762  ILE779  LEU786  VAL792 
 PHE793  MET794  SER795  GLU796  ALA797  LYS798  CYS799  TRP800  GLU811  SER814 

> <Gold.Protein.RotatedAtoms>
  150.8805  133.7378  159.2933 H   0  0  0  0  0  0  0  0  0  0  0  0  # atno 6907 bound_to 6896
  151.4961  135.1058  159.9826 H   0  0  0  0  0  0  0  0  0  0  0  0  # atno 6908 bound_to 6896
  152.4756  133.8086  159.7047 H   0  0  0  0  0  0  0  0  0  0  0  0  # atno 6909 bound_to 6896
  146.0499  139.4987  142.9725 H   0  0  0  0  0  0  0  0  0  0  0  0  # atno 7974 bound_to 7965
  156.2989  140.2367  156.4242 H   0  0  0  0  0  0  0  0  0  0  0  0  # atno 8008 bound_to 7997
  154.8328  140.0432  157.1509 H   0  0  0  0  0  0  0  0  0  0  0  0  # atno 8009 bound_to 7997
  154.9189  140.3001  155.5230 H   0  0  0  0  0  0  0  0  0  0  0  0  # atno 8010 bound_to 7997
  140.4637  144.0868  150.6219 H   0  0  0  0  0  0  0  0  0  0  0  0  # atno 10167 bound_to 10162
  156.8819  130.9818  151.3061 H   0  0  0  0  0  0  0  0  0  0  0  0  # atno 10718 bound_to 10713
  153.0091  135.6315  154.1930 H   0  0  0  0  0  0  0  0  0  0  0  0  # atno 10763 bound_to 10752
  154.1673  135.2820  155.3093 H   0  0  0  0  0  0  0  0  0  0  0  0  # atno 10764 bound_to 10752
  154.5935  135.5610  153.7363 H   0  0  0  0  0  0  0  0  0  0  0  0  # atno 10765 bound_to 10752
  139.9718  134.9575  156.9408 H   0  0  0  0  0  0  0  0  0  0  0  0  # atno 11005 bound_to 11000
  145.6743  141.0208  143.1641 LP  0  0  0  0  0  0  0  0  0  0  0  0  # atno 17320 bound_to 7965
  144.7117  139.8346  143.7412 LP  0  0  0  0  0  0  0  0  0  0  0  0  # atno 17321 bound_to 7965
  140.4062  143.2679  151.9888 LP  0  0  0  0  0  0  0  0  0  0  0  0  # atno 17342 bound_to 10162
  139.4809  144.5955  151.7698 LP  0  0  0  0  0  0  0  0  0  0  0  0  # atno 17343 bound_to 10162
  157.6135  130.8601  149.8990 LP  0  0  0  0  0  0  0  0  0  0  0  0  # atno 17370 bound_to 10713
  156.0673  130.3690  150.0852 LP  0  0  0  0  0  0  0  0  0  0  0  0  # atno 17371 bound_to 10713
  140.5278  134.0843  155.7308 LP  0  0  0  0  0  0  0  0  0  0  0  0  # atno 17394 bound_to 11000
  141.1397  133.9160  157.2354 LP  0  0  0  0  0  0  0  0  0  0  0  0  # atno 17395 bound_to 11000

$$$$
