AV-unprocessed.smi:3064|AV-procd|sdf|11689|dock3
  -GOLD-   2272017 93D 1   1.00000     0.00000
 Structure written by MMmdl.
 21 22  0  0  0  0  0  0  0  0  1 V2000
  152.1016  138.8926  155.0877 C   0  0  0  0  0  0  0  0  0  0  0  0
  150.9441  139.3017  154.4764 C   0  0  0  0  0  0  0  0  0  0  0  0
  150.1306  140.5371  155.3971 S   0  0  0  0  0  0  0  0  0  0  0  0
  151.4058  140.4358  156.6077 C   0  0  0  0  0  0  0  0  0  0  0  0
  151.4392  141.3060  157.8239 C   0  0  2  0  0  0  0  0  0  0  0  0
  151.3278  142.8030  157.4757 C   0  0  0  0  0  0  0  0  0  0  0  0
  151.4425  143.6140  158.6867 N   0  0  0  0  0  0  0  0  0  0  0  0
  152.6746  143.3085  159.4120 C   0  0  0  0  0  0  0  0  0  0  0  0
  152.7616  141.8003  159.7087 C   0  0  0  0  0  0  0  0  0  0  0  0
  152.6766  141.0670  158.4913 O   0  0  0  0  0  0  0  0  0  0  0  0
  152.3585  139.5517  156.2922 N   0  0  0  0  0  0  0  0  0  0  0  0
  152.7994  138.1465  154.7374 H   0  0  0  0  0  0  0  0  0  0  0  0
  150.5247  138.9558  153.5435 H   0  0  0  0  0  0  0  0  0  0  0  0
  150.6137  141.0085  158.4734 H   0  0  0  0  0  0  0  0  0  0  0  0
  152.1145  143.0774  156.7716 H   0  0  0  0  0  0  0  0  0  0  0  0
  150.3785  143.0050  156.9793 H   0  0  0  0  0  0  0  0  0  0  0  0
  151.4284  144.5984  158.4395 H   0  0  0  0  0  0  0  0  0  0  0  0
  153.5390  143.6155  158.8219 H   0  0  0  0  0  0  0  0  0  0  0  0
  152.7124  143.8765  160.3418 H   0  0  0  0  0  0  0  0  0  0  0  0
  153.7094  141.5685  160.1947 H   0  0  0  0  0  0  0  0  0  0  0  0
  151.9697  141.4901  160.3923 H   0  0  0  0  0  0  0  0  0  0  0  0
  1 11  1  0  0  0  0
  1  2  2  0  0  0  0
  1 12  1  0  0  0  0
  2  3  1  0  0  0  0
  2 13  1  0  0  0  0
  3  4  1  0  0  0  0
  4  5  1  0  0  0  0
  4 11  2  0  0  0  0
  5 10  1  0  0  0  0
  5  6  1  0  0  0  0
  5 14  1  0  0  0  0
  6  7  1  0  0  0  0
  6 15  1  0  0  0  0
  6 16  1  0  0  0  0
  7  8  1  0  0  0  0
  7 17  1  0  0  0  0
  8  9  1  0  0  0  0
  8 18  1  0  0  0  0
  8 19  1  0  0  0  0
  9 10  1  0  0  0  0
  9 20  1  0  0  0  0
  9 21  1  0  0  0  0
M  END
> <s_m_source_file>
AV-unprocessed.smi

> <i_m_source_file_index>
3064

> <i_lp_mmshare_version>
43012

> <i_f3d_flags>
0

> <s_epik_input>
bjFbY0hdW2NIXXNjMVtDQEBIXTJbQ0gyXVtOSF1bQ0gyXVtDSDJdTzI=

> <s_epik_cmdline>
J2VwaWtfcHl0aG9uJywgJy1waCcsICc3LjAnLCAnLXRuJywgJzgnLCAnLW1hJywgJzIwMCcsICctbWV0YWxfYmluZGluZycsICctaW1hZScsICc8aW5maWxlLm1hZT4nLCAnLW9tYWUnLCAnPG91dGZpbGUubWFlPic=

> <r_epik_Ionization_Penalty>
0.980767

> <r_epik_Ionization_Penalty_Charging>
0

> <r_epik_Ionization_Penalty_Neutral>
0.980767

> <r_epik_State_Penalty>
1.0271

> <r_epik_Charging_Adjusted_Penalty>
1.0271

> <i_epik_Tot_Q>
0

> <i_epik_Tot_abs_Q>
0

> <r_epik_Metal_State_Penalty>
1.02673

> <b_epik_Metal_Only>
0

> <s_lp_Force_Field>
OPLS_2005

> <r_lp_Energy>
8.04051

> <b_lp_Chiralities_Consistent>
1

> <s_lp_Variant>
AV-unprocessed.smi:3064-3

> <Gold.Version>
5.8.1

> <Gold.Id.Protein>
6NUR|6NUR_protein|mol2

> <Gold.PLP.Fitness>
28.4229

> <Gold.PLP.PLP>
-23.4594

> <Gold.PLP.part.hbond>
-1.2137

> <Gold.PLP.part.metal>
0.0000

> <Gold.PLP.part.buried>
0.0309

> <Gold.PLP.part.nonpolar>
-21.3100

> <Gold.PLP.part.repulsive>
0.0000

> <Gold.PLP.ligand.clash>
0.0000

> <Gold.PLP.ligand.torsion>
0.0613

> <Gold.PLP.Chemscore.Hbond>
1.0000

> <Gold.PLP.Chemscore.CHOScore>
0.6919

> <Gold.PLP.Chemscore.Metal>
0.0000

> <Gold.Chemscore.Hbonds>
donor molecule, donor type, donor heavy atom, donor atom, acceptor molecule, acceptor atom, score
      P1  H  7997  8008       L1    11  0.88
      L1  C     2    13       P1  7957  0.43

> <Gold.PLP.Chemscore.Internal.Correction>
0.0106

> <Gold.Rescore>
     Score         DG    S(hbond)    S(metal)    S(lipo)     H(rot)  DE(clash)    DE(int)     intcor
     13.67     -13.85       0.92        0.00      67.25       1.00       0.17       0.01       ----

> <Gold.Chemscore.Fitness>
13.6748

> <Gold.Chemscore.DG>
-13.8507

> <Gold.Chemscore.ZeroCoef>
-5.4800

> <Gold.Chemscore.Hbond>
0.9168

> <Gold.Chemscore.Metal>
0.0000

> <Gold.Chemscore.Lipo>
67.2536

> <Gold.Chemscore.Internal_Hbond>
0.0000

> <Gold.Chemscore.DEClash>
0.1705

> <Gold.Chemscore.DEInternal>
0.0054

> <Gold.Chemscore.Rot>
1.0000

> <Gold.Chemscore.Internal.Correction>
   9.000000E+99

> <Gold.Chemscore.Hbonds>
donor molecule, donor type, donor heavy atom, donor atom, acceptor molecule, acceptor atom, score
      P1  H  7997  8008       L1    11  0.46

> <Gold.Chemscore.Hbond.Weighted>
-3.0620

> <Gold.Chemscore.Metal.Weighted>
-0.0000

> <Gold.Chemscore.Lipo.Weighted>
-7.8687

> <Gold.Chemscore.Internal_Hbond.Weighted>
0.0000

> <Gold.Chemscore.DEClash.Weighted>
0.1705

> <Gold.Chemscore.DEInternal.Weighted>
0.0054

> <Gold.Chemscore.Rot.Weighted>
2.5600

> <Gold.Chemscore.Internal.Correction.Weighted>
   9.000000E+99

> <Gold.Protein.RotatedTorsions>
[ 6907 6896 6895 6894 ] final -172.54 input  -60.11 | X-H torsion
[ 7974 7965 7964 7962 ] final  163.09 input  175.53 | X-H torsion
[ 8008 7997 7996 7995 ] final  -33.85 input   59.86 | X-H torsion
[ 10167 10162 10161 10158 ] final  -33.25 input  -65.29 | X-H torsion
[ 10718 10713 10712 10709 ] final  106.87 input   66.30 | X-H torsion
[ 10763 10752 10751 10750 ] final -143.68 input  -60.55 | X-H torsion
[ 11005 11000 10999 10996 ] final -178.89 input  -57.11 | X-H torsion

> <Gold.Protein.ActiveResidues>
 VAL166  LYS551  ARG553  GLY616  TRP617  ASP618  TYR619  PRO620  LYS621  CYS622 
 ASP623  PHE694  ASN695  SER759  ASP760  ASP761  ALA762  ILE779  LEU786  VAL792 
 PHE793  MET794  SER795  GLU796  ALA797  LYS798  CYS799  TRP800  GLU811  SER814 

> <Gold.Protein.RotatedAtoms>
  151.5416  133.3432  159.2936 H   0  0  0  0  0  0  0  0  0  0  0  0  # atno 6907 bound_to 6896
  150.8532  134.7865  159.7036 H   0  0  0  0  0  0  0  0  0  0  0  0  # atno 6908 bound_to 6896
  152.4572  134.5272  159.9852 H   0  0  0  0  0  0  0  0  0  0  0  0  # atno 6909 bound_to 6896
  144.7606  139.8133  143.6334 H   0  0  0  0  0  0  0  0  0  0  0  0  # atno 7974 bound_to 7965
  154.4137  140.1699  156.1955 H   0  0  0  0  0  0  0  0  0  0  0  0  # atno 8008 bound_to 7997
  155.9567  140.3396  155.6431 H   0  0  0  0  0  0  0  0  0  0  0  0  # atno 8009 bound_to 7997
  155.6800  140.0721  157.2479 H   0  0  0  0  0  0  0  0  0  0  0  0  # atno 8010 bound_to 7997
  140.7207  143.3634  151.1918 H   0  0  0  0  0  0  0  0  0  0  0  0  # atno 10167 bound_to 10162
  157.6651  131.0860  150.6072 H   0  0  0  0  0  0  0  0  0  0  0  0  # atno 10718 bound_to 10713
  154.8460  135.3461  154.6226 H   0  0  0  0  0  0  0  0  0  0  0  0  # atno 10763 bound_to 10752
  153.6835  135.6979  153.5115 H   0  0  0  0  0  0  0  0  0  0  0  0  # atno 10764 bound_to 10752
  153.2650  135.4311  155.0887 H   0  0  0  0  0  0  0  0  0  0  0  0  # atno 10765 bound_to 10752
  140.4247  134.6573  157.4682 H   0  0  0  0  0  0  0  0  0  0  0  0  # atno 11005 bound_to 11000
  146.1664  139.4797  142.9955 LP  0  0  0  0  0  0  0  0  0  0  0  0  # atno 17320 bound_to 7965
  145.6633  141.0235  143.1697 LP  0  0  0  0  0  0  0  0  0  0  0  0  # atno 17321 bound_to 7965
  139.7191  143.9253  152.2978 LP  0  0  0  0  0  0  0  0  0  0  0  0  # atno 17342 bound_to 10162
  139.9004  144.6915  150.8672 LP  0  0  0  0  0  0  0  0  0  0  0  0  # atno 17343 bound_to 10162
  156.6373  130.4448  149.5765 LP  0  0  0  0  0  0  0  0  0  0  0  0  # atno 17370 bound_to 10713
  156.2236  130.6752  151.1393 LP  0  0  0  0  0  0  0  0  0  0  0  0  # atno 17371 bound_to 10713
  140.0176  134.6596  155.9287 LP  0  0  0  0  0  0  0  0  0  0  0  0  # atno 17394 bound_to 11000
  141.1770  133.6541  156.4867 LP  0  0  0  0  0  0  0  0  0  0  0  0  # atno 17395 bound_to 11000

$$$$
