AV-unprocessed.smi:1757|AV-procd|sdf|7075|dock6
  -GOLD-   22720 8293D 1   1.00000     0.00000
 Structure written by MMmdl.
 40 41  0  0  0  0  0  0  0  0  2 V2000
  146.9126  129.2468  152.3235 C   0  0  0  0  0  0  0  0  0  0  0  0
  147.6535  130.5125  152.5120 N   0  3  2  0  0  0  0  0  0  0  0  0
  148.5391  130.4764  153.7023 C   0  0  0  0  0  0  0  0  0  0  0  0
  149.3902  131.7540  153.7968 C   0  0  0  0  0  0  0  0  0  0  0  0
  148.5046  133.0110  153.8108 C   0  0  1  0  0  0  0  0  0  0  0  0
  149.3398  134.2092  153.7893 N   0  0  0  0  0  0  0  0  0  0  0  0
  149.3843  135.1528  154.7410 C   0  0  0  0  0  0  0  0  0  0  0  0
  148.7052  135.1152  155.7668 O   0  0  0  0  0  0  0  0  0  0  0  0
  150.2449  136.1308  154.4042 N   0  0  0  0  0  0  0  0  0  0  0  0
  150.6096  137.2756  155.1315 C   0  0  0  0  0  0  0  0  0  0  0  0
  150.0184  138.4922  155.0044 C   0  0  0  0  0  0  0  0  0  0  0  0
  150.4345  139.6368  155.7990 C   0  0  0  0  0  0  0  0  0  0  0  0
  149.7961  141.0087  155.6502 C   0  0  0  0  0  0  0  0  0  0  0  0
  150.6979  141.9616  155.8842 F   0  0  0  0  0  0  0  0  0  0  0  0
  149.3378  141.1721  154.4092 F   0  0  0  0  0  0  0  0  0  0  0  0
  148.7806  141.1759  156.4975 F   0  0  0  0  0  0  0  0  0  0  0  0
  151.4314  139.4275  156.6775 C   0  0  0  0  0  0  0  0  0  0  0  0
  152.0341  138.1761  156.8242 N   0  0  0  0  0  0  0  0  0  0  0  0
  151.6899  137.0795  156.1124 C   0  0  0  0  0  0  0  0  0  0  0  0
  152.2662  136.0088  156.3021 O   0  0  0  0  0  0  0  0  0  0  0  0
  147.5671  133.0018  152.5916 C   0  0  0  0  0  0  0  0  0  0  0  0
  146.7575  131.6959  152.5214 C   0  0  0  0  0  0  0  0  0  0  0  0
  152.7717  138.0991  157.5094 H   0  0  0  0  0  0  0  0  0  0  0  0
  146.2337  129.0629  153.1573 H   0  0  0  0  0  0  0  0  0  0  0  0
  147.6016  128.4048  152.2503 H   0  0  0  0  0  0  0  0  0  0  0  0
  146.3266  129.2766  151.4043 H   0  0  0  0  0  0  0  0  0  0  0  0
  147.9358  130.3596  154.6042 H   0  0  0  0  0  0  0  0  0  0  0  0
  149.1952  129.6070  153.6446 H   0  0  0  0  0  0  0  0  0  0  0  0
  150.0063  131.7204  154.6963 H   0  0  0  0  0  0  0  0  0  0  0  0
  150.0791  131.7931  152.9514 H   0  0  0  0  0  0  0  0  0  0  0  0
  147.8927  132.9853  154.7147 H   0  0  0  0  0  0  0  0  0  0  0  0
  149.9324  134.3325  152.9811 H   0  0  0  0  0  0  0  0  0  0  0  0
  150.6657  136.0650  153.4886 H   0  0  0  0  0  0  0  0  0  0  0  0
  149.2007  138.6354  154.3172 H   0  0  0  0  0  0  0  0  0  0  0  0
  151.8370  140.1914  157.3248 H   0  0  0  0  0  0  0  0  0  0  0  0
  146.8880  133.8543  152.6353 H   0  0  0  0  0  0  0  0  0  0  0  0
  148.1483  133.1162  151.6752 H   0  0  0  0  0  0  0  0  0  0  0  0
  146.1439  131.6972  151.6197 H   0  0  0  0  0  0  0  0  0  0  0  0
  146.0747  131.6314  153.3702 H   0  0  0  0  0  0  0  0  0  0  0  0
  148.2558  130.6134  151.7073 H   0  0  0  0  0  0  0  0  0  0  0  0
  1  2  1  0  0  0  0
  1 24  1  0  0  0  0
  1 25  1  0  0  0  0
  1 26  1  0  0  0  0
  2 22  1  0  0  0  0
  2  3  1  0  0  0  0
  2 40  1  0  0  0  0
  3  4  1  0  0  0  0
  3 27  1  0  0  0  0
  3 28  1  0  0  0  0
  4  5  1  0  0  0  0
  4 29  1  0  0  0  0
  4 30  1  0  0  0  0
  5  6  1  0  0  0  0
  5 21  1  0  0  0  0
  5 31  1  0  0  0  0
  6  7  1  0  0  0  0
  6 32  1  0  0  0  0
  7  8  2  0  0  0  0
  7  9  1  0  0  0  0
  9 10  1  0  0  0  0
  9 33  1  0  0  0  0
 10 19  1  0  0  0  0
 10 11  2  0  0  0  0
 11 12  1  0  0  0  0
 11 34  1  0  0  0  0
 12 13  1  0  0  0  0
 12 17  2  0  0  0  0
 13 14  1  0  0  0  0
 13 15  1  0  0  0  0
 13 16  1  0  0  0  0
 17 18  1  0  0  0  0
 17 35  1  0  0  0  0
 18 23  1  0  0  0  0
 18 19  1  0  0  0  0
 19 20  2  0  0  0  0
 21 22  1  0  0  0  0
 21 36  1  0  0  0  0
 21 37  1  0  0  0  0
 22 38  1  0  0  0  0
 22 39  1  0  0  0  0
M  CHG  1   2   1
M  END
> <s_m_source_file>
AV-unprocessed.smi

> <i_m_source_file_index>
1757

> <i_lp_mmshare_version>
43012

> <i_f3d_flags>
0

> <s_epik_input>
W0NIM11OMVtDSDJdW0NIMl1bQ0hdKFtDSDJdW0NIMl0xKVtOSF1DKD1PKVtOSF1jMltjSF1jKEMoRikoRilGKVtjSF1bbkhdYzI9Tw==

> <s_epik_cmdline>
J2VwaWtfcHl0aG9uJywgJy1waCcsICc3LjAnLCAnLXRuJywgJzgnLCAnLW1hJywgJzIwMCcsICctbWV0YWxfYmluZGluZycsICctaW1hZScsICc8aW5maWxlLm1hZT4nLCAnLW9tYWUnLCAnPG91dGZpbGUubWFlPic=

> <r_lp_tautomer_probability>
1

> <r_epik_Ionization_Penalty>
0.00859077

> <r_epik_Ionization_Penalty_Charging>
0.00857233

> <r_epik_Ionization_Penalty_Neutral>
1.84472e-05

> <r_epik_State_Penalty>
-0

> <r_epik_Charging_Adjusted_Penalty>
0.00857233

> <i_epik_Tot_Q>
1

> <i_epik_Tot_abs_Q>
1

> <r_epik_Metal_State_Penalty>
0.377538

> <b_epik_Metal_Only>
0

> <s_lp_Force_Field>
OPLS_2005

> <r_lp_Energy>
26.9081

> <b_lp_Chiralities_Consistent>
1

> <s_lp_Variant>
AV-unprocessed.smi:1757-1

> <Gold.Version>
5.8.1

> <Gold.Id.Protein>
6NUR|6NUR_protein|mol2

> <Gold.PLP.Fitness>
37.4758

> <Gold.PLP.PLP>
-33.7541

> <Gold.PLP.part.hbond>
-4.9474

> <Gold.PLP.part.metal>
0.0000

> <Gold.PLP.part.buried>
-0.3779

> <Gold.PLP.part.nonpolar>
-26.8016

> <Gold.PLP.part.repulsive>
0.2460

> <Gold.PLP.ligand.clash>
0.0000

> <Gold.PLP.ligand.torsion>
1.8613

> <Gold.PLP.Chemscore.Hbond>
2.4794

> <Gold.PLP.Chemscore.CHOScore>
0.0000

> <Gold.PLP.Chemscore.Metal>
0.0000

> <Gold.Chemscore.Hbonds>
donor molecule, donor type, donor heavy atom, donor atom, acceptor molecule, acceptor atom, score
      L1  H     2    40       P1 10747  1.00
      L1  H     9    33       P1  7949  0.42
      P1  H 10752 10764       L1    20  1.00

> <Gold.PLP.Chemscore.Internal.Correction>
0.0063

> <Gold.Rescore>
     Score         DG    S(hbond)    S(metal)    S(lipo)     H(rot)  DE(clash)    DE(int)     intcor
     14.86     -16.94       1.97        0.00      63.55       1.00       0.22       1.86       ----

> <Gold.Chemscore.Fitness>
14.8580

> <Gold.Chemscore.DG>
-16.9391

> <Gold.Chemscore.ZeroCoef>
-5.4800

> <Gold.Chemscore.Hbond>
1.9710

> <Gold.Chemscore.Metal>
0.0000

> <Gold.Chemscore.Lipo>
63.5543

> <Gold.Chemscore.Internal_Hbond>
0.0000

> <Gold.Chemscore.DEClash>
0.2175

> <Gold.Chemscore.DEInternal>
1.8636

> <Gold.Chemscore.Rot>
1.0000

> <Gold.Chemscore.Internal.Correction>
   9.000000E+99

> <Gold.Chemscore.Hbonds>
donor molecule, donor type, donor heavy atom, donor atom, acceptor molecule, acceptor atom, score
      L1  H     2    40       P1 10747  0.98
      L1  H     9    33       P1  7949  0.01
      P1  H 10752 10764       L1    20  0.96

> <Gold.Chemscore.Hbond.Weighted>
-6.5833

> <Gold.Chemscore.Metal.Weighted>
-0.0000

> <Gold.Chemscore.Lipo.Weighted>
-7.4359

> <Gold.Chemscore.Internal_Hbond.Weighted>
0.0000

> <Gold.Chemscore.DEClash.Weighted>
0.2175

> <Gold.Chemscore.DEInternal.Weighted>
1.8636

> <Gold.Chemscore.Rot.Weighted>
2.5600

> <Gold.Chemscore.Internal.Correction.Weighted>
   9.000000E+99

> <Gold.Protein.RotatedTorsions>
[ 6907 6896 6895 6894 ] final  -71.45 input  -60.11 | X-H torsion
[ 7974 7965 7964 7962 ] final   55.17 input  175.53 | X-H torsion
[ 8008 7997 7996 7995 ] final  104.96 input   59.86 | X-H torsion
[ 10167 10162 10161 10158 ] final  -47.08 input  -65.29 | X-H torsion
[ 10718 10713 10712 10709 ] final   13.82 input   66.30 | X-H torsion
[ 10763 10752 10751 10750 ] final  -20.15 input  -60.55 | X-H torsion
[ 11005 11000 10999 10996 ] final  -70.04 input  -57.11 | X-H torsion

> <Gold.Protein.ActiveResidues>
 VAL166  LYS551  ARG553  GLY616  TRP617  ASP618  TYR619  PRO620  LYS621  CYS622 
 ASP623  PHE694  ASN695  SER759  ASP760  ASP761  ALA762  ILE779  LEU786  VAL792 
 PHE793  MET794  SER795  GLU796  ALA797  LYS798  CYS799  TRP800  GLU811  SER814 

> <Gold.Protein.RotatedAtoms>
  150.7212  134.5307  159.5698 H   0  0  0  0  0  0  0  0  0  0  0  0  # atno 6907 bound_to 6896
  152.2841  134.7793  160.0400 H   0  0  0  0  0  0  0  0  0  0  0  0  # atno 6908 bound_to 6896
  151.8429  133.3391  159.3685 H   0  0  0  0  0  0  0  0  0  0  0  0  # atno 6909 bound_to 6896
  145.9532  139.3991  143.0293 H   0  0  0  0  0  0  0  0  0  0  0  0  # atno 7974 bound_to 7965
  156.1618  140.3139  155.8820 H   0  0  0  0  0  0  0  0  0  0  0  0  # atno 8008 bound_to 7997
  155.3767  140.0485  157.3061 H   0  0  0  0  0  0  0  0  0  0  0  0  # atno 8009 bound_to 7997
  154.5153  140.2179  155.9088 H   0  0  0  0  0  0  0  0  0  0  0  0  # atno 8010 bound_to 7997
  140.6790  143.2800  151.3876 H   0  0  0  0  0  0  0  0  0  0  0  0  # atno 10167 bound_to 10162
  157.0302  130.6190  149.5734 H   0  0  0  0  0  0  0  0  0  0  0  0  # atno 10718 bound_to 10713
  153.6160  135.6994  153.5328 H   0  0  0  0  0  0  0  0  0  0  0  0  # atno 10763 bound_to 10752
  153.2977  135.4138  155.1224 H   0  0  0  0  0  0  0  0  0  0  0  0  # atno 10764 bound_to 10752
  154.8553  135.3641  154.5700 H   0  0  0  0  0  0  0  0  0  0  0  0  # atno 10765 bound_to 10752
  141.1566  133.6780  156.6692 H   0  0  0  0  0  0  0  0  0  0  0  0  # atno 11005 bound_to 11000
  145.8142  140.9711  143.0933 LP  0  0  0  0  0  0  0  0  0  0  0  0  # atno 17320 bound_to 7965
  144.6800  139.9959  143.7484 LP  0  0  0  0  0  0  0  0  0  0  0  0  # atno 17321 bound_to 7965
  139.6100  144.1118  152.2289 LP  0  0  0  0  0  0  0  0  0  0  0  0  # atno 17342 bound_to 10162
  140.0529  144.5918  150.7322 LP  0  0  0  0  0  0  0  0  0  0  0  0  # atno 17343 bound_to 10162
  156.0072  130.5160  150.7870 LP  0  0  0  0  0  0  0  0  0  0  0  0  # atno 17370 bound_to 10713
  157.5183  131.0930  151.0111 LP  0  0  0  0  0  0  0  0  0  0  0  0  # atno 17371 bound_to 10713
  140.3188  134.8025  157.4235 LP  0  0  0  0  0  0  0  0  0  0  0  0  # atno 17394 bound_to 11000
  140.1115  134.5339  155.8262 LP  0  0  0  0  0  0  0  0  0  0  0  0  # atno 17395 bound_to 11000

$$$$
