AV-unprocessed.smi:2812|AV-procd|sdf|10836|dock5
  -GOLD-   2272015273D 1   1.00000     0.00000
 Structure written by MMmdl.
 55 56  0  0  0  0  0  0  0  0  2 V2000
  150.8875  144.6539  160.4851 C   0  0  0  0  0  0  0  0  0  0  0  0
  151.9042  143.5298  160.6048 C   0  0  0  0  0  0  0  0  0  0  0  0
  152.5066  143.2587  161.8937 C   0  0  0  0  0  0  0  0  0  0  0  0
  153.4117  142.2772  162.0053 C   0  0  0  0  0  0  0  0  0  0  0  0
  153.7830  141.4896  160.9063 N   0  0  0  0  0  0  0  0  0  0  0  0
  154.7696  140.4301  161.1333 C   0  0  0  0  0  0  0  0  0  0  0  0
  153.2373  141.6618  159.6681 C   0  0  0  0  0  0  0  0  0  0  0  0
  153.5276  140.9039  158.7393 O   0  0  0  0  0  0  0  0  0  0  0  0
  152.2783  142.7855  159.5310 C   0  0  0  0  0  0  0  0  0  0  0  0
  151.6819  143.0388  158.2854 N   0  0  0  0  0  0  0  0  0  0  0  0
  151.2331  142.1122  157.4203 C   0  0  0  0  0  0  0  0  0  0  0  0
  151.2963  140.8947  157.5967 O   0  0  0  0  0  0  0  0  0  0  0  0
  150.7077  142.6740  156.3228 N   0  0  0  0  0  0  0  0  0  0  0  0
  150.1124  141.9298  155.2178 C   0  0  0  0  0  0  0  0  0  0  0  0
  149.3119  140.6888  155.7028 C   0  0  1  0  0  0  0  0  0  0  0  0
  148.0280  141.0496  156.4857 C   0  0  0  0  0  0  0  0  0  0  0  0
  146.9342  141.6142  155.5670 C   0  0  0  0  0  0  0  0  0  0  0  0
  146.6560  140.6368  154.4179 C   0  0  0  0  0  0  0  0  0  0  0  0
  147.9470  140.2760  153.6648 C   0  0  0  0  0  0  0  0  0  0  0  0
  148.9756  139.7425  154.5987 N   0  3  1  0  0  0  0  0  0  0  0  0
  150.1635  139.1650  153.9169 C   0  0  0  0  0  0  0  0  0  0  0  0
  151.1530  138.5117  154.9043 C   0  0  0  0  0  0  0  0  0  0  0  0
  152.5516  139.1457  154.8135 C   0  0  0  0  0  0  0  0  0  0  0  0
  151.2343  136.9968  154.6654 C   0  0  0  0  0  0  0  0  0  0  0  0
  150.7708  145.1827  161.4312 H   0  0  0  0  0  0  0  0  0  0  0  0
  149.9132  144.2576  160.1985 H   0  0  0  0  0  0  0  0  0  0  0  0
  151.2021  145.3792  159.7341 H   0  0  0  0  0  0  0  0  0  0  0  0
  152.2380  143.8444  162.7607 H   0  0  0  0  0  0  0  0  0  0  0  0
  153.8963  142.0310  162.9389 H   0  0  0  0  0  0  0  0  0  0  0  0
  155.6018  140.5199  160.4332 H   0  0  0  0  0  0  0  0  0  0  0  0
  154.3132  139.4491  160.9956 H   0  0  0  0  0  0  0  0  0  0  0  0
  155.1920  140.4573  162.1383 H   0  0  0  0  0  0  0  0  0  0  0  0
  151.6911  144.0007  157.9798 H   0  0  0  0  0  0  0  0  0  0  0  0
  150.7045  143.6814  156.2539 H   0  0  0  0  0  0  0  0  0  0  0  0
  149.4722  142.6192  154.6689 H   0  0  0  0  0  0  0  0  0  0  0  0
  150.9053  141.6414  154.5264 H   0  0  0  0  0  0  0  0  0  0  0  0
  149.9482  140.1345  156.3944 H   0  0  0  0  0  0  0  0  0  0  0  0
  147.6477  140.1516  156.9744 H   0  0  0  0  0  0  0  0  0  0  0  0
  148.2437  141.7534  157.2899 H   0  0  0  0  0  0  0  0  0  0  0  0
  146.0210  141.7905  156.1363 H   0  0  0  0  0  0  0  0  0  0  0  0
  147.2397  142.5818  155.1680 H   0  0  0  0  0  0  0  0  0  0  0  0
  146.2022  139.7280  154.8157 H   0  0  0  0  0  0  0  0  0  0  0  0
  145.9293  141.0680  153.7289 H   0  0  0  0  0  0  0  0  0  0  0  0
  147.7110  139.5329  152.9040 H   0  0  0  0  0  0  0  0  0  0  0  0
  148.3342  141.1453  153.1326 H   0  0  0  0  0  0  0  0  0  0  0  0
  149.8330  138.4435  153.1679 H   0  0  0  0  0  0  0  0  0  0  0  0
  150.6944  139.9470  153.3714 H   0  0  0  0  0  0  0  0  0  0  0  0
  150.7881  138.6523  155.9215 H   0  0  0  0  0  0  0  0  0  0  0  0
  152.9759  139.0306  153.8155 H   0  0  0  0  0  0  0  0  0  0  0  0
  153.2389  138.6807  155.5208 H   0  0  0  0  0  0  0  0  0  0  0  0
  152.5244  140.2112  155.0427 H   0  0  0  0  0  0  0  0  0  0  0  0
  151.5929  136.7718  153.6604 H   0  0  0  0  0  0  0  0  0  0  0  0
  150.2576  136.5265  154.7830 H   0  0  0  0  0  0  0  0  0  0  0  0
  151.9133  136.5223  155.3745 H   0  0  0  0  0  0  0  0  0  0  0  0
  148.5393  138.9592  155.0636 H   0  0  0  0  0  0  0  0  0  0  0  0
  1  2  1  0  0  0  0
  1 25  1  0  0  0  0
  1 26  1  0  0  0  0
  1 27  1  0  0  0  0
  2  9  2  0  0  0  0
  2  3  1  0  0  0  0
  3  4  2  0  0  0  0
  3 28  1  0  0  0  0
  4  5  1  0  0  0  0
  4 29  1  0  0  0  0
  5  6  1  0  0  0  0
  5  7  1  0  0  0  0
  6 30  1  0  0  0  0
  6 31  1  0  0  0  0
  6 32  1  0  0  0  0
  7  8  2  0  0  0  0
  7  9  1  0  0  0  0
  9 10  1  0  0  0  0
 10 11  1  0  0  0  0
 10 33  1  0  0  0  0
 11 12  2  0  0  0  0
 11 13  1  0  0  0  0
 13 14  1  0  0  0  0
 13 34  1  0  0  0  0
 14 15  1  0  0  0  0
 14 35  1  0  0  0  0
 14 36  1  0  0  0  0
 15 20  1  0  0  0  0
 15 16  1  0  0  0  0
 15 37  1  0  0  0  0
 16 17  1  0  0  0  0
 16 38  1  0  0  0  0
 16 39  1  0  0  0  0
 17 18  1  0  0  0  0
 17 40  1  0  0  0  0
 17 41  1  0  0  0  0
 18 19  1  0  0  0  0
 18 42  1  0  0  0  0
 18 43  1  0  0  0  0
 19 20  1  0  0  0  0
 19 44  1  0  0  0  0
 19 45  1  0  0  0  0
 20 21  1  0  0  0  0
 20 55  1  0  0  0  0
 21 22  1  0  0  0  0
 21 46  1  0  0  0  0
 21 47  1  0  0  0  0
 22 23  1  0  0  0  0
 22 24  1  0  0  0  0
 22 48  1  0  0  0  0
 23 49  1  0  0  0  0
 23 50  1  0  0  0  0
 23 51  1  0  0  0  0
 24 52  1  0  0  0  0
 24 53  1  0  0  0  0
 24 54  1  0  0  0  0
M  CHG  1  20   1
M  END
> <s_m_source_file>
AV-unprocessed.smi

> <i_m_source_file_index>
2812

> <i_lp_mmshare_version>
43012

> <i_f3d_flags>
0

> <s_epik_input>
W0NIM11jMVtjSF1bY0hdbihbQ0gzXSljKD1PKWMxW05IXUMoPU8pW05IXVtDSDJdW0NAQEhdMltDSDJdW0NIMl1bQ0gyXVtDSDJdTjJbQ0gyXVtDSF0oW0NIM10pW0NIM10=

> <s_epik_cmdline>
J2VwaWtfcHl0aG9uJywgJy1waCcsICc3LjAnLCAnLXRuJywgJzgnLCAnLW1hJywgJzIwMCcsICctbWV0YWxfYmluZGluZycsICctaW1hZScsICc8aW5maWxlLm1hZT4nLCAnLW9tYWUnLCAnPG91dGZpbGUubWFlPic=

> <r_lp_tautomer_probability>
1

> <r_epik_Ionization_Penalty>
0.0010902

> <r_epik_Ionization_Penalty_Charging>
0.00107091

> <r_epik_Ionization_Penalty_Neutral>
1.92854e-05

> <r_epik_State_Penalty>
0.000697184

> <r_epik_Charging_Adjusted_Penalty>
0.0017681

> <i_epik_Tot_Q>
1

> <i_epik_Tot_abs_Q>
1

> <r_epik_Metal_State_Penalty>
-0

> <b_epik_Metal_Only>
0

> <s_lp_Force_Field>
OPLS_2005

> <r_lp_Energy>
38.3811

> <b_lp_Chiralities_Consistent>
1

> <s_lp_Variant>
AV-unprocessed.smi:2812-4

> <Gold.Version>
5.8.1

> <Gold.Id.Protein>
6NUR|6NUR_protein|mol2

> <Gold.PLP.Fitness>
49.1366

> <Gold.PLP.PLP>
-49.7488

> <Gold.PLP.part.hbond>
-1.9496

> <Gold.PLP.part.metal>
0.0000

> <Gold.PLP.part.buried>
-3.1655

> <Gold.PLP.part.nonpolar>
-44.2025

> <Gold.PLP.part.repulsive>
0.1836

> <Gold.PLP.ligand.clash>
0.0000

> <Gold.PLP.ligand.torsion>
1.3197

> <Gold.PLP.Chemscore.Hbond>
0.4495

> <Gold.PLP.Chemscore.CHOScore>
0.0000

> <Gold.PLP.Chemscore.Metal>
0.0000

> <Gold.Chemscore.Hbonds>
donor molecule, donor type, donor heavy atom, donor atom, acceptor molecule, acceptor atom, score
      L1  H    13    34       P1  8028  0.28
      P1  H  7997  8010       L1     8  0.39

> <Gold.PLP.Chemscore.Internal.Correction>
0.6786

> <Gold.Rescore>
     Score         DG    S(hbond)    S(metal)    S(lipo)     H(rot)  DE(clash)    DE(int)     intcor
     12.07     -18.96       1.28        0.00     111.99       1.52       0.05       6.84       ----

> <Gold.Chemscore.Fitness>
12.0720

> <Gold.Chemscore.DG>
-18.9620

> <Gold.Chemscore.ZeroCoef>
-5.4800

> <Gold.Chemscore.Hbond>
1.2753

> <Gold.Chemscore.Metal>
0.0000

> <Gold.Chemscore.Lipo>
111.9909

> <Gold.Chemscore.Internal_Hbond>
0.0000

> <Gold.Chemscore.DEClash>
0.0480

> <Gold.Chemscore.DEInternal>
6.8419

> <Gold.Chemscore.Rot>
1.5157

> <Gold.Chemscore.Internal.Correction>
   9.000000E+99

> <Gold.Chemscore.Hbonds>
donor molecule, donor type, donor heavy atom, donor atom, acceptor molecule, acceptor atom, score
      L1  H    13    34       P1  8028  0.28
      P1  H  7997  8010       L1     8  0.40

> <Gold.Chemscore.Hbond.Weighted>
-4.2593

> <Gold.Chemscore.Metal.Weighted>
-0.0000

> <Gold.Chemscore.Lipo.Weighted>
-13.1029

> <Gold.Chemscore.Internal_Hbond.Weighted>
0.0000

> <Gold.Chemscore.DEClash.Weighted>
0.0480

> <Gold.Chemscore.DEInternal.Weighted>
6.8419

> <Gold.Chemscore.Rot.Weighted>
3.8803

> <Gold.Chemscore.Internal.Correction.Weighted>
   9.000000E+99

> <Gold.Protein.RotatedTorsions>
[ 6907 6896 6895 6894 ] final -100.80 input  -60.11 | X-H torsion
[ 7974 7965 7964 7962 ] final -129.00 input  175.53 | X-H torsion
[ 8008 7997 7996 7995 ] final   22.32 input   59.86 | X-H torsion
[ 10167 10162 10161 10158 ] final -135.91 input  -65.29 | X-H torsion
[ 10718 10713 10712 10709 ] final  -87.04 input   66.30 | X-H torsion
[ 10763 10752 10751 10750 ] final   -4.45 input  -60.55 | X-H torsion
[ 11005 11000 10999 10996 ] final   59.62 input  -57.11 | X-H torsion

> <Gold.Protein.ActiveResidues>
 VAL166  LYS551  ARG553  GLY616  TRP617  ASP618  TYR619  PRO620  LYS621  CYS622 
 ASP623  PHE694  ASN695  SER759  ASP760  ASP761  ALA762  ILE779  LEU786  VAL792 
 PHE793  MET794  SER795  GLU796  ALA797  LYS798  CYS799  TRP800  GLU811  SER814 

> <Gold.Protein.RotatedAtoms>
  150.7130  134.0831  159.3904 H   0  0  0  0  0  0  0  0  0  0  0  0  # atno 6907 bound_to 6896
  151.8816  135.0449  160.0498 H   0  0  0  0  0  0  0  0  0  0  0  0  # atno 6908 bound_to 6896
  152.2563  133.5223  159.5392 H   0  0  0  0  0  0  0  0  0  0  0  0  # atno 6909 bound_to 6896
  144.9615  140.7452  143.4726 H   0  0  0  0  0  0  0  0  0  0  0  0  # atno 7974 bound_to 7965
  154.9639  140.3081  155.5018 H   0  0  0  0  0  0  0  0  0  0  0  0  # atno 8008 bound_to 7997
  156.2974  140.2296  156.4665 H   0  0  0  0  0  0  0  0  0  0  0  0  # atno 8009 bound_to 7997
  154.7940  140.0438  157.1211 H   0  0  0  0  0  0  0  0  0  0  0  0  # atno 8010 bound_to 7997
  139.8731  143.6932  152.2637 H   0  0  0  0  0  0  0  0  0  0  0  0  # atno 10167 bound_to 10162
  155.9987  130.4786  150.4806 H   0  0  0  0  0  0  0  0  0  0  0  0  # atno 10718 bound_to 10713
  153.3850  135.7000  153.6537 H   0  0  0  0  0  0  0  0  0  0  0  0  # atno 10763 bound_to 10752
  153.5132  135.3627  155.2597 H   0  0  0  0  0  0  0  0  0  0  0  0  # atno 10764 bound_to 10752
  154.8696  135.4140  154.3156 H   0  0  0  0  0  0  0  0  0  0  0  0  # atno 10765 bound_to 10752
  140.0290  134.6040  155.9533 H   0  0  0  0  0  0  0  0  0  0  0  0  # atno 11005 bound_to 11000
  145.2693  139.1961  143.4850 LP  0  0  0  0  0  0  0  0  0  0  0  0  # atno 17320 bound_to 7965
  146.3354  140.2636  142.8603 LP  0  0  0  0  0  0  0  0  0  0  0  0  # atno 17321 bound_to 7965
  139.7265  144.7592  151.0870 LP  0  0  0  0  0  0  0  0  0  0  0  0  # atno 17342 bound_to 10162
  140.7757  143.5142  150.9616 LP  0  0  0  0  0  0  0  0  0  0  0  0  # atno 17343 bound_to 10162
  157.2812  131.0607  151.2196 LP  0  0  0  0  0  0  0  0  0  0  0  0  # atno 17370 bound_to 10713
  157.3242  130.6952  149.6287 LP  0  0  0  0  0  0  0  0  0  0  0  0  # atno 17371 bound_to 10713
  141.1820  133.6548  156.5059 LP  0  0  0  0  0  0  0  0  0  0  0  0  # atno 17394 bound_to 11000
  140.4257  134.7147  157.4914 LP  0  0  0  0  0  0  0  0  0  0  0  0  # atno 17395 bound_to 11000

$$$$
