AV-unprocessed.smi:2191|AV-procd|sdf|8895|dock1
  -GOLD-   2272012103D 1   1.00000     0.00000
 Structure written by MMmdl.
 37 39  0  0  0  0  0  0  0  0  2 V2000
  151.5882  139.3961  154.7021 O   0  0  0  0  0  0  0  0  0  0  0  0
  151.2450  139.0367  156.0258 C   0  0  1  0  0  0  0  0  0  0  0  0
  151.5007  137.5338  156.2087 C   0  0  0  0  0  0  0  0  0  0  0  0
  150.6806  136.8135  155.2977 O   0  0  0  0  0  0  0  0  0  0  0  0
  150.7566  135.4372  155.2990 C   0  0  0  0  0  0  0  0  0  0  0  0
  149.9316  134.7495  154.3847 C   0  0  0  0  0  0  0  0  0  0  0  0
  149.9435  133.3429  154.3192 C   0  0  0  0  0  0  0  0  0  0  0  0
  150.7868  132.6062  155.1711 C   0  0  0  0  0  0  0  0  0  0  0  0
  151.6171  133.2790  156.0865 C   0  0  0  0  0  0  0  0  0  0  0  0
  151.6044  134.6861  156.1527 C   0  0  0  0  0  0  0  0  0  0  0  0
  152.0477  139.8978  157.0222 C   0  0  0  0  0  0  0  0  0  0  0  0
  151.5080  141.2562  157.1643 N   0  0  0  0  0  0  0  0  0  0  0  0
  150.6542  141.9488  156.3626 C   0  0  0  0  0  0  0  0  0  0  0  0
  150.4567  143.1709  156.9312 N   0  3  0  0  0  0  0  0  0  0  0  0
  151.1959  143.2602  158.1129 C   0  0  0  0  0  0  0  0  0  0  0  0
  151.3195  144.2942  159.0359 C   0  0  0  0  0  0  0  0  0  0  0  0
  152.1605  144.0566  160.1433 C   0  0  0  0  0  0  0  0  0  0  0  0
  152.8404  142.8311  160.3007 C   0  0  0  0  0  0  0  0  0  0  0  0
  152.7092  141.7902  159.3579 C   0  0  0  0  0  0  0  0  0  0  0  0
  151.8747  142.0330  158.2677 C   0  0  0  0  0  0  0  0  0  0  0  0
  151.4104  138.6610  154.1356 H   0  0  0  0  0  0  0  0  0  0  0  0
  150.1786  139.2293  156.1482 H   0  0  0  0  0  0  0  0  0  0  0  0
  152.5501  137.3130  156.0043 H   0  0  0  0  0  0  0  0  0  0  0  0
  151.2860  137.2400  157.2377 H   0  0  0  0  0  0  0  0  0  0  0  0
  149.2807  135.3070  153.7270 H   0  0  0  0  0  0  0  0  0  0  0  0
  149.3053  132.8295  153.6153 H   0  0  0  0  0  0  0  0  0  0  0  0
  150.7974  131.5272  155.1224 H   0  0  0  0  0  0  0  0  0  0  0  0
  152.2662  132.7153  156.7401 H   0  0  0  0  0  0  0  0  0  0  0  0
  152.2566  135.1651  156.8669 H   0  0  0  0  0  0  0  0  0  0  0  0
  152.0723  139.4357  158.0099 H   0  0  0  0  0  0  0  0  0  0  0  0
  153.0853  139.9885  156.6975 H   0  0  0  0  0  0  0  0  0  0  0  0
  150.2112  141.5926  155.4437 H   0  0  0  0  0  0  0  0  0  0  0  0
  150.8001  145.2340  158.9186 H   0  0  0  0  0  0  0  0  0  0  0  0
  152.2866  144.8300  160.8871 H   0  0  0  0  0  0  0  0  0  0  0  0
  153.4755  142.6859  161.1628 H   0  0  0  0  0  0  0  0  0  0  0  0
  153.2321  140.8538  159.4871 H   0  0  0  0  0  0  0  0  0  0  0  0
  149.8602  143.8883  156.5393 H   0  0  0  0  0  0  0  0  0  0  0  0
  1  2  1  0  0  0  0
  1 21  1  0  0  0  0
  2  3  1  0  0  0  0
  2 11  1  0  0  0  0
  2 22  1  0  0  0  0
  3  4  1  0  0  0  0
  3 23  1  0  0  0  0
  3 24  1  0  0  0  0
  4  5  1  0  0  0  0
  5 10  1  0  0  0  0
  5  6  2  0  0  0  0
  6  7  1  0  0  0  0
  6 25  1  0  0  0  0
  7  8  2  0  0  0  0
  7 26  1  0  0  0  0
  8  9  1  0  0  0  0
  8 27  1  0  0  0  0
  9 10  2  0  0  0  0
  9 28  1  0  0  0  0
 10 29  1  0  0  0  0
 11 12  1  0  0  0  0
 11 30  1  0  0  0  0
 11 31  1  0  0  0  0
 12 20  1  0  0  0  0
 12 13  1  0  0  0  0
 13 14  2  0  0  0  0
 13 32  1  0  0  0  0
 14 15  1  0  0  0  0
 14 37  1  0  0  0  0
 15 20  2  0  0  0  0
 15 16  1  0  0  0  0
 16 17  2  0  0  0  0
 16 33  1  0  0  0  0
 17 18  1  0  0  0  0
 17 34  1  0  0  0  0
 18 19  2  0  0  0  0
 18 35  1  0  0  0  0
 19 20  1  0  0  0  0
 19 36  1  0  0  0  0
M  CHG  1  14   1
M  END
> <s_m_source_file>
AV-unprocessed.smi

> <i_m_source_file_index>
2191

> <i_lp_mmshare_version>
43012

> <i_f3d_flags>
0

> <s_epik_input>
W2NIXTFbY0hdW2NIXVtjSF1jKGMxMiluKFtjSF1uMilbQ0gyXVtDQEhdKFtPSF0pW0NIMl1PYzNbY0hdW2NIXVtjSF1bY0hdW2NIXTM=

> <s_epik_cmdline>
J2VwaWtfcHl0aG9uJywgJy1waCcsICc3LjAnLCAnLXRuJywgJzgnLCAnLW1hJywgJzIwMCcsICctbWV0YWxfYmluZGluZycsICctaW1hZScsICc8aW5maWxlLm1hZT4nLCAnLW9tYWUnLCAnPG91dGZpbGUubWFlPic=

> <r_lp_tautomer_probability>
1

> <r_epik_Ionization_Penalty>
1.35015

> <r_epik_Ionization_Penalty_Charging>
1.35015

> <r_epik_Ionization_Penalty_Neutral>
2.3993e-06

> <r_epik_State_Penalty>
1.42814

> <r_epik_Charging_Adjusted_Penalty>
2.77829

> <i_epik_Tot_Q>
1

> <i_epik_Tot_abs_Q>
1

> <r_epik_Metal_State_Penalty>
5.46522

> <b_epik_Metal_Only>
0

> <s_lp_Force_Field>
OPLS_2005

> <r_lp_Energy>
19.3108

> <b_lp_Chiralities_Consistent>
1

> <s_lp_Variant>
AV-unprocessed.smi:2191-4

> <Gold.Version>
5.8.1

> <Gold.Id.Protein>
6NUR|6NUR_protein|mol2

> <Gold.PLP.Fitness>
49.8383

> <Gold.PLP.PLP>
-41.5842

> <Gold.PLP.part.hbond>
-1.9433

> <Gold.PLP.part.metal>
0.0000

> <Gold.PLP.part.buried>
-6.0163

> <Gold.PLP.part.nonpolar>
-33.5034

> <Gold.PLP.part.repulsive>
0.1536

> <Gold.PLP.ligand.clash>
0.0000

> <Gold.PLP.ligand.torsion>
0.3919

> <Gold.PLP.Chemscore.Hbond>
3.0000

> <Gold.PLP.Chemscore.CHOScore>
0.0000

> <Gold.PLP.Chemscore.Metal>
0.0000

> <Gold.Chemscore.Hbonds>
donor molecule, donor type, donor heavy atom, donor atom, acceptor molecule, acceptor atom, score
      L1  H    14    37       P1  8028  2.00
      P1  H  7989  7998       L1     1  1.00

> <Gold.PLP.Chemscore.Internal.Correction>
0.0379

> <Gold.Rescore>
     Score         DG    S(hbond)    S(metal)    S(lipo)     H(rot)  DE(clash)    DE(int)     intcor
     18.55     -19.14       1.91        0.00     112.61       2.31       0.11       0.47       ----

> <Gold.Chemscore.Fitness>
18.5541

> <Gold.Chemscore.DG>
-19.1423

> <Gold.Chemscore.ZeroCoef>
-5.4800

> <Gold.Chemscore.Hbond>
1.9126

> <Gold.Chemscore.Metal>
0.0000

> <Gold.Chemscore.Lipo>
112.6131

> <Gold.Chemscore.Internal_Hbond>
0.0000

> <Gold.Chemscore.DEClash>
0.1134

> <Gold.Chemscore.DEInternal>
0.4748

> <Gold.Chemscore.Rot>
2.3053

> <Gold.Chemscore.Internal.Correction>
   9.000000E+99

> <Gold.Chemscore.Hbonds>
donor molecule, donor type, donor heavy atom, donor atom, acceptor molecule, acceptor atom, score
      L1  H    14    37       P1  8028  0.94
      P1  H  7989  7998       L1     1  0.39

> <Gold.Chemscore.Hbond.Weighted>
-6.3881

> <Gold.Chemscore.Metal.Weighted>
-0.0000

> <Gold.Chemscore.Lipo.Weighted>
-13.1757

> <Gold.Chemscore.Internal_Hbond.Weighted>
0.0000

> <Gold.Chemscore.DEClash.Weighted>
0.1134

> <Gold.Chemscore.DEInternal.Weighted>
0.4748

> <Gold.Chemscore.Rot.Weighted>
5.9015

> <Gold.Chemscore.Internal.Correction.Weighted>
   9.000000E+99

> <Gold.Protein.RotatedTorsions>
[ 6907 6896 6895 6894 ] final  -86.47 input  -60.11 | X-H torsion
[ 7974 7965 7964 7962 ] final    1.86 input  175.53 | X-H torsion
[ 8008 7997 7996 7995 ] final    8.74 input   59.86 | X-H torsion
[ 10167 10162 10161 10158 ] final  -41.91 input  -65.29 | X-H torsion
[ 10718 10713 10712 10709 ] final -172.69 input   66.30 | X-H torsion
[ 10763 10752 10751 10750 ] final -155.59 input  -60.55 | X-H torsion
[ 11005 11000 10999 10996 ] final -133.05 input  -57.11 | X-H torsion

> <Gold.Protein.ActiveResidues>
 VAL166  LYS551  ARG553  GLY616  TRP617  ASP618  TYR619  PRO620  LYS621  CYS622 
 ASP623  PHE694  ASN695  SER759  ASP760  ASP761  ALA762  ILE779  LEU786  VAL792 
 PHE793  MET794  SER795  GLU796  ALA797  LYS798  CYS799  TRP800  GLU811  SER814 

> <Gold.Protein.RotatedAtoms>
  150.6867  134.3045  159.4720 H   0  0  0  0  0  0  0  0  0  0  0  0  # atno 6907 bound_to 6896
  152.0938  134.9386  160.0580 H   0  0  0  0  0  0  0  0  0  0  0  0  # atno 6908 bound_to 6896
  152.0692  133.4064  159.4489 H   0  0  0  0  0  0  0  0  0  0  0  0  # atno 6909 bound_to 6896
  146.2442  140.0923  142.8351 H   0  0  0  0  0  0  0  0  0  0  0  0  # atno 7974 bound_to 7965
  154.7708  140.2801  155.6139 H   0  0  0  0  0  0  0  0  0  0  0  0  # atno 8008 bound_to 7997
  156.2933  140.2642  156.2437 H   0  0  0  0  0  0  0  0  0  0  0  0  # atno 8009 bound_to 7997
  154.9903  140.0374  157.2306 H   0  0  0  0  0  0  0  0  0  0  0  0  # atno 8010 bound_to 7997
  140.6987  143.3067  151.3134 H   0  0  0  0  0  0  0  0  0  0  0  0  # atno 10167 bound_to 10162
  156.7592  130.9407  151.3117 H   0  0  0  0  0  0  0  0  0  0  0  0  # atno 10718 bound_to 10713
  154.7776  135.3164  154.8059 H   0  0  0  0  0  0  0  0  0  0  0  0  # atno 10763 bound_to 10752
  153.8779  135.6838  153.4773 H   0  0  0  0  0  0  0  0  0  0  0  0  # atno 10764 bound_to 10752
  153.1403  135.4742  154.9422 H   0  0  0  0  0  0  0  0  0  0  0  0  # atno 10765 bound_to 10752
  140.9115  134.1562  157.4385 H   0  0  0  0  0  0  0  0  0  0  0  0  # atno 11005 bound_to 11000
  145.0639  140.9107  143.4922 LP  0  0  0  0  0  0  0  0  0  0  0  0  # atno 17320 bound_to 7965
  145.1044  139.2800  143.5669 LP  0  0  0  0  0  0  0  0  0  0  0  0  # atno 17321 bound_to 7965
  139.6476  144.0422  152.2602 LP  0  0  0  0  0  0  0  0  0  0  0  0  # atno 17342 bound_to 10162
  139.9948  144.6336  150.7782 LP  0  0  0  0  0  0  0  0  0  0  0  0  # atno 17343 bound_to 10162
  157.6742  130.9079  150.0111 LP  0  0  0  0  0  0  0  0  0  0  0  0  # atno 17370 bound_to 10713
  156.1350  130.3643  149.9671 LP  0  0  0  0  0  0  0  0  0  0  0  0  # atno 17371 bound_to 10713
  139.8758  134.9937  156.5659 LP  0  0  0  0  0  0  0  0  0  0  0  0  # atno 17394 bound_to 11000
  140.8104  133.8434  155.8805 LP  0  0  0  0  0  0  0  0  0  0  0  0  # atno 17395 bound_to 11000

$$$$
