AV-unprocessed.smi:553|AV-procd|sdf|2904|dock3
  -GOLD-   2262023393D 1   1.00000     0.00000
 Structure written by MMmdl.
 43 45  0  0  0  0  0  0  0  0  1 V2000
  150.3394  135.1434  156.0847 O   0  0  0  0  0  0  0  0  0  0  0  0
  149.8781  135.5473  155.0195 C   0  0  0  0  0  0  0  0  0  0  0  0
  149.9179  136.8288  154.6046 N   0  0  0  0  0  0  0  0  0  0  0  0
  150.3822  137.9717  155.3090 C   0  0  0  0  0  0  0  0  0  0  0  0
  150.3574  139.2151  154.6485 C   0  0  0  0  0  0  0  0  0  0  0  0
  150.7892  140.3673  155.3327 C   0  0  0  0  0  0  0  0  0  0  0  0
  151.2310  140.2505  156.6719 C   0  0  0  0  0  0  0  0  0  0  0  0
  151.6673  141.3911  157.3812 N   0  0  0  0  0  0  0  0  0  0  0  0
  150.8250  142.5857  157.3444 C   0  0  0  0  0  0  0  0  0  0  0  0
  151.5859  143.7970  157.9092 C   0  0  0  0  0  0  0  0  0  0  0  0
  152.0586  143.4984  159.2182 O   0  0  0  0  0  0  0  0  0  0  0  0
  152.9654  142.4009  159.2153 C   0  0  0  0  0  0  0  0  0  0  0  0
  152.2567  141.1386  158.6939 C   0  0  0  0  0  0  0  0  0  0  0  0
  151.2354  139.0556  157.3124 N   0  0  0  0  0  0  0  0  0  0  0  0
  150.8237  137.9527  156.6528 C   0  0  0  0  0  0  0  0  0  0  0  0
  149.3185  134.6981  154.1393 N   0  0  0  0  0  0  0  0  0  0  0  0
  149.1194  133.2542  154.2727 C   0  0  2  0  0  0  0  0  0  0  0  0
  148.2765  132.7060  153.1062 C   0  0  0  0  0  0  0  0  0  0  0  0
  147.8000  131.2933  153.4650 C   0  0  0  0  0  0  0  0  0  0  0  0
  147.6046  131.2722  155.2873 S   0  0  0  0  0  0  0  0  0  0  0  0
  146.1779  131.3649  155.6318 O   0  0  0  0  0  0  0  0  0  0  0  0
  148.4512  130.2070  155.8451 O   0  0  0  0  0  0  0  0  0  0  0  0
  148.3976  132.8974  155.5823 C   0  0  0  0  0  0  0  0  0  0  0  0
  149.6042  136.9994  153.6606 H   0  0  0  0  0  0  0  0  0  0  0  0
  150.0106  139.2896  153.6280 H   0  0  0  0  0  0  0  0  0  0  0  0
  150.7590  141.3226  154.8306 H   0  0  0  0  0  0  0  0  0  0  0  0
  150.5160  142.8006  156.3206 H   0  0  0  0  0  0  0  0  0  0  0  0
  149.9209  142.4078  157.9282 H   0  0  0  0  0  0  0  0  0  0  0  0
  152.4211  144.0687  157.2613 H   0  0  0  0  0  0  0  0  0  0  0  0
  150.9269  144.6639  157.9589 H   0  0  0  0  0  0  0  0  0  0  0  0
  153.8375  142.6375  158.6036 H   0  0  0  0  0  0  0  0  0  0  0  0
  153.3252  142.2361  160.2310 H   0  0  0  0  0  0  0  0  0  0  0  0
  151.4646  140.8448  159.3837 H   0  0  0  0  0  0  0  0  0  0  0  0
  152.9722  140.3184  158.6664 H   0  0  0  0  0  0  0  0  0  0  0  0
  150.8329  137.0477  157.2397 H   0  0  0  0  0  0  0  0  0  0  0  0
  149.0434  135.0955  153.2526 H   0  0  0  0  0  0  0  0  0  0  0  0
  150.0809  132.7380  154.2474 H   0  0  0  0  0  0  0  0  0  0  0  0
  147.4014  133.3422  152.9652 H   0  0  0  0  0  0  0  0  0  0  0  0
  148.8296  132.7139  152.1665 H   0  0  0  0  0  0  0  0  0  0  0  0
  146.8613  131.0242  152.9806 H   0  0  0  0  0  0  0  0  0  0  0  0
  148.5540  130.5521  153.1997 H   0  0  0  0  0  0  0  0  0  0  0  0
  149.0663  132.8378  156.4410 H   0  0  0  0  0  0  0  0  0  0  0  0
  147.6081  133.6157  155.8062 H   0  0  0  0  0  0  0  0  0  0  0  0
  1  2  2  0  0  0  0
  2  3  1  0  0  0  0
  2 16  1  0  0  0  0
  3  4  1  0  0  0  0
  3 24  1  0  0  0  0
  4 15  1  0  0  0  0
  4  5  2  0  0  0  0
  5  6  1  0  0  0  0
  5 25  1  0  0  0  0
  6  7  2  0  0  0  0
  6 26  1  0  0  0  0
  7  8  1  0  0  0  0
  7 14  1  0  0  0  0
  8 13  1  0  0  0  0
  8  9  1  0  0  0  0
  9 10  1  0  0  0  0
  9 27  1  0  0  0  0
  9 28  1  0  0  0  0
 10 11  1  0  0  0  0
 10 29  1  0  0  0  0
 10 30  1  0  0  0  0
 11 12  1  0  0  0  0
 12 13  1  0  0  0  0
 12 31  1  0  0  0  0
 12 32  1  0  0  0  0
 13 33  1  0  0  0  0
 13 34  1  0  0  0  0
 14 15  2  0  0  0  0
 15 35  1  0  0  0  0
 16 17  1  0  0  0  0
 16 36  1  0  0  0  0
 17 23  1  0  0  0  0
 17 18  1  0  0  0  0
 17 37  1  0  0  0  0
 18 19  1  0  0  0  0
 18 38  1  0  0  0  0
 18 39  1  0  0  0  0
 19 20  1  0  0  0  0
 19 40  1  0  0  0  0
 19 41  1  0  0  0  0
 20 21  2  0  0  0  0
 20 22  2  0  0  0  0
 20 23  1  0  0  0  0
 23 42  1  0  0  0  0
 23 43  1  0  0  0  0
M  END
> <s_m_source_file>
AV-unprocessed.smi

> <i_m_source_file_index>
553

> <i_lp_mmshare_version>
43012

> <i_f3d_flags>
0

> <s_epik_input>
Tz1TMSg9TylbQ0gyXVtDSDJdW0NASF0oW0NIMl0xKVtOSF1DKD1PKVtOSF1jMltjSF1bY0hdYyhuW2NIXTIpTjNbQ0gyXVtDSDJdT1tDSDJdW0NIMl0z

> <s_epik_cmdline>
J2VwaWtfcHl0aG9uJywgJy1waCcsICc3LjAnLCAnLXRuJywgJzgnLCAnLW1hJywgJzIwMCcsICctbWV0YWxfYmluZGluZycsICctaW1hZScsICc8aW5maWxlLm1hZT4nLCAnLW9tYWUnLCAnPG91dGZpbGUubWFlPic=

> <r_lp_tautomer_probability>
1

> <r_epik_Ionization_Penalty>
0.00171806

> <r_epik_Ionization_Penalty_Charging>
0

> <r_epik_Ionization_Penalty_Neutral>
0.00171806

> <r_epik_State_Penalty>
0.00114322

> <r_epik_Charging_Adjusted_Penalty>
0.00114322

> <i_epik_Tot_Q>
0

> <i_epik_Tot_abs_Q>
0

> <r_epik_Metal_State_Penalty>
-0

> <b_epik_Metal_Only>
0

> <s_lp_Force_Field>
OPLS_2005

> <r_lp_Energy>
31.553

> <b_lp_Chiralities_Consistent>
1

> <s_lp_Variant>
AV-unprocessed.smi:553-1

> <Gold.Version>
5.8.1

> <Gold.Id.Protein>
6NUR|6NUR_protein|mol2

> <Gold.PLP.Fitness>
38.5846

> <Gold.PLP.PLP>
-32.7783

> <Gold.PLP.part.hbond>
-2.0000

> <Gold.PLP.part.metal>
0.0000

> <Gold.PLP.part.buried>
-2.7124

> <Gold.PLP.part.nonpolar>
-28.6096

> <Gold.PLP.part.repulsive>
0.2650

> <Gold.PLP.ligand.clash>
0.0000

> <Gold.PLP.ligand.torsion>
0.2351

> <Gold.PLP.Chemscore.Hbond>
1.9760

> <Gold.PLP.Chemscore.CHOScore>
0.0000

> <Gold.PLP.Chemscore.Metal>
0.0000

> <Gold.Chemscore.Hbonds>
donor molecule, donor type, donor heavy atom, donor atom, acceptor molecule, acceptor atom, score
      L1  H     3    24       P1  7948  0.95
      L1  H    16    36       P1  7948  1.00

> <Gold.PLP.Chemscore.Internal.Correction>
0.3486

> <Gold.Rescore>
     Score         DG    S(hbond)    S(metal)    S(lipo)     H(rot)  DE(clash)    DE(int)     intcor
     15.24     -16.67       1.46        0.00      81.75       1.27       0.00       1.43       ----

> <Gold.Chemscore.Fitness>
15.2372

> <Gold.Chemscore.DG>
-16.6703

> <Gold.Chemscore.ZeroCoef>
-5.4800

> <Gold.Chemscore.Hbond>
1.4603

> <Gold.Chemscore.Metal>
0.0000

> <Gold.Chemscore.Lipo>
81.7519

> <Gold.Chemscore.Internal_Hbond>
0.0000

> <Gold.Chemscore.DEClash>
0.0004

> <Gold.Chemscore.DEInternal>
1.4327

> <Gold.Chemscore.Rot>
1.2703

> <Gold.Chemscore.Internal.Correction>
   9.000000E+99

> <Gold.Chemscore.Hbonds>
donor molecule, donor type, donor heavy atom, donor atom, acceptor molecule, acceptor atom, score
      L1  H     3    24       P1  7948  0.71
      L1  H    16    36       P1  7948  0.25

> <Gold.Chemscore.Hbond.Weighted>
-4.8774

> <Gold.Chemscore.Metal.Weighted>
-0.0000

> <Gold.Chemscore.Lipo.Weighted>
-9.5650

> <Gold.Chemscore.Internal_Hbond.Weighted>
0.0000

> <Gold.Chemscore.DEClash.Weighted>
0.0004

> <Gold.Chemscore.DEInternal.Weighted>
1.4327

> <Gold.Chemscore.Rot.Weighted>
3.2520

> <Gold.Chemscore.Internal.Correction.Weighted>
   9.000000E+99

> <Gold.Protein.RotatedTorsions>
[ 6907 6896 6895 6894 ] final  150.13 input  -60.11 | X-H torsion
[ 7974 7965 7964 7962 ] final  -92.84 input  175.53 | X-H torsion
[ 8008 7997 7996 7995 ] final  116.34 input   59.86 | X-H torsion
[ 10167 10162 10161 10158 ] final    9.59 input  -65.29 | X-H torsion
[ 10718 10713 10712 10709 ] final -119.83 input   66.30 | X-H torsion
[ 10763 10752 10751 10750 ] final   89.95 input  -60.55 | X-H torsion
[ 11005 11000 10999 10996 ] final  179.82 input  -57.11 | X-H torsion

> <Gold.Protein.ActiveResidues>
 VAL166  LYS551  ARG553  GLY616  TRP617  ASP618  TYR619  PRO620  LYS621  CYS622 
 ASP623  PHE694  ASN695  SER759  ASP760  ASP761  ALA762  ILE779  LEU786  VAL792 
 PHE793  MET794  SER795  GLU796  ALA797  LYS798  CYS799  TRP800  GLU811  SER814 

> <Gold.Protein.RotatedAtoms>
  152.1186  133.4341  159.4664 H   0  0  0  0  0  0  0  0  0  0  0  0  # atno 6907 bound_to 6896
  150.6871  134.2562  159.4540 H   0  0  0  0  0  0  0  0  0  0  0  0  # atno 6908 bound_to 6896
  152.0436  134.9696  160.0625 H   0  0  0  0  0  0  0  0  0  0  0  0  # atno 6909 bound_to 6896
  145.3945  140.9531  143.2322 H   0  0  0  0  0  0  0  0  0  0  0  0  # atno 7974 bound_to 7965
  156.2433  140.2919  156.0508 H   0  0  0  0  0  0  0  0  0  0  0  0  # atno 8008 bound_to 7997
  155.1883  140.0406  157.2913 H   0  0  0  0  0  0  0  0  0  0  0  0  # atno 8009 bound_to 7997
  154.6212  140.2476  155.7554 H   0  0  0  0  0  0  0  0  0  0  0  0  # atno 8010 bound_to 7997
  140.6246  143.8129  150.7217 H   0  0  0  0  0  0  0  0  0  0  0  0  # atno 10167 bound_to 10162
  156.1211  130.6323  150.9465 H   0  0  0  0  0  0  0  0  0  0  0  0  # atno 10718 bound_to 10713
  153.1924  135.4452  155.0166 H   0  0  0  0  0  0  0  0  0  0  0  0  # atno 10763 bound_to 10752
  154.8098  135.3289  154.7337 H   0  0  0  0  0  0  0  0  0  0  0  0  # atno 10764 bound_to 10752
  153.7790  135.6979  153.4947 H   0  0  0  0  0  0  0  0  0  0  0  0  # atno 10765 bound_to 10752
  140.4104  134.6697  157.4611 H   0  0  0  0  0  0  0  0  0  0  0  0  # atno 11005 bound_to 11000
  144.8417  139.5462  143.6897 LP  0  0  0  0  0  0  0  0  0  0  0  0  # atno 17320 bound_to 7965
  146.2781  139.6806  142.9248 LP  0  0  0  0  0  0  0  0  0  0  0  0  # atno 17321 bound_to 7965
  140.1727  143.4181  152.1989 LP  0  0  0  0  0  0  0  0  0  0  0  0  # atno 17342 bound_to 10162
  139.5468  144.7305  151.4557 LP  0  0  0  0  0  0  0  0  0  0  0  0  # atno 17343 bound_to 10162
  157.6394  131.0912  150.8282 LP  0  0  0  0  0  0  0  0  0  0  0  0  # atno 17370 bound_to 10713
  156.8379  130.5038  149.5324 LP  0  0  0  0  0  0  0  0  0  0  0  0  # atno 17371 bound_to 10713
  140.0272  134.6460  155.9157 LP  0  0  0  0  0  0  0  0  0  0  0  0  # atno 17394 bound_to 11000
  141.1823  133.6549  156.5072 LP  0  0  0  0  0  0  0  0  0  0  0  0  # atno 17395 bound_to 11000

$$$$
