AV-unprocessed.smi:2158|AV-procd|sdf|8788|dock1
  -GOLD-   2272011563D 1   1.00000     0.00000
 Structure written by MMmdl.
 31 31  0  0  0  0  0  0  0  0  1 V2000
  151.8329  144.3635  160.8991 C   0  0  0  0  0  0  0  0  0  0  0  0
  151.0051  143.7731  159.7482 C   0  0  0  0  0  0  0  0  0  0  0  0
  151.2556  144.4455  158.3833 C   0  0  1  0  0  0  0  0  0  0  0  0
  152.7551  144.6275  158.1103 C   0  0  0  0  0  0  0  0  0  0  0  0
  150.6655  143.6621  157.2986 N   0  0  0  0  0  0  0  0  0  0  0  0
  150.9082  142.3673  157.0387 C   0  0  0  0  0  0  0  0  0  0  0  0
  151.6957  141.6817  157.6926 O   0  0  0  0  0  0  0  0  0  0  0  0
  150.1590  141.7731  155.8372 C   0  0  0  0  0  0  0  0  0  0  0  0
  150.4655  140.3535  155.6075 N   0  0  0  0  0  0  0  0  0  0  0  0
  151.7825  139.9313  155.4932 C   0  0  0  0  0  0  0  0  0  0  0  0
  152.1368  138.6402  155.2904 C   0  0  0  0  0  0  0  0  0  0  0  0
  151.1167  137.6029  155.1803 C   0  0  0  0  0  0  0  0  0  0  0  0
  151.3371  136.4085  154.9935 O   0  0  0  0  0  0  0  0  0  0  0  0
  149.8044  138.0665  155.3052 N   0  0  0  0  0  0  0  0  0  0  0  0
  149.4325  139.3953  155.5160 C   0  0  0  0  0  0  0  0  0  0  0  0
  148.2436  139.6962  155.6161 O   0  0  0  0  0  0  0  0  0  0  0  0
  149.0632  137.3839  155.2408 H   0  0  0  0  0  0  0  0  0  0  0  0
  151.6657  143.8065  161.8209 H   0  0  0  0  0  0  0  0  0  0  0  0
  151.5676  145.4029  161.0927 H   0  0  0  0  0  0  0  0  0  0  0  0
  152.8996  144.3254  160.6764 H   0  0  0  0  0  0  0  0  0  0  0  0
  151.2380  142.7109  159.6677 H   0  0  0  0  0  0  0  0  0  0  0  0
  149.9455  143.8308  160.0004 H   0  0  0  0  0  0  0  0  0  0  0  0
  150.8113  145.4421  158.4084 H   0  0  0  0  0  0  0  0  0  0  0  0
  153.2237  145.2366  158.8840 H   0  0  0  0  0  0  0  0  0  0  0  0
  152.9225  145.1258  157.1548 H   0  0  0  0  0  0  0  0  0  0  0  0
  153.2743  143.6690  158.0821 H   0  0  0  0  0  0  0  0  0  0  0  0
  150.0112  144.1448  156.6998 H   0  0  0  0  0  0  0  0  0  0  0  0
  149.0837  141.9077  155.9720 H   0  0  0  0  0  0  0  0  0  0  0  0
  150.4139  142.3610  154.9542 H   0  0  0  0  0  0  0  0  0  0  0  0
  152.5723  140.6649  155.5729 H   0  0  0  0  0  0  0  0  0  0  0  0
  153.1806  138.3733  155.2099 H   0  0  0  0  0  0  0  0  0  0  0  0
  1  2  1  0  0  0  0
  1 18  1  0  0  0  0
  1 19  1  0  0  0  0
  1 20  1  0  0  0  0
  2  3  1  0  0  0  0
  2 21  1  0  0  0  0
  2 22  1  0  0  0  0
  3  4  1  0  0  0  0
  3  5  1  0  0  0  0
  3 23  1  0  0  0  0
  4 24  1  0  0  0  0
  4 25  1  0  0  0  0
  4 26  1  0  0  0  0
  5  6  1  0  0  0  0
  5 27  1  0  0  0  0
  6  7  2  0  0  0  0
  6  8  1  0  0  0  0
  8  9  1  0  0  0  0
  8 28  1  0  0  0  0
  8 29  1  0  0  0  0
  9 15  1  0  0  0  0
  9 10  1  0  0  0  0
 10 11  2  0  0  0  0
 10 30  1  0  0  0  0
 11 12  1  0  0  0  0
 11 31  1  0  0  0  0
 12 13  2  0  0  0  0
 12 14  1  0  0  0  0
 14 17  1  0  0  0  0
 14 15  1  0  0  0  0
 15 16  2  0  0  0  0
M  END
> <s_m_source_file>
AV-unprocessed.smi

> <i_m_source_file_index>
2158

> <i_lp_mmshare_version>
43012

> <i_f3d_flags>
0

> <s_epik_input>
W0NIM11bQ0gyXVtDQEhdKFtDSDNdKVtOSF1DKD1PKVtDSDJdbjFbY0hdW2NIXWMoPU8pW25IXWMxPU8=

> <s_epik_cmdline>
J2VwaWtfcHl0aG9uJywgJy1waCcsICc3LjAnLCAnLXRuJywgJzgnLCAnLW1hJywgJzIwMCcsICctbWV0YWxfYmluZGluZycsICctaW1hZScsICc8aW5maWxlLm1hZT4nLCAnLW9tYWUnLCAnPG91dGZpbGUubWFlPic=

> <r_lp_tautomer_probability>
0.999537

> <r_epik_Ionization_Penalty>
0.00326083

> <r_epik_Ionization_Penalty_Charging>
0.00326081

> <r_epik_Ionization_Penalty_Neutral>
1.93017e-08

> <r_epik_State_Penalty>
0.00230249

> <r_epik_Charging_Adjusted_Penalty>
0.0055633

> <i_epik_Tot_Q>
0

> <i_epik_Tot_abs_Q>
0

> <r_epik_Metal_State_Penalty>
0.364899

> <b_epik_Metal_Only>
0

> <s_lp_Force_Field>
OPLS_2005

> <r_lp_Energy>
2.92089

> <b_lp_Chiralities_Consistent>
1

> <s_lp_Variant>
AV-unprocessed.smi:2158-2

> <Gold.Version>
5.8.1

> <Gold.Id.Protein>
6NUR|6NUR_protein|mol2

> <Gold.PLP.Fitness>
39.7040

> <Gold.PLP.PLP>
-33.9995

> <Gold.PLP.part.hbond>
-2.0000

> <Gold.PLP.part.metal>
0.0000

> <Gold.PLP.part.buried>
-2.8933

> <Gold.PLP.part.nonpolar>
-29.3461

> <Gold.PLP.part.repulsive>
0.1713

> <Gold.PLP.ligand.clash>
0.0000

> <Gold.PLP.ligand.torsion>
0.1718

> <Gold.PLP.Chemscore.Hbond>
2.0000

> <Gold.PLP.Chemscore.CHOScore>
0.0000

> <Gold.PLP.Chemscore.Metal>
0.0000

> <Gold.Chemscore.Hbonds>
donor molecule, donor type, donor heavy atom, donor atom, acceptor molecule, acceptor atom, score
      L1  H     5    27       P1  8028  1.00
      P1  H 10752 10765       L1    13  1.00

> <Gold.PLP.Chemscore.Internal.Correction>
0.0479

> <Gold.Rescore>
     Score         DG    S(hbond)    S(metal)    S(lipo)     H(rot)  DE(clash)    DE(int)     intcor
     13.24     -15.44       1.99        0.00      71.81       1.99       0.01       2.19       ----

> <Gold.Chemscore.Fitness>
13.2387

> <Gold.Chemscore.DG>
-15.4376

> <Gold.Chemscore.ZeroCoef>
-5.4800

> <Gold.Chemscore.Hbond>
1.9914

> <Gold.Chemscore.Metal>
0.0000

> <Gold.Chemscore.Lipo>
71.8090

> <Gold.Chemscore.Internal_Hbond>
0.0000

> <Gold.Chemscore.DEClash>
0.0102

> <Gold.Chemscore.DEInternal>
2.1886

> <Gold.Chemscore.Rot>
1.9904

> <Gold.Chemscore.Internal.Correction>
   9.000000E+99

> <Gold.Chemscore.Hbonds>
donor molecule, donor type, donor heavy atom, donor atom, acceptor molecule, acceptor atom, score
      L1  H     5    27       P1  8028  0.98
      P1  H 10752 10765       L1    13  1.00

> <Gold.Chemscore.Hbond.Weighted>
-6.6514

> <Gold.Chemscore.Metal.Weighted>
-0.0000

> <Gold.Chemscore.Lipo.Weighted>
-8.4017

> <Gold.Chemscore.Internal_Hbond.Weighted>
0.0000

> <Gold.Chemscore.DEClash.Weighted>
0.0102

> <Gold.Chemscore.DEInternal.Weighted>
2.1886

> <Gold.Chemscore.Rot.Weighted>
5.0955

> <Gold.Chemscore.Internal.Correction.Weighted>
   9.000000E+99

> <Gold.Protein.RotatedTorsions>
[ 6907 6896 6895 6894 ] final   23.96 input  -60.11 | X-H torsion
[ 7974 7965 7964 7962 ] final   49.46 input  175.53 | X-H torsion
[ 8008 7997 7996 7995 ] final   20.69 input   59.86 | X-H torsion
[ 10167 10162 10161 10158 ] final  170.21 input  -65.29 | X-H torsion
[ 10718 10713 10712 10709 ] final  -60.22 input   66.30 | X-H torsion
[ 10763 10752 10751 10750 ] final  178.69 input  -60.55 | X-H torsion
[ 11005 11000 10999 10996 ] final -132.96 input  -57.11 | X-H torsion

> <Gold.Protein.ActiveResidues>
 VAL166  LYS551  ARG553  GLY616  TRP617  ASP618  TYR619  PRO620  LYS621  CYS622 
 ASP623  PHE694  ASN695  SER759  ASP760  ASP761  ALA762  ILE779  LEU786  VAL792 
 PHE793  MET794  SER795  GLU796  ALA797  LYS798  CYS799  TRP800  GLU811  SER814 

> <Gold.Protein.RotatedAtoms>
  151.9503  135.0172  160.0541 H   0  0  0  0  0  0  0  0  0  0  0  0  # atno 6907 bound_to 6896
  152.1959  133.4802  159.5041 H   0  0  0  0  0  0  0  0  0  0  0  0  # atno 6908 bound_to 6896
  150.6944  134.1570  159.4204 H   0  0  0  0  0  0  0  0  0  0  0  0  # atno 6909 bound_to 6896
  146.0106  139.4539  142.9958 H   0  0  0  0  0  0  0  0  0  0  0  0  # atno 7974 bound_to 7965
  154.9394  140.3051  155.5128 H   0  0  0  0  0  0  0  0  0  0  0  0  # atno 8008 bound_to 7997
  156.2997  140.2339  156.4399 H   0  0  0  0  0  0  0  0  0  0  0  0  # atno 8009 bound_to 7997
  154.8160  140.0426  157.1365 H   0  0  0  0  0  0  0  0  0  0  0  0  # atno 8010 bound_to 7997
  139.5012  144.3622  151.9813 H   0  0  0  0  0  0  0  0  0  0  0  0  # atno 10167 bound_to 10162
  156.1006  130.4187  150.0823 H   0  0  0  0  0  0  0  0  0  0  0  0  # atno 10718 bound_to 10713
  154.5109  135.2788  155.1343 H   0  0  0  0  0  0  0  0  0  0  0  0  # atno 10763 bound_to 10752
  154.2939  135.6261  153.5400 H   0  0  0  0  0  0  0  0  0  0  0  0  # atno 10764 bound_to 10752
  152.9918  135.5680  154.5574 H   0  0  0  0  0  0  0  0  0  0  0  0  # atno 10765 bound_to 10752
  140.9123  134.1552  157.4379 H   0  0  0  0  0  0  0  0  0  0  0  0  # atno 11005 bound_to 11000
  145.7347  141.0030  143.1333 LP  0  0  0  0  0  0  0  0  0  0  0  0  # atno 17320 bound_to 7965
  144.6952  139.9027  143.7459 LP  0  0  0  0  0  0  0  0  0  0  0  0  # atno 17321 bound_to 7965
  140.3058  144.3594  150.6047 LP  0  0  0  0  0  0  0  0  0  0  0  0  # atno 17342 bound_to 10162
  140.5838  143.2171  151.7380 LP  0  0  0  0  0  0  0  0  0  0  0  0  # atno 17343 bound_to 10162
  156.8812  130.9557  151.3599 LP  0  0  0  0  0  0  0  0  0  0  0  0  # atno 17370 bound_to 10713
  157.6175  130.8630  149.9053 LP  0  0  0  0  0  0  0  0  0  0  0  0  # atno 17371 bound_to 10713
  139.8760  134.9940  156.5674 LP  0  0  0  0  0  0  0  0  0  0  0  0  # atno 17394 bound_to 11000
  140.8094  133.8441  155.8796 LP  0  0  0  0  0  0  0  0  0  0  0  0  # atno 17395 bound_to 11000

$$$$
