AV-unprocessed.smi:1602|AV-procd|sdf|6442|dock8
  -GOLD-   22720 7 93D 1   1.00000     0.00000
 Structure written by MMmdl.
 35 36  0  0  0  0  0  0  0  0  2 V2000
  152.9675  142.9410  162.2417 C   0  0  0  0  0  0  0  0  0  0  0  0
  153.1836  141.9659  161.0717 C   0  0  1  0  0  0  0  0  0  0  0  0
  153.4324  142.6712  159.7110 C   0  0  0  0  0  0  0  0  0  0  0  0
  152.4623  143.7020  159.3463 N   0  0  0  0  0  0  0  0  0  0  0  0
  152.5317  145.0661  159.5583 C   0  0  0  0  0  0  0  0  0  0  0  0
  151.3803  145.6177  159.0742 C   0  0  0  0  0  0  0  0  0  0  0  0
  150.6473  144.4979  158.5921 C   0  0  0  0  0  0  0  0  0  0  0  0
  151.2895  143.3551  158.7655 N   0  0  0  0  0  0  0  0  0  0  0  0
  154.2950  141.0768  161.3792 N   0  5  0  0  0  0  0  0  0  0  0  0
  154.6720  139.8748  160.3577 S   0  0  0  0  0  0  0  0  0  0  0  0
  153.8698  139.8637  159.1234 O   0  0  0  0  0  0  0  0  0  0  0  0
  156.1247  139.6720  160.2329 O   0  0  0  0  0  0  0  0  0  0  0  0
  154.0721  138.5608  161.3229 N   0  0  0  0  0  0  0  0  0  0  0  0
  154.6135  138.4437  162.6879 C   0  0  0  0  0  0  0  0  0  0  0  0
  153.8451  137.3941  163.5071 C   0  0  0  0  0  0  0  0  0  0  0  0
  153.8293  136.1523  162.8212 O   0  0  0  0  0  0  0  0  0  0  0  0
  153.1538  136.2616  161.5780 C   0  0  0  0  0  0  0  0  0  0  0  0
  153.8877  137.2526  160.6609 C   0  0  0  0  0  0  0  0  0  0  0  0
  152.1732  143.6515  162.0136 H   0  0  0  0  0  0  0  0  0  0  0  0
  153.8700  143.5099  162.4677 H   0  0  0  0  0  0  0  0  0  0  0  0
  152.6787  142.4115  163.1497 H   0  0  0  0  0  0  0  0  0  0  0  0
  152.2615  141.3952  160.9532 H   0  0  0  0  0  0  0  0  0  0  0  0
  154.4340  143.1044  159.6875 H   0  0  0  0  0  0  0  0  0  0  0  0
  153.4183  141.9218  158.9189 H   0  0  0  0  0  0  0  0  0  0  0  0
  153.3900  145.5246  160.0266 H   0  0  0  0  0  0  0  0  0  0  0  0
  151.1027  146.6611  159.0686 H   0  0  0  0  0  0  0  0  0  0  0  0
  149.6714  144.4808  158.1297 H   0  0  0  0  0  0  0  0  0  0  0  0
  155.6682  138.1734  162.6253 H   0  0  0  0  0  0  0  0  0  0  0  0
  154.5588  139.4079  163.1929 H   0  0  0  0  0  0  0  0  0  0  0  0
  154.3235  137.2553  164.4767 H   0  0  0  0  0  0  0  0  0  0  0  0
  152.8249  137.7277  163.7033 H   0  0  0  0  0  0  0  0  0  0  0  0
  153.1176  135.2782  161.1089 H   0  0  0  0  0  0  0  0  0  0  0  0
  152.1202  136.5738  161.7365 H   0  0  0  0  0  0  0  0  0  0  0  0
  153.3266  137.3681  159.7341 H   0  0  0  0  0  0  0  0  0  0  0  0
  154.8667  136.8549  160.3905 H   0  0  0  0  0  0  0  0  0  0  0  0
  1  2  1  0  0  0  0
  1 19  1  0  0  0  0
  1 20  1  0  0  0  0
  1 21  1  0  0  0  0
  2  3  1  0  0  0  0
  2  9  1  0  0  0  0
  2 22  1  0  0  0  0
  3  4  1  0  0  0  0
  3 23  1  0  0  0  0
  3 24  1  0  0  0  0
  4  8  1  0  0  0  0
  4  5  1  0  0  0  0
  5  6  2  0  0  0  0
  5 25  1  0  0  0  0
  6  7  1  0  0  0  0
  6 26  1  0  0  0  0
  7  8  2  0  0  0  0
  7 27  1  0  0  0  0
  9 10  1  0  0  0  0
 10 11  2  0  0  0  0
 10 12  2  0  0  0  0
 10 13  1  0  0  0  0
 13 18  1  0  0  0  0
 13 14  1  0  0  0  0
 14 15  1  0  0  0  0
 14 28  1  0  0  0  0
 14 29  1  0  0  0  0
 15 16  1  0  0  0  0
 15 30  1  0  0  0  0
 15 31  1  0  0  0  0
 16 17  1  0  0  0  0
 17 18  1  0  0  0  0
 17 32  1  0  0  0  0
 17 33  1  0  0  0  0
 18 34  1  0  0  0  0
 18 35  1  0  0  0  0
M  CHG  1   9  -1
M  END
> <s_m_source_file>
AV-unprocessed.smi

> <i_m_source_file_index>
1602

> <i_lp_mmshare_version>
43012

> <i_f3d_flags>
0

> <s_epik_input>
bjFbY0hdW2NIXVtjSF1uMVtDSDJdW0NAQEhdKFtDSDNdKVtOSF1TKD1PKSg9TylOMltDSDJdW0NIMl1PW0NIMl1bQ0gyXTI=

> <s_epik_cmdline>
J2VwaWtfcHl0aG9uJywgJy1waCcsICc3LjAnLCAnLXRuJywgJzgnLCAnLW1hJywgJzIwMCcsICctbWV0YWxfYmluZGluZycsICctaW1hZScsICc8aW5maWxlLm1hZT4nLCAnLW9tYWUnLCAnPG91dGZpbGUubWFlPic=

> <r_lp_tautomer_probability>
1

> <r_epik_Ionization_Penalty>
1.03144

> <r_epik_Ionization_Penalty_Charging>
1.03142

> <r_epik_Ionization_Penalty_Neutral>
2.21579e-05

> <r_epik_State_Penalty>
1.0826

> <r_epik_Charging_Adjusted_Penalty>
2.11402

> <i_epik_Tot_Q>
-1

> <i_epik_Tot_abs_Q>
1

> <r_epik_Metal_State_Penalty>
0.386234

> <b_epik_Metal_Only>
0

> <s_lp_Force_Field>
OPLS_2005

> <r_lp_Energy>
7.84511

> <b_lp_Chiralities_Consistent>
1

> <s_lp_Variant>
AV-unprocessed.smi:1602-4

> <Gold.Version>
5.8.1

> <Gold.Id.Protein>
6NUR|6NUR_protein|mol2

> <Gold.PLP.Fitness>
45.2102

> <Gold.PLP.PLP>
-39.7868

> <Gold.PLP.part.hbond>
-2.6272

> <Gold.PLP.part.metal>
0.0000

> <Gold.PLP.part.buried>
-4.0647

> <Gold.PLP.part.nonpolar>
-31.8213

> <Gold.PLP.part.repulsive>
0.0573

> <Gold.PLP.ligand.clash>
0.0000

> <Gold.PLP.ligand.torsion>
1.1946

> <Gold.PLP.Chemscore.Hbond>
0.9920

> <Gold.PLP.Chemscore.CHOScore>
1.1062

> <Gold.PLP.Chemscore.Metal>
0.0000

> <Gold.Chemscore.Hbonds>
donor molecule, donor type, donor heavy atom, donor atom, acceptor molecule, acceptor atom, score
      P1  H  7997  8008       L1    11  0.67
      L1  C     7    27       P1  8028  0.42
      L1  C     7    27       P1  8029  0.73

> <Gold.PLP.Chemscore.Internal.Correction>
1.5178

> <Gold.Rescore>
     Score         DG    S(hbond)    S(metal)    S(lipo)     H(rot)  DE(clash)    DE(int)     intcor
     13.34     -15.56       0.97        0.00      95.10       1.67       0.21       2.02       ----

> <Gold.Chemscore.Fitness>
13.3438

> <Gold.Chemscore.DG>
-15.5646

> <Gold.Chemscore.ZeroCoef>
-5.4800

> <Gold.Chemscore.Hbond>
0.9673

> <Gold.Chemscore.Metal>
0.0000

> <Gold.Chemscore.Lipo>
95.0951

> <Gold.Chemscore.Internal_Hbond>
0.0000

> <Gold.Chemscore.DEClash>
0.2050

> <Gold.Chemscore.DEInternal>
2.0158

> <Gold.Chemscore.Rot>
1.6688

> <Gold.Chemscore.Internal.Correction>
   9.000000E+99

> <Gold.Chemscore.Hbonds>
donor molecule, donor type, donor heavy atom, donor atom, acceptor molecule, acceptor atom, score
      P1  H  7997  8008       L1    11  0.54

> <Gold.Chemscore.Hbond.Weighted>
-3.2307

> <Gold.Chemscore.Metal.Weighted>
-0.0000

> <Gold.Chemscore.Lipo.Weighted>
-11.1261

> <Gold.Chemscore.Internal_Hbond.Weighted>
0.0000

> <Gold.Chemscore.DEClash.Weighted>
0.2050

> <Gold.Chemscore.DEInternal.Weighted>
2.0158

> <Gold.Chemscore.Rot.Weighted>
4.2722

> <Gold.Chemscore.Internal.Correction.Weighted>
   9.000000E+99

> <Gold.Protein.RotatedTorsions>
[ 6907 6896 6895 6894 ] final    8.55 input  -60.11 | X-H torsion
[ 7974 7965 7964 7962 ] final -100.73 input  175.53 | X-H torsion
[ 8008 7997 7996 7995 ] final -118.42 input   59.86 | X-H torsion
[ 10167 10162 10161 10158 ] final  -37.62 input  -65.29 | X-H torsion
[ 10718 10713 10712 10709 ] final   17.79 input   66.30 | X-H torsion
[ 10763 10752 10751 10750 ] final -111.49 input  -60.55 | X-H torsion
[ 11005 11000 10999 10996 ] final  -89.76 input  -57.11 | X-H torsion

> <Gold.Protein.ActiveResidues>
 VAL166  LYS551  ARG553  GLY616  TRP617  ASP618  TYR619  PRO620  LYS621  CYS622 
 ASP623  PHE694  ASN695  SER759  ASP760  ASP761  ALA762  ILE779  LEU786  VAL792 
 PHE793  MET794  SER795  GLU796  ALA797  LYS798  CYS799  TRP800  GLU811  SER814 

> <Gold.Protein.RotatedAtoms>
  151.7079  135.0918  160.0262 H   0  0  0  0  0  0  0  0  0  0  0  0  # atno 6907 bound_to 6896
  152.3680  133.6377  159.6073 H   0  0  0  0  0  0  0  0  0  0  0  0  # atno 6908 bound_to 6896
  150.7652  133.9233  159.3446 H   0  0  0  0  0  0  0  0  0  0  0  0  # atno 6909 bound_to 6896
  145.2908  140.9352  143.2879 H   0  0  0  0  0  0  0  0  0  0  0  0  # atno 7974 bound_to 7965
  155.0993  140.0396  157.2692 H   0  0  0  0  0  0  0  0  0  0  0  0  # atno 8008 bound_to 7997
  154.6770  140.2625  155.6922 H   0  0  0  0  0  0  0  0  0  0  0  0  # atno 8009 bound_to 7997
  156.2680  140.2786  156.1300 H   0  0  0  0  0  0  0  0  0  0  0  0  # atno 8010 bound_to 7997
  140.7113  143.3330  151.2526 H   0  0  0  0  0  0  0  0  0  0  0  0  # atno 10167 bound_to 10162
  157.0871  130.6412  149.5840 H   0  0  0  0  0  0  0  0  0  0  0  0  # atno 10718 bound_to 10713
  154.8303  135.4525  154.1048 H   0  0  0  0  0  0  0  0  0  0  0  0  # atno 10763 bound_to 10752
  153.2327  135.6907  153.7878 H   0  0  0  0  0  0  0  0  0  0  0  0  # atno 10764 bound_to 10752
  153.7255  135.3335  155.3251 H   0  0  0  0  0  0  0  0  0  0  0  0  # atno 10765 bound_to 10752
  141.1578  133.7650  156.9641 H   0  0  0  0  0  0  0  0  0  0  0  0  # atno 11005 bound_to 11000
  144.9174  139.4453  143.6557 LP  0  0  0  0  0  0  0  0  0  0  0  0  # atno 17320 bound_to 7965
  146.3185  139.8016  142.8964 LP  0  0  0  0  0  0  0  0  0  0  0  0  # atno 17321 bound_to 7965
  139.6817  143.9842  152.2812 LP  0  0  0  0  0  0  0  0  0  0  0  0  # atno 17342 bound_to 10162
  139.9474  144.6642  150.8205 LP  0  0  0  0  0  0  0  0  0  0  0  0  # atno 17343 bound_to 10162
  155.9908  130.4960  150.7272 LP  0  0  0  0  0  0  0  0  0  0  0  0  # atno 17370 bound_to 10713
  157.4752  131.0897  151.0598 LP  0  0  0  0  0  0  0  0  0  0  0  0  # atno 17371 bound_to 10713
  140.1173  134.9439  157.2152 LP  0  0  0  0  0  0  0  0  0  0  0  0  # atno 17394 bound_to 11000
  140.3117  134.3016  155.7265 LP  0  0  0  0  0  0  0  0  0  0  0  0  # atno 17395 bound_to 11000

$$$$
