AV-unprocessed.smi:2153|AV-procd|sdf|8766|dock7
  -GOLD-   2272011543D 1   1.00000     0.00000
 Structure written by MMmdl.
 48 49  0  0  0  0  0  0  0  0  1 V2000
  152.9142  142.2580  162.3187 C   0  0  0  0  0  0  0  0  0  0  0  0
  152.8108  143.1763  161.0900 C   0  0  2  0  0  0  0  0  0  0  0  0
  152.0498  144.4706  161.4424 C   0  0  0  0  0  0  0  0  0  0  0  0
  151.9245  145.4063  160.2308 C   0  0  0  0  0  0  0  0  0  0  0  0
  151.2526  144.6910  159.0510 C   0  0  0  0  0  0  0  0  0  0  0  0
  152.0093  143.4068  158.6829 C   0  0  0  0  0  0  0  0  0  0  0  0
  152.1446  142.4588  159.8937 C   0  0  1  0  0  0  0  0  0  0  0  0
  152.9635  141.3528  159.5348 O   0  0  0  0  0  0  0  0  0  0  0  0
  152.2550  140.2492  158.9889 C   0  0  0  0  0  0  0  0  0  0  0  0
  153.2628  139.2057  158.4960 C   0  0  0  0  0  0  0  0  0  0  0  0
  154.0704  138.7100  159.6019 N   0  0  0  0  0  0  0  0  0  0  0  0
  154.0590  137.4444  160.0416 C   0  0  0  0  0  0  0  0  0  0  0  0
  153.3526  136.5664  159.5439 O   0  0  0  0  0  0  0  0  0  0  0  0
  154.9781  137.1422  161.2338 C   0  0  0  0  0  0  0  0  0  0  0  0
  155.0847  135.7095  161.5414 N   0  0  0  0  0  0  0  0  0  0  0  0
  155.5108  134.8324  160.5604 C   0  0  0  0  0  0  0  0  0  0  0  0
  155.6463  133.5029  160.7567 C   0  0  0  0  0  0  0  0  0  0  0  0
  155.3428  132.9053  162.0506 C   0  0  0  0  0  0  0  0  0  0  0  0
  155.4411  131.6989  162.2801 O   0  0  0  0  0  0  0  0  0  0  0  0
  154.9164  133.8226  163.0381 N   0  0  0  0  0  0  0  0  0  0  0  0
  154.6013  133.2674  164.3381 C   0  0  0  0  0  0  0  0  0  0  0  0
  154.7717  135.2140  162.8264 C   0  0  0  0  0  0  0  0  0  0  0  0
  154.3890  135.9819  163.7121 O   0  0  0  0  0  0  0  0  0  0  0  0
  151.9291  141.9314  162.6532 H   0  0  0  0  0  0  0  0  0  0  0  0
  153.3953  142.7709  163.1519 H   0  0  0  0  0  0  0  0  0  0  0  0
  153.5035  141.3669  162.1013 H   0  0  0  0  0  0  0  0  0  0  0  0
  153.8246  143.4537  160.7973 H   0  0  0  0  0  0  0  0  0  0  0  0
  151.0537  144.2236  161.8124 H   0  0  0  0  0  0  0  0  0  0  0  0
  152.5577  144.9934  162.2535 H   0  0  0  0  0  0  0  0  0  0  0  0
  151.3518  146.2935  160.5028 H   0  0  0  0  0  0  0  0  0  0  0  0
  152.9141  145.7557  159.9335 H   0  0  0  0  0  0  0  0  0  0  0  0
  150.2211  144.4477  159.3085 H   0  0  0  0  0  0  0  0  0  0  0  0
  151.2085  145.3570  158.1888 H   0  0  0  0  0  0  0  0  0  0  0  0
  151.4934  142.9105  157.8615 H   0  0  0  0  0  0  0  0  0  0  0  0
  153.0013  143.6659  158.3105 H   0  0  0  0  0  0  0  0  0  0  0  0
  151.1558  142.1145  160.2045 H   0  0  0  0  0  0  0  0  0  0  0  0
  151.6212  139.8083  159.7595 H   0  0  0  0  0  0  0  0  0  0  0  0
  151.6050  140.5591  158.1703 H   0  0  0  0  0  0  0  0  0  0  0  0
  152.7416  138.3774  158.0136 H   0  0  0  0  0  0  0  0  0  0  0  0
  153.9193  139.6534  157.7484 H   0  0  0  0  0  0  0  0  0  0  0  0
  154.6703  139.3757  160.0672 H   0  0  0  0  0  0  0  0  0  0  0  0
  155.9668  137.5638  161.0442 H   0  0  0  0  0  0  0  0  0  0  0  0
  154.5946  137.6768  162.1040 H   0  0  0  0  0  0  0  0  0  0  0  0
  155.7513  135.2294  159.5848 H   0  0  0  0  0  0  0  0  0  0  0  0
  155.9839  132.8737  159.9462 H   0  0  0  0  0  0  0  0  0  0  0  0
  154.3846  134.0508  165.0634 H   0  0  0  0  0  0  0  0  0  0  0  0
  155.4716  132.6997  164.6721 H   0  0  0  0  0  0  0  0  0  0  0  0
  153.7313  132.6216  164.2076 H   0  0  0  0  0  0  0  0  0  0  0  0
  1  2  1  0  0  0  0
  1 24  1  0  0  0  0
  1 25  1  0  0  0  0
  1 26  1  0  0  0  0
  2  7  1  0  0  0  0
  2  3  1  0  0  0  0
  2 27  1  0  0  0  0
  3  4  1  0  0  0  0
  3 28  1  0  0  0  0
  3 29  1  0  0  0  0
  4  5  1  0  0  0  0
  4 30  1  0  0  0  0
  4 31  1  0  0  0  0
  5  6  1  0  0  0  0
  5 32  1  0  0  0  0
  5 33  1  0  0  0  0
  6  7  1  0  0  0  0
  6 34  1  0  0  0  0
  6 35  1  0  0  0  0
  7  8  1  0  0  0  0
  7 36  1  0  0  0  0
  8  9  1  0  0  0  0
  9 10  1  0  0  0  0
  9 37  1  0  0  0  0
  9 38  1  0  0  0  0
 10 11  1  0  0  0  0
 10 39  1  0  0  0  0
 10 40  1  0  0  0  0
 11 12  1  0  0  0  0
 11 41  1  0  0  0  0
 12 13  2  0  0  0  0
 12 14  1  0  0  0  0
 14 15  1  0  0  0  0
 14 42  1  0  0  0  0
 14 43  1  0  0  0  0
 15 22  1  0  0  0  0
 15 16  1  0  0  0  0
 16 17  2  0  0  0  0
 16 44  1  0  0  0  0
 17 18  1  0  0  0  0
 17 45  1  0  0  0  0
 18 19  2  0  0  0  0
 18 20  1  0  0  0  0
 20 21  1  0  0  0  0
 20 22  1  0  0  0  0
 21 46  1  0  0  0  0
 21 47  1  0  0  0  0
 21 48  1  0  0  0  0
 22 23  2  0  0  0  0
M  END
> <s_m_source_file>
AV-unprocessed.smi

> <i_m_source_file_index>
2153

> <i_lp_mmshare_version>
43012

> <i_f3d_flags>
0

> <s_epik_input>
W0NIM11bQ0BASF0xW0NIMl1bQ0gyXVtDSDJdW0NIMl1bQ0BIXTFPW0NIMl1bQ0gyXVtOSF1DKD1PKVtDSDJdbjJbY0hdW2NIXWMoPU8pbihbQ0gzXSljMj1P

> <s_epik_cmdline>
J2VwaWtfcHl0aG9uJywgJy1waCcsICc3LjAnLCAnLXRuJywgJzgnLCAnLW1hJywgJzIwMCcsICctbWV0YWxfYmluZGluZycsICctaW1hZScsICc8aW5maWxlLm1hZT4nLCAnLW9tYWUnLCAnPG91dGZpbGUubWFlPic=

> <r_lp_tautomer_probability>
1

> <r_epik_Ionization_Penalty>
4.02205e-08

> <r_epik_Ionization_Penalty_Charging>
1.23606e-08

> <r_epik_Ionization_Penalty_Neutral>
2.78599e-08

> <r_epik_State_Penalty>
-0

> <r_epik_Charging_Adjusted_Penalty>
1.23606e-08

> <i_epik_Tot_Q>
0

> <i_epik_Tot_abs_Q>
0

> <r_epik_Metal_State_Penalty>
-0

> <b_epik_Metal_Only>
0

> <s_lp_Force_Field>
OPLS_2005

> <r_lp_Energy>
20.2875

> <b_lp_Chiralities_Consistent>
1

> <s_lp_Variant>
AV-unprocessed.smi:2153-1

> <Gold.Version>
5.8.1

> <Gold.Id.Protein>
6NUR|6NUR_protein|mol2

> <Gold.PLP.Fitness>
51.3525

> <Gold.PLP.PLP>
-49.2722

> <Gold.PLP.part.hbond>
-1.0000

> <Gold.PLP.part.metal>
0.0000

> <Gold.PLP.part.buried>
-5.5011

> <Gold.PLP.part.nonpolar>
-42.1528

> <Gold.PLP.part.repulsive>
0.1274

> <Gold.PLP.ligand.clash>
0.0000

> <Gold.PLP.ligand.torsion>
0.4929

> <Gold.PLP.Chemscore.Hbond>
1.0000

> <Gold.PLP.Chemscore.CHOScore>
0.0000

> <Gold.PLP.Chemscore.Metal>
0.0000

> <Gold.Chemscore.Hbonds>
donor molecule, donor type, donor heavy atom, donor atom, acceptor molecule, acceptor atom, score
      P1  H  6896  6909       L1    13  0.94

> <Gold.PLP.Chemscore.Internal.Correction>
0.0662

> <Gold.Rescore>
     Score         DG    S(hbond)    S(metal)    S(lipo)     H(rot)  DE(clash)    DE(int)     intcor
     14.74     -16.58       1.00        0.00     114.49       2.20       0.01       1.83       ----

> <Gold.Chemscore.Fitness>
14.7420

> <Gold.Chemscore.DG>
-16.5837

> <Gold.Chemscore.ZeroCoef>
-5.4800

> <Gold.Chemscore.Hbond>
0.9976

> <Gold.Chemscore.Metal>
0.0000

> <Gold.Chemscore.Lipo>
114.4927

> <Gold.Chemscore.Internal_Hbond>
0.0000

> <Gold.Chemscore.DEClash>
0.0102

> <Gold.Chemscore.DEInternal>
1.8315

> <Gold.Chemscore.Rot>
2.1968

> <Gold.Chemscore.Internal.Correction>
   9.000000E+99

> <Gold.Chemscore.Hbonds>
donor molecule, donor type, donor heavy atom, donor atom, acceptor molecule, acceptor atom, score
      P1  H  6896  6909       L1    13  0.90

> <Gold.Chemscore.Hbond.Weighted>
-3.3318

> <Gold.Chemscore.Metal.Weighted>
-0.0000

> <Gold.Chemscore.Lipo.Weighted>
-13.3957

> <Gold.Chemscore.Internal_Hbond.Weighted>
0.0000

> <Gold.Chemscore.DEClash.Weighted>
0.0102

> <Gold.Chemscore.DEInternal.Weighted>
1.8315

> <Gold.Chemscore.Rot.Weighted>
5.6238

> <Gold.Chemscore.Internal.Correction.Weighted>
   9.000000E+99

> <Gold.Protein.RotatedTorsions>
[ 6907 6896 6895 6894 ] final  154.07 input  -60.11 | X-H torsion
[ 7974 7965 7964 7962 ] final  -68.99 input  175.53 | X-H torsion
[ 8008 7997 7996 7995 ] final   66.71 input   59.86 | X-H torsion
[ 10167 10162 10161 10158 ] final  124.58 input  -65.29 | X-H torsion
[ 10718 10713 10712 10709 ] final -135.24 input   66.30 | X-H torsion
[ 10763 10752 10751 10750 ] final  143.76 input  -60.55 | X-H torsion
[ 11005 11000 10999 10996 ] final   83.84 input  -57.11 | X-H torsion

> <Gold.Protein.ActiveResidues>
 VAL166  LYS551  ARG553  GLY616  TRP617  ASP618  TYR619  PRO620  LYS621  CYS622 
 ASP623  PHE694  ASN695  SER759  ASP760  ASP761  ALA762  ILE779  LEU786  VAL792 
 PHE793  MET794  SER795  GLU796  ALA797  LYS798  CYS799  TRP800  GLU811  SER814 

> <Gold.Protein.RotatedAtoms>
  152.0636  133.4074  159.4428 H   0  0  0  0  0  0  0  0  0  0  0  0  # atno 6907 bound_to 6896
  150.6865  134.3171  159.4780 H   0  0  0  0  0  0  0  0  0  0  0  0  # atno 6908 bound_to 6896
  152.0995  134.9351  160.0620 H   0  0  0  0  0  0  0  0  0  0  0  0  # atno 6909 bound_to 6896
  145.7094  140.9084  143.0688 H   0  0  0  0  0  0  0  0  0  0  0  0  # atno 7974 bound_to 7965
  155.6816  140.3496  155.4857 H   0  0  0  0  0  0  0  0  0  0  0  0  # atno 8008 bound_to 7997
  155.9602  140.1136  157.0925 H   0  0  0  0  0  0  0  0  0  0  0  0  # atno 8009 bound_to 7997
  154.4141  140.1177  156.5154 H   0  0  0  0  0  0  0  0  0  0  0  0  # atno 8010 bound_to 7997
  139.5733  144.6950  151.3720 H   0  0  0  0  0  0  0  0  0  0  0  0  # atno 10167 bound_to 10162
  156.2641  130.7227  151.1171 H   0  0  0  0  0  0  0  0  0  0  0  0  # atno 10718 bound_to 10713
  153.9776  135.2944  155.3422 H   0  0  0  0  0  0  0  0  0  0  0  0  # atno 10763 bound_to 10752
  154.7287  135.5077  153.8931 H   0  0  0  0  0  0  0  0  0  0  0  0  # atno 10764 bound_to 10752
  153.0870  135.6696  154.0044 H   0  0  0  0  0  0  0  0  0  0  0  0  # atno 10765 bound_to 10752
  139.9018  134.8174  156.2364 H   0  0  0  0  0  0  0  0  0  0  0  0  # atno 11005 bound_to 11000
  144.6946  139.9055  143.7461 LP  0  0  0  0  0  0  0  0  0  0  0  0  # atno 17320 bound_to 7965
  146.0726  139.3714  143.0514 LP  0  0  0  0  0  0  0  0  0  0  0  0  # atno 17321 bound_to 7965
  140.7017  143.7615  150.7414 LP  0  0  0  0  0  0  0  0  0  0  0  0  # atno 17342 bound_to 10162
  140.1128  143.4684  152.2360 LP  0  0  0  0  0  0  0  0  0  0  0  0  # atno 17343 bound_to 10162
  157.7261  131.0648  150.5924 LP  0  0  0  0  0  0  0  0  0  0  0  0  # atno 17370 bound_to 10713
  156.6015  130.4355  149.5895 LP  0  0  0  0  0  0  0  0  0  0  0  0  # atno 17371 bound_to 10713
  141.0312  133.6987  156.1434 LP  0  0  0  0  0  0  0  0  0  0  0  0  # atno 17394 bound_to 11000
  140.7093  134.4479  157.5582 LP  0  0  0  0  0  0  0  0  0  0  0  0  # atno 17395 bound_to 11000

$$$$
