AV-unprocessed.smi:236|AV-procd|sdf|1815|dock9
  -GOLD-   2262020403D 1   1.00000     0.00000
 Structure written by MMmdl.
 58 62  0  0  0  0  0  0  0  0  1 V2000
  146.3631  129.7984  152.9140 C   0  0  0  0  0  0  0  0  0  0  0  0
  145.9500  131.2790  152.9328 C   0  0  2  0  0  0  0  0  0  0  0  0
  145.3913  131.6602  151.6841 O   0  0  0  0  0  0  0  0  0  0  0  0
  145.3915  133.0757  151.6467 C   0  0  0  0  0  0  0  0  0  0  0  0
  146.7713  133.4280  152.1889 C   0  0  0  0  0  0  0  0  0  0  0  0
  147.0646  132.3224  153.2087 C   0  0  2  0  0  0  0  0  0  0  0  0
  148.3538  131.7991  152.9314 O   0  0  0  0  0  0  0  0  0  0  0  0
  147.0566  132.8546  154.6632 C   0  0  0  0  0  0  0  0  0  0  0  0
  147.7797  134.1066  154.8300 N   0  0  0  0  0  0  0  0  0  0  0  0
  147.3471  135.3619  154.4648 C   0  0  0  0  0  0  0  0  0  0  0  0
  148.1778  136.3348  154.7211 N   0  0  0  0  0  0  0  0  0  0  0  0
  149.2656  135.7042  155.3122 C   0  0  0  0  0  0  0  0  0  0  0  0
  150.5119  136.1510  155.8355 C   0  0  0  0  0  0  0  0  0  0  0  0
  150.9213  137.4367  155.8628 N   0  0  0  0  0  0  0  0  0  0  0  0
  152.0005  137.7170  154.9255 C   0  0  0  0  0  0  0  0  0  0  0  0
  152.3049  139.2236  154.9155 C   0  0  0  0  0  0  0  0  0  0  0  0
  152.5935  139.6569  156.2415 O   0  0  0  0  0  0  0  0  0  0  0  0
  151.4929  139.4656  157.1290 C   0  0  2  0  0  0  0  0  0  0  0  0
  151.8792  140.0307  158.5018 C   0  0  0  0  0  0  0  0  0  0  0  0
  152.3234  141.3673  158.3413 O   0  0  0  0  0  0  0  0  0  0  0  0
  152.1831  142.1409  159.5228 C   0  0  0  0  0  0  0  0  0  0  0  0
  152.8715  143.4873  159.3878 C   0  0  0  0  0  0  0  0  0  0  0  0
  152.3404  144.7126  160.1032 C   0  0  0  0  0  0  0  0  0  0  0  0
  152.2289  144.6149  158.6058 C   0  0  0  0  0  0  0  0  0  0  0  0
  151.1813  137.9579  157.1993 C   0  0  0  0  0  0  0  0  0  0  0  0
  151.3503  135.2255  156.3616 N   0  0  0  0  0  0  0  0  0  0  0  0
  150.9975  133.9363  156.3747 C   0  0  0  0  0  0  0  0  0  0  0  0
  149.8737  133.3728  155.9251 N   0  0  0  0  0  0  0  0  0  0  0  0
  149.0283  134.3032  155.3952 C   0  0  0  0  0  0  0  0  0  0  0  0
  146.8112  129.5024  153.8628 H   0  0  0  0  0  0  0  0  0  0  0  0
  147.0815  129.5916  152.1206 H   0  0  0  0  0  0  0  0  0  0  0  0
  145.4958  129.1599  152.7456 H   0  0  0  0  0  0  0  0  0  0  0  0
  145.1520  131.4041  153.6651 H   0  0  0  0  0  0  0  0  0  0  0  0
  145.2253  133.4538  150.6377 H   0  0  0  0  0  0  0  0  0  0  0  0
  144.6042  133.4626  152.2959 H   0  0  0  0  0  0  0  0  0  0  0  0
  147.4879  133.4045  151.3661 H   0  0  0  0  0  0  0  0  0  0  0  0
  146.8007  134.4316  152.6144 H   0  0  0  0  0  0  0  0  0  0  0  0
  148.4500  131.7181  151.9949 H   0  0  0  0  0  0  0  0  0  0  0  0
  146.0322  133.0065  155.0058 H   0  0  0  0  0  0  0  0  0  0  0  0
  147.4937  132.1145  155.3349 H   0  0  0  0  0  0  0  0  0  0  0  0
  146.3898  135.5347  153.9948 H   0  0  0  0  0  0  0  0  0  0  0  0
  152.8939  137.1616  155.2133 H   0  0  0  0  0  0  0  0  0  0  0  0
  151.7209  137.3848  153.9246 H   0  0  0  0  0  0  0  0  0  0  0  0
  153.1648  139.4297  154.2781 H   0  0  0  0  0  0  0  0  0  0  0  0
  151.4638  139.7888  154.5109 H   0  0  0  0  0  0  0  0  0  0  0  0
  150.6181  140.0010  156.7553 H   0  0  0  0  0  0  0  0  0  0  0  0
  151.0118  140.0212  159.1640 H   0  0  0  0  0  0  0  0  0  0  0  0
  152.6528  139.4156  158.9642 H   0  0  0  0  0  0  0  0  0  0  0  0
  151.1271  142.3075  159.7397 H   0  0  0  0  0  0  0  0  0  0  0  0
  152.6170  141.6119  160.3724 H   0  0  0  0  0  0  0  0  0  0  0  0
  153.9548  143.4157  159.3117 H   0  0  0  0  0  0  0  0  0  0  0  0
  151.4249  144.6119  160.6826 H   0  0  0  0  0  0  0  0  0  0  0  0
  153.0699  145.4115  160.5073 H   0  0  0  0  0  0  0  0  0  0  0  0
  152.8832  145.2492  158.0115 H   0  0  0  0  0  0  0  0  0  0  0  0
  151.2386  144.4482  158.1863 H   0  0  0  0  0  0  0  0  0  0  0  0
  150.3131  137.7830  157.8361 H   0  0  0  0  0  0  0  0  0  0  0  0
  152.0232  137.4308  157.6488 H   0  0  0  0  0  0  0  0  0  0  0  0
  151.7183  133.2592  156.8087 H   0  0  0  0  0  0  0  0  0  0  0  0
  1  2  1  0  0  0  0
  1 30  1  0  0  0  0
  1 31  1  0  0  0  0
  1 32  1  0  0  0  0
  2  6  1  0  0  0  0
  2  3  1  0  0  0  0
  2 33  1  0  0  0  0
  3  4  1  0  0  0  0
  4  5  1  0  0  0  0
  4 34  1  0  0  0  0
  4 35  1  0  0  0  0
  5  6  1  0  0  0  0
  5 36  1  0  0  0  0
  5 37  1  0  0  0  0
  6  7  1  0  0  0  0
  6  8  1  0  0  0  0
  7 38  1  0  0  0  0
  8  9  1  0  0  0  0
  8 39  1  0  0  0  0
  8 40  1  0  0  0  0
  9 29  1  0  0  0  0
  9 10  1  0  0  0  0
 10 11  2  0  0  0  0
 10 41  1  0  0  0  0
 11 12  1  0  0  0  0
 12 29  2  0  0  0  0
 12 13  1  0  0  0  0
 13 14  1  0  0  0  0
 13 26  2  0  0  0  0
 14 25  1  0  0  0  0
 14 15  1  0  0  0  0
 15 16  1  0  0  0  0
 15 42  1  0  0  0  0
 15 43  1  0  0  0  0
 16 17  1  0  0  0  0
 16 44  1  0  0  0  0
 16 45  1  0  0  0  0
 17 18  1  0  0  0  0
 18 19  1  0  0  0  0
 18 25  1  0  0  0  0
 18 46  1  0  0  0  0
 19 20  1  0  0  0  0
 19 47  1  0  0  0  0
 19 48  1  0  0  0  0
 20 21  1  0  0  0  0
 21 22  1  0  0  0  0
 21 49  1  0  0  0  0
 21 50  1  0  0  0  0
 22 24  1  0  0  0  0
 22 23  1  0  0  0  0
 22 51  1  0  0  0  0
 23 24  1  0  0  0  0
 23 52  1  0  0  0  0
 23 53  1  0  0  0  0
 24 54  1  0  0  0  0
 24 55  1  0  0  0  0
 25 56  1  0  0  0  0
 25 57  1  0  0  0  0
 26 27  1  0  0  0  0
 27 28  2  0  0  0  0
 27 58  1  0  0  0  0
 28 29  1  0  0  0  0
M  END
> <s_m_source_file>
AV-unprocessed.smi

> <i_m_source_file_index>
236

> <i_lp_mmshare_version>
43012

> <i_f3d_flags>
0

> <s_epik_input>
W0NIMl0xW0NIMl1PW0NAQEhdKFtDSDNdKVtDQEBdMShbT0hdKVtDSDJdbihbY0hdbjIpYyhjMjMpbltjSF1uYzNONFtDSDJdW0NIMl1PW0NASF0oW0NIMl00KVtDSDJdT1tDSDJdW0NIXTVbQ0gyXVtDSDJdNQ==

> <s_epik_cmdline>
J2VwaWtfcHl0aG9uJywgJy1waCcsICc3LjAnLCAnLXRuJywgJzgnLCAnLW1hJywgJzIwMCcsICctbWV0YWxfYmluZGluZycsICctaW1hZScsICc8aW5maWxlLm1hZT4nLCAnLW9tYWUnLCAnPG91dGZpbGUubWFlPic=

> <r_lp_tautomer_probability>
1

> <r_epik_Ionization_Penalty>
7.21838e-05

> <r_epik_Ionization_Penalty_Charging>
0

> <r_epik_Ionization_Penalty_Neutral>
7.21838e-05

> <r_epik_State_Penalty>
-0

> <r_epik_Charging_Adjusted_Penalty>
0

> <i_epik_Tot_Q>
0

> <i_epik_Tot_abs_Q>
0

> <r_epik_Metal_State_Penalty>
-0

> <b_epik_Metal_Only>
0

> <s_lp_Force_Field>
OPLS_2005

> <r_lp_Energy>
47.5689

> <b_lp_Chiralities_Consistent>
1

> <s_lp_Variant>
AV-unprocessed.smi:236-7

> <Gold.Version>
5.8.1

> <Gold.Id.Protein>
6NUR|6NUR_protein|mol2

> <Gold.PLP.Fitness>
52.3677

> <Gold.PLP.PLP>
-44.4227

> <Gold.PLP.part.hbond>
-3.0000

> <Gold.PLP.part.metal>
0.0000

> <Gold.PLP.part.buried>
-4.6063

> <Gold.PLP.part.nonpolar>
-37.0292

> <Gold.PLP.part.repulsive>
1.5490

> <Gold.PLP.ligand.clash>
0.0000

> <Gold.PLP.ligand.torsion>
0.9675

> <Gold.PLP.Chemscore.Hbond>
3.0000

> <Gold.PLP.Chemscore.CHOScore>
0.0000

> <Gold.PLP.Chemscore.Metal>
0.0000

> <Gold.Chemscore.Hbonds>
donor molecule, donor type, donor heavy atom, donor atom, acceptor molecule, acceptor atom, score
      L1  H     7    38       P1 10747  1.00
      P1  H  7997  8009       L1    17  1.00
      P1  H 10752 10763       L1    26  0.39

> <Gold.PLP.Chemscore.Internal.Correction>
0.8799

> <Gold.Rescore>
     Score         DG    S(hbond)    S(metal)    S(lipo)     H(rot)  DE(clash)    DE(int)     intcor
     15.48     -18.30       1.92        0.00     117.32       2.87       1.86       0.96       ----

> <Gold.Chemscore.Fitness>
15.4771

> <Gold.Chemscore.DG>
-18.2955

> <Gold.Chemscore.ZeroCoef>
-5.4800

> <Gold.Chemscore.Hbond>
1.9235

> <Gold.Chemscore.Metal>
0.0000

> <Gold.Chemscore.Lipo>
117.3241

> <Gold.Chemscore.Internal_Hbond>
0.0000

> <Gold.Chemscore.DEClash>
1.8614

> <Gold.Chemscore.DEInternal>
0.9570

> <Gold.Chemscore.Rot>
2.8655

> <Gold.Chemscore.Internal.Correction>
   9.000000E+99

> <Gold.Chemscore.Hbonds>
donor molecule, donor type, donor heavy atom, donor atom, acceptor molecule, acceptor atom, score
      L1  H     7    38       P1 10747  0.96
      P1  H  7997  8009       L1    17  0.82
      P1  H 10752 10763       L1    26  0.04

> <Gold.Chemscore.Hbond.Weighted>
-6.4244

> <Gold.Chemscore.Metal.Weighted>
-0.0000

> <Gold.Chemscore.Lipo.Weighted>
-13.7269

> <Gold.Chemscore.Internal_Hbond.Weighted>
0.0000

> <Gold.Chemscore.DEClash.Weighted>
1.8614

> <Gold.Chemscore.DEInternal.Weighted>
0.9570

> <Gold.Chemscore.Rot.Weighted>
7.3358

> <Gold.Chemscore.Internal.Correction.Weighted>
   9.000000E+99

> <Gold.Protein.RotatedTorsions>
[ 6907 6896 6895 6894 ] final -147.12 input  -60.11 | X-H torsion
[ 7974 7965 7964 7962 ] final  120.55 input  175.53 | X-H torsion
[ 8008 7997 7996 7995 ] final -169.46 input   59.86 | X-H torsion
[ 10167 10162 10161 10158 ] final   81.62 input  -65.29 | X-H torsion
[ 10718 10713 10712 10709 ] final  -13.41 input   66.30 | X-H torsion
[ 10763 10752 10751 10750 ] final   76.09 input  -60.55 | X-H torsion
[ 11005 11000 10999 10996 ] final  161.25 input  -57.11 | X-H torsion

> <Gold.Protein.ActiveResidues>
 VAL166  LYS551  ARG553  GLY616  TRP617  ASP618  TYR619  PRO620  LYS621  CYS622 
 ASP623  PHE694  ASN695  SER759  ASP760  ASP761  ALA762  ILE779  LEU786  VAL792 
 PHE793  MET794  SER795  GLU796  ALA797  LYS798  CYS799  TRP800  GLU811  SER814 

> <Gold.Protein.RotatedAtoms>
  151.1513  133.4906  159.2595 H   0  0  0  0  0  0  0  0  0  0  0  0  # atno 6907 bound_to 6896
  151.1551  135.0246  159.8695 H   0  0  0  0  0  0  0  0  0  0  0  0  # atno 6908 bound_to 6896
  152.5463  134.1392  159.8525 H   0  0  0  0  0  0  0  0  0  0  0  0  # atno 6909 bound_to 6896
  145.1298  139.3334  143.4671 H   0  0  0  0  0  0  0  0  0  0  0  0  # atno 7974 bound_to 7965
  155.9053  140.1048  157.1320 H   0  0  0  0  0  0  0  0  0  0  0  0  # atno 8008 bound_to 7997
  154.4032  140.1285  156.4552 H   0  0  0  0  0  0  0  0  0  0  0  0  # atno 8009 bound_to 7997
  155.7375  140.3467  155.5091 H   0  0  0  0  0  0  0  0  0  0  0  0  # atno 8010 bound_to 7997
  139.9373  144.6113  150.8286 H   0  0  0  0  0  0  0  0  0  0  0  0  # atno 10167 bound_to 10162
  156.6306  130.4900  149.6130 H   0  0  0  0  0  0  0  0  0  0  0  0  # atno 10718 bound_to 10713
  153.0700  135.4964  154.8284 H   0  0  0  0  0  0  0  0  0  0  0  0  # atno 10763 bound_to 10752
  154.7009  135.3001  154.9345 H   0  0  0  0  0  0  0  0  0  0  0  0  # atno 10764 bound_to 10752
  154.0069  135.6759  153.4815 H   0  0  0  0  0  0  0  0  0  0  0  0  # atno 10765 bound_to 10752
  140.2140  134.8246  157.3150 H   0  0  0  0  0  0  0  0  0  0  0  0  # atno 11005 bound_to 11000
  146.3515  140.1293  142.8597 LP  0  0  0  0  0  0  0  0  0  0  0  0  # atno 17320 bound_to 7965
  145.0647  140.9113  143.4917 LP  0  0  0  0  0  0  0  0  0  0  0  0  # atno 17321 bound_to 7965
  140.7621  143.3189  151.2667 LP  0  0  0  0  0  0  0  0  0  0  0  0  # atno 17342 bound_to 10162
  139.6733  143.9982  152.2766 LP  0  0  0  0  0  0  0  0  0  0  0  0  # atno 17343 bound_to 10162
  156.2238  130.6753  151.1395 LP  0  0  0  0  0  0  0  0  0  0  0  0  # atno 17370 bound_to 10713
  157.7201  131.0687  150.6171 LP  0  0  0  0  0  0  0  0  0  0  0  0  # atno 17371 bound_to 10713
  140.1921  134.4359  155.7710 LP  0  0  0  0  0  0  0  0  0  0  0  0  # atno 17394 bound_to 11000
  141.2225  133.7032  156.8044 LP  0  0  0  0  0  0  0  0  0  0  0  0  # atno 17395 bound_to 11000

$$$$
