AV-unprocessed.smi:1911|AV-procd|sdf|7740|dock3
  -GOLD-   22720 9483D 1   1.00000     0.00000
 Structure written by MMmdl.
 52 54  0  0  0  0  0  0  0  0  2 V2000
  144.7266  132.8729  148.7060 N   0  0  0  0  0  0  0  0  0  0  0  0
  144.2509  132.5976  149.9224 C   0  0  0  0  0  0  0  0  0  0  0  0
  143.7766  131.4997  150.2078 O   0  0  0  0  0  0  0  0  0  0  0  0
  144.3410  133.7119  150.9700 C   0  0  0  0  0  0  0  0  0  0  0  0
  145.2459  133.3733  152.0986 N   0  3  2  0  0  0  0  0  0  0  0  0
  145.0860  134.2799  153.2667 C   0  0  0  0  0  0  0  0  0  0  0  0
  145.9318  133.8018  154.4599 C   0  0  0  0  0  0  0  0  0  0  0  0
  147.4199  133.6437  154.0894 C   0  0  2  0  0  0  0  0  0  0  0  0
  148.0742  134.9366  153.8886 N   0  0  0  0  0  0  0  0  0  0  0  0
  148.4494  135.7744  154.8663 C   0  0  0  0  0  0  0  0  0  0  0  0
  148.2400  135.5587  156.0594 O   0  0  0  0  0  0  0  0  0  0  0  0
  149.0538  136.8654  154.3652 N   0  0  0  0  0  0  0  0  0  0  0  0
  149.6557  137.9475  155.0633 C   0  0  0  0  0  0  0  0  0  0  0  0
  149.7047  137.8807  156.4692 C   0  0  0  0  0  0  0  0  0  0  0  0
  150.2697  138.9481  157.1922 C   0  0  0  0  0  0  0  0  0  0  0  0
  150.7702  140.0671  156.4856 C   0  0  0  0  0  0  0  0  0  0  0  0
  151.3328  141.1660  157.1640 N   0  0  0  0  0  0  0  0  0  0  0  0
  150.9938  142.5438  156.8506 C   0  0  0  0  0  0  0  0  0  0  0  0
  151.7863  143.3748  157.8596 C   0  0  0  0  0  0  0  0  0  0  0  0
  151.8544  142.4654  159.0869 C   0  0  0  0  0  0  0  0  0  0  0  0
  151.9035  141.0507  158.4993 C   0  0  0  0  0  0  0  0  0  0  0  0
  150.7126  140.1383  155.1349 N   0  0  0  0  0  0  0  0  0  0  0  0
  150.1711  139.1121  154.4456 C   0  0  0  0  0  0  0  0  0  0  0  0
  147.5545  132.7699  152.8303 C   0  0  0  0  0  0  0  0  0  0  0  0
  146.6662  133.2720  151.6773 C   0  0  0  0  0  0  0  0  0  0  0  0
  144.6937  132.1669  147.9839 H   0  0  0  0  0  0  0  0  0  0  0  0
  145.1232  133.7804  148.5077 H   0  0  0  0  0  0  0  0  0  0  0  0
  144.7153  134.5951  150.4505 H   0  0  0  0  0  0  0  0  0  0  0  0
  143.3495  133.9675  151.3473 H   0  0  0  0  0  0  0  0  0  0  0  0
  145.3710  135.2947  152.9848 H   0  0  0  0  0  0  0  0  0  0  0  0
  144.0390  134.3216  153.5679 H   0  0  0  0  0  0  0  0  0  0  0  0
  145.8146  134.4869  155.3004 H   0  0  0  0  0  0  0  0  0  0  0  0
  145.5472  132.8401  154.8022 H   0  0  0  0  0  0  0  0  0  0  0  0
  147.9317  133.1329  154.9072 H   0  0  0  0  0  0  0  0  0  0  0  0
  148.2860  135.1984  152.9370 H   0  0  0  0  0  0  0  0  0  0  0  0
  149.0716  136.9410  153.3590 H   0  0  0  0  0  0  0  0  0  0  0  0
  149.3133  137.0209  156.9932 H   0  0  0  0  0  0  0  0  0  0  0  0
  150.3067  138.8941  158.2698 H   0  0  0  0  0  0  0  0  0  0  0  0
  151.2570  142.8036  155.8251 H   0  0  0  0  0  0  0  0  0  0  0  0
  149.9216  142.6920  156.9844 H   0  0  0  0  0  0  0  0  0  0  0  0
  152.7934  143.5530  157.4799 H   0  0  0  0  0  0  0  0  0  0  0  0
  151.3279  144.3417  158.0672 H   0  0  0  0  0  0  0  0  0  0  0  0
  152.7044  142.6845  159.7335 H   0  0  0  0  0  0  0  0  0  0  0  0
  150.9451  142.5846  159.6771 H   0  0  0  0  0  0  0  0  0  0  0  0
  151.3537  140.3467  159.1249 H   0  0  0  0  0  0  0  0  0  0  0  0
  152.9328  140.7013  158.4136 H   0  0  0  0  0  0  0  0  0  0  0  0
  150.1387  139.2588  153.3777 H   0  0  0  0  0  0  0  0  0  0  0  0
  148.5962  132.7251  152.5100 H   0  0  0  0  0  0  0  0  0  0  0  0
  147.2700  131.7457  153.0756 H   0  0  0  0  0  0  0  0  0  0  0  0
  146.7523  132.5816  150.8375 H   0  0  0  0  0  0  0  0  0  0  0  0
  147.0125  134.2444  151.3236 H   0  0  0  0  0  0  0  0  0  0  0  0
  144.9745  132.4489  152.4039 H   0  0  0  0  0  0  0  0  0  0  0  0
  1  2  1  0  0  0  0
  1 26  1  0  0  0  0
  1 27  1  0  0  0  0
  2  3  2  0  0  0  0
  2  4  1  0  0  0  0
  4  5  1  0  0  0  0
  4 28  1  0  0  0  0
  4 29  1  0  0  0  0
  5 25  1  0  0  0  0
  5  6  1  0  0  0  0
  5 52  1  0  0  0  0
  6  7  1  0  0  0  0
  6 30  1  0  0  0  0
  6 31  1  0  0  0  0
  7  8  1  0  0  0  0
  7 32  1  0  0  0  0
  7 33  1  0  0  0  0
  8  9  1  0  0  0  0
  8 24  1  0  0  0  0
  8 34  1  0  0  0  0
  9 10  1  0  0  0  0
  9 35  1  0  0  0  0
 10 11  2  0  0  0  0
 10 12  1  0  0  0  0
 12 13  1  0  0  0  0
 12 36  1  0  0  0  0
 13 23  1  0  0  0  0
 13 14  2  0  0  0  0
 14 15  1  0  0  0  0
 14 37  1  0  0  0  0
 15 16  2  0  0  0  0
 15 38  1  0  0  0  0
 16 17  1  0  0  0  0
 16 22  1  0  0  0  0
 17 21  1  0  0  0  0
 17 18  1  0  0  0  0
 18 19  1  0  0  0  0
 18 39  1  0  0  0  0
 18 40  1  0  0  0  0
 19 20  1  0  0  0  0
 19 41  1  0  0  0  0
 19 42  1  0  0  0  0
 20 21  1  0  0  0  0
 20 43  1  0  0  0  0
 20 44  1  0  0  0  0
 21 45  1  0  0  0  0
 21 46  1  0  0  0  0
 22 23  2  0  0  0  0
 23 47  1  0  0  0  0
 24 25  1  0  0  0  0
 24 48  1  0  0  0  0
 24 49  1  0  0  0  0
 25 50  1  0  0  0  0
 25 51  1  0  0  0  0
M  CHG  1   5   1
M  END
> <s_m_source_file>
AV-unprocessed.smi

> <i_m_source_file_index>
1911

> <i_lp_mmshare_version>
43012

> <i_f3d_flags>
0

> <s_epik_input>
W05IMl1DKD1PKVtDSDJdTjFbQ0gyXVtDSDJdW0NIXShbQ0gyXVtDSDJdMSlbTkhdQyg9TylbTkhdYzJbY0hdW2NIXWMobltjSF0yKU4zW0NIMl1bQ0gyXVtDSDJdW0NIMl0z

> <s_epik_cmdline>
J2VwaWtfcHl0aG9uJywgJy1waCcsICc3LjAnLCAnLXRuJywgJzgnLCAnLW1hJywgJzIwMCcsICctbWV0YWxfYmluZGluZycsICctaW1hZScsICc8aW5maWxlLm1hZT4nLCAnLW9tYWUnLCAnPG91dGZpbGUubWFlPic=

> <r_lp_tautomer_probability>
1

> <r_epik_Ionization_Penalty>
0.91661

> <r_epik_Ionization_Penalty_Charging>
0.838844

> <r_epik_Ionization_Penalty_Neutral>
0.0777665

> <r_epik_State_Penalty>
0.927046

> <r_epik_Charging_Adjusted_Penalty>
1.76589

> <i_epik_Tot_Q>
1

> <i_epik_Tot_abs_Q>
1

> <r_epik_Metal_State_Penalty>
0.950553

> <b_epik_Metal_Only>
0

> <s_lp_Force_Field>
OPLS_2005

> <r_lp_Energy>
39.2928

> <b_lp_Chiralities_Consistent>
1

> <s_lp_Variant>
AV-unprocessed.smi:1911-3

> <Gold.Version>
5.8.1

> <Gold.Id.Protein>
6NUR|6NUR_protein|mol2

> <Gold.PLP.Fitness>
50.9237

> <Gold.PLP.PLP>
-36.2902

> <Gold.PLP.part.hbond>
-5.0000

> <Gold.PLP.part.metal>
0.0000

> <Gold.PLP.part.buried>
-5.4385

> <Gold.PLP.part.nonpolar>
-26.4616

> <Gold.PLP.part.repulsive>
0.4589

> <Gold.PLP.ligand.clash>
0.0000

> <Gold.PLP.ligand.torsion>
0.8264

> <Gold.PLP.Chemscore.Hbond>
4.3650

> <Gold.PLP.Chemscore.CHOScore>
1.0000

> <Gold.PLP.Chemscore.Metal>
0.0000

> <Gold.Chemscore.Hbonds>
donor molecule, donor type, donor heavy atom, donor atom, acceptor molecule, acceptor atom, score
      L1  H     1    27       P1  7921  1.00
      L1  H     9    35       P1  7948  1.00
      L1  H    12    36       P1  7948  1.00
      P1  H  7989  7998       L1    22  0.65
      P1  H 10785 10796       L1     3  0.72
      L1  C    23    47       P1  7957  1.00

> <Gold.PLP.Chemscore.Internal.Correction>
0.1913

> <Gold.Rescore>
     Score         DG    S(hbond)    S(metal)    S(lipo)     H(rot)  DE(clash)    DE(int)     intcor
     19.37     -21.58       3.53        0.00      78.71       1.91       0.03       2.18       ----

> <Gold.Chemscore.Fitness>
19.3709

> <Gold.Chemscore.DG>
-21.5842

> <Gold.Chemscore.ZeroCoef>
-5.4800

> <Gold.Chemscore.Hbond>
3.5265

> <Gold.Chemscore.Metal>
0.0000

> <Gold.Chemscore.Lipo>
78.7068

> <Gold.Chemscore.Internal_Hbond>
0.0000

> <Gold.Chemscore.DEClash>
0.0319

> <Gold.Chemscore.DEInternal>
2.1814

> <Gold.Chemscore.Rot>
1.9074

> <Gold.Chemscore.Internal.Correction>
   9.000000E+99

> <Gold.Chemscore.Hbonds>
donor molecule, donor type, donor heavy atom, donor atom, acceptor molecule, acceptor atom, score
      L1  H     1    27       P1  7921  0.84
      L1  H     9    35       P1  7948  0.90
      L1  H    12    36       P1  7948  0.94
      P1  H  7989  7998       L1    22  0.05
      P1  H 10785 10796       L1     3  0.69

> <Gold.Chemscore.Hbond.Weighted>
-11.7784

> <Gold.Chemscore.Metal.Weighted>
-0.0000

> <Gold.Chemscore.Lipo.Weighted>
-9.2087

> <Gold.Chemscore.Internal_Hbond.Weighted>
0.0000

> <Gold.Chemscore.DEClash.Weighted>
0.0319

> <Gold.Chemscore.DEInternal.Weighted>
2.1814

> <Gold.Chemscore.Rot.Weighted>
4.8829

> <Gold.Chemscore.Internal.Correction.Weighted>
   9.000000E+99

> <Gold.Protein.RotatedTorsions>
[ 6907 6896 6895 6894 ] final  128.98 input  -60.11 | X-H torsion
[ 7974 7965 7964 7962 ] final  -91.68 input  175.53 | X-H torsion
[ 8008 7997 7996 7995 ] final -171.45 input   59.86 | X-H torsion
[ 10167 10162 10161 10158 ] final  -70.45 input  -65.29 | X-H torsion
[ 10718 10713 10712 10709 ] final   -2.41 input   66.30 | X-H torsion
[ 10763 10752 10751 10750 ] final -128.41 input  -60.55 | X-H torsion
[ 11005 11000 10999 10996 ] final  -23.40 input  -57.11 | X-H torsion

> <Gold.Protein.ActiveResidues>
 VAL166  LYS551  ARG553  GLY616  TRP617  ASP618  TYR619  PRO620  LYS621  CYS622 
 ASP623  PHE694  ASN695  SER759  ASP760  ASP761  ALA762  ILE779  LEU786  VAL792 
 PHE793  MET794  SER795  GLU796  ALA797  LYS798  CYS799  TRP800  GLU811  SER814 

> <Gold.Protein.RotatedAtoms>
  152.3667  133.6366  159.6055 H   0  0  0  0  0  0  0  0  0  0  0  0  # atno 6907 bound_to 6896
  150.7639  133.9336  159.3443 H   0  0  0  0  0  0  0  0  0  0  0  0  # atno 6908 bound_to 6896
  151.7165  135.0903  160.0328 H   0  0  0  0  0  0  0  0  0  0  0  0  # atno 6909 bound_to 6896
  145.4099  140.9544  143.2240 H   0  0  0  0  0  0  0  0  0  0  0  0  # atno 7974 bound_to 7965
  155.9317  140.1092  157.1127 H   0  0  0  0  0  0  0  0  0  0  0  0  # atno 8008 bound_to 7997
  154.4072  140.1236  156.4877 H   0  0  0  0  0  0  0  0  0  0  0  0  # atno 8009 bound_to 7997
  155.7071  140.3471  155.4960 H   0  0  0  0  0  0  0  0  0  0  0  0  # atno 8010 bound_to 7997
  140.5351  143.2318  151.7191 H   0  0  0  0  0  0  0  0  0  0  0  0  # atno 10167 bound_to 10162
  156.7912  130.5362  149.5735 H   0  0  0  0  0  0  0  0  0  0  0  0  # atno 10718 bound_to 10713
  154.8756  135.3929  154.3753 H   0  0  0  0  0  0  0  0  0  0  0  0  # atno 10763 bound_to 10752
  153.4507  135.7028  153.6116 H   0  0  0  0  0  0  0  0  0  0  0  0  # atno 10764 bound_to 10752
  153.4656  135.3802  155.2331 H   0  0  0  0  0  0  0  0  0  0  0  0  # atno 10765 bound_to 10752
  140.8748  133.7695  156.0230 H   0  0  0  0  0  0  0  0  0  0  0  0  # atno 11005 bound_to 11000
  144.8316  139.5619  143.6941 LP  0  0  0  0  0  0  0  0  0  0  0  0  # atno 17320 bound_to 7965
  146.2710  139.6635  142.9296 LP  0  0  0  0  0  0  0  0  0  0  0  0  # atno 17321 bound_to 7965
  139.4968  144.4055  152.0136 LP  0  0  0  0  0  0  0  0  0  0  0  0  # atno 17342 bound_to 10162
  140.3160  144.3483  150.6021 LP  0  0  0  0  0  0  0  0  0  0  0  0  # atno 17343 bound_to 10162
  156.1158  130.6074  151.0118 LP  0  0  0  0  0  0  0  0  0  0  0  0  # atno 17370 bound_to 10713
  157.6600  131.0882  150.7861 LP  0  0  0  0  0  0  0  0  0  0  0  0  # atno 17371 bound_to 10713
  140.8530  134.2931  157.5267 LP  0  0  0  0  0  0  0  0  0  0  0  0  # atno 17394 bound_to 11000
  139.8715  134.9478  156.3978 LP  0  0  0  0  0  0  0  0  0  0  0  0  # atno 17395 bound_to 11000

$$$$
