AV-unprocessed.smi:1794|AV-procd|sdf|7234|dock3
  -GOLD-   22720 8483D 1   1.00000     0.00000
 Structure written by MMmdl.
 55 57  0  0  0  0  0  0  0  0  2 V2000
  151.7762  138.1149  154.2800 C   0  0  0  0  0  0  0  0  0  0  0  0
  150.4655  138.4591  155.0270 C   0  0  0  0  0  0  0  0  0  0  0  0
  149.4300  138.8927  153.9569 C   0  0  0  0  0  0  0  0  0  0  0  0
  149.9239  137.1379  155.6497 C   0  0  0  0  0  0  0  0  0  0  0  0
  149.6049  136.1376  154.6316 N   0  0  0  0  0  0  0  0  0  0  0  0
  149.5507  134.8123  154.8218 C   0  0  0  0  0  0  0  0  0  0  0  0
  149.8570  134.2547  155.8753 O   0  0  0  0  0  0  0  0  0  0  0  0
  149.0916  134.1871  153.7259 N   0  0  0  0  0  0  0  0  0  0  0  0
  148.7763  132.8073  153.5825 C   0  0  0  0  0  0  0  0  0  0  0  0
  149.5775  131.7919  154.1634 C   0  0  0  0  0  0  0  0  0  0  0  0
  149.2268  130.4394  153.9884 C   0  0  0  0  0  0  0  0  0  0  0  0
  148.0869  130.1229  153.2277 C   0  0  0  0  0  0  0  0  0  0  0  0
  147.3546  131.1125  152.6751 N   0  3  0  0  0  0  0  0  0  0  0  0
  147.6429  132.4304  152.8125 C   0  0  0  0  0  0  0  0  0  0  0  0
  146.8206  133.3809  152.1725 N   0  0  0  0  0  0  0  0  0  0  0  0
  146.7280  133.2071  150.7253 C   0  0  0  0  0  0  0  0  0  0  0  0
  145.2894  133.5568  150.3377 C   0  0  0  0  0  0  0  0  0  0  0  0
  144.5051  133.2514  151.6081 C   0  0  0  0  0  0  0  0  0  0  0  0
  145.4874  133.6572  152.7049 C   0  0  0  0  0  0  0  0  0  0  0  0
  150.6473  139.5165  156.0609 N   0  0  0  0  0  0  0  0  0  0  0  0
  151.0300  140.8356  155.5450 C   0  0  0  0  0  0  0  0  0  0  0  0
  151.0718  141.8992  156.6566 C   0  0  0  0  0  0  0  0  0  0  0  0
  151.9560  141.4852  157.6915 O   0  0  0  0  0  0  0  0  0  0  0  0
  151.5886  140.2310  158.2528 C   0  0  0  0  0  0  0  0  0  0  0  0
  151.5669  139.1622  157.1485 C   0  0  0  0  0  0  0  0  0  0  0  0
  151.6016  137.3617  153.5108 H   0  0  0  0  0  0  0  0  0  0  0  0
  152.5354  137.7086  154.9481 H   0  0  0  0  0  0  0  0  0  0  0  0
  152.2052  138.9827  153.7794 H   0  0  0  0  0  0  0  0  0  0  0  0
  149.1604  138.0640  153.3012 H   0  0  0  0  0  0  0  0  0  0  0  0
  149.8152  139.6782  153.3065 H   0  0  0  0  0  0  0  0  0  0  0  0
  148.5093  139.2631  154.4095 H   0  0  0  0  0  0  0  0  0  0  0  0
  150.6785  136.6980  156.3029 H   0  0  0  0  0  0  0  0  0  0  0  0
  149.0733  137.3255  156.3057 H   0  0  0  0  0  0  0  0  0  0  0  0
  149.3372  136.4953  153.7264 H   0  0  0  0  0  0  0  0  0  0  0  0
  148.7987  134.7836  152.9662 H   0  0  0  0  0  0  0  0  0  0  0  0
  150.4630  132.0308  154.7331 H   0  0  0  0  0  0  0  0  0  0  0  0
  149.8274  129.6568  154.4283 H   0  0  0  0  0  0  0  0  0  0  0  0
  147.7451  129.1157  153.0388 H   0  0  0  0  0  0  0  0  0  0  0  0
  147.4429  133.8452  150.2049 H   0  0  0  0  0  0  0  0  0  0  0  0
  146.9448  132.1718  150.4557 H   0  0  0  0  0  0  0  0  0  0  0  0
  145.2163  134.6206  150.1074 H   0  0  0  0  0  0  0  0  0  0  0  0
  144.9352  132.9980  149.4710 H   0  0  0  0  0  0  0  0  0  0  0  0
  143.5574  133.7874  151.6661 H   0  0  0  0  0  0  0  0  0  0  0  0
  144.2971  132.1822  151.6696 H   0  0  0  0  0  0  0  0  0  0  0  0
  145.2644  133.1659  153.6520 H   0  0  0  0  0  0  0  0  0  0  0  0
  145.4198  134.7311  152.8831 H   0  0  0  0  0  0  0  0  0  0  0  0
  152.0081  140.7849  155.0662 H   0  0  0  0  0  0  0  0  0  0  0  0
  150.3246  141.1785  154.7904 H   0  0  0  0  0  0  0  0  0  0  0  0
  151.4158  142.8525  156.2553 H   0  0  0  0  0  0  0  0  0  0  0  0
  150.0749  142.0662  157.0675 H   0  0  0  0  0  0  0  0  0  0  0  0
  152.3083  139.9627  159.0260 H   0  0  0  0  0  0  0  0  0  0  0  0
  150.6127  140.3080  158.7349 H   0  0  0  0  0  0  0  0  0  0  0  0
  151.2929  138.2143  157.6046 H   0  0  0  0  0  0  0  0  0  0  0  0
  152.5787  139.0409  156.7610 H   0  0  0  0  0  0  0  0  0  0  0  0
  146.5393  130.8534  152.1192 H   0  0  0  0  0  0  0  0  0  0  0  0
  1  2  1  0  0  0  0
  1 26  1  0  0  0  0
  1 27  1  0  0  0  0
  1 28  1  0  0  0  0
  2  3  1  0  0  0  0
  2  4  1  0  0  0  0
  2 20  1  0  0  0  0
  3 29  1  0  0  0  0
  3 30  1  0  0  0  0
  3 31  1  0  0  0  0
  4  5  1  0  0  0  0
  4 32  1  0  0  0  0
  4 33  1  0  0  0  0
  5  6  1  0  0  0  0
  5 34  1  0  0  0  0
  6  7  2  0  0  0  0
  6  8  1  0  0  0  0
  8  9  1  0  0  0  0
  8 35  1  0  0  0  0
  9 14  1  0  0  0  0
  9 10  2  0  0  0  0
 10 11  1  0  0  0  0
 10 36  1  0  0  0  0
 11 12  2  0  0  0  0
 11 37  1  0  0  0  0
 12 13  1  0  0  0  0
 12 38  1  0  0  0  0
 13 14  2  0  0  0  0
 13 55  1  0  0  0  0
 14 15  1  0  0  0  0
 15 19  1  0  0  0  0
 15 16  1  0  0  0  0
 16 17  1  0  0  0  0
 16 39  1  0  0  0  0
 16 40  1  0  0  0  0
 17 18  1  0  0  0  0
 17 41  1  0  0  0  0
 17 42  1  0  0  0  0
 18 19  1  0  0  0  0
 18 43  1  0  0  0  0
 18 44  1  0  0  0  0
 19 45  1  0  0  0  0
 19 46  1  0  0  0  0
 20 25  1  0  0  0  0
 20 21  1  0  0  0  0
 21 22  1  0  0  0  0
 21 47  1  0  0  0  0
 21 48  1  0  0  0  0
 22 23  1  0  0  0  0
 22 49  1  0  0  0  0
 22 50  1  0  0  0  0
 23 24  1  0  0  0  0
 24 25  1  0  0  0  0
 24 51  1  0  0  0  0
 24 52  1  0  0  0  0
 25 53  1  0  0  0  0
 25 54  1  0  0  0  0
M  CHG  1  13   1
M  END
> <s_m_source_file>
AV-unprocessed.smi

> <i_m_source_file_index>
1794

> <i_lp_mmshare_version>
43012

> <i_f3d_flags>
0

> <s_epik_input>
W0NIMl0xW0NIMl1PW0NIMl1bQ0gyXU4xQyhbQ0gzXSkoW0NIM10pW0NIMl1bTkhdQyg9TylbTkhdYzJbY0hdW2NIXVtjSF1uYzJOM1tDSDJdW0NIMl1bQ0gyXVtDSDJdMw==

> <s_epik_cmdline>
J2VwaWtfcHl0aG9uJywgJy1waCcsICc3LjAnLCAnLXRuJywgJzgnLCAnLW1hJywgJzIwMCcsICctbWV0YWxfYmluZGluZycsICctaW1hZScsICc8aW5maWxlLm1hZT4nLCAnLW9tYWUnLCAnPG91dGZpbGUubWFlPic=

> <r_epik_Ionization_Penalty>
1.36967

> <r_epik_Ionization_Penalty_Charging>
1.10366

> <r_epik_Ionization_Penalty_Neutral>
0.266011

> <r_epik_State_Penalty>
1.45237

> <r_epik_Charging_Adjusted_Penalty>
2.55603

> <i_epik_Tot_Q>
1

> <i_epik_Tot_abs_Q>
1

> <r_epik_Metal_State_Penalty>
1.53539

> <b_epik_Metal_Only>
0

> <s_lp_Force_Field>
OPLS_2005

> <r_lp_Energy>
75.8074

> <b_lp_Chiralities_Consistent>
1

> <s_lp_Variant>
AV-unprocessed.smi:1794-3

> <Gold.Version>
5.8.1

> <Gold.Id.Protein>
6NUR|6NUR_protein|mol2

> <Gold.PLP.Fitness>
45.8884

> <Gold.PLP.PLP>
-41.0305

> <Gold.PLP.part.hbond>
-3.0000

> <Gold.PLP.part.metal>
0.0000

> <Gold.PLP.part.buried>
-3.8858

> <Gold.PLP.part.nonpolar>
-33.3054

> <Gold.PLP.part.repulsive>
0.1809

> <Gold.PLP.ligand.clash>
0.0000

> <Gold.PLP.ligand.torsion>
0.6698

> <Gold.PLP.Chemscore.Hbond>
1.9920

> <Gold.PLP.Chemscore.CHOScore>
0.0000

> <Gold.PLP.Chemscore.Metal>
0.0000

> <Gold.Chemscore.Hbonds>
donor molecule, donor type, donor heavy atom, donor atom, acceptor molecule, acceptor atom, score
      L1  H     5    34       P1  7948  1.00
      L1  H     8    35       P1  7948  0.85

> <Gold.PLP.Chemscore.Internal.Correction>
0.2215

> <Gold.Rescore>
     Score         DG    S(hbond)    S(metal)    S(lipo)     H(rot)  DE(clash)    DE(int)     intcor
     14.77     -16.82       1.32        0.00      93.78       1.58       0.10       1.95       ----

> <Gold.Chemscore.Fitness>
14.7663

> <Gold.Chemscore.DG>
-16.8193

> <Gold.Chemscore.ZeroCoef>
-5.4800

> <Gold.Chemscore.Hbond>
1.3208

> <Gold.Chemscore.Metal>
0.0000

> <Gold.Chemscore.Lipo>
93.7847

> <Gold.Chemscore.Internal_Hbond>
0.0000

> <Gold.Chemscore.DEClash>
0.1031

> <Gold.Chemscore.DEInternal>
1.9498

> <Gold.Chemscore.Rot>
1.5800

> <Gold.Chemscore.Internal.Correction>
   9.000000E+99

> <Gold.Chemscore.Hbonds>
donor molecule, donor type, donor heavy atom, donor atom, acceptor molecule, acceptor atom, score
      L1  H     5    34       P1  7948  0.85
      L1  H     8    35       P1  7948  0.14

> <Gold.Chemscore.Hbond.Weighted>
-4.4114

> <Gold.Chemscore.Metal.Weighted>
-0.0000

> <Gold.Chemscore.Lipo.Weighted>
-10.9728

> <Gold.Chemscore.Internal_Hbond.Weighted>
0.0000

> <Gold.Chemscore.DEClash.Weighted>
0.1031

> <Gold.Chemscore.DEInternal.Weighted>
1.9498

> <Gold.Chemscore.Rot.Weighted>
4.0449

> <Gold.Chemscore.Internal.Correction.Weighted>
   9.000000E+99

> <Gold.Protein.RotatedTorsions>
[ 6907 6896 6895 6894 ] final  -26.27 input  -60.11 | X-H torsion
[ 7974 7965 7964 7962 ] final  168.34 input  175.53 | X-H torsion
[ 8008 7997 7996 7995 ] final   16.75 input   59.86 | X-H torsion
[ 10167 10162 10161 10158 ] final   95.89 input  -65.29 | X-H torsion
[ 10718 10713 10712 10709 ] final  -94.48 input   66.30 | X-H torsion
[ 10763 10752 10751 10750 ] final -165.87 input  -60.55 | X-H torsion
[ 11005 11000 10999 10996 ] final  -65.22 input  -57.11 | X-H torsion

> <Gold.Protein.ActiveResidues>
 VAL166  LYS551  ARG553  GLY616  TRP617  ASP618  TYR619  PRO620  LYS621  CYS622 
 ASP623  PHE694  ASN695  SER759  ASP760  ASP761  ALA762  ILE779  LEU786  VAL792 
 PHE793  MET794  SER795  GLU796  ALA797  LYS798  CYS799  TRP800  GLU811  SER814 

> <Gold.Protein.RotatedAtoms>
  151.1634  135.0284  159.8719 H   0  0  0  0  0  0  0  0  0  0  0  0  # atno 6907 bound_to 6896
  152.5451  134.1253  159.8426 H   0  0  0  0  0  0  0  0  0  0  0  0  # atno 6908 bound_to 6896
  151.1351  133.4964  159.2630 H   0  0  0  0  0  0  0  0  0  0  0  0  # atno 6909 bound_to 6896
  144.7392  139.8893  143.6402 H   0  0  0  0  0  0  0  0  0  0  0  0  # atno 7974 bound_to 7965
  154.8814  140.2973  155.5423 H   0  0  0  0  0  0  0  0  0  0  0  0  # atno 8008 bound_to 7997
  156.3022  140.2441  156.3751 H   0  0  0  0  0  0  0  0  0  0  0  0  # atno 8009 bound_to 7997
  154.8713  140.0401  157.1715 H   0  0  0  0  0  0  0  0  0  0  0  0  # atno 8010 bound_to 7997
  139.7946  144.6838  150.9847 H   0  0  0  0  0  0  0  0  0  0  0  0  # atno 10167 bound_to 10162
  156.0028  130.5069  150.5932 H   0  0  0  0  0  0  0  0  0  0  0  0  # atno 10718 bound_to 10713
  154.6889  135.2967  154.9507 H   0  0  0  0  0  0  0  0  0  0  0  0  # atno 10763 bound_to 10752
  154.0477  135.6649  153.4801 H   0  0  0  0  0  0  0  0  0  0  0  0  # atno 10764 bound_to 10752
  153.0598  135.5122  154.7971 H   0  0  0  0  0  0  0  0  0  0  0  0  # atno 10765 bound_to 10752
  141.1448  133.6678  156.5953 H   0  0  0  0  0  0  0  0  0  0  0  0  # atno 11005 bound_to 11000
  146.1154  139.4164  143.0261 LP  0  0  0  0  0  0  0  0  0  0  0  0  # atno 17320 bound_to 7965
  145.7383  141.0017  143.1315 LP  0  0  0  0  0  0  0  0  0  0  0  0  # atno 17321 bound_to 7965
  140.7820  143.4345  151.0644 LP  0  0  0  0  0  0  0  0  0  0  0  0  # atno 17342 bound_to 10162
  139.8020  143.8070  152.3164 LP  0  0  0  0  0  0  0  0  0  0  0  0  # atno 17343 bound_to 10162
  157.3793  131.0778  151.1490 LP  0  0  0  0  0  0  0  0  0  0  0  0  # atno 17370 bound_to 10713
  157.2218  130.6484  149.5814 LP  0  0  0  0  0  0  0  0  0  0  0  0  # atno 17371 bound_to 10713
  140.3731  134.7589  157.4611 LP  0  0  0  0  0  0  0  0  0  0  0  0  # atno 17394 bound_to 11000
  140.0695  134.5882  155.8657 LP  0  0  0  0  0  0  0  0  0  0  0  0  # atno 17395 bound_to 11000

$$$$
