AV-unprocessed.smi:2886|AV-procd|sdf|11093|dock4
  -GOLD-   2272015563D 1   1.00000     0.00000
 Structure written by MMmdl.
 28 30  0  0  0  0  0  0  0  0  3 V2000
  149.8169  134.4200  157.8664 O   0  0  0  0  0  0  0  0  0  0  0  0
  149.8459  135.2138  156.9279 C   0  0  0  0  0  0  0  0  0  0  0  0
  149.5908  134.8541  155.6346 N   0  5  0  0  0  0  0  0  0  0  0  0
  149.6310  135.7241  154.6503 N   0  3  0  0  0  0  0  0  0  0  0  0
  149.9187  137.0112  154.8164 C   0  0  0  0  0  0  0  0  0  0  0  0
  150.1974  137.5189  156.1163 C   0  0  0  0  0  0  0  0  0  0  0  0
  150.5045  138.8545  156.3449 N   0  0  0  0  0  0  0  0  0  0  0  0
  150.6055  139.9550  155.3947 C   0  0  2  0  0  0  0  0  0  0  0  0
  150.5211  141.3339  156.0503 C   0  0  0  0  0  0  0  0  0  0  0  0
  149.3840  141.9872  155.2514 C   0  0  2  0  0  0  0  0  0  0  0  0
  148.0153  141.4306  155.6640 C   0  0  0  0  0  0  0  0  0  0  0  0
  148.0520  140.0317  155.0515 C   0  0  0  0  0  0  0  0  0  0  0  0
  149.4413  140.0081  154.3906 C   0  0  1  0  0  0  0  0  0  0  0  0
  149.5445  141.3636  153.9871 O   0  0  0  0  0  0  0  0  0  0  0  0
  150.1664  136.6351  157.1552 C   0  0  0  0  0  0  0  0  0  0  0  0
  150.4996  137.1570  158.7739 Cl  0  0  0  0  0  0  0  0  0  0  0  0
  149.4381  135.4281  153.6806 H   0  0  0  0  0  0  0  0  0  0  0  0
  149.9306  137.6285  153.9275 H   0  0  0  0  0  0  0  0  0  0  0  0
  150.5658  139.1366  157.3132 H   0  0  0  0  0  0  0  0  0  0  0  0
  151.5323  139.8865  154.8261 H   0  0  0  0  0  0  0  0  0  0  0  0
  150.3024  141.2985  157.1187 H   0  0  0  0  0  0  0  0  0  0  0  0
  151.4578  141.8751  155.9135 H   0  0  0  0  0  0  0  0  0  0  0  0
  149.4286  143.0764  155.2267 H   0  0  0  0  0  0  0  0  0  0  0  0
  147.8800  141.4168  156.7461 H   0  0  0  0  0  0  0  0  0  0  0  0
  147.2081  142.0187  155.2256 H   0  0  0  0  0  0  0  0  0  0  0  0
  147.9135  139.2403  155.7885 H   0  0  0  0  0  0  0  0  0  0  0  0
  147.2692  139.9290  154.2991 H   0  0  0  0  0  0  0  0  0  0  0  0
  149.5299  139.2902  153.5748 H   0  0  0  0  0  0  0  0  0  0  0  0
  1  2  2  0  0  0  0
  2  3  1  0  0  0  0
  2 15  1  0  0  0  0
  3  4  1  0  0  0  0
  4  5  2  0  0  0  0
  4 17  1  0  0  0  0
  5  6  1  0  0  0  0
  5 18  1  0  0  0  0
  6 15  2  0  0  0  0
  6  7  1  0  0  0  0
  7  8  1  0  0  0  0
  7 19  1  0  0  0  0
  8 13  1  0  0  0  0
  8  9  1  0  0  0  0
  8 20  1  0  0  0  0
  9 10  1  0  0  0  0
  9 21  1  0  0  0  0
  9 22  1  0  0  0  0
 10 14  1  0  0  0  0
 10 11  1  0  0  0  0
 10 23  1  0  0  0  0
 11 12  1  0  0  0  0
 11 24  1  0  0  0  0
 11 25  1  0  0  0  0
 12 13  1  0  0  0  0
 12 26  1  0  0  0  0
 12 27  1  0  0  0  0
 13 14  1  0  0  0  0
 13 28  1  0  0  0  0
 15 16  1  0  0  0  0
M  CHG  1   3  -1
M  CHG  1   4   1
M  END
> <s_m_source_file>
AV-unprocessed.smi

> <i_m_source_file_index>
2886

> <i_lp_mmshare_version>
43012

> <i_f3d_flags>
0

> <s_epik_input>
Tz1jMVtuSF1uW2NIXWMoYzFDbClbTkhdW0NASF0oW0NIMl1bQ0BASF0yMylbQ0BASF0oTzMpW0NIMl1bQ0gyXTI=

> <s_epik_cmdline>
J2VwaWtfcHl0aG9uJywgJy1waCcsICc3LjAnLCAnLXRuJywgJzgnLCAnLW1hJywgJzIwMCcsICctbWV0YWxfYmluZGluZycsICctaW1hZScsICc8aW5maWxlLm1hZT4nLCAnLW9tYWUnLCAnPG91dGZpbGUubWFlPic=

> <r_lp_tautomer_probability>
0.0138196

> <r_epik_Ionization_Penalty>
2.43027

> <r_epik_Ionization_Penalty_Charging>
2.43027

> <r_epik_Ionization_Penalty_Neutral>
1.33267e-06

> <r_epik_State_Penalty>
2.7044

> <r_epik_Charging_Adjusted_Penalty>
5.13467

> <i_epik_Tot_Q>
0

> <i_epik_Tot_abs_Q>
2

> <r_epik_Metal_State_Penalty>
2.98589

> <b_epik_Metal_Only>
0

> <s_lp_Force_Field>
OPLS_2005

> <r_lp_Energy>
57.8079

> <b_lp_Chiralities_Consistent>
1

> <s_lp_Variant>
AV-unprocessed.smi:2886-7

> <Gold.Version>
5.8.1

> <Gold.Id.Protein>
6NUR|6NUR_protein|mol2

> <Gold.PLP.Fitness>
27.7157

> <Gold.PLP.PLP>
-17.7357

> <Gold.PLP.part.hbond>
-4.0000

> <Gold.PLP.part.metal>
0.0000

> <Gold.PLP.part.buried>
1.4781

> <Gold.PLP.part.nonpolar>
-15.9047

> <Gold.PLP.part.repulsive>
0.4449

> <Gold.PLP.ligand.clash>
0.0000

> <Gold.PLP.ligand.torsion>
0.2121

> <Gold.PLP.Chemscore.Hbond>
3.4650

> <Gold.PLP.Chemscore.CHOScore>
0.0000

> <Gold.PLP.Chemscore.Metal>
0.0000

> <Gold.Chemscore.Hbonds>
donor molecule, donor type, donor heavy atom, donor atom, acceptor molecule, acceptor atom, score
      L1  H     4    17       P1  7948  1.55
      P1  H  6896  6907       L1     1  1.00
      P1  H  7989  7998       L1    14  0.06
      P1  H  8011  8017       L1    14  0.74

> <Gold.PLP.Chemscore.Internal.Correction>
0.0093

> <Gold.Rescore>
     Score         DG    S(hbond)    S(metal)    S(lipo)     H(rot)  DE(clash)    DE(int)     intcor
     14.47     -16.97       2.37        0.00      52.47       1.00       1.43       1.06       ----

> <Gold.Chemscore.Fitness>
14.4709

> <Gold.Chemscore.DG>
-16.9679

> <Gold.Chemscore.ZeroCoef>
-5.4800

> <Gold.Chemscore.Hbond>
2.3679

> <Gold.Chemscore.Metal>
0.0000

> <Gold.Chemscore.Lipo>
52.4715

> <Gold.Chemscore.Internal_Hbond>
0.0000

> <Gold.Chemscore.DEClash>
1.4341

> <Gold.Chemscore.DEInternal>
1.0629

> <Gold.Chemscore.Rot>
1.0000

> <Gold.Chemscore.Internal.Correction>
   9.000000E+99

> <Gold.Chemscore.Hbonds>
donor molecule, donor type, donor heavy atom, donor atom, acceptor molecule, acceptor atom, score
      L1  H     4    17       P1  7948  0.17
      P1  H  6896  6907       L1     1  0.94
      P1  H  8011  8017       L1    14  0.71

> <Gold.Chemscore.Hbond.Weighted>
-7.9087

> <Gold.Chemscore.Metal.Weighted>
-0.0000

> <Gold.Chemscore.Lipo.Weighted>
-6.1392

> <Gold.Chemscore.Internal_Hbond.Weighted>
0.0000

> <Gold.Chemscore.DEClash.Weighted>
1.4341

> <Gold.Chemscore.DEInternal.Weighted>
1.0629

> <Gold.Chemscore.Rot.Weighted>
2.5600

> <Gold.Chemscore.Internal.Correction.Weighted>
   9.000000E+99

> <Gold.Protein.RotatedTorsions>
[ 6907 6896 6895 6894 ] final -108.28 input  -60.11 | X-H torsion
[ 7974 7965 7964 7962 ] final -176.64 input  175.53 | X-H torsion
[ 8008 7997 7996 7995 ] final  105.36 input   59.86 | X-H torsion
[ 10167 10162 10161 10158 ] final   69.24 input  -65.29 | X-H torsion
[ 10718 10713 10712 10709 ] final   15.37 input   66.30 | X-H torsion
[ 10763 10752 10751 10750 ] final  106.13 input  -60.55 | X-H torsion
[ 11005 11000 10999 10996 ] final -175.37 input  -57.11 | X-H torsion

> <Gold.Protein.ActiveResidues>
 VAL166  LYS551  ARG553  GLY616  TRP617  ASP618  TYR619  PRO620  LYS621  CYS622 
 ASP623  PHE694  ASN695  SER759  ASP760  ASP761  ALA762  ILE779  LEU786  VAL792 
 PHE793  MET794  SER795  GLU796  ALA797  LYS798  CYS799  TRP800  GLU811  SER814 

> <Gold.Protein.RotatedAtoms>
  150.7492  133.9701  159.3542 H   0  0  0  0  0  0  0  0  0  0  0  0  # atno 6907 bound_to 6896
  151.7634  135.0802  160.0358 H   0  0  0  0  0  0  0  0  0  0  0  0  # atno 6908 bound_to 6896
  152.3388  133.6006  159.5897 H   0  0  0  0  0  0  0  0  0  0  0  0  # atno 6909 bound_to 6896
  144.7127  140.1140  143.6409 H   0  0  0  0  0  0  0  0  0  0  0  0  # atno 7974 bound_to 7965
  156.1653  140.3132  155.8877 H   0  0  0  0  0  0  0  0  0  0  0  0  # atno 8008 bound_to 7997
  155.3700  140.0481  157.3062 H   0  0  0  0  0  0  0  0  0  0  0  0  # atno 8009 bound_to 7997
  154.5186  140.2190  155.9030 H   0  0  0  0  0  0  0  0  0  0  0  0  # atno 8010 bound_to 7997
  140.0699  144.5161  150.7234 H   0  0  0  0  0  0  0  0  0  0  0  0  # atno 10167 bound_to 10162
  157.0526  130.6276  149.5770 H   0  0  0  0  0  0  0  0  0  0  0  0  # atno 10718 bound_to 10713
  153.3888  135.3887  155.1908 H   0  0  0  0  0  0  0  0  0  0  0  0  # atno 10763 bound_to 10752
  154.8717  135.3743  154.4764 H   0  0  0  0  0  0  0  0  0  0  0  0  # atno 10764 bound_to 10752
  153.5248  135.7086  153.5774 H   0  0  0  0  0  0  0  0  0  0  0  0  # atno 10765 bound_to 10752
  140.4640  134.6228  157.4854 H   0  0  0  0  0  0  0  0  0  0  0  0  # atno 11005 bound_to 11000
  145.9430  139.2681  143.1257 LP  0  0  0  0  0  0  0  0  0  0  0  0  # atno 17320 bound_to 7965
  145.9404  140.8984  143.0311 LP  0  0  0  0  0  0  0  0  0  0  0  0  # atno 17321 bound_to 7965
  140.7131  143.2521  151.4521 LP  0  0  0  0  0  0  0  0  0  0  0  0  # atno 17342 bound_to 10162
  139.5842  144.1641  152.2008 LP  0  0  0  0  0  0  0  0  0  0  0  0  # atno 17343 bound_to 10162
  156.0003  130.5080  150.7637 LP  0  0  0  0  0  0  0  0  0  0  0  0  # atno 17370 bound_to 10713
  157.5018  131.0919  151.0305 LP  0  0  0  0  0  0  0  0  0  0  0  0  # atno 17371 bound_to 10713
  139.9927  134.6960  155.9662 LP  0  0  0  0  0  0  0  0  0  0  0  0  # atno 17394 bound_to 11000
  141.1608  133.6539  156.4312 LP  0  0  0  0  0  0  0  0  0  0  0  0  # atno 17395 bound_to 11000

$$$$
