AV-unprocessed.smi:2593|AV-procd|sdf|10163|dock3
  -GOLD-   2272014173D 1   1.00000     0.00000
 Structure written by MMmdl.
 40 42  0  0  0  0  0  0  0  0  1 V2000
  154.0067  136.9819  163.2474 C   0  0  0  0  0  0  0  0  0  0  0  0
  154.3022  137.9584  162.2651 O   0  0  0  0  0  0  0  0  0  0  0  0
  154.9169  139.1133  162.8134 C   0  0  0  0  0  0  0  0  0  0  0  0
  155.0496  140.1908  161.7284 C   0  0  0  0  0  0  0  0  0  0  0  0
  154.2637  141.3763  162.0366 N   0  0  0  0  0  0  0  0  0  0  0  0
  154.2091  142.0556  163.2075 C   0  0  0  0  0  0  0  0  0  0  0  0
  155.1514  141.5734  164.6133 S   0  0  0  0  0  0  0  0  0  0  0  0
  155.1764  143.1865  165.4398 C   0  0  0  0  0  0  0  0  0  0  0  0
  155.3855  142.9932  166.9277 C   0  0  0  0  0  0  0  0  0  0  0  0
  155.1519  141.7378  167.5282 C   0  0  0  0  0  0  0  0  0  0  0  0
  155.3549  141.6110  168.9157 C   0  0  0  0  0  0  0  0  0  0  0  0
  155.7798  142.7381  169.6452 C   0  0  0  0  0  0  0  0  0  0  0  0
  155.9836  143.9491  168.9525 C   0  0  0  0  0  0  0  0  0  0  0  0
  156.4013  145.0852  169.6408 N   0  0  0  0  0  0  0  0  0  0  0  0
  155.7926  144.0798  167.6222 N   0  0  0  0  0  0  0  0  0  0  0  0
  153.3986  143.1134  163.2273 N   0  0  0  0  0  0  0  0  0  0  0  0
  152.8862  143.1274  161.9446 C   0  0  0  0  0  0  0  0  0  0  0  0
  151.9688  144.0109  161.3316 C   0  0  0  0  0  0  0  0  0  0  0  0
  151.5894  143.8251  159.9862 C   0  0  0  0  0  0  0  0  0  0  0  0
  152.1216  142.7570  159.2354 C   0  0  0  0  0  0  0  0  0  0  0  0
  153.0359  141.8644  159.8273 C   0  0  0  0  0  0  0  0  0  0  0  0
  153.4099  142.0529  161.1713 C   0  0  0  0  0  0  0  0  0  0  0  0
  153.5347  136.1198  162.7763 H   0  0  0  0  0  0  0  0  0  0  0  0
  153.3196  137.3736  163.9984 H   0  0  0  0  0  0  0  0  0  0  0  0
  154.9136  136.6383  163.7464 H   0  0  0  0  0  0  0  0  0  0  0  0
  154.3204  139.4958  163.6427 H   0  0  0  0  0  0  0  0  0  0  0  0
  155.9011  138.8599  163.2105 H   0  0  0  0  0  0  0  0  0  0  0  0
  156.0943  140.4831  161.6204 H   0  0  0  0  0  0  0  0  0  0  0  0
  154.7414  139.7983  160.7590 H   0  0  0  0  0  0  0  0  0  0  0  0
  155.9805  143.7975  165.0283 H   0  0  0  0  0  0  0  0  0  0  0  0
  154.2381  143.7094  165.2496 H   0  0  0  0  0  0  0  0  0  0  0  0
  154.8232  140.8934  166.9404 H   0  0  0  0  0  0  0  0  0  0  0  0
  155.1861  140.6667  169.4118 H   0  0  0  0  0  0  0  0  0  0  0  0
  155.9436  142.6705  170.7108 H   0  0  0  0  0  0  0  0  0  0  0  0
  156.5656  145.0691  170.6369 H   0  0  0  0  0  0  0  0  0  0  0  0
  156.5278  145.9688  169.1685 H   0  0  0  0  0  0  0  0  0  0  0  0
  151.5571  144.8334  161.8975 H   0  0  0  0  0  0  0  0  0  0  0  0
  150.8878  144.5063  159.5274 H   0  0  0  0  0  0  0  0  0  0  0  0
  151.8279  142.6233  158.2045 H   0  0  0  0  0  0  0  0  0  0  0  0
  153.4473  141.0470  159.2541 H   0  0  0  0  0  0  0  0  0  0  0  0
  1  2  1  0  0  0  0
  1 23  1  0  0  0  0
  1 24  1  0  0  0  0
  1 25  1  0  0  0  0
  2  3  1  0  0  0  0
  3  4  1  0  0  0  0
  3 26  1  0  0  0  0
  3 27  1  0  0  0  0
  4  5  1  0  0  0  0
  4 28  1  0  0  0  0
  4 29  1  0  0  0  0
  5 22  1  0  0  0  0
  5  6  1  0  0  0  0
  6  7  1  0  0  0  0
  6 16  2  0  0  0  0
  7  8  1  0  0  0  0
  8  9  1  0  0  0  0
  8 30  1  0  0  0  0
  8 31  1  0  0  0  0
  9 15  1  0  0  0  0
  9 10  2  0  0  0  0
 10 11  1  0  0  0  0
 10 32  1  0  0  0  0
 11 12  2  0  0  0  0
 11 33  1  0  0  0  0
 12 13  1  0  0  0  0
 12 34  1  0  0  0  0
 13 14  1  0  0  0  0
 13 15  2  0  0  0  0
 14 35  1  0  0  0  0
 14 36  1  0  0  0  0
 16 17  1  0  0  0  0
 17 22  2  0  0  0  0
 17 18  1  0  0  0  0
 18 19  2  0  0  0  0
 18 37  1  0  0  0  0
 19 20  1  0  0  0  0
 19 38  1  0  0  0  0
 20 21  2  0  0  0  0
 20 39  1  0  0  0  0
 21 22  1  0  0  0  0
 21 40  1  0  0  0  0
M  END
> <s_m_source_file>
AV-unprocessed.smi

> <i_m_source_file_index>
2593

> <i_lp_mmshare_version>
43012

> <i_f3d_flags>
0

> <s_epik_input>
W2NIXTFbY0hdW2NIXVtjSF1jKGMxMiluKFtDSDJdW0NIMl1PW0NIM10pYyhuMilTW0NIMl1jM1tjSF1bY0hdW2NIXWMobjMpW05IMl0=

> <s_epik_cmdline>
J2VwaWtfcHl0aG9uJywgJy1waCcsICc3LjAnLCAnLXRuJywgJzgnLCAnLW1hJywgJzIwMCcsICctbWV0YWxfYmluZGluZycsICctaW1hZScsICc8aW5maWxlLm1hZT4nLCAnLW9tYWUnLCAnPG91dGZpbGUubWFlPic=

> <r_lp_tautomer_probability>
1

> <r_epik_Ionization_Penalty>
0.0555631

> <r_epik_Ionization_Penalty_Charging>
0

> <r_epik_Ionization_Penalty_Neutral>
0.0555631

> <r_epik_State_Penalty>
0.0451694

> <r_epik_Charging_Adjusted_Penalty>
0.0451694

> <i_epik_Tot_Q>
0

> <i_epik_Tot_abs_Q>
0

> <r_epik_Metal_State_Penalty>
0.0431775

> <b_epik_Metal_Only>
0

> <s_lp_Force_Field>
OPLS_2005

> <r_lp_Energy>
6.83129

> <b_lp_Chiralities_Consistent>
1

> <s_lp_Variant>
AV-unprocessed.smi:2593-1

> <Gold.Version>
5.8.1

> <Gold.Id.Protein>
6NUR|6NUR_protein|mol2

> <Gold.PLP.Fitness>
49.1611

> <Gold.PLP.PLP>
-51.5252

> <Gold.PLP.part.hbond>
-1.0000

> <Gold.PLP.part.metal>
0.0000

> <Gold.PLP.part.buried>
-3.3601

> <Gold.PLP.part.nonpolar>
-46.3522

> <Gold.PLP.part.repulsive>
0.2514

> <Gold.PLP.ligand.clash>
0.0000

> <Gold.PLP.ligand.torsion>
1.2281

> <Gold.PLP.Chemscore.Hbond>
0.0000

> <Gold.PLP.Chemscore.CHOScore>
0.0000

> <Gold.PLP.Chemscore.Metal>
0.0000

> <Gold.PLP.Chemscore.Internal.Correction>
0.0920

> <Gold.Rescore>
     Score         DG    S(hbond)    S(metal)    S(lipo)     H(rot)  DE(clash)    DE(int)     intcor
     14.08     -15.33       0.00        0.00     130.73       2.13       0.19       1.07       ----

> <Gold.Chemscore.Fitness>
14.0751

> <Gold.Chemscore.DG>
-15.3327

> <Gold.Chemscore.ZeroCoef>
-5.4800

> <Gold.Chemscore.Hbond>
0.0000

> <Gold.Chemscore.Metal>
0.0000

> <Gold.Chemscore.Lipo>
130.7283

> <Gold.Chemscore.Internal_Hbond>
0.0000

> <Gold.Chemscore.DEClash>
0.1882

> <Gold.Chemscore.DEInternal>
1.0693

> <Gold.Chemscore.Rot>
2.1260

> <Gold.Chemscore.Internal.Correction>
   9.000000E+99

> <Gold.Chemscore.Hbond.Weighted>
-0.0000

> <Gold.Chemscore.Metal.Weighted>
-0.0000

> <Gold.Chemscore.Lipo.Weighted>
-15.2952

> <Gold.Chemscore.Internal_Hbond.Weighted>
0.0000

> <Gold.Chemscore.DEClash.Weighted>
0.1882

> <Gold.Chemscore.DEInternal.Weighted>
1.0693

> <Gold.Chemscore.Rot.Weighted>
5.4425

> <Gold.Chemscore.Internal.Correction.Weighted>
   9.000000E+99

> <Gold.Protein.RotatedTorsions>
[ 6907 6896 6895 6894 ] final    4.00 input  -60.11 | X-H torsion
[ 7974 7965 7964 7962 ] final  111.52 input  175.53 | X-H torsion
[ 8008 7997 7996 7995 ] final -119.53 input   59.86 | X-H torsion
[ 10167 10162 10161 10158 ] final   53.73 input  -65.29 | X-H torsion
[ 10718 10713 10712 10709 ] final  -85.43 input   66.30 | X-H torsion
[ 10763 10752 10751 10750 ] final  -41.69 input  -60.55 | X-H torsion
[ 11005 11000 10999 10996 ] final  108.35 input  -57.11 | X-H torsion

> <Gold.Protein.ActiveResidues>
 VAL166  LYS551  ARG553  GLY616  TRP617  ASP618  TYR619  PRO620  LYS621  CYS622 
 ASP623  PHE694  ASN695  SER759  ASP760  ASP761  ALA762  ILE779  LEU786  VAL792 
 PHE793  MET794  SER795  GLU796  ALA797  LYS798  CYS799  TRP800  GLU811  SER814 

> <Gold.Protein.RotatedAtoms>
  151.6342  135.1020  160.0127 H   0  0  0  0  0  0  0  0  0  0  0  0  # atno 6907 bound_to 6896
  152.4090  133.6929  159.6389 H   0  0  0  0  0  0  0  0  0  0  0  0  # atno 6908 bound_to 6896
  150.7981  133.8575  159.3263 H   0  0  0  0  0  0  0  0  0  0  0  0  # atno 6909 bound_to 6896
  145.2411  139.2778  143.4117 H   0  0  0  0  0  0  0  0  0  0  0  0  # atno 7974 bound_to 7965
  155.1173  140.0398  157.2740 H   0  0  0  0  0  0  0  0  0  0  0  0  # atno 8008 bound_to 7997
  154.6640  140.2597  155.7052 H   0  0  0  0  0  0  0  0  0  0  0  0  # atno 8009 bound_to 7997
  156.2631  140.2811  156.1123 H   0  0  0  0  0  0  0  0  0  0  0  0  # atno 8010 bound_to 7997
  140.2377  144.3618  150.6391 H   0  0  0  0  0  0  0  0  0  0  0  0  # atno 10167 bound_to 10162
  155.9997  130.4730  150.4560 H   0  0  0  0  0  0  0  0  0  0  0  0  # atno 10718 bound_to 10713
  153.9667  135.6733  153.4746 H   0  0  0  0  0  0  0  0  0  0  0  0  # atno 10763 bound_to 10752
  153.0812  135.4922  154.8503 H   0  0  0  0  0  0  0  0  0  0  0  0  # atno 10764 bound_to 10752
  154.7242  135.3124  154.8958 H   0  0  0  0  0  0  0  0  0  0  0  0  # atno 10765 bound_to 10752
  139.8842  134.9428  156.5959 H   0  0  0  0  0  0  0  0  0  0  0  0  # atno 11005 bound_to 11000
  146.3328  140.2775  142.8608 LP  0  0  0  0  0  0  0  0  0  0  0  0  # atno 17320 bound_to 7965
  144.9588  140.8254  143.5526 LP  0  0  0  0  0  0  0  0  0  0  0  0  # atno 17321 bound_to 7965
  140.6138  143.2171  151.6834 LP  0  0  0  0  0  0  0  0  0  0  0  0  # atno 17342 bound_to 10162
  139.5088  144.3598  152.0573 LP  0  0  0  0  0  0  0  0  0  0  0  0  # atno 17343 bound_to 10162
  157.2589  131.0562  151.2333 LP  0  0  0  0  0  0  0  0  0  0  0  0  # atno 17370 bound_to 10713
  157.3454  130.7055  149.6407 LP  0  0  0  0  0  0  0  0  0  0  0  0  # atno 17371 bound_to 10713
  140.7920  133.8574  155.8654 LP  0  0  0  0  0  0  0  0  0  0  0  0  # atno 17394 bound_to 11000
  140.9668  134.1583  157.4609 LP  0  0  0  0  0  0  0  0  0  0  0  0  # atno 17395 bound_to 11000

$$$$
