AV-unprocessed.smi:2269|AV-procd|sdf|9153|dock4
  -GOLD-   2272012363D 1   1.00000     0.00000
 Structure written by MMmdl.
 41 42  0  0  0  0  0  0  0  0  1 V2000
  152.0937  143.3958  160.5280 C   0  0  0  0  0  0  0  0  0  0  0  0
  152.0343  142.0937  159.7487 C   0  0  0  0  0  0  0  0  0  0  0  0
  150.8321  141.8447  159.0798 N   0  0  0  0  0  0  0  0  0  0  0  0
  150.6915  140.7612  158.3887 C   0  0  0  0  0  0  0  0  0  0  0  0
  151.7225  139.8138  158.2852 N   0  0  0  0  0  0  0  0  0  0  0  0
  151.4331  138.6217  157.4729 C   0  0  0  0  0  0  0  0  0  0  0  0
  150.6256  137.5644  158.2610 C   0  0  1  0  0  0  0  0  0  0  0  0
  151.3707  137.1722  159.3960 O   0  0  0  0  0  0  0  0  0  0  0  0
  149.2866  138.1225  158.7638 C   0  0  0  0  0  0  0  0  0  0  0  0
  148.7971  137.2603  159.7805 O   0  0  0  0  0  0  0  0  0  0  0  0
  147.4617  136.8226  159.5783 C   0  0  0  0  0  0  0  0  0  0  0  0
  147.1444  135.5210  160.3001 C   0  0  0  0  0  0  0  0  0  0  0  0
  146.9882  134.3350  159.5506 C   0  0  0  0  0  0  0  0  0  0  0  0
  146.6930  133.1183  160.1948 C   0  0  0  0  0  0  0  0  0  0  0  0
  146.5492  133.0805  161.5941 C   0  0  0  0  0  0  0  0  0  0  0  0
  146.6984  134.2603  162.3474 C   0  0  0  0  0  0  0  0  0  0  0  0
  146.9934  135.4809  161.7074 C   0  0  0  0  0  0  0  0  0  0  0  0
  147.1609  136.9078  162.6697 Cl  0  0  0  0  0  0  0  0  0  0  0  0
  152.9234  139.9731  158.9133 C   0  0  0  0  0  0  0  0  0  0  0  0
  153.8152  139.1265  158.8289 O   0  0  0  0  0  0  0  0  0  0  0  0
  153.0702  141.2125  159.6934 C   0  0  0  0  0  0  0  0  0  0  0  0
  154.4013  141.4295  160.4026 C   0  0  0  0  0  0  0  0  0  0  0  0
  152.2680  143.2000  161.5863 H   0  0  0  0  0  0  0  0  0  0  0  0
  151.1607  143.9539  160.4409 H   0  0  0  0  0  0  0  0  0  0  0  0
  152.8975  144.0294  160.1523 H   0  0  0  0  0  0  0  0  0  0  0  0
  149.7729  140.5167  157.8522 H   0  0  0  0  0  0  0  0  0  0  0  0
  150.9328  138.8709  156.5343 H   0  0  0  0  0  0  0  0  0  0  0  0
  152.3840  138.1936  157.1512 H   0  0  0  0  0  0  0  0  0  0  0  0
  150.4304  136.6788  157.6546 H   0  0  0  0  0  0  0  0  0  0  0  0
  151.6435  137.9492  159.8597 H   0  0  0  0  0  0  0  0  0  0  0  0
  149.4215  139.1204  159.1842 H   0  0  0  0  0  0  0  0  0  0  0  0
  148.5809  138.2080  157.9359 H   0  0  0  0  0  0  0  0  0  0  0  0
  146.7919  137.5933  159.9599 H   0  0  0  0  0  0  0  0  0  0  0  0
  147.2523  136.7386  158.5108 H   0  0  0  0  0  0  0  0  0  0  0  0
  147.0976  134.3525  158.4762 H   0  0  0  0  0  0  0  0  0  0  0  0
  146.5771  132.2144  159.6150 H   0  0  0  0  0  0  0  0  0  0  0  0
  146.3228  132.1477  162.0894 H   0  0  0  0  0  0  0  0  0  0  0  0
  146.5844  134.2280  163.4209 H   0  0  0  0  0  0  0  0  0  0  0  0
  155.2151  141.4460  159.6770 H   0  0  0  0  0  0  0  0  0  0  0  0
  154.5903  140.6163  161.1039 H   0  0  0  0  0  0  0  0  0  0  0  0
  154.4428  142.3618  160.9634 H   0  0  0  0  0  0  0  0  0  0  0  0
  1  2  1  0  0  0  0
  1 23  1  0  0  0  0
  1 24  1  0  0  0  0
  1 25  1  0  0  0  0
  2 21  2  0  0  0  0
  2  3  1  0  0  0  0
  3  4  2  0  0  0  0
  4  5  1  0  0  0  0
  4 26  1  0  0  0  0
  5  6  1  0  0  0  0
  5 19  1  0  0  0  0
  6  7  1  0  0  0  0
  6 27  1  0  0  0  0
  6 28  1  0  0  0  0
  7  8  1  0  0  0  0
  7  9  1  0  0  0  0
  7 29  1  0  0  0  0
  8 30  1  0  0  0  0
  9 10  1  0  0  0  0
  9 31  1  0  0  0  0
  9 32  1  0  0  0  0
 10 11  1  0  0  0  0
 11 12  1  0  0  0  0
 11 33  1  0  0  0  0
 11 34  1  0  0  0  0
 12 17  1  0  0  0  0
 12 13  2  0  0  0  0
 13 14  1  0  0  0  0
 13 35  1  0  0  0  0
 14 15  2  0  0  0  0
 14 36  1  0  0  0  0
 15 16  1  0  0  0  0
 15 37  1  0  0  0  0
 16 17  2  0  0  0  0
 16 38  1  0  0  0  0
 17 18  1  0  0  0  0
 19 20  2  0  0  0  0
 19 21  1  0  0  0  0
 21 22  1  0  0  0  0
 22 39  1  0  0  0  0
 22 40  1  0  0  0  0
 22 41  1  0  0  0  0
M  END
> <s_m_source_file>
AV-unprocessed.smi

> <i_m_source_file_index>
2269

> <i_lp_mmshare_version>
43012

> <i_f3d_flags>
0

> <s_epik_input>
W0NIM11jMW5bY0hdbihjKD1PKWMxW0NIM10pW0NIMl1bQ0BIXShbT0hdKVtDSDJdT1tDSDJdYzJbY0hdW2NIXVtjSF1bY0hdYzJDbA==

> <s_epik_cmdline>
J2VwaWtfcHl0aG9uJywgJy1waCcsICc3LjAnLCAnLXRuJywgJzgnLCAnLW1hJywgJzIwMCcsICctbWV0YWxfYmluZGluZycsICctaW1hZScsICc8aW5maWxlLm1hZT4nLCAnLW9tYWUnLCAnPG91dGZpbGUubWFlPic=

> <r_lp_tautomer_probability>
1

> <r_epik_Ionization_Penalty>
5.36022e-05

> <r_epik_Ionization_Penalty_Charging>
1.17753e-07

> <r_epik_Ionization_Penalty_Neutral>
5.34845e-05

> <r_epik_State_Penalty>
-0

> <r_epik_Charging_Adjusted_Penalty>
1.17753e-07

> <i_epik_Tot_Q>
0

> <i_epik_Tot_abs_Q>
0

> <r_epik_Metal_State_Penalty>
-0

> <b_epik_Metal_Only>
0

> <s_lp_Force_Field>
OPLS_2005

> <r_lp_Energy>
21.6364

> <b_lp_Chiralities_Consistent>
1

> <s_lp_Variant>
AV-unprocessed.smi:2269-2

> <Gold.Version>
5.8.1

> <Gold.Id.Protein>
6NUR|6NUR_protein|mol2

> <Gold.PLP.Fitness>
49.0905

> <Gold.PLP.PLP>
-44.6725

> <Gold.PLP.part.hbond>
-3.6256

> <Gold.PLP.part.metal>
0.0000

> <Gold.PLP.part.buried>
-4.7237

> <Gold.PLP.part.nonpolar>
-35.8661

> <Gold.PLP.part.repulsive>
0.0000

> <Gold.PLP.ligand.clash>
0.0000

> <Gold.PLP.ligand.torsion>
1.0584

> <Gold.PLP.Chemscore.Hbond>
2.1357

> <Gold.PLP.Chemscore.CHOScore>
0.0000

> <Gold.PLP.Chemscore.Metal>
0.0000

> <Gold.Chemscore.Hbonds>
donor molecule, donor type, donor heavy atom, donor atom, acceptor molecule, acceptor atom, score
      P1  H  6896  6907       L1     8  0.80
      P1  H  6931  6943       L1    10  0.11
      P1  H  7997  8008       L1    20  0.70

> <Gold.PLP.Chemscore.Internal.Correction>
0.1275

> <Gold.Rescore>
     Score         DG    S(hbond)    S(metal)    S(lipo)     H(rot)  DE(clash)    DE(int)     intcor
     15.96     -18.21       1.86        0.00     110.71       2.52       0.09       2.17       ----

> <Gold.Chemscore.Fitness>
15.9603

> <Gold.Chemscore.DG>
-18.2135

> <Gold.Chemscore.ZeroCoef>
-5.4800

> <Gold.Chemscore.Hbond>
1.8626

> <Gold.Chemscore.Metal>
0.0000

> <Gold.Chemscore.Lipo>
110.7147

> <Gold.Chemscore.Internal_Hbond>
0.0000

> <Gold.Chemscore.DEClash>
0.0876

> <Gold.Chemscore.DEInternal>
2.1655

> <Gold.Chemscore.Rot>
2.5162

> <Gold.Chemscore.Internal.Correction>
   9.000000E+99

> <Gold.Chemscore.Hbonds>
donor molecule, donor type, donor heavy atom, donor atom, acceptor molecule, acceptor atom, score
      P1  H  6896  6907       L1     8  0.77
      P1  H  6931  6943       L1    10  0.07
      P1  H  7997  8008       L1    20  0.21

> <Gold.Chemscore.Hbond.Weighted>
-6.2212

> <Gold.Chemscore.Metal.Weighted>
-0.0000

> <Gold.Chemscore.Lipo.Weighted>
-12.9536

> <Gold.Chemscore.Internal_Hbond.Weighted>
0.0000

> <Gold.Chemscore.DEClash.Weighted>
0.0876

> <Gold.Chemscore.DEInternal.Weighted>
2.1655

> <Gold.Chemscore.Rot.Weighted>
6.4414

> <Gold.Chemscore.Internal.Correction.Weighted>
   9.000000E+99

> <Gold.Protein.RotatedTorsions>
[ 6907 6896 6895 6894 ] final    5.72 input  -60.11 | X-H torsion
[ 7974 7965 7964 7962 ] final  124.02 input  175.53 | X-H torsion
[ 8008 7997 7996 7995 ] final -118.56 input   59.86 | X-H torsion
[ 10167 10162 10161 10158 ] final    4.12 input  -65.29 | X-H torsion
[ 10718 10713 10712 10709 ] final   79.44 input   66.30 | X-H torsion
[ 10763 10752 10751 10750 ] final  -36.16 input  -60.55 | X-H torsion
[ 11005 11000 10999 10996 ] final  -68.67 input  -57.11 | X-H torsion

> <Gold.Protein.ActiveResidues>
 VAL166  LYS551  ARG553  GLY616  TRP617  ASP618  TYR619  PRO620  LYS621  CYS622 
 ASP623  PHE694  ASN695  SER759  ASP760  ASP761  ALA762  ILE779  LEU786  VAL792 
 PHE793  MET794  SER795  GLU796  ALA797  LYS798  CYS799  TRP800  GLU811  SER814 

> <Gold.Protein.RotatedAtoms>
  151.6620  135.0988  160.0181 H   0  0  0  0  0  0  0  0  0  0  0  0  # atno 6907 bound_to 6896
  152.3941  133.6717  159.6270 H   0  0  0  0  0  0  0  0  0  0  0  0  # atno 6908 bound_to 6896
  150.7851  133.8821  159.3330 H   0  0  0  0  0  0  0  0  0  0  0  0  # atno 6909 bound_to 6896
  145.0892  139.3599  143.4869 H   0  0  0  0  0  0  0  0  0  0  0  0  # atno 7974 bound_to 7965
  155.1016  140.0396  157.2698 H   0  0  0  0  0  0  0  0  0  0  0  0  # atno 8008 bound_to 7997
  154.6753  140.2621  155.6938 H   0  0  0  0  0  0  0  0  0  0  0  0  # atno 8009 bound_to 7997
  156.2674  140.2789  156.1278 H   0  0  0  0  0  0  0  0  0  0  0  0  # atno 8010 bound_to 7997
  140.6551  143.7448  150.7639 H   0  0  0  0  0  0  0  0  0  0  0  0  # atno 10167 bound_to 10162
  157.6777  130.9914  150.1933 H   0  0  0  0  0  0  0  0  0  0  0  0  # atno 10718 bound_to 10713
  153.8752  135.6827  153.4771 H   0  0  0  0  0  0  0  0  0  0  0  0  # atno 10763 bound_to 10752
  153.1265  135.4717  154.9278 H   0  0  0  0  0  0  0  0  0  0  0  0  # atno 10764 bound_to 10752
  154.7695  135.3234  154.8169 H   0  0  0  0  0  0  0  0  0  0  0  0  # atno 10765 bound_to 10752
  141.1537  133.6746  156.6482 H   0  0  0  0  0  0  0  0  0  0  0  0  # atno 11005 bound_to 11000
  146.3531  140.0718  142.8623 LP  0  0  0  0  0  0  0  0  0  0  0  0  # atno 17320 bound_to 7965
  145.1086  140.9391  143.4670 LP  0  0  0  0  0  0  0  0  0  0  0  0  # atno 17321 bound_to 7965
  140.1106  143.4703  152.2372 LP  0  0  0  0  0  0  0  0  0  0  0  0  # atno 17342 bound_to 10162
  139.5772  144.7493  151.3734 LP  0  0  0  0  0  0  0  0  0  0  0  0  # atno 17343 bound_to 10162
  156.2640  130.3714  149.8101 LP  0  0  0  0  0  0  0  0  0  0  0  0  # atno 17370 bound_to 10713
  156.5837  130.8477  151.3390 LP  0  0  0  0  0  0  0  0  0  0  0  0  # atno 17371 bound_to 10713
  140.3341  134.7904  157.4348 LP  0  0  0  0  0  0  0  0  0  0  0  0  # atno 17394 bound_to 11000
  140.0992  134.5495  155.8369 LP  0  0  0  0  0  0  0  0  0  0  0  0  # atno 17395 bound_to 11000

$$$$
