AV-unprocessed.smi:3330|AV-procd|sdf|12801|dock3
  -GOLD-   2272019163D 1   1.00000     0.00000
 Structure written by MMmdl.
 39 40  0  0  0  0  0  0  0  0  2 V2000
  153.3013  139.7382  160.2326 C   0  0  0  0  0  0  0  0  0  0  0  0
  152.6253  141.0398  159.7644 C   0  0  2  0  0  0  0  0  0  0  0  0
  152.6681  141.1261  158.2871 N   0  3  0  0  0  0  0  0  0  0  0  0
  151.6782  140.2994  157.5654 C   0  0  0  0  0  0  0  0  0  0  0  0
  151.6346  140.6545  156.0679 C   0  0  0  0  0  0  0  0  0  0  0  0
  151.6584  139.4632  155.2078 N   0  0  0  0  0  0  0  0  0  0  0  0
  152.6416  138.5532  155.2170 C   0  0  0  0  0  0  0  0  0  0  0  0
  153.6478  138.5483  155.9248 O   0  0  0  0  0  0  0  0  0  0  0  0
  152.3162  137.4825  154.1986 C   0  0  0  0  0  0  0  0  0  0  0  0
  151.0493  137.9920  153.7204 N   0  0  0  0  0  0  0  0  0  0  0  0
  150.6963  139.1331  154.3259 C   0  0  0  0  0  0  0  0  0  0  0  0
  149.6556  139.7540  154.1163 O   0  0  0  0  0  0  0  0  0  0  0  0
  153.2761  142.3094  160.3778 C   0  0  2  0  0  0  0  0  0  0  0  0
  153.1905  142.3516  161.9148 C   0  0  0  0  0  0  0  0  0  0  0  0
  152.7019  143.5323  159.8234 N   0  0  0  0  0  0  0  0  0  0  0  0
  152.0286  144.5358  160.4897 C   0  0  0  0  0  0  0  0  0  0  0  0
  151.6630  145.4692  159.5626 C   0  0  0  0  0  0  0  0  0  0  0  0
  152.1532  144.9391  158.3373 C   0  0  0  0  0  0  0  0  0  0  0  0
  152.7750  143.7825  158.4958 N   0  0  0  0  0  0  0  0  0  0  0  0
  153.2126  139.6039  161.3103 H   0  0  0  0  0  0  0  0  0  0  0  0
  154.3624  139.7296  159.9815 H   0  0  0  0  0  0  0  0  0  0  0  0
  152.8448  138.8627  159.7709 H   0  0  0  0  0  0  0  0  0  0  0  0
  151.5798  141.0146  160.0758 H   0  0  0  0  0  0  0  0  0  0  0  0
  152.4642  142.0870  158.0508 H   0  0  0  0  0  0  0  0  0  0  0  0
  151.9223  139.2446  157.6928 H   0  0  0  0  0  0  0  0  0  0  0  0
  150.6885  140.4511  157.9983 H   0  0  0  0  0  0  0  0  0  0  0  0
  150.7466  141.2531  155.8570 H   0  0  0  0  0  0  0  0  0  0  0  0
  152.4818  141.2971  155.8221 H   0  0  0  0  0  0  0  0  0  0  0  0
  153.0608  137.4431  153.4030 H   0  0  0  0  0  0  0  0  0  0  0  0
  152.2081  136.5022  154.6633 H   0  0  0  0  0  0  0  0  0  0  0  0
  150.4991  137.5233  153.0152 H   0  0  0  0  0  0  0  0  0  0  0  0
  154.3334  142.3098  160.1075 H   0  0  0  0  0  0  0  0  0  0  0  0
  153.7481  141.5363  162.3746 H   0  0  0  0  0  0  0  0  0  0  0  0
  152.1577  142.2866  162.2589 H   0  0  0  0  0  0  0  0  0  0  0  0
  153.6097  143.2806  162.3027 H   0  0  0  0  0  0  0  0  0  0  0  0
  151.8676  144.5046  161.5574 H   0  0  0  0  0  0  0  0  0  0  0  0
  151.1231  146.3889  159.7328 H   0  0  0  0  0  0  0  0  0  0  0  0
  152.0796  145.3591  157.3448 H   0  0  0  0  0  0  0  0  0  0  0  0
  153.5991  140.9106  157.9597 H   0  0  0  0  0  0  0  0  0  0  0  0
  1  2  1  0  0  0  0
  1 20  1  0  0  0  0
  1 21  1  0  0  0  0
  1 22  1  0  0  0  0
  2  3  1  0  0  0  0
  2 13  1  0  0  0  0
  2 23  1  0  0  0  0
  3  4  1  0  0  0  0
  3 24  1  0  0  0  0
  3 39  1  0  0  0  0
  4  5  1  0  0  0  0
  4 25  1  0  0  0  0
  4 26  1  0  0  0  0
  5  6  1  0  0  0  0
  5 27  1  0  0  0  0
  5 28  1  0  0  0  0
  6 11  1  0  0  0  0
  6  7  1  0  0  0  0
  7  8  2  0  0  0  0
  7  9  1  0  0  0  0
  9 10  1  0  0  0  0
  9 29  1  0  0  0  0
  9 30  1  0  0  0  0
 10 11  1  0  0  0  0
 10 31  1  0  0  0  0
 11 12  2  0  0  0  0
 13 14  1  0  0  0  0
 13 15  1  0  0  0  0
 13 32  1  0  0  0  0
 14 33  1  0  0  0  0
 14 34  1  0  0  0  0
 14 35  1  0  0  0  0
 15 19  1  0  0  0  0
 15 16  1  0  0  0  0
 16 17  2  0  0  0  0
 16 36  1  0  0  0  0
 17 18  1  0  0  0  0
 17 37  1  0  0  0  0
 18 19  2  0  0  0  0
 18 38  1  0  0  0  0
M  CHG  1   3   1
M  END
> <s_m_source_file>
AV-unprocessed.smi

> <i_m_source_file_index>
3330

> <i_lp_mmshare_version>
43012

> <i_f3d_flags>
0

> <s_epik_input>
bjFbY0hdW2NIXVtjSF1uMVtDQEBIXShbQ0gzXSlbQ0BIXShbQ0gzXSlbTkhdW0NIMl1bQ0gyXU4yQyg9TylbQ0gyXVtOSF1DMj1P

> <s_epik_cmdline>
J2VwaWtfcHl0aG9uJywgJy1waCcsICc3LjAnLCAnLXRuJywgJzgnLCAnLW1hJywgJzIwMCcsICctbWV0YWxfYmluZGluZycsICctaW1hZScsICc8aW5maWxlLm1hZT4nLCAnLW9tYWUnLCAnPG91dGZpbGUubWFlPic=

> <r_lp_tautomer_probability>
1

> <r_epik_Ionization_Penalty>
0.0124905

> <r_epik_Ionization_Penalty_Charging>
0.0123685

> <r_epik_Ionization_Penalty_Neutral>
0.000122059

> <r_epik_State_Penalty>
0.00957041

> <r_epik_Charging_Adjusted_Penalty>
0.0219389

> <i_epik_Tot_Q>
1

> <i_epik_Tot_abs_Q>
1

> <r_epik_Metal_State_Penalty>
0.0858301

> <b_epik_Metal_Only>
0

> <s_lp_Force_Field>
OPLS_2005

> <r_lp_Energy>
30.1395

> <b_lp_Chiralities_Consistent>
1

> <s_lp_Variant>
AV-unprocessed.smi:3330-1

> <Gold.Version>
5.8.1

> <Gold.Id.Protein>
6NUR|6NUR_protein|mol2

> <Gold.PLP.Fitness>
54.5143

> <Gold.PLP.PLP>
-50.2319

> <Gold.PLP.part.hbond>
-2.0575

> <Gold.PLP.part.metal>
0.0000

> <Gold.PLP.part.buried>
-5.9068

> <Gold.PLP.part.nonpolar>
-41.9614

> <Gold.PLP.part.repulsive>
0.2952

> <Gold.PLP.ligand.clash>
0.0000

> <Gold.PLP.ligand.torsion>
0.6258

> <Gold.PLP.Chemscore.Hbond>
1.7475

> <Gold.PLP.Chemscore.CHOScore>
0.0000

> <Gold.PLP.Chemscore.Metal>
0.0000

> <Gold.Chemscore.Hbonds>
donor molecule, donor type, donor heavy atom, donor atom, acceptor molecule, acceptor atom, score
      L1  H    10    31       P1  7948  0.17
      P1  H  7997  8009       L1     8  0.72

> <Gold.PLP.Chemscore.Internal.Correction>
0.2915

> <Gold.Rescore>
     Score         DG    S(hbond)    S(metal)    S(lipo)     H(rot)  DE(clash)    DE(int)     intcor
     13.31     -15.75       1.75        0.00      96.01       2.67       0.03       2.41       ----

> <Gold.Chemscore.Fitness>
13.3076

> <Gold.Chemscore.DG>
-15.7451

> <Gold.Chemscore.ZeroCoef>
-5.4800

> <Gold.Chemscore.Hbond>
1.7540

> <Gold.Chemscore.Metal>
0.0000

> <Gold.Chemscore.Lipo>
96.0104

> <Gold.Chemscore.Internal_Hbond>
0.0000

> <Gold.Chemscore.DEClash>
0.0282

> <Gold.Chemscore.DEInternal>
2.4093

> <Gold.Chemscore.Rot>
2.6666

> <Gold.Chemscore.Internal.Correction>
   9.000000E+99

> <Gold.Chemscore.Hbonds>
donor molecule, donor type, donor heavy atom, donor atom, acceptor molecule, acceptor atom, score
      P1  H  7997  8009       L1     8  0.63

> <Gold.Chemscore.Hbond.Weighted>
-5.8584

> <Gold.Chemscore.Metal.Weighted>
-0.0000

> <Gold.Chemscore.Lipo.Weighted>
-11.2332

> <Gold.Chemscore.Internal_Hbond.Weighted>
0.0000

> <Gold.Chemscore.DEClash.Weighted>
0.0282

> <Gold.Chemscore.DEInternal.Weighted>
2.4093

> <Gold.Chemscore.Rot.Weighted>
6.8265

> <Gold.Chemscore.Internal.Correction.Weighted>
   9.000000E+99

> <Gold.Protein.RotatedTorsions>
[ 6907 6896 6895 6894 ] final -153.72 input  -60.11 | X-H torsion
[ 7974 7965 7964 7962 ] final -172.79 input  175.53 | X-H torsion
[ 8008 7997 7996 7995 ] final -149.62 input   59.86 | X-H torsion
[ 10167 10162 10161 10158 ] final   41.35 input  -65.29 | X-H torsion
[ 10718 10713 10712 10709 ] final  -67.77 input   66.30 | X-H torsion
[ 10763 10752 10751 10750 ] final -155.02 input  -60.55 | X-H torsion
[ 11005 11000 10999 10996 ] final  100.17 input  -57.11 | X-H torsion

> <Gold.Protein.ActiveResidues>
 VAL166  LYS551  ARG553  GLY616  TRP617  ASP618  TYR619  PRO620  LYS621  CYS622 
 ASP623  PHE694  ASN695  SER759  ASP760  ASP761  ALA762  ILE779  LEU786  VAL792 
 PHE793  MET794  SER795  GLU796  ALA797  LYS798  CYS799  TRP800  GLU811  SER814 

> <Gold.Protein.RotatedAtoms>
  151.2468  133.4371  159.2609 H   0  0  0  0  0  0  0  0  0  0  0  0  # atno 6907 bound_to 6896
  151.0654  134.9764  159.8292 H   0  0  0  0  0  0  0  0  0  0  0  0  # atno 6908 bound_to 6896
  152.5404  134.2416  159.8917 H   0  0  0  0  0  0  0  0  0  0  0  0  # atno 6909 bound_to 6896
  144.7143  140.1719  143.6366 H   0  0  0  0  0  0  0  0  0  0  0  0  # atno 7974 bound_to 7965
  155.6106  140.0671  157.2707 H   0  0  0  0  0  0  0  0  0  0  0  0  # atno 8008 bound_to 7997
  154.4254  140.1802  156.1316 H   0  0  0  0  0  0  0  0  0  0  0  0  # atno 8009 bound_to 7997
  156.0088  140.3329  155.6923 H   0  0  0  0  0  0  0  0  0  0  0  0  # atno 8010 bound_to 7997
  140.3651  144.2177  150.6136 H   0  0  0  0  0  0  0  0  0  0  0  0  # atno 10167 bound_to 10162
  156.0540  130.4283  150.1903 H   0  0  0  0  0  0  0  0  0  0  0  0  # atno 10718 bound_to 10713
  154.7817  135.3177  154.7975 H   0  0  0  0  0  0  0  0  0  0  0  0  # atno 10763 bound_to 10752
  153.8684  135.6846  153.4781 H   0  0  0  0  0  0  0  0  0  0  0  0  # atno 10764 bound_to 10752
  153.1456  135.4721  154.9498 H   0  0  0  0  0  0  0  0  0  0  0  0  # atno 10765 bound_to 10752
  139.8771  134.9128  156.4715 H   0  0  0  0  0  0  0  0  0  0  0  0  # atno 11005 bound_to 11000
  145.8936  139.2389  143.1535 LP  0  0  0  0  0  0  0  0  0  0  0  0  # atno 17320 bound_to 7965
  145.9880  140.8627  143.0081 LP  0  0  0  0  0  0  0  0  0  0  0  0  # atno 17321 bound_to 7965
  140.5088  143.2296  151.8567 LP  0  0  0  0  0  0  0  0  0  0  0  0  # atno 17342 bound_to 10162
  139.4809  144.4974  151.9106 LP  0  0  0  0  0  0  0  0  0  0  0  0  # atno 17343 bound_to 10162
  156.9982  130.9914  151.3397 LP  0  0  0  0  0  0  0  0  0  0  0  0  # atno 17370 bound_to 10713
  157.5493  130.8171  149.8125 LP  0  0  0  0  0  0  0  0  0  0  0  0  # atno 17371 bound_to 10713
  140.8792  133.7930  155.9448 LP  0  0  0  0  0  0  0  0  0  0  0  0  # atno 17394 bound_to 11000
  140.8872  134.2540  157.5114 LP  0  0  0  0  0  0  0  0  0  0  0  0  # atno 17395 bound_to 11000

$$$$
