AV-unprocessed.smi:17|AV-procd|sdf|104|dock6
  -GOLD-   2262015253D 1   1.00000     0.00000
 Structure written by MMmdl.
 57 59  0  0  0  0  0  0  0  0  1 V2000
  147.6889  141.7101  154.0142 C   0  0  0  0  0  0  0  0  0  0  0  0
  148.4663  140.3877  154.1239 C   0  0  0  0  0  0  0  0  0  0  0  0
  149.6794  140.4856  154.9389 N   0  0  0  0  0  0  0  0  0  0  0  0
  150.4394  139.3611  154.9893 C   0  0  0  0  0  0  0  0  0  0  0  0
  151.7488  139.4784  154.6547 N   0  0  0  0  0  0  0  0  0  0  0  0
  152.5485  138.4089  154.6735 C   0  0  0  0  0  0  0  0  0  0  0  0
  152.2476  137.1479  154.9882 N   0  0  0  0  0  0  0  0  0  0  0  0
  150.9300  137.0207  155.3160 C   0  0  0  0  0  0  0  0  0  0  0  0
  149.9615  138.0642  155.3391 C   0  0  0  0  0  0  0  0  0  0  0  0
  148.7266  137.5504  155.7187 N   0  0  0  0  0  0  0  0  0  0  0  0
  148.9516  136.2796  155.9092 C   0  0  0  0  0  0  0  0  0  0  0  0
  150.2530  135.8796  155.7100 N   0  0  0  0  0  0  0  0  0  0  0  0
  150.7750  134.5315  155.8496 C   0  0  0  0  0  0  0  0  0  0  0  0
  149.8289  133.4193  155.3193 C   0  0  1  0  0  0  0  0  0  0  0  0
  149.2430  133.8578  153.9555 C   0  0  0  0  0  0  0  0  0  0  0  0
  147.9872  133.2552  153.7183 O   0  0  0  0  0  0  0  0  0  0  0  0
  150.5257  132.0294  155.2160 C   0  0  2  0  0  0  0  0  0  0  0  0
  149.6863  130.9338  154.5739 C   0  0  0  0  0  0  0  0  0  0  0  0
  150.3925  129.6690  155.0375 C   0  0  0  0  0  0  0  0  0  0  0  0
  150.7637  129.9499  156.3768 O   0  0  0  0  0  0  0  0  0  0  0  0
  150.8885  131.3582  156.5530 C   0  0  0  0  0  0  0  0  0  0  0  0
  149.5622  141.2467  156.1932 C   0  0  1  0  0  0  0  0  0  0  0  0
  148.6181  140.5832  157.2143 C   0  0  0  0  0  0  0  0  0  0  0  0
  150.9190  141.6048  156.8382 C   0  0  0  0  0  0  0  0  0  0  0  0
  150.7139  142.7490  158.2733 S   0  0  0  0  0  0  0  0  0  0  0  0
  151.6758  144.2160  157.7239 C   0  0  0  0  0  0  0  0  0  0  0  0
  149.2997  143.1377  158.3810 O   0  0  0  0  0  0  0  0  0  0  0  0
  151.3909  142.1557  159.4366 O   0  0  0  0  0  0  0  0  0  0  0  0
  146.7568  141.5619  153.4690 H   0  0  0  0  0  0  0  0  0  0  0  0
  148.2562  142.4758  153.4846 H   0  0  0  0  0  0  0  0  0  0  0  0
  147.4370  142.0996  155.0011 H   0  0  0  0  0  0  0  0  0  0  0  0
  147.8107  139.6436  154.5770 H   0  0  0  0  0  0  0  0  0  0  0  0
  148.7045  140.0106  153.1303 H   0  0  0  0  0  0  0  0  0  0  0  0
  153.5764  138.5905  154.3963 H   0  0  0  0  0  0  0  0  0  0  0  0
  148.1718  135.5960  156.2122 H   0  0  0  0  0  0  0  0  0  0  0  0
  151.7260  134.5133  155.3172 H   0  0  0  0  0  0  0  0  0  0  0  0
  151.0149  134.3489  156.8975 H   0  0  0  0  0  0  0  0  0  0  0  0
  148.9893  133.3182  156.0089 H   0  0  0  0  0  0  0  0  0  0  0  0
  149.1389  134.9423  153.9080 H   0  0  0  0  0  0  0  0  0  0  0  0
  149.8863  133.5611  153.1283 H   0  0  0  0  0  0  0  0  0  0  0  0
  147.3525  133.6446  154.3004 H   0  0  0  0  0  0  0  0  0  0  0  0
  151.4383  132.1338  154.6269 H   0  0  0  0  0  0  0  0  0  0  0  0
  148.6658  130.9551  154.9591 H   0  0  0  0  0  0  0  0  0  0  0  0
  149.6462  131.0017  153.4864 H   0  0  0  0  0  0  0  0  0  0  0  0
  149.7610  128.7828  154.9718 H   0  0  0  0  0  0  0  0  0  0  0  0
  151.2928  129.4943  154.4465 H   0  0  0  0  0  0  0  0  0  0  0  0
  151.9026  131.6020  156.8676 H   0  0  0  0  0  0  0  0  0  0  0  0
  150.2051  131.6560  157.3485 H   0  0  0  0  0  0  0  0  0  0  0  0
  149.0935  142.1953  155.9287 H   0  0  0  0  0  0  0  0  0  0  0  0
  148.4541  141.2361  158.0717 H   0  0  0  0  0  0  0  0  0  0  0  0
  149.0278  139.6469  157.5939 H   0  0  0  0  0  0  0  0  0  0  0  0
  147.6408  140.3724  156.7797 H   0  0  0  0  0  0  0  0  0  0  0  0
  151.3913  140.7032  157.2284 H   0  0  0  0  0  0  0  0  0  0  0  0
  151.6217  142.0389  156.1283 H   0  0  0  0  0  0  0  0  0  0  0  0
  151.6437  144.9802  158.5000 H   0  0  0  0  0  0  0  0  0  0  0  0
  151.2409  144.6137  156.8071 H   0  0  0  0  0  0  0  0  0  0  0  0
  152.7107  143.9277  157.5418 H   0  0  0  0  0  0  0  0  0  0  0  0
  1  2  1  0  0  0  0
  1 29  1  0  0  0  0
  1 30  1  0  0  0  0
  1 31  1  0  0  0  0
  2  3  1  0  0  0  0
  2 32  1  0  0  0  0
  2 33  1  0  0  0  0
  3  4  1  0  0  0  0
  3 22  1  0  0  0  0
  4  9  1  0  0  0  0
  4  5  2  0  0  0  0
  5  6  1  0  0  0  0
  6  7  2  0  0  0  0
  6 34  1  0  0  0  0
  7  8  1  0  0  0  0
  8 12  1  0  0  0  0
  8  9  2  0  0  0  0
  9 10  1  0  0  0  0
 10 11  2  0  0  0  0
 11 12  1  0  0  0  0
 11 35  1  0  0  0  0
 12 13  1  0  0  0  0
 13 14  1  0  0  0  0
 13 36  1  0  0  0  0
 13 37  1  0  0  0  0
 14 15  1  0  0  0  0
 14 17  1  0  0  0  0
 14 38  1  0  0  0  0
 15 16  1  0  0  0  0
 15 39  1  0  0  0  0
 15 40  1  0  0  0  0
 16 41  1  0  0  0  0
 17 21  1  0  0  0  0
 17 18  1  0  0  0  0
 17 42  1  0  0  0  0
 18 19  1  0  0  0  0
 18 43  1  0  0  0  0
 18 44  1  0  0  0  0
 19 20  1  0  0  0  0
 19 45  1  0  0  0  0
 19 46  1  0  0  0  0
 20 21  1  0  0  0  0
 21 47  1  0  0  0  0
 21 48  1  0  0  0  0
 22 23  1  0  0  0  0
 22 24  1  0  0  0  0
 22 49  1  0  0  0  0
 23 50  1  0  0  0  0
 23 51  1  0  0  0  0
 23 52  1  0  0  0  0
 24 25  1  0  0  0  0
 24 53  1  0  0  0  0
 24 54  1  0  0  0  0
 25 26  1  0  0  0  0
 25 27  2  0  0  0  0
 25 28  2  0  0  0  0
 26 55  1  0  0  0  0
 26 56  1  0  0  0  0
 26 57  1  0  0  0  0
M  END
> <s_m_source_file>
AV-unprocessed.smi

> <i_m_source_file_index>
17

> <i_lp_mmshare_version>
43012

> <i_f3d_flags>
0

> <s_epik_input>
W0NIM11TKD1PKSg9TylbQ0gyXVtDQEBIXShbQ0gzXSlOKFtDSDJdW0NIM10pYyhuW2NIXW4xKWMoYzEyKW5bY0hdbjJbQ0gyXVtDQEhdKFtDSDJdW09IXSlbQ0BASF0zW0NIMl1bQ0gyXU9bQ0gyXTM=

> <s_epik_cmdline>
J2VwaWtfcHl0aG9uJywgJy1waCcsICc3LjAnLCAnLXRuJywgJzgnLCAnLW1hJywgJzIwMCcsICctbWV0YWxfYmluZGluZycsICctaW1hZScsICc8aW5maWxlLm1hZT4nLCAnLW9tYWUnLCAnPG91dGZpbGUubWFlPic=

> <r_lp_tautomer_probability>
1

> <r_epik_Ionization_Penalty>
0.00119955

> <r_epik_Ionization_Penalty_Charging>
0

> <r_epik_Ionization_Penalty_Neutral>
0.00119955

> <r_epik_State_Penalty>
0.000665399

> <r_epik_Charging_Adjusted_Penalty>
0.000665399

> <i_epik_Tot_Q>
0

> <i_epik_Tot_abs_Q>
0

> <r_epik_Metal_State_Penalty>
-0

> <b_epik_Metal_Only>
0

> <s_lp_Force_Field>
OPLS_2005

> <r_lp_Energy>
33.8653

> <b_lp_Chiralities_Consistent>
1

> <s_lp_Variant>
AV-unprocessed.smi:17-6

> <Gold.Version>
5.8.1

> <Gold.Id.Protein>
6NUR|6NUR_protein|mol2

> <Gold.PLP.Fitness>
49.2812

> <Gold.PLP.PLP>
-45.2995

> <Gold.PLP.part.hbond>
-2.6239

> <Gold.PLP.part.metal>
0.0000

> <Gold.PLP.part.buried>
-6.8428

> <Gold.PLP.part.nonpolar>
-37.0301

> <Gold.PLP.part.repulsive>
0.4779

> <Gold.PLP.ligand.clash>
0.0000

> <Gold.PLP.ligand.torsion>
1.3794

> <Gold.PLP.Chemscore.Hbond>
1.8160

> <Gold.PLP.Chemscore.CHOScore>
0.0000

> <Gold.PLP.Chemscore.Metal>
0.0000

> <Gold.Chemscore.Hbonds>
donor molecule, donor type, donor heavy atom, donor atom, acceptor molecule, acceptor atom, score
      P1  H  7989  7998       L1     5  1.00
      P1  H 10752 10765       L1     7  0.82

> <Gold.PLP.Chemscore.Internal.Correction>
1.2924

> <Gold.Rescore>
     Score         DG    S(hbond)    S(metal)    S(lipo)     H(rot)  DE(clash)    DE(int)     intcor
      7.95     -10.58       1.77        0.00      75.93       3.79       0.00       2.62       ----

> <Gold.Chemscore.Fitness>
7.9550

> <Gold.Chemscore.DG>
-10.5758

> <Gold.Chemscore.ZeroCoef>
-5.4800

> <Gold.Chemscore.Hbond>
1.7702

> <Gold.Chemscore.Metal>
0.0000

> <Gold.Chemscore.Lipo>
75.9337

> <Gold.Chemscore.Internal_Hbond>
0.0000

> <Gold.Chemscore.DEClash>
0.0009

> <Gold.Chemscore.DEInternal>
2.6199

> <Gold.Chemscore.Rot>
3.7894

> <Gold.Chemscore.Internal.Correction>
   9.000000E+99

> <Gold.Chemscore.Hbonds>
donor molecule, donor type, donor heavy atom, donor atom, acceptor molecule, acceptor atom, score
      P1  H  7989  7998       L1     5  0.25
      P1  H 10752 10765       L1     7  0.65

> <Gold.Chemscore.Hbond.Weighted>
-5.9126

> <Gold.Chemscore.Metal.Weighted>
-0.0000

> <Gold.Chemscore.Lipo.Weighted>
-8.8842

> <Gold.Chemscore.Internal_Hbond.Weighted>
0.0000

> <Gold.Chemscore.DEClash.Weighted>
0.0009

> <Gold.Chemscore.DEInternal.Weighted>
2.6199

> <Gold.Chemscore.Rot.Weighted>
9.7010

> <Gold.Chemscore.Internal.Correction.Weighted>
   9.000000E+99

> <Gold.Protein.RotatedTorsions>
[ 6907 6896 6895 6894 ] final   -4.92 input  -60.11 | X-H torsion
[ 7974 7965 7964 7962 ] final  133.30 input  175.53 | X-H torsion
[ 8008 7997 7996 7995 ] final -148.03 input   59.86 | X-H torsion
[ 10167 10162 10161 10158 ] final  152.87 input  -65.29 | X-H torsion
[ 10718 10713 10712 10709 ] final   18.17 input   66.30 | X-H torsion
[ 10763 10752 10751 10750 ] final  177.96 input  -60.55 | X-H torsion
[ 11005 11000 10999 10996 ] final   43.73 input  -57.11 | X-H torsion

> <Gold.Protein.ActiveResidues>
 VAL166  LYS551  ARG553  GLY616  TRP617  ASP618  TYR619  PRO620  LYS621  CYS622 
 ASP623  PHE694  ASN695  SER759  ASP760  ASP761  ALA762  ILE779  LEU786  VAL792 
 PHE793  MET794  SER795  GLU796  ALA797  LYS798  CYS799  TRP800  GLU811  SER814 

> <Gold.Protein.RotatedAtoms>
  151.4899  135.1057  159.9800 H   0  0  0  0  0  0  0  0  0  0  0  0  # atno 6907 bound_to 6896
  152.4745  133.8103  159.7010 H   0  0  0  0  0  0  0  0  0  0  0  0  # atno 6908 bound_to 6896
  150.8774  133.7357  159.2968 H   0  0  0  0  0  0  0  0  0  0  0  0  # atno 6909 bound_to 6896
  144.9880  139.4436  143.5353 H   0  0  0  0  0  0  0  0  0  0  0  0  # atno 7974 bound_to 7965
  155.5851  140.0647  157.2773 H   0  0  0  0  0  0  0  0  0  0  0  0  # atno 8008 bound_to 7997
  154.4321  140.1845  156.1064 H   0  0  0  0  0  0  0  0  0  0  0  0  # atno 8009 bound_to 7997
  156.0275  140.3310  155.7108 H   0  0  0  0  0  0  0  0  0  0  0  0  # atno 8010 bound_to 7997
  139.4830  144.5321  151.7705 H   0  0  0  0  0  0  0  0  0  0  0  0  # atno 10167 bound_to 10162
  157.0925  130.6434  149.5852 H   0  0  0  0  0  0  0  0  0  0  0  0  # atno 10718 bound_to 10713
  154.5014  135.2784  155.1418 H   0  0  0  0  0  0  0  0  0  0  0  0  # atno 10763 bound_to 10752
  154.3050  135.6240  153.5444 H   0  0  0  0  0  0  0  0  0  0  0  0  # atno 10764 bound_to 10752
  152.9903  135.5706  154.5458 H   0  0  0  0  0  0  0  0  0  0  0  0  # atno 10765 bound_to 10752
  140.1617  134.4332  155.8313 H   0  0  0  0  0  0  0  0  0  0  0  0  # atno 11005 bound_to 11000
  146.3424  139.9193  142.8769 LP  0  0  0  0  0  0  0  0  0  0  0  0  # atno 17320 bound_to 7965
  145.2326  140.9979  143.3982 LP  0  0  0  0  0  0  0  0  0  0  0  0  # atno 17321 bound_to 7965
  140.4849  144.1396  150.5939 LP  0  0  0  0  0  0  0  0  0  0  0  0  # atno 17342 bound_to 10162
  140.4237  143.2600  151.9684 LP  0  0  0  0  0  0  0  0  0  0  0  0  # atno 17343 bound_to 10162
  155.9894  130.4942  150.7213 LP  0  0  0  0  0  0  0  0  0  0  0  0  # atno 17370 bound_to 10713
  157.4709  131.0893  151.0643 LP  0  0  0  0  0  0  0  0  0  0  0  0  # atno 17371 bound_to 10713
  141.2210  133.6916  156.7606 LP  0  0  0  0  0  0  0  0  0  0  0  0  # atno 17394 bound_to 11000
  140.2481  134.8561  157.3641 LP  0  0  0  0  0  0  0  0  0  0  0  0  # atno 17395 bound_to 11000

$$$$
