AV-unprocessed.smi:1005|AV-procd|sdf|4389|dock2
  -GOLD-   22720 2313D 1   1.00000     0.00000
 Structure written by MMmdl.
 55 57  0  0  0  0  0  0  0  0  1 V2000
  152.8826  142.7871  161.4471 C   0  0  0  0  0  0  0  0  0  0  0  0
  152.3187  142.4657  160.0744 C   0  0  0  0  0  0  0  0  0  0  0  0
  152.7067  141.2662  159.4348 C   0  0  0  0  0  0  0  0  0  0  0  0
  152.2099  140.9341  158.1552 C   0  0  0  0  0  0  0  0  0  0  0  0
  152.4511  139.8317  157.3525 N   0  0  0  0  0  0  0  0  0  0  0  0
  151.7078  140.1089  156.2844 C   0  0  0  0  0  0  0  0  0  0  0  0
  151.0128  141.2620  156.3018 N   0  0  0  0  0  0  0  0  0  0  0  0
  150.1497  141.7924  155.2639 C   0  0  0  0  0  0  0  0  0  0  0  0
  148.7295  141.1968  155.3407 C   0  0  1  0  0  0  0  0  0  0  0  0
  147.8117  142.2264  155.6484 O   0  0  0  0  0  0  0  0  0  0  0  0
  148.2809  140.5268  154.0266 C   0  0  0  0  0  0  0  0  0  0  0  0
  147.4844  139.3092  154.1846 N   0  0  0  0  0  0  0  0  0  0  0  0
  148.1849  138.3223  154.9973 C   0  0  0  0  0  0  0  0  0  0  0  0
  147.3551  137.0409  155.1823 C   0  0  0  0  0  0  0  0  0  0  0  0
  147.0027  136.5148  153.9068 O   0  0  0  0  0  0  0  0  0  0  0  0
  146.2564  137.4327  153.1100 C   0  0  2  0  0  0  0  0  0  0  0  0
  145.8874  136.7773  151.7653 C   0  0  0  0  0  0  0  0  0  0  0  0
  144.9023  135.6967  151.8369 N   0  0  0  0  0  0  0  0  0  0  0  0
  144.7160  135.0197  150.5592 C   0  0  0  0  0  0  0  0  0  0  0  0
  143.6274  136.1956  152.3328 C   0  0  0  0  0  0  0  0  0  0  0  0
  147.1141  138.6972  152.9106 C   0  0  0  0  0  0  0  0  0  0  0  0
  151.3091  141.8434  157.5288 C   0  0  0  0  0  0  0  0  0  0  0  0
  150.9103  143.0361  158.1568 C   0  0  0  0  0  0  0  0  0  0  0  0
  151.4148  143.3522  159.4350 C   0  0  0  0  0  0  0  0  0  0  0  0
  150.9777  144.6440  160.1030 C   0  0  0  0  0  0  0  0  0  0  0  0
  153.5681  142.0109  161.7884 H   0  0  0  0  0  0  0  0  0  0  0  0
  152.0795  142.8708  162.1796 H   0  0  0  0  0  0  0  0  0  0  0  0
  153.4305  143.7293  161.4238 H   0  0  0  0  0  0  0  0  0  0  0  0
  153.3935  140.5899  159.9221 H   0  0  0  0  0  0  0  0  0  0  0  0
  151.6712  139.4391  155.4378 H   0  0  0  0  0  0  0  0  0  0  0  0
  150.1232  142.8805  155.3386 H   0  0  0  0  0  0  0  0  0  0  0  0
  150.6113  141.5584  154.3041 H   0  0  0  0  0  0  0  0  0  0  0  0
  148.6741  140.4793  156.1591 H   0  0  0  0  0  0  0  0  0  0  0  0
  148.2318  143.0585  155.4936 H   0  0  0  0  0  0  0  0  0  0  0  0
  147.7198  141.2480  153.4301 H   0  0  0  0  0  0  0  0  0  0  0  0
  149.1742  140.2898  153.4467 H   0  0  0  0  0  0  0  0  0  0  0  0
  149.1382  138.0690  154.5307 H   0  0  0  0  0  0  0  0  0  0  0  0
  148.4186  138.7445  155.9753 H   0  0  0  0  0  0  0  0  0  0  0  0
  147.9279  136.2932  155.7310 H   0  0  0  0  0  0  0  0  0  0  0  0
  146.4531  137.2438  155.7616 H   0  0  0  0  0  0  0  0  0  0  0  0
  145.3387  137.7075  153.6338 H   0  0  0  0  0  0  0  0  0  0  0  0
  145.4743  137.5611  151.1286 H   0  0  0  0  0  0  0  0  0  0  0  0
  146.7912  136.4332  151.2601 H   0  0  0  0  0  0  0  0  0  0  0  0
  143.9372  134.2599  150.6341 H   0  0  0  0  0  0  0  0  0  0  0  0
  145.6266  134.5104  150.2462 H   0  0  0  0  0  0  0  0  0  0  0  0
  144.4275  135.7235  149.7775 H   0  0  0  0  0  0  0  0  0  0  0  0
  142.9070  135.3834  152.4355 H   0  0  0  0  0  0  0  0  0  0  0  0
  143.2058  136.9407  151.6566 H   0  0  0  0  0  0  0  0  0  0  0  0
  143.7456  136.6549  153.3148 H   0  0  0  0  0  0  0  0  0  0  0  0
  146.5458  139.4013  152.3052 H   0  0  0  0  0  0  0  0  0  0  0  0
  148.0118  138.4481  152.3422 H   0  0  0  0  0  0  0  0  0  0  0  0
  150.2223  143.7020  157.6575 H   0  0  0  0  0  0  0  0  0  0  0  0
  150.2827  145.2016  159.4744 H   0  0  0  0  0  0  0  0  0  0  0  0
  151.8384  145.2839  160.2986 H   0  0  0  0  0  0  0  0  0  0  0  0
  150.4781  144.4347  161.0492 H   0  0  0  0  0  0  0  0  0  0  0  0
  1  2  1  0  0  0  0
  1 26  1  0  0  0  0
  1 27  1  0  0  0  0
  1 28  1  0  0  0  0
  2 24  1  0  0  0  0
  2  3  2  0  0  0  0
  3  4  1  0  0  0  0
  3 29  1  0  0  0  0
  4 22  2  0  0  0  0
  4  5  1  0  0  0  0
  5  6  2  0  0  0  0
  6  7  1  0  0  0  0
  6 30  1  0  0  0  0
  7  8  1  0  0  0  0
  7 22  1  0  0  0  0
  8  9  1  0  0  0  0
  8 31  1  0  0  0  0
  8 32  1  0  0  0  0
  9 10  1  0  0  0  0
  9 11  1  0  0  0  0
  9 33  1  0  0  0  0
 10 34  1  0  0  0  0
 11 12  1  0  0  0  0
 11 35  1  0  0  0  0
 11 36  1  0  0  0  0
 12 21  1  0  0  0  0
 12 13  1  0  0  0  0
 13 14  1  0  0  0  0
 13 37  1  0  0  0  0
 13 38  1  0  0  0  0
 14 15  1  0  0  0  0
 14 39  1  0  0  0  0
 14 40  1  0  0  0  0
 15 16  1  0  0  0  0
 16 17  1  0  0  0  0
 16 21  1  0  0  0  0
 16 41  1  0  0  0  0
 17 18  1  0  0  0  0
 17 42  1  0  0  0  0
 17 43  1  0  0  0  0
 18 19  1  0  0  0  0
 18 20  1  0  0  0  0
 19 44  1  0  0  0  0
 19 45  1  0  0  0  0
 19 46  1  0  0  0  0
 20 47  1  0  0  0  0
 20 48  1  0  0  0  0
 20 49  1  0  0  0  0
 21 50  1  0  0  0  0
 21 51  1  0  0  0  0
 22 23  1  0  0  0  0
 23 24  2  0  0  0  0
 23 52  1  0  0  0  0
 24 25  1  0  0  0  0
 25 53  1  0  0  0  0
 25 54  1  0  0  0  0
 25 55  1  0  0  0  0
M  END
> <s_m_source_file>
AV-unprocessed.smi

> <i_m_source_file_index>
1005

> <i_lp_mmshare_version>
43012

> <i_f3d_flags>
0

> <s_epik_input>
W0NIM11jKFtjSF0xKWMoW0NIM10pW2NIXWMoYzEyKW4oW2NIXW4yKVtDSDJdW0NASF0oW09IXSlbQ0gyXU4zW0NIMl1bQ0gyXU9bQ0BIXShbQ0gyXTMpW0NIMl1OKFtDSDNdKVtDSDNd

> <s_epik_cmdline>
J2VwaWtfcHl0aG9uJywgJy1waCcsICc3LjAnLCAnLXRuJywgJzgnLCAnLW1hJywgJzIwMCcsICctbWV0YWxfYmluZGluZycsICctaW1hZScsICc8aW5maWxlLm1hZT4nLCAnLW9tYWUnLCAnPG91dGZpbGUubWFlPic=

> <r_epik_Ionization_Penalty>
2.78613

> <r_epik_Ionization_Penalty_Charging>
0

> <r_epik_Ionization_Penalty_Neutral>
2.78613

> <r_epik_State_Penalty>
2.57336

> <r_epik_Charging_Adjusted_Penalty>
2.57336

> <i_epik_Tot_Q>
0

> <i_epik_Tot_abs_Q>
0

> <r_epik_Metal_State_Penalty>
2.49087

> <b_epik_Metal_Only>
0

> <s_lp_Force_Field>
OPLS_2005

> <r_lp_Energy>
32.9837

> <b_lp_Chiralities_Consistent>
1

> <s_lp_Variant>
AV-unprocessed.smi:1005-28

> <Gold.Version>
5.8.1

> <Gold.Id.Protein>
6NUR|6NUR_protein|mol2

> <Gold.PLP.Fitness>
47.3666

> <Gold.PLP.PLP>
-44.4342

> <Gold.PLP.part.hbond>
-2.0000

> <Gold.PLP.part.metal>
0.0000

> <Gold.PLP.part.buried>
-5.3536

> <Gold.PLP.part.nonpolar>
-37.2685

> <Gold.PLP.part.repulsive>
0.4959

> <Gold.PLP.ligand.clash>
0.0000

> <Gold.PLP.ligand.torsion>
1.6414

> <Gold.PLP.Chemscore.Hbond>
2.0000

> <Gold.PLP.Chemscore.CHOScore>
0.0000

> <Gold.PLP.Chemscore.Metal>
0.0000

> <Gold.Chemscore.Hbonds>
donor molecule, donor type, donor heavy atom, donor atom, acceptor molecule, acceptor atom, score
      L1  H    10    34       P1  8028  1.00
      P1  H  7997  8008       L1     5  0.91

> <Gold.PLP.Chemscore.Internal.Correction>
0.2153

> <Gold.Rescore>
     Score         DG    S(hbond)    S(metal)    S(lipo)     H(rot)  DE(clash)    DE(int)     intcor
     17.01     -19.29       1.54        0.00     124.29       2.29       0.66       1.62       ----

> <Gold.Chemscore.Fitness>
17.0071

> <Gold.Chemscore.DG>
-19.2893

> <Gold.Chemscore.ZeroCoef>
-5.4800

> <Gold.Chemscore.Hbond>
1.5353

> <Gold.Chemscore.Metal>
0.0000

> <Gold.Chemscore.Lipo>
124.2949

> <Gold.Chemscore.Internal_Hbond>
0.0000

> <Gold.Chemscore.DEClash>
0.6580

> <Gold.Chemscore.DEInternal>
1.6242

> <Gold.Chemscore.Rot>
2.2895

> <Gold.Chemscore.Internal.Correction>
   9.000000E+99

> <Gold.Chemscore.Hbonds>
donor molecule, donor type, donor heavy atom, donor atom, acceptor molecule, acceptor atom, score
      L1  H    10    34       P1  8028  0.94
      P1  H  7997  8008       L1     5  0.18

> <Gold.Chemscore.Hbond.Weighted>
-5.1280

> <Gold.Chemscore.Metal.Weighted>
-0.0000

> <Gold.Chemscore.Lipo.Weighted>
-14.5425

> <Gold.Chemscore.Internal_Hbond.Weighted>
0.0000

> <Gold.Chemscore.DEClash.Weighted>
0.6580

> <Gold.Chemscore.DEInternal.Weighted>
1.6242

> <Gold.Chemscore.Rot.Weighted>
5.8612

> <Gold.Chemscore.Internal.Correction.Weighted>
   9.000000E+99

> <Gold.Protein.RotatedTorsions>
[ 6907 6896 6895 6894 ] final  -11.45 input  -60.11 | X-H torsion
[ 7974 7965 7964 7962 ] final  -40.01 input  175.53 | X-H torsion
[ 8008 7997 7996 7995 ] final  -61.46 input   59.86 | X-H torsion
[ 10167 10162 10161 10158 ] final -140.30 input  -65.29 | X-H torsion
[ 10718 10713 10712 10709 ] final   45.59 input   66.30 | X-H torsion
[ 10763 10752 10751 10750 ] final   54.17 input  -60.55 | X-H torsion
[ 11005 11000 10999 10996 ] final  159.09 input  -57.11 | X-H torsion

> <Gold.Protein.ActiveResidues>
 VAL166  LYS551  ARG553  GLY616  TRP617  ASP618  TYR619  PRO620  LYS621  CYS622 
 ASP623  PHE694  ASN695  SER759  ASP760  ASP761  ALA762  ILE779  LEU786  VAL792 
 PHE793  MET794  SER795  GLU796  ALA797  LYS798  CYS799  TRP800  GLU811  SER814 

> <Gold.Protein.RotatedAtoms>
  151.3860  135.0948  159.9510 H   0  0  0  0  0  0  0  0  0  0  0  0  # atno 6907 bound_to 6896
  152.5094  133.9026  159.7459 H   0  0  0  0  0  0  0  0  0  0  0  0  # atno 6908 bound_to 6896
  150.9469  133.6537  159.2808 H   0  0  0  0  0  0  0  0  0  0  0  0  # atno 6909 bound_to 6896
  146.0343  140.6691  142.9117 H   0  0  0  0  0  0  0  0  0  0  0  0  # atno 7974 bound_to 7965
  154.4449  140.1017  156.6434 H   0  0  0  0  0  0  0  0  0  0  0  0  # atno 8008 bound_to 7997
  155.5477  140.3485  155.4442 H   0  0  0  0  0  0  0  0  0  0  0  0  # atno 8009 bound_to 7997
  156.0551  140.1313  156.9994 H   0  0  0  0  0  0  0  0  0  0  0  0  # atno 8010 bound_to 7997
  139.8295  143.7465  152.2666 H   0  0  0  0  0  0  0  0  0  0  0  0  # atno 10167 bound_to 10162
  157.4391  130.8070  149.7677 H   0  0  0  0  0  0  0  0  0  0  0  0  # atno 10718 bound_to 10713
  152.9802  135.5754  154.4861 H   0  0  0  0  0  0  0  0  0  0  0  0  # atno 10763 bound_to 10752
  154.4402  135.2775  155.1854 H   0  0  0  0  0  0  0  0  0  0  0  0  # atno 10764 bound_to 10752
  154.3525  135.6206  153.5704 H   0  0  0  0  0  0  0  0  0  0  0  0  # atno 10765 bound_to 10752
  140.1928  134.8395  157.2931 H   0  0  0  0  0  0  0  0  0  0  0  0  # atno 11005 bound_to 11000
  144.7045  140.3793  143.7129 LP  0  0  0  0  0  0  0  0  0  0  0  0  # atno 17320 bound_to 7965
  145.6989  139.1656  143.2604 LP  0  0  0  0  0  0  0  0  0  0  0  0  # atno 17321 bound_to 7965
  139.7669  144.7489  151.0282 LP  0  0  0  0  0  0  0  0  0  0  0  0  # atno 17342 bound_to 10162
  140.7807  143.4688  151.0174 LP  0  0  0  0  0  0  0  0  0  0  0  0  # atno 17343 bound_to 10162
  155.9942  130.3919  150.2869 LP  0  0  0  0  0  0  0  0  0  0  0  0  # atno 17370 bound_to 10713
  157.1033  131.0201  151.3077 LP  0  0  0  0  0  0  0  0  0  0  0  0  # atno 17371 bound_to 10713
  140.2141  134.4103  155.7598 LP  0  0  0  0  0  0  0  0  0  0  0  0  # atno 17394 bound_to 11000
  141.2226  133.7133  156.8384 LP  0  0  0  0  0  0  0  0  0  0  0  0  # atno 17395 bound_to 11000

$$$$
