AV-unprocessed.smi:1244|AV-procd|sdf|5228|dock10
  -GOLD-   22720 4333D 1   1.00000     0.00000
 Structure written by MMmdl.
 55 57  0  0  0  0  0  0  0  0  2 V2000
  137.6126  136.6165  157.7973 C   0  0  0  0  0  0  0  0  0  0  0  0
  137.2611  136.9954  156.3549 C   0  0  2  0  0  0  0  0  0  0  0  0
  138.5165  137.2460  155.5006 C   0  0  0  0  0  0  0  0  0  0  0  0
  138.1796  137.6905  154.1549 N   0  0  0  0  0  0  0  0  0  0  0  0
  139.3843  137.8742  153.3447 C   0  0  0  0  0  0  0  0  0  0  0  0
  140.4480  138.8189  153.9418 C   0  0  0  0  0  0  0  0  0  0  0  0
  141.7693  138.6086  153.3586 N   0  0  0  0  0  0  0  0  0  0  0  0
  142.3435  137.4150  153.1572 C   0  0  0  0  0  0  0  0  0  0  0  0
  141.8290  136.3452  153.4827 O   0  0  0  0  0  0  0  0  0  0  0  0
  143.5289  137.5456  152.5392 N   0  0  0  0  0  0  0  0  0  0  0  0
  144.3630  136.5095  152.0349 C   0  0  0  0  0  0  0  0  0  0  0  0
  143.8057  135.3302  151.4775 C   0  0  0  0  0  0  0  0  0  0  0  0
  144.6495  134.2893  151.0475 C   0  0  0  0  0  0  0  0  0  0  0  0
  146.0391  134.4352  151.1972 C   0  0  0  0  0  0  0  0  0  0  0  0
  146.5379  135.5631  151.7437 N   0  3  0  0  0  0  0  0  0  0  0  0
  145.7793  136.6074  152.1621 C   0  0  0  0  0  0  0  0  0  0  0  0
  146.4463  137.7296  152.7056 N   0  0  0  0  0  0  0  0  0  0  0  0
  146.6350  138.9352  151.9075 C   0  0  0  0  0  0  0  0  0  0  0  0
  147.0702  140.0055  152.9048 C   0  0  0  0  0  0  0  0  0  0  0  0
  146.2823  139.6296  154.1562 C   0  0  0  0  0  0  0  0  0  0  0  0
  146.2144  138.0997  154.0987 C   0  0  0  0  0  0  0  0  0  0  0  0
  137.3706  138.9033  154.2422 C   0  0  0  0  0  0  0  0  0  0  0  0
  136.1111  138.7122  155.1106 C   0  0  1  0  0  0  0  0  0  0  0  0
  135.0240  137.8675  154.4246 C   0  0  0  0  0  0  0  0  0  0  0  0
  136.4663  138.1797  156.3881 O   0  0  0  0  0  0  0  0  0  0  0  0
  138.2100  135.7049  157.8287 H   0  0  0  0  0  0  0  0  0  0  0  0
  136.7112  136.4433  158.3854 H   0  0  0  0  0  0  0  0  0  0  0  0
  138.1824  137.4073  158.2858 H   0  0  0  0  0  0  0  0  0  0  0  0
  136.6806  136.1820  155.9187 H   0  0  0  0  0  0  0  0  0  0  0  0
  139.1473  137.9914  155.9879 H   0  0  0  0  0  0  0  0  0  0  0  0
  139.1034  136.3281  155.4493 H   0  0  0  0  0  0  0  0  0  0  0  0
  139.8410  136.9051  153.1380 H   0  0  0  0  0  0  0  0  0  0  0  0
  139.0937  138.2737  152.3720 H   0  0  0  0  0  0  0  0  0  0  0  0
  140.1665  139.8593  153.7820 H   0  0  0  0  0  0  0  0  0  0  0  0
  140.4990  138.6845  155.0232 H   0  0  0  0  0  0  0  0  0  0  0  0
  142.2658  139.4343  153.0576 H   0  0  0  0  0  0  0  0  0  0  0  0
  143.7853  138.4832  152.2670 H   0  0  0  0  0  0  0  0  0  0  0  0
  142.7373  135.1988  151.3935 H   0  0  0  0  0  0  0  0  0  0  0  0
  144.2347  133.3876  150.6214 H   0  0  0  0  0  0  0  0  0  0  0  0
  146.7624  133.6879  150.9040 H   0  0  0  0  0  0  0  0  0  0  0  0
  147.3797  138.7841  151.1252 H   0  0  0  0  0  0  0  0  0  0  0  0
  145.6959  139.2313  151.4381 H   0  0  0  0  0  0  0  0  0  0  0  0
  148.1405  139.9221  153.0999 H   0  0  0  0  0  0  0  0  0  0  0  0
  146.8659  141.0188  152.5580 H   0  0  0  0  0  0  0  0  0  0  0  0
  146.7401  139.9992  155.0742 H   0  0  0  0  0  0  0  0  0  0  0  0
  145.2752  140.0445  154.0932 H   0  0  0  0  0  0  0  0  0  0  0  0
  145.2575  137.7312  154.4708 H   0  0  0  0  0  0  0  0  0  0  0  0
  147.0065  137.6699  154.7125 H   0  0  0  0  0  0  0  0  0  0  0  0
  137.9723  139.7094  154.6651 H   0  0  0  0  0  0  0  0  0  0  0  0
  137.0692  139.2337  153.2487 H   0  0  0  0  0  0  0  0  0  0  0  0
  135.6798  139.6960  155.2974 H   0  0  0  0  0  0  0  0  0  0  0  0
  134.6830  138.3451  153.5060 H   0  0  0  0  0  0  0  0  0  0  0  0
  134.1578  137.7452  155.0751 H   0  0  0  0  0  0  0  0  0  0  0  0
  135.3859  136.8747  154.1597 H   0  0  0  0  0  0  0  0  0  0  0  0
  147.5507  135.6376  151.8408 H   0  0  0  0  0  0  0  0  0  0  0  0
  1  2  1  0  0  0  0
  1 26  1  0  0  0  0
  1 27  1  0  0  0  0
  1 28  1  0  0  0  0
  2 25  1  0  0  0  0
  2  3  1  0  0  0  0
  2 29  1  0  0  0  0
  3  4  1  0  0  0  0
  3 30  1  0  0  0  0
  3 31  1  0  0  0  0
  4  5  1  0  0  0  0
  4 22  1  0  0  0  0
  5  6  1  0  0  0  0
  5 32  1  0  0  0  0
  5 33  1  0  0  0  0
  6  7  1  0  0  0  0
  6 34  1  0  0  0  0
  6 35  1  0  0  0  0
  7  8  1  0  0  0  0
  7 36  1  0  0  0  0
  8  9  2  0  0  0  0
  8 10  1  0  0  0  0
 10 11  1  0  0  0  0
 10 37  1  0  0  0  0
 11 16  1  0  0  0  0
 11 12  2  0  0  0  0
 12 13  1  0  0  0  0
 12 38  1  0  0  0  0
 13 14  2  0  0  0  0
 13 39  1  0  0  0  0
 14 15  1  0  0  0  0
 14 40  1  0  0  0  0
 15 16  2  0  0  0  0
 15 55  1  0  0  0  0
 16 17  1  0  0  0  0
 17 21  1  0  0  0  0
 17 18  1  0  0  0  0
 18 19  1  0  0  0  0
 18 41  1  0  0  0  0
 18 42  1  0  0  0  0
 19 20  1  0  0  0  0
 19 43  1  0  0  0  0
 19 44  1  0  0  0  0
 20 21  1  0  0  0  0
 20 45  1  0  0  0  0
 20 46  1  0  0  0  0
 21 47  1  0  0  0  0
 21 48  1  0  0  0  0
 22 23  1  0  0  0  0
 22 49  1  0  0  0  0
 22 50  1  0  0  0  0
 23 24  1  0  0  0  0
 23 25  1  0  0  0  0
 23 51  1  0  0  0  0
 24 52  1  0  0  0  0
 24 53  1  0  0  0  0
 24 54  1  0  0  0  0
M  CHG  1  15   1
M  END
> <s_m_source_file>
AV-unprocessed.smi

> <i_m_source_file_index>
1244

> <i_lp_mmshare_version>
43012

> <i_f3d_flags>
0

> <s_epik_input>
W0NIM11bQ0BASF0xW0NIMl1OKFtDSDJdW0NASF0oTzEpW0NIM10pW0NIMl1bQ0gyXVtOSF1DKD1PKVtOSF1jMltjSF1bY0hdW2NIXW5jMk4zW0NIMl1bQ0gyXVtDSDJdW0NIMl0z

> <s_epik_cmdline>
J2VwaWtfcHl0aG9uJywgJy1waCcsICc3LjAnLCAnLXRuJywgJzgnLCAnLW1hJywgJzIwMCcsICctbWV0YWxfYmluZGluZycsICctaW1hZScsICc8aW5maWxlLm1hZT4nLCAnLW9tYWUnLCAnPG91dGZpbGUubWFlPic=

> <r_epik_Ionization_Penalty>
1.38385

> <r_epik_Ionization_Penalty_Charging>
1.11784

> <r_epik_Ionization_Penalty_Neutral>
0.26601

> <r_epik_State_Penalty>
1.46794

> <r_epik_Charging_Adjusted_Penalty>
2.58578

> <i_epik_Tot_Q>
1

> <i_epik_Tot_abs_Q>
1

> <r_epik_Metal_State_Penalty>
1.54908

> <b_epik_Metal_Only>
0

> <s_lp_Force_Field>
OPLS_2005

> <r_lp_Energy>
60.0137

> <b_lp_Chiralities_Consistent>
1

> <s_lp_Variant>
AV-unprocessed.smi:1244-8

> <Gold.Version>
5.8.1

> <Gold.Id.Protein>
6NUR|6NUR_protein|mol2

> <Gold.PLP.Fitness>
49.4116

> <Gold.PLP.PLP>
-38.4363

> <Gold.PLP.part.hbond>
-3.8771

> <Gold.PLP.part.metal>
0.0000

> <Gold.PLP.part.buried>
-5.6886

> <Gold.PLP.part.nonpolar>
-30.7100

> <Gold.PLP.part.repulsive>
1.0815

> <Gold.PLP.ligand.clash>
0.0000

> <Gold.PLP.ligand.torsion>
0.7233

> <Gold.PLP.Chemscore.Hbond>
4.0000

> <Gold.PLP.Chemscore.CHOScore>
0.0000

> <Gold.PLP.Chemscore.Metal>
0.0000

> <Gold.Chemscore.Hbonds>
donor molecule, donor type, donor heavy atom, donor atom, acceptor molecule, acceptor atom, score
      L1  H     7    36       P1 10175  1.00
      L1  H    10    37       P1 10175  1.00
      L1  H    15    55       P1  7948  1.79

> <Gold.PLP.Chemscore.Internal.Correction>
0.4218

> <Gold.Rescore>
     Score         DG    S(hbond)    S(metal)    S(lipo)     H(rot)  DE(clash)    DE(int)     intcor
     18.86     -21.44       2.90        0.00      88.17       1.58       0.11       2.47       ----

> <Gold.Chemscore.Fitness>
18.8610

> <Gold.Chemscore.DG>
-21.4368

> <Gold.Chemscore.ZeroCoef>
-5.4800

> <Gold.Chemscore.Hbond>
2.8997

> <Gold.Chemscore.Metal>
0.0000

> <Gold.Chemscore.Lipo>
88.1685

> <Gold.Chemscore.Internal_Hbond>
0.0000

> <Gold.Chemscore.DEClash>
0.1097

> <Gold.Chemscore.DEInternal>
2.4661

> <Gold.Chemscore.Rot>
1.5797

> <Gold.Chemscore.Internal.Correction>
   9.000000E+99

> <Gold.Chemscore.Hbonds>
donor molecule, donor type, donor heavy atom, donor atom, acceptor molecule, acceptor atom, score
      L1  H     7    36       P1 10175  0.95
      L1  H    10    37       P1 10175  0.95
      L1  H    15    55       P1  7948  0.87

> <Gold.Chemscore.Hbond.Weighted>
-9.6850

> <Gold.Chemscore.Metal.Weighted>
-0.0000

> <Gold.Chemscore.Lipo.Weighted>
-10.3157

> <Gold.Chemscore.Internal_Hbond.Weighted>
0.0000

> <Gold.Chemscore.DEClash.Weighted>
0.1097

> <Gold.Chemscore.DEInternal.Weighted>
2.4661

> <Gold.Chemscore.Rot.Weighted>
4.0439

> <Gold.Chemscore.Internal.Correction.Weighted>
   9.000000E+99

> <Gold.Protein.RotatedTorsions>
[ 6907 6896 6895 6894 ] final  -79.07 input  -60.11 | X-H torsion
[ 7974 7965 7964 7962 ] final  -18.84 input  175.53 | X-H torsion
[ 8008 7997 7996 7995 ] final  119.59 input   59.86 | X-H torsion
[ 10167 10162 10161 10158 ] final   19.94 input  -65.29 | X-H torsion
[ 10718 10713 10712 10709 ] final -151.10 input   66.30 | X-H torsion
[ 10763 10752 10751 10750 ] final   41.41 input  -60.55 | X-H torsion
[ 11005 11000 10999 10996 ] final  123.15 input  -57.11 | X-H torsion

> <Gold.Protein.ActiveResidues>
 VAL166  LYS551  ARG553  GLY616  TRP617  ASP618  TYR619  PRO620  LYS621  CYS622 
 ASP623  PHE694  ASN695  SER759  ASP760  ASP761  ALA762  ILE779  LEU786  VAL792 
 PHE793  MET794  SER795  GLU796  ALA797  LYS798  CYS799  TRP800  GLU811  SER814 

> <Gold.Protein.RotatedAtoms>
  150.6958  134.4177  159.5190 H   0  0  0  0  0  0  0  0  0  0  0  0  # atno 6907 bound_to 6896
  152.1925  134.8656  160.0525 H   0  0  0  0  0  0  0  0  0  0  0  0  # atno 6908 bound_to 6896
  151.9606  133.3659  159.4071 H   0  0  0  0  0  0  0  0  0  0  0  0  # atno 6909 bound_to 6896
  146.1872  140.3978  142.8472 H   0  0  0  0  0  0  0  0  0  0  0  0  # atno 7974 bound_to 7965
  156.2603  140.2849  156.1016 H   0  0  0  0  0  0  0  0  0  0  0  0  # atno 8008 bound_to 7997
  155.1354  140.0394  157.2802 H   0  0  0  0  0  0  0  0  0  0  0  0  # atno 8009 bound_to 7997
  154.6569  140.2557  155.7158 H   0  0  0  0  0  0  0  0  0  0  0  0  # atno 8010 bound_to 7997
  140.5541  143.9456  150.6597 H   0  0  0  0  0  0  0  0  0  0  0  0  # atno 10167 bound_to 10162
  156.4548  130.8185  151.2416 H   0  0  0  0  0  0  0  0  0  0  0  0  # atno 10718 bound_to 10713
  152.9909  135.6162  154.2784 H   0  0  0  0  0  0  0  0  0  0  0  0  # atno 10763 bound_to 10752
  154.2514  135.2785  155.2817 H   0  0  0  0  0  0  0  0  0  0  0  0  # atno 10764 bound_to 10752
  154.5285  135.5795  153.6796 H   0  0  0  0  0  0  0  0  0  0  0  0  # atno 10765 bound_to 10752
  139.9300  134.9641  156.8217 H   0  0  0  0  0  0  0  0  0  0  0  0  # atno 11005 bound_to 11000
  144.8418  140.6869  143.6224 LP  0  0  0  0  0  0  0  0  0  0  0  0  # atno 17320 bound_to 7965
  145.3904  139.1618  143.4232 LP  0  0  0  0  0  0  0  0  0  0  0  0  # atno 17321 bound_to 7965
  140.2890  143.3337  152.1080 LP  0  0  0  0  0  0  0  0  0  0  0  0  # atno 17342 bound_to 10162
  139.5040  144.6767  151.6112 LP  0  0  0  0  0  0  0  0  0  0  0  0  # atno 17343 bound_to 10162
  157.7501  131.0126  150.3391 LP  0  0  0  0  0  0  0  0  0  0  0  0  # atno 17370 bound_to 10713
  156.3778  130.3875  149.7125 LP  0  0  0  0  0  0  0  0  0  0  0  0  # atno 17371 bound_to 10713
  140.6229  133.9977  155.7626 LP  0  0  0  0  0  0  0  0  0  0  0  0  # atno 17394 bound_to 11000
  141.0882  133.9957  157.3279 LP  0  0  0  0  0  0  0  0  0  0  0  0  # atno 17395 bound_to 11000

$$$$
