AV-unprocessed.smi:1871|AV-procd|sdf|7602|dock2
  -GOLD-   22720 9323D 1   1.00000     0.00000
 Structure written by MMmdl.
 41 43  0  0  0  0  0  0  0  0  2 V2000
  149.3211  141.5411  153.7797 O   0  0  0  0  0  0  0  0  0  0  0  0
  149.6980  140.6598  154.8168 C   0  0  0  0  0  0  0  0  0  0  0  0
  150.3575  141.3514  155.9681 C   0  0  0  0  0  0  0  0  0  0  0  0
  150.4288  142.6994  156.1632 N   0  3  0  0  0  0  0  0  0  0  0  0
  151.1289  142.9733  157.3382 C   0  0  0  0  0  0  0  0  0  0  0  0
  151.4554  144.1822  157.9445 C   0  0  0  0  0  0  0  0  0  0  0  0
  152.1855  144.1088  159.1491 C   0  0  0  0  0  0  0  0  0  0  0  0
  152.5611  142.8687  159.7056 C   0  0  0  0  0  0  0  0  0  0  0  0
  152.2249  141.6497  159.0808 C   0  0  0  0  0  0  0  0  0  0  0  0
  151.5040  141.7318  157.8898 C   0  0  0  0  0  0  0  0  0  0  0  0
  151.0133  140.7609  157.0099 N   0  0  0  0  0  0  0  0  0  0  0  0
  151.2614  139.3402  157.3026 C   0  0  0  0  0  0  0  0  0  0  0  0
  150.1532  138.4171  156.7560 C   0  0  1  0  0  0  0  0  0  0  0  0
  150.7616  137.4299  155.9495 O   0  0  0  0  0  0  0  0  0  0  0  0
  149.3051  137.8158  157.8678 C   0  0  0  0  0  0  0  0  0  0  0  0
  147.8958  137.8605  157.8063 C   0  0  0  0  0  0  0  0  0  0  0  0
  147.1225  137.2763  158.8276 C   0  0  0  0  0  0  0  0  0  0  0  0
  147.7413  136.6462  159.9260 C   0  0  0  0  0  0  0  0  0  0  0  0
  146.9300  136.0780  160.8818 O   0  0  0  0  0  0  0  0  0  0  0  0
  147.4923  135.5114  161.9826 C   0  0  0  0  0  0  0  0  0  0  0  0
  147.6425  136.4457  162.9524 F   0  0  0  0  0  0  0  0  0  0  0  0
  146.6901  134.5360  162.4755 F   0  0  0  0  0  0  0  0  0  0  0  0
  149.1548  136.5930  159.9803 C   0  0  0  0  0  0  0  0  0  0  0  0
  149.9290  137.1773  158.9598 C   0  0  0  0  0  0  0  0  0  0  0  0
  149.4778  141.1139  152.9509 H   0  0  0  0  0  0  0  0  0  0  0  0
  148.8100  140.1345  155.1690 H   0  0  0  0  0  0  0  0  0  0  0  0
  150.3801  139.9134  154.4107 H   0  0  0  0  0  0  0  0  0  0  0  0
  151.1685  145.1328  157.5192 H   0  0  0  0  0  0  0  0  0  0  0  0
  152.4624  145.0215  159.6566 H   0  0  0  0  0  0  0  0  0  0  0  0
  153.1189  142.8517  160.6309 H   0  0  0  0  0  0  0  0  0  0  0  0
  152.5182  140.7049  159.5143 H   0  0  0  0  0  0  0  0  0  0  0  0
  152.2322  139.0748  156.8814 H   0  0  0  0  0  0  0  0  0  0  0  0
  151.3567  139.2265  158.3828 H   0  0  0  0  0  0  0  0  0  0  0  0
  149.4999  138.9890  156.0962 H   0  0  0  0  0  0  0  0  0  0  0  0
  151.4616  137.0289  156.4423 H   0  0  0  0  0  0  0  0  0  0  0  0
  147.4013  138.3343  156.9709 H   0  0  0  0  0  0  0  0  0  0  0  0
  146.0445  137.3121  158.7672 H   0  0  0  0  0  0  0  0  0  0  0  0
  148.4769  135.0969  161.7644 H   0  0  0  0  0  0  0  0  0  0  0  0
  149.6600  136.0983  160.7964 H   0  0  0  0  0  0  0  0  0  0  0  0
  151.0066  137.1216  159.0123 H   0  0  0  0  0  0  0  0  0  0  0  0
  150.0231  143.3781  155.5315 H   0  0  0  0  0  0  0  0  0  0  0  0
  1  2  1  0  0  0  0
  1 25  1  0  0  0  0
  2  3  1  0  0  0  0
  2 26  1  0  0  0  0
  2 27  1  0  0  0  0
  3 11  1  0  0  0  0
  3  4  2  0  0  0  0
  4  5  1  0  0  0  0
  4 41  1  0  0  0  0
  5 10  2  0  0  0  0
  5  6  1  0  0  0  0
  6  7  2  0  0  0  0
  6 28  1  0  0  0  0
  7  8  1  0  0  0  0
  7 29  1  0  0  0  0
  8  9  2  0  0  0  0
  8 30  1  0  0  0  0
  9 10  1  0  0  0  0
  9 31  1  0  0  0  0
 10 11  1  0  0  0  0
 11 12  1  0  0  0  0
 12 13  1  0  0  0  0
 12 32  1  0  0  0  0
 12 33  1  0  0  0  0
 13 14  1  0  0  0  0
 13 15  1  0  0  0  0
 13 34  1  0  0  0  0
 14 35  1  0  0  0  0
 15 24  1  0  0  0  0
 15 16  2  0  0  0  0
 16 17  1  0  0  0  0
 16 36  1  0  0  0  0
 17 18  2  0  0  0  0
 17 37  1  0  0  0  0
 18 19  1  0  0  0  0
 18 23  1  0  0  0  0
 19 20  1  0  0  0  0
 20 21  1  0  0  0  0
 20 22  1  0  0  0  0
 20 38  1  0  0  0  0
 23 24  2  0  0  0  0
 23 39  1  0  0  0  0
 24 40  1  0  0  0  0
M  CHG  1   4   1
M  END
> <s_m_source_file>
AV-unprocessed.smi

> <i_m_source_file_index>
1871

> <i_lp_mmshare_version>
43012

> <i_f3d_flags>
0

> <s_epik_input>
W2NIXTFbY0hdW2NIXVtjSF1jKGMxMiluKGMobjIpW0NIMl1bT0hdKVtDSDJdW0NASF0oW09IXSljM1tjSF1bY0hdYyhPW0NIXShGKUYpW2NIXVtjSF0z

> <s_epik_cmdline>
J2VwaWtfcHl0aG9uJywgJy1waCcsICc3LjAnLCAnLXRuJywgJzgnLCAnLW1hJywgJzIwMCcsICctbWV0YWxfYmluZGluZycsICctaW1hZScsICc8aW5maWxlLm1hZT4nLCAnLW9tYWUnLCAnPG91dGZpbGUubWFlPic=

> <r_lp_tautomer_probability>
1

> <r_epik_Ionization_Penalty>
1.35642

> <r_epik_Ionization_Penalty_Charging>
1.35557

> <r_epik_Ionization_Penalty_Neutral>
0.000856035

> <r_epik_State_Penalty>
1.43401

> <r_epik_Charging_Adjusted_Penalty>
2.78958

> <i_epik_Tot_Q>
1

> <i_epik_Tot_abs_Q>
1

> <r_epik_Metal_State_Penalty>
5.47166

> <b_epik_Metal_Only>
0

> <s_lp_Force_Field>
OPLS_2005

> <r_lp_Energy>
14.8195

> <b_lp_Chiralities_Consistent>
1

> <s_lp_Variant>
AV-unprocessed.smi:1871-4

> <Gold.Version>
5.8.1

> <Gold.Id.Protein>
6NUR|6NUR_protein|mol2

> <Gold.PLP.Fitness>
55.3517

> <Gold.PLP.PLP>
-51.6927

> <Gold.PLP.part.hbond>
-3.9266

> <Gold.PLP.part.metal>
0.0000

> <Gold.PLP.part.buried>
-5.5424

> <Gold.PLP.part.nonpolar>
-43.7104

> <Gold.PLP.part.repulsive>
0.1194

> <Gold.PLP.ligand.clash>
0.0140

> <Gold.PLP.ligand.torsion>
1.7675

> <Gold.PLP.Chemscore.Hbond>
2.3485

> <Gold.PLP.Chemscore.CHOScore>
0.0000

> <Gold.PLP.Chemscore.Metal>
0.0000

> <Gold.Chemscore.Hbonds>
donor molecule, donor type, donor heavy atom, donor atom, acceptor molecule, acceptor atom, score
      L1  H     1    25       P1  7957  0.88
      L1  H     4    41       P1  8028  1.47

> <Gold.PLP.Chemscore.Internal.Correction>
0.1625

> <Gold.Rescore>
     Score         DG    S(hbond)    S(metal)    S(lipo)     H(rot)  DE(clash)    DE(int)     intcor
     12.36     -14.97       1.62        0.00     108.59       3.37       0.02       2.59       ----

> <Gold.Chemscore.Fitness>
12.3619

> <Gold.Chemscore.DG>
-14.9739

> <Gold.Chemscore.ZeroCoef>
-5.4800

> <Gold.Chemscore.Hbond>
1.6184

> <Gold.Chemscore.Metal>
0.0000

> <Gold.Chemscore.Lipo>
108.5921

> <Gold.Chemscore.Internal_Hbond>
0.0000

> <Gold.Chemscore.DEClash>
0.0213

> <Gold.Chemscore.DEInternal>
2.5907

> <Gold.Chemscore.Rot>
3.3659

> <Gold.Chemscore.Internal.Correction>
   9.000000E+99

> <Gold.Chemscore.Hbonds>
donor molecule, donor type, donor heavy atom, donor atom, acceptor molecule, acceptor atom, score
      L1  H     1    25       P1  7957  0.86
      L1  H     4    41       P1  8028  0.74

> <Gold.Chemscore.Hbond.Weighted>
-5.4053

> <Gold.Chemscore.Metal.Weighted>
-0.0000

> <Gold.Chemscore.Lipo.Weighted>
-12.7053

> <Gold.Chemscore.Internal_Hbond.Weighted>
0.0000

> <Gold.Chemscore.DEClash.Weighted>
0.0213

> <Gold.Chemscore.DEInternal.Weighted>
2.5907

> <Gold.Chemscore.Rot.Weighted>
8.6167

> <Gold.Chemscore.Internal.Correction.Weighted>
   9.000000E+99

> <Gold.Protein.RotatedTorsions>
[ 6907 6896 6895 6894 ] final   84.56 input  -60.11 | X-H torsion
[ 7974 7965 7964 7962 ] final  136.84 input  175.53 | X-H torsion
[ 8008 7997 7996 7995 ] final -137.71 input   59.86 | X-H torsion
[ 10167 10162 10161 10158 ] final  -39.09 input  -65.29 | X-H torsion
[ 10718 10713 10712 10709 ] final   62.68 input   66.30 | X-H torsion
[ 10763 10752 10751 10750 ] final   17.10 input  -60.55 | X-H torsion
[ 11005 11000 10999 10996 ] final   76.43 input  -57.11 | X-H torsion

> <Gold.Protein.ActiveResidues>
 VAL166  LYS551  ARG553  GLY616  TRP617  ASP618  TYR619  PRO620  LYS621  CYS622 
 ASP623  PHE694  ASN695  SER759  ASP760  ASP761  ALA762  ILE779  LEU786  VAL792 
 PHE793  MET794  SER795  GLU796  ALA797  LYS798  CYS799  TRP800  GLU811  SER814 

> <Gold.Protein.RotatedAtoms>
  152.5355  134.2722  159.8975 H   0  0  0  0  0  0  0  0  0  0  0  0  # atno 6907 bound_to 6896
  151.2678  133.4263  159.2627 H   0  0  0  0  0  0  0  0  0  0  0  0  # atno 6908 bound_to 6896
  151.0394  134.9611  159.8210 H   0  0  0  0  0  0  0  0  0  0  0  0  # atno 6909 bound_to 6896
  144.9526  139.4801  143.5518 H   0  0  0  0  0  0  0  0  0  0  0  0  # atno 7974 bound_to 7965
  155.4163  140.0515  157.3028 H   0  0  0  0  0  0  0  0  0  0  0  0  # atno 8008 bound_to 7997
  154.4923  140.2125  155.9481 H   0  0  0  0  0  0  0  0  0  0  0  0  # atno 8009 bound_to 7997
  156.1359  140.3163  155.8425 H   0  0  0  0  0  0  0  0  0  0  0  0  # atno 8010 bound_to 7997
  140.7074  143.3236  151.2733 H   0  0  0  0  0  0  0  0  0  0  0  0  # atno 10167 bound_to 10162
  157.5918  130.9064  149.9619 H   0  0  0  0  0  0  0  0  0  0  0  0  # atno 10718 bound_to 10713
  153.1369  135.6752  153.9088 H   0  0  0  0  0  0  0  0  0  0  0  0  # atno 10763 bound_to 10752
  153.8557  135.3087  155.3436 H   0  0  0  0  0  0  0  0  0  0  0  0  # atno 10764 bound_to 10752
  154.7755  135.4916  153.9819 H   0  0  0  0  0  0  0  0  0  0  0  0  # atno 10765 bound_to 10752
  139.9299  134.7600  156.1395 H   0  0  0  0  0  0  0  0  0  0  0  0  # atno 11005 bound_to 11000
  146.3326  139.8622  142.8854 LP  0  0  0  0  0  0  0  0  0  0  0  0  # atno 17320 bound_to 7965
  145.2821  141.0142  143.3711 LP  0  0  0  0  0  0  0  0  0  0  0  0  # atno 17321 bound_to 7965
  139.6697  144.0041  152.2745 LP  0  0  0  0  0  0  0  0  0  0  0  0  # atno 17342 bound_to 10162
  139.9636  144.6541  150.8056 LP  0  0  0  0  0  0  0  0  0  0  0  0  # atno 17343 bound_to 10162
  156.0974  130.3658  150.0281 LP  0  0  0  0  0  0  0  0  0  0  0  0  # atno 17370 bound_to 10713
  156.8402  130.9423  151.3632 LP  0  0  0  0  0  0  0  0  0  0  0  0  # atno 17371 bound_to 10713
  141.0880  133.6726  156.2479 LP  0  0  0  0  0  0  0  0  0  0  0  0  # atno 17394 bound_to 11000
  140.6232  134.5340  157.5550 LP  0  0  0  0  0  0  0  0  0  0  0  0  # atno 17395 bound_to 11000

$$$$
