AV-unprocessed.smi:53|AV-procd|sdf|527|dock3
  -GOLD-   2262016403D 1   1.00000     0.00000
 Structure written by MMmdl.
 30 31  0  0  0  0  0  0  0  0  1 V2000
  152.9077  141.3513  159.1370 N   0  0  0  0  0  0  0  0  0  0  0  0
  152.2089  141.2137  158.0015 C   0  0  0  0  0  0  0  0  0  0  0  0
  151.1952  142.1798  157.6465 C   0  0  0  0  0  0  0  0  0  0  0  0
  150.5294  141.9707  156.4892 C   0  0  0  0  0  0  0  0  0  0  0  0
  150.7797  140.8701  155.6768 N   0  0  0  0  0  0  0  0  0  0  0  0
  150.0559  140.6440  154.3590 C   0  0  2  0  0  0  0  0  0  0  0  0
  149.1595  141.6867  154.1208 O   0  0  0  0  0  0  0  0  0  0  0  0
  147.8738  141.3270  154.6094 C   0  0  1  0  0  0  0  0  0  0  0  0
  146.8012  142.2165  153.9638 C   0  0  0  0  0  0  0  0  0  0  0  0
  145.5158  141.7663  154.3352 O   0  0  0  0  0  0  0  0  0  0  0  0
  147.7834  139.8562  154.2003 C   0  0  2  0  0  0  0  0  0  0  0  0
  146.8862  139.1645  155.0461 O   0  0  0  0  0  0  0  0  0  0  0  0
  149.2107  139.3485  154.3936 C   0  0  1  0  0  0  0  0  0  0  0  0
  149.5614  138.4656  153.3474 O   0  0  0  0  0  0  0  0  0  0  0  0
  151.8068  139.9632  156.0370 C   0  0  0  0  0  0  0  0  0  0  0  0
  152.1039  139.0063  155.3222 O   0  0  0  0  0  0  0  0  0  0  0  0
  152.4674  140.1883  157.2143 N   0  0  0  0  0  0  0  0  0  0  0  0
  150.8432  140.6571  153.6024 H   0  0  0  0  0  0  0  0  0  0  0  0
  147.8494  141.4091  155.6980 H   0  0  0  0  0  0  0  0  0  0  0  0
  147.4718  139.7718  153.1576 H   0  0  0  0  0  0  0  0  0  0  0  0
  149.3249  138.8479  155.3567 H   0  0  0  0  0  0  0  0  0  0  0  0
  153.6191  140.6772  159.3799 H   0  0  0  0  0  0  0  0  0  0  0  0
  152.7207  142.1327  159.7488 H   0  0  0  0  0  0  0  0  0  0  0  0
  150.9562  143.0407  158.2544 H   0  0  0  0  0  0  0  0  0  0  0  0
  149.7839  142.7032  156.2194 H   0  0  0  0  0  0  0  0  0  0  0  0
  146.9336  143.2629  154.2398 H   0  0  0  0  0  0  0  0  0  0  0  0
  146.8682  142.1561  152.8771 H   0  0  0  0  0  0  0  0  0  0  0  0
  145.1697  141.2345  153.6349 H   0  0  0  0  0  0  0  0  0  0  0  0
  147.1420  138.2551  155.0713 H   0  0  0  0  0  0  0  0  0  0  0  0
  149.4648  138.9261  152.5271 H   0  0  0  0  0  0  0  0  0  0  0  0
  1  2  1  0  0  0  0
  1 22  1  0  0  0  0
  1 23  1  0  0  0  0
  2 17  2  0  0  0  0
  2  3  1  0  0  0  0
  3  4  2  0  0  0  0
  3 24  1  0  0  0  0
  4  5  1  0  0  0  0
  4 25  1  0  0  0  0
  5  6  1  0  0  0  0
  5 15  1  0  0  0  0
  6 18  1  0  0  0  0
  6 13  1  0  0  0  0
  6  7  1  0  0  0  0
  7  8  1  0  0  0  0
  8 19  1  0  0  0  0
  8  9  1  0  0  0  0
  8 11  1  0  0  0  0
  9 10  1  0  0  0  0
  9 26  1  0  0  0  0
  9 27  1  0  0  0  0
 10 28  1  0  0  0  0
 11 20  1  0  0  0  0
 11 12  1  0  0  0  0
 11 13  1  0  0  0  0
 12 29  1  0  0  0  0
 13 21  1  0  0  0  0
 13 14  1  0  0  0  0
 14 30  1  0  0  0  0
 15 16  2  0  0  0  0
 15 17  1  0  0  0  0
M  END
> <s_m_source_file>
AV-unprocessed.smi

> <i_m_source_file_index>
53

> <i_lp_mmshare_version>
43012

> <i_f3d_flags>
0

> <s_epik_input>
W05IMl1jMVtjSF1bY0hdbihjKD1PKW4xKVtDQEBIXTJPW0NASF0oW0NIMl1bT0hdKVtDQEBIXShbT0hdKVtDQEBIXTJbT0hd

> <s_epik_cmdline>
J2VwaWtfcHl0aG9uJywgJy1waCcsICc3LjAnLCAnLXRuJywgJzgnLCAnLW1hJywgJzIwMCcsICctbWV0YWxfYmluZGluZycsICctaW1hZScsICc8aW5maWxlLm1hZT4nLCAnLW9tYWUnLCAnPG91dGZpbGUubWFlPic=

> <r_lp_tautomer_probability>
0.99996

> <r_epik_Ionization_Penalty>
0.00069087

> <r_epik_Ionization_Penalty_Charging>
2.61959e-08

> <r_epik_Ionization_Penalty_Neutral>
0.000690844

> <r_epik_State_Penalty>
1.15523e-05

> <r_epik_Charging_Adjusted_Penalty>
1.15785e-05

> <i_epik_Tot_Q>
0

> <i_epik_Tot_abs_Q>
0

> <r_epik_Metal_State_Penalty>
-0

> <b_epik_Metal_Only>
0

> <s_epik_Chemistry_Notes>
This compound contains an acetal/aminal-like group ( X-CH(R)-Y where X, Y are N, S, or O) that may be acid/base labile, releasing an aldehyde.

> <s_lp_Force_Field>
OPLS_2005

> <r_lp_Energy>
26.1744

> <b_lp_Chiralities_Consistent>
1

> <s_lp_Variant>
AV-unprocessed.smi:53-15

> <Gold.Version>
5.8.1

> <Gold.Id.Protein>
6NUR|6NUR_protein|mol2

> <Gold.PLP.Fitness>
42.7997

> <Gold.PLP.PLP>
-29.2337

> <Gold.PLP.part.hbond>
-5.6456

> <Gold.PLP.part.metal>
0.0000

> <Gold.PLP.part.buried>
-1.5466

> <Gold.PLP.part.nonpolar>
-21.7227

> <Gold.PLP.part.repulsive>
0.2889

> <Gold.PLP.ligand.clash>
0.0000

> <Gold.PLP.ligand.torsion>
0.0540

> <Gold.PLP.Chemscore.Hbond>
3.5464

> <Gold.PLP.Chemscore.CHOScore>
1.0000

> <Gold.PLP.Chemscore.Metal>
0.0000

> <Gold.Chemscore.Hbonds>
donor molecule, donor type, donor heavy atom, donor atom, acceptor molecule, acceptor atom, score
      L1  H    10    28       P1 10175  1.00
      L1  H    14    30       P1  7957  1.00
      P1  H  7997  8009       L1    17  1.00
      P1  H  8011  8017       L1     7  0.56
      L1  C     4    25       P1  8028  1.00

> <Gold.PLP.Chemscore.Internal.Correction>
0.0350

> <Gold.Rescore>
     Score         DG    S(hbond)    S(metal)    S(lipo)     H(rot)  DE(clash)    DE(int)     intcor
      6.59      -8.30       2.33        0.00      38.80       3.71       1.61       0.10       ----

> <Gold.Chemscore.Fitness>
6.5852

> <Gold.Chemscore.DG>
-8.2973

> <Gold.Chemscore.ZeroCoef>
-5.4800

> <Gold.Chemscore.Hbond>
2.3277

> <Gold.Chemscore.Metal>
0.0000

> <Gold.Chemscore.Lipo>
38.7967

> <Gold.Chemscore.Internal_Hbond>
0.0000

> <Gold.Chemscore.DEClash>
1.6081

> <Gold.Chemscore.DEInternal>
0.1040

> <Gold.Chemscore.Rot>
3.7095

> <Gold.Chemscore.Internal.Correction>
   9.000000E+99

> <Gold.Chemscore.Hbonds>
donor molecule, donor type, donor heavy atom, donor atom, acceptor molecule, acceptor atom, score
      L1  H    10    28       P1 10175  0.41
      L1  H    14    30       P1  7957  0.88
      P1  H  7997  8009       L1    17  0.34
      P1  H  8011  8017       L1     7  0.21

> <Gold.Chemscore.Hbond.Weighted>
-7.7745

> <Gold.Chemscore.Metal.Weighted>
-0.0000

> <Gold.Chemscore.Lipo.Weighted>
-4.5392

> <Gold.Chemscore.Internal_Hbond.Weighted>
0.0000

> <Gold.Chemscore.DEClash.Weighted>
1.6081

> <Gold.Chemscore.DEInternal.Weighted>
0.1040

> <Gold.Chemscore.Rot.Weighted>
9.4964

> <Gold.Chemscore.Internal.Correction.Weighted>
   9.000000E+99

> <Gold.Protein.RotatedTorsions>
[ 6907 6896 6895 6894 ] final   80.52 input  -60.11 | X-H torsion
[ 7974 7965 7964 7962 ] final   84.66 input  175.53 | X-H torsion
[ 8008 7997 7996 7995 ] final  176.30 input   59.86 | X-H torsion
[ 10167 10162 10161 10158 ] final   64.61 input  -65.29 | X-H torsion
[ 10718 10713 10712 10709 ] final  110.92 input   66.30 | X-H torsion
[ 10763 10752 10751 10750 ] final -110.90 input  -60.55 | X-H torsion
[ 11005 11000 10999 10996 ] final   12.48 input  -57.11 | X-H torsion

> <Gold.Protein.ActiveResidues>
 VAL166  LYS551  ARG553  GLY616  TRP617  ASP618  TYR619  PRO620  LYS621  CYS622 
 ASP623  PHE694  ASN695  SER759  ASP760  ASP761  ALA762  ILE779  LEU786  VAL792 
 PHE793  MET794  SER795  GLU796  ALA797  LYS798  CYS799  TRP800  GLU811  SER814 

> <Gold.Protein.RotatedAtoms>
  152.5237  134.3345  159.9194 H   0  0  0  0  0  0  0  0  0  0  0  0  # atno 6907 bound_to 6896
  151.3294  133.4000  159.2669 H   0  0  0  0  0  0  0  0  0  0  0  0  # atno 6908 bound_to 6896
  150.9893  134.9249  159.7947 H   0  0  0  0  0  0  0  0  0  0  0  0  # atno 6909 bound_to 6896
  145.5958  139.2345  143.2274 H   0  0  0  0  0  0  0  0  0  0  0  0  # atno 7974 bound_to 7965
  156.0780  140.1387  156.9748 H   0  0  0  0  0  0  0  0  0  0  0  0  # atno 8008 bound_to 7997
  154.4568  140.0958  156.6831 H   0  0  0  0  0  0  0  0  0  0  0  0  # atno 8009 bound_to 7997
  155.5122  140.3454  155.4393 H   0  0  0  0  0  0  0  0  0  0  0  0  # atno 8010 bound_to 7997
  140.1203  144.4737  150.6924 H   0  0  0  0  0  0  0  0  0  0  0  0  # atno 10167 bound_to 10162
  157.6470  131.0941  150.6673 H   0  0  0  0  0  0  0  0  0  0  0  0  # atno 10718 bound_to 10713
  154.8272  135.4547  154.0957 H   0  0  0  0  0  0  0  0  0  0  0  0  # atno 10763 bound_to 10752
  153.2261  135.6900  153.7950 H   0  0  0  0  0  0  0  0  0  0  0  0  # atno 10764 bound_to 10752
  153.7350  135.3321  155.3269 H   0  0  0  0  0  0  0  0  0  0  0  0  # atno 10765 bound_to 10752
  140.4915  134.0836  155.7772 H   0  0  0  0  0  0  0  0  0  0  0  0  # atno 11005 bound_to 11000
  146.1613  140.6783  142.9276 LP  0  0  0  0  0  0  0  0  0  0  0  0  # atno 17320 bound_to 7965
  144.7331  140.4731  143.6923 LP  0  0  0  0  0  0  0  0  0  0  0  0  # atno 17321 bound_to 7965
  140.6876  143.2358  151.5219 LP  0  0  0  0  0  0  0  0  0  0  0  0  # atno 17342 bound_to 10162
  139.5572  144.2246  152.1632 LP  0  0  0  0  0  0  0  0  0  0  0  0  # atno 17343 bound_to 10162
  156.6988  130.4617  149.5578 LP  0  0  0  0  0  0  0  0  0  0  0  0  # atno 17370 bound_to 10713
  156.1809  130.6498  151.0951 LP  0  0  0  0  0  0  0  0  0  0  0  0  # atno 17371 bound_to 10713
  141.1482  133.9017  157.2164 LP  0  0  0  0  0  0  0  0  0  0  0  0  # atno 17394 bound_to 11000
  139.9767  135.0112  156.9647 LP  0  0  0  0  0  0  0  0  0  0  0  0  # atno 17395 bound_to 11000

$$$$
