AV-unprocessed.smi:2004|AV-procd|sdf|8121|dock4
  -GOLD-   2272010353D 1   1.00000     0.00000
 Structure written by MMmdl.
 39 41  0  0  0  0  0  0  0  0  1 V2000
  152.8137  139.3732  157.4020 O   0  0  0  0  0  0  0  0  0  0  0  0
  151.7355  140.2839  157.4562 C   0  0  2  0  0  0  0  0  0  0  0  0
  151.5499  140.7269  158.9190 C   0  0  0  0  0  0  0  0  0  0  0  0
  152.7942  140.6205  159.5908 O   0  0  0  0  0  0  0  0  0  0  0  0
  153.6476  141.7270  159.3466 C   0  0  0  0  0  0  0  0  0  0  0  0
  152.9550  143.0453  159.6329 C   0  0  0  0  0  0  0  0  0  0  0  0
  152.7319  143.9686  158.5894 C   0  0  0  0  0  0  0  0  0  0  0  0
  152.0753  145.1873  158.8499 C   0  0  0  0  0  0  0  0  0  0  0  0
  151.6343  145.4854  160.1538 C   0  0  0  0  0  0  0  0  0  0  0  0
  151.8482  144.5633  161.1966 C   0  0  0  0  0  0  0  0  0  0  0  0
  152.5045  143.3443  160.9363 C   0  0  0  0  0  0  0  0  0  0  0  0
  150.5058  139.5674  156.8636 C   0  0  0  0  0  0  0  0  0  0  0  0
  149.3041  140.3807  156.9101 N   0  0  0  0  0  0  0  0  0  0  0  0
  148.6932  140.8553  158.0127 C   0  0  0  0  0  0  0  0  0  0  0  0
  147.5975  141.5878  157.8356 N   0  0  0  0  0  0  0  0  0  0  0  0
  147.4860  141.5938  156.4558 C   0  0  0  0  0  0  0  0  0  0  0  0
  146.5253  142.2025  155.6166 C   0  0  0  0  0  0  0  0  0  0  0  0
  146.6152  142.0712  154.2153 C   0  0  0  0  0  0  0  0  0  0  0  0
  147.6640  141.3310  153.6322 C   0  0  0  0  0  0  0  0  0  0  0  0
  148.6326  140.7147  154.4477 C   0  0  0  0  0  0  0  0  0  0  0  0
  148.5402  140.8487  155.8458 C   0  0  0  0  0  0  0  0  0  0  0  0
  152.5614  138.5865  157.8612 H   0  0  0  0  0  0  0  0  0  0  0  0
  151.9768  141.1489  156.8370 H   0  0  0  0  0  0  0  0  0  0  0  0
  151.2348  141.7697  158.9642 H   0  0  0  0  0  0  0  0  0  0  0  0
  150.7769  140.1350  159.4123 H   0  0  0  0  0  0  0  0  0  0  0  0
  154.5349  141.6611  159.9779 H   0  0  0  0  0  0  0  0  0  0  0  0
  153.9848  141.7076  158.3089 H   0  0  0  0  0  0  0  0  0  0  0  0
  153.0647  143.7440  157.5865 H   0  0  0  0  0  0  0  0  0  0  0  0
  151.9085  145.8926  158.0491 H   0  0  0  0  0  0  0  0  0  0  0  0
  151.1302  146.4195  160.3534 H   0  0  0  0  0  0  0  0  0  0  0  0
  151.5075  144.7899  162.1961 H   0  0  0  0  0  0  0  0  0  0  0  0
  152.6618  142.6417  161.7416 H   0  0  0  0  0  0  0  0  0  0  0  0
  150.6908  139.3020  155.8216 H   0  0  0  0  0  0  0  0  0  0  0  0
  150.3181  138.6324  157.3928 H   0  0  0  0  0  0  0  0  0  0  0  0
  149.0746  140.6489  159.0020 H   0  0  0  0  0  0  0  0  0  0  0  0
  145.7179  142.7722  156.0521 H   0  0  0  0  0  0  0  0  0  0  0  0
  145.8753  142.5415  153.5844 H   0  0  0  0  0  0  0  0  0  0  0  0
  147.7245  141.2361  152.5578 H   0  0  0  0  0  0  0  0  0  0  0  0
  149.4356  140.1459  154.0031 H   0  0  0  0  0  0  0  0  0  0  0  0
  1  2  1  0  0  0  0
  1 22  1  0  0  0  0
  2  3  1  0  0  0  0
  2 12  1  0  0  0  0
  2 23  1  0  0  0  0
  3  4  1  0  0  0  0
  3 24  1  0  0  0  0
  3 25  1  0  0  0  0
  4  5  1  0  0  0  0
  5  6  1  0  0  0  0
  5 26  1  0  0  0  0
  5 27  1  0  0  0  0
  6 11  1  0  0  0  0
  6  7  2  0  0  0  0
  7  8  1  0  0  0  0
  7 28  1  0  0  0  0
  8  9  2  0  0  0  0
  8 29  1  0  0  0  0
  9 10  1  0  0  0  0
  9 30  1  0  0  0  0
 10 11  2  0  0  0  0
 10 31  1  0  0  0  0
 11 32  1  0  0  0  0
 12 13  1  0  0  0  0
 12 33  1  0  0  0  0
 12 34  1  0  0  0  0
 13 21  1  0  0  0  0
 13 14  1  0  0  0  0
 14 15  2  0  0  0  0
 14 35  1  0  0  0  0
 15 16  1  0  0  0  0
 16 21  2  0  0  0  0
 16 17  1  0  0  0  0
 17 18  2  0  0  0  0
 17 36  1  0  0  0  0
 18 19  1  0  0  0  0
 18 37  1  0  0  0  0
 19 20  2  0  0  0  0
 19 38  1  0  0  0  0
 20 21  1  0  0  0  0
 20 39  1  0  0  0  0
M  END
> <s_m_source_file>
AV-unprocessed.smi

> <i_m_source_file_index>
2004

> <i_lp_mmshare_version>
43012

> <i_f3d_flags>
0

> <s_epik_input>
W2NIXTFbY0hdW2NIXVtjSF1jKGMxMiluKFtjSF1uMilbQ0gyXVtDQEhdKFtPSF0pW0NIMl1PW0NIMl1jM1tjSF1bY0hdW2NIXVtjSF1bY0hdMw==

> <s_epik_cmdline>
J2VwaWtfcHl0aG9uJywgJy1waCcsICc3LjAnLCAnLXRuJywgJzgnLCAnLW1hJywgJzIwMCcsICctbWV0YWxfYmluZGluZycsICctaW1hZScsICc8aW5maWxlLm1hZT4nLCAnLW9tYWUnLCAnPG91dGZpbGUubWFlPic=

> <r_epik_Ionization_Penalty>
0.0713119

> <r_epik_Ionization_Penalty_Charging>
0

> <r_epik_Ionization_Penalty_Neutral>
0.0713119

> <r_epik_State_Penalty>
0.06259

> <r_epik_Charging_Adjusted_Penalty>
0.06259

> <i_epik_Tot_Q>
0

> <i_epik_Tot_abs_Q>
0

> <r_epik_Metal_State_Penalty>
6.60119e-05

> <b_epik_Metal_Only>
0

> <s_lp_Force_Field>
OPLS_2005

> <r_lp_Energy>
16.1981

> <b_lp_Chiralities_Consistent>
1

> <s_lp_Variant>
AV-unprocessed.smi:2004-1

> <Gold.Version>
5.8.1

> <Gold.Id.Protein>
6NUR|6NUR_protein|mol2

> <Gold.PLP.Fitness>
48.6282

> <Gold.PLP.PLP>
-46.6417

> <Gold.PLP.part.hbond>
-1.0000

> <Gold.PLP.part.metal>
0.0000

> <Gold.PLP.part.buried>
-5.0550

> <Gold.PLP.part.nonpolar>
-40.3918

> <Gold.PLP.part.repulsive>
0.0978

> <Gold.PLP.ligand.clash>
0.0068

> <Gold.PLP.ligand.torsion>
0.5784

> <Gold.PLP.Chemscore.Hbond>
1.0000

> <Gold.PLP.Chemscore.CHOScore>
0.0000

> <Gold.PLP.Chemscore.Metal>
0.0000

> <Gold.Chemscore.Hbonds>
donor molecule, donor type, donor heavy atom, donor atom, acceptor molecule, acceptor atom, score
      P1  H  7997  8010       L1     1  1.00

> <Gold.PLP.Chemscore.Internal.Correction>
0.1502

> <Gold.Rescore>
     Score         DG    S(hbond)    S(metal)    S(lipo)     H(rot)  DE(clash)    DE(int)     intcor
     16.84     -18.64       0.97        0.00     135.81       2.33       0.11       1.69       ----

> <Gold.Chemscore.Fitness>
16.8386

> <Gold.Chemscore.DG>
-18.6430

> <Gold.Chemscore.ZeroCoef>
-5.4800

> <Gold.Chemscore.Hbond>
0.9687

> <Gold.Chemscore.Metal>
0.0000

> <Gold.Chemscore.Lipo>
135.8061

> <Gold.Chemscore.Internal_Hbond>
0.0000

> <Gold.Chemscore.DEClash>
0.1133

> <Gold.Chemscore.DEInternal>
1.6911

> <Gold.Chemscore.Rot>
2.3288

> <Gold.Chemscore.Internal.Correction>
   9.000000E+99

> <Gold.Chemscore.Hbonds>
donor molecule, donor type, donor heavy atom, donor atom, acceptor molecule, acceptor atom, score
      P1  H  7997  8010       L1     1  0.88

> <Gold.Chemscore.Hbond.Weighted>
-3.2354

> <Gold.Chemscore.Metal.Weighted>
-0.0000

> <Gold.Chemscore.Lipo.Weighted>
-15.8893

> <Gold.Chemscore.Internal_Hbond.Weighted>
0.0000

> <Gold.Chemscore.DEClash.Weighted>
0.1133

> <Gold.Chemscore.DEInternal.Weighted>
1.6911

> <Gold.Chemscore.Rot.Weighted>
5.9616

> <Gold.Chemscore.Internal.Correction.Weighted>
   9.000000E+99

> <Gold.Protein.RotatedTorsions>
[ 6907 6896 6895 6894 ] final   53.37 input  -60.11 | X-H torsion
[ 7974 7965 7964 7962 ] final   53.79 input  175.53 | X-H torsion
[ 8008 7997 7996 7995 ] final   60.14 input   59.86 | X-H torsion
[ 10167 10162 10161 10158 ] final  -54.80 input  -65.29 | X-H torsion
[ 10718 10713 10712 10709 ] final -131.72 input   66.30 | X-H torsion
[ 10763 10752 10751 10750 ] final -151.85 input  -60.55 | X-H torsion
[ 11005 11000 10999 10996 ] final   63.96 input  -57.11 | X-H torsion

> <Gold.Protein.ActiveResidues>
 VAL166  LYS551  ARG553  GLY616  TRP617  ASP618  TYR619  PRO620  LYS621  CYS622 
 ASP623  PHE694  ASN695  SER759  ASP760  ASP761  ALA762  ILE779  LEU786  VAL792 
 PHE793  MET794  SER795  GLU796  ALA797  LYS798  CYS799  TRP800  GLU811  SER814 

> <Gold.Protein.RotatedAtoms>
  152.3330  134.7235  160.0284 H   0  0  0  0  0  0  0  0  0  0  0  0  # atno 6907 bound_to 6896
  151.7645  133.3331  159.3435 H   0  0  0  0  0  0  0  0  0  0  0  0  # atno 6908 bound_to 6896
  150.7434  134.6007  159.6079 H   0  0  0  0  0  0  0  0  0  0  0  0  # atno 6909 bound_to 6896
  145.9676  139.4118  143.0210 H   0  0  0  0  0  0  0  0  0  0  0  0  # atno 7974 bound_to 7965
  155.5775  140.3491  155.4531 H   0  0  0  0  0  0  0  0  0  0  0  0  # atno 8008 bound_to 7997
  156.0398  140.1293  157.0193 H   0  0  0  0  0  0  0  0  0  0  0  0  # atno 8009 bound_to 7997
  154.4387  140.1026  156.6206 H   0  0  0  0  0  0  0  0  0  0  0  0  # atno 8010 bound_to 7997
  140.6410  143.2508  151.4989 H   0  0  0  0  0  0  0  0  0  0  0  0  # atno 10167 bound_to 10162
  156.2273  130.7015  151.0820 H   0  0  0  0  0  0  0  0  0  0  0  0  # atno 10718 bound_to 10713
  154.8032  135.3250  154.7498 H   0  0  0  0  0  0  0  0  0  0  0  0  # atno 10763 bound_to 10752
  153.8162  135.6891  153.4838 H   0  0  0  0  0  0  0  0  0  0  0  0  # atno 10764 bound_to 10752
  153.1761  135.4604  154.9910 H   0  0  0  0  0  0  0  0  0  0  0  0  # atno 10765 bound_to 10752
  139.9990  134.6472  155.9962 H   0  0  0  0  0  0  0  0  0  0  0  0  # atno 11005 bound_to 11000
  145.7952  140.9796  143.1028 LP  0  0  0  0  0  0  0  0  0  0  0  0  # atno 17320 bound_to 7965
  144.6829  139.9732  143.7482 LP  0  0  0  0  0  0  0  0  0  0  0  0  # atno 17321 bound_to 7965
  139.5619  144.2135  152.1705 LP  0  0  0  0  0  0  0  0  0  0  0  0  # atno 17342 bound_to 10162
  140.1405  144.5206  150.6747 LP  0  0  0  0  0  0  0  0  0  0  0  0  # atno 17343 bound_to 10162
  157.7116  131.0731  150.6479 LP  0  0  0  0  0  0  0  0  0  0  0  0  # atno 17370 bound_to 10713
  156.6545  130.4494  149.5708 LP  0  0  0  0  0  0  0  0  0  0  0  0  # atno 17371 bound_to 10713
  141.1627  133.6538  156.4374 LP  0  0  0  0  0  0  0  0  0  0  0  0  # atno 17394 bound_to 11000
  140.4763  134.6706  157.5151 LP  0  0  0  0  0  0  0  0  0  0  0  0  # atno 17395 bound_to 11000

$$$$
