AV-unprocessed.smi:3085|AV-procd|sdf|11756|dock1
  -GOLD-   2272017143D 1   1.00000     0.00000
 Structure written by MMmdl.
 27 28  0  0  0  0  0  0  0  0  1 V2000
  153.4221  142.1775  160.8307 C   0  0  0  0  0  0  0  0  0  0  0  0
  152.2692  143.1371  160.5146 C   0  0  0  0  0  0  0  0  0  0  0  0
  151.6827  142.8911  159.1640 C   0  0  0  0  0  0  0  0  0  0  0  0
  152.1112  141.8837  158.3452 N   0  0  0  0  0  0  0  0  0  0  0  0
  151.2819  142.0448  157.3177 C   0  0  0  0  0  0  0  0  0  0  0  0
  151.2541  141.2048  156.0796 C   0  0  2  0  0  0  0  0  0  0  0  0
  149.9700  141.4205  155.2551 C   0  0  0  0  0  0  0  0  0  0  0  0
  149.9492  140.5177  154.1054 N   0  0  0  0  0  0  0  0  0  0  0  0
  150.1043  139.1259  154.5264 C   0  0  0  0  0  0  0  0  0  0  0  0
  151.3788  138.9617  155.3741 C   0  0  0  0  0  0  0  0  0  0  0  0
  151.3263  139.8423  156.4918 O   0  0  0  0  0  0  0  0  0  0  0  0
  150.4230  143.0484  157.5116 N   0  0  0  0  0  0  0  0  0  0  0  0
  150.6581  143.6142  158.7141 N   0  0  0  0  0  0  0  0  0  0  0  0
  149.6939  143.3618  156.8870 H   0  0  0  0  0  0  0  0  0  0  0  0
  153.8342  142.3783  161.8197 H   0  0  0  0  0  0  0  0  0  0  0  0
  154.2298  142.2816  160.1056 H   0  0  0  0  0  0  0  0  0  0  0  0
  153.0870  141.1401  160.8139 H   0  0  0  0  0  0  0  0  0  0  0  0
  151.4879  143.0376  161.2691 H   0  0  0  0  0  0  0  0  0  0  0  0
  152.6208  144.1680  160.5673 H   0  0  0  0  0  0  0  0  0  0  0  0
  152.1321  141.4473  155.4775 H   0  0  0  0  0  0  0  0  0  0  0  0
  149.0950  141.2401  155.8809 H   0  0  0  0  0  0  0  0  0  0  0  0
  149.9079  142.4560  154.9198 H   0  0  0  0  0  0  0  0  0  0  0  0
  149.0729  140.6253  153.6043 H   0  0  0  0  0  0  0  0  0  0  0  0
  149.2364  138.8153  155.1092 H   0  0  0  0  0  0  0  0  0  0  0  0
  150.1463  138.4735  153.6541 H   0  0  0  0  0  0  0  0  0  0  0  0
  151.4579  137.9368  155.7363 H   0  0  0  0  0  0  0  0  0  0  0  0
  152.2724  139.1577  154.7792 H   0  0  0  0  0  0  0  0  0  0  0  0
  1  2  1  0  0  0  0
  1 15  1  0  0  0  0
  1 16  1  0  0  0  0
  1 17  1  0  0  0  0
  2 18  1  0  0  0  0
  2 19  1  0  0  0  0
  2  3  1  0  0  0  0
  3  4  1  0  0  0  0
  3 13  2  0  0  0  0
  4  5  2  0  0  0  0
  5  6  1  0  0  0  0
  5 12  1  0  0  0  0
  6 11  1  0  0  0  0
  6  7  1  0  0  0  0
  6 20  1  0  0  0  0
  7  8  1  0  0  0  0
  7 21  1  0  0  0  0
  7 22  1  0  0  0  0
  8  9  1  0  0  0  0
  8 23  1  0  0  0  0
  9 10  1  0  0  0  0
  9 24  1  0  0  0  0
  9 25  1  0  0  0  0
 10 11  1  0  0  0  0
 10 26  1  0  0  0  0
 10 27  1  0  0  0  0
 12 13  1  0  0  0  0
 12 14  1  0  0  0  0
M  END
> <s_m_source_file>
AV-unprocessed.smi

> <i_m_source_file_index>
3085

> <i_lp_mmshare_version>
43012

> <i_f3d_flags>
0

> <s_epik_input>
W0NIM11bQ0gyXWMxbmMobltuSF0xKVtDQEBIXTJbQ0gyXVtOSF1bQ0gyXVtDSDJdTzI=

> <s_epik_cmdline>
J2VwaWtfcHl0aG9uJywgJy1waCcsICc3LjAnLCAnLXRuJywgJzgnLCAnLW1hJywgJzIwMCcsICctbWV0YWxfYmluZGluZycsICctaW1hZScsICc8aW5maWxlLm1hZT4nLCAnLW9tYWUnLCAnPG91dGZpbGUubWFlPic=

> <r_epik_Ionization_Penalty>
0.98256

> <r_epik_Ionization_Penalty_Charging>
0

> <r_epik_Ionization_Penalty_Neutral>
0.98256

> <r_epik_State_Penalty>
1.54989

> <r_epik_Charging_Adjusted_Penalty>
1.54989

> <i_epik_Tot_Q>
0

> <i_epik_Tot_abs_Q>
0

> <r_epik_Metal_State_Penalty>
1.76981

> <b_epik_Metal_Only>
0

> <s_lp_Force_Field>
OPLS_2005

> <r_lp_Energy>
9.52309

> <b_lp_Chiralities_Consistent>
1

> <s_lp_Variant>
AV-unprocessed.smi:3085-7

> <Gold.Version>
5.8.1

> <Gold.Id.Protein>
6NUR|6NUR_protein|mol2

> <Gold.PLP.Fitness>
31.9119

> <Gold.PLP.PLP>
-27.4524

> <Gold.PLP.part.hbond>
-3.0000

> <Gold.PLP.part.metal>
0.0000

> <Gold.PLP.part.buried>
-4.5076

> <Gold.PLP.part.nonpolar>
-20.2851

> <Gold.PLP.part.repulsive>
0.1448

> <Gold.PLP.ligand.clash>
0.0000

> <Gold.PLP.ligand.torsion>
0.3229

> <Gold.PLP.Chemscore.Hbond>
1.6992

> <Gold.PLP.Chemscore.CHOScore>
0.0000

> <Gold.PLP.Chemscore.Metal>
0.0000

> <Gold.Chemscore.Hbonds>
donor molecule, donor type, donor heavy atom, donor atom, acceptor molecule, acceptor atom, score
      L1  H    12    14       P1  8028  1.00
      P1  H  7989  7998       L1     8  0.66

> <Gold.PLP.Chemscore.Internal.Correction>
0.0078

> <Gold.Rescore>
     Score         DG    S(hbond)    S(metal)    S(lipo)     H(rot)  DE(clash)    DE(int)     intcor
     11.39     -11.64       1.02        0.00      51.73       1.28       0.00       0.25       ----

> <Gold.Chemscore.Fitness>
11.3929

> <Gold.Chemscore.DG>
-11.6447

> <Gold.Chemscore.ZeroCoef>
-5.4800

> <Gold.Chemscore.Hbond>
1.0158

> <Gold.Chemscore.Metal>
0.0000

> <Gold.Chemscore.Lipo>
51.7318

> <Gold.Chemscore.Internal_Hbond>
0.0000

> <Gold.Chemscore.DEClash>
0.0000

> <Gold.Chemscore.DEInternal>
0.2518

> <Gold.Chemscore.Rot>
1.2815

> <Gold.Chemscore.Internal.Correction>
   9.000000E+99

> <Gold.Chemscore.Hbonds>
donor molecule, donor type, donor heavy atom, donor atom, acceptor molecule, acceptor atom, score
      L1  H    12    14       P1  8028  0.92
      P1  H  7989  7998       L1     8  0.05

> <Gold.Chemscore.Hbond.Weighted>
-3.3926

> <Gold.Chemscore.Metal.Weighted>
-0.0000

> <Gold.Chemscore.Lipo.Weighted>
-6.0526

> <Gold.Chemscore.Internal_Hbond.Weighted>
0.0000

> <Gold.Chemscore.DEClash.Weighted>
0.0000

> <Gold.Chemscore.DEInternal.Weighted>
0.2518

> <Gold.Chemscore.Rot.Weighted>
3.2805

> <Gold.Chemscore.Internal.Correction.Weighted>
   9.000000E+99

> <Gold.Protein.RotatedTorsions>
[ 6907 6896 6895 6894 ] final  -49.17 input  -60.11 | X-H torsion
[ 7974 7965 7964 7962 ] final -107.95 input  175.53 | X-H torsion
[ 8008 7997 7996 7995 ] final  -50.88 input   59.86 | X-H torsion
[ 10167 10162 10161 10158 ] final  101.55 input  -65.29 | X-H torsion
[ 10718 10713 10712 10709 ] final -122.09 input   66.30 | X-H torsion
[ 10763 10752 10751 10750 ] final   46.35 input  -60.55 | X-H torsion
[ 11005 11000 10999 10996 ] final   61.71 input  -57.11 | X-H torsion

> <Gold.Protein.ActiveResidues>
 VAL166  LYS551  ARG553  GLY616  TRP617  ASP618  TYR619  PRO620  LYS621  CYS622 
 ASP623  PHE694  ASN695  SER759  ASP760  ASP761  ALA762  ILE779  LEU786  VAL792 
 PHE793  MET794  SER795  GLU796  ALA797  LYS798  CYS799  TRP800  GLU811  SER814 

> <Gold.Protein.RotatedAtoms>
  150.8832  134.8226  159.7239 H   0  0  0  0  0  0  0  0  0  0  0  0  # atno 6907 bound_to 6896
  152.4791  134.4763  159.9661 H   0  0  0  0  0  0  0  0  0  0  0  0  # atno 6908 bound_to 6896
  151.4835  133.3502  159.2877 H   0  0  0  0  0  0  0  0  0  0  0  0  # atno 6909 bound_to 6896
  145.1989  140.9047  143.3381 H   0  0  0  0  0  0  0  0  0  0  0  0  # atno 7974 bound_to 7965
  154.4071  140.1261  156.4739 H   0  0  0  0  0  0  0  0  0  0  0  0  # atno 8008 bound_to 7997
  155.7152  140.3493  155.4972 H   0  0  0  0  0  0  0  0  0  0  0  0  # atno 8009 bound_to 7997
  155.9264  140.1062  157.1157 H   0  0  0  0  0  0  0  0  0  0  0  0  # atno 8010 bound_to 7997
  139.7428  144.7006  151.0549 H   0  0  0  0  0  0  0  0  0  0  0  0  # atno 10167 bound_to 10162
  156.1390  130.6452  150.9741 H   0  0  0  0  0  0  0  0  0  0  0  0  # atno 10718 bound_to 10713
  152.9812  135.6011  154.3585 H   0  0  0  0  0  0  0  0  0  0  0  0  # atno 10763 bound_to 10752
  154.3269  135.2769  155.2493 H   0  0  0  0  0  0  0  0  0  0  0  0  # atno 10764 bound_to 10752
  154.4635  135.5960  153.6327 H   0  0  0  0  0  0  0  0  0  0  0  0  # atno 10765 bound_to 10752
  140.0142  134.6250  155.9734 H   0  0  0  0  0  0  0  0  0  0  0  0  # atno 11005 bound_to 11000
  144.9967  139.3637  143.6188 LP  0  0  0  0  0  0  0  0  0  0  0  0  # atno 17320 bound_to 7965
  146.3421  139.9173  142.8771 LP  0  0  0  0  0  0  0  0  0  0  0  0  # atno 17321 bound_to 7965
  140.7788  143.4903  150.9901 LP  0  0  0  0  0  0  0  0  0  0  0  0  # atno 17342 bound_to 10162
  139.8592  143.7337  152.3174 LP  0  0  0  0  0  0  0  0  0  0  0  0  # atno 17343 bound_to 10162
  157.6558  131.0889  150.7950 LP  0  0  0  0  0  0  0  0  0  0  0  0  # atno 17370 bound_to 10713
  156.8027  130.4926  149.5367 LP  0  0  0  0  0  0  0  0  0  0  0  0  # atno 17371 bound_to 10713
  141.1731  133.6538  156.4728 LP  0  0  0  0  0  0  0  0  0  0  0  0  # atno 17394 bound_to 11000
  140.4500  134.6937  157.5035 LP  0  0  0  0  0  0  0  0  0  0  0  0  # atno 17395 bound_to 11000

$$$$
