AV-unprocessed.smi:3303|AV-procd|sdf|12658|dock9
  -GOLD-   2272018593D 1   1.00000     0.00000
 Structure written by MMmdl.
 45 46  0  0  0  0  0  0  0  0  3 V2000
  145.5926  136.0063  150.8077 C   0  0  0  0  0  0  0  0  0  0  0  0
  144.9496  134.8061  151.5344 C   0  0  1  0  0  0  0  0  0  0  0  0
  143.9898  134.0375  150.6056 C   0  0  0  0  0  0  0  0  0  0  0  0
  144.7143  133.2964  149.5383 N   0  3  2  0  0  0  0  0  0  0  0  0
  143.7608  132.6915  148.5765 C   0  0  0  0  0  0  0  0  0  0  0  0
  145.7092  132.3302  150.0963 C   0  0  1  0  0  0  0  0  0  0  0  0
  146.5002  131.5934  148.9972 C   0  0  0  0  0  0  0  0  0  0  0  0
  146.6943  133.0436  151.0498 C   0  0  0  0  0  0  0  0  0  0  0  0
  145.9617  133.8220  152.1598 C   0  0  1  0  0  0  0  0  0  0  0  0
  146.8904  134.5230  153.0786 N   0  3  0  0  0  0  0  0  0  0  0  0
  147.6031  133.6608  154.0442 C   0  0  0  0  0  0  0  0  0  0  0  0
  149.1062  133.6175  153.7366 C   0  0  0  0  0  0  0  0  0  0  0  0
  149.7945  132.4469  154.4121 C   0  0  0  0  0  0  0  0  0  0  0  0
  149.4968  131.1195  154.0368 C   0  0  0  0  0  0  0  0  0  0  0  0
  150.1631  130.0703  154.6996 C   0  0  0  0  0  0  0  0  0  0  0  0
  151.0944  130.3876  155.7071 C   0  0  0  0  0  0  0  0  0  0  0  0
  151.3191  131.7454  156.0090 C   0  0  0  0  0  0  0  0  0  0  0  0
  150.6854  132.7591  155.3797 N   0  0  0  0  0  0  0  0  0  0  0  0
  146.2077  135.6956  149.9631 H   0  0  0  0  0  0  0  0  0  0  0  0
  146.2212  136.5936  151.4772 H   0  0  0  0  0  0  0  0  0  0  0  0
  144.8270  136.6792  150.4204 H   0  0  0  0  0  0  0  0  0  0  0  0
  144.3500  135.2206  152.3462 H   0  0  0  0  0  0  0  0  0  0  0  0
  143.3961  133.3307  151.1881 H   0  0  0  0  0  0  0  0  0  0  0  0
  143.2822  134.7359  150.1563 H   0  0  0  0  0  0  0  0  0  0  0  0
  143.2263  131.8547  149.0279 H   0  0  0  0  0  0  0  0  0  0  0  0
  144.2665  132.3375  147.6787 H   0  0  0  0  0  0  0  0  0  0  0  0
  143.0240  133.4253  148.2480 H   0  0  0  0  0  0  0  0  0  0  0  0
  145.1600  131.5832  150.6722 H   0  0  0  0  0  0  0  0  0  0  0  0
  147.2793  130.9670  149.4323 H   0  0  0  0  0  0  0  0  0  0  0  0
  146.9845  132.2941  148.3163 H   0  0  0  0  0  0  0  0  0  0  0  0
  145.8661  130.9310  148.4082 H   0  0  0  0  0  0  0  0  0  0  0  0
  147.3529  132.2961  151.4919 H   0  0  0  0  0  0  0  0  0  0  0  0
  147.3400  133.7155  150.4833 H   0  0  0  0  0  0  0  0  0  0  0  0
  145.3942  133.1082  152.7598 H   0  0  0  0  0  0  0  0  0  0  0  0
  147.5670  135.0391  152.5343 H   0  0  0  0  0  0  0  0  0  0  0  0
  147.4433  134.0418  155.0538 H   0  0  0  0  0  0  0  0  0  0  0  0
  147.1956  132.6504  154.0100 H   0  0  0  0  0  0  0  0  0  0  0  0
  149.2653  133.5542  152.6591 H   0  0  0  0  0  0  0  0  0  0  0  0
  149.5836  134.5427  154.0635 H   0  0  0  0  0  0  0  0  0  0  0  0
  148.7775  130.9063  153.2596 H   0  0  0  0  0  0  0  0  0  0  0  0
  149.9635  129.0413  154.4399 H   0  0  0  0  0  0  0  0  0  0  0  0
  151.6244  129.6091  156.2357 H   0  0  0  0  0  0  0  0  0  0  0  0
  152.0251  132.0248  156.7769 H   0  0  0  0  0  0  0  0  0  0  0  0
  146.3458  135.1828  153.6162 H   0  0  0  0  0  0  0  0  0  0  0  0
  145.2386  133.9859  149.0186 H   0  0  0  0  0  0  0  0  0  0  0  0
  1  2  1  0  0  0  0
  1 19  1  0  0  0  0
  1 20  1  0  0  0  0
  1 21  1  0  0  0  0
  2  9  1  0  0  0  0
  2  3  1  0  0  0  0
  2 22  1  0  0  0  0
  3  4  1  0  0  0  0
  3 23  1  0  0  0  0
  3 24  1  0  0  0  0
  4  5  1  0  0  0  0
  4  6  1  0  0  0  0
  4 45  1  0  0  0  0
  5 25  1  0  0  0  0
  5 26  1  0  0  0  0
  5 27  1  0  0  0  0
  6  7  1  0  0  0  0
  6  8  1  0  0  0  0
  6 28  1  0  0  0  0
  7 29  1  0  0  0  0
  7 30  1  0  0  0  0
  7 31  1  0  0  0  0
  8  9  1  0  0  0  0
  8 32  1  0  0  0  0
  8 33  1  0  0  0  0
  9 10  1  0  0  0  0
  9 34  1  0  0  0  0
 10 11  1  0  0  0  0
 10 35  1  0  0  0  0
 10 44  1  0  0  0  0
 11 12  1  0  0  0  0
 11 36  1  0  0  0  0
 11 37  1  0  0  0  0
 12 13  1  0  0  0  0
 12 38  1  0  0  0  0
 12 39  1  0  0  0  0
 13 18  1  0  0  0  0
 13 14  2  0  0  0  0
 14 15  1  0  0  0  0
 14 40  1  0  0  0  0
 15 16  2  0  0  0  0
 15 41  1  0  0  0  0
 16 17  1  0  0  0  0
 16 42  1  0  0  0  0
 17 18  2  0  0  0  0
 17 43  1  0  0  0  0
M  CHG  1   4   1
M  CHG  1  10   1
M  END
> <s_m_source_file>
AV-unprocessed.smi

> <i_m_source_file_index>
3303

> <i_lp_mmshare_version>
43012

> <i_f3d_flags>
0

> <s_epik_input>
W0NIM11bQ0BASF0xW0NIMl1OKFtDSDNdKVtDQEBIXShbQ0gzXSlbQ0gyXVtDQEhdMVtOSF1bQ0gyXVtDSDJdYzJbY0hdW2NIXVtjSF1bY0hdbjI=

> <s_epik_cmdline>
J2VwaWtfcHl0aG9uJywgJy1waCcsICc3LjAnLCAnLXRuJywgJzgnLCAnLW1hJywgJzIwMCcsICctbWV0YWxfYmluZGluZycsICctaW1hZScsICc8aW5maWxlLm1hZT4nLCAnLW9tYWUnLCAnPG91dGZpbGUubWFlPic=

> <r_epik_Ionization_Penalty>
0.0769462

> <r_epik_Ionization_Penalty_Charging>
0.0759813

> <r_epik_Ionization_Penalty_Neutral>
0.000964829

> <r_epik_State_Penalty>
0.0654373

> <r_epik_Charging_Adjusted_Penalty>
0.141419

> <i_epik_Tot_Q>
2

> <i_epik_Tot_abs_Q>
2

> <r_epik_Metal_State_Penalty>
0.0656439

> <b_epik_Metal_Only>
0

> <s_lp_Force_Field>
OPLS_2005

> <r_lp_Energy>
30.9153

> <b_lp_Chiralities_Consistent>
1

> <s_lp_Variant>
AV-unprocessed.smi:3303-2

> <Gold.Version>
5.8.1

> <Gold.Id.Protein>
6NUR|6NUR_protein|mol2

> <Gold.PLP.Fitness>
45.6935

> <Gold.PLP.PLP>
-37.9014

> <Gold.PLP.part.hbond>
-2.0000

> <Gold.PLP.part.metal>
0.0000

> <Gold.PLP.part.buried>
-0.6524

> <Gold.PLP.part.nonpolar>
-34.8545

> <Gold.PLP.part.repulsive>
0.1300

> <Gold.PLP.ligand.clash>
0.0000

> <Gold.PLP.ligand.torsion>
0.6095

> <Gold.PLP.Chemscore.Hbond>
3.0000

> <Gold.PLP.Chemscore.CHOScore>
0.0000

> <Gold.PLP.Chemscore.Metal>
0.0000

> <Gold.Chemscore.Hbonds>
donor molecule, donor type, donor heavy atom, donor atom, acceptor molecule, acceptor atom, score
      L1  H     4    45       P1  7921  1.00
      L1  H    10    35       P1  7948  2.00

> <Gold.PLP.Chemscore.Internal.Correction>
0.0111

> <Gold.Rescore>
     Score         DG    S(hbond)    S(metal)    S(lipo)     H(rot)  DE(clash)    DE(int)     intcor
     20.48     -21.43       1.93        0.00     111.41       1.37       0.38       0.58       ----

> <Gold.Chemscore.Fitness>
20.4778

> <Gold.Chemscore.DG>
-21.4336

> <Gold.Chemscore.ZeroCoef>
-5.4800

> <Gold.Chemscore.Hbond>
1.9274

> <Gold.Chemscore.Metal>
0.0000

> <Gold.Chemscore.Lipo>
111.4073

> <Gold.Chemscore.Internal_Hbond>
0.0000

> <Gold.Chemscore.DEClash>
0.3781

> <Gold.Chemscore.DEInternal>
0.5776

> <Gold.Chemscore.Rot>
1.3744

> <Gold.Chemscore.Internal.Correction>
   9.000000E+99

> <Gold.Chemscore.Hbonds>
donor molecule, donor type, donor heavy atom, donor atom, acceptor molecule, acceptor atom, score
      L1  H     4    45       P1  7921  0.92
      L1  H    10    35       P1  7948  0.99

> <Gold.Chemscore.Hbond.Weighted>
-6.4374

> <Gold.Chemscore.Metal.Weighted>
-0.0000

> <Gold.Chemscore.Lipo.Weighted>
-13.0347

> <Gold.Chemscore.Internal_Hbond.Weighted>
0.0000

> <Gold.Chemscore.DEClash.Weighted>
0.3781

> <Gold.Chemscore.DEInternal.Weighted>
0.5776

> <Gold.Chemscore.Rot.Weighted>
3.5185

> <Gold.Chemscore.Internal.Correction.Weighted>
   9.000000E+99

> <Gold.Protein.RotatedTorsions>
[ 6907 6896 6895 6894 ] final    4.14 input  -60.11 | X-H torsion
[ 7974 7965 7964 7962 ] final  -33.23 input  175.53 | X-H torsion
[ 8008 7997 7996 7995 ] final  161.43 input   59.86 | X-H torsion
[ 10167 10162 10161 10158 ] final -178.47 input  -65.29 | X-H torsion
[ 10718 10713 10712 10709 ] final  -79.79 input   66.30 | X-H torsion
[ 10763 10752 10751 10750 ] final   -3.66 input  -60.55 | X-H torsion
[ 11005 11000 10999 10996 ] final -144.71 input  -57.11 | X-H torsion

> <Gold.Protein.ActiveResidues>
 VAL166  LYS551  ARG553  GLY616  TRP617  ASP618  TYR619  PRO620  LYS621  CYS622 
 ASP623  PHE694  ASN695  SER759  ASP760  ASP761  ALA762  ILE779  LEU786  VAL792 
 PHE793  MET794  SER795  GLU796  ALA797  LYS798  CYS799  TRP800  GLU811  SER814 

> <Gold.Protein.RotatedAtoms>
  151.6364  135.1017  160.0132 H   0  0  0  0  0  0  0  0  0  0  0  0  # atno 6907 bound_to 6896
  152.4078  133.6912  159.6380 H   0  0  0  0  0  0  0  0  0  0  0  0  # atno 6908 bound_to 6896
  150.7971  133.8595  159.3269 H   0  0  0  0  0  0  0  0  0  0  0  0  # atno 6909 bound_to 6896
  146.0927  140.5890  142.8857 H   0  0  0  0  0  0  0  0  0  0  0  0  # atno 7974 bound_to 7965
  156.2104  140.1777  156.7708 H   0  0  0  0  0  0  0  0  0  0  0  0  # atno 8008 bound_to 7997
  154.5714  140.0682  156.8999 H   0  0  0  0  0  0  0  0  0  0  0  0  # atno 8009 bound_to 7997
  155.2666  140.3339  155.4271 H   0  0  0  0  0  0  0  0  0  0  0  0  # atno 8010 bound_to 7997
  139.5431  144.2309  152.0934 H   0  0  0  0  0  0  0  0  0  0  0  0  # atno 10167 bound_to 10162
  156.0084  130.4555  150.3701 H   0  0  0  0  0  0  0  0  0  0  0  0  # atno 10718 bound_to 10713
  153.3743  135.6996  153.6614 H   0  0  0  0  0  0  0  0  0  0  0  0  # atno 10763 bound_to 10752
  153.5251  135.3604  155.2650 H   0  0  0  0  0  0  0  0  0  0  0  0  # atno 10764 bound_to 10752
  154.8685  135.4167  154.3028 H   0  0  0  0  0  0  0  0  0  0  0  0  # atno 10765 bound_to 10752
  140.7997  134.2872  157.4983 H   0  0  0  0  0  0  0  0  0  0  0  0  # atno 11005 bound_to 11000
  144.7372  140.4842  143.6895 LP  0  0  0  0  0  0  0  0  0  0  0  0  # atno 17320 bound_to 7965
  145.6007  139.1503  143.3130 LP  0  0  0  0  0  0  0  0  0  0  0  0  # atno 17321 bound_to 7965
  140.1791  144.4862  150.6538 LP  0  0  0  0  0  0  0  0  0  0  0  0  # atno 17342 bound_to 10162
  140.6669  143.2271  151.5722 LP  0  0  0  0  0  0  0  0  0  0  0  0  # atno 17343 bound_to 10162
  157.1786  131.0386  151.2760 LP  0  0  0  0  0  0  0  0  0  0  0  0  # atno 17370 bound_to 10713
  157.4166  130.7414  149.6880 LP  0  0  0  0  0  0  0  0  0  0  0  0  # atno 17371 bound_to 10713
  139.8723  134.9422  156.3819 LP  0  0  0  0  0  0  0  0  0  0  0  0  # atno 17394 bound_to 11000
  140.9307  133.7581  156.0021 LP  0  0  0  0  0  0  0  0  0  0  0  0  # atno 17395 bound_to 11000

$$$$
