AV-unprocessed.smi:2592|AV-procd|sdf|10162|dock1
  -GOLD-   2272014173D 1   1.00000     0.00000
 Structure written by MMmdl.
 41 42  0  0  0  0  0  0  0  0  2 V2000
  151.9529  144.9243  160.0656 C   0  0  0  0  0  0  0  0  0  0  0  0
  151.9715  143.6385  159.2977 C   0  0  0  0  0  0  0  0  0  0  0  0
  151.3430  143.5683  158.0519 N   0  0  0  0  0  0  0  0  0  0  0  0
  151.4399  142.3694  157.4692 C   0  0  0  0  0  0  0  0  0  0  0  0
  150.8983  142.0908  156.2720 N   0  5  0  0  0  0  0  0  0  0  0  0
  149.7680  141.3520  156.1953 C   0  0  0  0  0  0  0  0  0  0  0  0
  149.6881  140.1253  156.2971 O   0  0  0  0  0  0  0  0  0  0  0  0
  148.6606  142.0804  155.9927 N   0  0  0  0  0  0  0  0  0  0  0  0
  147.3022  141.5594  155.8838 C   0  0  0  0  0  0  0  0  0  0  0  0
  146.3377  142.6110  155.3123 C   0  0  0  0  0  0  0  0  0  0  0  0
  144.8974  142.4104  155.8129 C   0  0  0  0  0  0  0  0  0  0  0  0
  144.0672  143.6143  155.8111 N   0  0  0  0  0  0  0  0  0  0  0  0
  144.2768  144.3935  157.0267 C   0  0  0  0  0  0  0  0  0  0  0  0
  143.4166  145.6688  157.0494 C   0  0  0  0  0  0  0  0  0  0  0  0
  143.6986  146.4530  155.8953 O   0  0  0  0  0  0  0  0  0  0  0  0
  143.4638  145.7465  154.6816 C   0  0  0  0  0  0  0  0  0  0  0  0
  144.3192  144.4679  154.6514 C   0  0  0  0  0  0  0  0  0  0  0  0
  152.3268  141.2208  158.4721 S   0  0  0  0  0  0  0  0  0  0  0  0
  152.5535  142.4557  159.6815 C   0  0  0  0  0  0  0  0  0  0  0  0
  153.3023  142.1682  160.9399 C   0  0  0  0  0  0  0  0  0  0  0  0
  151.3023  144.8496  160.9370 H   0  0  0  0  0  0  0  0  0  0  0  0
  151.5936  145.7536  159.4554 H   0  0  0  0  0  0  0  0  0  0  0  0
  152.9506  145.1857  160.4188 H   0  0  0  0  0  0  0  0  0  0  0  0
  148.7736  143.0805  155.9127 H   0  0  0  0  0  0  0  0  0  0  0  0
  147.3287  140.6863  155.2318 H   0  0  0  0  0  0  0  0  0  0  0  0
  146.9552  141.2091  156.8572 H   0  0  0  0  0  0  0  0  0  0  0  0
  146.6944  143.6040  155.5847 H   0  0  0  0  0  0  0  0  0  0  0  0
  146.3533  142.5632  154.2226 H   0  0  0  0  0  0  0  0  0  0  0  0
  144.4281  141.6625  155.1720 H   0  0  0  0  0  0  0  0  0  0  0  0
  144.9166  141.9768  156.8139 H   0  0  0  0  0  0  0  0  0  0  0  0
  144.0412  143.7858  157.9012 H   0  0  0  0  0  0  0  0  0  0  0  0
  145.3293  144.6683  157.1130 H   0  0  0  0  0  0  0  0  0  0  0  0
  142.3548  145.4194  157.0787 H   0  0  0  0  0  0  0  0  0  0  0  0
  143.6329  146.2564  157.9415 H   0  0  0  0  0  0  0  0  0  0  0  0
  142.4037  145.5034  154.5933 H   0  0  0  0  0  0  0  0  0  0  0  0
  143.7155  146.3913  153.8395 H   0  0  0  0  0  0  0  0  0  0  0  0
  145.3750  144.7411  154.6153 H   0  0  0  0  0  0  0  0  0  0  0  0
  144.1035  143.9297  153.7291 H   0  0  0  0  0  0  0  0  0  0  0  0
  154.3080  142.5859  160.8932 H   0  0  0  0  0  0  0  0  0  0  0  0
  153.3901  141.0947  161.1091 H   0  0  0  0  0  0  0  0  0  0  0  0
  152.7952  142.6018  161.8021 H   0  0  0  0  0  0  0  0  0  0  0  0
  1  2  1  0  0  0  0
  1 21  1  0  0  0  0
  1 22  1  0  0  0  0
  1 23  1  0  0  0  0
  2 19  2  0  0  0  0
  2  3  1  0  0  0  0
  3  4  2  0  0  0  0
  4  5  1  0  0  0  0
  4 18  1  0  0  0  0
  5  6  1  0  0  0  0
  6  7  2  0  0  0  0
  6  8  1  0  0  0  0
  8  9  1  0  0  0  0
  8 24  1  0  0  0  0
  9 10  1  0  0  0  0
  9 25  1  0  0  0  0
  9 26  1  0  0  0  0
 10 11  1  0  0  0  0
 10 27  1  0  0  0  0
 10 28  1  0  0  0  0
 11 12  1  0  0  0  0
 11 29  1  0  0  0  0
 11 30  1  0  0  0  0
 12 17  1  0  0  0  0
 12 13  1  0  0  0  0
 13 14  1  0  0  0  0
 13 31  1  0  0  0  0
 13 32  1  0  0  0  0
 14 15  1  0  0  0  0
 14 33  1  0  0  0  0
 14 34  1  0  0  0  0
 15 16  1  0  0  0  0
 16 17  1  0  0  0  0
 16 35  1  0  0  0  0
 16 36  1  0  0  0  0
 17 37  1  0  0  0  0
 17 38  1  0  0  0  0
 18 19  1  0  0  0  0
 19 20  1  0  0  0  0
 20 39  1  0  0  0  0
 20 40  1  0  0  0  0
 20 41  1  0  0  0  0
M  CHG  1   5  -1
M  END
> <s_m_source_file>
AV-unprocessed.smi

> <i_m_source_file_index>
2592

> <i_lp_mmshare_version>
43012

> <i_f3d_flags>
0

> <s_epik_input>
W0NIM11jMW5jKHNjMVtDSDNdKVtOSF1DKD1PKVtOSF1bQ0gyXVtDSDJdW0NIMl1OMltDSDJdW0NIMl1PW0NIMl1bQ0gyXTI=

> <s_epik_cmdline>
J2VwaWtfcHl0aG9uJywgJy1waCcsICc3LjAnLCAnLXRuJywgJzgnLCAnLW1hJywgJzIwMCcsICctbWV0YWxfYmluZGluZycsICctaW1hZScsICc8aW5maWxlLm1hZT4nLCAnLW9tYWUnLCAnPG91dGZpbGUubWFlPic=

> <r_lp_tautomer_probability>
0.999

> <r_epik_Ionization_Penalty>
8.38414

> <r_epik_Ionization_Penalty_Charging>
6.24826

> <r_epik_Ionization_Penalty_Neutral>
2.13587

> <r_epik_State_Penalty>
6.83636

> <r_epik_Charging_Adjusted_Penalty>
13.0846

> <i_epik_Tot_Q>
-1

> <i_epik_Tot_abs_Q>
1

> <r_epik_Metal_State_Penalty>
2.77797

> <b_epik_Metal_Only>
1

> <s_lp_Force_Field>
OPLS_2005

> <r_lp_Energy>
16.0962

> <b_lp_Chiralities_Consistent>
1

> <s_lp_Variant>
AV-unprocessed.smi:2592-4

> <Gold.Version>
5.8.1

> <Gold.Id.Protein>
6NUR|6NUR_protein|mol2

> <Gold.PLP.Fitness>
37.9448

> <Gold.PLP.PLP>
-38.7839

> <Gold.PLP.part.hbond>
-2.0000

> <Gold.PLP.part.metal>
0.0000

> <Gold.PLP.part.buried>
-7.7208

> <Gold.PLP.part.nonpolar>
-31.4334

> <Gold.PLP.part.repulsive>
0.3952

> <Gold.PLP.ligand.clash>
0.0000

> <Gold.PLP.ligand.torsion>
2.0633

> <Gold.PLP.Chemscore.Hbond>
1.0000

> <Gold.PLP.Chemscore.CHOScore>
0.0000

> <Gold.PLP.Chemscore.Metal>
0.0000

> <Gold.Chemscore.Hbonds>
donor molecule, donor type, donor heavy atom, donor atom, acceptor molecule, acceptor atom, score
      L1  H     8    24       P1  8028  1.00

> <Gold.PLP.Chemscore.Internal.Correction>
0.2876

> <Gold.Rescore>
     Score         DG    S(hbond)    S(metal)    S(lipo)     H(rot)  DE(clash)    DE(int)     intcor
     12.81     -14.90       0.97        0.00      88.90       1.65       0.08       2.01       ----

> <Gold.Chemscore.Fitness>
12.8119

> <Gold.Chemscore.DG>
-14.9041

> <Gold.Chemscore.ZeroCoef>
-5.4800

> <Gold.Chemscore.Hbond>
0.9686

> <Gold.Chemscore.Metal>
0.0000

> <Gold.Chemscore.Lipo>
88.8953

> <Gold.Chemscore.Internal_Hbond>
0.0000

> <Gold.Chemscore.DEClash>
0.0811

> <Gold.Chemscore.DEInternal>
2.0112

> <Gold.Chemscore.Rot>
1.6452

> <Gold.Chemscore.Internal.Correction>
   9.000000E+99

> <Gold.Chemscore.Hbonds>
donor molecule, donor type, donor heavy atom, donor atom, acceptor molecule, acceptor atom, score
      L1  H     8    24       P1  8028  1.00

> <Gold.Chemscore.Hbond.Weighted>
-3.2351

> <Gold.Chemscore.Metal.Weighted>
-0.0000

> <Gold.Chemscore.Lipo.Weighted>
-10.4007

> <Gold.Chemscore.Internal_Hbond.Weighted>
0.0000

> <Gold.Chemscore.DEClash.Weighted>
0.0811

> <Gold.Chemscore.DEInternal.Weighted>
2.0112

> <Gold.Chemscore.Rot.Weighted>
4.2118

> <Gold.Chemscore.Internal.Correction.Weighted>
   9.000000E+99

> <Gold.Protein.RotatedTorsions>
[ 6907 6896 6895 6894 ] final  -22.27 input  -60.11 | X-H torsion
[ 7974 7965 7964 7962 ] final  162.68 input  175.53 | X-H torsion
[ 8008 7997 7996 7995 ] final -169.35 input   59.86 | X-H torsion
[ 10167 10162 10161 10158 ] final  -37.82 input  -65.29 | X-H torsion
[ 10718 10713 10712 10709 ] final -139.07 input   66.30 | X-H torsion
[ 10763 10752 10751 10750 ] final -111.34 input  -60.55 | X-H torsion
[ 11005 11000 10999 10996 ] final  148.96 input  -57.11 | X-H torsion

> <Gold.Protein.ActiveResidues>
 VAL166  LYS551  ARG553  GLY616  TRP617  ASP618  TYR619  PRO620  LYS621  CYS622 
 ASP623  PHE694  ASN695  SER759  ASP760  ASP761  ALA762  ILE779  LEU786  VAL792 
 PHE793  MET794  SER795  GLU796  ALA797  LYS798  CYS799  TRP800  GLU811  SER814 

> <Gold.Protein.RotatedAtoms>
  151.2211  135.0519  159.8949 H   0  0  0  0  0  0  0  0  0  0  0  0  # atno 6907 bound_to 6896
  152.5415  134.0639  159.8174 H   0  0  0  0  0  0  0  0  0  0  0  0  # atno 6908 bound_to 6896
  151.0806  133.5345  159.2652 H   0  0  0  0  0  0  0  0  0  0  0  0  # atno 6909 bound_to 6896
  144.7625  139.8074  143.6327 H   0  0  0  0  0  0  0  0  0  0  0  0  # atno 7974 bound_to 7965
  155.9037  140.1045  157.1331 H   0  0  0  0  0  0  0  0  0  0  0  0  # atno 8008 bound_to 7997
  154.4030  140.1287  156.4533 H   0  0  0  0  0  0  0  0  0  0  0  0  # atno 8009 bound_to 7997
  155.7392  140.3467  155.5098 H   0  0  0  0  0  0  0  0  0  0  0  0  # atno 8010 bound_to 7997
  140.7108  143.3317  151.2554 H   0  0  0  0  0  0  0  0  0  0  0  0  # atno 10167 bound_to 10162
  156.3065  130.7458  151.1523 H   0  0  0  0  0  0  0  0  0  0  0  0  # atno 10718 bound_to 10713
  154.8295  135.4531  154.1023 H   0  0  0  0  0  0  0  0  0  0  0  0  # atno 10763 bound_to 10752
  153.2309  135.6905  153.7898 H   0  0  0  0  0  0  0  0  0  0  0  0  # atno 10764 bound_to 10752
  153.7280  135.3331  155.3256 H   0  0  0  0  0  0  0  0  0  0  0  0  # atno 10765 bound_to 10752
  140.1004  134.8986  157.1787 H   0  0  0  0  0  0  0  0  0  0  0  0  # atno 11005 bound_to 11000
  146.1702  139.4849  142.9932 LP  0  0  0  0  0  0  0  0  0  0  0  0  # atno 17320 bound_to 7965
  145.6574  141.0249  143.1727 LP  0  0  0  0  0  0  0  0  0  0  0  0  # atno 17321 bound_to 7965
  139.6801  143.9869  152.2803 LP  0  0  0  0  0  0  0  0  0  0  0  0  # atno 17342 bound_to 10162
  139.9496  144.6629  150.8184 LP  0  0  0  0  0  0  0  0  0  0  0  0  # atno 17343 bound_to 10162
  157.7381  131.0545  150.5317 LP  0  0  0  0  0  0  0  0  0  0  0  0  # atno 17370 bound_to 10713
  156.5451  130.4217  149.6135 LP  0  0  0  0  0  0  0  0  0  0  0  0  # atno 17371 bound_to 10713
  140.3227  134.2898  155.7243 LP  0  0  0  0  0  0  0  0  0  0  0  0  # atno 17394 bound_to 11000
  141.2104  133.7720  156.9934 LP  0  0  0  0  0  0  0  0  0  0  0  0  # atno 17395 bound_to 11000

$$$$
