AV-unprocessed.smi:72|AV-procd|sdf|676|dock9
  -GOLD-   2262016583D 1   1.00000     0.00000
 Structure written by MMmdl.
 29 30  0  0  0  0  0  0  0  0  1 V2000
  150.8699  143.7745  157.6833 N   0  0  0  0  0  0  0  0  0  0  0  0
  150.9343  142.6343  157.0939 C   0  0  0  0  0  0  0  0  0  0  0  0
  151.7043  141.5428  157.5222 N   0  0  0  0  0  0  0  0  0  0  0  0
  151.6620  140.4423  156.8366 C   0  0  0  0  0  0  0  0  0  0  0  0
  150.8285  140.2963  155.6494 N   0  0  0  0  0  0  0  0  0  0  0  0
  150.7770  139.0166  154.8301 C   0  0  1  0  0  0  0  0  0  0  0  0
  151.5724  138.0333  155.4288 O   0  0  0  0  0  0  0  0  0  0  0  0
  150.7571  137.1549  156.1992 C   0  0  2  0  0  0  0  0  0  0  0  0
  151.4945  135.8428  156.5176 C   0  0  0  0  0  0  0  0  0  0  0  0
  152.8366  136.1178  156.8572 O   0  0  0  0  0  0  0  0  0  0  0  0
  149.5133  137.0248  155.3152 C   0  0  2  0  0  0  0  0  0  0  0  0
  149.7380  136.0805  154.2806 O   0  0  0  0  0  0  0  0  0  0  0  0
  149.3409  138.4481  154.7847 C   0  0  2  0  0  0  0  0  0  0  0  0
  148.7637  138.4777  153.4926 O   0  0  0  0  0  0  0  0  0  0  0  0
  150.0768  141.4042  155.1846 C   0  0  0  0  0  0  0  0  0  0  0  0
  149.3893  141.3531  154.1647 O   0  0  0  0  0  0  0  0  0  0  0  0
  150.1570  142.5247  155.9339 N   0  0  0  0  0  0  0  0  0  0  0  0
  151.1929  139.2809  153.8559 H   0  0  0  0  0  0  0  0  0  0  0  0
  150.4624  137.6497  157.1267 H   0  0  0  0  0  0  0  0  0  0  0  0
  148.6423  136.7015  155.8862 H   0  0  0  0  0  0  0  0  0  0  0  0
  148.7067  139.0094  155.4728 H   0  0  0  0  0  0  0  0  0  0  0  0
  150.2519  144.3977  157.1845 H   0  0  0  0  0  0  0  0  0  0  0  0
  152.2507  139.5675  157.1126 H   0  0  0  0  0  0  0  0  0  0  0  0
  151.0336  135.3522  157.3754 H   0  0  0  0  0  0  0  0  0  0  0  0
  151.4527  135.1457  155.6802 H   0  0  0  0  0  0  0  0  0  0  0  0
  152.8809  136.9914  157.2151 H   0  0  0  0  0  0  0  0  0  0  0  0
  149.4091  136.4442  153.4725 H   0  0  0  0  0  0  0  0  0  0  0  0
  149.2305  139.1146  152.9724 H   0  0  0  0  0  0  0  0  0  0  0  0
  149.6247  143.3267  155.6296 H   0  0  0  0  0  0  0  0  0  0  0  0
  1  2  2  0  0  0  0
  1 22  1  0  0  0  0
  2 17  1  0  0  0  0
  2  3  1  0  0  0  0
  3  4  2  0  0  0  0
  4  5  1  0  0  0  0
  4 23  1  0  0  0  0
  5  6  1  0  0  0  0
  5 15  1  0  0  0  0
  6 18  1  0  0  0  0
  6 13  1  0  0  0  0
  6  7  1  0  0  0  0
  7  8  1  0  0  0  0
  8 19  1  0  0  0  0
  8  9  1  0  0  0  0
  8 11  1  0  0  0  0
  9 10  1  0  0  0  0
  9 24  1  0  0  0  0
  9 25  1  0  0  0  0
 10 26  1  0  0  0  0
 11 20  1  0  0  0  0
 11 12  1  0  0  0  0
 11 13  1  0  0  0  0
 12 27  1  0  0  0  0
 13 21  1  0  0  0  0
 13 14  1  0  0  0  0
 14 28  1  0  0  0  0
 15 16  2  0  0  0  0
 15 17  1  0  0  0  0
 17 29  1  0  0  0  0
M  END
> <s_m_source_file>
AV-unprocessed.smi

> <i_m_source_file_index>
72

> <i_lp_mmshare_version>
43012

> <i_f3d_flags>
0

> <s_epik_input>
W05IMl1jMW5bY0hdbihjKD1PKW4xKVtDQEBIXTJPW0NASF0oW0NIMl1bT0hdKVtDQEBIXShbT0hdKVtDQEhdMltPSF0=

> <s_epik_cmdline>
J2VwaWtfcHl0aG9uJywgJy1waCcsICc3LjAnLCAnLXRuJywgJzgnLCAnLW1hJywgJzIwMCcsICctbWV0YWxfYmluZGluZycsICctaW1hZScsICc8aW5maWxlLm1hZT4nLCAnLW9tYWUnLCAnPG91dGZpbGUubWFlPic=

> <r_lp_tautomer_probability>
7.17554e-07

> <r_epik_Ionization_Penalty>
0.0066451

> <r_epik_Ionization_Penalty_Charging>
0.00663793

> <r_epik_Ionization_Penalty_Neutral>
7.17052e-06

> <r_epik_State_Penalty>
0.419231

> <r_epik_Charging_Adjusted_Penalty>
0.425868

> <i_epik_Tot_Q>
0

> <i_epik_Tot_abs_Q>
0

> <r_epik_Metal_State_Penalty>
1.44144

> <b_epik_Metal_Only>
0

> <s_epik_Chemistry_Notes>
This compound contains an acetal/aminal-like group ( X-CH(R)-Y where X, Y are N, S, or O) that may be acid/base labile, releasing an aldehyde.

> <s_lp_Force_Field>
OPLS_2005

> <r_lp_Energy>
42.8821

> <b_lp_Chiralities_Consistent>
1

> <s_lp_Variant>
AV-unprocessed.smi:72-14

> <Gold.Version>
5.8.1

> <Gold.Id.Protein>
6NUR|6NUR_protein|mol2

> <Gold.PLP.Fitness>
41.0259

> <Gold.PLP.PLP>
-24.6928

> <Gold.PLP.part.hbond>
-8.6239

> <Gold.PLP.part.metal>
0.0000

> <Gold.PLP.part.buried>
-0.5199

> <Gold.PLP.part.nonpolar>
-14.7170

> <Gold.PLP.part.repulsive>
0.3887

> <Gold.PLP.ligand.clash>
0.0000

> <Gold.PLP.ligand.torsion>
0.2113

> <Gold.PLP.Chemscore.Hbond>
5.5780

> <Gold.PLP.Chemscore.CHOScore>
0.0000

> <Gold.PLP.Chemscore.Metal>
0.0000

> <Gold.Chemscore.Hbonds>
donor molecule, donor type, donor heavy atom, donor atom, acceptor molecule, acceptor atom, score
      L1  H     1    22       P1  8028  0.98
      L1  H    12    27       P1  7948  0.98
      L1  H    14    28       P1  7957  0.93
      L1  H    17    29       P1  8028  1.00
      P1  H  8011  8017       L1    16  0.49
      P1  H 10752 10763       L1    10  0.90

> <Gold.PLP.Chemscore.Internal.Correction>
0.0219

> <Gold.Rescore>
     Score         DG    S(hbond)    S(metal)    S(lipo)     H(rot)  DE(clash)    DE(int)     intcor
     10.36     -13.25       4.94        0.00      14.35       4.06       1.23       1.67       ----

> <Gold.Chemscore.Fitness>
10.3599

> <Gold.Chemscore.DG>
-13.2549

> <Gold.Chemscore.ZeroCoef>
-5.4800

> <Gold.Chemscore.Hbond>
4.9370

> <Gold.Chemscore.Metal>
0.0000

> <Gold.Chemscore.Lipo>
14.3512

> <Gold.Chemscore.Internal_Hbond>
0.0000

> <Gold.Chemscore.DEClash>
1.2269

> <Gold.Chemscore.DEInternal>
1.6682

> <Gold.Chemscore.Rot>
4.0600

> <Gold.Chemscore.Internal.Correction>
   9.000000E+99

> <Gold.Chemscore.Hbonds>
donor molecule, donor type, donor heavy atom, donor atom, acceptor molecule, acceptor atom, score
      L1  H     1    22       P1  8028  0.61
      L1  H    12    27       P1  7948  0.73
      L1  H    14    28       P1  7957  0.84
      L1  H    17    29       P1  8028  0.97
      P1  H  8011  8017       L1    16  0.48
      P1  H 10752 10763       L1    10  0.18

> <Gold.Chemscore.Hbond.Weighted>
-16.4894

> <Gold.Chemscore.Metal.Weighted>
-0.0000

> <Gold.Chemscore.Lipo.Weighted>
-1.6791

> <Gold.Chemscore.Internal_Hbond.Weighted>
0.0000

> <Gold.Chemscore.DEClash.Weighted>
1.2269

> <Gold.Chemscore.DEInternal.Weighted>
1.6682

> <Gold.Chemscore.Rot.Weighted>
10.3936

> <Gold.Chemscore.Internal.Correction.Weighted>
   9.000000E+99

> <Gold.Protein.RotatedTorsions>
[ 6907 6896 6895 6894 ] final  122.92 input  -60.11 | X-H torsion
[ 7974 7965 7964 7962 ] final  -67.25 input  175.53 | X-H torsion
[ 8008 7997 7996 7995 ] final  -96.71 input   59.86 | X-H torsion
[ 10167 10162 10161 10158 ] final  179.98 input  -65.29 | X-H torsion
[ 10718 10713 10712 10709 ] final   77.67 input   66.30 | X-H torsion
[ 10763 10752 10751 10750 ] final  125.90 input  -60.55 | X-H torsion
[ 11005 11000 10999 10996 ] final  -14.20 input  -57.11 | X-H torsion

> <Gold.Protein.ActiveResidues>
 VAL166  LYS551  ARG553  GLY616  TRP617  ASP618  TYR619  PRO620  LYS621  CYS622 
 ASP623  PHE694  ASN695  SER759  ASP760  ASP761  ALA762  ILE779  LEU786  VAL792 
 PHE793  MET794  SER795  GLU796  ALA797  LYS798  CYS799  TRP800  GLU811  SER814 

> <Gold.Protein.RotatedAtoms>
  152.4204  133.7107  159.6476 H   0  0  0  0  0  0  0  0  0  0  0  0  # atno 6907 bound_to 6896
  150.8080  133.8463  159.3202 H   0  0  0  0  0  0  0  0  0  0  0  0  # atno 6908 bound_to 6896
  151.6181  135.1036  160.0147 H   0  0  0  0  0  0  0  0  0  0  0  0  # atno 6909 bound_to 6896
  145.7316  140.8994  143.0577 H   0  0  0  0  0  0  0  0  0  0  0  0  # atno 7974 bound_to 7965
  154.7781  140.0469  157.1105 H   0  0  0  0  0  0  0  0  0  0  0  0  # atno 8008 bound_to 7997
  154.9738  140.3093  155.4956 H   0  0  0  0  0  0  0  0  0  0  0  0  # atno 8009 bound_to 7997
  156.2932  140.2248  156.4833 H   0  0  0  0  0  0  0  0  0  0  0  0  # atno 8010 bound_to 7997
  139.5360  144.2496  152.0795 H   0  0  0  0  0  0  0  0  0  0  0  0  # atno 10167 bound_to 10162
  157.6718  130.9832  150.1675 H   0  0  0  0  0  0  0  0  0  0  0  0  # atno 10718 bound_to 10713
  153.6847  135.3308  155.3187 H   0  0  0  0  0  0  0  0  0  0  0  0  # atno 10763 bound_to 10752
  154.8456  135.4417  154.1570 H   0  0  0  0  0  0  0  0  0  0  0  0  # atno 10764 bound_to 10752
  153.2595  135.6989  153.7670 H   0  0  0  0  0  0  0  0  0  0  0  0  # atno 10765 bound_to 10752
  140.7840  133.8340  155.9318 H   0  0  0  0  0  0  0  0  0  0  0  0  # atno 11005 bound_to 11000
  144.6891  139.9339  143.7472 LP  0  0  0  0  0  0  0  0  0  0  0  0  # atno 17320 bound_to 7965
  146.0532  139.3531  143.0626 LP  0  0  0  0  0  0  0  0  0  0  0  0  # atno 17321 bound_to 7965
  140.1967  144.4698  150.6452 LP  0  0  0  0  0  0  0  0  0  0  0  0  # atno 17342 bound_to 10162
  140.6566  143.2239  151.5953 LP  0  0  0  0  0  0  0  0  0  0  0  0  # atno 17343 bound_to 10162
  156.2437  130.3693  149.8309 LP  0  0  0  0  0  0  0  0  0  0  0  0  # atno 17370 bound_to 10713
  156.6101  130.8583  151.3452 LP  0  0  0  0  0  0  0  0  0  0  0  0  # atno 17371 bound_to 10713
  140.9455  134.1846  157.4767 LP  0  0  0  0  0  0  0  0  0  0  0  0  # atno 17394 bound_to 11000
  139.8739  134.9888  156.5431 LP  0  0  0  0  0  0  0  0  0  0  0  0  # atno 17395 bound_to 11000

$$$$
