AV-unprocessed.smi:798|AV-procd|sdf|3779|dock6
  -GOLD-   22720 1213D 1   1.00000     0.00000
 Structure written by MMmdl.
 33 35  0  0  0  0  0  0  0  0  2 V2000
  149.9754  136.4052  159.1628 O   0  0  0  0  0  0  0  0  0  0  0  0
  149.1224  137.2917  159.2472 C   0  0  0  0  0  0  0  0  0  0  0  0
  148.1437  137.3770  160.1769 N   0  5  0  0  0  0  0  0  0  0  0  0
  147.7852  136.2897  160.8792 C   0  0  0  0  0  0  0  0  0  0  0  0
  147.8504  135.0505  160.3666 N   0  0  0  0  0  0  0  0  0  0  0  0
  147.4460  134.0677  161.2600 N   0  0  0  0  0  0  0  0  0  0  0  0
  147.0913  134.5933  162.4323 C   0  0  0  0  0  0  0  0  0  0  0  0
  147.2204  136.3354  162.5519 S   0  0  0  0  0  0  0  0  0  0  0  0
  149.1082  138.2943  158.3580 N   0  0  0  0  0  0  0  0  0  0  0  0
  150.0281  138.4592  157.2344 C   0  0  2  0  0  0  0  0  0  0  0  0
  151.4099  138.9340  157.7354 C   0  0  1  0  0  0  0  0  0  0  0  0
  152.4448  138.7199  156.6162 C   0  0  0  0  0  0  0  0  0  0  0  0
  152.0757  139.8226  155.6064 C   0  0  0  0  0  0  0  0  0  0  0  0
  150.8634  140.5095  156.2712 C   0  0  2  0  0  0  0  0  0  0  0  0
  151.2679  140.4535  157.7388 C   0  0  0  0  0  0  0  0  0  0  0  0
  149.6071  139.6024  156.2745 C   0  0  1  0  0  0  0  0  0  0  0  0
  149.1156  139.1176  154.8965 C   0  0  0  0  0  0  0  0  0  0  0  0
  148.9838  140.2058  154.0061 O   0  0  0  0  0  0  0  0  0  0  0  0
  146.7547  133.9511  163.2326 H   0  0  0  0  0  0  0  0  0  0  0  0
  148.3933  138.9983  158.4674 H   0  0  0  0  0  0  0  0  0  0  0  0
  150.1277  137.5051  156.7127 H   0  0  0  0  0  0  0  0  0  0  0  0
  151.7115  138.4955  158.6876 H   0  0  0  0  0  0  0  0  0  0  0  0
  153.4587  138.8670  156.9905 H   0  0  0  0  0  0  0  0  0  0  0  0
  152.3908  137.7207  156.1825 H   0  0  0  0  0  0  0  0  0  0  0  0
  152.9007  140.5287  155.5041 H   0  0  0  0  0  0  0  0  0  0  0  0
  151.8633  139.4332  154.6119 H   0  0  0  0  0  0  0  0  0  0  0  0
  150.6718  141.5147  155.8941 H   0  0  0  0  0  0  0  0  0  0  0  0
  150.4942  140.8163  158.4179 H   0  0  0  0  0  0  0  0  0  0  0  0
  152.2024  140.9755  157.9527 H   0  0  0  0  0  0  0  0  0  0  0  0
  148.7940  140.1719  156.7300 H   0  0  0  0  0  0  0  0  0  0  0  0
  149.7814  138.3712  154.4651 H   0  0  0  0  0  0  0  0  0  0  0  0
  148.1407  138.6408  154.9980 H   0  0  0  0  0  0  0  0  0  0  0  0
  149.2813  139.9312  153.1522 H   0  0  0  0  0  0  0  0  0  0  0  0
  1  2  2  0  0  0  0
  2  3  1  0  0  0  0
  2  9  1  0  0  0  0
  3  4  1  0  0  0  0
  4  8  1  0  0  0  0
  4  5  2  0  0  0  0
  5  6  1  0  0  0  0
  6  7  2  0  0  0  0
  7  8  1  0  0  0  0
  7 19  1  0  0  0  0
  9 10  1  0  0  0  0
  9 20  1  0  0  0  0
 10 16  1  0  0  0  0
 10 11  1  0  0  0  0
 10 21  1  0  0  0  0
 11 15  1  0  0  0  0
 11 12  1  0  0  0  0
 11 22  1  0  0  0  0
 12 13  1  0  0  0  0
 12 23  1  0  0  0  0
 12 24  1  0  0  0  0
 13 14  1  0  0  0  0
 13 25  1  0  0  0  0
 13 26  1  0  0  0  0
 14 15  1  0  0  0  0
 14 16  1  0  0  0  0
 14 27  1  0  0  0  0
 15 28  1  0  0  0  0
 15 29  1  0  0  0  0
 16 17  1  0  0  0  0
 16 30  1  0  0  0  0
 17 18  1  0  0  0  0
 17 31  1  0  0  0  0
 17 32  1  0  0  0  0
 18 33  1  0  0  0  0
M  CHG  1   3  -1
M  END
> <s_m_source_file>
AV-unprocessed.smi

> <i_m_source_file_index>
798

> <i_lp_mmshare_version>
43012

> <i_f3d_flags>
0

> <s_epik_input>
W0NIMl0xW0NIMl1bQ0BASF0oW0NIMl0yKVtDQEBIXShbQ0gyXVtPSF0pW0NAQEhdKFtDQEhdMTIpW05IXUMoPU8pW05IXWMzbm5bY0hdczM=

> <s_epik_cmdline>
J2VwaWtfcHl0aG9uJywgJy1waCcsICc3LjAnLCAnLXRuJywgJzgnLCAnLW1hJywgJzIwMCcsICctbWV0YWxfYmluZGluZycsICctaW1hZScsICc8aW5maWxlLm1hZT4nLCAnLW9tYWUnLCAnPG91dGZpbGUubWFlPic=

> <r_lp_tautomer_probability>
1

> <r_epik_Ionization_Penalty>
4.53732

> <r_epik_Ionization_Penalty_Charging>
4.48632

> <r_epik_Ionization_Penalty_Neutral>
0.0510007

> <r_epik_State_Penalty>
4.48602

> <r_epik_Charging_Adjusted_Penalty>
8.97234

> <i_epik_Tot_Q>
-1

> <i_epik_Tot_abs_Q>
1

> <r_epik_Metal_State_Penalty>
0.812492

> <b_epik_Metal_Only>
1

> <s_lp_Force_Field>
OPLS_2005

> <r_lp_Energy>
47.3134

> <b_lp_Chiralities_Consistent>
1

> <s_lp_Variant>
AV-unprocessed.smi:798-11

> <Gold.Version>
5.8.1

> <Gold.Id.Protein>
6NUR|6NUR_protein|mol2

> <Gold.PLP.Fitness>
39.6843

> <Gold.PLP.PLP>
-29.0565

> <Gold.PLP.part.hbond>
-4.0000

> <Gold.PLP.part.metal>
0.0000

> <Gold.PLP.part.buried>
-4.1419

> <Gold.PLP.part.nonpolar>
-21.7481

> <Gold.PLP.part.repulsive>
0.1619

> <Gold.PLP.ligand.clash>
0.0000

> <Gold.PLP.ligand.torsion>
0.4686

> <Gold.PLP.Chemscore.Hbond>
3.8458

> <Gold.PLP.Chemscore.CHOScore>
0.0000

> <Gold.PLP.Chemscore.Metal>
0.0000

> <Gold.Chemscore.Hbonds>
donor molecule, donor type, donor heavy atom, donor atom, acceptor molecule, acceptor atom, score
      L1  H    18    33       P1  7957  1.00
      P1  H  6896  6908       L1     1  1.00
      P1  H  6931  6943       L1     3  0.54
      P1  H  6934  6947       L1     3  1.24

> <Gold.PLP.Chemscore.Internal.Correction>
0.0276

> <Gold.Rescore>
     Score         DG    S(hbond)    S(metal)    S(lipo)     H(rot)  DE(clash)    DE(int)     intcor
     13.55     -15.44       2.51        0.00      55.55       1.92       0.00       1.89       ----

> <Gold.Chemscore.Fitness>
13.5498

> <Gold.Chemscore.DG>
-15.4406

> <Gold.Chemscore.ZeroCoef>
-5.4800

> <Gold.Chemscore.Hbond>
2.5083

> <Gold.Chemscore.Metal>
0.0000

> <Gold.Chemscore.Lipo>
55.5540

> <Gold.Chemscore.Internal_Hbond>
0.0000

> <Gold.Chemscore.DEClash>
0.0000

> <Gold.Chemscore.DEInternal>
1.8908

> <Gold.Chemscore.Rot>
1.9207

> <Gold.Chemscore.Internal.Correction>
   9.000000E+99

> <Gold.Chemscore.Hbonds>
donor molecule, donor type, donor heavy atom, donor atom, acceptor molecule, acceptor atom, score
      L1  H    18    33       P1  7957  0.94
      P1  H  6896  6908       L1     1  0.96
      P1  H  6931  6943       L1     3  0.01
      P1  H  6934  6947       L1     3  0.44

> <Gold.Chemscore.Hbond.Weighted>
-8.3776

> <Gold.Chemscore.Metal.Weighted>
-0.0000

> <Gold.Chemscore.Lipo.Weighted>
-6.4998

> <Gold.Chemscore.Internal_Hbond.Weighted>
0.0000

> <Gold.Chemscore.DEClash.Weighted>
0.0000

> <Gold.Chemscore.DEInternal.Weighted>
1.8908

> <Gold.Chemscore.Rot.Weighted>
4.9169

> <Gold.Chemscore.Internal.Correction.Weighted>
   9.000000E+99

> <Gold.Protein.RotatedTorsions>
[ 6907 6896 6895 6894 ] final  177.68 input  -60.11 | X-H torsion
[ 7974 7965 7964 7962 ] final -146.86 input  175.53 | X-H torsion
[ 8008 7997 7996 7995 ] final   48.85 input   59.86 | X-H torsion
[ 10167 10162 10161 10158 ] final  -55.78 input  -65.29 | X-H torsion
[ 10718 10713 10712 10709 ] final -142.63 input   66.30 | X-H torsion
[ 10763 10752 10751 10750 ] final   37.50 input  -60.55 | X-H torsion
[ 11005 11000 10999 10996 ] final   61.55 input  -57.11 | X-H torsion

> <Gold.Protein.ActiveResidues>
 VAL166  LYS551  ARG553  GLY616  TRP617  ASP618  TYR619  PRO620  LYS621  CYS622 
 ASP623  PHE694  ASN695  SER759  ASP760  ASP761  ALA762  ILE779  LEU786  VAL792 
 PHE793  MET794  SER795  GLU796  ALA797  LYS798  CYS799  TRP800  GLU811  SER814 

> <Gold.Protein.RotatedAtoms>
  151.7001  133.3311  159.3264 H   0  0  0  0  0  0  0  0  0  0  0  0  # atno 6907 bound_to 6896
  150.7740  134.6623  159.6356 H   0  0  0  0  0  0  0  0  0  0  0  0  # atno 6908 bound_to 6896
  152.3775  134.6644  160.0206 H   0  0  0  0  0  0  0  0  0  0  0  0  # atno 6909 bound_to 6896
  144.8131  140.5402  143.5629 H   0  0  0  0  0  0  0  0  0  0  0  0  # atno 7974 bound_to 7965
  155.3925  140.3434  155.4252 H   0  0  0  0  0  0  0  0  0  0  0  0  # atno 8008 bound_to 7997
  156.1550  140.1582  156.8741 H   0  0  0  0  0  0  0  0  0  0  0  0  # atno 8009 bound_to 7997
  154.5086  140.0796  156.7926 H   0  0  0  0  0  0  0  0  0  0  0  0  # atno 8010 bound_to 7997
  140.6355  143.2480  151.5129 H   0  0  0  0  0  0  0  0  0  0  0  0  # atno 10167 bound_to 10162
  156.3482  130.7674  151.1822 H   0  0  0  0  0  0  0  0  0  0  0  0  # atno 10718 bound_to 10713
  153.0035  135.6276  154.2154 H   0  0  0  0  0  0  0  0  0  0  0  0  # atno 10763 bound_to 10752
  154.1897  135.2809  155.3027 H   0  0  0  0  0  0  0  0  0  0  0  0  # atno 10764 bound_to 10752
  154.5769  135.5659  153.7207 H   0  0  0  0  0  0  0  0  0  0  0  0  # atno 10765 bound_to 10752
  140.0153  134.6234  155.9718 H   0  0  0  0  0  0  0  0  0  0  0  0  # atno 11005 bound_to 11000
  145.5276  139.1475  143.3517 LP  0  0  0  0  0  0  0  0  0  0  0  0  # atno 17320 bound_to 7965
  146.2432  140.5417  142.8925 LP  0  0  0  0  0  0  0  0  0  0  0  0  # atno 17321 bound_to 7965
  139.5566  144.2260  152.1622 LP  0  0  0  0  0  0  0  0  0  0  0  0  # atno 17342 bound_to 10162
  140.1516  144.5109  150.6684 LP  0  0  0  0  0  0  0  0  0  0  0  0  # atno 17343 bound_to 10162
  157.7457  131.0435  150.4747 LP  0  0  0  0  0  0  0  0  0  0  0  0  # atno 17370 bound_to 10713
  156.4938  130.4101  149.6391 LP  0  0  0  0  0  0  0  0  0  0  0  0  # atno 17371 bound_to 10713
  141.1739  133.6539  156.4753 LP  0  0  0  0  0  0  0  0  0  0  0  0  # atno 17394 bound_to 11000
  140.4481  134.6954  157.5026 LP  0  0  0  0  0  0  0  0  0  0  0  0  # atno 17395 bound_to 11000

$$$$
