AV-unprocessed.smi:2868|AV-procd|sdf|11027|dock8
  -GOLD-   2272015493D 1   1.00000     0.00000
 Structure written by MMmdl.
 49 50  0  0  0  0  0  0  0  0  1 V2000
  146.2614  137.1679  162.5053 C   0  0  0  0  0  0  0  0  0  0  0  0
  146.2539  135.8782  161.6662 C   0  0  0  0  0  0  0  0  0  0  0  0
  146.9597  134.7597  162.4615 C   0  0  0  0  0  0  0  0  0  0  0  0
  144.7922  135.4894  161.3592 C   0  0  0  0  0  0  0  0  0  0  0  0
  146.9840  136.1726  160.4273 N   0  0  0  0  0  0  0  0  0  0  0  0
  148.2585  136.5826  160.2759 C   0  0  0  0  0  0  0  0  0  0  0  0
  149.0175  136.7579  161.2298 O   0  0  0  0  0  0  0  0  0  0  0  0
  148.6394  136.7713  158.9864 N   0  0  0  0  0  0  0  0  0  0  0  0
  147.7720  137.1796  157.8682 C   0  0  0  0  0  0  0  0  0  0  0  0
  148.0581  138.6545  157.5335 C   0  0  0  0  0  0  0  0  0  0  0  0
  149.5522  138.8780  157.2127 C   0  0  0  0  0  0  0  0  0  0  0  0
  149.8159  140.3077  157.0856 N   0  0  0  0  0  0  0  0  0  0  0  0
  150.5896  140.8738  156.1463 C   0  0  0  0  0  0  0  0  0  0  0  0
  151.1800  140.2352  155.2755 O   0  0  0  0  0  0  0  0  0  0  0  0
  150.7127  142.3967  156.1920 C   0  0  0  0  0  0  0  0  0  0  0  0
  151.3913  142.8302  157.4787 C   0  0  0  0  0  0  0  0  0  0  0  0
  152.0546  141.8950  158.3002 C   0  0  0  0  0  0  0  0  0  0  0  0
  152.6670  142.3468  159.4850 C   0  0  0  0  0  0  0  0  0  0  0  0
  152.5907  143.7186  159.7984 C   0  0  0  0  0  0  0  0  0  0  0  0
  151.9592  144.6231  159.0194 N   0  0  0  0  0  0  0  0  0  0  0  0
  151.3736  144.1816  157.8855 C   0  0  0  0  0  0  0  0  0  0  0  0
  150.4629  138.2462  158.2915 C   0  0  0  0  0  0  0  0  0  0  0  0
  150.0522  136.7925  158.5886 C   0  0  0  0  0  0  0  0  0  0  0  0
  145.7269  137.0328  163.4463 H   0  0  0  0  0  0  0  0  0  0  0  0
  145.7839  137.9920  161.9736 H   0  0  0  0  0  0  0  0  0  0  0  0
  147.2782  137.4791  162.7487 H   0  0  0  0  0  0  0  0  0  0  0  0
  148.0047  135.0067  162.6523 H   0  0  0  0  0  0  0  0  0  0  0  0
  146.9371  133.8050  161.9361 H   0  0  0  0  0  0  0  0  0  0  0  0
  146.4791  134.6022  163.4276 H   0  0  0  0  0  0  0  0  0  0  0  0
  144.2160  135.3725  162.2778 H   0  0  0  0  0  0  0  0  0  0  0  0
  144.7231  134.5456  160.8186 H   0  0  0  0  0  0  0  0  0  0  0  0
  144.2968  136.2517  160.7570 H   0  0  0  0  0  0  0  0  0  0  0  0
  146.4529  136.0543  159.5769 H   0  0  0  0  0  0  0  0  0  0  0  0
  147.9895  136.5547  157.0008 H   0  0  0  0  0  0  0  0  0  0  0  0
  146.7077  137.0423  158.0586 H   0  0  0  0  0  0  0  0  0  0  0  0
  147.4438  138.9707  156.6897 H   0  0  0  0  0  0  0  0  0  0  0  0
  147.7625  139.2756  158.3808 H   0  0  0  0  0  0  0  0  0  0  0  0
  149.7607  138.3912  156.2579 H   0  0  0  0  0  0  0  0  0  0  0  0
  149.3712  140.9139  157.7594 H   0  0  0  0  0  0  0  0  0  0  0  0
  151.2778  142.7595  155.3321 H   0  0  0  0  0  0  0  0  0  0  0  0
  149.7201  142.8446  156.1274 H   0  0  0  0  0  0  0  0  0  0  0  0
  152.0914  140.8498  158.0300 H   0  0  0  0  0  0  0  0  0  0  0  0
  153.1824  141.6585  160.1385 H   0  0  0  0  0  0  0  0  0  0  0  0
  153.0493  144.0997  160.6989 H   0  0  0  0  0  0  0  0  0  0  0  0
  150.8749  144.9290  157.2862 H   0  0  0  0  0  0  0  0  0  0  0  0
  151.5051  138.2769  157.9721 H   0  0  0  0  0  0  0  0  0  0  0  0
  150.4051  138.8286  159.2125 H   0  0  0  0  0  0  0  0  0  0  0  0
  150.7116  136.3664  159.3459 H   0  0  0  0  0  0  0  0  0  0  0  0
  150.1897  136.1753  157.6996 H   0  0  0  0  0  0  0  0  0  0  0  0
  1  2  1  0  0  0  0
  1 24  1  0  0  0  0
  1 25  1  0  0  0  0
  1 26  1  0  0  0  0
  2  3  1  0  0  0  0
  2  4  1  0  0  0  0
  2  5  1  0  0  0  0
  3 27  1  0  0  0  0
  3 28  1  0  0  0  0
  3 29  1  0  0  0  0
  4 30  1  0  0  0  0
  4 31  1  0  0  0  0
  4 32  1  0  0  0  0
  5  6  1  0  0  0  0
  5 33  1  0  0  0  0
  6  7  2  0  0  0  0
  6  8  1  0  0  0  0
  8 23  1  0  0  0  0
  8  9  1  0  0  0  0
  9 10  1  0  0  0  0
  9 34  1  0  0  0  0
  9 35  1  0  0  0  0
 10 11  1  0  0  0  0
 10 36  1  0  0  0  0
 10 37  1  0  0  0  0
 11 12  1  0  0  0  0
 11 22  1  0  0  0  0
 11 38  1  0  0  0  0
 12 13  1  0  0  0  0
 12 39  1  0  0  0  0
 13 14  2  0  0  0  0
 13 15  1  0  0  0  0
 15 16  1  0  0  0  0
 15 40  1  0  0  0  0
 15 41  1  0  0  0  0
 16 21  1  0  0  0  0
 16 17  2  0  0  0  0
 17 18  1  0  0  0  0
 17 42  1  0  0  0  0
 18 19  2  0  0  0  0
 18 43  1  0  0  0  0
 19 20  1  0  0  0  0
 19 44  1  0  0  0  0
 20 21  2  0  0  0  0
 21 45  1  0  0  0  0
 22 23  1  0  0  0  0
 22 46  1  0  0  0  0
 22 47  1  0  0  0  0
 23 48  1  0  0  0  0
 23 49  1  0  0  0  0
M  END
> <s_m_source_file>
AV-unprocessed.smi

> <i_m_source_file_index>
2868

> <i_lp_mmshare_version>
43012

> <i_f3d_flags>
0

> <s_epik_input>
W0NIM11DKFtDSDNdKShbQ0gzXSlbTkhdQyg9TylOMVtDSDJdW0NIMl1bQ0hdKFtDSDJdW0NIMl0xKVtOSF1DKD1PKVtDSDJdYzJbY0hdW2NIXVtjSF1uW2NIXTI=

> <s_epik_cmdline>
J2VwaWtfcHl0aG9uJywgJy1waCcsICc3LjAnLCAnLXRuJywgJzgnLCAnLW1hJywgJzIwMCcsICctbWV0YWxfYmluZGluZycsICctaW1hZScsICc8aW5maWxlLm1hZT4nLCAnLW9tYWUnLCAnPG91dGZpbGUubWFlPic=

> <r_epik_Ionization_Penalty>
0.00419782

> <r_epik_Ionization_Penalty_Charging>
0

> <r_epik_Ionization_Penalty_Neutral>
0.00419782

> <r_epik_State_Penalty>
0.0029617

> <r_epik_Charging_Adjusted_Penalty>
0.0029617

> <i_epik_Tot_Q>
0

> <i_epik_Tot_abs_Q>
0

> <r_epik_Metal_State_Penalty>
-0

> <b_epik_Metal_Only>
0

> <s_lp_Force_Field>
OPLS_2005

> <r_lp_Energy>
29.348

> <b_lp_Chiralities_Consistent>
1

> <s_lp_Variant>
AV-unprocessed.smi:2868-1

> <Gold.Version>
5.8.1

> <Gold.Id.Protein>
6NUR|6NUR_protein|mol2

> <Gold.PLP.Fitness>
45.5809

> <Gold.PLP.PLP>
-37.9327

> <Gold.PLP.part.hbond>
-1.8874

> <Gold.PLP.part.metal>
0.0000

> <Gold.PLP.part.buried>
-3.8842

> <Gold.PLP.part.nonpolar>
-32.7830

> <Gold.PLP.part.repulsive>
0.2073

> <Gold.PLP.ligand.clash>
0.0000

> <Gold.PLP.ligand.torsion>
0.7115

> <Gold.PLP.Chemscore.Hbond>
2.0000

> <Gold.PLP.Chemscore.CHOScore>
1.0000

> <Gold.PLP.Chemscore.Metal>
0.0000

> <Gold.Chemscore.Hbonds>
donor molecule, donor type, donor heavy atom, donor atom, acceptor molecule, acceptor atom, score
      P1  H  6931  6943       L1     7  1.00
      P1  H  7989  7998       L1    14  1.00
      L1  C    21    45       P1  8028  1.00

> <Gold.PLP.Chemscore.Internal.Correction>
0.0712

> <Gold.Rescore>
     Score         DG    S(hbond)    S(metal)    S(lipo)     H(rot)  DE(clash)    DE(int)     intcor
     17.04     -19.53       1.86        0.00     100.36       1.52       0.12       2.37       ----

> <Gold.Chemscore.Fitness>
17.0418

> <Gold.Chemscore.DG>
-19.5284

> <Gold.Chemscore.ZeroCoef>
-5.4800

> <Gold.Chemscore.Hbond>
1.8554

> <Gold.Chemscore.Metal>
0.0000

> <Gold.Chemscore.Lipo>
100.3568

> <Gold.Chemscore.Internal_Hbond>
0.0000

> <Gold.Chemscore.DEClash>
0.1206

> <Gold.Chemscore.DEInternal>
2.3660

> <Gold.Chemscore.Rot>
1.5197

> <Gold.Chemscore.Internal.Correction>
   9.000000E+99

> <Gold.Chemscore.Hbonds>
donor molecule, donor type, donor heavy atom, donor atom, acceptor molecule, acceptor atom, score
      P1  H  6931  6943       L1     7  0.92
      P1  H  7989  7998       L1    14  0.96

> <Gold.Chemscore.Hbond.Weighted>
-6.1971

> <Gold.Chemscore.Metal.Weighted>
-0.0000

> <Gold.Chemscore.Lipo.Weighted>
-11.7417

> <Gold.Chemscore.Internal_Hbond.Weighted>
0.0000

> <Gold.Chemscore.DEClash.Weighted>
0.1206

> <Gold.Chemscore.DEInternal.Weighted>
2.3660

> <Gold.Chemscore.Rot.Weighted>
3.8904

> <Gold.Chemscore.Internal.Correction.Weighted>
   9.000000E+99

> <Gold.Protein.RotatedTorsions>
[ 6907 6896 6895 6894 ] final  -55.24 input  -60.11 | X-H torsion
[ 7974 7965 7964 7962 ] final  173.90 input  175.53 | X-H torsion
[ 8008 7997 7996 7995 ] final  139.18 input   59.86 | X-H torsion
[ 10167 10162 10161 10158 ] final  -34.24 input  -65.29 | X-H torsion
[ 10718 10713 10712 10709 ] final  173.32 input   66.30 | X-H torsion
[ 10763 10752 10751 10750 ] final -109.78 input  -60.55 | X-H torsion
[ 11005 11000 10999 10996 ] final  -46.75 input  -57.11 | X-H torsion

> <Gold.Protein.ActiveResidues>
 VAL166  LYS551  ARG553  GLY616  TRP617  ASP618  TYR619  PRO620  LYS621  CYS622 
 ASP623  PHE694  ASN695  SER759  ASP760  ASP761  ALA762  ILE779  LEU786  VAL792 
 PHE793  MET794  SER795  GLU796  ALA797  LYS798  CYS799  TRP800  GLU811  SER814 

> <Gold.Protein.RotatedAtoms>
  150.8268  134.7503  159.6819 H   0  0  0  0  0  0  0  0  0  0  0  0  # atno 6907 bound_to 6896
  152.4378  134.5648  159.9914 H   0  0  0  0  0  0  0  0  0  0  0  0  # atno 6908 bound_to 6896
  151.5818  133.3339  159.3046 H   0  0  0  0  0  0  0  0  0  0  0  0  # atno 6909 bound_to 6896
  144.7233  139.9717  143.6437 H   0  0  0  0  0  0  0  0  0  0  0  0  # atno 7974 bound_to 7965
  156.2992  140.2374  156.4196 H   0  0  0  0  0  0  0  0  0  0  0  0  # atno 8008 bound_to 7997
  154.8368  140.0430  157.1534 H   0  0  0  0  0  0  0  0  0  0  0  0  # atno 8009 bound_to 7997
  154.9147  140.2995  155.5251 H   0  0  0  0  0  0  0  0  0  0  0  0  # atno 8010 bound_to 7997
  140.7189  143.3562  151.2054 H   0  0  0  0  0  0  0  0  0  0  0  0  # atno 10167 bound_to 10162
  156.9660  131.0075  151.2916 H   0  0  0  0  0  0  0  0  0  0  0  0  # atno 10718 bound_to 10713
  154.8212  135.4588  154.0785 H   0  0  0  0  0  0  0  0  0  0  0  0  # atno 10763 bound_to 10752
  153.2137  135.6885  153.8089 H   0  0  0  0  0  0  0  0  0  0  0  0  # atno 10764 bound_to 10752
  153.7531  135.3295  155.3301 H   0  0  0  0  0  0  0  0  0  0  0  0  # atno 10765 bound_to 10752
  141.0598  133.6713  156.3199 H   0  0  0  0  0  0  0  0  0  0  0  0  # atno 11005 bound_to 11000
  146.0558  139.3555  143.0612 LP  0  0  0  0  0  0  0  0  0  0  0  0  # atno 17320 bound_to 7965
  145.8157  140.9704  143.0925 LP  0  0  0  0  0  0  0  0  0  0  0  0  # atno 17321 bound_to 7965
  139.7104  143.9386  152.2945 LP  0  0  0  0  0  0  0  0  0  0  0  0  # atno 17342 bound_to 10162
  139.9109  144.6857  150.8563 LP  0  0  0  0  0  0  0  0  0  0  0  0  # atno 17343 bound_to 10162
  157.5625  130.8255  149.8285 LP  0  0  0  0  0  0  0  0  0  0  0  0  # atno 17370 bound_to 10713
  156.0302  130.3767  150.1708 LP  0  0  0  0  0  0  0  0  0  0  0  0  # atno 17371 bound_to 10713
  140.5891  134.5668  157.5496 LP  0  0  0  0  0  0  0  0  0  0  0  0  # atno 17394 bound_to 11000
  139.9422  134.7766  156.0649 LP  0  0  0  0  0  0  0  0  0  0  0  0  # atno 17395 bound_to 11000

$$$$
