AV-unprocessed.smi:3090|AV-procd|sdf|11777|dock3
  -GOLD-   2272017153D 1   1.00000     0.00000
 Structure written by MMmdl.
 21 21  0  0  0  0  0  0  0  0  1 V2000
  151.6656  138.3562  154.7302 C   0  0  0  0  0  0  0  0  0  0  0  0
  150.4279  139.0682  154.4951 N   0  0  0  0  0  0  0  0  0  0  0  0
  149.2171  138.5718  154.0629 C   0  0  0  0  0  0  0  0  0  0  0  0
  148.3450  139.6227  153.9842 C   0  0  0  0  0  0  0  0  0  0  0  0
  146.8963  139.6341  153.5717 C   0  0  1  0  0  0  0  0  0  0  0  0
  146.5843  140.8152  152.8599 O   0  0  0  0  0  0  0  0  0  0  0  0
  146.5871  138.4338  152.6608 C   0  0  0  0  0  0  0  0  0  0  0  0
  147.4007  138.4223  151.4350 N   0  0  0  0  0  0  0  0  0  0  0  0
  149.1336  140.7331  154.4019 C   0  0  0  0  0  0  0  0  0  0  0  0
  150.3773  140.3992  154.7052 N   0  0  0  0  0  0  0  0  0  0  0  0
  151.5337  137.2951  154.5167 H   0  0  0  0  0  0  0  0  0  0  0  0
  151.9675  138.4739  155.7714 H   0  0  0  0  0  0  0  0  0  0  0  0
  152.4477  138.7537  154.0829 H   0  0  0  0  0  0  0  0  0  0  0  0
  149.0754  137.5227  153.8479 H   0  0  0  0  0  0  0  0  0  0  0  0
  146.2559  139.5952  154.4540 H   0  0  0  0  0  0  0  0  0  0  0  0
  145.6462  140.8652  152.7588 H   0  0  0  0  0  0  0  0  0  0  0  0
  146.7080  137.4990  153.2097 H   0  0  0  0  0  0  0  0  0  0  0  0
  145.5368  138.4783  152.3702 H   0  0  0  0  0  0  0  0  0  0  0  0
  148.0170  139.2334  151.4092 H   0  0  0  0  0  0  0  0  0  0  0  0
  147.9939  137.5943  151.4086 H   0  0  0  0  0  0  0  0  0  0  0  0
  148.8386  141.7681  154.4925 H   0  0  0  0  0  0  0  0  0  0  0  0
  1  2  1  0  0  0  0
  1 11  1  0  0  0  0
  1 12  1  0  0  0  0
  1 13  1  0  0  0  0
  2 10  1  0  0  0  0
  2  3  1  0  0  0  0
  3  4  2  0  0  0  0
  3 14  1  0  0  0  0
  4  5  1  0  0  0  0
  4  9  1  0  0  0  0
  5  6  1  0  0  0  0
  5  7  1  0  0  0  0
  5 15  1  0  0  0  0
  6 16  1  0  0  0  0
  7  8  1  0  0  0  0
  7 17  1  0  0  0  0
  7 18  1  0  0  0  0
  8 19  1  0  0  0  0
  8 20  1  0  0  0  0
  9 10  2  0  0  0  0
  9 21  1  0  0  0  0
M  END
> <s_m_source_file>
AV-unprocessed.smi

> <i_m_source_file_index>
3090

> <i_lp_mmshare_version>
43012

> <i_f3d_flags>
0

> <s_epik_input>
W0NIM11uMVtjSF1jKFtjSF1uMSlbQ0BIXShbT0hdKVtDSDJdW05IMl0=

> <s_epik_cmdline>
J2VwaWtfcHl0aG9uJywgJy1waCcsICc3LjAnLCAnLXRuJywgJzgnLCAnLW1hJywgJzIwMCcsICctbWV0YWxfYmluZGluZycsICctaW1hZScsICc8aW5maWxlLm1hZT4nLCAnLW9tYWUnLCAnPG91dGZpbGUubWFlPic=

> <r_lp_tautomer_probability>
1

> <r_epik_Ionization_Penalty>
2.22426

> <r_epik_Ionization_Penalty_Charging>
0

> <r_epik_Ionization_Penalty_Neutral>
2.22426

> <r_epik_State_Penalty>
2.36938

> <r_epik_Charging_Adjusted_Penalty>
2.36938

> <i_epik_Tot_Q>
0

> <i_epik_Tot_abs_Q>
0

> <r_epik_Metal_State_Penalty>
2.36934

> <b_epik_Metal_Only>
0

> <s_lp_Force_Field>
OPLS_2005

> <r_lp_Energy>
8.04815

> <b_lp_Chiralities_Consistent>
1

> <s_lp_Variant>
AV-unprocessed.smi:3090-4

> <Gold.Version>
5.8.1

> <Gold.Id.Protein>
6NUR|6NUR_protein|mol2

> <Gold.PLP.Fitness>
36.6238

> <Gold.PLP.PLP>
-23.1272

> <Gold.PLP.part.hbond>
-5.0000

> <Gold.PLP.part.metal>
0.0000

> <Gold.PLP.part.buried>
-2.6504

> <Gold.PLP.part.nonpolar>
-16.5488

> <Gold.PLP.part.repulsive>
0.0911

> <Gold.PLP.ligand.clash>
0.0000

> <Gold.PLP.ligand.torsion>
0.6773

> <Gold.PLP.Chemscore.Hbond>
3.9500

> <Gold.PLP.Chemscore.CHOScore>
1.0000

> <Gold.PLP.Chemscore.Metal>
0.0000

> <Gold.Chemscore.Hbonds>
donor molecule, donor type, donor heavy atom, donor atom, acceptor molecule, acceptor atom, score
      L1  H     6    16       P1 10175  1.00
      L1  H     8    19       P1  7957  1.00
      L1  H     8    20       P1  7948  1.00
      P1  H  7989  7998       L1    10  0.90
      L1  C     3    14       P1  7948  1.00

> <Gold.PLP.Chemscore.Internal.Correction>
0.0011

> <Gold.Rescore>
     Score         DG    S(hbond)    S(metal)    S(lipo)     H(rot)  DE(clash)    DE(int)     intcor
     15.19     -16.07       3.28        0.00      38.68       1.90       0.16       0.73       ----

> <Gold.Chemscore.Fitness>
15.1873

> <Gold.Chemscore.DG>
-16.0712

> <Gold.Chemscore.ZeroCoef>
-5.4800

> <Gold.Chemscore.Hbond>
3.2755

> <Gold.Chemscore.Metal>
0.0000

> <Gold.Chemscore.Lipo>
38.6750

> <Gold.Chemscore.Internal_Hbond>
0.0000

> <Gold.Chemscore.DEClash>
0.1574

> <Gold.Chemscore.DEInternal>
0.7264

> <Gold.Chemscore.Rot>
1.9039

> <Gold.Chemscore.Internal.Correction>
   9.000000E+99

> <Gold.Chemscore.Hbonds>
donor molecule, donor type, donor heavy atom, donor atom, acceptor molecule, acceptor atom, score
      L1  H     6    16       P1 10175  0.29
      L1  H     8    19       P1  7957  0.85
      L1  H     8    20       P1  7948  1.00
      P1  H  7989  7998       L1    10  0.16

> <Gold.Chemscore.Hbond.Weighted>
-10.9402

> <Gold.Chemscore.Metal.Weighted>
-0.0000

> <Gold.Chemscore.Lipo.Weighted>
-4.5250

> <Gold.Chemscore.Internal_Hbond.Weighted>
0.0000

> <Gold.Chemscore.DEClash.Weighted>
0.1574

> <Gold.Chemscore.DEInternal.Weighted>
0.7264

> <Gold.Chemscore.Rot.Weighted>
4.8739

> <Gold.Chemscore.Internal.Correction.Weighted>
   9.000000E+99

> <Gold.Protein.RotatedTorsions>
[ 6907 6896 6895 6894 ] final -112.10 input  -60.11 | X-H torsion
[ 7974 7965 7964 7962 ] final -111.49 input  175.53 | X-H torsion
[ 8008 7997 7996 7995 ] final -143.47 input   59.86 | X-H torsion
[ 10167 10162 10161 10158 ] final -153.17 input  -65.29 | X-H torsion
[ 10718 10713 10712 10709 ] final  123.83 input   66.30 | X-H torsion
[ 10763 10752 10751 10750 ] final  122.46 input  -60.55 | X-H torsion
[ 11005 11000 10999 10996 ] final  -11.89 input  -57.11 | X-H torsion

> <Gold.Protein.ActiveResidues>
 VAL166  LYS551  ARG553  GLY616  TRP617  ASP618  TYR619  PRO620  LYS621  CYS622 
 ASP623  PHE694  ASN695  SER759  ASP760  ASP761  ALA762  ILE779  LEU786  VAL792 
 PHE793  MET794  SER795  GLU796  ALA797  LYS798  CYS799  TRP800  GLU811  SER814 

> <Gold.Protein.RotatedAtoms>
  150.7735  133.9138  159.3377 H   0  0  0  0  0  0  0  0  0  0  0  0  # atno 6907 bound_to 6896
  151.7019  135.0926  160.0262 H   0  0  0  0  0  0  0  0  0  0  0  0  # atno 6908 bound_to 6896
  152.3762  133.6447  159.6161 H   0  0  0  0  0  0  0  0  0  0  0  0  # atno 6909 bound_to 6896
  145.1554  140.8851  143.3622 H   0  0  0  0  0  0  0  0  0  0  0  0  # atno 7974 bound_to 7965
  155.5112  140.0583  157.2923 H   0  0  0  0  0  0  0  0  0  0  0  0  # atno 8008 bound_to 7997
  154.4551  140.1969  156.0351 H   0  0  0  0  0  0  0  0  0  0  0  0  # atno 8009 bound_to 7997
  156.0783  140.3250  155.7666 H   0  0  0  0  0  0  0  0  0  0  0  0  # atno 8010 bound_to 7997
  139.7120  143.9094  152.2471 H   0  0  0  0  0  0  0  0  0  0  0  0  # atno 10167 bound_to 10162
  157.5634  131.1088  150.8499 H   0  0  0  0  0  0  0  0  0  0  0  0  # atno 10718 bound_to 10713
  153.6301  135.3397  155.3039 H   0  0  0  0  0  0  0  0  0  0  0  0  # atno 10763 bound_to 10752
  154.8582  135.4293  154.2114 H   0  0  0  0  0  0  0  0  0  0  0  0  # atno 10764 bound_to 10752
  153.3008  135.7024  153.7278 H   0  0  0  0  0  0  0  0  0  0  0  0  # atno 10765 bound_to 10752
  140.7600  133.8522  155.9117 H   0  0  0  0  0  0  0  0  0  0  0  0  # atno 11005 bound_to 11000
  145.0386  139.3279  143.5988 LP  0  0  0  0  0  0  0  0  0  0  0  0  # atno 17320 bound_to 7965
  146.3489  139.9751  142.8702 LP  0  0  0  0  0  0  0  0  0  0  0  0  # atno 17321 bound_to 7965
  139.8966  144.6936  150.8711 LP  0  0  0  0  0  0  0  0  0  0  0  0  # atno 17342 bound_to 10162
  140.7735  143.3546  151.1947 LP  0  0  0  0  0  0  0  0  0  0  0  0  # atno 17343 bound_to 10162
  156.8990  130.5240  149.5283 LP  0  0  0  0  0  0  0  0  0  0  0  0  # atno 17370 bound_to 10713
  156.0684  130.5722  150.9334 LP  0  0  0  0  0  0  0  0  0  0  0  0  # atno 17371 bound_to 10713
  140.9672  134.1579  157.4606 LP  0  0  0  0  0  0  0  0  0  0  0  0  # atno 17394 bound_to 11000
  139.8772  134.9966  156.5801 LP  0  0  0  0  0  0  0  0  0  0  0  0  # atno 17395 bound_to 11000

$$$$
