AV-unprocessed.smi:1803|AV-procd|sdf|7282|dock2
  -GOLD-   22720 8543D 1   1.00000     0.00000
 Structure written by MMmdl.
 36 38  0  0  0  0  0  0  0  0  2 V2000
  148.9898  141.6193  158.8027 O   0  0  0  0  0  0  0  0  0  0  0  0
  149.0494  142.7377  158.2956 C   0  0  0  0  0  0  0  0  0  0  0  0
  148.2867  143.7536  158.7515 N   0  0  0  0  0  0  0  0  0  0  0  0
  147.3293  143.8063  159.8062 C   0  0  0  0  0  0  0  0  0  0  0  0
  146.7849  142.7252  160.3889 N   0  0  0  0  0  0  0  0  0  0  0  0
  145.8626  143.0678  161.3681 N   0  0  0  0  0  0  0  0  0  0  0  0
  145.7360  144.3929  161.4790 C   0  0  0  0  0  0  0  0  0  0  0  0
  146.7321  145.3509  160.3973 S   0  0  0  0  0  0  0  0  0  0  0  0
  149.8635  143.0274  157.2667 N   0  0  0  0  0  0  0  0  0  0  0  0
  150.8119  142.1102  156.6398 C   0  0  1  0  0  0  0  0  0  0  0  0
  151.4885  141.1693  157.6560 C   0  0  0  0  0  0  0  0  0  0  0  0
  151.4899  139.7958  156.9775 C   0  0  0  0  0  0  0  0  0  0  0  0
  150.2610  139.8234  156.1761 N   0  3  2  0  0  0  0  0  0  0  0  0
  150.0452  138.7539  155.1806 C   0  0  0  0  0  0  0  0  0  0  0  0
  148.6214  138.9030  154.6028 C   0  0  0  0  0  0  0  0  0  0  0  0
  148.3526  140.3297  154.0726 C   0  0  0  0  0  0  0  0  0  0  0  0
  148.7165  141.4064  155.1172 C   0  0  0  0  0  0  0  0  0  0  0  0
  150.1617  141.1732  155.5948 C   0  0  1  0  0  0  0  0  0  0  0  0
  148.3429  144.5982  158.2006 H   0  0  0  0  0  0  0  0  0  0  0  0
  145.0478  144.8091  162.2000 H   0  0  0  0  0  0  0  0  0  0  0  0
  149.8407  143.9714  156.9078 H   0  0  0  0  0  0  0  0  0  0  0  0
  151.5943  142.6881  156.1436 H   0  0  0  0  0  0  0  0  0  0  0  0
  152.4912  141.4985  157.9302 H   0  0  0  0  0  0  0  0  0  0  0  0
  150.8993  141.1148  158.5729 H   0  0  0  0  0  0  0  0  0  0  0  0
  152.3561  139.6917  156.3220 H   0  0  0  0  0  0  0  0  0  0  0  0
  151.4937  138.9723  157.6920 H   0  0  0  0  0  0  0  0  0  0  0  0
  150.7946  138.8189  154.3904 H   0  0  0  0  0  0  0  0  0  0  0  0
  150.1587  137.7790  155.6558 H   0  0  0  0  0  0  0  0  0  0  0  0
  148.4619  138.1727  153.8090 H   0  0  0  0  0  0  0  0  0  0  0  0
  147.8937  138.6712  155.3817 H   0  0  0  0  0  0  0  0  0  0  0  0
  148.9410  140.4923  153.1685 H   0  0  0  0  0  0  0  0  0  0  0  0
  147.3071  140.4303  153.7794 H   0  0  0  0  0  0  0  0  0  0  0  0
  148.6143  142.3982  154.6756 H   0  0  0  0  0  0  0  0  0  0  0  0
  148.0239  141.3592  155.9590 H   0  0  0  0  0  0  0  0  0  0  0  0
  150.8111  141.1990  154.7168 H   0  0  0  0  0  0  0  0  0  0  0  0
  149.5051  139.7514  156.8421 H   0  0  0  0  0  0  0  0  0  0  0  0
  1  2  2  0  0  0  0
  2  3  1  0  0  0  0
  2  9  1  0  0  0  0
  3  4  1  0  0  0  0
  3 19  1  0  0  0  0
  4  8  1  0  0  0  0
  4  5  2  0  0  0  0
  5  6  1  0  0  0  0
  6  7  2  0  0  0  0
  7  8  1  0  0  0  0
  7 20  1  0  0  0  0
  9 10  1  0  0  0  0
  9 21  1  0  0  0  0
 10 18  1  0  0  0  0
 10 11  1  0  0  0  0
 10 22  1  0  0  0  0
 11 12  1  0  0  0  0
 11 23  1  0  0  0  0
 11 24  1  0  0  0  0
 12 13  1  0  0  0  0
 12 25  1  0  0  0  0
 12 26  1  0  0  0  0
 13 18  1  0  0  0  0
 13 14  1  0  0  0  0
 13 36  1  0  0  0  0
 14 15  1  0  0  0  0
 14 27  1  0  0  0  0
 14 28  1  0  0  0  0
 15 16  1  0  0  0  0
 15 29  1  0  0  0  0
 15 30  1  0  0  0  0
 16 17  1  0  0  0  0
 16 31  1  0  0  0  0
 16 32  1  0  0  0  0
 17 18  1  0  0  0  0
 17 33  1  0  0  0  0
 17 34  1  0  0  0  0
 18 35  1  0  0  0  0
M  CHG  1  13   1
M  END
> <s_m_source_file>
AV-unprocessed.smi

> <i_m_source_file_index>
1803

> <i_lp_mmshare_version>
43012

> <i_f3d_flags>
0

> <s_epik_input>
czFbY0hdbm5jMVtOSF1DKD1PKVtOSF1bQ0BIXShbQ0gyXVtDSDJdMilbQ0BASF0oTjIzKVtDSDJdW0NIMl1bQ0gyXVtDSDJdMw==

> <s_epik_cmdline>
J2VwaWtfcHl0aG9uJywgJy1waCcsICc3LjAnLCAnLXRuJywgJzgnLCAnLW1hJywgJzIwMCcsICctbWV0YWxfYmluZGluZycsICctaW1hZScsICc8aW5maWxlLm1hZT4nLCAnLW9tYWUnLCAnPG91dGZpbGUubWFlPic=

> <r_lp_tautomer_probability>
1

> <r_epik_Ionization_Penalty>
0.00213286

> <r_epik_Ionization_Penalty_Charging>
0.00107044

> <r_epik_Ionization_Penalty_Neutral>
0.00106242

> <r_epik_State_Penalty>
-0

> <r_epik_Charging_Adjusted_Penalty>
0.00107044

> <i_epik_Tot_Q>
1

> <i_epik_Tot_abs_Q>
1

> <r_epik_Metal_State_Penalty>
0.292783

> <b_epik_Metal_Only>
0

> <s_lp_Force_Field>
OPLS_2005

> <r_lp_Energy>
42.6804

> <b_lp_Chiralities_Consistent>
1

> <s_lp_Variant>
AV-unprocessed.smi:1803-4

> <Gold.Version>
5.8.1

> <Gold.Id.Protein>
6NUR|6NUR_protein|mol2

> <Gold.PLP.Fitness>
36.6730

> <Gold.PLP.PLP>
-27.8865

> <Gold.PLP.part.hbond>
-6.0999

> <Gold.PLP.part.metal>
0.0000

> <Gold.PLP.part.buried>
-2.9865

> <Gold.PLP.part.nonpolar>
-21.0837

> <Gold.PLP.part.repulsive>
0.2285

> <Gold.PLP.ligand.clash>
0.0000

> <Gold.PLP.ligand.torsion>
0.3668

> <Gold.PLP.Chemscore.Hbond>
3.1728

> <Gold.PLP.Chemscore.CHOScore>
0.0000

> <Gold.PLP.Chemscore.Metal>
0.0000

> <Gold.Chemscore.Hbonds>
donor molecule, donor type, donor heavy atom, donor atom, acceptor molecule, acceptor atom, score
      L1  H     3    19       P1  8029  1.00
      L1  H     9    21       P1  8028  0.67
      P1  H  6933  6944       L1     5  0.54
      P1  H  6934  6946       L1     5  0.96

> <Gold.PLP.Chemscore.Internal.Correction>
0.0017

> <Gold.Rescore>
     Score         DG    S(hbond)    S(metal)    S(lipo)     H(rot)  DE(clash)    DE(int)     intcor
     12.56     -15.54       1.81        0.00      56.08       1.00       0.04       2.94       ----

> <Gold.Chemscore.Fitness>
12.5551

> <Gold.Chemscore.DG>
-15.5379

> <Gold.Chemscore.ZeroCoef>
-5.4800

> <Gold.Chemscore.Hbond>
1.8133

> <Gold.Chemscore.Metal>
0.0000

> <Gold.Chemscore.Lipo>
56.0820

> <Gold.Chemscore.Internal_Hbond>
0.0000

> <Gold.Chemscore.DEClash>
0.0402

> <Gold.Chemscore.DEInternal>
2.9426

> <Gold.Chemscore.Rot>
1.0000

> <Gold.Chemscore.Internal.Correction>
   9.000000E+99

> <Gold.Chemscore.Hbonds>
donor molecule, donor type, donor heavy atom, donor atom, acceptor molecule, acceptor atom, score
      L1  H     3    19       P1  8029  0.60
      L1  H     9    21       P1  8028  0.62
      P1  H  6933  6944       L1     5  0.02
      P1  H  6934  6946       L1     5  0.24

> <Gold.Chemscore.Hbond.Weighted>
-6.0563

> <Gold.Chemscore.Metal.Weighted>
-0.0000

> <Gold.Chemscore.Lipo.Weighted>
-6.5616

> <Gold.Chemscore.Internal_Hbond.Weighted>
0.0000

> <Gold.Chemscore.DEClash.Weighted>
0.0402

> <Gold.Chemscore.DEInternal.Weighted>
2.9426

> <Gold.Chemscore.Rot.Weighted>
2.5600

> <Gold.Chemscore.Internal.Correction.Weighted>
   9.000000E+99

> <Gold.Protein.RotatedTorsions>
[ 6907 6896 6895 6894 ] final -121.41 input  -60.11 | X-H torsion
[ 7974 7965 7964 7962 ] final   -0.13 input  175.53 | X-H torsion
[ 8008 7997 7996 7995 ] final -136.27 input   59.86 | X-H torsion
[ 10167 10162 10161 10158 ] final  131.33 input  -65.29 | X-H torsion
[ 10718 10713 10712 10709 ] final   23.88 input   66.30 | X-H torsion
[ 10763 10752 10751 10750 ] final   96.42 input  -60.55 | X-H torsion
[ 11005 11000 10999 10996 ] final  116.17 input  -57.11 | X-H torsion

> <Gold.Protein.ActiveResidues>
 VAL166  LYS551  ARG553  GLY616  TRP617  ASP618  TYR619  PRO620  LYS621  CYS622 
 ASP623  PHE694  ASN695  SER759  ASP760  ASP761  ALA762  ILE779  LEU786  VAL792 
 PHE793  MET794  SER795  GLU796  ALA797  LYS798  CYS799  TRP800  GLU811  SER814 

> <Gold.Protein.RotatedAtoms>
  150.8481  133.7830  159.3035 H   0  0  0  0  0  0  0  0  0  0  0  0  # atno 6907 bound_to 6896
  151.5511  135.1066  159.9959 H   0  0  0  0  0  0  0  0  0  0  0  0  # atno 6908 bound_to 6896
  152.4530  133.7624  159.6810 H   0  0  0  0  0  0  0  0  0  0  0  0  # atno 6909 bound_to 6896
  146.2430  140.1223  142.8340 H   0  0  0  0  0  0  0  0  0  0  0  0  # atno 7974 bound_to 7965
  155.3925  140.0501  157.3040 H   0  0  0  0  0  0  0  0  0  0  0  0  # atno 8008 bound_to 7997
  154.5029  140.2163  155.9271 H   0  0  0  0  0  0  0  0  0  0  0  0  # atno 8009 bound_to 7997
  156.1490  140.3139  155.8622 H   0  0  0  0  0  0  0  0  0  0  0  0  # atno 8010 bound_to 7997
  139.5389  144.6711  151.4692 H   0  0  0  0  0  0  0  0  0  0  0  0  # atno 10167 bound_to 10162
  157.1722  130.6764  149.6082 H   0  0  0  0  0  0  0  0  0  0  0  0  # atno 10718 bound_to 10713
  153.2648  135.4219  155.0929 H   0  0  0  0  0  0  0  0  0  0  0  0  # atno 10763 bound_to 10752
  154.8434  135.3457  154.6327 H   0  0  0  0  0  0  0  0  0  0  0  0  # atno 10764 bound_to 10752
  153.6747  135.7042  153.5193 H   0  0  0  0  0  0  0  0  0  0  0  0  # atno 10765 bound_to 10752
  139.9033  134.9594  156.7158 H   0  0  0  0  0  0  0  0  0  0  0  0  # atno 11005 bound_to 11000
  145.0396  140.8935  143.5060 LP  0  0  0  0  0  0  0  0  0  0  0  0  # atno 17320 bound_to 7965
  145.1301  139.2637  143.5544 LP  0  0  0  0  0  0  0  0  0  0  0  0  # atno 17321 bound_to 7965
  140.6609  143.8500  150.6887 LP  0  0  0  0  0  0  0  0  0  0  0  0  # atno 17342 bound_to 10162
  140.1894  143.4049  152.1874 LP  0  0  0  0  0  0  0  0  0  0  0  0  # atno 17343 bound_to 10162
  155.9737  130.4675  150.6327 LP  0  0  0  0  0  0  0  0  0  0  0  0  # atno 17370 bound_to 10713
  157.4033  131.0813  151.1289 LP  0  0  0  0  0  0  0  0  0  0  0  0  # atno 17371 bound_to 10713
  140.7040  133.9282  155.8042 LP  0  0  0  0  0  0  0  0  0  0  0  0  # atno 17394 bound_to 11000
  141.0350  134.0702  157.3969 LP  0  0  0  0  0  0  0  0  0  0  0  0  # atno 17395 bound_to 11000

$$$$
