AV-unprocessed.smi:1672|AV-procd|sdf|6708|dock2
  -GOLD-   22720 7453D 1   1.00000     0.00000
 Structure written by MMmdl.
 49 51  0  0  0  0  0  0  0  0  3 V2000
  143.9700  134.1727  151.5147 C   0  0  0  0  0  0  0  0  0  0  0  0
  145.3274  134.7399  151.0638 C   0  0  2  0  0  0  0  0  0  0  0  0
  146.5212  134.0197  151.7166 C   0  0  0  0  0  0  0  0  0  0  0  0
  146.6960  134.4050  153.1964 C   0  0  0  0  0  0  0  0  0  0  0  0
  146.8268  135.8777  153.3559 N   0  3  2  0  0  0  0  0  0  0  0  0
  147.1223  136.2945  154.7509 C   0  0  0  0  0  0  0  0  0  0  0  0
  147.2755  137.8235  154.8989 C   0  0  1  0  0  0  0  0  0  0  0  0
  147.1943  138.1614  156.2682 O   0  0  0  0  0  0  0  0  0  0  0  0
  148.6182  138.3656  154.3650 C   0  0  0  0  0  0  0  0  0  0  0  0
  148.8872  139.7576  154.7601 N   0  0  0  0  0  0  0  0  0  0  0  0
  148.2153  140.9130  154.4757 C   0  0  0  0  0  0  0  0  0  0  0  0
  146.9769  141.0643  153.6530 C   0  0  0  0  0  0  0  0  0  0  0  0
  147.0246  140.3151  152.4591 O   0  0  0  0  0  0  0  0  0  0  0  0
  148.8841  141.9290  155.0903 N   0  3  0  0  0  0  0  0  0  0  0  0
  150.0022  141.4265  155.7565 C   0  0  0  0  0  0  0  0  0  0  0  0
  150.9805  142.0698  156.5086 C   0  0  0  0  0  0  0  0  0  0  0  0
  151.9993  141.2577  157.0487 C   0  0  0  0  0  0  0  0  0  0  0  0
  152.0197  139.8645  156.8325 C   0  0  0  0  0  0  0  0  0  0  0  0
  151.0211  139.2236  156.0696 C   0  0  0  0  0  0  0  0  0  0  0  0
  150.0153  140.0333  155.5419 C   0  0  0  0  0  0  0  0  0  0  0  0
  145.6524  136.5935  152.7943 C   0  0  0  0  0  0  0  0  0  0  0  0
  145.4508  136.2552  151.3063 C   0  0  0  0  0  0  0  0  0  0  0  0
  143.8022  134.3030  152.5834 H   0  0  0  0  0  0  0  0  0  0  0  0
  143.9014  133.1063  151.2980 H   0  0  0  0  0  0  0  0  0  0  0  0
  143.1496  134.6644  150.9912 H   0  0  0  0  0  0  0  0  0  0  0  0
  145.3894  134.5712  149.9879 H   0  0  0  0  0  0  0  0  0  0  0  0
  146.4092  132.9391  151.6207 H   0  0  0  0  0  0  0  0  0  0  0  0
  147.4327  134.2770  151.1748 H   0  0  0  0  0  0  0  0  0  0  0  0
  145.8513  134.0457  153.7856 H   0  0  0  0  0  0  0  0  0  0  0  0
  147.5799  133.9006  153.5840 H   0  0  0  0  0  0  0  0  0  0  0  0
  146.3182  135.9672  155.4119 H   0  0  0  0  0  0  0  0  0  0  0  0
  148.0218  135.7763  155.0849 H   0  0  0  0  0  0  0  0  0  0  0  0
  146.4635  138.3353  154.3848 H   0  0  0  0  0  0  0  0  0  0  0  0
  146.3692  137.8516  156.6102 H   0  0  0  0  0  0  0  0  0  0  0  0
  149.4506  137.7494  154.7082 H   0  0  0  0  0  0  0  0  0  0  0  0
  148.6342  138.3195  153.2759 H   0  0  0  0  0  0  0  0  0  0  0  0
  146.1150  140.7385  154.2363 H   0  0  0  0  0  0  0  0  0  0  0  0
  146.8182  142.1158  153.4142 H   0  0  0  0  0  0  0  0  0  0  0  0
  147.9311  140.1721  152.2316 H   0  0  0  0  0  0  0  0  0  0  0  0
  150.9698  143.1375  156.6723 H   0  0  0  0  0  0  0  0  0  0  0  0
  152.7824  141.7125  157.6381 H   0  0  0  0  0  0  0  0  0  0  0  0
  152.8190  139.2756  157.2591 H   0  0  0  0  0  0  0  0  0  0  0  0
  151.0498  138.1562  155.9072 H   0  0  0  0  0  0  0  0  0  0  0  0
  144.7604  136.3435  153.3705 H   0  0  0  0  0  0  0  0  0  0  0  0
  145.7975  137.6699  152.8939 H   0  0  0  0  0  0  0  0  0  0  0  0
  146.3004  136.6389  150.7397 H   0  0  0  0  0  0  0  0  0  0  0  0
  144.5724  136.7732  150.9196 H   0  0  0  0  0  0  0  0  0  0  0  0
  147.6211  136.1658  152.8019 H   0  0  0  0  0  0  0  0  0  0  0  0
  148.5966  142.8985  155.0495 H   0  0  0  0  0  0  0  0  0  0  0  0
  1  2  1  0  0  0  0
  1 23  1  0  0  0  0
  1 24  1  0  0  0  0
  1 25  1  0  0  0  0
  2 22  1  0  0  0  0
  2  3  1  0  0  0  0
  2 26  1  0  0  0  0
  3  4  1  0  0  0  0
  3 27  1  0  0  0  0
  3 28  1  0  0  0  0
  4  5  1  0  0  0  0
  4 29  1  0  0  0  0
  4 30  1  0  0  0  0
  5  6  1  0  0  0  0
  5 21  1  0  0  0  0
  5 48  1  0  0  0  0
  6  7  1  0  0  0  0
  6 31  1  0  0  0  0
  6 32  1  0  0  0  0
  7  8  1  0  0  0  0
  7  9  1  0  0  0  0
  7 33  1  0  0  0  0
  8 34  1  0  0  0  0
  9 10  1  0  0  0  0
  9 35  1  0  0  0  0
  9 36  1  0  0  0  0
 10 20  1  0  0  0  0
 10 11  1  0  0  0  0
 11 12  1  0  0  0  0
 11 14  2  0  0  0  0
 12 13  1  0  0  0  0
 12 37  1  0  0  0  0
 12 38  1  0  0  0  0
 13 39  1  0  0  0  0
 14 15  1  0  0  0  0
 14 49  1  0  0  0  0
 15 20  2  0  0  0  0
 15 16  1  0  0  0  0
 16 17  2  0  0  0  0
 16 40  1  0  0  0  0
 17 18  1  0  0  0  0
 17 41  1  0  0  0  0
 18 19  2  0  0  0  0
 18 42  1  0  0  0  0
 19 20  1  0  0  0  0
 19 43  1  0  0  0  0
 21 22  1  0  0  0  0
 21 44  1  0  0  0  0
 21 45  1  0  0  0  0
 22 46  1  0  0  0  0
 22 47  1  0  0  0  0
M  CHG  1   5   1
M  CHG  1  14   1
M  END
> <s_m_source_file>
AV-unprocessed.smi

> <i_m_source_file_index>
1672

> <i_lp_mmshare_version>
43012

> <i_f3d_flags>
0

> <s_epik_input>
W0NIM11bQ0hdMVtDSDJdW0NIMl1OKFtDSDJdW0NIMl0xKVtDSDJdW0NASF0oW09IXSlbQ0gyXW4oYyhuMilbQ0gyXVtPSF0pYyhjMjMpW2NIXVtjSF1bY0hdW2NIXTM=

> <s_epik_cmdline>
J2VwaWtfcHl0aG9uJywgJy1waCcsICc3LjAnLCAnLXRuJywgJzgnLCAnLW1hJywgJzIwMCcsICctbWV0YWxfYmluZGluZycsICctaW1hZScsICc8aW5maWxlLm1hZT4nLCAnLW9tYWUnLCAnPG91dGZpbGUubWFlPic=

> <r_epik_Ionization_Penalty>
1.51642

> <r_epik_Ionization_Penalty_Charging>
1.51557

> <r_epik_Ionization_Penalty_Neutral>
0.000856474

> <r_epik_State_Penalty>
1.6048

> <r_epik_Charging_Adjusted_Penalty>
3.12037

> <i_epik_Tot_Q>
2

> <i_epik_Tot_abs_Q>
2

> <r_epik_Metal_State_Penalty>
5.65673

> <b_epik_Metal_Only>
0

> <s_lp_Force_Field>
OPLS_2005

> <r_lp_Energy>
31.8272

> <b_lp_Chiralities_Consistent>
1

> <s_lp_Variant>
AV-unprocessed.smi:1672-8

> <Gold.Version>
5.8.1

> <Gold.Id.Protein>
6NUR|6NUR_protein|mol2

> <Gold.PLP.Fitness>
47.7731

> <Gold.PLP.PLP>
-33.4985

> <Gold.PLP.part.hbond>
-3.0000

> <Gold.PLP.part.metal>
0.0000

> <Gold.PLP.part.buried>
-5.0451

> <Gold.PLP.part.nonpolar>
-25.9053

> <Gold.PLP.part.repulsive>
0.1910

> <Gold.PLP.ligand.clash>
0.0000

> <Gold.PLP.ligand.torsion>
0.4095

> <Gold.PLP.Chemscore.Hbond>
4.9840

> <Gold.PLP.Chemscore.CHOScore>
0.0000

> <Gold.PLP.Chemscore.Metal>
0.0000

> <Gold.Chemscore.Hbonds>
donor molecule, donor type, donor heavy atom, donor atom, acceptor molecule, acceptor atom, score
      L1  H     5    48       P1  7948  2.00
      L1  H    13    39       P1  7957  1.00
      L1  H    14    49       P1  8028  1.95

> <Gold.PLP.Chemscore.Internal.Correction>
0.1416

> <Gold.Rescore>
     Score         DG    S(hbond)    S(metal)    S(lipo)     H(rot)  DE(clash)    DE(int)     intcor
     16.38     -16.80       2.92        0.00      78.14       2.96       0.09       0.33       ----

> <Gold.Chemscore.Fitness>
16.3780

> <Gold.Chemscore.DG>
-16.7983

> <Gold.Chemscore.ZeroCoef>
-5.4800

> <Gold.Chemscore.Hbond>
2.9168

> <Gold.Chemscore.Metal>
0.0000

> <Gold.Chemscore.Lipo>
78.1393

> <Gold.Chemscore.Internal_Hbond>
0.0000

> <Gold.Chemscore.DEClash>
0.0934

> <Gold.Chemscore.DEInternal>
0.3269

> <Gold.Chemscore.Rot>
2.9555

> <Gold.Chemscore.Internal.Correction>
   9.000000E+99

> <Gold.Chemscore.Hbonds>
donor molecule, donor type, donor heavy atom, donor atom, acceptor molecule, acceptor atom, score
      L1  H     5    48       P1  7948  0.99
      L1  H    13    39       P1  7957  0.97
      L1  H    14    49       P1  8028  0.93

> <Gold.Chemscore.Hbond.Weighted>
-9.7420

> <Gold.Chemscore.Metal.Weighted>
-0.0000

> <Gold.Chemscore.Lipo.Weighted>
-9.1423

> <Gold.Chemscore.Internal_Hbond.Weighted>
0.0000

> <Gold.Chemscore.DEClash.Weighted>
0.0934

> <Gold.Chemscore.DEInternal.Weighted>
0.3269

> <Gold.Chemscore.Rot.Weighted>
7.5660

> <Gold.Chemscore.Internal.Correction.Weighted>
   9.000000E+99

> <Gold.Protein.RotatedTorsions>
[ 6907 6896 6895 6894 ] final  151.05 input  -60.11 | X-H torsion
[ 7974 7965 7964 7962 ] final  165.47 input  175.53 | X-H torsion
[ 8008 7997 7996 7995 ] final   27.49 input   59.86 | X-H torsion
[ 10167 10162 10161 10158 ] final -166.27 input  -65.29 | X-H torsion
[ 10718 10713 10712 10709 ] final  -13.93 input   66.30 | X-H torsion
[ 10763 10752 10751 10750 ] final   85.44 input  -60.55 | X-H torsion
[ 11005 11000 10999 10996 ] final  -87.51 input  -57.11 | X-H torsion

> <Gold.Protein.ActiveResidues>
 VAL166  LYS551  ARG553  GLY616  TRP617  ASP618  TYR619  PRO620  LYS621  CYS622 
 ASP623  PHE694  ASN695  SER759  ASP760  ASP761  ALA762  ILE779  LEU786  VAL792 
 PHE793  MET794  SER795  GLU796  ALA797  LYS798  CYS799  TRP800  GLU811  SER814 

> <Gold.Protein.RotatedAtoms>
  152.1059  133.4275  159.4608 H   0  0  0  0  0  0  0  0  0  0  0  0  # atno 6907 bound_to 6896
  150.6865  134.2705  159.4595 H   0  0  0  0  0  0  0  0  0  0  0  0  # atno 6908 bound_to 6896
  152.0570  134.9618  160.0625 H   0  0  0  0  0  0  0  0  0  0  0  0  # atno 6909 bound_to 6896
  144.7501  139.8475  143.6369 H   0  0  0  0  0  0  0  0  0  0  0  0  # atno 7974 bound_to 7965
  155.0437  140.3172  155.4715 H   0  0  0  0  0  0  0  0  0  0  0  0  # atno 8008 bound_to 7997
  156.2849  140.2158  156.5505 H   0  0  0  0  0  0  0  0  0  0  0  0  # atno 8009 bound_to 7997
  154.7268  140.0485  157.0678 H   0  0  0  0  0  0  0  0  0  0  0  0  # atno 8010 bound_to 7997
  139.6126  144.0784  152.1857 H   0  0  0  0  0  0  0  0  0  0  0  0  # atno 10167 bound_to 10162
  156.6231  130.4881  149.6157 H   0  0  0  0  0  0  0  0  0  0  0  0  # atno 10718 bound_to 10713
  153.1475  135.4617  154.9587 H   0  0  0  0  0  0  0  0  0  0  0  0  # atno 10763 bound_to 10752
  154.7798  135.3184  154.8017 H   0  0  0  0  0  0  0  0  0  0  0  0  # atno 10764 bound_to 10752
  153.8528  135.6920  153.4845 H   0  0  0  0  0  0  0  0  0  0  0  0  # atno 10765 bound_to 10752
  141.1616  133.7516  156.9317 H   0  0  0  0  0  0  0  0  0  0  0  0  # atno 11005 bound_to 11000
  146.1439  139.4504  143.0091 LP  0  0  0  0  0  0  0  0  0  0  0  0  # atno 17320 bound_to 7965
  145.6975  141.0146  143.1522 LP  0  0  0  0  0  0  0  0  0  0  0  0  # atno 17321 bound_to 7965
  140.0406  144.6010  150.7414 LP  0  0  0  0  0  0  0  0  0  0  0  0  # atno 17342 bound_to 10162
  140.7329  143.2711  151.3885 LP  0  0  0  0  0  0  0  0  0  0  0  0  # atno 17343 bound_to 10162
  156.2295  130.6786  151.1449 LP  0  0  0  0  0  0  0  0  0  0  0  0  # atno 17370 bound_to 10713
  157.7222  131.0674  150.6088 LP  0  0  0  0  0  0  0  0  0  0  0  0  # atno 17371 bound_to 10713
  140.1382  134.9311  157.2430 LP  0  0  0  0  0  0  0  0  0  0  0  0  # atno 17394 bound_to 11000
  140.2870  134.3285  155.7326 LP  0  0  0  0  0  0  0  0  0  0  0  0  # atno 17395 bound_to 11000

$$$$
