AV-unprocessed.smi:2213|AV-procd|sdf|8956|dock2
  -GOLD-   2272012173D 1   1.00000     0.00000
 Structure written by MMmdl.
 38 39  0  0  0  0  0  0  0  0  1 V2000
  144.2008  144.6547  154.4033 C   0  0  0  0  0  0  0  0  0  0  0  0
  145.1428  143.4655  154.4668 C   0  0  0  0  0  0  0  0  0  0  0  0
  146.3049  143.5738  153.6973 N   0  0  0  0  0  0  0  0  0  0  0  0
  147.1620  142.6060  153.6839 C   0  0  0  0  0  0  0  0  0  0  0  0
  146.9613  141.4326  154.4289 N   0  0  0  0  0  0  0  0  0  0  0  0
  148.0098  140.4044  154.3208 C   0  0  0  0  0  0  0  0  0  0  0  0
  149.4316  141.0062  154.3893 C   0  0  2  0  0  0  0  0  0  0  0  0
  150.4052  139.9991  154.1989 O   0  0  0  0  0  0  0  0  0  0  0  0
  149.7283  141.6959  155.7320 C   0  0  0  0  0  0  0  0  0  0  0  0
  150.5119  140.8371  156.5514 O   0  0  0  0  0  0  0  0  0  0  0  0
  151.2005  141.3845  157.6135 C   0  0  0  0  0  0  0  0  0  0  0  0
  151.2644  142.7755  157.8828 C   0  0  0  0  0  0  0  0  0  0  0  0
  151.9924  143.2573  158.9883 C   0  0  0  0  0  0  0  0  0  0  0  0
  152.0615  144.9525  159.3020 Cl  0  0  0  0  0  0  0  0  0  0  0  0
  152.6637  142.3585  159.8376 C   0  0  0  0  0  0  0  0  0  0  0  0
  152.6051  140.9768  159.5804 C   0  0  0  0  0  0  0  0  0  0  0  0
  151.8775  140.4929  158.4755 C   0  0  0  0  0  0  0  0  0  0  0  0
  151.8198  138.7912  158.1830 Cl  0  0  0  0  0  0  0  0  0  0  0  0
  145.8627  141.2511  155.2175 C   0  0  0  0  0  0  0  0  0  0  0  0
  145.7069  140.2256  155.8831 O   0  0  0  0  0  0  0  0  0  0  0  0
  144.8918  142.3574  155.2162 C   0  0  0  0  0  0  0  0  0  0  0  0
  143.6438  142.1834  156.0726 C   0  0  0  0  0  0  0  0  0  0  0  0
  143.2339  144.3539  153.9992 H   0  0  0  0  0  0  0  0  0  0  0  0
  144.5991  145.4431  153.7633 H   0  0  0  0  0  0  0  0  0  0  0  0
  144.0490  145.0765  155.3970 H   0  0  0  0  0  0  0  0  0  0  0  0
  148.0850  142.6422  153.1027 H   0  0  0  0  0  0  0  0  0  0  0  0
  147.8804  139.6956  155.1411 H   0  0  0  0  0  0  0  0  0  0  0  0
  147.8966  139.7949  153.4214 H   0  0  0  0  0  0  0  0  0  0  0  0
  149.5703  141.7449  153.5991 H   0  0  0  0  0  0  0  0  0  0  0  0
  149.9646  139.1694  154.0971 H   0  0  0  0  0  0  0  0  0  0  0  0
  150.2293  142.6515  155.5670 H   0  0  0  0  0  0  0  0  0  0  0  0
  148.7826  141.9002  156.2368 H   0  0  0  0  0  0  0  0  0  0  0  0
  150.7615  143.4947  157.2545 H   0  0  0  0  0  0  0  0  0  0  0  0
  153.2225  142.7263  160.6857 H   0  0  0  0  0  0  0  0  0  0  0  0
  153.1198  140.2869  160.2329 H   0  0  0  0  0  0  0  0  0  0  0  0
  143.9213  142.0573  157.1195 H   0  0  0  0  0  0  0  0  0  0  0  0
  143.0925  141.2964  155.7590 H   0  0  0  0  0  0  0  0  0  0  0  0
  142.9613  143.0296  156.0148 H   0  0  0  0  0  0  0  0  0  0  0  0
  1  2  1  0  0  0  0
  1 23  1  0  0  0  0
  1 24  1  0  0  0  0
  1 25  1  0  0  0  0
  2 21  2  0  0  0  0
  2  3  1  0  0  0  0
  3  4  2  0  0  0  0
  4  5  1  0  0  0  0
  4 26  1  0  0  0  0
  5  6  1  0  0  0  0
  5 19  1  0  0  0  0
  6  7  1  0  0  0  0
  6 27  1  0  0  0  0
  6 28  1  0  0  0  0
  7  8  1  0  0  0  0
  7  9  1  0  0  0  0
  7 29  1  0  0  0  0
  8 30  1  0  0  0  0
  9 10  1  0  0  0  0
  9 31  1  0  0  0  0
  9 32  1  0  0  0  0
 10 11  1  0  0  0  0
 11 17  1  0  0  0  0
 11 12  2  0  0  0  0
 12 13  1  0  0  0  0
 12 33  1  0  0  0  0
 13 14  1  0  0  0  0
 13 15  2  0  0  0  0
 15 16  1  0  0  0  0
 15 34  1  0  0  0  0
 16 17  2  0  0  0  0
 16 35  1  0  0  0  0
 17 18  1  0  0  0  0
 19 20  2  0  0  0  0
 19 21  1  0  0  0  0
 21 22  1  0  0  0  0
 22 36  1  0  0  0  0
 22 37  1  0  0  0  0
 22 38  1  0  0  0  0
M  END
> <s_m_source_file>
AV-unprocessed.smi

> <i_m_source_file_index>
2213

> <i_lp_mmshare_version>
43012

> <i_f3d_flags>
0

> <s_epik_input>
W0NIM11jMW5bY0hdbihjKD1PKWMxW0NIM10pW0NIMl1bQ0BIXShbT0hdKVtDSDJdT2MyW2NIXWMoQ2wpW2NIXVtjSF1jMkNs

> <s_epik_cmdline>
J2VwaWtfcHl0aG9uJywgJy1waCcsICc3LjAnLCAnLXRuJywgJzgnLCAnLW1hJywgJzIwMCcsICctbWV0YWxfYmluZGluZycsICctaW1hZScsICc8aW5maWxlLm1hZT4nLCAnLW9tYWUnLCAnPG91dGZpbGUubWFlPic=

> <r_lp_tautomer_probability>
1

> <r_epik_Ionization_Penalty>
3.50205e-05

> <r_epik_Ionization_Penalty_Charging>
7.87908e-08

> <r_epik_Ionization_Penalty_Neutral>
3.49418e-05

> <r_epik_State_Penalty>
-0

> <r_epik_Charging_Adjusted_Penalty>
7.87908e-08

> <i_epik_Tot_Q>
0

> <i_epik_Tot_abs_Q>
0

> <r_epik_Metal_State_Penalty>
-0

> <b_epik_Metal_Only>
0

> <s_lp_Force_Field>
OPLS_2005

> <r_lp_Energy>
24.8727

> <b_lp_Chiralities_Consistent>
1

> <s_lp_Variant>
AV-unprocessed.smi:2213-1

> <Gold.Version>
5.8.1

> <Gold.Id.Protein>
6NUR|6NUR_protein|mol2

> <Gold.PLP.Fitness>
45.1489

> <Gold.PLP.PLP>
-43.8142

> <Gold.PLP.part.hbond>
-2.4984

> <Gold.PLP.part.metal>
0.0000

> <Gold.PLP.part.buried>
-5.2543

> <Gold.PLP.part.nonpolar>
-36.8229

> <Gold.PLP.part.repulsive>
0.2997

> <Gold.PLP.ligand.clash>
0.0168

> <Gold.PLP.ligand.torsion>
0.8837

> <Gold.PLP.Chemscore.Hbond>
1.0000

> <Gold.PLP.Chemscore.CHOScore>
0.0000

> <Gold.PLP.Chemscore.Metal>
0.0000

> <Gold.Chemscore.Hbonds>
donor molecule, donor type, donor heavy atom, donor atom, acceptor molecule, acceptor atom, score
      P1  H  7989  7998       L1     8  1.00

> <Gold.PLP.Chemscore.Internal.Correction>
0.1188

> <Gold.Rescore>
     Score         DG    S(hbond)    S(metal)    S(lipo)     H(rot)  DE(clash)    DE(int)     intcor
     13.75     -14.92       0.85        0.00     108.48       2.38       0.32       0.86       ----

> <Gold.Chemscore.Fitness>
13.7489

> <Gold.Chemscore.DG>
-14.9247

> <Gold.Chemscore.ZeroCoef>
-5.4800

> <Gold.Chemscore.Hbond>
0.8538

> <Gold.Chemscore.Metal>
0.0000

> <Gold.Chemscore.Lipo>
108.4841

> <Gold.Chemscore.Internal_Hbond>
0.0000

> <Gold.Chemscore.DEClash>
0.3193

> <Gold.Chemscore.DEInternal>
0.8564

> <Gold.Chemscore.Rot>
2.3826

> <Gold.Chemscore.Internal.Correction>
   9.000000E+99

> <Gold.Chemscore.Hbonds>
donor molecule, donor type, donor heavy atom, donor atom, acceptor molecule, acceptor atom, score
      P1  H  7989  7998       L1     8  0.30

> <Gold.Chemscore.Hbond.Weighted>
-2.8516

> <Gold.Chemscore.Metal.Weighted>
-0.0000

> <Gold.Chemscore.Lipo.Weighted>
-12.6926

> <Gold.Chemscore.Internal_Hbond.Weighted>
0.0000

> <Gold.Chemscore.DEClash.Weighted>
0.3193

> <Gold.Chemscore.DEInternal.Weighted>
0.8564

> <Gold.Chemscore.Rot.Weighted>
6.0996

> <Gold.Chemscore.Internal.Correction.Weighted>
   9.000000E+99

> <Gold.Protein.RotatedTorsions>
[ 6907 6896 6895 6894 ] final  164.41 input  -60.11 | X-H torsion
[ 7974 7965 7964 7962 ] final   11.28 input  175.53 | X-H torsion
[ 8008 7997 7996 7995 ] final   28.77 input   59.86 | X-H torsion
[ 10167 10162 10161 10158 ] final    7.82 input  -65.29 | X-H torsion
[ 10718 10713 10712 10709 ] final  -66.56 input   66.30 | X-H torsion
[ 10763 10752 10751 10750 ] final   83.11 input  -60.55 | X-H torsion
[ 11005 11000 10999 10996 ] final -100.71 input  -57.11 | X-H torsion

> <Gold.Protein.ActiveResidues>
 VAL166  LYS551  ARG553  GLY616  TRP617  ASP618  TYR619  PRO620  LYS621  CYS622 
 ASP623  PHE694  ASN695  SER759  ASP760  ASP761  ALA762  ILE779  LEU786  VAL792 
 PHE793  MET794  SER795  GLU796  ALA797  LYS798  CYS799  TRP800  GLU811  SER814 

> <Gold.Protein.RotatedAtoms>
  151.9102  133.3559  159.3860 H   0  0  0  0  0  0  0  0  0  0  0  0  # atno 6907 bound_to 6896
  150.7060  134.4739  159.5448 H   0  0  0  0  0  0  0  0  0  0  0  0  # atno 6908 bound_to 6896
  152.2344  134.8290  160.0520 H   0  0  0  0  0  0  0  0  0  0  0  0  # atno 6909 bound_to 6896
  146.2374  139.9509  142.8470 H   0  0  0  0  0  0  0  0  0  0  0  0  # atno 7974 bound_to 7965
  155.0640  140.3193  155.4651 H   0  0  0  0  0  0  0  0  0  0  0  0  # atno 8008 bound_to 7997
  156.2806  140.2124  156.5711 H   0  0  0  0  0  0  0  0  0  0  0  0  # atno 8009 bound_to 7997
  154.7109  140.0498  157.0536 H   0  0  0  0  0  0  0  0  0  0  0  0  # atno 8010 bound_to 7997
  140.6350  143.7907  150.7347 H   0  0  0  0  0  0  0  0  0  0  0  0  # atno 10167 bound_to 10162
  156.0606  130.4264  150.1726 H   0  0  0  0  0  0  0  0  0  0  0  0  # atno 10718 bound_to 10713
  153.1262  135.4703  154.9276 H   0  0  0  0  0  0  0  0  0  0  0  0  # atno 10763 bound_to 10752
  154.7622  135.3135  154.8358 H   0  0  0  0  0  0  0  0  0  0  0  0  # atno 10764 bound_to 10752
  153.8910  135.6884  153.4814 H   0  0  0  0  0  0  0  0  0  0  0  0  # atno 10765 bound_to 10752
  141.1260  133.8421  157.1138 H   0  0  0  0  0  0  0  0  0  0  0  0  # atno 11005 bound_to 11000
  145.1862  140.9790  143.4237 LP  0  0  0  0  0  0  0  0  0  0  0  0  # atno 17320 bound_to 7965
  144.9898  139.3701  143.6220 LP  0  0  0  0  0  0  0  0  0  0  0  0  # atno 17321 bound_to 7965
  140.1526  143.4344  152.2121 LP  0  0  0  0  0  0  0  0  0  0  0  0  # atno 17342 bound_to 10162
  139.5561  144.7374  151.4290 LP  0  0  0  0  0  0  0  0  0  0  0  0  # atno 17343 bound_to 10162
  156.9795  130.9860  151.3440 LP  0  0  0  0  0  0  0  0  0  0  0  0  # atno 17370 bound_to 10713
  157.5611  130.8246  149.8267 LP  0  0  0  0  0  0  0  0  0  0  0  0  # atno 17371 bound_to 10713
  140.0259  134.9924  157.0684 LP  0  0  0  0  0  0  0  0  0  0  0  0  # atno 17394 bound_to 11000
  140.4364  134.1727  155.7171 LP  0  0  0  0  0  0  0  0  0  0  0  0  # atno 17395 bound_to 11000

$$$$
