AV-unprocessed.smi:921|AV-procd|sdf|4170|dock7
  -GOLD-   22720 2 73D 1   1.00000     0.00000
 Structure written by MMmdl.
 39 41  0  0  0  0  0  0  0  0  1 V2000
  152.5455  137.3471  156.8823 N   0  0  0  0  0  0  0  0  0  0  0  0
  152.3917  138.0574  155.7615 C   0  0  0  0  0  0  0  0  0  0  0  0
  152.2269  137.5236  154.6663 O   0  0  0  0  0  0  0  0  0  0  0  0
  152.4247  139.5855  155.8909 C   0  0  0  0  0  0  0  0  0  0  0  0
  151.0594  140.1487  155.5795 C   0  0  0  0  0  0  0  0  0  0  0  0
  150.5026  140.0202  154.3706 N   0  0  0  0  0  0  0  0  0  0  0  0
  149.2869  140.6555  154.5176 C   0  0  0  0  0  0  0  0  0  0  0  0
  148.2315  140.8446  153.5967 C   0  0  0  0  0  0  0  0  0  0  0  0
  147.0658  141.5394  153.9803 C   0  0  0  0  0  0  0  0  0  0  0  0
  146.9400  142.0554  155.2862 C   0  0  0  0  0  0  0  0  0  0  0  0
  147.9811  141.8795  156.2179 C   0  0  0  0  0  0  0  0  0  0  0  0
  149.1420  141.1831  155.8302 C   0  0  0  0  0  0  0  0  0  0  0  0
  150.3224  140.8470  156.4859 N   0  0  0  0  0  0  0  0  0  0  0  0
  150.6447  141.2056  157.8618 C   0  0  0  0  0  0  0  0  0  0  0  0
  151.7585  142.2676  157.9569 C   0  0  1  0  0  0  0  0  0  0  0  0
  151.3359  143.4829  157.3733 O   0  0  0  0  0  0  0  0  0  0  0  0
  152.2356  142.4521  159.3907 C   0  0  0  0  0  0  0  0  0  0  0  0
  153.0856  141.4850  159.9701 C   0  0  0  0  0  0  0  0  0  0  0  0
  153.5348  141.6339  161.2962 C   0  0  0  0  0  0  0  0  0  0  0  0
  154.3499  140.7012  161.8430 F   0  0  0  0  0  0  0  0  0  0  0  0
  153.1361  142.7513  162.0537 C   0  0  0  0  0  0  0  0  0  0  0  0
  152.2855  143.7178  161.4844 C   0  0  0  0  0  0  0  0  0  0  0  0
  151.8337  143.5706  160.1583 C   0  0  0  0  0  0  0  0  0  0  0  0
  151.0094  144.5079  159.6317 F   0  0  0  0  0  0  0  0  0  0  0  0
  152.5385  136.3383  156.8401 H   0  0  0  0  0  0  0  0  0  0  0  0
  152.6765  137.8192  157.7652 H   0  0  0  0  0  0  0  0  0  0  0  0
  152.7475  139.8303  156.9007 H   0  0  0  0  0  0  0  0  0  0  0  0
  153.1540  140.0186  155.2052 H   0  0  0  0  0  0  0  0  0  0  0  0
  148.3191  140.4531  152.5941 H   0  0  0  0  0  0  0  0  0  0  0  0
  146.2647  141.6771  153.2690 H   0  0  0  0  0  0  0  0  0  0  0  0
  146.0442  142.5867  155.5725 H   0  0  0  0  0  0  0  0  0  0  0  0
  147.8875  142.2741  157.2187 H   0  0  0  0  0  0  0  0  0  0  0  0
  149.7432  141.5174  158.3870 H   0  0  0  0  0  0  0  0  0  0  0  0
  150.9712  140.2978  158.3707 H   0  0  0  0  0  0  0  0  0  0  0  0
  152.6052  141.9260  157.3601 H   0  0  0  0  0  0  0  0  0  0  0  0
  151.4431  144.1758  158.0068 H   0  0  0  0  0  0  0  0  0  0  0  0
  153.3968  140.6221  159.3995 H   0  0  0  0  0  0  0  0  0  0  0  0
  153.4809  142.8658  163.0708 H   0  0  0  0  0  0  0  0  0  0  0  0
  151.9771  144.5737  162.0663 H   0  0  0  0  0  0  0  0  0  0  0  0
  1  2  1  0  0  0  0
  1 25  1  0  0  0  0
  1 26  1  0  0  0  0
  2  3  2  0  0  0  0
  2  4  1  0  0  0  0
  4  5  1  0  0  0  0
  4 27  1  0  0  0  0
  4 28  1  0  0  0  0
  5 13  1  0  0  0  0
  5  6  2  0  0  0  0
  6  7  1  0  0  0  0
  7 12  2  0  0  0  0
  7  8  1  0  0  0  0
  8  9  2  0  0  0  0
  8 29  1  0  0  0  0
  9 10  1  0  0  0  0
  9 30  1  0  0  0  0
 10 11  2  0  0  0  0
 10 31  1  0  0  0  0
 11 12  1  0  0  0  0
 11 32  1  0  0  0  0
 12 13  1  0  0  0  0
 13 14  1  0  0  0  0
 14 15  1  0  0  0  0
 14 33  1  0  0  0  0
 14 34  1  0  0  0  0
 15 16  1  0  0  0  0
 15 17  1  0  0  0  0
 15 35  1  0  0  0  0
 16 36  1  0  0  0  0
 17 23  1  0  0  0  0
 17 18  2  0  0  0  0
 18 19  1  0  0  0  0
 18 37  1  0  0  0  0
 19 20  1  0  0  0  0
 19 21  2  0  0  0  0
 21 22  1  0  0  0  0
 21 38  1  0  0  0  0
 22 23  2  0  0  0  0
 22 39  1  0  0  0  0
 23 24  1  0  0  0  0
M  END
> <s_m_source_file>
AV-unprocessed.smi

> <i_m_source_file_index>
921

> <i_lp_mmshare_version>
43012

> <i_f3d_flags>
0

> <s_epik_input>
W2NIXTFbY0hdW2NIXVtjSF1jKGMxMiluKGMobjIpW0NIMl1DKD1PKVtOSDJdKVtDSDJdW0NASF0oW09IXSljM1tjSF1jKEYpW2NIXVtjSF1jM0Y=

> <s_epik_cmdline>
J2VwaWtfcHl0aG9uJywgJy1waCcsICc3LjAnLCAnLXRuJywgJzgnLCAnLW1hJywgJzIwMCcsICctbWV0YWxfYmluZGluZycsICctaW1hZScsICc8aW5maWxlLm1hZT4nLCAnLW9tYWUnLCAnPG91dGZpbGUubWFlPic=

> <r_epik_Ionization_Penalty>
0.0366909

> <r_epik_Ionization_Penalty_Charging>
0

> <r_epik_Ionization_Penalty_Neutral>
0.0366909

> <r_epik_State_Penalty>
0.0306642

> <r_epik_Charging_Adjusted_Penalty>
0.0306642

> <i_epik_Tot_Q>
0

> <i_epik_Tot_abs_Q>
0

> <r_epik_Metal_State_Penalty>
0.028853

> <b_epik_Metal_Only>
0

> <s_lp_Force_Field>
OPLS_2005

> <r_lp_Energy>
12.6205

> <b_lp_Chiralities_Consistent>
1

> <s_lp_Variant>
AV-unprocessed.smi:921-2

> <Gold.Version>
5.8.1

> <Gold.Id.Protein>
6NUR|6NUR_protein|mol2

> <Gold.PLP.Fitness>
57.7440

> <Gold.PLP.PLP>
-53.9045

> <Gold.PLP.part.hbond>
-2.5584

> <Gold.PLP.part.metal>
0.0000

> <Gold.PLP.part.buried>
-2.5967

> <Gold.PLP.part.nonpolar>
-49.2914

> <Gold.PLP.part.repulsive>
0.3401

> <Gold.PLP.ligand.clash>
0.0000

> <Gold.PLP.ligand.torsion>
0.6985

> <Gold.PLP.Chemscore.Hbond>
1.7137

> <Gold.PLP.Chemscore.CHOScore>
0.0000

> <Gold.PLP.Chemscore.Metal>
0.0000

> <Gold.Chemscore.Hbonds>
donor molecule, donor type, donor heavy atom, donor atom, acceptor molecule, acceptor atom, score
      P1  H  7989  7998       L1     6  0.95
      P1  H 10752 10763       L1     3  0.74

> <Gold.PLP.Chemscore.Internal.Correction>
0.0954

> <Gold.Rescore>
     Score         DG    S(hbond)    S(metal)    S(lipo)     H(rot)  DE(clash)    DE(int)     intcor
     12.09     -14.98       1.10        0.00     117.91       3.11       0.27       2.62       ----

> <Gold.Chemscore.Fitness>
12.0946

> <Gold.Chemscore.DG>
-14.9814

> <Gold.Chemscore.ZeroCoef>
-5.4800

> <Gold.Chemscore.Hbond>
1.0998

> <Gold.Chemscore.Metal>
0.0000

> <Gold.Chemscore.Lipo>
117.9073

> <Gold.Chemscore.Internal_Hbond>
0.0000

> <Gold.Chemscore.DEClash>
0.2699

> <Gold.Chemscore.DEInternal>
2.6169

> <Gold.Chemscore.Rot>
3.1121

> <Gold.Chemscore.Internal.Correction>
   9.000000E+99

> <Gold.Chemscore.Hbonds>
donor molecule, donor type, donor heavy atom, donor atom, acceptor molecule, acceptor atom, score
      P1  H  7989  7998       L1     6  0.19
      P1  H 10752 10763       L1     3  0.68

> <Gold.Chemscore.Hbond.Weighted>
-3.6732

> <Gold.Chemscore.Metal.Weighted>
-0.0000

> <Gold.Chemscore.Lipo.Weighted>
-13.7952

> <Gold.Chemscore.Internal_Hbond.Weighted>
0.0000

> <Gold.Chemscore.DEClash.Weighted>
0.2699

> <Gold.Chemscore.DEInternal.Weighted>
2.6169

> <Gold.Chemscore.Rot.Weighted>
7.9670

> <Gold.Chemscore.Internal.Correction.Weighted>
   9.000000E+99

> <Gold.Protein.RotatedTorsions>
[ 6907 6896 6895 6894 ] final  -16.26 input  -60.11 | X-H torsion
[ 7974 7965 7964 7962 ] final  -51.44 input  175.53 | X-H torsion
[ 8008 7997 7996 7995 ] final   48.43 input   59.86 | X-H torsion
[ 10167 10162 10161 10158 ] final -141.28 input  -65.29 | X-H torsion
[ 10718 10713 10712 10709 ] final -115.32 input   66.30 | X-H torsion
[ 10763 10752 10751 10750 ] final   45.49 input  -60.55 | X-H torsion
[ 11005 11000 10999 10996 ] final  137.49 input  -57.11 | X-H torsion

> <Gold.Protein.ActiveResidues>
 VAL166  LYS551  ARG553  GLY616  TRP617  ASP618  TYR619  PRO620  LYS621  CYS622 
 ASP623  PHE694  ASN695  SER759  ASP760  ASP761  ALA762  ILE779  LEU786  VAL792 
 PHE793  MET794  SER795  GLU796  ALA797  LYS798  CYS799  TRP800  GLU811  SER814 

> <Gold.Protein.RotatedAtoms>
  151.3114  135.0795  159.9273 H   0  0  0  0  0  0  0  0  0  0  0  0  # atno 6907 bound_to 6896
  152.5277  133.9732  159.7782 H   0  0  0  0  0  0  0  0  0  0  0  0  # atno 6908 bound_to 6896
  151.0036  133.5980  159.2722 H   0  0  0  0  0  0  0  0  0  0  0  0  # atno 6909 bound_to 6896
  145.9189  140.7850  142.9657 H   0  0  0  0  0  0  0  0  0  0  0  0  # atno 7974 bound_to 7965
  155.3856  140.3431  155.4249 H   0  0  0  0  0  0  0  0  0  0  0  0  # atno 8008 bound_to 7997
  156.1586  140.1593  156.8683 H   0  0  0  0  0  0  0  0  0  0  0  0  # atno 8009 bound_to 7997
  154.5118  140.0788  156.7987 H   0  0  0  0  0  0  0  0  0  0  0  0  # atno 8010 bound_to 7997
  139.8199  143.7587  152.2666 H   0  0  0  0  0  0  0  0  0  0  0  0  # atno 10167 bound_to 10162
  156.0888  130.6074  150.8890 H   0  0  0  0  0  0  0  0  0  0  0  0  # atno 10718 bound_to 10713
  152.9824  135.6038  154.3445 H   0  0  0  0  0  0  0  0  0  0  0  0  # atno 10763 bound_to 10752
  154.3139  135.2770  155.2554 H   0  0  0  0  0  0  0  0  0  0  0  0  # atno 10764 bound_to 10752
  154.4751  135.5931  153.6405 H   0  0  0  0  0  0  0  0  0  0  0  0  # atno 10765 bound_to 10752
  140.0118  134.9435  157.0293 H   0  0  0  0  0  0  0  0  0  0  0  0  # atno 11005 bound_to 11000
  144.6751  140.1945  143.7393 LP  0  0  0  0  0  0  0  0  0  0  0  0  # atno 17320 bound_to 7965
  145.8575  139.2206  143.1736 LP  0  0  0  0  0  0  0  0  0  0  0  0  # atno 17321 bound_to 7965
  139.7763  144.7460  151.0153 LP  0  0  0  0  0  0  0  0  0  0  0  0  # atno 17342 bound_to 10162
  140.7814  143.4591  151.0304 LP  0  0  0  0  0  0  0  0  0  0  0  0  # atno 17343 bound_to 10162
  157.6031  131.0940  150.8927 LP  0  0  0  0  0  0  0  0  0  0  0  0  # atno 17370 bound_to 10713
  156.9080  130.5270  149.5281 LP  0  0  0  0  0  0  0  0  0  0  0  0  # atno 17371 bound_to 10713
  140.4541  134.1552  155.7184 LP  0  0  0  0  0  0  0  0  0  0  0  0  # atno 17394 bound_to 11000
  141.1716  133.8597  157.1553 LP  0  0  0  0  0  0  0  0  0  0  0  0  # atno 17395 bound_to 11000

$$$$
