AV-unprocessed.smi:1697|AV-procd|sdf|6804|dock3
  -GOLD-   22720 7573D 1   1.00000     0.00000
 Structure written by MMmdl.
 54 56  0  0  0  0  0  0  0  0  2 V2000
  146.4077  129.2855  151.4391 C   0  0  0  0  0  0  0  0  0  0  0  0
  146.1178  130.6411  152.0984 C   0  0  0  0  0  0  0  0  0  0  0  0
  146.0681  131.7002  151.1502 O   0  0  0  0  0  0  0  0  0  0  0  0
  145.5805  132.9404  151.6470 C   0  0  2  0  0  0  0  0  0  0  0  0
  145.6716  133.9838  150.5247 C   0  0  0  0  0  0  0  0  0  0  0  0
  145.2888  135.3820  151.0388 C   0  0  0  0  0  0  0  0  0  0  0  0
  146.1384  135.7814  152.1906 N   0  3  1  0  0  0  0  0  0  0  0  0
  145.8865  137.1801  152.6232 C   0  0  0  0  0  0  0  0  0  0  0  0
  147.1888  137.9910  152.7684 C   0  0  1  0  0  0  0  0  0  0  0  0
  147.4065  138.7236  151.5774 O   0  0  0  0  0  0  0  0  0  0  0  0
  147.1343  138.9642  153.9613 C   0  0  0  0  0  0  0  0  0  0  0  0
  148.4555  139.4037  154.3718 N   0  0  0  0  0  0  0  0  0  0  0  0
  149.6366  139.0806  153.8105 C   0  0  0  0  0  0  0  0  0  0  0  0
  150.7324  139.5974  154.3590 N   0  0  0  0  0  0  0  0  0  0  0  0
  150.2004  140.3451  155.3956 C   0  0  0  0  0  0  0  0  0  0  0  0
  150.8354  141.1445  156.3711 C   0  0  0  0  0  0  0  0  0  0  0  0
  150.0807  141.8281  157.3512 C   0  0  0  0  0  0  0  0  0  0  0  0
  150.8050  142.6745  158.3833 C   0  0  0  0  0  0  0  0  0  0  0  0
  148.6668  141.7187  157.3641 C   0  0  0  0  0  0  0  0  0  0  0  0
  147.8356  142.4437  158.4078 C   0  0  0  0  0  0  0  0  0  0  0  0
  148.0164  140.9250  156.3964 C   0  0  0  0  0  0  0  0  0  0  0  0
  148.7787  140.2478  155.4284 C   0  0  0  0  0  0  0  0  0  0  0  0
  146.0491  134.7972  153.3031 C   0  0  0  0  0  0  0  0  0  0  0  0
  146.4506  133.3909  152.8305 C   0  0  0  0  0  0  0  0  0  0  0  0
  146.3511  128.4808  152.1723 H   0  0  0  0  0  0  0  0  0  0  0  0
  147.4041  129.2554  150.9989 H   0  0  0  0  0  0  0  0  0  0  0  0
  145.6840  129.0700  150.6527 H   0  0  0  0  0  0  0  0  0  0  0  0
  145.1448  130.5948  152.5878 H   0  0  0  0  0  0  0  0  0  0  0  0
  146.8463  130.8604  152.8802 H   0  0  0  0  0  0  0  0  0  0  0  0
  144.5392  132.8644  151.9669 H   0  0  0  0  0  0  0  0  0  0  0  0
  146.6861  134.0082  150.1242 H   0  0  0  0  0  0  0  0  0  0  0  0
  145.0196  133.6987  149.6982 H   0  0  0  0  0  0  0  0  0  0  0  0
  145.4044  136.1025  150.2283 H   0  0  0  0  0  0  0  0  0  0  0  0
  144.2385  135.4015  151.3350 H   0  0  0  0  0  0  0  0  0  0  0  0
  145.2423  137.6858  151.9017 H   0  0  0  0  0  0  0  0  0  0  0  0
  145.3340  137.1682  153.5640 H   0  0  0  0  0  0  0  0  0  0  0  0
  148.0357  137.3204  152.9092 H   0  0  0  0  0  0  0  0  0  0  0  0
  147.9474  139.4731  151.7759 H   0  0  0  0  0  0  0  0  0  0  0  0
  146.5293  139.8393  153.7194 H   0  0  0  0  0  0  0  0  0  0  0  0
  146.6598  138.4833  154.8176 H   0  0  0  0  0  0  0  0  0  0  0  0
  149.6965  138.4247  152.9541 H   0  0  0  0  0  0  0  0  0  0  0  0
  151.9122  141.2275  156.3615 H   0  0  0  0  0  0  0  0  0  0  0  0
  150.6176  142.2941  159.3876 H   0  0  0  0  0  0  0  0  0  0  0  0
  150.4667  143.7097  158.3355 H   0  0  0  0  0  0  0  0  0  0  0  0
  151.8828  142.6681  158.2188 H   0  0  0  0  0  0  0  0  0  0  0  0
  146.7715  142.2462  158.2762 H   0  0  0  0  0  0  0  0  0  0  0  0
  147.9869  143.5209  158.3361 H   0  0  0  0  0  0  0  0  0  0  0  0
  148.1145  142.1204  159.4106 H   0  0  0  0  0  0  0  0  0  0  0  0
  146.9405  140.8329  156.3945 H   0  0  0  0  0  0  0  0  0  0  0  0
  146.6998  135.0896  154.1261 H   0  0  0  0  0  0  0  0  0  0  0  0
  145.0319  134.7822  153.6976 H   0  0  0  0  0  0  0  0  0  0  0  0
  146.3629  132.6847  153.6560 H   0  0  0  0  0  0  0  0  0  0  0  0
  147.5014  133.3917  152.5372 H   0  0  0  0  0  0  0  0  0  0  0  0
  147.0913  135.7605  151.8547 H   0  0  0  0  0  0  0  0  0  0  0  0
  1  2  1  0  0  0  0
  1 25  1  0  0  0  0
  1 26  1  0  0  0  0
  1 27  1  0  0  0  0
  2  3  1  0  0  0  0
  2 28  1  0  0  0  0
  2 29  1  0  0  0  0
  3  4  1  0  0  0  0
  4 24  1  0  0  0  0
  4  5  1  0  0  0  0
  4 30  1  0  0  0  0
  5  6  1  0  0  0  0
  5 31  1  0  0  0  0
  5 32  1  0  0  0  0
  6  7  1  0  0  0  0
  6 33  1  0  0  0  0
  6 34  1  0  0  0  0
  7  8  1  0  0  0  0
  7 23  1  0  0  0  0
  7 54  1  0  0  0  0
  8  9  1  0  0  0  0
  8 35  1  0  0  0  0
  8 36  1  0  0  0  0
  9 10  1  0  0  0  0
  9 11  1  0  0  0  0
  9 37  1  0  0  0  0
 10 38  1  0  0  0  0
 11 12  1  0  0  0  0
 11 39  1  0  0  0  0
 11 40  1  0  0  0  0
 12 22  1  0  0  0  0
 12 13  1  0  0  0  0
 13 14  2  0  0  0  0
 13 41  1  0  0  0  0
 14 15  1  0  0  0  0
 15 22  2  0  0  0  0
 15 16  1  0  0  0  0
 16 17  2  0  0  0  0
 16 42  1  0  0  0  0
 17 18  1  0  0  0  0
 17 19  1  0  0  0  0
 18 43  1  0  0  0  0
 18 44  1  0  0  0  0
 18 45  1  0  0  0  0
 19 20  1  0  0  0  0
 19 21  2  0  0  0  0
 20 46  1  0  0  0  0
 20 47  1  0  0  0  0
 20 48  1  0  0  0  0
 21 22  1  0  0  0  0
 21 49  1  0  0  0  0
 23 24  1  0  0  0  0
 23 50  1  0  0  0  0
 23 51  1  0  0  0  0
 24 52  1  0  0  0  0
 24 53  1  0  0  0  0
M  CHG  1   7   1
M  END
> <s_m_source_file>
AV-unprocessed.smi

> <i_m_source_file_index>
1697

> <i_lp_mmshare_version>
43012

> <i_f3d_flags>
0

> <s_epik_input>
W0NIM11bQ0gyXU9bQ0hdMVtDSDJdW0NIMl1OKFtDSDJdW0NIMl0xKVtDSDJdW0NASF0oW09IXSlbQ0gyXW4oW2NIXW4yKWMoYzIzKVtjSF1jKFtDSDNdKWMoW2NIXTMpW0NIM10=

> <s_epik_cmdline>
J2VwaWtfcHl0aG9uJywgJy1waCcsICc3LjAnLCAnLXRuJywgJzgnLCAnLW1hJywgJzIwMCcsICctbWV0YWxfYmluZGluZycsICctaW1hZScsICc8aW5maWxlLm1hZT4nLCAnLW9tYWUnLCAnPG91dGZpbGUubWFlPic=

> <r_epik_Ionization_Penalty>
0.112476

> <r_epik_Ionization_Penalty_Charging>
0.0244612

> <r_epik_Ionization_Penalty_Neutral>
0.0880147

> <r_epik_State_Penalty>
0.0961447

> <r_epik_Charging_Adjusted_Penalty>
0.120606

> <i_epik_Tot_Q>
1

> <i_epik_Tot_abs_Q>
1

> <r_epik_Metal_State_Penalty>
0.0206204

> <b_epik_Metal_Only>
0

> <s_lp_Force_Field>
OPLS_2005

> <r_lp_Energy>
24.3812

> <b_lp_Chiralities_Consistent>
1

> <s_lp_Variant>
AV-unprocessed.smi:1697-2

> <Gold.Version>
5.8.1

> <Gold.Id.Protein>
6NUR|6NUR_protein|mol2

> <Gold.PLP.Fitness>
52.4415

> <Gold.PLP.PLP>
-36.6410

> <Gold.PLP.part.hbond>
-5.0000

> <Gold.PLP.part.metal>
0.0000

> <Gold.PLP.part.buried>
0.3008

> <Gold.PLP.part.nonpolar>
-32.6973

> <Gold.PLP.part.repulsive>
0.2631

> <Gold.PLP.ligand.clash>
0.0000

> <Gold.PLP.ligand.torsion>
1.3439

> <Gold.PLP.Chemscore.Hbond>
4.6640

> <Gold.PLP.Chemscore.CHOScore>
1.4032

> <Gold.PLP.Chemscore.Metal>
0.0000

> <Gold.Chemscore.Hbonds>
donor molecule, donor type, donor heavy atom, donor atom, acceptor molecule, acceptor atom, score
      L1  H     7    54       P1  7948  2.00
      L1  H    10    38       P1  7957  0.64
      P1  H  7954  7966       L1    10  0.98
      P1  H  7989  7998       L1    14  1.00
      L1  C    13    41       P1  7948  1.00
      L1  C    13    41       P1  7957  0.43

> <Gold.PLP.Chemscore.Internal.Correction>
0.2867

> <Gold.Rescore>
     Score         DG    S(hbond)    S(metal)    S(lipo)     H(rot)  DE(clash)    DE(int)     intcor
     15.69     -20.27       2.88        0.00      93.83       2.27       3.13       1.45       ----

> <Gold.Chemscore.Fitness>
15.6862

> <Gold.Chemscore.DG>
-20.2668

> <Gold.Chemscore.ZeroCoef>
-5.4800

> <Gold.Chemscore.Hbond>
2.8810

> <Gold.Chemscore.Metal>
0.0000

> <Gold.Chemscore.Lipo>
93.8277

> <Gold.Chemscore.Internal_Hbond>
0.0000

> <Gold.Chemscore.DEClash>
3.1291

> <Gold.Chemscore.DEInternal>
1.4515

> <Gold.Chemscore.Rot>
2.2710

> <Gold.Chemscore.Internal.Correction>
   9.000000E+99

> <Gold.Chemscore.Hbonds>
donor molecule, donor type, donor heavy atom, donor atom, acceptor molecule, acceptor atom, score
      L1  H     7    54       P1  7948  0.99
      L1  H    10    38       P1  7957  0.64
      P1  H  7954  7966       L1    10  0.48
      P1  H  7989  7998       L1    14  0.25

> <Gold.Chemscore.Hbond.Weighted>
-9.6226

> <Gold.Chemscore.Metal.Weighted>
-0.0000

> <Gold.Chemscore.Lipo.Weighted>
-10.9778

> <Gold.Chemscore.Internal_Hbond.Weighted>
0.0000

> <Gold.Chemscore.DEClash.Weighted>
3.1291

> <Gold.Chemscore.DEInternal.Weighted>
1.4515

> <Gold.Chemscore.Rot.Weighted>
5.8137

> <Gold.Chemscore.Internal.Correction.Weighted>
   9.000000E+99

> <Gold.Protein.RotatedTorsions>
[ 6907 6896 6895 6894 ] final   -7.02 input  -60.11 | X-H torsion
[ 7974 7965 7964 7962 ] final  159.35 input  175.53 | X-H torsion
[ 8008 7997 7996 7995 ] final   47.25 input   59.86 | X-H torsion
[ 10167 10162 10161 10158 ] final    3.79 input  -65.29 | X-H torsion
[ 10718 10713 10712 10709 ] final   67.43 input   66.30 | X-H torsion
[ 10763 10752 10751 10750 ] final   10.40 input  -60.55 | X-H torsion
[ 11005 11000 10999 10996 ] final -178.70 input  -57.11 | X-H torsion

> <Gold.Protein.ActiveResidues>
 VAL166  LYS551  ARG553  GLY616  TRP617  ASP618  TYR619  PRO620  LYS621  CYS622 
 ASP623  PHE694  ASN695  SER759  ASP760  ASP761  ALA762  ILE779  LEU786  VAL792 
 PHE793  MET794  SER795  GLU796  ALA797  LYS798  CYS799  TRP800  GLU811  SER814 

> <Gold.Protein.RotatedAtoms>
  151.4562  135.1034  159.9711 H   0  0  0  0  0  0  0  0  0  0  0  0  # atno 6907 bound_to 6896
  152.4870  133.8395  159.7155 H   0  0  0  0  0  0  0  0  0  0  0  0  # atno 6908 bound_to 6896
  150.8988  133.7086  159.2911 H   0  0  0  0  0  0  0  0  0  0  0  0  # atno 6909 bound_to 6896
  144.7795  139.7605  143.6265 H   0  0  0  0  0  0  0  0  0  0  0  0  # atno 7974 bound_to 7965
  155.3659  140.3421  155.4242 H   0  0  0  0  0  0  0  0  0  0  0  0  # atno 8008 bound_to 7997
  156.1688  140.1625  156.8518 H   0  0  0  0  0  0  0  0  0  0  0  0  # atno 8009 bound_to 7997
  154.5212  140.0766  156.8158 H   0  0  0  0  0  0  0  0  0  0  0  0  # atno 8010 bound_to 7997
  140.6568  143.7407  150.7667 H   0  0  0  0  0  0  0  0  0  0  0  0  # atno 10167 bound_to 10162
  157.6229  130.9320  150.0241 H   0  0  0  0  0  0  0  0  0  0  0  0  # atno 10718 bound_to 10713
  153.2037  135.6859  153.8200 H   0  0  0  0  0  0  0  0  0  0  0  0  # atno 10763 bound_to 10752
  153.7457  135.3231  155.3313 H   0  0  0  0  0  0  0  0  0  0  0  0  # atno 10764 bound_to 10752
  154.8185  135.4669  154.0814 H   0  0  0  0  0  0  0  0  0  0  0  0  # atno 10765 bound_to 10752
  140.4268  134.6555  157.4692 H   0  0  0  0  0  0  0  0  0  0  0  0  # atno 11005 bound_to 11000
  146.1995  139.5281  142.9753 LP  0  0  0  0  0  0  0  0  0  0  0  0  # atno 17320 bound_to 7965
  145.6090  141.0343  143.1977 LP  0  0  0  0  0  0  0  0  0  0  0  0  # atno 17321 bound_to 7965
  140.1068  143.4736  152.2393 LP  0  0  0  0  0  0  0  0  0  0  0  0  # atno 17342 bound_to 10162
  139.5792  144.7502  151.3684 LP  0  0  0  0  0  0  0  0  0  0  0  0  # atno 17343 bound_to 10162
  156.1385  130.3642  149.9619 LP  0  0  0  0  0  0  0  0  0  0  0  0  # atno 17370 bound_to 10713
  156.7665  130.9170  151.3643 LP  0  0  0  0  0  0  0  0  0  0  0  0  # atno 17371 bound_to 10713
  140.0162  134.6616  155.9307 LP  0  0  0  0  0  0  0  0  0  0  0  0  # atno 17394 bound_to 11000
  141.1762  133.6540  156.4837 LP  0  0  0  0  0  0  0  0  0  0  0  0  # atno 17395 bound_to 11000

$$$$
