AV-unprocessed.smi:1634|AV-procd|sdf|6536|dock7
  -GOLD-   22720 7223D 1   1.00000     0.00000
 Structure written by MMmdl.
 38 38  0  0  0  0  0  0  0  0  1 V2000
  156.3795  135.1859  157.8199 C   0  0  0  0  0  0  0  0  0  0  0  0
  155.1755  134.9050  158.7312 C   0  0  0  0  0  0  0  0  0  0  0  0
  154.4867  133.5895  158.3351 C   0  0  0  0  0  0  0  0  0  0  0  0
  154.1884  136.0832  158.7201 C   0  0  0  0  0  0  0  0  0  0  0  0
  153.4965  136.1029  157.4755 O   0  0  0  0  0  0  0  0  0  0  0  0
  152.2579  136.8076  157.4721 C   0  0  2  0  0  0  0  0  0  0  0  0
  151.4860  136.3841  156.2136 C   0  0  0  0  0  0  0  0  0  0  0  0
  152.5075  138.3244  157.4909 C   0  0  0  0  0  0  0  0  0  0  0  0
  153.6340  138.7477  157.7481 O   0  0  0  0  0  0  0  0  0  0  0  0
  151.4240  139.0885  157.2480 N   0  0  0  0  0  0  0  0  0  0  0  0
  151.3007  140.4877  157.2052 C   0  0  0  0  0  0  0  0  0  0  0  0
  151.6195  141.3328  158.2205 C   0  0  0  0  0  0  0  0  0  0  0  0
  151.4714  142.7736  158.1008 C   0  0  0  0  0  0  0  0  0  0  0  0
  151.7530  143.7028  159.2714 C   0  0  0  0  0  0  0  0  0  0  0  0
  150.6373  144.2970  159.6965 F   0  0  0  0  0  0  0  0  0  0  0  0
  152.2881  143.0359  160.2941 F   0  0  0  0  0  0  0  0  0  0  0  0
  152.6124  144.6507  158.9002 F   0  0  0  0  0  0  0  0  0  0  0  0
  150.9915  143.2325  156.9304 C   0  0  0  0  0  0  0  0  0  0  0  0
  150.6823  142.3728  155.8740 N   0  0  0  0  0  0  0  0  0  0  0  0
  150.8038  141.0277  155.9286 C   0  0  0  0  0  0  0  0  0  0  0  0
  150.5073  140.3376  154.9539 O   0  0  0  0  0  0  0  0  0  0  0  0
  150.3437  142.7959  155.0220 H   0  0  0  0  0  0  0  0  0  0  0  0
  156.0708  135.3099  156.7814 H   0  0  0  0  0  0  0  0  0  0  0  0
  157.0998  134.3682  157.8576 H   0  0  0  0  0  0  0  0  0  0  0  0
  156.8994  136.0949  158.1236 H   0  0  0  0  0  0  0  0  0  0  0  0
  155.5530  134.7945  159.7486 H   0  0  0  0  0  0  0  0  0  0  0  0
  154.0797  133.6435  157.3248 H   0  0  0  0  0  0  0  0  0  0  0  0
  153.6650  133.3535  159.0119 H   0  0  0  0  0  0  0  0  0  0  0  0
  155.1866  132.7541  158.3680 H   0  0  0  0  0  0  0  0  0  0  0  0
  153.4653  135.9713  159.5295 H   0  0  0  0  0  0  0  0  0  0  0  0
  154.7263  137.0159  158.8932 H   0  0  0  0  0  0  0  0  0  0  0  0
  151.6728  136.5146  158.3460 H   0  0  0  0  0  0  0  0  0  0  0  0
  150.5326  136.9084  156.1387 H   0  0  0  0  0  0  0  0  0  0  0  0
  151.2726  135.3152  156.2330 H   0  0  0  0  0  0  0  0  0  0  0  0
  152.0538  136.5886  155.3052 H   0  0  0  0  0  0  0  0  0  0  0  0
  150.5560  138.5904  157.1105 H   0  0  0  0  0  0  0  0  0  0  0  0
  152.0128  140.9625  159.1522 H   0  0  0  0  0  0  0  0  0  0  0  0
  150.8043  144.2744  156.7162 H   0  0  0  0  0  0  0  0  0  0  0  0
  1  2  1  0  0  0  0
  1 23  1  0  0  0  0
  1 24  1  0  0  0  0
  1 25  1  0  0  0  0
  2  3  1  0  0  0  0
  2  4  1  0  0  0  0
  2 26  1  0  0  0  0
  3 27  1  0  0  0  0
  3 28  1  0  0  0  0
  3 29  1  0  0  0  0
  4  5  1  0  0  0  0
  4 30  1  0  0  0  0
  4 31  1  0  0  0  0
  5  6  1  0  0  0  0
  6  7  1  0  0  0  0
  6  8  1  0  0  0  0
  6 32  1  0  0  0  0
  7 33  1  0  0  0  0
  7 34  1  0  0  0  0
  7 35  1  0  0  0  0
  8  9  2  0  0  0  0
  8 10  1  0  0  0  0
 10 11  1  0  0  0  0
 10 36  1  0  0  0  0
 11 20  1  0  0  0  0
 11 12  2  0  0  0  0
 12 13  1  0  0  0  0
 12 37  1  0  0  0  0
 13 14  1  0  0  0  0
 13 18  2  0  0  0  0
 14 15  1  0  0  0  0
 14 16  1  0  0  0  0
 14 17  1  0  0  0  0
 18 19  1  0  0  0  0
 18 38  1  0  0  0  0
 19 22  1  0  0  0  0
 19 20  1  0  0  0  0
 20 21  2  0  0  0  0
M  END
> <s_m_source_file>
AV-unprocessed.smi

> <i_m_source_file_index>
1634

> <i_lp_mmshare_version>
43012

> <i_f3d_flags>
0

> <s_epik_input>
W0NIM11bQ0hdKFtDSDNdKVtDSDJdT1tDQEhdKFtDSDNdKUMoPU8pW05IXWMxW2NIXWMoQyhGKShGKUYpW2NIXVtuSF1jMT1P

> <s_epik_cmdline>
J2VwaWtfcHl0aG9uJywgJy1waCcsICc3LjAnLCAnLXRuJywgJzgnLCAnLW1hJywgJzIwMCcsICctbWV0YWxfYmluZGluZycsICctaW1hZScsICc8aW5maWxlLm1hZT4nLCAnLW9tYWUnLCAnPG91dGZpbGUubWFlPic=

> <r_lp_tautomer_probability>
0.999

> <r_epik_Ionization_Penalty>
0.00884964

> <r_epik_Ionization_Penalty_Charging>
0.00884955

> <r_epik_Ionization_Penalty_Neutral>
9.33956e-08

> <r_epik_State_Penalty>
0.00669049

> <r_epik_Charging_Adjusted_Penalty>
0.01554

> <i_epik_Tot_Q>
0

> <i_epik_Tot_abs_Q>
0

> <r_epik_Metal_State_Penalty>
0.320763

> <b_epik_Metal_Only>
0

> <s_lp_Force_Field>
OPLS_2005

> <r_lp_Energy>
19.4514

> <b_lp_Chiralities_Consistent>
1

> <s_lp_Variant>
AV-unprocessed.smi:1634-1

> <Gold.Version>
5.8.1

> <Gold.Id.Protein>
6NUR|6NUR_protein|mol2

> <Gold.PLP.Fitness>
42.8693

> <Gold.PLP.PLP>
-33.6901

> <Gold.PLP.part.hbond>
-4.0000

> <Gold.PLP.part.metal>
0.0000

> <Gold.PLP.part.buried>
-1.6304

> <Gold.PLP.part.nonpolar>
-27.9028

> <Gold.PLP.part.repulsive>
0.2688

> <Gold.PLP.ligand.clash>
0.0000

> <Gold.PLP.ligand.torsion>
1.1677

> <Gold.PLP.Chemscore.Hbond>
3.1105

> <Gold.PLP.Chemscore.CHOScore>
0.7031

> <Gold.PLP.Chemscore.Metal>
0.0000

> <Gold.Chemscore.Hbonds>
donor molecule, donor type, donor heavy atom, donor atom, acceptor molecule, acceptor atom, score
      P1  H  7989  7998       L1    21  1.00
      P1  H  7997  8009       L1     9  1.00
      P1  H 10752 10764       L1     5  0.50
      L1  C    18    38       P1  8028  0.74

> <Gold.PLP.Chemscore.Internal.Correction>
0.0738

> <Gold.Rescore>
     Score         DG    S(hbond)    S(metal)    S(lipo)     H(rot)  DE(clash)    DE(int)     intcor
     16.80     -19.00       3.19        0.00      63.51       1.79       0.05       2.15       ----

> <Gold.Chemscore.Fitness>
16.8001

> <Gold.Chemscore.DG>
-18.9980

> <Gold.Chemscore.ZeroCoef>
-5.4800

> <Gold.Chemscore.Hbond>
3.1924

> <Gold.Chemscore.Metal>
0.0000

> <Gold.Chemscore.Lipo>
63.5119

> <Gold.Chemscore.Internal_Hbond>
0.0000

> <Gold.Chemscore.DEClash>
0.0523

> <Gold.Chemscore.DEInternal>
2.1457

> <Gold.Chemscore.Rot>
1.7873

> <Gold.Chemscore.Internal.Correction>
   9.000000E+99

> <Gold.Chemscore.Hbonds>
donor molecule, donor type, donor heavy atom, donor atom, acceptor molecule, acceptor atom, score
      P1  H  7989  7998       L1    21  0.64
      P1  H  7997  8009       L1     9  0.95
      P1  H 10752 10764       L1     5  0.30

> <Gold.Chemscore.Hbond.Weighted>
-10.6626

> <Gold.Chemscore.Metal.Weighted>
-0.0000

> <Gold.Chemscore.Lipo.Weighted>
-7.4309

> <Gold.Chemscore.Internal_Hbond.Weighted>
0.0000

> <Gold.Chemscore.DEClash.Weighted>
0.0523

> <Gold.Chemscore.DEInternal.Weighted>
2.1457

> <Gold.Chemscore.Rot.Weighted>
4.5755

> <Gold.Chemscore.Internal.Correction.Weighted>
   9.000000E+99

> <Gold.Protein.RotatedTorsions>
[ 6907 6896 6895 6894 ] final   19.21 input  -60.11 | X-H torsion
[ 7974 7965 7964 7962 ] final -121.60 input  175.53 | X-H torsion
[ 8008 7997 7996 7995 ] final  170.85 input   59.86 | X-H torsion
[ 10167 10162 10161 10158 ] final  -98.82 input  -65.29 | X-H torsion
[ 10718 10713 10712 10709 ] final -108.50 input   66.30 | X-H torsion
[ 10763 10752 10751 10750 ] final   16.33 input  -60.55 | X-H torsion
[ 11005 11000 10999 10996 ] final   82.62 input  -57.11 | X-H torsion

> <Gold.Protein.ActiveResidues>
 VAL166  LYS551  ARG553  GLY616  TRP617  ASP618  TYR619  PRO620  LYS621  CYS622 
 ASP623  PHE694  ASN695  SER759  ASP760  ASP761  ALA762  ILE779  LEU786  VAL792 
 PHE793  MET794  SER795  GLU796  ALA797  LYS798  CYS799  TRP800  GLU811  SER814 

> <Gold.Protein.RotatedAtoms>
  151.8773  135.0467  160.0485 H   0  0  0  0  0  0  0  0  0  0  0  0  # atno 6907 bound_to 6896
  152.2541  133.5235  159.5351 H   0  0  0  0  0  0  0  0  0  0  0  0  # atno 6908 bound_to 6896
  150.7093  134.0836  159.3949 H   0  0  0  0  0  0  0  0  0  0  0  0  # atno 6909 bound_to 6896
  145.0386  140.8126  143.4280 H   0  0  0  0  0  0  0  0  0  0  0  0  # atno 7974 bound_to 7965
  156.1327  140.1527  156.9041 H   0  0  0  0  0  0  0  0  0  0  0  0  # atno 8008 bound_to 7997
  154.4922  140.0848  156.7659 H   0  0  0  0  0  0  0  0  0  0  0  0  # atno 8009 bound_to 7997
  155.4226  140.3423  155.4275 H   0  0  0  0  0  0  0  0  0  0  0  0  # atno 8010 bound_to 7997
  140.2689  143.3357  152.0553 H   0  0  0  0  0  0  0  0  0  0  0  0  # atno 10167 bound_to 10162
  156.0489  130.5716  150.7970 H   0  0  0  0  0  0  0  0  0  0  0  0  # atno 10718 bound_to 10713
  153.1440  135.6765  153.8982 H   0  0  0  0  0  0  0  0  0  0  0  0  # atno 10763 bound_to 10752
  153.8430  135.3103  155.3428 H   0  0  0  0  0  0  0  0  0  0  0  0  # atno 10764 bound_to 10752
  154.7811  135.4888  153.9930 H   0  0  0  0  0  0  0  0  0  0  0  0  # atno 10765 bound_to 10752
  139.9057  134.8085  156.2200 H   0  0  0  0  0  0  0  0  0  0  0  0  # atno 11005 bound_to 11000
  145.1677  139.2422  143.5358 LP  0  0  0  0  0  0  0  0  0  0  0  0  # atno 17320 bound_to 7965
  146.3507  140.1420  142.8594 LP  0  0  0  0  0  0  0  0  0  0  0  0  # atno 17321 bound_to 7965
  139.4994  144.6669  151.6334 LP  0  0  0  0  0  0  0  0  0  0  0  0  # atno 17342 bound_to 10162
  140.5905  143.9787  150.6322 LP  0  0  0  0  0  0  0  0  0  0  0  0  # atno 17343 bound_to 10162
  157.5394  131.0940  150.9848 LP  0  0  0  0  0  0  0  0  0  0  0  0  # atno 17370 bound_to 10713
  157.0134  130.5646  149.5323 LP  0  0  0  0  0  0  0  0  0  0  0  0  # atno 17371 bound_to 10713
  141.0412  133.6937  156.1601 LP  0  0  0  0  0  0  0  0  0  0  0  0  # atno 17394 bound_to 11000
  140.6953  134.4622  157.5588 LP  0  0  0  0  0  0  0  0  0  0  0  0  # atno 17395 bound_to 11000

$$$$
