AV-unprocessed.smi:166|AV-procd|sdf|1388|dock8
  -GOLD-   2262019123D 1   1.00000     0.00000
 Structure written by MMmdl.
 54 58  0  0  0  0  0  0  0  0  1 V2000
  149.4294  142.7547  157.6519 O   0  0  0  0  0  0  0  0  0  0  0  0
  150.8375  142.5996  157.5964 C   0  0  1  0  0  0  0  0  0  0  0  0
  151.2206  141.9575  156.2416 C   0  0  0  0  0  0  0  0  0  0  0  0
  150.9404  140.5308  156.1707 N   0  0  0  0  0  0  0  0  0  0  0  0
  149.8414  139.8779  156.6823 C   0  0  0  0  0  0  0  0  0  0  0  0
  149.8202  138.5875  156.4900 N   0  0  0  0  0  0  0  0  0  0  0  0
  150.9856  138.3303  155.7775 C   0  0  0  0  0  0  0  0  0  0  0  0
  151.5863  137.1518  155.2513 C   0  0  0  0  0  0  0  0  0  0  0  0
  151.0217  135.9234  155.3728 N   0  0  0  0  0  0  0  0  0  0  0  0
  151.0707  135.3586  156.7212 C   0  0  0  0  0  0  0  0  0  0  0  0
  150.7934  133.8471  156.6918 C   0  0  0  0  0  0  0  0  0  0  0  0
  149.4718  133.5466  155.9694 C   0  0  0  0  0  0  0  0  0  0  0  0
  149.4814  134.1588  154.5593 C   0  0  1  0  0  0  0  0  0  0  0  0
  148.2046  133.9232  153.9819 O   0  0  0  0  0  0  0  0  0  0  0  0
  148.0641  132.6520  153.3613 C   0  0  0  0  0  0  0  0  0  0  0  0
  146.6632  132.4636  152.8082 C   0  0  0  0  0  0  0  0  0  0  0  0
  146.3015  131.2275  152.0105 C   0  0  0  0  0  0  0  0  0  0  0  0
  146.3893  132.5623  151.3213 C   0  0  0  0  0  0  0  0  0  0  0  0
  149.7823  135.6701  154.6351 C   0  0  0  0  0  0  0  0  0  0  0  0
  152.7755  137.2918  154.6057 N   0  0  0  0  0  0  0  0  0  0  0  0
  153.3352  138.4979  154.4742 C   0  0  0  0  0  0  0  0  0  0  0  0
  152.8876  139.6770  154.9089 N   0  0  0  0  0  0  0  0  0  0  0  0
  151.7004  139.5436  155.5669 C   0  0  0  0  0  0  0  0  0  0  0  0
  151.4752  143.9685  157.8050 C   0  0  0  0  0  0  0  0  0  0  0  0
  151.6234  144.0458  159.3184 C   0  0  0  0  0  0  0  0  0  0  0  0
  152.0152  142.7281  159.6605 O   0  0  0  0  0  0  0  0  0  0  0  0
  151.2933  141.8114  158.8436 C   0  0  0  0  0  0  0  0  0  0  0  0
  149.1780  143.4359  157.0472 H   0  0  0  0  0  0  0  0  0  0  0  0
  150.6916  142.4505  155.4249 H   0  0  0  0  0  0  0  0  0  0  0  0
  152.2837  142.1046  156.0473 H   0  0  0  0  0  0  0  0  0  0  0  0
  149.0525  140.3913  157.2125 H   0  0  0  0  0  0  0  0  0  0  0  0
  152.0351  135.5376  157.1951 H   0  0  0  0  0  0  0  0  0  0  0  0
  150.3232  135.8609  157.3368 H   0  0  0  0  0  0  0  0  0  0  0  0
  151.6123  133.3356  156.1841 H   0  0  0  0  0  0  0  0  0  0  0  0
  150.7629  133.4529  157.7077 H   0  0  0  0  0  0  0  0  0  0  0  0
  149.3121  132.4696  155.9111 H   0  0  0  0  0  0  0  0  0  0  0  0
  148.6398  133.9555  156.5445 H   0  0  0  0  0  0  0  0  0  0  0  0
  150.2534  133.6566  153.9726 H   0  0  0  0  0  0  0  0  0  0  0  0
  148.7738  132.5388  152.5423 H   0  0  0  0  0  0  0  0  0  0  0  0
  148.2620  131.8586  154.0830 H   0  0  0  0  0  0  0  0  0  0  0  0
  145.8830  132.8499  153.4612 H   0  0  0  0  0  0  0  0  0  0  0  0
  147.0868  130.5031  151.8033 H   0  0  0  0  0  0  0  0  0  0  0  0
  145.3102  130.8056  152.1629 H   0  0  0  0  0  0  0  0  0  0  0  0
  145.4565  133.0303  151.0137 H   0  0  0  0  0  0  0  0  0  0  0  0
  147.2327  132.7279  150.6539 H   0  0  0  0  0  0  0  0  0  0  0  0
  148.9593  136.1884  155.1292 H   0  0  0  0  0  0  0  0  0  0  0  0
  149.8680  136.0837  153.6300 H   0  0  0  0  0  0  0  0  0  0  0  0
  154.2766  138.5215  153.9455 H   0  0  0  0  0  0  0  0  0  0  0  0
  152.4673  143.9980  157.3521 H   0  0  0  0  0  0  0  0  0  0  0  0
  150.8965  144.7936  157.3881 H   0  0  0  0  0  0  0  0  0  0  0  0
  152.3628  144.7815  159.6351 H   0  0  0  0  0  0  0  0  0  0  0  0
  150.6711  144.2830  159.7955 H   0  0  0  0  0  0  0  0  0  0  0  0
  150.4508  141.3998  159.4018 H   0  0  0  0  0  0  0  0  0  0  0  0
  151.9561  140.9829  158.5969 H   0  0  0  0  0  0  0  0  0  0  0  0
  1  2  1  0  0  0  0
  1 28  1  0  0  0  0
  2 27  1  0  0  0  0
  2  3  1  0  0  0  0
  2 24  1  0  0  0  0
  3  4  1  0  0  0  0
  3 29  1  0  0  0  0
  3 30  1  0  0  0  0
  4 23  1  0  0  0  0
  4  5  1  0  0  0  0
  5  6  2  0  0  0  0
  5 31  1  0  0  0  0
  6  7  1  0  0  0  0
  7 23  2  0  0  0  0
  7  8  1  0  0  0  0
  8  9  1  0  0  0  0
  8 20  2  0  0  0  0
  9 19  1  0  0  0  0
  9 10  1  0  0  0  0
 10 11  1  0  0  0  0
 10 32  1  0  0  0  0
 10 33  1  0  0  0  0
 11 12  1  0  0  0  0
 11 34  1  0  0  0  0
 11 35  1  0  0  0  0
 12 13  1  0  0  0  0
 12 36  1  0  0  0  0
 12 37  1  0  0  0  0
 13 14  1  0  0  0  0
 13 19  1  0  0  0  0
 13 38  1  0  0  0  0
 14 15  1  0  0  0  0
 15 16  1  0  0  0  0
 15 39  1  0  0  0  0
 15 40  1  0  0  0  0
 16 18  1  0  0  0  0
 16 17  1  0  0  0  0
 16 41  1  0  0  0  0
 17 18  1  0  0  0  0
 17 42  1  0  0  0  0
 17 43  1  0  0  0  0
 18 44  1  0  0  0  0
 18 45  1  0  0  0  0
 19 46  1  0  0  0  0
 19 47  1  0  0  0  0
 20 21  1  0  0  0  0
 21 22  2  0  0  0  0
 21 48  1  0  0  0  0
 22 23  1  0  0  0  0
 24 25  1  0  0  0  0
 24 49  1  0  0  0  0
 24 50  1  0  0  0  0
 25 26  1  0  0  0  0
 25 51  1  0  0  0  0
 25 52  1  0  0  0  0
 26 27  1  0  0  0  0
 27 53  1  0  0  0  0
 27 54  1  0  0  0  0
M  END
> <s_m_source_file>
AV-unprocessed.smi

> <i_m_source_file_index>
166

> <i_lp_mmshare_version>
43012

> <i_f3d_flags>
0

> <s_epik_input>
W0NIMl0xT1tDSDJdW0NIMl1bQ0BAXTEoW09IXSlbQ0gyXW4oW2NIXW4yKWMoYzIzKW5bY0hdbmMzTjRbQ0gyXVtDSDJdW0NIMl1bQ0BIXShbQ0gyXTQpT1tDSDJdW0NIXTVbQ0gyXVtDSDJdNQ==

> <s_epik_cmdline>
J2VwaWtfcHl0aG9uJywgJy1waCcsICc3LjAnLCAnLXRuJywgJzgnLCAnLW1hJywgJzIwMCcsICctbWV0YWxfYmluZGluZycsICctaW1hZScsICc8aW5maWxlLm1hZT4nLCAnLW9tYWUnLCAnPG91dGZpbGUubWFlPic=

> <r_lp_tautomer_probability>
1

> <r_epik_Ionization_Penalty>
0.00342552

> <r_epik_Ionization_Penalty_Charging>
0

> <r_epik_Ionization_Penalty_Neutral>
0.00342552

> <r_epik_State_Penalty>
0.0022204

> <r_epik_Charging_Adjusted_Penalty>
0.0022204

> <i_epik_Tot_Q>
0

> <i_epik_Tot_abs_Q>
0

> <r_epik_Metal_State_Penalty>
-0

> <b_epik_Metal_Only>
0

> <s_lp_Force_Field>
OPLS_2005

> <r_lp_Energy>
44.5811

> <b_lp_Chiralities_Consistent>
1

> <s_lp_Variant>
AV-unprocessed.smi:166-1

> <Gold.Version>
5.8.1

> <Gold.Id.Protein>
6NUR|6NUR_protein|mol2

> <Gold.PLP.Fitness>
48.0975

> <Gold.PLP.PLP>
-42.1655

> <Gold.PLP.part.hbond>
-4.3377

> <Gold.PLP.part.metal>
0.0000

> <Gold.PLP.part.buried>
-4.5511

> <Gold.PLP.part.nonpolar>
-36.0822

> <Gold.PLP.part.repulsive>
0.3450

> <Gold.PLP.ligand.clash>
0.0000

> <Gold.PLP.ligand.torsion>
1.2668

> <Gold.PLP.Chemscore.Hbond>
2.4839

> <Gold.PLP.Chemscore.CHOScore>
0.0000

> <Gold.PLP.Chemscore.Metal>
0.0000

> <Gold.Chemscore.Hbonds>
donor molecule, donor type, donor heavy atom, donor atom, acceptor molecule, acceptor atom, score
      L1  H     1    28       P1  8028  1.00
      P1  H  7989  7998       L1    22  0.05
      P1  H  7997  8010       L1    22  0.85
      P1  H 10752 10765       L1    20  0.40

> <Gold.PLP.Chemscore.Internal.Correction>
1.0138

> <Gold.Rescore>
     Score         DG    S(hbond)    S(metal)    S(lipo)     H(rot)  DE(clash)    DE(int)     intcor
     12.08     -16.21       1.74        0.00     100.85       2.68       2.24       1.90       ----

> <Gold.Chemscore.Fitness>
12.0782

> <Gold.Chemscore.DG>
-16.2120

> <Gold.Chemscore.ZeroCoef>
-5.4800

> <Gold.Chemscore.Hbond>
1.7358

> <Gold.Chemscore.Metal>
0.0000

> <Gold.Chemscore.Lipo>
100.8493

> <Gold.Chemscore.Internal_Hbond>
0.0000

> <Gold.Chemscore.DEClash>
2.2376

> <Gold.Chemscore.DEInternal>
1.8961

> <Gold.Chemscore.Rot>
2.6817

> <Gold.Chemscore.Internal.Correction>
   9.000000E+99

> <Gold.Chemscore.Hbonds>
donor molecule, donor type, donor heavy atom, donor atom, acceptor molecule, acceptor atom, score
      L1  H     1    28       P1  8028  0.78
      P1  H  7997  8010       L1    22  0.14
      P1  H 10752 10765       L1    20  0.12

> <Gold.Chemscore.Hbond.Weighted>
-5.7977

> <Gold.Chemscore.Metal.Weighted>
-0.0000

> <Gold.Chemscore.Lipo.Weighted>
-11.7994

> <Gold.Chemscore.Internal_Hbond.Weighted>
0.0000

> <Gold.Chemscore.DEClash.Weighted>
2.2376

> <Gold.Chemscore.DEInternal.Weighted>
1.8961

> <Gold.Chemscore.Rot.Weighted>
6.8651

> <Gold.Chemscore.Internal.Correction.Weighted>
   9.000000E+99

> <Gold.Protein.RotatedTorsions>
[ 6907 6896 6895 6894 ] final  140.28 input  -60.11 | X-H torsion
[ 7974 7965 7964 7962 ] final  -11.01 input  175.53 | X-H torsion
[ 8008 7997 7996 7995 ] final  107.38 input   59.86 | X-H torsion
[ 10167 10162 10161 10158 ] final   16.89 input  -65.29 | X-H torsion
[ 10718 10713 10712 10709 ] final  109.63 input   66.30 | X-H torsion
[ 10763 10752 10751 10750 ] final  147.17 input  -60.55 | X-H torsion
[ 11005 11000 10999 10996 ] final  -64.01 input  -57.11 | X-H torsion

> <Gold.Protein.ActiveResidues>
 VAL166  LYS551  ARG553  GLY616  TRP617  ASP618  TYR619  PRO620  LYS621  CYS622 
 ASP623  PHE694  ASN695  SER759  ASP760  ASP761  ALA762  ILE779  LEU786  VAL792 
 PHE793  MET794  SER795  GLU796  ALA797  LYS798  CYS799  TRP800  GLU811  SER814 

> <Gold.Protein.RotatedAtoms>
  152.2450  133.5167  159.5291 H   0  0  0  0  0  0  0  0  0  0  0  0  # atno 6907 bound_to 6896
  150.7076  134.1038  159.3984 H   0  0  0  0  0  0  0  0  0  0  0  0  # atno 6908 bound_to 6896
  151.8958  135.0398  160.0552 H   0  0  0  0  0  0  0  0  0  0  0  0  # atno 6909 bound_to 6896
  146.2202  140.2848  142.8364 H   0  0  0  0  0  0  0  0  0  0  0  0  # atno 7974 bound_to 7965
  156.1819  140.3096  155.9165 H   0  0  0  0  0  0  0  0  0  0  0  0  # atno 8008 bound_to 7997
  155.3365  140.0463  157.3061 H   0  0  0  0  0  0  0  0  0  0  0  0  # atno 8009 bound_to 7997
  154.5352  140.2243  155.8745 H   0  0  0  0  0  0  0  0  0  0  0  0  # atno 8010 bound_to 7997
  140.5765  143.9063  150.6754 H   0  0  0  0  0  0  0  0  0  0  0  0  # atno 10167 bound_to 10162
  157.6532  131.0917  150.6483 H   0  0  0  0  0  0  0  0  0  0  0  0  # atno 10718 bound_to 10713
  154.0339  135.2895  155.3364 H   0  0  0  0  0  0  0  0  0  0  0  0  # atno 10763 bound_to 10752
  154.6971  135.5203  153.8477 H   0  0  0  0  0  0  0  0  0  0  0  0  # atno 10764 bound_to 10752
  153.0628  135.6620  154.0549 H   0  0  0  0  0  0  0  0  0  0  0  0  # atno 10765 bound_to 10752
  141.1411  133.6659  156.5767 H   0  0  0  0  0  0  0  0  0  0  0  0  # atno 11005 bound_to 11000
  144.9170  140.7824  143.5772 LP  0  0  0  0  0  0  0  0  0  0  0  0  # atno 17320 bound_to 7965
  145.2782  139.1928  143.4805 LP  0  0  0  0  0  0  0  0  0  0  0  0  # atno 17321 bound_to 7965
  140.2551  143.3564  152.1372 LP  0  0  0  0  0  0  0  0  0  0  0  0  # atno 17342 bound_to 10162
  139.5145  144.6949  151.5657 LP  0  0  0  0  0  0  0  0  0  0  0  0  # atno 17343 bound_to 10162
  156.6792  130.4562  149.5633 LP  0  0  0  0  0  0  0  0  0  0  0  0  # atno 17370 bound_to 10713
  156.1941  130.6579  151.1095 LP  0  0  0  0  0  0  0  0  0  0  0  0  # atno 17371 bound_to 10713
  140.3870  134.7474  157.4697 LP  0  0  0  0  0  0  0  0  0  0  0  0  # atno 17394 bound_to 11000
  140.0595  134.6016  155.8766 LP  0  0  0  0  0  0  0  0  0  0  0  0  # atno 17395 bound_to 11000

$$$$
