AV-unprocessed.smi:2069|AV-procd|sdf|8438|dock7
  -GOLD-   2272011133D 1   1.00000     0.00000
 Structure written by MMmdl.
 38 39  0  0  0  0  0  0  0  0  3 V2000
  151.2101  141.4632  156.1761 C   0  0  0  0  0  0  0  0  0  0  0  0
  151.4991  140.0477  155.8103 C   0  0  0  0  0  0  0  0  0  0  0  0
  152.6483  139.4417  156.1182 N   0  0  0  0  0  0  0  0  0  0  0  0
  152.6819  138.1276  155.6734 N   0  0  0  0  0  0  0  0  0  0  0  0
  151.5567  137.7558  155.0468 C   0  0  0  0  0  0  0  0  0  0  0  0
  151.3877  136.5244  154.5375 N   0  5  0  0  0  0  0  0  0  0  0  0
  150.4645  135.6940  155.0710 C   0  0  0  0  0  0  0  0  0  0  0  0
  150.6052  134.9902  156.0740 O   0  0  0  0  0  0  0  0  0  0  0  0
  149.3005  135.6836  154.4063 N   0  0  0  0  0  0  0  0  0  0  0  0
  148.1213  134.9031  154.7692 C   0  0  0  0  0  0  0  0  0  0  0  0
  147.9262  133.6465  153.8778 C   0  0  1  0  0  0  0  0  0  0  0  0
  147.2354  132.5225  154.6889 C   0  0  0  0  0  0  0  0  0  0  0  0
  147.1962  134.0026  152.6170 N   0  3  0  0  0  0  0  0  0  0  0  0
  146.8289  132.8057  151.8102 C   0  0  0  0  0  0  0  0  0  0  0  0
  146.1454  133.2088  150.4939 C   0  0  0  0  0  0  0  0  0  0  0  0
  144.9902  133.9833  150.7774 O   0  0  0  0  0  0  0  0  0  0  0  0
  145.3264  135.1857  151.4527 C   0  0  0  0  0  0  0  0  0  0  0  0
  145.9940  134.8629  152.8005 C   0  0  0  0  0  0  0  0  0  0  0  0
  150.3531  139.0405  154.9421 S   0  0  0  0  0  0  0  0  0  0  0  0
  150.9133  141.5240  157.2231 H   0  0  0  0  0  0  0  0  0  0  0  0
  150.4016  141.8563  155.5595 H   0  0  0  0  0  0  0  0  0  0  0  0
  152.0954  142.0812  156.0243 H   0  0  0  0  0  0  0  0  0  0  0  0
  149.2288  136.2706  153.5879 H   0  0  0  0  0  0  0  0  0  0  0  0
  148.2293  134.6020  155.8116 H   0  0  0  0  0  0  0  0  0  0  0  0
  147.2623  135.5714  154.7370 H   0  0  0  0  0  0  0  0  0  0  0  0
  148.9061  133.2651  153.5865 H   0  0  0  0  0  0  0  0  0  0  0  0
  147.7659  132.3079  155.6165 H   0  0  0  0  0  0  0  0  0  0  0  0
  147.2114  131.5789  154.1442 H   0  0  0  0  0  0  0  0  0  0  0  0
  146.2127  132.7929  154.9537 H   0  0  0  0  0  0  0  0  0  0  0  0
  147.7040  132.2070  151.5665 H   0  0  0  0  0  0  0  0  0  0  0  0
  146.1617  132.1658  152.3900 H   0  0  0  0  0  0  0  0  0  0  0  0
  146.8292  133.7667  149.8521 H   0  0  0  0  0  0  0  0  0  0  0  0
  145.8446  132.3187  149.9406 H   0  0  0  0  0  0  0  0  0  0  0  0
  145.9821  135.7963  150.8297 H   0  0  0  0  0  0  0  0  0  0  0  0
  144.4163  135.7632  151.6150 H   0  0  0  0  0  0  0  0  0  0  0  0
  145.2837  134.3626  153.4607 H   0  0  0  0  0  0  0  0  0  0  0  0
  146.2612  135.8118  153.2643 H   0  0  0  0  0  0  0  0  0  0  0  0
  147.8420  134.5454  152.0616 H   0  0  0  0  0  0  0  0  0  0  0  0
  1  2  1  0  0  0  0
  1 20  1  0  0  0  0
  1 21  1  0  0  0  0
  1 22  1  0  0  0  0
  2 19  1  0  0  0  0
  2  3  2  0  0  0  0
  3  4  1  0  0  0  0
  4  5  2  0  0  0  0
  5  6  1  0  0  0  0
  5 19  1  0  0  0  0
  6  7  1  0  0  0  0
  7  8  2  0  0  0  0
  7  9  1  0  0  0  0
  9 10  1  0  0  0  0
  9 23  1  0  0  0  0
 10 11  1  0  0  0  0
 10 24  1  0  0  0  0
 10 25  1  0  0  0  0
 11 12  1  0  0  0  0
 11 13  1  0  0  0  0
 11 26  1  0  0  0  0
 12 27  1  0  0  0  0
 12 28  1  0  0  0  0
 12 29  1  0  0  0  0
 13 18  1  0  0  0  0
 13 14  1  0  0  0  0
 13 38  1  0  0  0  0
 14 15  1  0  0  0  0
 14 30  1  0  0  0  0
 14 31  1  0  0  0  0
 15 16  1  0  0  0  0
 15 32  1  0  0  0  0
 15 33  1  0  0  0  0
 16 17  1  0  0  0  0
 17 18  1  0  0  0  0
 17 34  1  0  0  0  0
 17 35  1  0  0  0  0
 18 36  1  0  0  0  0
 18 37  1  0  0  0  0
M  CHG  1   6  -1
M  CHG  1  13   1
M  END
> <s_m_source_file>
AV-unprocessed.smi

> <i_m_source_file_index>
2069

> <i_lp_mmshare_version>
43012

> <i_f3d_flags>
0

> <s_epik_input>
W0NIM11jMW5uYyhzMSlbTkhdQyg9TylbTkhdW0NIMl1bQ0BIXShbQ0gzXSlOMltDSDJdW0NIMl1PW0NIMl1bQ0gyXTI=

> <s_epik_cmdline>
J2VwaWtfcHl0aG9uJywgJy1waCcsICc3LjAnLCAnLXRuJywgJzgnLCAnLW1hJywgJzIwMCcsICctbWV0YWxfYmluZGluZycsICctaW1hZScsICc8aW5maWxlLm1hZT4nLCAnLW9tYWUnLCAnPG91dGZpbGUubWFlPic=

> <r_lp_tautomer_probability>
1

> <r_epik_Ionization_Penalty>
3.53072

> <r_epik_Ionization_Penalty_Charging>
3.4216

> <r_epik_Ionization_Penalty_Neutral>
0.109115

> <r_epik_State_Penalty>
3.61496

> <r_epik_Charging_Adjusted_Penalty>
7.03656

> <i_epik_Tot_Q>
0

> <i_epik_Tot_abs_Q>
2

> <r_epik_Metal_State_Penalty>
1.13918

> <b_epik_Metal_Only>
1

> <s_lp_Force_Field>
OPLS_2005

> <r_lp_Energy>
13.0561

> <b_lp_Chiralities_Consistent>
1

> <s_lp_Variant>
AV-unprocessed.smi:2069-8

> <Gold.Version>
5.8.1

> <Gold.Id.Protein>
6NUR|6NUR_protein|mol2

> <Gold.PLP.Fitness>
42.4698

> <Gold.PLP.PLP>
-28.9051

> <Gold.PLP.part.hbond>
-4.0000

> <Gold.PLP.part.metal>
0.0000

> <Gold.PLP.part.buried>
-5.1100

> <Gold.PLP.part.nonpolar>
-20.7374

> <Gold.PLP.part.repulsive>
0.3986

> <Gold.PLP.ligand.clash>
0.0000

> <Gold.PLP.ligand.torsion>
1.9790

> <Gold.PLP.Chemscore.Hbond>
5.8160

> <Gold.PLP.Chemscore.CHOScore>
0.0000

> <Gold.PLP.Chemscore.Metal>
0.0000

> <Gold.Chemscore.Hbonds>
donor molecule, donor type, donor heavy atom, donor atom, acceptor molecule, acceptor atom, score
      L1  H     9    23       P1  7948  0.85
      L1  H    13    38       P1  7948  2.00
      P1  H  7997  8009       L1     3  1.00
      P1  H 10752 10765       L1     6  2.00

> <Gold.PLP.Chemscore.Internal.Correction>
0.0747

> <Gold.Rescore>
     Score         DG    S(hbond)    S(metal)    S(lipo)     H(rot)  DE(clash)    DE(int)     intcor
     16.05     -18.18       3.23        0.00      51.76       1.62       0.08       2.05       ----

> <Gold.Chemscore.Fitness>
16.0533

> <Gold.Chemscore.DG>
-18.1804

> <Gold.Chemscore.ZeroCoef>
-5.4800

> <Gold.Chemscore.Hbond>
3.2304

> <Gold.Chemscore.Metal>
0.0000

> <Gold.Chemscore.Lipo>
51.7632

> <Gold.Chemscore.Internal_Hbond>
0.0000

> <Gold.Chemscore.DEClash>
0.0765

> <Gold.Chemscore.DEInternal>
2.0506

> <Gold.Chemscore.Rot>
1.6192

> <Gold.Chemscore.Internal.Correction>
   9.000000E+99

> <Gold.Chemscore.Hbonds>
donor molecule, donor type, donor heavy atom, donor atom, acceptor molecule, acceptor atom, score
      L1  H     9    23       P1  7948  0.77
      L1  H    13    38       P1  7948  0.32
      P1  H  7997  8009       L1     3  0.81
      P1  H 10752 10765       L1     6  0.67

> <Gold.Chemscore.Hbond.Weighted>
-10.7894

> <Gold.Chemscore.Metal.Weighted>
-0.0000

> <Gold.Chemscore.Lipo.Weighted>
-6.0563

> <Gold.Chemscore.Internal_Hbond.Weighted>
0.0000

> <Gold.Chemscore.DEClash.Weighted>
0.0765

> <Gold.Chemscore.DEInternal.Weighted>
2.0506

> <Gold.Chemscore.Rot.Weighted>
4.1452

> <Gold.Chemscore.Internal.Correction.Weighted>
   9.000000E+99

> <Gold.Protein.RotatedTorsions>
[ 6907 6896 6895 6894 ] final  -58.86 input  -60.11 | X-H torsion
[ 7974 7965 7964 7962 ] final  -73.96 input  175.53 | X-H torsion
[ 8008 7997 7996 7995 ] final -175.84 input   59.86 | X-H torsion
[ 10167 10162 10161 10158 ] final  -43.62 input  -65.29 | X-H torsion
[ 10718 10713 10712 10709 ] final  -89.80 input   66.30 | X-H torsion
[ 10763 10752 10751 10750 ] final  159.41 input  -60.55 | X-H torsion
[ 11005 11000 10999 10996 ] final  158.88 input  -57.11 | X-H torsion

> <Gold.Protein.ActiveResidues>
 VAL166  LYS551  ARG553  GLY616  TRP617  ASP618  TYR619  PRO620  LYS621  CYS622 
 ASP623  PHE694  ASN695  SER759  ASP760  ASP761  ALA762  ILE779  LEU786  VAL792 
 PHE793  MET794  SER795  GLU796  ALA797  LYS798  CYS799  TRP800  GLU811  SER814 

> <Gold.Protein.RotatedAtoms>
  150.7974  134.7044  159.6567 H   0  0  0  0  0  0  0  0  0  0  0  0  # atno 6907 bound_to 6896
  152.4088  134.6157  160.0047 H   0  0  0  0  0  0  0  0  0  0  0  0  # atno 6908 bound_to 6896
  151.6406  133.3289  159.3165 H   0  0  0  0  0  0  0  0  0  0  0  0  # atno 6909 bound_to 6896
  145.6454  140.9298  143.1013 H   0  0  0  0  0  0  0  0  0  0  0  0  # atno 7974 bound_to 7965
  155.9875  140.1194  157.0669 H   0  0  0  0  0  0  0  0  0  0  0  0  # atno 8008 bound_to 7997
  154.4201  140.1132  156.5588 H   0  0  0  0  0  0  0  0  0  0  0  0  # atno 8009 bound_to 7997
  155.6388  140.3473  155.4710 H   0  0  0  0  0  0  0  0  0  0  0  0  # atno 8010 bound_to 7997
  140.6927  143.2973  151.3379 H   0  0  0  0  0  0  0  0  0  0  0  0  # atno 10167 bound_to 10162
  155.9985  130.4886  150.5226 H   0  0  0  0  0  0  0  0  0  0  0  0  # atno 10718 bound_to 10713
  154.2313  135.2778  155.2889 H   0  0  0  0  0  0  0  0  0  0  0  0  # atno 10763 bound_to 10752
  154.5621  135.5644  153.7020 H   0  0  0  0  0  0  0  0  0  0  0  0  # atno 10764 bound_to 10752
  153.0019  135.6300  154.2455 H   0  0  0  0  0  0  0  0  0  0  0  0  # atno 10765 bound_to 10752
  140.1907  134.8409  157.2909 H   0  0  0  0  0  0  0  0  0  0  0  0  # atno 11005 bound_to 11000
  144.7142  139.8258  143.7404 LP  0  0  0  0  0  0  0  0  0  0  0  0  # atno 17320 bound_to 7965
  146.1247  139.4271  143.0206 LP  0  0  0  0  0  0  0  0  0  0  0  0  # atno 17321 bound_to 7965
  139.6347  144.0653  152.2506 LP  0  0  0  0  0  0  0  0  0  0  0  0  # atno 17342 bound_to 10162
  140.0139  144.6203  150.7623 LP  0  0  0  0  0  0  0  0  0  0  0  0  # atno 17343 bound_to 10162
  157.3185  131.0677  151.1949 LP  0  0  0  0  0  0  0  0  0  0  0  0  # atno 17370 bound_to 10713
  157.2870  130.6778  149.6095 LP  0  0  0  0  0  0  0  0  0  0  0  0  # atno 17371 bound_to 10713
  140.2162  134.4078  155.7588 LP  0  0  0  0  0  0  0  0  0  0  0  0  # atno 17394 bound_to 11000
  141.2226  133.7143  156.8418 LP  0  0  0  0  0  0  0  0  0  0  0  0  # atno 17395 bound_to 11000

$$$$
