AV-unprocessed.smi:3241|AV-procd|sdf|12392|dock8
  -GOLD-   2272018263D 1   1.00000     0.00000
 Structure written by MMmdl.
 43 44  0  0  0  0  0  0  0  0  1 V2000
  153.0903  143.0269  162.5869 C   0  0  0  0  0  0  0  0  0  0  0  0
  152.2123  143.2620  161.3469 C   0  0  1  0  0  0  0  0  0  0  0  0
  151.9523  144.7686  161.1457 C   0  0  0  0  0  0  0  0  0  0  0  0
  151.0800  145.0369  159.9108 C   0  0  0  0  0  0  0  0  0  0  0  0
  151.7098  144.4267  158.6518 C   0  0  0  0  0  0  0  0  0  0  0  0
  151.9591  142.9226  158.8348 C   0  0  0  0  0  0  0  0  0  0  0  0
  152.8325  142.6354  160.0762 C   0  0  2  0  0  0  0  0  0  0  0  0
  152.9248  141.2320  160.2915 O   0  0  0  0  0  0  0  0  0  0  0  0
  153.5209  140.5005  159.2300 C   0  0  0  0  0  0  0  0  0  0  0  0
  152.4131  140.0059  158.2943 C   0  0  0  0  0  0  0  0  0  0  0  0
  152.9756  139.2899  157.1546 N   0  0  0  0  0  0  0  0  0  0  0  0
  152.0074  139.0111  156.0986 C   0  0  0  0  0  0  0  0  0  0  0  0
  151.1795  140.2578  155.7458 C   0  0  0  0  0  0  0  0  0  0  0  0
  149.9401  139.9214  155.0678 N   0  0  0  0  0  0  0  0  0  0  0  0
  148.9817  140.7769  154.5662 C   0  0  0  0  0  0  0  0  0  0  0  0
  148.0003  140.0071  154.0105 C   0  0  0  0  0  0  0  0  0  0  0  0
  148.4548  138.6753  154.2230 C   0  0  0  0  0  0  0  0  0  0  0  0
  149.6136  138.6270  154.8600 N   0  0  0  0  0  0  0  0  0  0  0  0
  154.0778  143.4728  162.4641 H   0  0  0  0  0  0  0  0  0  0  0  0
  153.2276  141.9629  162.7814 H   0  0  0  0  0  0  0  0  0  0  0  0
  152.6364  143.4638  163.4767 H   0  0  0  0  0  0  0  0  0  0  0  0
  151.2503  142.7790  161.5262 H   0  0  0  0  0  0  0  0  0  0  0  0
  151.4673  145.1842  162.0296 H   0  0  0  0  0  0  0  0  0  0  0  0
  152.9017  145.2955  161.0393 H   0  0  0  0  0  0  0  0  0  0  0  0
  150.0856  144.6157  160.0647 H   0  0  0  0  0  0  0  0  0  0  0  0
  150.9446  146.1104  159.7762 H   0  0  0  0  0  0  0  0  0  0  0  0
  151.0601  144.5944  157.7924 H   0  0  0  0  0  0  0  0  0  0  0  0
  152.6518  144.9304  158.4312 H   0  0  0  0  0  0  0  0  0  0  0  0
  151.0037  142.4055  158.9338 H   0  0  0  0  0  0  0  0  0  0  0  0
  152.4283  142.5316  157.9328 H   0  0  0  0  0  0  0  0  0  0  0  0
  153.8289  143.0574  159.9307 H   0  0  0  0  0  0  0  0  0  0  0  0
  154.2430  141.1009  158.6765 H   0  0  0  0  0  0  0  0  0  0  0  0
  154.0562  139.6432  159.6399 H   0  0  0  0  0  0  0  0  0  0  0  0
  151.7523  139.3406  158.8508 H   0  0  0  0  0  0  0  0  0  0  0  0
  151.8035  140.8456  157.9583 H   0  0  0  0  0  0  0  0  0  0  0  0
  153.4089  138.4265  157.4659 H   0  0  0  0  0  0  0  0  0  0  0  0
  152.5310  138.6694  155.2051 H   0  0  0  0  0  0  0  0  0  0  0  0
  151.3437  138.1992  156.3986 H   0  0  0  0  0  0  0  0  0  0  0  0
  150.9579  140.8435  156.6398 H   0  0  0  0  0  0  0  0  0  0  0  0
  151.7566  140.9058  155.0855 H   0  0  0  0  0  0  0  0  0  0  0  0
  149.0781  141.8497  154.6446 H   0  0  0  0  0  0  0  0  0  0  0  0
  147.0967  140.3440  153.5244 H   0  0  0  0  0  0  0  0  0  0  0  0
  147.9787  137.7488  153.9377 H   0  0  0  0  0  0  0  0  0  0  0  0
  1  2  1  0  0  0  0
  1 19  1  0  0  0  0
  1 20  1  0  0  0  0
  1 21  1  0  0  0  0
  2  7  1  0  0  0  0
  2  3  1  0  0  0  0
  2 22  1  0  0  0  0
  3  4  1  0  0  0  0
  3 23  1  0  0  0  0
  3 24  1  0  0  0  0
  4  5  1  0  0  0  0
  4 25  1  0  0  0  0
  4 26  1  0  0  0  0
  5  6  1  0  0  0  0
  5 27  1  0  0  0  0
  5 28  1  0  0  0  0
  6  7  1  0  0  0  0
  6 29  1  0  0  0  0
  6 30  1  0  0  0  0
  7  8  1  0  0  0  0
  7 31  1  0  0  0  0
  8  9  1  0  0  0  0
  9 10  1  0  0  0  0
  9 32  1  0  0  0  0
  9 33  1  0  0  0  0
 10 11  1  0  0  0  0
 10 34  1  0  0  0  0
 10 35  1  0  0  0  0
 11 12  1  0  0  0  0
 11 36  1  0  0  0  0
 12 13  1  0  0  0  0
 12 37  1  0  0  0  0
 12 38  1  0  0  0  0
 13 14  1  0  0  0  0
 13 39  1  0  0  0  0
 13 40  1  0  0  0  0
 14 18  1  0  0  0  0
 14 15  1  0  0  0  0
 15 16  2  0  0  0  0
 15 41  1  0  0  0  0
 16 17  1  0  0  0  0
 16 42  1  0  0  0  0
 17 18  2  0  0  0  0
 17 43  1  0  0  0  0
M  END
> <s_m_source_file>
AV-unprocessed.smi

> <i_m_source_file_index>
3241

> <i_lp_mmshare_version>
43012

> <i_f3d_flags>
0

> <s_epik_input>
W0NIM11bQ0BASF0xW0NIMl1bQ0gyXVtDSDJdW0NIMl1bQ0BIXTFPW0NIMl1bQ0gyXVtOSF1bQ0gyXVtDSDJdbjJbY0hdW2NIXVtjSF1uMg==

> <s_epik_cmdline>
J2VwaWtfcHl0aG9uJywgJy1waCcsICc3LjAnLCAnLXRuJywgJzgnLCAnLW1hJywgJzIwMCcsICctbWV0YWxfYmluZGluZycsICctaW1hZScsICc8aW5maWxlLm1hZT4nLCAnLW9tYWUnLCAnPG91dGZpbGUubWFlPic=

> <r_lp_tautomer_probability>
1

> <r_epik_Ionization_Penalty>
2.47055

> <r_epik_Ionization_Penalty_Charging>
0

> <r_epik_Ionization_Penalty_Neutral>
2.47055

> <r_epik_State_Penalty>
2.6322

> <r_epik_Charging_Adjusted_Penalty>
2.6322

> <i_epik_Tot_Q>
0

> <i_epik_Tot_abs_Q>
0

> <r_epik_Metal_State_Penalty>
2.63108

> <b_epik_Metal_Only>
0

> <s_lp_Force_Field>
OPLS_2005

> <r_lp_Energy>
16.4595

> <b_lp_Chiralities_Consistent>
1

> <s_lp_Variant>
AV-unprocessed.smi:3241-8

> <Gold.Version>
5.8.1

> <Gold.Id.Protein>
6NUR|6NUR_protein|mol2

> <Gold.PLP.Fitness>
51.8849

> <Gold.PLP.PLP>
-46.6161

> <Gold.PLP.part.hbond>
-1.0000

> <Gold.PLP.part.metal>
0.0000

> <Gold.PLP.part.buried>
-1.7185

> <Gold.PLP.part.nonpolar>
-43.2880

> <Gold.PLP.part.repulsive>
0.1188

> <Gold.PLP.ligand.clash>
0.0000

> <Gold.PLP.ligand.torsion>
0.3857

> <Gold.PLP.Chemscore.Hbond>
1.0000

> <Gold.PLP.Chemscore.CHOScore>
1.0000

> <Gold.PLP.Chemscore.Metal>
0.0000

> <Gold.Chemscore.Hbonds>
donor molecule, donor type, donor heavy atom, donor atom, acceptor molecule, acceptor atom, score
      P1  H  7997  8010       L1    11  0.91
      L1  C    17    43       P1  7948  0.38

> <Gold.PLP.Chemscore.Internal.Correction>
0.0402

> <Gold.Rescore>
     Score         DG    S(hbond)    S(metal)    S(lipo)     H(rot)  DE(clash)    DE(int)     intcor
     14.98     -16.24       0.00        0.00     131.05       1.79       0.33       0.93       ----

> <Gold.Chemscore.Fitness>
14.9787

> <Gold.Chemscore.DG>
-16.2360

> <Gold.Chemscore.ZeroCoef>
-5.4800

> <Gold.Chemscore.Hbond>
0.0018

> <Gold.Chemscore.Metal>
0.0000

> <Gold.Chemscore.Lipo>
131.0487

> <Gold.Chemscore.Internal_Hbond>
0.0000

> <Gold.Chemscore.DEClash>
0.3319

> <Gold.Chemscore.DEInternal>
0.9254

> <Gold.Chemscore.Rot>
1.7901

> <Gold.Chemscore.Internal.Correction>
   9.000000E+99

> <Gold.Chemscore.Hbonds>
donor molecule, donor type, donor heavy atom, donor atom, acceptor molecule, acceptor atom, score
      P1  H  7997  8010       L1    11  0.14

> <Gold.Chemscore.Hbond.Weighted>
-0.0060

> <Gold.Chemscore.Metal.Weighted>
-0.0000

> <Gold.Chemscore.Lipo.Weighted>
-15.3327

> <Gold.Chemscore.Internal_Hbond.Weighted>
0.0000

> <Gold.Chemscore.DEClash.Weighted>
0.3319

> <Gold.Chemscore.DEInternal.Weighted>
0.9254

> <Gold.Chemscore.Rot.Weighted>
4.5827

> <Gold.Chemscore.Internal.Correction.Weighted>
   9.000000E+99

> <Gold.Protein.RotatedTorsions>
[ 6907 6896 6895 6894 ] final  107.59 input  -60.11 | X-H torsion
[ 7974 7965 7964 7962 ] final  122.32 input  175.53 | X-H torsion
[ 8008 7997 7996 7995 ] final   79.53 input   59.86 | X-H torsion
[ 10167 10162 10161 10158 ] final  -37.81 input  -65.29 | X-H torsion
[ 10718 10713 10712 10709 ] final   53.54 input   66.30 | X-H torsion
[ 10763 10752 10751 10750 ] final -154.91 input  -60.55 | X-H torsion
[ 11005 11000 10999 10996 ] final  107.31 input  -57.11 | X-H torsion

> <Gold.Protein.ActiveResidues>
 VAL166  LYS551  ARG553  GLY616  TRP617  ASP618  TYR619  PRO620  LYS621  CYS622 
 ASP623  PHE694  ASN695  SER759  ASP760  ASP761  ALA762  ILE779  LEU786  VAL792 
 PHE793  MET794  SER795  GLU796  ALA797  LYS798  CYS799  TRP800  GLU811  SER814 

> <Gold.Protein.RotatedAtoms>
  152.5148  133.9211  159.7534 H   0  0  0  0  0  0  0  0  0  0  0  0  # atno 6907 bound_to 6896
  150.9583  133.6465  159.2766 H   0  0  0  0  0  0  0  0  0  0  0  0  # atno 6908 bound_to 6896
  151.3719  135.0929  159.9521 H   0  0  0  0  0  0  0  0  0  0  0  0  # atno 6909 bound_to 6896
  145.1090  139.3466  143.4773 H   0  0  0  0  0  0  0  0  0  0  0  0  # atno 7974 bound_to 7965
  155.8710  140.3449  155.5821 H   0  0  0  0  0  0  0  0  0  0  0  0  # atno 8008 bound_to 7997
  155.7827  140.0860  157.2070 H   0  0  0  0  0  0  0  0  0  0  0  0  # atno 8009 bound_to 7997
  154.4017  140.1497  156.3058 H   0  0  0  0  0  0  0  0  0  0  0  0  # atno 8010 bound_to 7997
  140.7109  143.3318  151.2552 H   0  0  0  0  0  0  0  0  0  0  0  0  # atno 10167 bound_to 10162
  157.5176  130.8543  149.8516 H   0  0  0  0  0  0  0  0  0  0  0  0  # atno 10718 bound_to 10713
  154.7825  135.3179  154.7958 H   0  0  0  0  0  0  0  0  0  0  0  0  # atno 10763 bound_to 10752
  153.8666  135.6848  153.4782 H   0  0  0  0  0  0  0  0  0  0  0  0  # atno 10764 bound_to 10752
  153.1466  135.4717  154.9513 H   0  0  0  0  0  0  0  0  0  0  0  0  # atno 10765 bound_to 10752
  139.8826  134.9397  156.5800 H   0  0  0  0  0  0  0  0  0  0  0  0  # atno 11005 bound_to 11000
  146.3527  140.1000  142.8608 LP  0  0  0  0  0  0  0  0  0  0  0  0  # atno 17320 bound_to 7965
  145.0869  140.9258  143.4792 LP  0  0  0  0  0  0  0  0  0  0  0  0  # atno 17321 bound_to 7965
  139.6802  143.9868  152.2804 LP  0  0  0  0  0  0  0  0  0  0  0  0  # atno 17342 bound_to 10162
  139.9495  144.6629  150.8186 LP  0  0  0  0  0  0  0  0  0  0  0  0  # atno 17343 bound_to 10162
  156.0331  130.3759  150.1634 LP  0  0  0  0  0  0  0  0  0  0  0  0  # atno 17370 bound_to 10713
  156.9822  130.9868  151.3434 LP  0  0  0  0  0  0  0  0  0  0  0  0  # atno 17371 bound_to 10713
  140.8034  133.8487  155.8746 LP  0  0  0  0  0  0  0  0  0  0  0  0  # atno 17394 bound_to 11000
  140.9572  134.1703  157.4682 LP  0  0  0  0  0  0  0  0  0  0  0  0  # atno 17395 bound_to 11000

$$$$
