AV-unprocessed.smi:177|AV-procd|sdf|1441|dock7
  -GOLD-   2262019233D 1   1.00000     0.00000
 Structure written by MMmdl.
 61 65  0  0  0  0  0  0  0  0  1 V2000
  147.4178  139.2770  153.4809 C   0  0  0  0  0  0  0  0  0  0  0  0
  148.7697  138.8750  153.3216 O   0  0  0  0  0  0  0  0  0  0  0  0
  149.4921  138.7596  154.5405 C   0  0  2  0  0  0  0  0  0  0  0  0
  149.8683  140.1513  155.0878 C   0  0  0  0  0  0  0  0  0  0  0  0
  150.7646  140.0446  156.3315 C   0  0  0  0  0  0  0  0  0  0  0  0
  152.0372  139.2297  156.0260 C   0  0  1  0  0  0  0  0  0  0  0  0
  152.9311  139.1561  157.1384 O   0  0  0  0  0  0  0  0  0  0  0  0
  152.5298  138.2607  158.1699 C   0  0  0  0  0  0  0  0  0  0  0  0
  152.3746  136.8428  157.5942 C   0  0  0  0  0  0  0  0  0  0  0  0
  151.4341  136.8368  156.4796 N   0  0  0  0  0  0  0  0  0  0  0  0
  150.1549  136.5000  156.7712 C   0  0  0  0  0  0  0  0  0  0  0  0
  149.3092  136.1244  155.7771 N   0  0  0  0  0  0  0  0  0  0  0  0
  148.0552  135.7640  156.0624 C   0  0  0  0  0  0  0  0  0  0  0  0
  147.4505  135.7217  157.2506 N   0  0  0  0  0  0  0  0  0  0  0  0
  148.2847  136.1325  158.2481 C   0  0  0  0  0  0  0  0  0  0  0  0
  149.6409  136.5354  158.0960 C   0  0  0  0  0  0  0  0  0  0  0  0
  150.1745  136.8832  159.3301 N   0  0  0  0  0  0  0  0  0  0  0  0
  149.1965  136.6752  160.1679 C   0  0  0  0  0  0  0  0  0  0  0  0
  148.0164  136.2455  159.6017 N   0  0  0  0  0  0  0  0  0  0  0  0
  146.7788  135.9380  160.3038 C   0  0  0  0  0  0  0  0  0  0  0  0
  146.9368  135.3180  161.7301 C   0  0  0  0  0  0  0  0  0  0  0  0
  147.6233  136.3173  162.7042 C   0  0  0  0  0  0  0  0  0  0  0  0
  147.2148  137.6591  162.5232 O   0  0  0  0  0  0  0  0  0  0  0  0
  145.5919  134.8362  162.3330 C   0  0  0  0  0  0  0  0  0  0  0  0
  145.0157  133.6082  161.6046 C   0  0  0  0  0  0  0  0  0  0  0  0
  145.9610  132.5469  161.6174 O   0  0  0  0  0  0  0  0  0  0  0  0
  147.1652  132.8744  160.9372 C   0  0  0  0  0  0  0  0  0  0  0  0
  147.8488  134.0684  161.6289 C   0  0  0  0  0  0  0  0  0  0  0  0
  151.7455  137.8263  155.4356 C   0  0  1  0  0  0  0  0  0  0  0  0
  150.7567  137.9237  154.2452 C   0  0  0  0  0  0  0  0  0  0  0  0
  146.9388  139.3317  152.5034 H   0  0  0  0  0  0  0  0  0  0  0  0
  147.3373  140.2598  153.9451 H   0  0  0  0  0  0  0  0  0  0  0  0
  146.8620  138.5578  154.0839 H   0  0  0  0  0  0  0  0  0  0  0  0
  148.8741  138.2372  155.2693 H   0  0  0  0  0  0  0  0  0  0  0  0
  150.3863  140.7201  154.3145 H   0  0  0  0  0  0  0  0  0  0  0  0
  148.9731  140.7192  155.3398 H   0  0  0  0  0  0  0  0  0  0  0  0
  151.0426  141.0437  156.6673 H   0  0  0  0  0  0  0  0  0  0  0  0
  150.1974  139.5997  157.1462 H   0  0  0  0  0  0  0  0  0  0  0  0
  152.5800  139.7895  155.2632 H   0  0  0  0  0  0  0  0  0  0  0  0
  153.2941  138.2615  158.9470 H   0  0  0  0  0  0  0  0  0  0  0  0
  151.6113  138.6064  158.6428 H   0  0  0  0  0  0  0  0  0  0  0  0
  153.3383  136.4810  157.2349 H   0  0  0  0  0  0  0  0  0  0  0  0
  152.0538  136.1491  158.3728 H   0  0  0  0  0  0  0  0  0  0  0  0
  147.4514  135.4649  155.2187 H   0  0  0  0  0  0  0  0  0  0  0  0
  149.3052  136.8458  161.2293 H   0  0  0  0  0  0  0  0  0  0  0  0
  146.1905  136.8539  160.3351 H   0  0  0  0  0  0  0  0  0  0  0  0
  146.2100  135.2541  159.6724 H   0  0  0  0  0  0  0  0  0  0  0  0
  147.3933  136.0634  163.7395 H   0  0  0  0  0  0  0  0  0  0  0  0
  148.7081  136.2618  162.6077 H   0  0  0  0  0  0  0  0  0  0  0  0
  146.6850  137.9146  163.2631 H   0  0  0  0  0  0  0  0  0  0  0  0
  145.7455  134.5644  163.3784 H   0  0  0  0  0  0  0  0  0  0  0  0
  144.8551  135.6387  162.3446 H   0  0  0  0  0  0  0  0  0  0  0  0
  144.1096  133.2720  162.1084 H   0  0  0  0  0  0  0  0  0  0  0  0
  144.7313  133.8431  160.5789 H   0  0  0  0  0  0  0  0  0  0  0  0
  147.8235  132.0059  160.9651 H   0  0  0  0  0  0  0  0  0  0  0  0
  146.9637  133.0757  159.8849 H   0  0  0  0  0  0  0  0  0  0  0  0
  148.7775  134.3144  161.1126 H   0  0  0  0  0  0  0  0  0  0  0  0
  148.1410  133.7433  162.6284 H   0  0  0  0  0  0  0  0  0  0  0  0
  152.6842  137.4645  155.0139 H   0  0  0  0  0  0  0  0  0  0  0  0
  150.4916  136.9369  153.8707 H   0  0  0  0  0  0  0  0  0  0  0  0
  151.2832  138.4050  153.4199 H   0  0  0  0  0  0  0  0  0  0  0  0
  1  2  1  0  0  0  0
  1 31  1  0  0  0  0
  1 32  1  0  0  0  0
  1 33  1  0  0  0  0
  2  3  1  0  0  0  0
  3 30  1  0  0  0  0
  3  4  1  0  0  0  0
  3 34  1  0  0  0  0
  4  5  1  0  0  0  0
  4 35  1  0  0  0  0
  4 36  1  0  0  0  0
  5  6  1  0  0  0  0
  5 37  1  0  0  0  0
  5 38  1  0  0  0  0
  6 29  1  0  0  0  0
  6  7  1  0  0  0  0
  6 39  1  0  0  0  0
  7  8  1  0  0  0  0
  8  9  1  0  0  0  0
  8 40  1  0  0  0  0
  8 41  1  0  0  0  0
  9 10  1  0  0  0  0
  9 42  1  0  0  0  0
  9 43  1  0  0  0  0
 10 11  1  0  0  0  0
 10 29  1  0  0  0  0
 11 16  1  0  0  0  0
 11 12  2  0  0  0  0
 12 13  1  0  0  0  0
 13 14  2  0  0  0  0
 13 44  1  0  0  0  0
 14 15  1  0  0  0  0
 15 19  1  0  0  0  0
 15 16  2  0  0  0  0
 16 17  1  0  0  0  0
 17 18  2  0  0  0  0
 18 19  1  0  0  0  0
 18 45  1  0  0  0  0
 19 20  1  0  0  0  0
 20 21  1  0  0  0  0
 20 46  1  0  0  0  0
 20 47  1  0  0  0  0
 21 28  1  0  0  0  0
 21 22  1  0  0  0  0
 21 24  1  0  0  0  0
 22 23  1  0  0  0  0
 22 48  1  0  0  0  0
 22 49  1  0  0  0  0
 23 50  1  0  0  0  0
 24 25  1  0  0  0  0
 24 51  1  0  0  0  0
 24 52  1  0  0  0  0
 25 26  1  0  0  0  0
 25 53  1  0  0  0  0
 25 54  1  0  0  0  0
 26 27  1  0  0  0  0
 27 28  1  0  0  0  0
 27 55  1  0  0  0  0
 27 56  1  0  0  0  0
 28 57  1  0  0  0  0
 28 58  1  0  0  0  0
 29 30  1  0  0  0  0
 29 59  1  0  0  0  0
 30 60  1  0  0  0  0
 30 61  1  0  0  0  0
M  END
> <s_m_source_file>
AV-unprocessed.smi

> <i_m_source_file_index>
177

> <i_lp_mmshare_version>
43012

> <i_f3d_flags>
0

> <s_epik_input>
W0NIM11PW0NASF0oW0NIMl1bQ0gyXTEpW0NIMl1bQ0BIXShbQ0BASF0xMilOKFtDSDJdW0NIMl1PMiljKG5bY0hdbjMpYyhjMzQpbltjSF1uNFtDSDJdQzUoW0NIMl1bT0hdKVtDSDJdW0NIMl1PW0NIMl1bQ0gyXTU=

> <s_epik_cmdline>
J2VwaWtfcHl0aG9uJywgJy1waCcsICc3LjAnLCAnLXRuJywgJzgnLCAnLW1hJywgJzIwMCcsICctbWV0YWxfYmluZGluZycsICctaW1hZScsICc8aW5maWxlLm1hZT4nLCAnLW9tYWUnLCAnPG91dGZpbGUubWFlPic=

> <r_lp_tautomer_probability>
1

> <r_epik_Ionization_Penalty>
0.0065899

> <r_epik_Ionization_Penalty_Charging>
0

> <r_epik_Ionization_Penalty_Neutral>
0.0065899

> <r_epik_State_Penalty>
0.00470042

> <r_epik_Charging_Adjusted_Penalty>
0.00470042

> <i_epik_Tot_Q>
0

> <i_epik_Tot_abs_Q>
0

> <r_epik_Metal_State_Penalty>
-0

> <b_epik_Metal_Only>
0

> <s_lp_Force_Field>
OPLS_2005

> <r_lp_Energy>
52.4416

> <b_lp_Chiralities_Consistent>
1

> <s_lp_Variant>
AV-unprocessed.smi:177-5

> <Gold.Version>
5.8.1

> <Gold.Id.Protein>
6NUR|6NUR_protein|mol2

> <Gold.PLP.Fitness>
45.3561

> <Gold.PLP.PLP>
-39.6502

> <Gold.PLP.part.hbond>
-4.0000

> <Gold.PLP.part.metal>
0.0000

> <Gold.PLP.part.buried>
-6.9191

> <Gold.PLP.part.nonpolar>
-33.0315

> <Gold.PLP.part.repulsive>
3.7149

> <Gold.PLP.ligand.clash>
0.0000

> <Gold.PLP.ligand.torsion>
1.4245

> <Gold.PLP.Chemscore.Hbond>
2.5100

> <Gold.PLP.Chemscore.CHOScore>
0.0000

> <Gold.PLP.Chemscore.Metal>
0.0000

> <Gold.Chemscore.Hbonds>
donor molecule, donor type, donor heavy atom, donor atom, acceptor molecule, acceptor atom, score
      P1  H  6896  6907       L1    17  0.52
      P1  H  6931  6943       L1    23  0.38
      P1  H  6934  6947       L1    23  0.39
      P1  H  7997  8008       L1     7  1.00

> <Gold.PLP.Chemscore.Internal.Correction>
1.0250

> <Gold.Rescore>
     Score         DG    S(hbond)    S(metal)    S(lipo)     H(rot)  DE(clash)    DE(int)     intcor
      7.92     -17.23       1.49        0.00     108.56       2.32       2.05       7.26       ----

> <Gold.Chemscore.Fitness>
7.9203

> <Gold.Chemscore.DG>
-17.2329

> <Gold.Chemscore.ZeroCoef>
-5.4800

> <Gold.Chemscore.Hbond>
1.4917

> <Gold.Chemscore.Metal>
0.0000

> <Gold.Chemscore.Lipo>
108.5631

> <Gold.Chemscore.Internal_Hbond>
0.0000

> <Gold.Chemscore.DEClash>
2.0542

> <Gold.Chemscore.DEInternal>
7.2584

> <Gold.Chemscore.Rot>
2.3169

> <Gold.Chemscore.Internal.Correction>
   9.000000E+99

> <Gold.Chemscore.Hbonds>
donor molecule, donor type, donor heavy atom, donor atom, acceptor molecule, acceptor atom, score
      P1  H  6896  6907       L1    17  0.03
      P1  H  6931  6943       L1    23  0.04
      P1  H  6934  6947       L1    23  0.31
      P1  H  7997  8008       L1     7  0.70

> <Gold.Chemscore.Hbond.Weighted>
-4.9823

> <Gold.Chemscore.Metal.Weighted>
-0.0000

> <Gold.Chemscore.Lipo.Weighted>
-12.7019

> <Gold.Chemscore.Internal_Hbond.Weighted>
0.0000

> <Gold.Chemscore.DEClash.Weighted>
2.0542

> <Gold.Chemscore.DEInternal.Weighted>
7.2584

> <Gold.Chemscore.Rot.Weighted>
5.9313

> <Gold.Chemscore.Internal.Correction.Weighted>
   9.000000E+99

> <Gold.Protein.RotatedTorsions>
[ 6907 6896 6895 6894 ] final  -15.54 input  -60.11 | X-H torsion
[ 7974 7965 7964 7962 ] final -113.78 input  175.53 | X-H torsion
[ 8008 7997 7996 7995 ] final  -67.70 input   59.86 | X-H torsion
[ 10167 10162 10161 10158 ] final -125.59 input  -65.29 | X-H torsion
[ 10718 10713 10712 10709 ] final  -20.92 input   66.30 | X-H torsion
[ 10763 10752 10751 10750 ] final -144.15 input  -60.55 | X-H torsion
[ 11005 11000 10999 10996 ] final   -1.60 input  -57.11 | X-H torsion

> <Gold.Protein.ActiveResidues>
 VAL166  LYS551  ARG553  GLY616  TRP617  ASP618  TYR619  PRO620  LYS621  CYS622 
 ASP623  PHE694  ASN695  SER759  ASP760  ASP761  ALA762  ILE779  LEU786  VAL792 
 PHE793  MET794  SER795  GLU796  ALA797  LYS798  CYS799  TRP800  GLU811  SER814 

> <Gold.Protein.RotatedAtoms>
  151.3224  135.0822  159.9310 H   0  0  0  0  0  0  0  0  0  0  0  0  # atno 6907 bound_to 6896
  152.5253  133.9625  159.7734 H   0  0  0  0  0  0  0  0  0  0  0  0  # atno 6908 bound_to 6896
  150.9949  133.6061  159.2733 H   0  0  0  0  0  0  0  0  0  0  0  0  # atno 6909 bound_to 6896
  145.1280  140.8708  143.3775 H   0  0  0  0  0  0  0  0  0  0  0  0  # atno 7974 bound_to 7965
  154.4817  140.0887  156.7393 H   0  0  0  0  0  0  0  0  0  0  0  0  # atno 8008 bound_to 7997
  155.4453  140.3455  155.4276 H   0  0  0  0  0  0  0  0  0  0  0  0  # atno 8009 bound_to 7997
  156.1201  140.1472  156.9204 H   0  0  0  0  0  0  0  0  0  0  0  0  # atno 8010 bound_to 7997
  139.9805  143.5748  152.2380 H   0  0  0  0  0  0  0  0  0  0  0  0  # atno 10167 bound_to 10162
  156.5253  130.4642  149.6575 H   0  0  0  0  0  0  0  0  0  0  0  0  # atno 10718 bound_to 10713
  154.8440  135.3448  154.6301 H   0  0  0  0  0  0  0  0  0  0  0  0  # atno 10763 bound_to 10752
  153.6910  135.6975  153.5094 H   0  0  0  0  0  0  0  0  0  0  0  0  # atno 10764 bound_to 10752
  153.2595  135.4327  155.0834 H   0  0  0  0  0  0  0  0  0  0  0  0  # atno 10765 bound_to 10752
  140.6492  133.9420  155.8370 H   0  0  0  0  0  0  0  0  0  0  0  0  # atno 11005 bound_to 11000
  145.0667  139.3063  143.5853 LP  0  0  0  0  0  0  0  0  0  0  0  0  # atno 17320 bound_to 7965
  146.3516  140.0127  142.8665 LP  0  0  0  0  0  0  0  0  0  0  0  0  # atno 17321 bound_to 7965
  139.6413  144.7655  151.2332 LP  0  0  0  0  0  0  0  0  0  0  0  0  # atno 17342 bound_to 10162
  140.7491  143.6312  150.8422 LP  0  0  0  0  0  0  0  0  0  0  0  0  # atno 17343 bound_to 10162
  156.3111  130.7229  151.2122 LP  0  0  0  0  0  0  0  0  0  0  0  0  # atno 17370 bound_to 10713
  157.7430  131.0481  150.4978 LP  0  0  0  0  0  0  0  0  0  0  0  0  # atno 17371 bound_to 10713
  141.0550  134.0430  157.3735 LP  0  0  0  0  0  0  0  0  0  0  0  0  # atno 17394 bound_to 11000
  139.9052  135.0177  156.7453 LP  0  0  0  0  0  0  0  0  0  0  0  0  # atno 17395 bound_to 11000

$$$$
