AV-unprocessed.smi:3248|AV-procd|sdf|12413|dock1
  -GOLD-   2272018293D 1   1.00000     0.00000
 Structure written by MMmdl.
 38 39  0  0  0  0  0  0  0  0  1 V2000
  153.7655  140.1885  161.2282 C   0  0  0  0  0  0  0  0  0  0  0  0
  153.4343  141.3418  160.2668 C   0  0  2  0  0  0  0  0  0  0  0  0
  152.9237  142.6082  160.9912 C   0  0  0  0  0  0  0  0  0  0  0  0
  152.7467  143.7427  160.1026 N   0  0  0  0  0  0  0  0  0  0  0  0
  152.9869  143.8149  158.7463 C   0  0  0  0  0  0  0  0  0  0  0  0
  152.6893  145.0865  158.3480 C   0  0  0  0  0  0  0  0  0  0  0  0
  152.2745  145.7283  159.5486 C   0  0  0  0  0  0  0  0  0  0  0  0
  152.3150  144.9230  160.5977 N   0  0  0  0  0  0  0  0  0  0  0  0
  152.4459  140.8837  159.2946 N   0  0  0  0  0  0  0  0  0  0  0  0
  152.6290  139.9025  158.3941 C   0  0  0  0  0  0  0  0  0  0  0  0
  153.6690  139.2465  158.3367 O   0  0  0  0  0  0  0  0  0  0  0  0
  151.5231  139.6396  157.6542 N   0  0  0  0  0  0  0  0  0  0  0  0
  150.6362  140.7224  157.2022 C   0  0  0  0  0  0  0  0  0  0  0  0
  151.0549  141.1290  155.7757 C   0  0  0  0  0  0  0  0  0  0  0  0
  150.9837  139.9996  154.9083 O   0  0  0  0  0  0  0  0  0  0  0  0
  151.7877  138.9029  155.3389 C   0  0  0  0  0  0  0  0  0  0  0  0
  151.3541  138.4793  156.7567 C   0  0  1  0  0  0  0  0  0  0  0  0
  152.0307  137.1719  157.2196 C   0  0  0  0  0  0  0  0  0  0  0  0
  154.5655  140.4594  161.9175 H   0  0  0  0  0  0  0  0  0  0  0  0
  154.0977  139.3059  160.6806 H   0  0  0  0  0  0  0  0  0  0  0  0
  152.8958  139.9048  161.8217 H   0  0  0  0  0  0  0  0  0  0  0  0
  154.3519  141.5914  159.7304 H   0  0  0  0  0  0  0  0  0  0  0  0
  151.9688  142.4116  161.4807 H   0  0  0  0  0  0  0  0  0  0  0  0
  153.6219  142.8963  161.7785 H   0  0  0  0  0  0  0  0  0  0  0  0
  153.3447  142.9650  158.1838 H   0  0  0  0  0  0  0  0  0  0  0  0
  152.7587  145.4966  157.3514 H   0  0  0  0  0  0  0  0  0  0  0  0
  151.9501  146.7489  159.6885 H   0  0  0  0  0  0  0  0  0  0  0  0
  151.5475  141.3440  159.3104 H   0  0  0  0  0  0  0  0  0  0  0  0
  149.6005  140.3794  157.2085 H   0  0  0  0  0  0  0  0  0  0  0  0
  150.6591  141.5996  157.8496 H   0  0  0  0  0  0  0  0  0  0  0  0
  150.3931  141.9072  155.3952 H   0  0  0  0  0  0  0  0  0  0  0  0
  152.0664  141.5386  155.7688 H   0  0  0  0  0  0  0  0  0  0  0  0
  151.6540  138.0796  154.6370 H   0  0  0  0  0  0  0  0  0  0  0  0
  152.8436  139.1775  155.3137 H   0  0  0  0  0  0  0  0  0  0  0  0
  150.2866  138.2544  156.7245 H   0  0  0  0  0  0  0  0  0  0  0  0
  151.6840  136.3314  156.6178 H   0  0  0  0  0  0  0  0  0  0  0  0
  151.7910  136.9475  158.2595 H   0  0  0  0  0  0  0  0  0  0  0  0
  153.1150  137.2032  157.1165 H   0  0  0  0  0  0  0  0  0  0  0  0
  1  2  1  0  0  0  0
  1 19  1  0  0  0  0
  1 20  1  0  0  0  0
  1 21  1  0  0  0  0
  2  3  1  0  0  0  0
  2  9  1  0  0  0  0
  2 22  1  0  0  0  0
  3  4  1  0  0  0  0
  3 23  1  0  0  0  0
  3 24  1  0  0  0  0
  4  8  1  0  0  0  0
  4  5  1  0  0  0  0
  5  6  2  0  0  0  0
  5 25  1  0  0  0  0
  6  7  1  0  0  0  0
  6 26  1  0  0  0  0
  7  8  2  0  0  0  0
  7 27  1  0  0  0  0
  9 10  1  0  0  0  0
  9 28  1  0  0  0  0
 10 11  2  0  0  0  0
 10 12  1  0  0  0  0
 12 17  1  0  0  0  0
 12 13  1  0  0  0  0
 13 14  1  0  0  0  0
 13 29  1  0  0  0  0
 13 30  1  0  0  0  0
 14 15  1  0  0  0  0
 14 31  1  0  0  0  0
 14 32  1  0  0  0  0
 15 16  1  0  0  0  0
 16 17  1  0  0  0  0
 16 33  1  0  0  0  0
 16 34  1  0  0  0  0
 17 18  1  0  0  0  0
 17 35  1  0  0  0  0
 18 36  1  0  0  0  0
 18 37  1  0  0  0  0
 18 38  1  0  0  0  0
M  END
> <s_m_source_file>
AV-unprocessed.smi

> <i_m_source_file_index>
3248

> <i_lp_mmshare_version>
43012

> <i_f3d_flags>
0

> <s_epik_input>
bjFbY0hdW2NIXVtjSF1uMVtDSDJdW0NAQEhdKFtDSDNdKVtOSF1DKD1PKU4yW0NIMl1bQ0gyXU9bQ0gyXVtDQEhdMltDSDNd

> <s_epik_cmdline>
J2VwaWtfcHl0aG9uJywgJy1waCcsICc3LjAnLCAnLXRuJywgJzgnLCAnLW1hJywgJzIwMCcsICctbWV0YWxfYmluZGluZycsICctaW1hZScsICc8aW5maWxlLm1hZT4nLCAnLW9tYWUnLCAnPG91dGZpbGUubWFlPic=

> <r_lp_tautomer_probability>
1

> <r_epik_Ionization_Penalty>
4.45233e-05

> <r_epik_Ionization_Penalty_Charging>
0

> <r_epik_Ionization_Penalty_Neutral>
4.45233e-05

> <r_epik_State_Penalty>
-0

> <r_epik_Charging_Adjusted_Penalty>
0

> <i_epik_Tot_Q>
0

> <i_epik_Tot_abs_Q>
0

> <r_epik_Metal_State_Penalty>
-0

> <b_epik_Metal_Only>
0

> <s_lp_Force_Field>
OPLS_2005

> <r_lp_Energy>
31.5175

> <b_lp_Chiralities_Consistent>
1

> <s_lp_Variant>
AV-unprocessed.smi:3248-1

> <Gold.Version>
5.8.1

> <Gold.Id.Protein>
6NUR|6NUR_protein|mol2

> <Gold.PLP.Fitness>
48.9571

> <Gold.PLP.PLP>
-43.1411

> <Gold.PLP.part.hbond>
-1.8702

> <Gold.PLP.part.metal>
0.0000

> <Gold.PLP.part.buried>
-5.1724

> <Gold.PLP.part.nonpolar>
-35.9225

> <Gold.PLP.part.repulsive>
0.3627

> <Gold.PLP.ligand.clash>
0.0000

> <Gold.PLP.ligand.torsion>
0.3151

> <Gold.PLP.Chemscore.Hbond>
2.0000

> <Gold.PLP.Chemscore.CHOScore>
0.0000

> <Gold.PLP.Chemscore.Metal>
0.0000

> <Gold.Chemscore.Hbonds>
donor molecule, donor type, donor heavy atom, donor atom, acceptor molecule, acceptor atom, score
      P1  H  7989  7998       L1    15  0.70
      P1  H  7997  8008       L1    11  1.00

> <Gold.PLP.Chemscore.Internal.Correction>
0.4461

> <Gold.Rescore>
     Score         DG    S(hbond)    S(metal)    S(lipo)     H(rot)  DE(clash)    DE(int)     intcor
     15.11     -16.97       1.06        0.00      99.07       1.42       0.01       1.85       ----

> <Gold.Chemscore.Fitness>
15.1070

> <Gold.Chemscore.DG>
-16.9658

> <Gold.Chemscore.ZeroCoef>
-5.4800

> <Gold.Chemscore.Hbond>
1.0563

> <Gold.Chemscore.Metal>
0.0000

> <Gold.Chemscore.Lipo>
99.0655

> <Gold.Chemscore.Internal_Hbond>
0.0000

> <Gold.Chemscore.DEClash>
0.0089

> <Gold.Chemscore.DEInternal>
1.8499

> <Gold.Chemscore.Rot>
1.4191

> <Gold.Chemscore.Internal.Correction>
   9.000000E+99

> <Gold.Chemscore.Hbonds>
donor molecule, donor type, donor heavy atom, donor atom, acceptor molecule, acceptor atom, score
      P1  H  7989  7998       L1    15  0.06
      P1  H  7997  8008       L1    11  0.34

> <Gold.Chemscore.Hbond.Weighted>
-3.5282

> <Gold.Chemscore.Metal.Weighted>
-0.0000

> <Gold.Chemscore.Lipo.Weighted>
-11.5907

> <Gold.Chemscore.Internal_Hbond.Weighted>
0.0000

> <Gold.Chemscore.DEClash.Weighted>
0.0089

> <Gold.Chemscore.DEInternal.Weighted>
1.8499

> <Gold.Chemscore.Rot.Weighted>
3.6330

> <Gold.Chemscore.Internal.Correction.Weighted>
   9.000000E+99

> <Gold.Protein.RotatedTorsions>
[ 6907 6896 6895 6894 ] final  -38.26 input  -60.11 | X-H torsion
[ 7974 7965 7964 7962 ] final   42.66 input  175.53 | X-H torsion
[ 8008 7997 7996 7995 ] final  -78.54 input   59.86 | X-H torsion
[ 10167 10162 10161 10158 ] final  -58.76 input  -65.29 | X-H torsion
[ 10718 10713 10712 10709 ] final -113.51 input   66.30 | X-H torsion
[ 10763 10752 10751 10750 ] final   98.82 input  -60.55 | X-H torsion
[ 11005 11000 10999 10996 ] final   61.11 input  -57.11 | X-H torsion

> <Gold.Protein.ActiveResidues>
 VAL166  LYS551  ARG553  GLY616  TRP617  ASP618  TYR619  PRO620  LYS621  CYS622 
 ASP623  PHE694  ASN695  SER759  ASP760  ASP761  ALA762  ILE779  LEU786  VAL792 
 PHE793  MET794  SER795  GLU796  ALA797  LYS798  CYS799  TRP800  GLU811  SER814 

> <Gold.Protein.RotatedAtoms>
  151.0046  134.9349  159.7972 H   0  0  0  0  0  0  0  0  0  0  0  0  # atno 6907 bound_to 6896
  152.5287  134.3108  159.9123 H   0  0  0  0  0  0  0  0  0  0  0  0  # atno 6908 bound_to 6896
  151.3114  133.4037  159.2681 H   0  0  0  0  0  0  0  0  0  0  0  0  # atno 6909 bound_to 6896
  146.0721  139.5274  142.9591 H   0  0  0  0  0  0  0  0  0  0  0  0  # atno 7974 bound_to 7965
  154.5699  140.0692  156.8949 H   0  0  0  0  0  0  0  0  0  0  0  0  # atno 8008 bound_to 7997
  155.2653  140.3361  155.4251 H   0  0  0  0  0  0  0  0  0  0  0  0  # atno 8009 bound_to 7997
  156.2110  140.1759  156.7680 H   0  0  0  0  0  0  0  0  0  0  0  0  # atno 8010 bound_to 7997
  140.6177  143.2408  151.5556 H   0  0  0  0  0  0  0  0  0  0  0  0  # atno 10167 bound_to 10162
  156.0771  130.5977  150.8652 H   0  0  0  0  0  0  0  0  0  0  0  0  # atno 10718 bound_to 10713
  153.2937  135.4135  155.1190 H   0  0  0  0  0  0  0  0  0  0  0  0  # atno 10763 bound_to 10752
  154.8528  135.3524  154.5946 H   0  0  0  0  0  0  0  0  0  0  0  0  # atno 10764 bound_to 10752
  153.6369  135.7058  153.5313 H   0  0  0  0  0  0  0  0  0  0  0  0  # atno 10765 bound_to 10752
  140.0184  134.6190  155.9675 H   0  0  0  0  0  0  0  0  0  0  0  0  # atno 11005 bound_to 11000
  145.6372  141.0292  143.1831 LP  0  0  0  0  0  0  0  0  0  0  0  0  # atno 17320 bound_to 7965
  144.7238  139.7941  143.7372 LP  0  0  0  0  0  0  0  0  0  0  0  0  # atno 17321 bound_to 7965
  139.5412  144.2642  152.1355 LP  0  0  0  0  0  0  0  0  0  0  0  0  # atno 17342 bound_to 10162
  140.1855  144.4803  150.6506 LP  0  0  0  0  0  0  0  0  0  0  0  0  # atno 17343 bound_to 10162
  157.5872  131.0945  150.9177 LP  0  0  0  0  0  0  0  0  0  0  0  0  # atno 17370 bound_to 10713
  156.9361  130.5367  149.5279 LP  0  0  0  0  0  0  0  0  0  0  0  0  # atno 17371 bound_to 10713
  141.1758  133.6540  156.4823 LP  0  0  0  0  0  0  0  0  0  0  0  0  # atno 17394 bound_to 11000
  140.4430  134.6998  157.5001 LP  0  0  0  0  0  0  0  0  0  0  0  0  # atno 17395 bound_to 11000

$$$$
