AV-unprocessed.smi:143|AV-procd|sdf|1193|dock9
  -GOLD-   2262018353D 1   1.00000     0.00000
 Structure written by MMmdl.
 38 40  0  0  0  0  0  0  0  0  1 V2000
  153.6340  138.6634  159.5160 O   0  0  0  0  0  0  0  0  0  0  0  0
  152.8715  139.3378  158.8208 C   0  0  0  0  0  0  0  0  0  0  0  0
  152.1887  138.7071  157.5882 C   0  0  0  0  0  0  0  0  0  0  0  0
  150.7864  138.3753  157.8161 N   0  0  0  0  0  0  0  0  0  0  0  0
  149.8291  138.8945  156.9084 C   0  0  0  0  0  0  0  0  0  0  0  0
  150.1491  139.6080  155.9559 O   0  0  0  0  0  0  0  0  0  0  0  0
  148.4529  138.4999  157.1879 C   0  0  0  0  0  0  0  0  0  0  0  0
  147.4632  138.9247  156.3844 F   0  0  0  0  0  0  0  0  0  0  0  0
  148.1548  137.7082  158.2407 C   0  0  0  0  0  0  0  0  0  0  0  0
  149.1071  137.2284  159.1215 N   0  0  0  0  0  0  0  0  0  0  0  0
  148.6787  136.3051  160.2388 C   0  0  2  0  0  0  0  0  0  0  0  0
  148.0007  135.0121  159.7465 C   0  0  0  0  0  0  0  0  0  0  0  0
  146.6392  135.0646  160.4200 C   0  0  0  0  0  0  0  0  0  0  0  0
  146.8745  136.0166  161.5875 C   0  0  0  0  0  0  0  0  0  0  0  0
  147.7664  136.9799  161.0489 O   0  0  0  0  0  0  0  0  0  0  0  0
  150.4724  137.5287  158.9073 C   0  0  0  0  0  0  0  0  0  0  0  0
  151.3499  137.0609  159.6353 O   0  0  0  0  0  0  0  0  0  0  0  0
  152.5745  140.7711  159.1111 C   0  0  0  0  0  0  0  0  0  0  0  0
  151.7050  141.4853  158.2532 C   0  0  0  0  0  0  0  0  0  0  0  0
  151.4063  142.8396  158.4983 C   0  0  0  0  0  0  0  0  0  0  0  0
  151.9775  143.4988  159.6022 C   0  0  0  0  0  0  0  0  0  0  0  0
  151.5758  145.3294  159.9332 Br  0  0  0  0  0  0  0  0  0  0  0  0
  152.8472  142.8013  160.4605 C   0  0  0  0  0  0  0  0  0  0  0  0
  153.1453  141.4462  160.2176 C   0  0  0  0  0  0  0  0  0  0  0  0
  152.2402  139.3737  156.7263 H   0  0  0  0  0  0  0  0  0  0  0  0
  152.7002  137.7936  157.2806 H   0  0  0  0  0  0  0  0  0  0  0  0
  147.1191  137.4432  158.3955 H   0  0  0  0  0  0  0  0  0  0  0  0
  149.5798  136.0916  160.8155 H   0  0  0  0  0  0  0  0  0  0  0  0
  147.9377  134.9579  158.6593 H   0  0  0  0  0  0  0  0  0  0  0  0
  148.5811  134.1599  160.1013 H   0  0  0  0  0  0  0  0  0  0  0  0
  145.8990  135.4864  159.7395 H   0  0  0  0  0  0  0  0  0  0  0  0
  146.2842  134.0843  160.7387 H   0  0  0  0  0  0  0  0  0  0  0  0
  145.9549  136.4767  161.9494 H   0  0  0  0  0  0  0  0  0  0  0  0
  147.3544  135.5001  162.4203 H   0  0  0  0  0  0  0  0  0  0  0  0
  151.2538  141.0014  157.3989 H   0  0  0  0  0  0  0  0  0  0  0  0
  150.7383  143.3721  157.8374 H   0  0  0  0  0  0  0  0  0  0  0  0
  153.2882  143.3057  161.3076 H   0  0  0  0  0  0  0  0  0  0  0  0
  153.8192  140.9464  160.8969 H   0  0  0  0  0  0  0  0  0  0  0  0
  1  2  2  0  0  0  0
  2  3  1  0  0  0  0
  2 18  1  0  0  0  0
  3  4  1  0  0  0  0
  3 25  1  0  0  0  0
  3 26  1  0  0  0  0
  4 16  1  0  0  0  0
  4  5  1  0  0  0  0
  5  6  2  0  0  0  0
  5  7  1  0  0  0  0
  7  8  1  0  0  0  0
  7  9  2  0  0  0  0
  9 10  1  0  0  0  0
  9 27  1  0  0  0  0
 10 11  1  0  0  0  0
 10 16  1  0  0  0  0
 11 15  1  0  0  0  0
 11 12  1  0  0  0  0
 11 28  1  0  0  0  0
 12 13  1  0  0  0  0
 12 29  1  0  0  0  0
 12 30  1  0  0  0  0
 13 14  1  0  0  0  0
 13 31  1  0  0  0  0
 13 32  1  0  0  0  0
 14 15  1  0  0  0  0
 14 33  1  0  0  0  0
 14 34  1  0  0  0  0
 16 17  2  0  0  0  0
 18 24  1  0  0  0  0
 18 19  2  0  0  0  0
 19 20  1  0  0  0  0
 19 35  1  0  0  0  0
 20 21  2  0  0  0  0
 20 36  1  0  0  0  0
 21 22  1  0  0  0  0
 21 23  1  0  0  0  0
 23 24  2  0  0  0  0
 23 37  1  0  0  0  0
 24 38  1  0  0  0  0
M  END
> <s_m_source_file>
AV-unprocessed.smi

> <i_m_source_file_index>
143

> <i_lp_mmshare_version>
43012

> <i_f3d_flags>
0

> <s_epik_input>
W2NIXTFbY0hdYyhCcilbY0hdW2NIXWMxQyg9TylbQ0gyXW4yYyg9TyljKEYpW2NIXW4oYzI9TylbQ0BASF0zW0NIMl1bQ0gyXVtDSDJdTzM=

> <s_epik_cmdline>
J2VwaWtfcHl0aG9uJywgJy1waCcsICc3LjAnLCAnLXRuJywgJzgnLCAnLW1hJywgJzIwMCcsICctbWV0YWxfYmluZGluZycsICctaW1hZScsICc8aW5maWxlLm1hZT4nLCAnLW9tYWUnLCAnPG91dGZpbGUubWFlPic=

> <r_lp_tautomer_probability>
1

> <r_epik_Ionization_Penalty>
4.7008e-09

> <r_epik_Ionization_Penalty_Charging>
4.69459e-09

> <r_epik_Ionization_Penalty_Neutral>
6.21034e-12

> <r_epik_State_Penalty>
-0

> <r_epik_Charging_Adjusted_Penalty>
4.69459e-09

> <i_epik_Tot_Q>
0

> <i_epik_Tot_abs_Q>
0

> <r_epik_Metal_State_Penalty>
-0

> <b_epik_Metal_Only>
0

> <s_epik_Chemistry_Notes>
This compound contains an acetal/aminal-like group ( X-CH(R)-Y where X, Y are N, S, or O) that may be acid/base labile, releasing an aldehyde.

> <s_lp_Force_Field>
OPLS_2005

> <r_lp_Energy>
36.1645

> <b_lp_Chiralities_Consistent>
1

> <s_lp_Variant>
AV-unprocessed.smi:143-1

> <Gold.Version>
5.8.1

> <Gold.Id.Protein>
6NUR|6NUR_protein|mol2

> <Gold.PLP.Fitness>
48.5400

> <Gold.PLP.PLP>
-40.7574

> <Gold.PLP.part.hbond>
-3.0000

> <Gold.PLP.part.metal>
0.0000

> <Gold.PLP.part.buried>
-5.6112

> <Gold.PLP.part.nonpolar>
-32.7007

> <Gold.PLP.part.repulsive>
0.0039

> <Gold.PLP.ligand.clash>
0.0000

> <Gold.PLP.ligand.torsion>
0.2631

> <Gold.PLP.Chemscore.Hbond>
2.7600

> <Gold.PLP.Chemscore.CHOScore>
0.0000

> <Gold.PLP.Chemscore.Metal>
0.0000

> <Gold.Chemscore.Hbonds>
donor molecule, donor type, donor heavy atom, donor atom, acceptor molecule, acceptor atom, score
      P1  H  6896  6909       L1    17  1.00
      P1  H  6931  6943       L1    15  0.90
      P1  H  6934  6947       L1    15  0.67

> <Gold.PLP.Chemscore.Internal.Correction>
0.0289

> <Gold.Rescore>
     Score         DG    S(hbond)    S(metal)    S(lipo)     H(rot)  DE(clash)    DE(int)     intcor
     17.62     -20.18       2.19        0.00      97.73       1.58       0.00       2.56       ----

> <Gold.Chemscore.Fitness>
17.6174

> <Gold.Chemscore.DG>
-20.1781

> <Gold.Chemscore.ZeroCoef>
-5.4800

> <Gold.Chemscore.Hbond>
2.1854

> <Gold.Chemscore.Metal>
0.0000

> <Gold.Chemscore.Lipo>
97.7327

> <Gold.Chemscore.Internal_Hbond>
0.0000

> <Gold.Chemscore.DEClash>
0.0000

> <Gold.Chemscore.DEInternal>
2.5607

> <Gold.Chemscore.Rot>
1.5765

> <Gold.Chemscore.Internal.Correction>
   9.000000E+99

> <Gold.Chemscore.Hbonds>
donor molecule, donor type, donor heavy atom, donor atom, acceptor molecule, acceptor atom, score
      P1  H  6896  6909       L1    17  0.94
      P1  H  6931  6943       L1    15  0.17
      P1  H  6934  6947       L1    15  0.65

> <Gold.Chemscore.Hbond.Weighted>
-7.2992

> <Gold.Chemscore.Metal.Weighted>
-0.0000

> <Gold.Chemscore.Lipo.Weighted>
-11.4347

> <Gold.Chemscore.Internal_Hbond.Weighted>
0.0000

> <Gold.Chemscore.DEClash.Weighted>
0.0000

> <Gold.Chemscore.DEInternal.Weighted>
2.5607

> <Gold.Chemscore.Rot.Weighted>
4.0359

> <Gold.Chemscore.Internal.Correction.Weighted>
   9.000000E+99

> <Gold.Protein.RotatedTorsions>
[ 6907 6896 6895 6894 ] final  105.44 input  -60.11 | X-H torsion
[ 7974 7965 7964 7962 ] final  151.15 input  175.53 | X-H torsion
[ 8008 7997 7996 7995 ] final  132.75 input   59.86 | X-H torsion
[ 10167 10162 10161 10158 ] final  -77.59 input  -65.29 | X-H torsion
[ 10718 10713 10712 10709 ] final   15.21 input   66.30 | X-H torsion
[ 10763 10752 10751 10750 ] final  -24.14 input  -60.55 | X-H torsion
[ 11005 11000 10999 10996 ] final  -56.45 input  -57.11 | X-H torsion

> <Gold.Protein.ActiveResidues>
 VAL166  LYS551  ARG553  GLY616  TRP617  ASP618  TYR619  PRO620  LYS621  CYS622 
 ASP623  PHE694  ASN695  SER759  ASP760  ASP761  ALA762  ILE779  LEU786  VAL792 
 PHE793  MET794  SER795  GLU796  ALA797  LYS798  CYS799  TRP800  GLU811  SER814 

> <Gold.Protein.RotatedAtoms>
  152.5230  133.9528  159.7679 H   0  0  0  0  0  0  0  0  0  0  0  0  # atno 6907 bound_to 6896
  150.9835  133.6213  159.2726 H   0  0  0  0  0  0  0  0  0  0  0  0  # atno 6908 bound_to 6896
  151.3382  135.0863  159.9415 H   0  0  0  0  0  0  0  0  0  0  0  0  # atno 6909 bound_to 6896
  144.8313  139.6500  143.6057 H   0  0  0  0  0  0  0  0  0  0  0  0  # atno 7974 bound_to 7965
  156.2986  140.2538  156.3141 H   0  0  0  0  0  0  0  0  0  0  0  0  # atno 8008 bound_to 7997
  154.9298  140.0398  157.2061 H   0  0  0  0  0  0  0  0  0  0  0  0  # atno 8009 bound_to 7997
  154.8229  140.2863  155.5778 H   0  0  0  0  0  0  0  0  0  0  0  0  # atno 8010 bound_to 7997
  140.4757  143.2415  151.8136 H   0  0  0  0  0  0  0  0  0  0  0  0  # atno 10167 bound_to 10162
  157.0502  130.6267  149.5766 H   0  0  0  0  0  0  0  0  0  0  0  0  # atno 10718 bound_to 10713
  153.6790  135.6968  153.5124 H   0  0  0  0  0  0  0  0  0  0  0  0  # atno 10763 bound_to 10752
  153.2500  135.4278  155.0786 H   0  0  0  0  0  0  0  0  0  0  0  0  # atno 10764 bound_to 10752
  154.8405  135.3529  154.6333 H   0  0  0  0  0  0  0  0  0  0  0  0  # atno 10765 bound_to 10752
  141.1121  133.6610  156.4622 H   0  0  0  0  0  0  0  0  0  0  0  0  # atno 11005 bound_to 11000
  146.2615  139.6422  142.9358 LP  0  0  0  0  0  0  0  0  0  0  0  0  # atno 17320 bound_to 7965
  145.4890  141.0438  143.2603 LP  0  0  0  0  0  0  0  0  0  0  0  0  # atno 17321 bound_to 7965
  139.4825  144.4836  151.9275 LP  0  0  0  0  0  0  0  0  0  0  0  0  # atno 17342 bound_to 10162
  140.3921  144.2602  150.5899 LP  0  0  0  0  0  0  0  0  0  0  0  0  # atno 17343 bound_to 10162
  156.0010  130.5089  150.7662 LP  0  0  0  0  0  0  0  0  0  0  0  0  # atno 17370 bound_to 10713
  157.5036  131.0920  151.0284 LP  0  0  0  0  0  0  0  0  0  0  0  0  # atno 17371 bound_to 10713
  140.4747  134.6720  157.5145 LP  0  0  0  0  0  0  0  0  0  0  0  0  # atno 17394 bound_to 11000
  140.0020  134.6821  155.9514 LP  0  0  0  0  0  0  0  0  0  0  0  0  # atno 17395 bound_to 11000

$$$$
