AV-unprocessed.smi:74|AV-procd|sdf|763|dock3
  -GOLD-   2262017103D 1   1.00000     0.00000
 Structure written by MMmdl.
 58 62  0  0  0  0  0  0  0  0  1 V2000
  143.3031  133.8629  147.7132 O   0  0  0  0  0  0  0  0  0  0  0  0
  143.4104  132.7919  148.6287 C   0  0  0  0  0  0  0  0  0  0  0  0
  144.4456  133.0976  149.7237 C   0  0  0  0  0  0  0  0  0  0  0  0
  145.6430  132.1377  149.5712 C   0  0  0  0  0  0  0  0  0  0  0  0
  146.8433  132.7329  150.0211 O   0  0  0  0  0  0  0  0  0  0  0  0
  144.8138  134.5890  149.8935 C   0  0  0  0  0  0  0  0  0  0  0  0
  144.7864  134.4160  151.4135 C   0  0  0  0  0  0  0  0  0  0  0  0
  144.3768  135.4881  152.2721 N   0  0  0  0  0  0  0  0  0  0  0  0
  145.0800  136.6392  152.5462 C   0  0  0  0  0  0  0  0  0  0  0  0
  144.4719  137.4903  153.3265 N   0  0  0  0  0  0  0  0  0  0  0  0
  143.2420  136.8963  153.5856 C   0  0  0  0  0  0  0  0  0  0  0  0
  142.0954  137.2772  154.3393 C   0  0  0  0  0  0  0  0  0  0  0  0
  142.0331  138.4344  155.0468 N   0  0  0  0  0  0  0  0  0  0  0  0
  143.2908  139.0765  155.4218 C   0  0  0  0  0  0  0  0  0  0  0  0
  143.0293  140.1991  156.4389 C   0  0  0  0  0  0  0  0  0  0  0  0
  142.0882  141.1231  155.9023 O   0  0  0  0  0  0  0  0  0  0  0  0
  140.8343  140.5104  155.6117 C   0  0  1  0  0  0  0  0  0  0  0  0
  139.8506  141.5915  155.1431 C   0  0  0  0  0  0  0  0  0  0  0  0
  139.7556  142.6135  156.1224 O   0  0  0  0  0  0  0  0  0  0  0  0
  138.7037  143.5260  155.8631 C   0  0  0  0  0  0  0  0  0  0  0  0
  139.1899  144.5678  154.8787 C   0  0  0  0  0  0  0  0  0  0  0  0
  139.4573  145.9874  155.3250 C   0  0  0  0  0  0  0  0  0  0  0  0
  138.2742  145.6880  154.4403 C   0  0  0  0  0  0  0  0  0  0  0  0
  141.0256  139.3813  154.5795 C   0  0  0  0  0  0  0  0  0  0  0  0
  141.0325  136.4280  154.3293 N   0  0  0  0  0  0  0  0  0  0  0  0
  141.0868  135.2837  153.6420 C   0  0  0  0  0  0  0  0  0  0  0  0
  142.0897  134.7987  152.9082 N   0  0  0  0  0  0  0  0  0  0  0  0
  143.1583  135.6460  152.9092 C   0  0  0  0  0  0  0  0  0  0  0  0
  143.8746  133.2141  151.1543 C   0  0  0  0  0  0  0  0  0  0  0  0
  144.1629  134.2327  147.5824 H   0  0  0  0  0  0  0  0  0  0  0  0
  142.4266  132.5857  149.0506 H   0  0  0  0  0  0  0  0  0  0  0  0
  143.6927  131.9012  148.0664 H   0  0  0  0  0  0  0  0  0  0  0  0
  145.4913  131.2235  150.1454 H   0  0  0  0  0  0  0  0  0  0  0  0
  145.7740  131.8246  148.5352 H   0  0  0  0  0  0  0  0  0  0  0  0
  147.5221  132.0755  150.0235 H   0  0  0  0  0  0  0  0  0  0  0  0
  145.7864  134.8756  149.4922 H   0  0  0  0  0  0  0  0  0  0  0  0
  144.0337  135.2655  149.5390 H   0  0  0  0  0  0  0  0  0  0  0  0
  145.7606  134.0906  151.7819 H   0  0  0  0  0  0  0  0  0  0  0  0
  146.0679  136.8286  152.1516 H   0  0  0  0  0  0  0  0  0  0  0  0
  143.9734  138.3434  155.8536 H   0  0  0  0  0  0  0  0  0  0  0  0
  143.7709  139.4866  154.5321 H   0  0  0  0  0  0  0  0  0  0  0  0
  142.6591  139.7918  157.3811 H   0  0  0  0  0  0  0  0  0  0  0  0
  143.9567  140.7263  156.6628 H   0  0  0  0  0  0  0  0  0  0  0  0
  140.4428  140.0836  156.5369 H   0  0  0  0  0  0  0  0  0  0  0  0
  140.1989  142.0192  154.2015 H   0  0  0  0  0  0  0  0  0  0  0  0
  138.8700  141.1505  154.9576 H   0  0  0  0  0  0  0  0  0  0  0  0
  137.8469  143.0056  155.4329 H   0  0  0  0  0  0  0  0  0  0  0  0
  138.3766  144.0097  156.7850 H   0  0  0  0  0  0  0  0  0  0  0  0
  139.8497  144.1716  154.1091 H   0  0  0  0  0  0  0  0  0  0  0  0
  139.2563  146.2393  156.3644 H   0  0  0  0  0  0  0  0  0  0  0  0
  140.3048  146.5019  154.8768 H   0  0  0  0  0  0  0  0  0  0  0  0
  138.3304  146.0048  153.4009 H   0  0  0  0  0  0  0  0  0  0  0  0
  137.2850  145.7414  154.8910 H   0  0  0  0  0  0  0  0  0  0  0  0
  141.3540  139.7922  153.6238 H   0  0  0  0  0  0  0  0  0  0  0  0
  140.0696  138.8911  154.3995 H   0  0  0  0  0  0  0  0  0  0  0  0
  140.2003  134.6684  153.6889 H   0  0  0  0  0  0  0  0  0  0  0  0
  142.8161  133.4817  151.1670 H   0  0  0  0  0  0  0  0  0  0  0  0
  144.0674  132.3541  151.7963 H   0  0  0  0  0  0  0  0  0  0  0  0
  1  2  1  0  0  0  0
  1 30  1  0  0  0  0
  2  3  1  0  0  0  0
  2 31  1  0  0  0  0
  2 32  1  0  0  0  0
  3 29  1  0  0  0  0
  3  4  1  0  0  0  0
  3  6  1  0  0  0  0
  4  5  1  0  0  0  0
  4 33  1  0  0  0  0
  4 34  1  0  0  0  0
  5 35  1  0  0  0  0
  6  7  1  0  0  0  0
  6 36  1  0  0  0  0
  6 37  1  0  0  0  0
  7  8  1  0  0  0  0
  7 29  1  0  0  0  0
  7 38  1  0  0  0  0
  8 28  1  0  0  0  0
  8  9  1  0  0  0  0
  9 10  2  0  0  0  0
  9 39  1  0  0  0  0
 10 11  1  0  0  0  0
 11 28  2  0  0  0  0
 11 12  1  0  0  0  0
 12 13  1  0  0  0  0
 12 25  2  0  0  0  0
 13 24  1  0  0  0  0
 13 14  1  0  0  0  0
 14 15  1  0  0  0  0
 14 40  1  0  0  0  0
 14 41  1  0  0  0  0
 15 16  1  0  0  0  0
 15 42  1  0  0  0  0
 15 43  1  0  0  0  0
 16 17  1  0  0  0  0
 17 18  1  0  0  0  0
 17 24  1  0  0  0  0
 17 44  1  0  0  0  0
 18 19  1  0  0  0  0
 18 45  1  0  0  0  0
 18 46  1  0  0  0  0
 19 20  1  0  0  0  0
 20 21  1  0  0  0  0
 20 47  1  0  0  0  0
 20 48  1  0  0  0  0
 21 23  1  0  0  0  0
 21 22  1  0  0  0  0
 21 49  1  0  0  0  0
 22 23  1  0  0  0  0
 22 50  1  0  0  0  0
 22 51  1  0  0  0  0
 23 52  1  0  0  0  0
 23 53  1  0  0  0  0
 24 54  1  0  0  0  0
 24 55  1  0  0  0  0
 25 26  1  0  0  0  0
 26 27  2  0  0  0  0
 26 56  1  0  0  0  0
 27 28  1  0  0  0  0
 29 57  1  0  0  0  0
 29 58  1  0  0  0  0
M  END
> <s_m_source_file>
AV-unprocessed.smi

> <i_m_source_file_index>
74

> <i_lp_mmshare_version>
43012

> <i_f3d_flags>
0

> <s_epik_input>
W09IXVtDSDJdQzEoW0NIMl1bT0hdKVtDSDJdW0NIXShbQ0gyXTEpbihbY0hdbjIpYyhjMjMpbltjSF1uYzNONFtDSDJdW0NIMl1PW0NASF0oW0NIMl00KVtDSDJdT1tDSDJdW0NIXTVbQ0gyXVtDSDJdNQ==

> <s_epik_cmdline>
J2VwaWtfcHl0aG9uJywgJy1waCcsICc3LjAnLCAnLXRuJywgJzgnLCAnLW1hJywgJzIwMCcsICctbWV0YWxfYmluZGluZycsICctaW1hZScsICc8aW5maWxlLm1hZT4nLCAnLW9tYWUnLCAnPG91dGZpbGUubWFlPic=

> <r_lp_tautomer_probability>
1

> <r_epik_Ionization_Penalty>
5.89322e-05

> <r_epik_Ionization_Penalty_Charging>
0

> <r_epik_Ionization_Penalty_Neutral>
5.89322e-05

> <r_epik_State_Penalty>
-0

> <r_epik_Charging_Adjusted_Penalty>
0

> <i_epik_Tot_Q>
0

> <i_epik_Tot_abs_Q>
0

> <r_epik_Metal_State_Penalty>
-0

> <b_epik_Metal_Only>
0

> <s_lp_Force_Field>
OPLS_2005

> <r_lp_Energy>
49.0423

> <b_lp_Chiralities_Consistent>
1

> <s_lp_Variant>
AV-unprocessed.smi:74-1

> <Gold.Version>
5.8.1

> <Gold.Id.Protein>
6NUR|6NUR_protein|mol2

> <Gold.PLP.Fitness>
48.8259

> <Gold.PLP.PLP>
-42.2356

> <Gold.PLP.part.hbond>
-4.9115

> <Gold.PLP.part.metal>
0.0000

> <Gold.PLP.part.buried>
-2.1383

> <Gold.PLP.part.nonpolar>
-35.0939

> <Gold.PLP.part.repulsive>
0.7138

> <Gold.PLP.ligand.clash>
0.0000

> <Gold.PLP.ligand.torsion>
2.5930

> <Gold.PLP.Chemscore.Hbond>
2.9913

> <Gold.PLP.Chemscore.CHOScore>
0.3602

> <Gold.PLP.Chemscore.Metal>
0.0000

> <Gold.Chemscore.Hbonds>
donor molecule, donor type, donor heavy atom, donor atom, acceptor molecule, acceptor atom, score
      L1  H     1    30       P1  7921  1.00
      L1  H     5    35       P1 10747  1.00
      P1  H 10192 10197       L1     1  1.00

> <Gold.PLP.Chemscore.Internal.Correction>
1.7219

> <Gold.Rescore>
     Score         DG    S(hbond)    S(metal)    S(lipo)     H(rot)  DE(clash)    DE(int)     intcor
      8.93     -15.61       2.92        0.00      90.01       3.97       1.35       5.33       ----

> <Gold.Chemscore.Fitness>
8.9305

> <Gold.Chemscore.DG>
-15.6096

> <Gold.Chemscore.ZeroCoef>
-5.4800

> <Gold.Chemscore.Hbond>
2.9195

> <Gold.Chemscore.Metal>
0.0000

> <Gold.Chemscore.Lipo>
90.0115

> <Gold.Chemscore.Internal_Hbond>
0.0000

> <Gold.Chemscore.DEClash>
1.3535

> <Gold.Chemscore.DEInternal>
5.3256

> <Gold.Chemscore.Rot>
3.9660

> <Gold.Chemscore.Internal.Correction>
   9.000000E+99

> <Gold.Chemscore.Hbonds>
donor molecule, donor type, donor heavy atom, donor atom, acceptor molecule, acceptor atom, score
      L1  H     1    30       P1  7921  0.94
      L1  H     5    35       P1 10747  1.00
      P1  H 10192 10197       L1     1  0.65

> <Gold.Chemscore.Hbond.Weighted>
-9.7511

> <Gold.Chemscore.Metal.Weighted>
-0.0000

> <Gold.Chemscore.Lipo.Weighted>
-10.5313

> <Gold.Chemscore.Internal_Hbond.Weighted>
0.0000

> <Gold.Chemscore.DEClash.Weighted>
1.3535

> <Gold.Chemscore.DEInternal.Weighted>
5.3256

> <Gold.Chemscore.Rot.Weighted>
10.1529

> <Gold.Chemscore.Internal.Correction.Weighted>
   9.000000E+99

> <Gold.Protein.RotatedTorsions>
[ 6907 6896 6895 6894 ] final  -70.48 input  -60.11 | X-H torsion
[ 7974 7965 7964 7962 ] final -161.70 input  175.53 | X-H torsion
[ 8008 7997 7996 7995 ] final -145.84 input   59.86 | X-H torsion
[ 10167 10162 10161 10158 ] final  -28.62 input  -65.29 | X-H torsion
[ 10718 10713 10712 10709 ] final  108.69 input   66.30 | X-H torsion
[ 10763 10752 10751 10750 ] final -101.75 input  -60.55 | X-H torsion
[ 11005 11000 10999 10996 ] final   -8.64 input  -57.11 | X-H torsion

> <Gold.Protein.ActiveResidues>
 VAL166  LYS551  ARG553  GLY616  TRP617  ASP618  TYR619  PRO620  LYS621  CYS622 
 ASP623  PHE694  ASN695  SER759  ASP760  ASP761  ALA762  ILE779  LEU786  VAL792 
 PHE793  MET794  SER795  GLU796  ALA797  LYS798  CYS799  TRP800  GLU811  SER814 

> <Gold.Protein.RotatedAtoms>
  150.7256  134.5447  159.5764 H   0  0  0  0  0  0  0  0  0  0  0  0  # atno 6907 bound_to 6896
  152.2949  134.7675  160.0379 H   0  0  0  0  0  0  0  0  0  0  0  0  # atno 6908 bound_to 6896
  151.8276  133.3368  159.3640 H   0  0  0  0  0  0  0  0  0  0  0  0  # atno 6909 bound_to 6896
  144.7382  140.3360  143.6144 H   0  0  0  0  0  0  0  0  0  0  0  0  # atno 7974 bound_to 7965
  155.5497  140.0615  157.2852 H   0  0  0  0  0  0  0  0  0  0  0  0  # atno 8008 bound_to 7997
  154.4425  140.1904  156.0718 H   0  0  0  0  0  0  0  0  0  0  0  0  # atno 8009 bound_to 7997
  156.0525  140.3282  155.7371 H   0  0  0  0  0  0  0  0  0  0  0  0  # atno 8010 bound_to 7997
  140.7268  143.3995  151.1289 H   0  0  0  0  0  0  0  0  0  0  0  0  # atno 10167 bound_to 10162
  157.6575  131.0899  150.6343 H   0  0  0  0  0  0  0  0  0  0  0  0  # atno 10718 bound_to 10713
  154.7681  135.4886  153.9595 H   0  0  0  0  0  0  0  0  0  0  0  0  # atno 10763 bound_to 10752
  153.1334  135.6757  153.9150 H   0  0  0  0  0  0  0  0  0  0  0  0  # atno 10764 bound_to 10752
  153.8846  135.3128  155.3424 H   0  0  0  0  0  0  0  0  0  0  0  0  # atno 10765 bound_to 10752
  140.7256  133.8792  155.8854 H   0  0  0  0  0  0  0  0  0  0  0  0  # atno 11005 bound_to 11000
  145.7423  139.1768  143.2369 LP  0  0  0  0  0  0  0  0  0  0  0  0  # atno 17320 bound_to 7965
  146.1124  140.7411  142.9496 LP  0  0  0  0  0  0  0  0  0  0  0  0  # atno 17321 bound_to 7965
  139.7613  143.8632  152.3101 LP  0  0  0  0  0  0  0  0  0  0  0  0  # atno 17342 bound_to 10162
  139.8518  144.7160  150.9204 LP  0  0  0  0  0  0  0  0  0  0  0  0  # atno 17343 bound_to 10162
  156.6649  130.4523  149.5676 LP  0  0  0  0  0  0  0  0  0  0  0  0  # atno 17370 bound_to 10713
  156.2040  130.6637  151.1198 LP  0  0  0  0  0  0  0  0  0  0  0  0  # atno 17371 bound_to 10713
  140.9965  134.1207  157.4358 LP  0  0  0  0  0  0  0  0  0  0  0  0  # atno 17394 bound_to 11000
  139.8838  135.0056  156.6324 LP  0  0  0  0  0  0  0  0  0  0  0  0  # atno 17395 bound_to 11000

$$$$
