AV-unprocessed.smi:311|AV-procd|sdf|2297|dock8
  -GOLD-   2262022193D 1   1.00000     0.00000
 Structure written by MMmdl.
 44 46  0  0  0  0  0  0  0  0  2 V2000
  149.1839  136.0820  155.4205 C   0  0  0  0  0  0  0  0  0  0  0  0
  149.7139  134.8689  156.1300 C   0  0  0  0  0  0  0  0  0  0  0  0
  150.0758  134.9576  157.3989 N   0  0  0  0  0  0  0  0  0  0  0  0
  150.5279  133.6844  157.7585 O   0  0  0  0  0  0  0  0  0  0  0  0
  150.4186  132.8690  156.6791 C   0  0  0  0  0  0  0  0  0  0  0  0
  150.8674  131.4582  156.8593 C   0  0  0  0  0  0  0  0  0  0  0  0
  149.9087  133.5566  155.6117 C   0  0  0  0  0  0  0  0  0  0  0  0
  149.6302  133.0636  154.2153 C   0  0  0  0  0  0  0  0  0  0  0  0
  148.1301  133.1581  153.9448 C   0  0  0  0  0  0  0  0  0  0  0  0
  147.3627  132.3302  154.4352 O   0  0  0  0  0  0  0  0  0  0  0  0
  147.7240  134.1913  153.1912 N   0  0  0  0  0  0  0  0  0  0  0  0
  146.3336  134.5329  152.9120 C   0  0  2  0  0  0  0  0  0  0  0  0
  145.5830  135.0567  154.1307 C   0  0  0  0  0  0  0  0  0  0  0  0
  144.1242  134.8414  153.7240 C   0  0  0  0  0  0  0  0  0  0  0  0
  144.1096  133.5999  152.9177 N   0  3  1  0  0  0  0  0  0  0  0  0
  143.0926  133.5701  151.8383 C   0  0  0  0  0  0  0  0  0  0  0  0
  143.1657  132.2396  151.0674 C   0  0  0  0  0  0  0  0  0  0  0  0
  144.5873  131.9127  150.5633 C   0  0  0  0  0  0  0  0  0  0  0  0
  145.6220  132.9666  150.9899 C   0  0  0  0  0  0  0  0  0  0  0  0
  145.5074  133.3037  152.4938 C   0  0  1  0  0  0  0  0  0  0  0  0
  149.8679  136.4003  154.6336 H   0  0  0  0  0  0  0  0  0  0  0  0
  149.0472  136.9230  156.1016 H   0  0  0  0  0  0  0  0  0  0  0  0
  148.2197  135.8729  154.9572 H   0  0  0  0  0  0  0  0  0  0  0  0
  150.2564  130.7770  156.2673 H   0  0  0  0  0  0  0  0  0  0  0  0
  150.7935  131.1544  157.9039 H   0  0  0  0  0  0  0  0  0  0  0  0
  151.9048  131.3422  156.5456 H   0  0  0  0  0  0  0  0  0  0  0  0
  150.1781  133.6425  153.4706 H   0  0  0  0  0  0  0  0  0  0  0  0
  149.9464  132.0281  154.0855 H   0  0  0  0  0  0  0  0  0  0  0  0
  148.4304  134.8132  152.8249 H   0  0  0  0  0  0  0  0  0  0  0  0
  146.2782  135.2986  152.1349 H   0  0  0  0  0  0  0  0  0  0  0  0
  145.8176  134.4585  155.0128 H   0  0  0  0  0  0  0  0  0  0  0  0
  145.8100  136.0992  154.3557 H   0  0  0  0  0  0  0  0  0  0  0  0
  143.4555  134.7689  154.5820 H   0  0  0  0  0  0  0  0  0  0  0  0
  143.7938  135.6836  153.1137 H   0  0  0  0  0  0  0  0  0  0  0  0
  142.1003  133.6967  152.2725 H   0  0  0  0  0  0  0  0  0  0  0  0
  143.2478  134.4091  151.1579 H   0  0  0  0  0  0  0  0  0  0  0  0
  142.8245  131.4319  151.7163 H   0  0  0  0  0  0  0  0  0  0  0  0
  142.4696  132.2631  150.2284 H   0  0  0  0  0  0  0  0  0  0  0  0
  144.8878  130.9376  150.9484 H   0  0  0  0  0  0  0  0  0  0  0  0
  144.5879  131.8202  149.4767 H   0  0  0  0  0  0  0  0  0  0  0  0
  146.6267  132.6113  150.7590 H   0  0  0  0  0  0  0  0  0  0  0  0
  145.4791  133.8695  150.3943 H   0  0  0  0  0  0  0  0  0  0  0  0
  145.8209  132.4365  153.0777 H   0  0  0  0  0  0  0  0  0  0  0  0
  143.8638  132.8537  153.5523 H   0  0  0  0  0  0  0  0  0  0  0  0
  1  2  1  0  0  0  0
  1 21  1  0  0  0  0
  1 22  1  0  0  0  0
  1 23  1  0  0  0  0
  2  7  1  0  0  0  0
  2  3  2  0  0  0  0
  3  4  1  0  0  0  0
  4  5  1  0  0  0  0
  5  6  1  0  0  0  0
  5  7  2  0  0  0  0
  6 24  1  0  0  0  0
  6 25  1  0  0  0  0
  6 26  1  0  0  0  0
  7  8  1  0  0  0  0
  8  9  1  0  0  0  0
  8 27  1  0  0  0  0
  8 28  1  0  0  0  0
  9 10  2  0  0  0  0
  9 11  1  0  0  0  0
 11 12  1  0  0  0  0
 11 29  1  0  0  0  0
 12 20  1  0  0  0  0
 12 13  1  0  0  0  0
 12 30  1  0  0  0  0
 13 14  1  0  0  0  0
 13 31  1  0  0  0  0
 13 32  1  0  0  0  0
 14 15  1  0  0  0  0
 14 33  1  0  0  0  0
 14 34  1  0  0  0  0
 15 20  1  0  0  0  0
 15 16  1  0  0  0  0
 15 44  1  0  0  0  0
 16 17  1  0  0  0  0
 16 35  1  0  0  0  0
 16 36  1  0  0  0  0
 17 18  1  0  0  0  0
 17 37  1  0  0  0  0
 17 38  1  0  0  0  0
 18 19  1  0  0  0  0
 18 39  1  0  0  0  0
 18 40  1  0  0  0  0
 19 20  1  0  0  0  0
 19 41  1  0  0  0  0
 19 42  1  0  0  0  0
 20 43  1  0  0  0  0
M  CHG  1  15   1
M  END
> <s_m_source_file>
AV-unprocessed.smi

> <i_m_source_file_index>
311

> <i_lp_mmshare_version>
43012

> <i_f3d_flags>
0

> <s_epik_input>
W0NIM11jMW5vYyhbQ0gzXSljMVtDSDJdQyg9TylbTkhdW0NASF0oW0NIMl1bQ0gyXTIpW0NAQEhdKE4yMylbQ0gyXVtDSDJdW0NIMl1bQ0gyXTM=

> <s_epik_cmdline>
J2VwaWtfcHl0aG9uJywgJy1waCcsICc3LjAnLCAnLXRuJywgJzgnLCAnLW1hJywgJzIwMCcsICctbWV0YWxfYmluZGluZycsICctaW1hZScsICc8aW5maWxlLm1hZT4nLCAnLW9tYWUnLCAnPG91dGZpbGUubWFlPic=

> <r_epik_Ionization_Penalty>
0.00173669

> <r_epik_Ionization_Penalty_Charging>
0.0017366

> <r_epik_Ionization_Penalty_Neutral>
9.2145e-08

> <r_epik_State_Penalty>
0.00117499

> <r_epik_Charging_Adjusted_Penalty>
0.00291159

> <i_epik_Tot_Q>
1

> <i_epik_Tot_abs_Q>
1

> <r_epik_Metal_State_Penalty>
-0

> <b_epik_Metal_Only>
0

> <s_lp_Force_Field>
OPLS_2005

> <r_lp_Energy>
32.9133

> <b_lp_Chiralities_Consistent>
1

> <s_lp_Variant>
AV-unprocessed.smi:311-1

> <Gold.Version>
5.8.1

> <Gold.Id.Protein>
6NUR|6NUR_protein|mol2

> <Gold.PLP.Fitness>
39.6723

> <Gold.PLP.PLP>
-29.2722

> <Gold.PLP.part.hbond>
-3.8523

> <Gold.PLP.part.metal>
0.0000

> <Gold.PLP.part.buried>
-4.2674

> <Gold.PLP.part.nonpolar>
-23.2928

> <Gold.PLP.part.repulsive>
0.0357

> <Gold.PLP.ligand.clash>
0.0000

> <Gold.PLP.ligand.torsion>
0.3525

> <Gold.PLP.Chemscore.Hbond>
3.6985

> <Gold.PLP.Chemscore.CHOScore>
0.0000

> <Gold.PLP.Chemscore.Metal>
0.0000

> <Gold.Chemscore.Hbonds>
donor molecule, donor type, donor heavy atom, donor atom, acceptor molecule, acceptor atom, score
      L1  H    11    29       P1  7948  1.00
      L1  H    15    44       P1 10957  2.00
      P1  H  6896  6907       L1     4  0.81

> <Gold.PLP.Chemscore.Internal.Correction>
0.0096

> <Gold.Rescore>
     Score         DG    S(hbond)    S(metal)    S(lipo)     H(rot)  DE(clash)    DE(int)     intcor
     16.69     -18.72       2.58        0.00      69.33       1.36       0.08       1.96       ----

> <Gold.Chemscore.Fitness>
16.6877

> <Gold.Chemscore.DG>
-18.7238

> <Gold.Chemscore.ZeroCoef>
-5.4800

> <Gold.Chemscore.Hbond>
2.5763

> <Gold.Chemscore.Metal>
0.0000

> <Gold.Chemscore.Lipo>
69.3327

> <Gold.Chemscore.Internal_Hbond>
0.0000

> <Gold.Chemscore.DEClash>
0.0756

> <Gold.Chemscore.DEInternal>
1.9605

> <Gold.Chemscore.Rot>
1.3567

> <Gold.Chemscore.Internal.Correction>
   9.000000E+99

> <Gold.Chemscore.Hbonds>
donor molecule, donor type, donor heavy atom, donor atom, acceptor molecule, acceptor atom, score
      L1  H    11    29       P1  7948  0.43
      L1  H    15    44       P1 10957  0.69
      P1  H  6896  6907       L1     4  0.61

> <Gold.Chemscore.Hbond.Weighted>
-8.6050

> <Gold.Chemscore.Metal.Weighted>
-0.0000

> <Gold.Chemscore.Lipo.Weighted>
-8.1119

> <Gold.Chemscore.Internal_Hbond.Weighted>
0.0000

> <Gold.Chemscore.DEClash.Weighted>
0.0756

> <Gold.Chemscore.DEInternal.Weighted>
1.9605

> <Gold.Chemscore.Rot.Weighted>
3.4731

> <Gold.Chemscore.Internal.Correction.Weighted>
   9.000000E+99

> <Gold.Protein.RotatedTorsions>
[ 6907 6896 6895 6894 ] final -132.05 input  -60.11 | X-H torsion
[ 7974 7965 7964 7962 ] final  134.48 input  175.53 | X-H torsion
[ 8008 7997 7996 7995 ] final -116.71 input   59.86 | X-H torsion
[ 10167 10162 10161 10158 ] final  -17.24 input  -65.29 | X-H torsion
[ 10718 10713 10712 10709 ] final -174.32 input   66.30 | X-H torsion
[ 10763 10752 10751 10750 ] final   41.61 input  -60.55 | X-H torsion
[ 11005 11000 10999 10996 ] final -148.15 input  -57.11 | X-H torsion

> <Gold.Protein.ActiveResidues>
 VAL166  LYS551  ARG553  GLY616  TRP617  ASP618  TYR619  PRO620  LYS621  CYS622 
 ASP623  PHE694  ASN695  SER759  ASP760  ASP761  ALA762  ILE779  LEU786  VAL792 
 PHE793  MET794  SER795  GLU796  ALA797  LYS798  CYS799  TRP800  GLU811  SER814 

> <Gold.Protein.RotatedAtoms>
  150.9579  133.6477  159.2759 H   0  0  0  0  0  0  0  0  0  0  0  0  # atno 6907 bound_to 6896
  151.3809  135.0938  159.9505 H   0  0  0  0  0  0  0  0  0  0  0  0  # atno 6908 bound_to 6896
  152.5136  133.9114  159.7544 H   0  0  0  0  0  0  0  0  0  0  0  0  # atno 6909 bound_to 6896
  144.9760  139.4555  143.5410 H   0  0  0  0  0  0  0  0  0  0  0  0  # atno 7974 bound_to 7965
  155.0721  140.0393  157.2612 H   0  0  0  0  0  0  0  0  0  0  0  0  # atno 8008 bound_to 7997
  154.6974  140.2666  155.6728 H   0  0  0  0  0  0  0  0  0  0  0  0  # atno 8009 bound_to 7997
  156.2749  140.2747  156.1573 H   0  0  0  0  0  0  0  0  0  0  0  0  # atno 8010 bound_to 7997
  140.7244  143.5036  150.9838 H   0  0  0  0  0  0  0  0  0  0  0  0  # atno 10167 bound_to 10162
  156.7833  130.9491  151.3120 H   0  0  0  0  0  0  0  0  0  0  0  0  # atno 10718 bound_to 10713
  152.9904  135.6157  154.2815 H   0  0  0  0  0  0  0  0  0  0  0  0  # atno 10763 bound_to 10752
  154.2544  135.2784  155.2805 H   0  0  0  0  0  0  0  0  0  0  0  0  # atno 10764 bound_to 10752
  154.5260  135.5801  153.6777 H   0  0  0  0  0  0  0  0  0  0  0  0  # atno 10765 bound_to 10752
  140.7643  134.3262  157.5093 H   0  0  0  0  0  0  0  0  0  0  0  0  # atno 11005 bound_to 11000
  146.3395  139.9002  142.8795 LP  0  0  0  0  0  0  0  0  0  0  0  0  # atno 17320 bound_to 7965
  145.2490  141.0037  143.3892 LP  0  0  0  0  0  0  0  0  0  0  0  0  # atno 17321 bound_to 7965
  139.8746  143.7149  152.3163 LP  0  0  0  0  0  0  0  0  0  0  0  0  # atno 17342 bound_to 10162
  139.7409  144.7559  151.0653 LP  0  0  0  0  0  0  0  0  0  0  0  0  # atno 17343 bound_to 10162
  157.6636  130.8987  149.9882 LP  0  0  0  0  0  0  0  0  0  0  0  0  # atno 17370 bound_to 10713
  156.1204  130.3646  149.9897 LP  0  0  0  0  0  0  0  0  0  0  0  0  # atno 17371 bound_to 10713
  139.8766  134.9221  156.3292 LP  0  0  0  0  0  0  0  0  0  0  0  0  # atno 17394 bound_to 11000
  140.9634  133.7374  156.0433 LP  0  0  0  0  0  0  0  0  0  0  0  0  # atno 17395 bound_to 11000

$$$$
