AV-unprocessed.smi:199|AV-procd|sdf|1569|dock6
  -GOLD-   2262019443D 1   1.00000     0.00000
 Structure written by MMmdl.
 51 55  0  0  0  0  0  0  0  0  1 V2000
  148.9296  131.8645  158.6257 C   0  0  0  0  0  0  0  0  0  0  0  0
  149.1420  132.7984  157.4232 C   0  0  1  0  0  0  0  0  0  0  0  0
  148.9497  134.1535  157.8023 O   0  0  0  0  0  0  0  0  0  0  0  0
  149.5279  134.9535  156.7872 C   0  0  0  0  0  0  0  0  0  0  0  0
  150.8507  134.2477  156.5137 C   0  0  0  0  0  0  0  0  0  0  0  0
  150.5345  132.7656  156.7389 C   0  0  1  0  0  0  0  0  0  0  0  0
  151.5289  132.2293  157.5964 O   0  0  0  0  0  0  0  0  0  0  0  0
  150.5484  131.9581  155.4172 C   0  0  0  0  0  0  0  0  0  0  0  0
  149.3335  132.1122  154.6310 N   0  0  0  0  0  0  0  0  0  0  0  0
  148.5664  133.2483  154.5123 C   0  0  0  0  0  0  0  0  0  0  0  0
  147.5269  133.1378  153.7324 N   0  0  0  0  0  0  0  0  0  0  0  0
  147.5653  131.8204  153.2898 C   0  0  0  0  0  0  0  0  0  0  0  0
  146.7504  131.0338  152.4243 C   0  0  0  0  0  0  0  0  0  0  0  0
  145.6377  131.5047  151.7969 N   0  0  0  0  0  0  0  0  0  0  0  0
  145.0661  132.7976  152.1519 C   0  0  1  0  0  0  0  0  0  0  0  0
  146.0333  133.8228  151.5234 C   0  0  0  0  0  0  0  0  0  0  0  0
  146.4826  133.0731  150.2606 C   0  0  0  0  0  0  0  0  0  0  0  0
  145.6545  131.7736  150.3666 C   0  0  2  0  0  0  0  0  0  0  0  0
  144.1532  132.0244  150.0918 C   0  0  2  0  0  0  0  0  0  0  0  0
  143.7798  132.7049  148.7615 C   0  0  0  0  0  0  0  0  0  0  0  0
  142.4333  132.4350  148.4342 O   0  0  0  0  0  0  0  0  0  0  0  0
  143.7505  132.8098  151.3534 C   0  0  0  0  0  0  0  0  0  0  0  0
  147.1404  129.7504  152.2007 N   0  0  0  0  0  0  0  0  0  0  0  0
  148.2279  129.2573  152.7987 C   0  0  0  0  0  0  0  0  0  0  0  0
  149.0673  129.8670  153.6363 N   0  0  0  0  0  0  0  0  0  0  0  0
  148.6984  131.1623  153.8492 C   0  0  0  0  0  0  0  0  0  0  0  0
  149.0901  130.8223  158.3488 H   0  0  0  0  0  0  0  0  0  0  0  0
  147.9117  131.9512  159.0053 H   0  0  0  0  0  0  0  0  0  0  0  0
  149.6066  132.1054  159.4455 H   0  0  0  0  0  0  0  0  0  0  0  0
  148.3714  132.5855  156.6817 H   0  0  0  0  0  0  0  0  0  0  0  0
  148.8886  134.9475  155.9029 H   0  0  0  0  0  0  0  0  0  0  0  0
  149.6598  135.9856  157.1122 H   0  0  0  0  0  0  0  0  0  0  0  0
  151.2351  134.4650  155.5165 H   0  0  0  0  0  0  0  0  0  0  0  0
  151.5919  134.6041  157.2312 H   0  0  0  0  0  0  0  0  0  0  0  0
  151.9754  131.5331  157.1396 H   0  0  0  0  0  0  0  0  0  0  0  0
  151.3950  132.2659  154.8020 H   0  0  0  0  0  0  0  0  0  0  0  0
  150.6919  130.8959  155.6198 H   0  0  0  0  0  0  0  0  0  0  0  0
  148.8093  134.1721  155.0168 H   0  0  0  0  0  0  0  0  0  0  0  0
  144.9057  132.9518  153.2196 H   0  0  0  0  0  0  0  0  0  0  0  0
  145.5512  134.7754  151.3012 H   0  0  0  0  0  0  0  0  0  0  0  0
  146.8841  134.0206  152.1763 H   0  0  0  0  0  0  0  0  0  0  0  0
  146.3146  133.6328  149.3420 H   0  0  0  0  0  0  0  0  0  0  0  0
  147.5493  132.8506  150.3132 H   0  0  0  0  0  0  0  0  0  0  0  0
  146.0470  130.9698  149.7466 H   0  0  0  0  0  0  0  0  0  0  0  0
  143.6460  131.0580  150.1231 H   0  0  0  0  0  0  0  0  0  0  0  0
  143.9001  133.7846  148.8535 H   0  0  0  0  0  0  0  0  0  0  0  0
  144.4268  132.3903  147.9434 H   0  0  0  0  0  0  0  0  0  0  0  0
  141.8943  133.1284  148.7831 H   0  0  0  0  0  0  0  0  0  0  0  0
  142.9598  132.2861  151.8922 H   0  0  0  0  0  0  0  0  0  0  0  0
  143.4006  133.8213  151.1433 H   0  0  0  0  0  0  0  0  0  0  0  0
  148.4592  128.2272  152.5718 H   0  0  0  0  0  0  0  0  0  0  0  0
  1  2  1  0  0  0  0
  1 27  1  0  0  0  0
  1 28  1  0  0  0  0
  1 29  1  0  0  0  0
  2  6  1  0  0  0  0
  2  3  1  0  0  0  0
  2 30  1  0  0  0  0
  3  4  1  0  0  0  0
  4  5  1  0  0  0  0
  4 31  1  0  0  0  0
  4 32  1  0  0  0  0
  5  6  1  0  0  0  0
  5 33  1  0  0  0  0
  5 34  1  0  0  0  0
  6  7  1  0  0  0  0
  6  8  1  0  0  0  0
  7 35  1  0  0  0  0
  8  9  1  0  0  0  0
  8 36  1  0  0  0  0
  8 37  1  0  0  0  0
  9 26  1  0  0  0  0
  9 10  1  0  0  0  0
 10 11  2  0  0  0  0
 10 38  1  0  0  0  0
 11 12  1  0  0  0  0
 12 26  2  0  0  0  0
 12 13  1  0  0  0  0
 13 14  1  0  0  0  0
 13 23  2  0  0  0  0
 14 18  1  0  0  0  0
 14 15  1  0  0  0  0
 15 22  1  0  0  0  0
 15 16  1  0  0  0  0
 15 39  1  0  0  0  0
 16 17  1  0  0  0  0
 16 40  1  0  0  0  0
 16 41  1  0  0  0  0
 17 18  1  0  0  0  0
 17 42  1  0  0  0  0
 17 43  1  0  0  0  0
 18 19  1  0  0  0  0
 18 44  1  0  0  0  0
 19 20  1  0  0  0  0
 19 22  1  0  0  0  0
 19 45  1  0  0  0  0
 20 21  1  0  0  0  0
 20 46  1  0  0  0  0
 20 47  1  0  0  0  0
 21 48  1  0  0  0  0
 22 49  1  0  0  0  0
 22 50  1  0  0  0  0
 23 24  1  0  0  0  0
 24 25  2  0  0  0  0
 24 51  1  0  0  0  0
 25 26  1  0  0  0  0
M  END
> <s_m_source_file>
AV-unprocessed.smi

> <i_m_source_file_index>
199

> <i_lp_mmshare_version>
43012

> <i_f3d_flags>
0

> <s_epik_input>
W0NIMl0xW0NIMl1PW0NAQEhdKFtDSDNdKVtDQEBdMShbT0hdKVtDSDJdbihbY0hdbjIpYyhjMjMpbltjSF1uYzNOKFtDQEBIXTQ1KVtDQEhdKFtDSDJdW0NIMl00KVtDQEhdKFtDSDJdNSlbQ0gyXVtPSF0=

> <s_epik_cmdline>
J2VwaWtfcHl0aG9uJywgJy1waCcsICc3LjAnLCAnLXRuJywgJzgnLCAnLW1hJywgJzIwMCcsICctbWV0YWxfYmluZGluZycsICctaW1hZScsICc8aW5maWxlLm1hZT4nLCAnLW9tYWUnLCAnPG91dGZpbGUubWFlPic=

> <r_lp_tautomer_probability>
1

> <r_epik_Ionization_Penalty>
0.00583903

> <r_epik_Ionization_Penalty_Charging>
0

> <r_epik_Ionization_Penalty_Neutral>
0.00583903

> <r_epik_State_Penalty>
-0

> <r_epik_Charging_Adjusted_Penalty>
0

> <i_epik_Tot_Q>
0

> <i_epik_Tot_abs_Q>
0

> <r_epik_Metal_State_Penalty>
-0

> <b_epik_Metal_Only>
0

> <s_lp_Force_Field>
OPLS_2005

> <r_lp_Energy>
83.7467

> <b_lp_Chiralities_Consistent>
1

> <s_lp_Variant>
AV-unprocessed.smi:199-10

> <Gold.Version>
5.8.1

> <Gold.Id.Protein>
6NUR|6NUR_protein|mol2

> <Gold.PLP.Fitness>
48.2584

> <Gold.PLP.PLP>
-44.4045

> <Gold.PLP.part.hbond>
-4.0000

> <Gold.PLP.part.metal>
0.0000

> <Gold.PLP.part.buried>
-7.3558

> <Gold.PLP.part.nonpolar>
-34.4062

> <Gold.PLP.part.repulsive>
0.4751

> <Gold.PLP.ligand.clash>
0.0000

> <Gold.PLP.ligand.torsion>
1.0909

> <Gold.PLP.Chemscore.Hbond>
2.0000

> <Gold.PLP.Chemscore.CHOScore>
0.0000

> <Gold.PLP.Chemscore.Metal>
0.0000

> <Gold.Chemscore.Hbonds>
donor molecule, donor type, donor heavy atom, donor atom, acceptor molecule, acceptor atom, score
      L1  H    21    48       P1 10186  1.00
      P1  H  6896  6907       L1     7  1.00

> <Gold.PLP.Chemscore.Internal.Correction>
0.0356

> <Gold.Rescore>
     Score         DG    S(hbond)    S(metal)    S(lipo)     H(rot)  DE(clash)    DE(int)     intcor
     10.36     -15.16       1.95        0.00      94.33       3.07       0.26       4.53       ----

> <Gold.Chemscore.Fitness>
10.3611

> <Gold.Chemscore.DG>
-15.1562

> <Gold.Chemscore.ZeroCoef>
-5.4800

> <Gold.Chemscore.Hbond>
1.9480

> <Gold.Chemscore.Metal>
0.0000

> <Gold.Chemscore.Lipo>
94.3287

> <Gold.Chemscore.Internal_Hbond>
0.0000

> <Gold.Chemscore.DEClash>
0.2611

> <Gold.Chemscore.DEInternal>
4.5340

> <Gold.Chemscore.Rot>
3.0729

> <Gold.Chemscore.Internal.Correction>
   9.000000E+99

> <Gold.Chemscore.Hbonds>
donor molecule, donor type, donor heavy atom, donor atom, acceptor molecule, acceptor atom, score
      L1  H    21    48       P1 10186  1.00
      P1  H  6896  6907       L1     7  0.54

> <Gold.Chemscore.Hbond.Weighted>
-6.5065

> <Gold.Chemscore.Metal.Weighted>
-0.0000

> <Gold.Chemscore.Lipo.Weighted>
-11.0365

> <Gold.Chemscore.Internal_Hbond.Weighted>
0.0000

> <Gold.Chemscore.DEClash.Weighted>
0.2611

> <Gold.Chemscore.DEInternal.Weighted>
4.5340

> <Gold.Chemscore.Rot.Weighted>
7.8667

> <Gold.Chemscore.Internal.Correction.Weighted>
   9.000000E+99

> <Gold.Protein.RotatedTorsions>
[ 6907 6896 6895 6894 ] final -168.46 input  -60.11 | X-H torsion
[ 7974 7965 7964 7962 ] final   45.59 input  175.53 | X-H torsion
[ 8008 7997 7996 7995 ] final -101.70 input   59.86 | X-H torsion
[ 10167 10162 10161 10158 ] final   35.29 input  -65.29 | X-H torsion
[ 10718 10713 10712 10709 ] final  -70.66 input   66.30 | X-H torsion
[ 10763 10752 10751 10750 ] final  -31.01 input  -60.55 | X-H torsion
[ 11005 11000 10999 10996 ] final  -55.59 input  -57.11 | X-H torsion

> <Gold.Protein.ActiveResidues>
 VAL166  LYS551  ARG553  GLY616  TRP617  ASP618  TYR619  PRO620  LYS621  CYS622 
 ASP623  PHE694  ASN695  SER759  ASP760  ASP761  ALA762  ILE779  LEU786  VAL792 
 PHE793  MET794  SER795  GLU796  ALA797  LYS798  CYS799  TRP800  GLU811  SER814 

> <Gold.Protein.RotatedAtoms>
  151.4760  133.3558  159.2830 H   0  0  0  0  0  0  0  0  0  0  0  0  # atno 6907 bound_to 6896
  150.8929  134.8337  159.7317 H   0  0  0  0  0  0  0  0  0  0  0  0  # atno 6908 bound_to 6896
  152.4834  134.4671  159.9675 H   0  0  0  0  0  0  0  0  0  0  0  0  # atno 6909 bound_to 6896
  146.0466  139.4947  142.9745 H   0  0  0  0  0  0  0  0  0  0  0  0  # atno 7974 bound_to 7965
  154.8462  140.0433  157.1574 H   0  0  0  0  0  0  0  0  0  0  0  0  # atno 8008 bound_to 7997
  154.8992  140.2998  155.5306 H   0  0  0  0  0  0  0  0  0  0  0  0  # atno 8009 bound_to 7997
  156.2994  140.2379  156.4018 H   0  0  0  0  0  0  0  0  0  0  0  0  # atno 8010 bound_to 7997
  140.4235  144.1426  150.6150 H   0  0  0  0  0  0  0  0  0  0  0  0  # atno 10167 bound_to 10162
  156.0398  130.4336  150.2329 H   0  0  0  0  0  0  0  0  0  0  0  0  # atno 10718 bound_to 10713
  153.7904  135.6898  153.4872 H   0  0  0  0  0  0  0  0  0  0  0  0  # atno 10763 bound_to 10752
  153.1753  135.4527  154.9956 H   0  0  0  0  0  0  0  0  0  0  0  0  # atno 10764 bound_to 10752
  154.8047  135.3352  154.7400 H   0  0  0  0  0  0  0  0  0  0  0  0  # atno 10765 bound_to 10752
  141.1081  133.6612  156.4493 H   0  0  0  0  0  0  0  0  0  0  0  0  # atno 11005 bound_to 11000
  145.6796  141.0195  143.1614 LP  0  0  0  0  0  0  0  0  0  0  0  0  # atno 17320 bound_to 7965
  144.7101  139.8405  143.7417 LP  0  0  0  0  0  0  0  0  0  0  0  0  # atno 17321 bound_to 7965
  140.4507  143.2488  151.9351 LP  0  0  0  0  0  0  0  0  0  0  0  0  # atno 17342 bound_to 10162
  139.4783  144.5565  151.8306 LP  0  0  0  0  0  0  0  0  0  0  0  0  # atno 17343 bound_to 10162
  157.0425  131.0039  151.3279 LP  0  0  0  0  0  0  0  0  0  0  0  0  # atno 17370 bound_to 10713
  157.5199  130.7991  149.7798 LP  0  0  0  0  0  0  0  0  0  0  0  0  # atno 17371 bound_to 10713
  140.4848  134.6630  157.5186 LP  0  0  0  0  0  0  0  0  0  0  0  0  # atno 17394 bound_to 11000
  139.9961  134.6909  155.9608 LP  0  0  0  0  0  0  0  0  0  0  0  0  # atno 17395 bound_to 11000

$$$$
