AV-unprocessed.smi:1362|AV-procd|sdf|5560|dock7
  -GOLD-   22720 5153D 1   1.00000     0.00000
 Structure written by MMmdl.
 39 39  0  0  0  0  0  0  0  0  1 V2000
  153.2371  142.7673  162.6747 C   0  0  0  0  0  0  0  0  0  0  0  0
  152.7811  142.7725  161.2319 C   0  0  0  0  0  0  0  0  0  0  0  0
  151.9435  143.8300  160.9185 N   0  0  0  0  0  0  0  0  0  0  0  0
  151.4732  143.9215  159.6204 C   0  0  0  0  0  0  0  0  0  0  0  0
  150.5620  145.1093  159.3644 C   0  0  0  0  0  0  0  0  0  0  0  0
  151.8201  143.0045  158.6817 C   0  0  0  0  0  0  0  0  0  0  0  0
  151.3199  143.0635  157.2396 C   0  0  0  0  0  0  0  0  0  0  0  0
  150.6047  141.8046  156.7496 C   0  0  0  0  0  0  0  0  0  0  0  0
  150.7442  140.7405  157.3516 O   0  0  0  0  0  0  0  0  0  0  0  0
  149.8466  141.9448  155.6511 N   0  0  0  0  0  0  0  0  0  0  0  0
  149.0913  140.8821  154.9902 C   0  0  2  0  0  0  0  0  0  0  0  0
  150.0881  139.9115  154.3299 C   0  0  0  0  0  0  0  0  0  0  0  0
  148.0736  141.4940  153.9915 C   0  0  0  0  0  0  0  0  0  0  0  0
  146.9263  142.2322  154.7087 C   0  0  0  0  0  0  0  0  0  0  0  0
  147.4855  140.4420  153.0338 C   0  0  0  0  0  0  0  0  0  0  0  0
  152.7147  141.8914  159.0789 C   0  0  0  0  0  0  0  0  0  0  0  0
  153.0520  141.0200  158.2783 O   0  0  0  0  0  0  0  0  0  0  0  0
  153.1671  141.8468  160.4076 N   0  0  0  0  0  0  0  0  0  0  0  0
  151.6602  144.5335  161.5854 H   0  0  0  0  0  0  0  0  0  0  0  0
  153.9412  141.9547  162.8589 H   0  0  0  0  0  0  0  0  0  0  0  0
  152.3839  142.6375  163.3410 H   0  0  0  0  0  0  0  0  0  0  0  0
  153.7306  143.7078  162.9216 H   0  0  0  0  0  0  0  0  0  0  0  0
  150.9930  145.7649  158.6075 H   0  0  0  0  0  0  0  0  0  0  0  0
  150.4082  145.7002  160.2683 H   0  0  0  0  0  0  0  0  0  0  0  0
  149.5855  144.7733  159.0161 H   0  0  0  0  0  0  0  0  0  0  0  0
  152.1398  143.2928  156.5575 H   0  0  0  0  0  0  0  0  0  0  0  0
  150.6365  143.9067  157.1365 H   0  0  0  0  0  0  0  0  0  0  0  0
  149.7941  142.8623  155.2323 H   0  0  0  0  0  0  0  0  0  0  0  0
  148.5267  140.3285  155.7429 H   0  0  0  0  0  0  0  0  0  0  0  0
  149.5889  139.0313  153.9264 H   0  0  0  0  0  0  0  0  0  0  0  0
  150.8231  139.5526  155.0513 H   0  0  0  0  0  0  0  0  0  0  0  0
  150.6316  140.3932  153.5164 H   0  0  0  0  0  0  0  0  0  0  0  0
  148.5993  142.2304  153.3817 H   0  0  0  0  0  0  0  0  0  0  0  0
  146.3808  141.5611  155.3728 H   0  0  0  0  0  0  0  0  0  0  0  0
  146.2130  142.6405  153.9923 H   0  0  0  0  0  0  0  0  0  0  0  0
  147.2895  143.0689  155.3056 H   0  0  0  0  0  0  0  0  0  0  0  0
  147.0038  139.6319  153.5822 H   0  0  0  0  0  0  0  0  0  0  0  0
  148.2498  140.0060  152.3915 H   0  0  0  0  0  0  0  0  0  0  0  0
  146.7379  140.8856  152.3756 H   0  0  0  0  0  0  0  0  0  0  0  0
  1 20  1  0  0  0  0
  1 21  1  0  0  0  0
  1 22  1  0  0  0  0
  1  2  1  0  0  0  0
  2  3  1  0  0  0  0
  2 18  2  0  0  0  0
  3  4  1  0  0  0  0
  3 19  1  0  0  0  0
  4  6  2  0  0  0  0
  4  5  1  0  0  0  0
  5 23  1  0  0  0  0
  5 24  1  0  0  0  0
  5 25  1  0  0  0  0
  6 16  1  0  0  0  0
  6  7  1  0  0  0  0
  7  8  1  0  0  0  0
  7 26  1  0  0  0  0
  7 27  1  0  0  0  0
  8  9  2  0  0  0  0
  8 10  1  0  0  0  0
 10 11  1  0  0  0  0
 10 28  1  0  0  0  0
 11 12  1  0  0  0  0
 11 13  1  0  0  0  0
 11 29  1  0  0  0  0
 12 30  1  0  0  0  0
 12 31  1  0  0  0  0
 12 32  1  0  0  0  0
 13 14  1  0  0  0  0
 13 15  1  0  0  0  0
 13 33  1  0  0  0  0
 14 34  1  0  0  0  0
 14 35  1  0  0  0  0
 14 36  1  0  0  0  0
 15 37  1  0  0  0  0
 15 38  1  0  0  0  0
 15 39  1  0  0  0  0
 16 17  2  0  0  0  0
 16 18  1  0  0  0  0
M  END
> <s_m_source_file>
AV-unprocessed.smi

> <i_m_source_file_index>
1362

> <i_lp_mmshare_version>
43012

> <i_f3d_flags>
0

> <s_epik_input>
W0NIM11jMW5jKFtDSDNdKWMoYyg9TylbbkhdMSlbQ0gyXUMoPU8pW05IXVtDQEhdKFtDSDNdKVtDSF0oW0NIM10pW0NIM10=

> <s_epik_cmdline>
J2VwaWtfcHl0aG9uJywgJy1waCcsICc3LjAnLCAnLXRuJywgJzgnLCAnLW1hJywgJzIwMCcsICctbWV0YWxfYmluZGluZycsICctaW1hZScsICc8aW5maWxlLm1hZT4nLCAnLW9tYWUnLCAnPG91dGZpbGUubWFlPic=

> <r_lp_tautomer_probability>
0.156392

> <r_epik_Ionization_Penalty>
0.0140737

> <r_epik_Ionization_Penalty_Charging>
0.0139511

> <r_epik_Ionization_Penalty_Neutral>
0.000122633

> <r_epik_State_Penalty>
1.53034

> <r_epik_Charging_Adjusted_Penalty>
1.54429

> <i_epik_Tot_Q>
0

> <i_epik_Tot_abs_Q>
0

> <r_epik_Metal_State_Penalty>
1.70655

> <b_epik_Metal_Only>
0

> <s_lp_Force_Field>
OPLS_2005

> <r_lp_Energy>
10.2097

> <b_lp_Chiralities_Consistent>
1

> <s_lp_Variant>
AV-unprocessed.smi:1362-3

> <Gold.Version>
5.8.1

> <Gold.Id.Protein>
6NUR|6NUR_protein|mol2

> <Gold.PLP.Fitness>
42.7232

> <Gold.PLP.PLP>
-41.5347

> <Gold.PLP.part.hbond>
-1.6474

> <Gold.PLP.part.metal>
0.0000

> <Gold.PLP.part.buried>
-4.6875

> <Gold.PLP.part.nonpolar>
-35.1298

> <Gold.PLP.part.repulsive>
0.2220

> <Gold.PLP.ligand.clash>
0.0000

> <Gold.PLP.ligand.torsion>
0.5490

> <Gold.PLP.Chemscore.Hbond>
0.7531

> <Gold.PLP.Chemscore.CHOScore>
0.0000

> <Gold.PLP.Chemscore.Metal>
0.0000

> <Gold.Chemscore.Hbonds>
donor molecule, donor type, donor heavy atom, donor atom, acceptor molecule, acceptor atom, score
      L1  H    10    28       P1  8028  0.62
      P1  H  7997  8010       L1    17  0.28

> <Gold.PLP.Chemscore.Internal.Correction>
0.0271

> <Gold.Rescore>
     Score         DG    S(hbond)    S(metal)    S(lipo)     H(rot)  DE(clash)    DE(int)     intcor
     11.10     -15.18       1.39        0.00      80.17       1.69       0.10       3.98       ----

> <Gold.Chemscore.Fitness>
11.1019

> <Gold.Chemscore.DG>
-15.1778

> <Gold.Chemscore.ZeroCoef>
-5.4800

> <Gold.Chemscore.Hbond>
1.3918

> <Gold.Chemscore.Metal>
0.0000

> <Gold.Chemscore.Lipo>
80.1699

> <Gold.Chemscore.Internal_Hbond>
0.0000

> <Gold.Chemscore.DEClash>
0.0971

> <Gold.Chemscore.DEInternal>
3.9787

> <Gold.Chemscore.Rot>
1.6916

> <Gold.Chemscore.Internal.Correction>
   9.000000E+99

> <Gold.Chemscore.Hbonds>
donor molecule, donor type, donor heavy atom, donor atom, acceptor molecule, acceptor atom, score
      L1  H    10    28       P1  8028  0.61
      P1  H  7997  8010       L1    17  0.29

> <Gold.Chemscore.Hbond.Weighted>
-4.6485

> <Gold.Chemscore.Metal.Weighted>
-0.0000

> <Gold.Chemscore.Lipo.Weighted>
-9.3799

> <Gold.Chemscore.Internal_Hbond.Weighted>
0.0000

> <Gold.Chemscore.DEClash.Weighted>
0.0971

> <Gold.Chemscore.DEInternal.Weighted>
3.9787

> <Gold.Chemscore.Rot.Weighted>
4.3305

> <Gold.Chemscore.Internal.Correction.Weighted>
   9.000000E+99

> <Gold.Protein.RotatedTorsions>
[ 6907 6896 6895 6894 ] final   75.27 input  -60.11 | X-H torsion
[ 7974 7965 7964 7962 ] final   28.27 input  175.53 | X-H torsion
[ 8008 7997 7996 7995 ] final   28.69 input   59.86 | X-H torsion
[ 10167 10162 10161 10158 ] final  174.33 input  -65.29 | X-H torsion
[ 10718 10713 10712 10709 ] final  -40.14 input   66.30 | X-H torsion
[ 10763 10752 10751 10750 ] final   99.16 input  -60.55 | X-H torsion
[ 11005 11000 10999 10996 ] final -160.40 input  -57.11 | X-H torsion

> <Gold.Protein.ActiveResidues>
 VAL166  LYS551  ARG553  GLY616  TRP617  ASP618  TYR619  PRO620  LYS621  CYS622 
 ASP623  PHE694  ASN695  SER759  ASP760  ASP761  ALA762  ILE779  LEU786  VAL792 
 PHE793  MET794  SER795  GLU796  ALA797  LYS798  CYS799  TRP800  GLU811  SER814 

> <Gold.Protein.RotatedAtoms>
  152.5017  134.4146  159.9459 H   0  0  0  0  0  0  0  0  0  0  0  0  # atno 6907 bound_to 6896
  151.4116  133.3719  159.2752 H   0  0  0  0  0  0  0  0  0  0  0  0  # atno 6908 bound_to 6896
  150.9288  134.8725  159.7596 H   0  0  0  0  0  0  0  0  0  0  0  0  # atno 6909 bound_to 6896
  146.1738  139.7078  142.8949 H   0  0  0  0  0  0  0  0  0  0  0  0  # atno 7974 bound_to 7965
  155.0627  140.3192  155.4655 H   0  0  0  0  0  0  0  0  0  0  0  0  # atno 8008 bound_to 7997
  156.2809  140.2126  156.5699 H   0  0  0  0  0  0  0  0  0  0  0  0  # atno 8009 bound_to 7997
  154.7119  140.0497  157.0545 H   0  0  0  0  0  0  0  0  0  0  0  0  # atno 8010 bound_to 7997
  139.5138  144.3159  152.0248 H   0  0  0  0  0  0  0  0  0  0  0  0  # atno 10167 bound_to 10162
  156.2847  130.4221  149.8301 H   0  0  0  0  0  0  0  0  0  0  0  0  # atno 10718 bound_to 10713
  153.2980  135.4123  155.1227 H   0  0  0  0  0  0  0  0  0  0  0  0  # atno 10763 bound_to 10752
  154.8540  135.3534  154.5891 H   0  0  0  0  0  0  0  0  0  0  0  0  # atno 10764 bound_to 10752
  153.6315  135.7060  153.5332 H   0  0  0  0  0  0  0  0  0  0  0  0  # atno 10765 bound_to 10752
  140.6319  134.4642  157.5230 H   0  0  0  0  0  0  0  0  0  0  0  0  # atno 11005 bound_to 11000
  145.4268  141.0411  143.2933 LP  0  0  0  0  0  0  0  0  0  0  0  0  # atno 17320 bound_to 7965
  144.8204  139.5802  143.6989 LP  0  0  0  0  0  0  0  0  0  0  0  0  # atno 17321 bound_to 7965
  140.2602  144.4075  150.6188 LP  0  0  0  0  0  0  0  0  0  0  0  0  # atno 17342 bound_to 10162
  140.6162  143.2172  151.6786 LP  0  0  0  0  0  0  0  0  0  0  0  0  # atno 17343 bound_to 10162
  156.5735  130.8435  151.3363 LP  0  0  0  0  0  0  0  0  0  0  0  0  # atno 17370 bound_to 10713
  157.7325  130.9716  150.1930 LP  0  0  0  0  0  0  0  0  0  0  0  0  # atno 17371 bound_to 10713
  139.9113  134.8340  156.1520 LP  0  0  0  0  0  0  0  0  0  0  0  0  # atno 17394 bound_to 11000
  141.0669  133.6815  156.2062 LP  0  0  0  0  0  0  0  0  0  0  0  0  # atno 17395 bound_to 11000

$$$$
