AV-unprocessed.smi:2204|AV-procd|sdf|8939|dock9
  -GOLD-   2272012153D 1   1.00000     0.00000
 Structure written by MMmdl.
 39 40  0  0  0  0  0  0  0  0  1 V2000
  155.0326  140.7285  160.6186 C   0  0  0  0  0  0  0  0  0  0  0  0
  153.9573  141.7034  160.2395 C   0  0  0  0  0  0  0  0  0  0  0  0
  153.3753  142.7266  161.0381 C   0  0  0  0  0  0  0  0  0  0  0  0
  152.4387  143.2985  160.2241 C   0  0  0  0  0  0  0  0  0  0  0  0
  151.4825  144.4126  160.4964 C   0  0  0  0  0  0  0  0  0  0  0  0
  152.4961  142.6305  159.0130 N   0  0  0  0  0  0  0  0  0  0  0  0
  151.6911  142.8243  157.8128 C   0  0  0  0  0  0  0  0  0  0  0  0
  151.1364  141.4977  157.2836 C   0  0  0  0  0  0  0  0  0  0  0  0
  150.6290  140.6897  158.0607 O   0  0  0  0  0  0  0  0  0  0  0  0
  151.2269  141.2983  155.9593 N   0  0  0  0  0  0  0  0  0  0  0  0
  150.6142  140.2103  155.2034 C   0  0  2  0  0  0  0  0  0  0  0  0
  151.6994  139.3971  154.4835 C   0  0  0  0  0  0  0  0  0  0  0  0
  149.5633  140.7803  154.2284 C   0  0  1  0  0  0  0  0  0  0  0  0
  148.5347  139.7624  153.7161 C   0  0  0  0  0  0  0  0  0  0  0  0
  147.3215  140.6307  153.4749 C   0  0  0  0  0  0  0  0  0  0  0  0
  147.4120  141.6058  154.6417 C   0  0  0  0  0  0  0  0  0  0  0  0
  148.8043  141.8216  154.8457 O   0  0  0  0  0  0  0  0  0  0  0  0
  153.4321  141.6557  159.0267 N   0  0  0  0  0  0  0  0  0  0  0  0
  155.5225  141.0245  161.5464 H   0  0  0  0  0  0  0  0  0  0  0  0
  155.7990  140.6630  159.8457 H   0  0  0  0  0  0  0  0  0  0  0  0
  154.6191  139.7306  160.7658 H   0  0  0  0  0  0  0  0  0  0  0  0
  153.6024  142.9921  162.0600 H   0  0  0  0  0  0  0  0  0  0  0  0
  151.5887  144.7756  161.5190 H   0  0  0  0  0  0  0  0  0  0  0  0
  150.4521  144.0811  160.3648 H   0  0  0  0  0  0  0  0  0  0  0  0
  151.6602  145.2513  159.8230 H   0  0  0  0  0  0  0  0  0  0  0  0
  150.8663  143.5037  158.0281 H   0  0  0  0  0  0  0  0  0  0  0  0
  152.3063  143.3038  157.0498 H   0  0  0  0  0  0  0  0  0  0  0  0
  151.6755  142.0185  155.4119 H   0  0  0  0  0  0  0  0  0  0  0  0
  150.0934  139.5342  155.8835 H   0  0  0  0  0  0  0  0  0  0  0  0
  151.2617  138.5691  153.9253 H   0  0  0  0  0  0  0  0  0  0  0  0
  152.4091  138.9747  155.1956 H   0  0  0  0  0  0  0  0  0  0  0  0
  152.2601  140.0135  153.7799 H   0  0  0  0  0  0  0  0  0  0  0  0
  150.0665  141.2214  153.3667 H   0  0  0  0  0  0  0  0  0  0  0  0
  148.8690  139.2382  152.8206 H   0  0  0  0  0  0  0  0  0  0  0  0
  148.2963  139.0138  154.4720 H   0  0  0  0  0  0  0  0  0  0  0  0
  147.4203  141.1633  152.5282 H   0  0  0  0  0  0  0  0  0  0  0  0
  146.3873  140.0687  153.4602 H   0  0  0  0  0  0  0  0  0  0  0  0
  146.8848  142.5406  154.4512 H   0  0  0  0  0  0  0  0  0  0  0  0
  146.9940  141.1580  155.5434 H   0  0  0  0  0  0  0  0  0  0  0  0
  1  2  1  0  0  0  0
  1 19  1  0  0  0  0
  1 20  1  0  0  0  0
  1 21  1  0  0  0  0
  2 18  2  0  0  0  0
  2  3  1  0  0  0  0
  3  4  2  0  0  0  0
  3 22  1  0  0  0  0
  4  5  1  0  0  0  0
  4  6  1  0  0  0  0
  5 23  1  0  0  0  0
  5 24  1  0  0  0  0
  5 25  1  0  0  0  0
  6  7  1  0  0  0  0
  6 18  1  0  0  0  0
  7  8  1  0  0  0  0
  7 26  1  0  0  0  0
  7 27  1  0  0  0  0
  8  9  2  0  0  0  0
  8 10  1  0  0  0  0
 10 11  1  0  0  0  0
 10 28  1  0  0  0  0
 11 12  1  0  0  0  0
 11 13  1  0  0  0  0
 11 29  1  0  0  0  0
 12 30  1  0  0  0  0
 12 31  1  0  0  0  0
 12 32  1  0  0  0  0
 13 17  1  0  0  0  0
 13 14  1  0  0  0  0
 13 33  1  0  0  0  0
 14 15  1  0  0  0  0
 14 34  1  0  0  0  0
 14 35  1  0  0  0  0
 15 16  1  0  0  0  0
 15 36  1  0  0  0  0
 15 37  1  0  0  0  0
 16 17  1  0  0  0  0
 16 38  1  0  0  0  0
 16 39  1  0  0  0  0
M  END
> <s_m_source_file>
AV-unprocessed.smi

> <i_m_source_file_index>
2204

> <i_lp_mmshare_version>
43012

> <i_f3d_flags>
0

> <s_epik_input>
W0NIM11jMVtjSF1jKFtDSDNdKW4objEpW0NIMl1DKD1PKVtOSF1bQ0BIXShbQ0gzXSlbQ0BASF0yW0NIMl1bQ0gyXVtDSDJdTzI=

> <s_epik_cmdline>
J2VwaWtfcHl0aG9uJywgJy1waCcsICc3LjAnLCAnLXRuJywgJzgnLCAnLW1hJywgJzIwMCcsICctbWV0YWxfYmluZGluZycsICctaW1hZScsICc8aW5maWxlLm1hZT4nLCAnLW9tYWUnLCAnPG91dGZpbGUubWFlPic=

> <r_lp_tautomer_probability>
1

> <r_epik_Ionization_Penalty>
0.000433354

> <r_epik_Ionization_Penalty_Charging>
0

> <r_epik_Ionization_Penalty_Neutral>
0.000433354

> <r_epik_State_Penalty>
-0

> <r_epik_Charging_Adjusted_Penalty>
0

> <i_epik_Tot_Q>
0

> <i_epik_Tot_abs_Q>
0

> <r_epik_Metal_State_Penalty>
-0

> <b_epik_Metal_Only>
0

> <s_lp_Force_Field>
OPLS_2005

> <r_lp_Energy>
16.4317

> <b_lp_Chiralities_Consistent>
1

> <s_lp_Variant>
AV-unprocessed.smi:2204-3

> <Gold.Version>
5.8.1

> <Gold.Id.Protein>
6NUR|6NUR_protein|mol2

> <Gold.PLP.Fitness>
39.9513

> <Gold.PLP.PLP>
-41.1805

> <Gold.PLP.part.hbond>
0.0000

> <Gold.PLP.part.metal>
0.0000

> <Gold.PLP.part.buried>
-4.4520

> <Gold.PLP.part.nonpolar>
-37.3683

> <Gold.PLP.part.repulsive>
0.7173

> <Gold.PLP.ligand.clash>
0.0000

> <Gold.PLP.ligand.torsion>
0.6246

> <Gold.PLP.Chemscore.Hbond>
0.0000

> <Gold.PLP.Chemscore.CHOScore>
0.0000

> <Gold.PLP.Chemscore.Metal>
0.0000

> <Gold.PLP.Chemscore.Internal.Correction>
0.0199

> <Gold.Rescore>
     Score         DG    S(hbond)    S(metal)    S(lipo)     H(rot)  DE(clash)    DE(int)     intcor
     13.10     -13.51       0.00        0.00     101.51       1.50       0.04       0.38       ----

> <Gold.Chemscore.Fitness>
13.0978

> <Gold.Chemscore.DG>
-13.5150

> <Gold.Chemscore.ZeroCoef>
-5.4800

> <Gold.Chemscore.Hbond>
0.0000

> <Gold.Chemscore.Metal>
0.0000

> <Gold.Chemscore.Lipo>
101.5058

> <Gold.Chemscore.Internal_Hbond>
0.0000

> <Gold.Chemscore.DEClash>
0.0411

> <Gold.Chemscore.DEInternal>
0.3760

> <Gold.Chemscore.Rot>
1.5005

> <Gold.Chemscore.Internal.Correction>
   9.000000E+99

> <Gold.Chemscore.Hbond.Weighted>
-0.0000

> <Gold.Chemscore.Metal.Weighted>
-0.0000

> <Gold.Chemscore.Lipo.Weighted>
-11.8762

> <Gold.Chemscore.Internal_Hbond.Weighted>
0.0000

> <Gold.Chemscore.DEClash.Weighted>
0.0411

> <Gold.Chemscore.DEInternal.Weighted>
0.3760

> <Gold.Chemscore.Rot.Weighted>
3.8412

> <Gold.Chemscore.Internal.Correction.Weighted>
   9.000000E+99

> <Gold.Protein.RotatedTorsions>
[ 6907 6896 6895 6894 ] final  132.87 input  -60.11 | X-H torsion
[ 7974 7965 7964 7962 ] final -132.01 input  175.53 | X-H torsion
[ 8008 7997 7996 7995 ] final    3.07 input   59.86 | X-H torsion
[ 10167 10162 10161 10158 ] final  169.94 input  -65.29 | X-H torsion
[ 10718 10713 10712 10709 ] final -141.64 input   66.30 | X-H torsion
[ 10763 10752 10751 10750 ] final -128.53 input  -60.55 | X-H torsion
[ 11005 11000 10999 10996 ] final  123.69 input  -57.11 | X-H torsion

> <Gold.Protein.ActiveResidues>
 VAL166  LYS551  ARG553  GLY616  TRP617  ASP618  TYR619  PRO620  LYS621  CYS622 
 ASP623  PHE694  ASN695  SER759  ASP760  ASP761  ALA762  ILE779  LEU786  VAL792 
 PHE793  MET794  SER795  GLU796  ALA797  LYS798  CYS799  TRP800  GLU811  SER814 

> <Gold.Protein.RotatedAtoms>
  152.3279  133.5925  159.5788 H   0  0  0  0  0  0  0  0  0  0  0  0  # atno 6907 bound_to 6896
  150.7406  133.9913  159.3617 H   0  0  0  0  0  0  0  0  0  0  0  0  # atno 6908 bound_to 6896
  151.7791  135.0767  160.0422 H   0  0  0  0  0  0  0  0  0  0  0  0  # atno 6909 bound_to 6896
  144.9325  140.7145  143.4897 H   0  0  0  0  0  0  0  0  0  0  0  0  # atno 7974 bound_to 7965
  154.6992  140.2669  155.6736 H   0  0  0  0  0  0  0  0  0  0  0  0  # atno 8008 bound_to 7997
  156.2759  140.2775  156.1521 H   0  0  0  0  0  0  0  0  0  0  0  0  # atno 8009 bound_to 7997
  155.0788  140.0372  157.2622 H   0  0  0  0  0  0  0  0  0  0  0  0  # atno 8010 bound_to 7997
  139.5005  144.3651  151.9784 H   0  0  0  0  0  0  0  0  0  0  0  0  # atno 10167 bound_to 10162
  156.3364  130.7614  151.1741 H   0  0  0  0  0  0  0  0  0  0  0  0  # atno 10718 bound_to 10713
  154.8756  135.3925  154.3771 H   0  0  0  0  0  0  0  0  0  0  0  0  # atno 10763 bound_to 10752
  153.4523  135.7028  153.6106 H   0  0  0  0  0  0  0  0  0  0  0  0  # atno 10764 bound_to 10752
  153.4640  135.3805  155.2323 H   0  0  0  0  0  0  0  0  0  0  0  0  # atno 10765 bound_to 10752
  139.9324  134.9641  156.8297 H   0  0  0  0  0  0  0  0  0  0  0  0  # atno 11005 bound_to 11000
  145.3119  139.1816  143.4634 LP  0  0  0  0  0  0  0  0  0  0  0  0  # atno 17320 bound_to 7965
  146.3253  140.3124  142.8627 LP  0  0  0  0  0  0  0  0  0  0  0  0  # atno 17321 bound_to 7965
  140.3087  144.3563  150.6040 LP  0  0  0  0  0  0  0  0  0  0  0  0  # atno 17342 bound_to 10162
  140.5816  143.2172  151.7418 LP  0  0  0  0  0  0  0  0  0  0  0  0  # atno 17343 bound_to 10162
  157.7439  131.0467  150.4906 LP  0  0  0  0  0  0  0  0  0  0  0  0  # atno 17370 bound_to 10713
  156.5079  130.4132  149.6317 LP  0  0  0  0  0  0  0  0  0  0  0  0  # atno 17371 bound_to 10713
  140.6166  134.0033  155.7600 LP  0  0  0  0  0  0  0  0  0  0  0  0  # atno 17394 bound_to 11000
  141.0920  133.9902  157.3222 LP  0  0  0  0  0  0  0  0  0  0  0  0  # atno 17395 bound_to 11000

$$$$
