AV-unprocessed.smi:1205|AV-procd|sdf|5042|dock3
  -GOLD-   22720 4 63D 1   1.00000     0.00000
 Structure written by MMmdl.
 49 50  0  0  0  0  0  0  0  0  2 V2000
  150.7709  142.3271  155.8163 C   0  0  0  0  0  0  0  0  0  0  0  0
  150.4272  141.0333  155.1394 C   0  0  0  0  0  0  0  0  0  0  0  0
  149.1603  140.6131  154.6395 C   0  0  0  0  0  0  0  0  0  0  0  0
  149.4322  139.3695  154.1382 C   0  0  0  0  0  0  0  0  0  0  0  0
  148.5899  138.4859  153.5400 N   0  0  0  0  0  0  0  0  0  0  0  0
  147.2489  138.4244  153.6104 C   0  0  0  0  0  0  0  0  0  0  0  0
  146.5290  139.1883  154.2538 O   0  0  0  0  0  0  0  0  0  0  0  0
  146.7710  137.4130  152.8717 N   0  0  0  0  0  0  0  0  0  0  0  0
  145.3575  137.0782  152.7308 C   0  0  0  0  0  0  0  0  0  0  0  0
  145.0262  136.4703  151.3435 C   0  0  1  0  0  0  0  0  0  0  0  0
  145.9000  137.0514  150.2156 C   0  0  0  0  0  0  0  0  0  0  0  0
  145.0729  134.9793  151.3298 N   0  3  2  0  0  0  0  0  0  0  0  0
  146.4288  134.4256  151.5836 C   0  0  0  0  0  0  0  0  0  0  0  0
  146.3600  132.9110  151.8365 C   0  0  0  0  0  0  0  0  0  0  0  0
  145.6684  132.1862  150.6720 C   0  0  0  0  0  0  0  0  0  0  0  0
  144.2928  132.8059  150.3597 C   0  0  1  0  0  0  0  0  0  0  0  0
  143.2234  132.4463  151.4061 C   0  0  0  0  0  0  0  0  0  0  0  0
  144.4214  134.3296  150.1584 C   0  0  0  0  0  0  0  0  0  0  0  0
  150.7660  139.0906  154.3382 N   0  0  0  0  0  0  0  0  0  0  0  0
  151.5224  137.9034  153.9901 C   0  0  0  0  0  0  0  0  0  0  0  0
  151.3777  140.1234  154.9571 N   0  0  0  0  0  0  0  0  0  0  0  0
  149.9039  142.9855  155.8723 H   0  0  0  0  0  0  0  0  0  0  0  0
  151.5553  142.8574  155.2758 H   0  0  0  0  0  0  0  0  0  0  0  0
  151.1231  142.1557  156.8339 H   0  0  0  0  0  0  0  0  0  0  0  0
  148.2232  141.1486  154.6597 H   0  0  0  0  0  0  0  0  0  0  0  0
  149.0379  137.7950  152.9562 H   0  0  0  0  0  0  0  0  0  0  0  0
  147.4302  136.8320  152.3741 H   0  0  0  0  0  0  0  0  0  0  0  0
  145.1189  136.3711  153.5252 H   0  0  0  0  0  0  0  0  0  0  0  0
  144.7585  137.9699  152.9211 H   0  0  0  0  0  0  0  0  0  0  0  0
  144.0020  136.7476  151.0907 H   0  0  0  0  0  0  0  0  0  0  0  0
  145.7250  138.1204  150.0916 H   0  0  0  0  0  0  0  0  0  0  0  0
  145.6739  136.5771  149.2603 H   0  0  0  0  0  0  0  0  0  0  0  0
  146.9635  136.9176  150.4118 H   0  0  0  0  0  0  0  0  0  0  0  0
  147.0815  134.6330  150.7348 H   0  0  0  0  0  0  0  0  0  0  0  0
  146.8752  134.9101  152.4528 H   0  0  0  0  0  0  0  0  0  0  0  0
  147.3653  132.5121  151.9751 H   0  0  0  0  0  0  0  0  0  0  0  0
  145.8248  132.7170  152.7665 H   0  0  0  0  0  0  0  0  0  0  0  0
  146.3010  132.2559  149.7862 H   0  0  0  0  0  0  0  0  0  0  0  0
  145.5699  131.1226  150.8923 H   0  0  0  0  0  0  0  0  0  0  0  0
  143.9527  132.3791  149.4153 H   0  0  0  0  0  0  0  0  0  0  0  0
  143.4629  132.8497  152.3898 H   0  0  0  0  0  0  0  0  0  0  0  0
  143.1215  131.3654  151.5066 H   0  0  0  0  0  0  0  0  0  0  0  0
  142.2485  132.8406  151.1182 H   0  0  0  0  0  0  0  0  0  0  0  0
  143.4345  134.7557  149.9800 H   0  0  0  0  0  0  0  0  0  0  0  0
  145.0112  134.5213  149.2611 H   0  0  0  0  0  0  0  0  0  0  0  0
  151.3158  137.6245  152.9565 H   0  0  0  0  0  0  0  0  0  0  0  0
  151.2342  137.0820  154.6464 H   0  0  0  0  0  0  0  0  0  0  0  0
  152.5927  138.0853  154.0974 H   0  0  0  0  0  0  0  0  0  0  0  0
  144.5269  134.7000  152.1323 H   0  0  0  0  0  0  0  0  0  0  0  0
  1  2  1  0  0  0  0
  1 22  1  0  0  0  0
  1 23  1  0  0  0  0
  1 24  1  0  0  0  0
  2 21  2  0  0  0  0
  2  3  1  0  0  0  0
  3  4  2  0  0  0  0
  3 25  1  0  0  0  0
  4  5  1  0  0  0  0
  4 19  1  0  0  0  0
  5  6  1  0  0  0  0
  5 26  1  0  0  0  0
  6  7  2  0  0  0  0
  6  8  1  0  0  0  0
  8  9  1  0  0  0  0
  8 27  1  0  0  0  0
  9 10  1  0  0  0  0
  9 28  1  0  0  0  0
  9 29  1  0  0  0  0
 10 11  1  0  0  0  0
 10 12  1  0  0  0  0
 10 30  1  0  0  0  0
 11 31  1  0  0  0  0
 11 32  1  0  0  0  0
 11 33  1  0  0  0  0
 12 18  1  0  0  0  0
 12 13  1  0  0  0  0
 12 49  1  0  0  0  0
 13 14  1  0  0  0  0
 13 34  1  0  0  0  0
 13 35  1  0  0  0  0
 14 15  1  0  0  0  0
 14 36  1  0  0  0  0
 14 37  1  0  0  0  0
 15 16  1  0  0  0  0
 15 38  1  0  0  0  0
 15 39  1  0  0  0  0
 16 17  1  0  0  0  0
 16 18  1  0  0  0  0
 16 40  1  0  0  0  0
 17 41  1  0  0  0  0
 17 42  1  0  0  0  0
 17 43  1  0  0  0  0
 18 44  1  0  0  0  0
 18 45  1  0  0  0  0
 19 20  1  0  0  0  0
 19 21  1  0  0  0  0
 20 46  1  0  0  0  0
 20 47  1  0  0  0  0
 20 48  1  0  0  0  0
M  CHG  1  12   1
M  END
> <s_m_source_file>
AV-unprocessed.smi

> <i_m_source_file_index>
1205

> <i_lp_mmshare_version>
43012

> <i_f3d_flags>
0

> <s_epik_input>
W0NIM11jMVtjSF1jKG4objEpW0NIM10pW05IXUMoPU8pW05IXVtDSDJdW0NASF0oW0NIM10pTjJbQ0gyXVtDSDJdW0NIMl1bQ0BASF0oW0NIM10pW0NIMl0y

> <s_epik_cmdline>
J2VwaWtfcHl0aG9uJywgJy1waCcsICc3LjAnLCAnLXRuJywgJzgnLCAnLW1hJywgJzIwMCcsICctbWV0YWxfYmluZGluZycsICctaW1hZScsICc8aW5maWxlLm1hZT4nLCAnLW9tYWUnLCAnPG91dGZpbGUubWFlPic=

> <r_lp_tautomer_probability>
1

> <r_epik_Ionization_Penalty>
0.0020309

> <r_epik_Ionization_Penalty_Charging>
0.00195276

> <r_epik_Ionization_Penalty_Neutral>
7.81448e-05

> <r_epik_State_Penalty>
0.00133177

> <r_epik_Charging_Adjusted_Penalty>
0.00328452

> <i_epik_Tot_Q>
1

> <i_epik_Tot_abs_Q>
1

> <r_epik_Metal_State_Penalty>
-0

> <b_epik_Metal_Only>
0

> <s_lp_Force_Field>
OPLS_2005

> <r_lp_Energy>
24.2005

> <b_lp_Chiralities_Consistent>
1

> <s_lp_Variant>
AV-unprocessed.smi:1205-4

> <Gold.Version>
5.8.1

> <Gold.Id.Protein>
6NUR|6NUR_protein|mol2

> <Gold.PLP.Fitness>
42.0640

> <Gold.PLP.PLP>
-36.8907

> <Gold.PLP.part.hbond>
-3.4166

> <Gold.PLP.part.metal>
0.0000

> <Gold.PLP.part.buried>
5.1033

> <Gold.PLP.part.nonpolar>
-38.0436

> <Gold.PLP.part.repulsive>
0.2070

> <Gold.PLP.ligand.clash>
0.0000

> <Gold.PLP.ligand.torsion>
0.7392

> <Gold.PLP.Chemscore.Hbond>
2.1800

> <Gold.PLP.Chemscore.CHOScore>
0.0000

> <Gold.PLP.Chemscore.Metal>
0.0000

> <Gold.Chemscore.Hbonds>
donor molecule, donor type, donor heavy atom, donor atom, acceptor molecule, acceptor atom, score
      L1  H     5    26       P1  7948  1.00
      L1  H     8    27       P1  7948  1.00
      P1  H  7989  7998       L1    21  0.17

> <Gold.PLP.Chemscore.Internal.Correction>
0.1118

> <Gold.Rescore>
     Score         DG    S(hbond)    S(metal)    S(lipo)     H(rot)  DE(clash)    DE(int)     intcor
     15.30     -19.49       1.93        0.00      96.84       1.47       2.20       1.99       ----

> <Gold.Chemscore.Fitness>
15.2968

> <Gold.Chemscore.DG>
-19.4872

> <Gold.Chemscore.ZeroCoef>
-5.4800

> <Gold.Chemscore.Hbond>
1.9251

> <Gold.Chemscore.Metal>
0.0000

> <Gold.Chemscore.Lipo>
96.8380

> <Gold.Chemscore.Internal_Hbond>
0.0000

> <Gold.Chemscore.DEClash>
2.1964

> <Gold.Chemscore.DEInternal>
1.9940

> <Gold.Chemscore.Rot>
1.4658

> <Gold.Chemscore.Internal.Correction>
   9.000000E+99

> <Gold.Chemscore.Hbonds>
donor molecule, donor type, donor heavy atom, donor atom, acceptor molecule, acceptor atom, score
      L1  H     5    26       P1  7948  0.96
      L1  H     8    27       P1  7948  0.99

> <Gold.Chemscore.Hbond.Weighted>
-6.4298

> <Gold.Chemscore.Metal.Weighted>
-0.0000

> <Gold.Chemscore.Lipo.Weighted>
-11.3300

> <Gold.Chemscore.Internal_Hbond.Weighted>
0.0000

> <Gold.Chemscore.DEClash.Weighted>
2.1964

> <Gold.Chemscore.DEInternal.Weighted>
1.9940

> <Gold.Chemscore.Rot.Weighted>
3.7526

> <Gold.Chemscore.Internal.Correction.Weighted>
   9.000000E+99

> <Gold.Protein.RotatedTorsions>
[ 6907 6896 6895 6894 ] final  -26.12 input  -60.11 | X-H torsion
[ 7974 7965 7964 7962 ] final -164.26 input  175.53 | X-H torsion
[ 8008 7997 7996 7995 ] final  105.17 input   59.86 | X-H torsion
[ 10167 10162 10161 10158 ] final  100.02 input  -65.29 | X-H torsion
[ 10718 10713 10712 10709 ] final -157.11 input   66.30 | X-H torsion
[ 10763 10752 10751 10750 ] final  -24.87 input  -60.55 | X-H torsion
[ 11005 11000 10999 10996 ] final  -77.10 input  -57.11 | X-H torsion

> <Gold.Protein.ActiveResidues>
 VAL166  LYS551  ARG553  GLY616  TRP617  ASP618  TYR619  PRO620  LYS621  CYS622 
 ASP623  PHE694  ASN695  SER759  ASP760  ASP761  ALA762  ILE779  LEU786  VAL792 
 PHE793  MET794  SER795  GLU796  ALA797  LYS798  CYS799  TRP800  GLU811  SER814 

> <Gold.Protein.RotatedAtoms>
  151.1655  135.0293  159.8728 H   0  0  0  0  0  0  0  0  0  0  0  0  # atno 6907 bound_to 6896
  152.5450  134.1230  159.8417 H   0  0  0  0  0  0  0  0  0  0  0  0  # atno 6908 bound_to 6896
  151.1330  133.4977  159.2631 H   0  0  0  0  0  0  0  0  0  0  0  0  # atno 6909 bound_to 6896
  144.7302  140.2987  143.6208 H   0  0  0  0  0  0  0  0  0  0  0  0  # atno 7974 bound_to 7965
  156.1636  140.3135  155.8849 H   0  0  0  0  0  0  0  0  0  0  0  0  # atno 8008 bound_to 7997
  155.3732  140.0483  157.3062 H   0  0  0  0  0  0  0  0  0  0  0  0  # atno 8009 bound_to 7997
  154.5170  140.2185  155.9058 H   0  0  0  0  0  0  0  0  0  0  0  0  # atno 8010 bound_to 7997
  139.7564  144.6968  151.0356 H   0  0  0  0  0  0  0  0  0  0  0  0  # atno 10167 bound_to 10162
  156.5358  130.8541  151.2732 H   0  0  0  0  0  0  0  0  0  0  0  0  # atno 10718 bound_to 10713
  153.6907  135.6962  153.5091 H   0  0  0  0  0  0  0  0  0  0  0  0  # atno 10763 bound_to 10752
  153.2415  135.4304  155.0702 H   0  0  0  0  0  0  0  0  0  0  0  0  # atno 10764 bound_to 10752
  154.8373  135.3509  154.6449 H   0  0  0  0  0  0  0  0  0  0  0  0  # atno 10765 bound_to 10752
  141.1658  133.7009  156.7770 H   0  0  0  0  0  0  0  0  0  0  0  0  # atno 11005 bound_to 11000
  145.7782  139.1881  143.2173 LP  0  0  0  0  0  0  0  0  0  0  0  0  # atno 17320 bound_to 7965
  146.0855  140.7715  142.9620 LP  0  0  0  0  0  0  0  0  0  0  0  0  # atno 17321 bound_to 7965
  140.7803  143.4748  151.0098 LP  0  0  0  0  0  0  0  0  0  0  0  0  # atno 17342 bound_to 10162
  139.8434  143.7533  152.3180 LP  0  0  0  0  0  0  0  0  0  0  0  0  # atno 17343 bound_to 10162
  157.7414  130.9869  150.2442 LP  0  0  0  0  0  0  0  0  0  0  0  0  # atno 17370 bound_to 10713
  156.3017  130.3759  149.7744 LP  0  0  0  0  0  0  0  0  0  0  0  0  # atno 17371 bound_to 10713
  140.2423  134.8604  157.3585 LP  0  0  0  0  0  0  0  0  0  0  0  0  # atno 17394 bound_to 11000
  140.1784  134.4520  155.7787 LP  0  0  0  0  0  0  0  0  0  0  0  0  # atno 17395 bound_to 11000

$$$$
