AV-unprocessed.smi:2309|AV-procd|sdf|9253|dock4
  -GOLD-   2272012473D 1   1.00000     0.00000
 Structure written by MMmdl.
 34 35  0  0  0  0  0  0  0  0  1 V2000
  146.3051  142.1583  153.3828 C   0  0  0  0  0  0  0  0  0  0  0  0
  147.3396  141.9486  154.4745 C   0  0  0  0  0  0  0  0  0  0  0  0
  148.6543  141.7710  154.0341 N   0  0  0  0  0  0  0  0  0  0  0  0
  149.6018  141.5846  154.8933 C   0  0  0  0  0  0  0  0  0  0  0  0
  149.3511  141.5558  156.2758 N   0  0  0  0  0  0  0  0  0  0  0  0
  150.5176  141.3294  157.1468 C   0  0  0  0  0  0  0  0  0  0  0  0
  150.8178  142.5433  158.0550 C   0  0  2  0  0  0  0  0  0  0  0  0
  151.2577  143.6190  157.2480 O   0  0  0  0  0  0  0  0  0  0  0  0
  151.8456  142.1762  159.1243 C   0  0  0  0  0  0  0  0  0  0  0  0
  152.3261  140.8488  159.2149 C   0  0  0  0  0  0  0  0  0  0  0  0
  153.2662  140.4903  160.1995 C   0  0  0  0  0  0  0  0  0  0  0  0
  153.8423  138.8668  160.2918 Cl  0  0  0  0  0  0  0  0  0  0  0  0
  153.7333  141.4556  161.1097 C   0  0  0  0  0  0  0  0  0  0  0  0
  153.2530  142.7759  161.0377 C   0  0  0  0  0  0  0  0  0  0  0  0
  152.3103  143.1401  160.0553 C   0  0  0  0  0  0  0  0  0  0  0  0
  151.7362  144.7713  160.0336 Cl  0  0  0  0  0  0  0  0  0  0  0  0
  148.0980  141.7201  156.7899 C   0  0  0  0  0  0  0  0  0  0  0  0
  147.8859  141.6927  158.0036 O   0  0  0  0  0  0  0  0  0  0  0  0
  147.0293  141.9307  155.7996 C   0  0  0  0  0  0  0  0  0  0  0  0
  145.6158  142.1170  156.3371 C   0  0  0  0  0  0  0  0  0  0  0  0
  145.5367  141.3862  153.4301 H   0  0  0  0  0  0  0  0  0  0  0  0
  146.7590  142.1165  152.3918 H   0  0  0  0  0  0  0  0  0  0  0  0
  145.8289  143.1332  153.4910 H   0  0  0  0  0  0  0  0  0  0  0  0
  150.6431  141.4358  154.6021 H   0  0  0  0  0  0  0  0  0  0  0  0
  150.3107  140.4582  157.7723 H   0  0  0  0  0  0  0  0  0  0  0  0
  151.4063  141.0429  156.5815 H   0  0  0  0  0  0  0  0  0  0  0  0
  149.9057  142.8864  158.5422 H   0  0  0  0  0  0  0  0  0  0  0  0
  150.5206  143.9469  156.7558 H   0  0  0  0  0  0  0  0  0  0  0  0
  151.9718  140.0922  158.5300 H   0  0  0  0  0  0  0  0  0  0  0  0
  154.4542  141.1841  161.8669 H   0  0  0  0  0  0  0  0  0  0  0  0
  153.6073  143.5123  161.7443 H   0  0  0  0  0  0  0  0  0  0  0  0
  145.5780  142.9769  157.0067 H   0  0  0  0  0  0  0  0  0  0  0  0
  145.3092  141.2353  156.9010 H   0  0  0  0  0  0  0  0  0  0  0  0
  144.8762  142.2793  155.5547 H   0  0  0  0  0  0  0  0  0  0  0  0
  1  2  1  0  0  0  0
  1 21  1  0  0  0  0
  1 22  1  0  0  0  0
  1 23  1  0  0  0  0
  2 19  2  0  0  0  0
  2  3  1  0  0  0  0
  3  4  2  0  0  0  0
  4  5  1  0  0  0  0
  4 24  1  0  0  0  0
  5  6  1  0  0  0  0
  5 17  1  0  0  0  0
  6  7  1  0  0  0  0
  6 25  1  0  0  0  0
  6 26  1  0  0  0  0
  7  8  1  0  0  0  0
  7  9  1  0  0  0  0
  7 27  1  0  0  0  0
  8 28  1  0  0  0  0
  9 15  1  0  0  0  0
  9 10  2  0  0  0  0
 10 11  1  0  0  0  0
 10 29  1  0  0  0  0
 11 12  1  0  0  0  0
 11 13  2  0  0  0  0
 13 14  1  0  0  0  0
 13 30  1  0  0  0  0
 14 15  2  0  0  0  0
 14 31  1  0  0  0  0
 15 16  1  0  0  0  0
 17 18  2  0  0  0  0
 17 19  1  0  0  0  0
 19 20  1  0  0  0  0
 20 32  1  0  0  0  0
 20 33  1  0  0  0  0
 20 34  1  0  0  0  0
M  END
> <s_m_source_file>
AV-unprocessed.smi

> <i_m_source_file_index>
2309

> <i_lp_mmshare_version>
43012

> <i_f3d_flags>
0

> <s_epik_input>
W0NIM11jMW5bY0hdbihjKD1PKWMxW0NIM10pW0NIMl1bQ0BIXShbT0hdKWMyW2NIXWMoQ2wpW2NIXVtjSF1jMkNs

> <s_epik_cmdline>
J2VwaWtfcHl0aG9uJywgJy1waCcsICc3LjAnLCAnLXRuJywgJzgnLCAnLW1hJywgJzIwMCcsICctbWV0YWxfYmluZGluZycsICctaW1hZScsICc8aW5maWxlLm1hZT4nLCAnLW9tYWUnLCAnPG91dGZpbGUubWFlPic=

> <r_lp_tautomer_probability>
1

> <r_epik_Ionization_Penalty>
5.09224e-05

> <r_epik_Ionization_Penalty_Charging>
7.56727e-08

> <r_epik_Ionization_Penalty_Neutral>
5.08468e-05

> <r_epik_State_Penalty>
-0

> <r_epik_Charging_Adjusted_Penalty>
7.56727e-08

> <i_epik_Tot_Q>
0

> <i_epik_Tot_abs_Q>
0

> <r_epik_Metal_State_Penalty>
-0

> <b_epik_Metal_Only>
0

> <s_lp_Force_Field>
OPLS_2005

> <r_lp_Energy>
19.5674

> <b_lp_Chiralities_Consistent>
1

> <s_lp_Variant>
AV-unprocessed.smi:2309-1

> <Gold.Version>
5.8.1

> <Gold.Id.Protein>
6NUR|6NUR_protein|mol2

> <Gold.PLP.Fitness>
44.2244

> <Gold.PLP.PLP>
-40.8176

> <Gold.PLP.part.hbond>
-2.0000

> <Gold.PLP.part.metal>
0.0000

> <Gold.PLP.part.buried>
-4.5811

> <Gold.PLP.part.nonpolar>
-33.9460

> <Gold.PLP.part.repulsive>
0.2643

> <Gold.PLP.ligand.clash>
0.0000

> <Gold.PLP.ligand.torsion>
0.0917

> <Gold.PLP.Chemscore.Hbond>
1.1936

> <Gold.PLP.Chemscore.CHOScore>
0.0000

> <Gold.PLP.Chemscore.Metal>
0.0000

> <Gold.Chemscore.Hbonds>
donor molecule, donor type, donor heavy atom, donor atom, acceptor molecule, acceptor atom, score
      L1  H     8    28       P1  8028  0.84
      P1  H  8011  8017       L1     3  0.39

> <Gold.PLP.Chemscore.Internal.Correction>
0.0094

> <Gold.Rescore>
     Score         DG    S(hbond)    S(metal)    S(lipo)     H(rot)  DE(clash)    DE(int)     intcor
     16.83     -17.25       1.14        0.00     110.14       1.93       0.30       0.12       ----

> <Gold.Chemscore.Fitness>
16.8332

> <Gold.Chemscore.DG>
-17.2549

> <Gold.Chemscore.ZeroCoef>
-5.4800

> <Gold.Chemscore.Hbond>
1.1439

> <Gold.Chemscore.Metal>
0.0000

> <Gold.Chemscore.Lipo>
110.1364

> <Gold.Chemscore.Internal_Hbond>
0.0000

> <Gold.Chemscore.DEClash>
0.3043

> <Gold.Chemscore.DEInternal>
0.1174

> <Gold.Chemscore.Rot>
1.9265

> <Gold.Chemscore.Internal.Correction>
   9.000000E+99

> <Gold.Chemscore.Hbonds>
donor molecule, donor type, donor heavy atom, donor atom, acceptor molecule, acceptor atom, score
      L1  H     8    28       P1  8028  0.82
      P1  H  8011  8017       L1     3  0.11

> <Gold.Chemscore.Hbond.Weighted>
-3.8207

> <Gold.Chemscore.Metal.Weighted>
-0.0000

> <Gold.Chemscore.Lipo.Weighted>
-12.8860

> <Gold.Chemscore.Internal_Hbond.Weighted>
0.0000

> <Gold.Chemscore.DEClash.Weighted>
0.3043

> <Gold.Chemscore.DEInternal.Weighted>
0.1174

> <Gold.Chemscore.Rot.Weighted>
4.9317

> <Gold.Chemscore.Internal.Correction.Weighted>
   9.000000E+99

> <Gold.Protein.RotatedTorsions>
[ 6907 6896 6895 6894 ] final  178.00 input  -60.11 | X-H torsion
[ 7974 7965 7964 7962 ] final   61.38 input  175.53 | X-H torsion
[ 8008 7997 7996 7995 ] final  136.35 input   59.86 | X-H torsion
[ 10167 10162 10161 10158 ] final -124.58 input  -65.29 | X-H torsion
[ 10718 10713 10712 10709 ] final -115.90 input   66.30 | X-H torsion
[ 10763 10752 10751 10750 ] final   -6.91 input  -60.55 | X-H torsion
[ 11005 11000 10999 10996 ] final -161.31 input  -57.11 | X-H torsion

> <Gold.Protein.ActiveResidues>
 VAL166  LYS551  ARG553  GLY616  TRP617  ASP618  TYR619  PRO620  LYS621  CYS622 
 ASP623  PHE694  ASN695  SER759  ASP760  ASP761  ALA762  ILE779  LEU786  VAL792 
 PHE793  MET794  SER795  GLU796  ALA797  LYS798  CYS799  TRP800  GLU811  SER814 

> <Gold.Protein.RotatedAtoms>
  151.6950  133.3311  159.3251 H   0  0  0  0  0  0  0  0  0  0  0  0  # atno 6907 bound_to 6896
  150.7762  134.6666  159.6378 H   0  0  0  0  0  0  0  0  0  0  0  0  # atno 6908 bound_to 6896
  152.3804  134.6602  160.0197 H   0  0  0  0  0  0  0  0  0  0  0  0  # atno 6909 bound_to 6896
  145.8854  139.3473  143.0681 H   0  0  0  0  0  0  0  0  0  0  0  0  # atno 7974 bound_to 7965
  156.3004  140.2447  156.3731 H   0  0  0  0  0  0  0  0  0  0  0  0  # atno 8008 bound_to 7997
  154.8771  140.0414  157.1779 H   0  0  0  0  0  0  0  0  0  0  0  0  # atno 8009 bound_to 7997
  154.8735  140.2938  155.5471 H   0  0  0  0  0  0  0  0  0  0  0  0  # atno 8010 bound_to 7997
  139.9913  143.5638  152.2341 H   0  0  0  0  0  0  0  0  0  0  0  0  # atno 10167 bound_to 10162
  156.0927  130.6106  150.8966 H   0  0  0  0  0  0  0  0  0  0  0  0  # atno 10718 bound_to 10713
  153.4190  135.7009  153.6307 H   0  0  0  0  0  0  0  0  0  0  0  0  # atno 10763 bound_to 10752
  153.4769  135.3702  155.2422 H   0  0  0  0  0  0  0  0  0  0  0  0  # atno 10764 bound_to 10752
  154.8721  135.4056  154.3555 H   0  0  0  0  0  0  0  0  0  0  0  0  # atno 10765 bound_to 10752
  140.6219  134.4742  157.5224 H   0  0  0  0  0  0  0  0  0  0  0  0  # atno 11005 bound_to 11000
  145.8973  140.9265  143.0521 LP  0  0  0  0  0  0  0  0  0  0  0  0  # atno 17320 bound_to 7965
  144.6728  140.0985  143.7461 LP  0  0  0  0  0  0  0  0  0  0  0  0  # atno 17321 bound_to 7965
  139.6338  144.7647  151.2480 LP  0  0  0  0  0  0  0  0  0  0  0  0  # atno 17342 bound_to 10162
  140.7454  143.6433  150.8314 LP  0  0  0  0  0  0  0  0  0  0  0  0  # atno 17343 bound_to 10162
  157.6080  131.0938  150.8845 LP  0  0  0  0  0  0  0  0  0  0  0  0  # atno 17370 bound_to 10713
  156.8990  130.5240  149.5283 LP  0  0  0  0  0  0  0  0  0  0  0  0  # atno 17371 bound_to 10713
  139.9150  134.8265  156.1397 LP  0  0  0  0  0  0  0  0  0  0  0  0  # atno 17394 bound_to 11000
  141.0736  133.6785  156.2191 LP  0  0  0  0  0  0  0  0  0  0  0  0  # atno 17395 bound_to 11000

$$$$
