AV-unprocessed.smi:2169|AV-procd|sdf|8823|dock3
  -GOLD-   2272012 13D 1   1.00000     0.00000
 Structure written by MMmdl.
 45 46  0  0  0  0  0  0  0  0  2 V2000
  151.9523  140.4488  159.0333 C   0  0  0  0  0  0  0  0  0  0  0  0
  151.6464  139.3114  157.6204 S   0  0  0  0  0  0  0  0  0  0  0  0
  152.8323  139.3316  156.7503 O   0  0  0  0  0  0  0  0  0  0  0  0
  151.1592  138.0323  158.1589 O   0  0  0  0  0  0  0  0  0  0  0  0
  150.3357  140.0566  156.7512 N   0  0  0  0  0  0  0  0  0  0  0  0
  150.5431  140.5315  155.3683 C   0  0  0  0  0  0  0  0  0  0  0  0
  149.9642  139.5483  154.3353 C   0  0  0  0  0  0  0  0  0  0  0  0
  148.4854  139.2375  154.6234 C   0  0  0  0  0  0  0  0  0  0  0  0
  147.9673  138.2449  153.6864 N   0  0  0  0  0  0  0  0  0  0  0  0
  146.6903  137.8453  153.6131 C   0  0  0  0  0  0  0  0  0  0  0  0
  145.7866  138.2827  154.3261 O   0  0  0  0  0  0  0  0  0  0  0  0
  146.5145  136.9071  152.6722 N   0  0  0  0  0  0  0  0  0  0  0  0
  145.2406  136.2711  152.3585 C   0  0  0  0  0  0  0  0  0  0  0  0
  145.1931  135.7855  150.9001 C   0  0  0  0  0  0  0  0  0  0  0  0
  145.2959  134.2765  150.7960 C   0  0  0  0  0  0  0  0  0  0  0  0
  144.1427  133.4866  150.5922 C   0  0  0  0  0  0  0  0  0  0  0  0
  144.2721  132.0849  150.5011 C   0  0  0  0  0  0  0  0  0  0  0  0
  145.5520  131.5046  150.6169 C   0  0  0  0  0  0  0  0  0  0  0  0
  146.6323  132.2926  150.8122 N   0  3  0  0  0  0  0  0  0  0  0  0
  146.5503  133.6382  150.9044 C   0  0  0  0  0  0  0  0  0  0  0  0
  148.3476  138.7154  156.0609 C   0  0  0  0  0  0  0  0  0  0  0  0
  148.9388  139.7065  157.0786 C   0  0  0  0  0  0  0  0  0  0  0  0
  152.7699  140.0548  159.6363 H   0  0  0  0  0  0  0  0  0  0  0  0
  151.0598  140.5188  159.6526 H   0  0  0  0  0  0  0  0  0  0  0  0
  152.2298  141.4344  158.6639 H   0  0  0  0  0  0  0  0  0  0  0  0
  150.0543  141.5005  155.2611 H   0  0  0  0  0  0  0  0  0  0  0  0
  151.6029  140.7000  155.1792 H   0  0  0  0  0  0  0  0  0  0  0  0
  150.0706  139.9733  153.3366 H   0  0  0  0  0  0  0  0  0  0  0  0
  150.5437  138.6256  154.3345 H   0  0  0  0  0  0  0  0  0  0  0  0
  147.9015  140.1557  154.5324 H   0  0  0  0  0  0  0  0  0  0  0  0
  148.6342  137.8254  153.0551 H   0  0  0  0  0  0  0  0  0  0  0  0
  147.3175  136.6125  152.1353 H   0  0  0  0  0  0  0  0  0  0  0  0
  145.0618  135.4423  153.0459 H   0  0  0  0  0  0  0  0  0  0  0  0
  144.4470  136.9978  152.5349 H   0  0  0  0  0  0  0  0  0  0  0  0
  144.2685  136.1166  150.4253 H   0  0  0  0  0  0  0  0  0  0  0  0
  146.0080  136.2284  150.3259 H   0  0  0  0  0  0  0  0  0  0  0  0
  143.1691  133.9474  150.5070 H   0  0  0  0  0  0  0  0  0  0  0  0
  143.4016  131.4644  150.3446 H   0  0  0  0  0  0  0  0  0  0  0  0
  145.7427  130.4427  150.5598 H   0  0  0  0  0  0  0  0  0  0  0  0
  147.4836  134.1592  151.0624 H   0  0  0  0  0  0  0  0  0  0  0  0
  147.2963  138.5419  156.2939 H   0  0  0  0  0  0  0  0  0  0  0  0
  148.8423  137.7492  156.1543 H   0  0  0  0  0  0  0  0  0  0  0  0
  148.8749  139.2981  158.0868 H   0  0  0  0  0  0  0  0  0  0  0  0
  148.3470  140.6225  157.0806 H   0  0  0  0  0  0  0  0  0  0  0  0
  147.5494  131.8526  150.8934 H   0  0  0  0  0  0  0  0  0  0  0  0
  1  2  1  0  0  0  0
  1 23  1  0  0  0  0
  1 24  1  0  0  0  0
  1 25  1  0  0  0  0
  2  3  2  0  0  0  0
  2  4  2  0  0  0  0
  2  5  1  0  0  0  0
  5 22  1  0  0  0  0
  5  6  1  0  0  0  0
  6  7  1  0  0  0  0
  6 26  1  0  0  0  0
  6 27  1  0  0  0  0
  7  8  1  0  0  0  0
  7 28  1  0  0  0  0
  7 29  1  0  0  0  0
  8  9  1  0  0  0  0
  8 21  1  0  0  0  0
  8 30  1  0  0  0  0
  9 10  1  0  0  0  0
  9 31  1  0  0  0  0
 10 11  2  0  0  0  0
 10 12  1  0  0  0  0
 12 13  1  0  0  0  0
 12 32  1  0  0  0  0
 13 14  1  0  0  0  0
 13 33  1  0  0  0  0
 13 34  1  0  0  0  0
 14 15  1  0  0  0  0
 14 35  1  0  0  0  0
 14 36  1  0  0  0  0
 15 20  1  0  0  0  0
 15 16  2  0  0  0  0
 16 17  1  0  0  0  0
 16 37  1  0  0  0  0
 17 18  2  0  0  0  0
 17 38  1  0  0  0  0
 18 19  1  0  0  0  0
 18 39  1  0  0  0  0
 19 20  2  0  0  0  0
 19 45  1  0  0  0  0
 20 40  1  0  0  0  0
 21 22  1  0  0  0  0
 21 41  1  0  0  0  0
 21 42  1  0  0  0  0
 22 43  1  0  0  0  0
 22 44  1  0  0  0  0
M  CHG  1  19   1
M  END
> <s_m_source_file>
AV-unprocessed.smi

> <i_m_source_file_index>
2169

> <i_lp_mmshare_version>
43012

> <i_f3d_flags>
0

> <s_epik_input>
W0NIM11TKD1PKSg9TylOMVtDSDJdW0NIMl1bQ0hdKFtDSDJdW0NIMl0xKVtOSF1DKD1PKVtOSF1bQ0gyXVtDSDJdYzJbY0hdW2NIXVtjSF1uW2NIXTI=

> <s_epik_cmdline>
J2VwaWtfcHl0aG9uJywgJy1waCcsICc3LjAnLCAnLXRuJywgJzgnLCAnLW1hJywgJzIwMCcsICctbWV0YWxfYmluZGluZycsICctaW1hZScsICc8aW5maWxlLm1hZT4nLCAnLW9tYWUnLCAnPG91dGZpbGUubWFlPic=

> <r_epik_Ionization_Penalty>
2.21124

> <r_epik_Ionization_Penalty_Charging>
2.21119

> <r_epik_Ionization_Penalty_Neutral>
4.90089e-05

> <r_epik_State_Penalty>
2.35542

> <r_epik_Charging_Adjusted_Penalty>
4.56661

> <i_epik_Tot_Q>
1

> <i_epik_Tot_abs_Q>
1

> <r_epik_Metal_State_Penalty>
2.36951

> <b_epik_Metal_Only>
0

> <s_lp_Force_Field>
OPLS_2005

> <r_lp_Energy>
3.64161

> <b_lp_Chiralities_Consistent>
1

> <s_lp_Variant>
AV-unprocessed.smi:2169-2

> <Gold.Version>
5.8.1

> <Gold.Id.Protein>
6NUR|6NUR_protein|mol2

> <Gold.PLP.Fitness>
45.3868

> <Gold.PLP.PLP>
-35.2261

> <Gold.PLP.part.hbond>
-4.0000

> <Gold.PLP.part.metal>
0.0000

> <Gold.PLP.part.buried>
-5.5764

> <Gold.PLP.part.nonpolar>
-26.3549

> <Gold.PLP.part.repulsive>
0.1988

> <Gold.PLP.ligand.clash>
0.0000

> <Gold.PLP.ligand.torsion>
1.8471

> <Gold.PLP.Chemscore.Hbond>
3.9280

> <Gold.PLP.Chemscore.CHOScore>
0.0000

> <Gold.PLP.Chemscore.Metal>
0.0000

> <Gold.Chemscore.Hbonds>
donor molecule, donor type, donor heavy atom, donor atom, acceptor molecule, acceptor atom, score
      L1  H     9    31       P1  7948  0.90
      L1  H    12    32       P1  7948  1.00
      L1  H    19    45       P1 10747  1.00
      P1  H  7997  8010       L1     3  1.00

> <Gold.PLP.Chemscore.Internal.Correction>
2.0708

> <Gold.Rescore>
     Score         DG    S(hbond)    S(metal)    S(lipo)     H(rot)  DE(clash)    DE(int)     intcor
     21.59     -23.50       3.89        0.00      80.67       1.73       0.05       1.86       ----

> <Gold.Chemscore.Fitness>
21.5878

> <Gold.Chemscore.DG>
-23.4974

> <Gold.Chemscore.ZeroCoef>
-5.4800

> <Gold.Chemscore.Hbond>
3.8944

> <Gold.Chemscore.Metal>
0.0000

> <Gold.Chemscore.Lipo>
80.6665

> <Gold.Chemscore.Internal_Hbond>
0.0000

> <Gold.Chemscore.DEClash>
0.0469

> <Gold.Chemscore.DEInternal>
1.8627

> <Gold.Chemscore.Rot>
1.7297

> <Gold.Chemscore.Internal.Correction>
   9.000000E+99

> <Gold.Chemscore.Hbonds>
donor molecule, donor type, donor heavy atom, donor atom, acceptor molecule, acceptor atom, score
      L1  H     9    31       P1  7948  0.85
      L1  H    12    32       P1  7948  0.99
      L1  H    19    45       P1 10747  0.98
      P1  H  7997  8010       L1     3  1.00

> <Gold.Chemscore.Hbond.Weighted>
-13.0074

> <Gold.Chemscore.Metal.Weighted>
-0.0000

> <Gold.Chemscore.Lipo.Weighted>
-9.4380

> <Gold.Chemscore.Internal_Hbond.Weighted>
0.0000

> <Gold.Chemscore.DEClash.Weighted>
0.0469

> <Gold.Chemscore.DEInternal.Weighted>
1.8627

> <Gold.Chemscore.Rot.Weighted>
4.4280

> <Gold.Chemscore.Internal.Correction.Weighted>
   9.000000E+99

> <Gold.Protein.RotatedTorsions>
[ 6907 6896 6895 6894 ] final   19.78 input  -60.11 | X-H torsion
[ 7974 7965 7964 7962 ] final   54.72 input  175.53 | X-H torsion
[ 8008 7997 7996 7995 ] final   64.83 input   59.86 | X-H torsion
[ 10167 10162 10161 10158 ] final -124.62 input  -65.29 | X-H torsion
[ 10718 10713 10712 10709 ] final -130.56 input   66.30 | X-H torsion
[ 10763 10752 10751 10750 ] final -131.32 input  -60.55 | X-H torsion
[ 11005 11000 10999 10996 ] final   69.72 input  -57.11 | X-H torsion

> <Gold.Protein.ActiveResidues>
 VAL166  LYS551  ARG553  GLY616  TRP617  ASP618  TYR619  PRO620  LYS621  CYS622 
 ASP623  PHE694  ASN695  SER759  ASP760  ASP761  ALA762  ILE779  LEU786  VAL792 
 PHE793  MET794  SER795  GLU796  ALA797  LYS798  CYS799  TRP800  GLU811  SER814 

> <Gold.Protein.RotatedAtoms>
  151.8862  135.0434  160.0493 H   0  0  0  0  0  0  0  0  0  0  0  0  # atno 6907 bound_to 6896
  152.2473  133.5180  159.5313 H   0  0  0  0  0  0  0  0  0  0  0  0  # atno 6908 bound_to 6896
  150.7072  134.0925  159.3979 H   0  0  0  0  0  0  0  0  0  0  0  0  # atno 6909 bound_to 6896
  145.9579  139.4032  143.0266 H   0  0  0  0  0  0  0  0  0  0  0  0  # atno 7974 bound_to 7965
  155.6521  140.3497  155.4752 H   0  0  0  0  0  0  0  0  0  0  0  0  # atno 8008 bound_to 7997
  155.9839  140.1180  157.0724 H   0  0  0  0  0  0  0  0  0  0  0  0  # atno 8009 bound_to 7997
  154.4199  140.1133  156.5459 H   0  0  0  0  0  0  0  0  0  0  0  0  # atno 8010 bound_to 7997
  139.9908  143.5643  152.2342 H   0  0  0  0  0  0  0  0  0  0  0  0  # atno 10167 bound_to 10162
  156.2157  130.6946  151.0699 H   0  0  0  0  0  0  0  0  0  0  0  0  # atno 10718 bound_to 10713
  154.8751  135.3834  154.4227 H   0  0  0  0  0  0  0  0  0  0  0  0  # atno 10763 bound_to 10752
  153.4929  135.7030  153.5879 H   0  0  0  0  0  0  0  0  0  0  0  0  # atno 10764 bound_to 10752
  153.4245  135.3893  155.2099 H   0  0  0  0  0  0  0  0  0  0  0  0  # atno 10765 bound_to 10752
  139.9638  134.7016  156.0589 H   0  0  0  0  0  0  0  0  0  0  0  0  # atno 11005 bound_to 11000
  145.8081  140.9739  143.0963 LP  0  0  0  0  0  0  0  0  0  0  0  0  # atno 17320 bound_to 7965
  144.6809  139.9886  143.7484 LP  0  0  0  0  0  0  0  0  0  0  0  0  # atno 17321 bound_to 7965
  139.6341  144.7648  151.2474 LP  0  0  0  0  0  0  0  0  0  0  0  0  # atno 17342 bound_to 10162
  140.7455  143.6428  150.8319 LP  0  0  0  0  0  0  0  0  0  0  0  0  # atno 17343 bound_to 10162
  157.7062  131.0755  150.6660 LP  0  0  0  0  0  0  0  0  0  0  0  0  # atno 17370 bound_to 10713
  156.6721  130.4542  149.5654 LP  0  0  0  0  0  0  0  0  0  0  0  0  # atno 17371 bound_to 10713
  141.1317  133.6585  156.3481 LP  0  0  0  0  0  0  0  0  0  0  0  0  # atno 17394 bound_to 11000
  140.5442  134.6091  157.5389 LP  0  0  0  0  0  0  0  0  0  0  0  0  # atno 17395 bound_to 11000

$$$$
