AV-unprocessed.smi:3337|AV-procd|sdf|12867|dock1
  -GOLD-   2272019263D 1   1.00000     0.00000
 Structure written by MMmdl.
 46 47  0  0  0  0  0  0  0  0  2 V2000
  153.6012  139.0707  159.2612 C   0  0  0  0  0  0  0  0  0  0  0  0
  153.3723  140.5879  159.2093 C   0  0  2  0  0  0  0  0  0  0  0  0
  153.0992  141.1622  160.6091 C   0  0  0  0  0  0  0  0  0  0  0  0
  152.8556  142.6784  160.5338 C   0  0  2  0  0  0  0  0  0  0  0  0
  152.5576  143.2670  161.9202 C   0  0  0  0  0  0  0  0  0  0  0  0
  151.7230  142.9869  159.5358 C   0  0  0  0  0  0  0  0  0  0  0  0
  152.0113  142.4240  158.1908 N   0  3  2  0  0  0  0  0  0  0  0  0
  150.9936  142.8351  157.1903 C   0  0  0  0  0  0  0  0  0  0  0  0
  149.7922  141.8717  157.1289 C   0  0  0  0  0  0  0  0  0  0  0  0
  148.5782  142.5656  156.7156 N   0  0  0  0  0  0  0  0  0  0  0  0
  148.5167  143.4990  155.7517 C   0  0  0  0  0  0  0  0  0  0  0  0
  149.5061  143.8654  155.1162 O   0  0  0  0  0  0  0  0  0  0  0  0
  147.1329  144.1165  155.4830 C   0  0  1  0  0  0  0  0  0  0  0  0
  146.0114  143.0628  155.3800 C   0  0  0  0  0  0  0  0  0  0  0  0
  146.8235  145.1411  156.4731 N   0  0  0  0  0  0  0  0  0  0  0  0
  145.7435  145.9153  156.5989 C   0  0  0  0  0  0  0  0  0  0  0  0
  145.8110  146.7744  157.6061 N   0  0  0  0  0  0  0  0  0  0  0  0
  147.0480  146.4588  158.0926 C   0  0  0  0  0  0  0  0  0  0  0  0
  147.7017  145.4948  157.4444 N   0  0  0  0  0  0  0  0  0  0  0  0
  152.2234  140.9529  158.2489 C   0  0  0  0  0  0  0  0  0  0  0  0
  152.7199  138.5489  159.6356 H   0  0  0  0  0  0  0  0  0  0  0  0
  154.4373  138.8218  159.9154 H   0  0  0  0  0  0  0  0  0  0  0  0
  153.8287  138.6726  158.2720 H   0  0  0  0  0  0  0  0  0  0  0  0
  154.2878  141.0440  158.8292 H   0  0  0  0  0  0  0  0  0  0  0  0
  152.2309  140.6687  161.0489 H   0  0  0  0  0  0  0  0  0  0  0  0
  153.9427  140.9533  161.2685 H   0  0  0  0  0  0  0  0  0  0  0  0
  153.7679  143.1505  160.1657 H   0  0  0  0  0  0  0  0  0  0  0  0
  151.6540  142.8337  162.3500 H   0  0  0  0  0  0  0  0  0  0  0  0
  152.4161  144.3467  161.8675 H   0  0  0  0  0  0  0  0  0  0  0  0
  153.3785  143.0769  162.6122 H   0  0  0  0  0  0  0  0  0  0  0  0
  150.7754  142.5866  159.9005 H   0  0  0  0  0  0  0  0  0  0  0  0
  151.6012  144.0683  159.4585 H   0  0  0  0  0  0  0  0  0  0  0  0
  150.6625  143.8541  157.3971 H   0  0  0  0  0  0  0  0  0  0  0  0
  151.4616  142.8590  156.2052 H   0  0  0  0  0  0  0  0  0  0  0  0
  149.9992  141.0415  156.4511 H   0  0  0  0  0  0  0  0  0  0  0  0
  149.5929  141.4331  158.1059 H   0  0  0  0  0  0  0  0  0  0  0  0
  147.7222  142.3144  157.1890 H   0  0  0  0  0  0  0  0  0  0  0  0
  147.1945  144.6159  154.5148 H   0  0  0  0  0  0  0  0  0  0  0  0
  146.2205  142.3387  154.5918 H   0  0  0  0  0  0  0  0  0  0  0  0
  145.0572  143.5340  155.1430 H   0  0  0  0  0  0  0  0  0  0  0  0
  145.8829  142.5101  156.3115 H   0  0  0  0  0  0  0  0  0  0  0  0
  144.8913  145.8515  155.9382 H   0  0  0  0  0  0  0  0  0  0  0  0
  147.4816  146.9586  158.9464 H   0  0  0  0  0  0  0  0  0  0  0  0
  152.4629  140.5692  157.2581 H   0  0  0  0  0  0  0  0  0  0  0  0
  151.2988  140.4641  158.5606 H   0  0  0  0  0  0  0  0  0  0  0  0
  152.8844  142.8370  157.8955 H   0  0  0  0  0  0  0  0  0  0  0  0
  1  2  1  0  0  0  0
  1 21  1  0  0  0  0
  1 22  1  0  0  0  0
  1 23  1  0  0  0  0
  2 20  1  0  0  0  0
  2  3  1  0  0  0  0
  2 24  1  0  0  0  0
  3  4  1  0  0  0  0
  3 25  1  0  0  0  0
  3 26  1  0  0  0  0
  4  5  1  0  0  0  0
  4  6  1  0  0  0  0
  4 27  1  0  0  0  0
  5 28  1  0  0  0  0
  5 29  1  0  0  0  0
  5 30  1  0  0  0  0
  6  7  1  0  0  0  0
  6 31  1  0  0  0  0
  6 32  1  0  0  0  0
  7  8  1  0  0  0  0
  7 20  1  0  0  0  0
  7 46  1  0  0  0  0
  8  9  1  0  0  0  0
  8 33  1  0  0  0  0
  8 34  1  0  0  0  0
  9 10  1  0  0  0  0
  9 35  1  0  0  0  0
  9 36  1  0  0  0  0
 10 11  1  0  0  0  0
 10 37  1  0  0  0  0
 11 12  2  0  0  0  0
 11 13  1  0  0  0  0
 13 14  1  0  0  0  0
 13 15  1  0  0  0  0
 13 38  1  0  0  0  0
 14 39  1  0  0  0  0
 14 40  1  0  0  0  0
 14 41  1  0  0  0  0
 15 19  1  0  0  0  0
 15 16  1  0  0  0  0
 16 17  2  0  0  0  0
 16 42  1  0  0  0  0
 17 18  1  0  0  0  0
 18 19  2  0  0  0  0
 18 43  1  0  0  0  0
 20 44  1  0  0  0  0
 20 45  1  0  0  0  0
M  CHG  1   7   1
M  END
> <s_m_source_file>
AV-unprocessed.smi

> <i_m_source_file_index>
3337

> <i_lp_mmshare_version>
43012

> <i_f3d_flags>
0

> <s_epik_input>
W0NIM11bQ0BASF0xW0NIMl1bQ0BASF0oW0NIM10pW0NIMl1OKFtDSDJdMSlbQ0gyXVtDSDJdW05IXUMoPU8pW0NASF0oW0NIM10pbjJbY0hdbltjSF1uMg==

> <s_epik_cmdline>
J2VwaWtfcHl0aG9uJywgJy1waCcsICc3LjAnLCAnLXRuJywgJzgnLCAnLW1hJywgJzIwMCcsICctbWV0YWxfYmluZGluZycsICctaW1hZScsICc8aW5maWxlLm1hZT4nLCAnLW9tYWUnLCAnPG91dGZpbGUubWFlPic=

> <r_lp_tautomer_probability>
1

> <r_epik_Ionization_Penalty>
0.00175613

> <r_epik_Ionization_Penalty_Charging>
0.00174812

> <r_epik_Ionization_Penalty_Neutral>
8.01354e-06

> <r_epik_State_Penalty>
0.00118332

> <r_epik_Charging_Adjusted_Penalty>
0.00293143

> <i_epik_Tot_Q>
1

> <i_epik_Tot_abs_Q>
1

> <r_epik_Metal_State_Penalty>
-0

> <b_epik_Metal_Only>
0

> <s_lp_Force_Field>
OPLS_2005

> <r_lp_Energy>
22.1533

> <b_lp_Chiralities_Consistent>
1

> <s_lp_Variant>
AV-unprocessed.smi:3337-7

> <Gold.Version>
5.8.1

> <Gold.Id.Protein>
6NUR|6NUR_protein|mol2

> <Gold.PLP.Fitness>
43.9059

> <Gold.PLP.PLP>
-39.9362

> <Gold.PLP.part.hbond>
-1.0000

> <Gold.PLP.part.metal>
0.0000

> <Gold.PLP.part.buried>
-6.2048

> <Gold.PLP.part.nonpolar>
-33.4823

> <Gold.PLP.part.repulsive>
0.4595

> <Gold.PLP.ligand.clash>
0.0000

> <Gold.PLP.ligand.torsion>
1.1036

> <Gold.PLP.Chemscore.Hbond>
1.0000

> <Gold.PLP.Chemscore.CHOScore>
1.0000

> <Gold.PLP.Chemscore.Metal>
0.0000

> <Gold.Chemscore.Hbonds>
donor molecule, donor type, donor heavy atom, donor atom, acceptor molecule, acceptor atom, score
      P1  H  8022  8030       L1    12  1.00

> <Gold.PLP.Chemscore.Internal.Correction>
0.1771

> <Gold.Rescore>
     Score         DG    S(hbond)    S(metal)    S(lipo)     H(rot)  DE(clash)    DE(int)     intcor
     10.50     -12.78       0.97        0.00      89.63       2.51       0.19       2.09       ----

> <Gold.Chemscore.Fitness>
10.5013

> <Gold.Chemscore.DG>
-12.7814

> <Gold.Chemscore.ZeroCoef>
-5.4800

> <Gold.Chemscore.Hbond>
0.9725

> <Gold.Chemscore.Metal>
0.0000

> <Gold.Chemscore.Lipo>
89.6258

> <Gold.Chemscore.Internal_Hbond>
0.0000

> <Gold.Chemscore.DEClash>
0.1889

> <Gold.Chemscore.DEInternal>
2.0912

> <Gold.Chemscore.Rot>
2.5129

> <Gold.Chemscore.Internal.Correction>
   9.000000E+99

> <Gold.Chemscore.Hbonds>
donor molecule, donor type, donor heavy atom, donor atom, acceptor molecule, acceptor atom, score
      P1  H  8022  8030       L1    12  0.25

> <Gold.Chemscore.Hbond.Weighted>
-3.2482

> <Gold.Chemscore.Metal.Weighted>
-0.0000

> <Gold.Chemscore.Lipo.Weighted>
-10.4862

> <Gold.Chemscore.Internal_Hbond.Weighted>
0.0000

> <Gold.Chemscore.DEClash.Weighted>
0.1889

> <Gold.Chemscore.DEInternal.Weighted>
2.0912

> <Gold.Chemscore.Rot.Weighted>
6.4331

> <Gold.Chemscore.Internal.Correction.Weighted>
   9.000000E+99

> <Gold.Protein.RotatedTorsions>
[ 6907 6896 6895 6894 ] final  -63.30 input  -60.11 | X-H torsion
[ 7974 7965 7964 7962 ] final  -55.84 input  175.53 | X-H torsion
[ 8008 7997 7996 7995 ] final   16.98 input   59.86 | X-H torsion
[ 10167 10162 10161 10158 ] final  115.18 input  -65.29 | X-H torsion
[ 10718 10713 10712 10709 ] final -155.92 input   66.30 | X-H torsion
[ 10763 10752 10751 10750 ] final    6.15 input  -60.55 | X-H torsion
[ 11005 11000 10999 10996 ] final -164.55 input  -57.11 | X-H torsion

> <Gold.Protein.ActiveResidues>
 VAL166  LYS551  ARG553  GLY616  TRP617  ASP618  TYR619  PRO620  LYS621  CYS622 
 ASP623  PHE694  ASN695  SER759  ASP760  ASP761  ALA762  ILE779  LEU786  VAL792 
 PHE793  MET794  SER795  GLU796  ALA797  LYS798  CYS799  TRP800  GLU811  SER814 

> <Gold.Protein.RotatedAtoms>
  150.7658  134.6454  159.6258 H   0  0  0  0  0  0  0  0  0  0  0  0  # atno 6907 bound_to 6896
  152.3689  134.6760  160.0192 H   0  0  0  0  0  0  0  0  0  0  0  0  # atno 6908 bound_to 6896
  151.7127  133.3276  159.3331 H   0  0  0  0  0  0  0  0  0  0  0  0  # atno 6909 bound_to 6896
  145.8696  140.8226  142.9895 H   0  0  0  0  0  0  0  0  0  0  0  0  # atno 7974 bound_to 7965
  154.8847  140.2978  155.5405 H   0  0  0  0  0  0  0  0  0  0  0  0  # atno 8008 bound_to 7997
  156.3021  140.2435  156.3789 H   0  0  0  0  0  0  0  0  0  0  0  0  # atno 8009 bound_to 7997
  154.8680  140.0402  157.1696 H   0  0  0  0  0  0  0  0  0  0  0  0  # atno 8010 bound_to 7997
  139.6336  144.7117  151.2381 H   0  0  0  0  0  0  0  0  0  0  0  0  # atno 10167 bound_to 10162
  156.5194  130.8471  151.2676 H   0  0  0  0  0  0  0  0  0  0  0  0  # atno 10718 bound_to 10713
  153.2511  135.6913  153.7678 H   0  0  0  0  0  0  0  0  0  0  0  0  # atno 10763 bound_to 10752
  153.6773  135.3334  155.3170 H   0  0  0  0  0  0  0  0  0  0  0  0  # atno 10764 bound_to 10752
  154.8394  135.4514  154.1468 H   0  0  0  0  0  0  0  0  0  0  0  0  # atno 10765 bound_to 10752
  140.5856  134.5097  157.5185 H   0  0  0  0  0  0  0  0  0  0  0  0  # atno 11005 bound_to 11000
  144.6726  140.1219  143.7449 LP  0  0  0  0  0  0  0  0  0  0  0  0  # atno 17320 bound_to 7965
  145.9152  139.2512  143.1414 LP  0  0  0  0  0  0  0  0  0  0  0  0  # atno 17321 bound_to 7965
  140.7453  143.6436  150.8312 LP  0  0  0  0  0  0  0  0  0  0  0  0  # atno 17342 bound_to 10162
  140.0065  143.5688  152.2856 LP  0  0  0  0  0  0  0  0  0  0  0  0  # atno 17343 bound_to 10162
  157.7439  130.9922  150.2629 LP  0  0  0  0  0  0  0  0  0  0  0  0  # atno 17370 bound_to 10713
  156.3164  130.3779  149.7615 LP  0  0  0  0  0  0  0  0  0  0  0  0  # atno 17371 bound_to 10713
  139.9297  134.7987  156.0966 LP  0  0  0  0  0  0  0  0  0  0  0  0  # atno 17394 bound_to 11000
  141.0968  133.6692  156.2663 LP  0  0  0  0  0  0  0  0  0  0  0  0  # atno 17395 bound_to 11000

$$$$
