AV-unprocessed.smi:1215|AV-procd|sdf|5095|dock2
  -GOLD-   22720 4143D 1   1.00000     0.00000
 Structure written by MMmdl.
 46 47  0  0  0  0  0  0  0  0  2 V2000
  151.3255  141.2291  158.5808 C   0  0  0  0  0  0  0  0  0  0  0  0
  152.3642  140.3095  157.9278 C   0  0  0  0  0  0  0  0  0  0  0  0
  151.8972  139.7923  156.6564 N   0  0  0  0  0  0  0  0  0  0  0  0
  150.6657  139.9775  156.0599 C   0  0  0  0  0  0  0  0  0  0  0  0
  150.7246  139.3013  154.8740 C   0  0  0  0  0  0  0  0  0  0  0  0
  149.7386  139.1678  153.8640 N   0  0  0  0  0  0  0  0  0  0  0  0
  148.4730  138.7436  154.0113 C   0  0  0  0  0  0  0  0  0  0  0  0
  147.9669  138.3746  155.0715 O   0  0  0  0  0  0  0  0  0  0  0  0
  147.8125  138.7610  152.8447 N   0  0  0  0  0  0  0  0  0  0  0  0
  146.4234  138.3529  152.6693 C   0  0  0  0  0  0  0  0  0  0  0  0
  146.1373  137.0160  153.3819 C   0  0  0  0  0  0  0  0  0  0  0  0
  146.0898  135.8493  152.4596 N   0  3  1  0  0  0  0  0  0  0  0  0
  146.2360  134.5610  153.1900 C   0  0  0  0  0  0  0  0  0  0  0  0
  146.4031  133.3801  152.2213 C   0  0  0  0  0  0  0  0  0  0  0  0
  145.2349  133.3120  151.2324 C   0  0  0  0  0  0  0  0  0  0  0  0
  145.0918  134.6550  150.5038 C   0  0  0  0  0  0  0  0  0  0  0  0
  144.9548  135.8413  151.4822 C   0  0  1  0  0  0  0  0  0  0  0  0
  143.5623  135.8913  152.1476 C   0  0  0  0  0  0  0  0  0  0  0  0
  152.0224  138.7299  154.8182 C   0  0  0  0  0  0  0  0  0  0  0  0
  152.7252  139.0306  155.8994 N   0  0  0  0  0  0  0  0  0  0  0  0
  151.6864  141.6021  159.5393 H   0  0  0  0  0  0  0  0  0  0  0  0
  150.3890  140.6999  158.7603 H   0  0  0  0  0  0  0  0  0  0  0  0
  151.1081  142.0909  157.9491 H   0  0  0  0  0  0  0  0  0  0  0  0
  153.3007  140.8459  157.7681 H   0  0  0  0  0  0  0  0  0  0  0  0
  152.5887  139.4687  158.5853 H   0  0  0  0  0  0  0  0  0  0  0  0
  149.8861  140.5633  156.5243 H   0  0  0  0  0  0  0  0  0  0  0  0
  150.0278  139.4267  152.9321 H   0  0  0  0  0  0  0  0  0  0  0  0
  148.3035  139.0822  152.0229 H   0  0  0  0  0  0  0  0  0  0  0  0
  145.7782  139.1512  153.0369 H   0  0  0  0  0  0  0  0  0  0  0  0
  146.2274  138.2571  151.6011 H   0  0  0  0  0  0  0  0  0  0  0  0
  146.9353  136.8478  154.1064 H   0  0  0  0  0  0  0  0  0  0  0  0
  145.2167  137.0699  153.9633 H   0  0  0  0  0  0  0  0  0  0  0  0
  147.1110  134.6061  153.8396 H   0  0  0  0  0  0  0  0  0  0  0  0
  145.3764  134.4000  153.8415 H   0  0  0  0  0  0  0  0  0  0  0  0
  147.3413  133.4844  151.6745 H   0  0  0  0  0  0  0  0  0  0  0  0
  146.4731  132.4462  152.7798 H   0  0  0  0  0  0  0  0  0  0  0  0
  145.3992  132.5099  150.5121 H   0  0  0  0  0  0  0  0  0  0  0  0
  144.3124  133.0698  151.7612 H   0  0  0  0  0  0  0  0  0  0  0  0
  145.9699  134.8110  149.8753 H   0  0  0  0  0  0  0  0  0  0  0  0
  144.2386  134.6223  149.8251 H   0  0  0  0  0  0  0  0  0  0  0  0
  145.0410  136.7352  150.8660 H   0  0  0  0  0  0  0  0  0  0  0  0
  142.7750  135.8531  151.3942 H   0  0  0  0  0  0  0  0  0  0  0  0
  143.4130  136.8151  152.7060 H   0  0  0  0  0  0  0  0  0  0  0  0
  143.3976  135.0576  152.8295 H   0  0  0  0  0  0  0  0  0  0  0  0
  152.4695  138.1213  154.0460 H   0  0  0  0  0  0  0  0  0  0  0  0
  146.9242  135.9243  151.8954 H   0  0  0  0  0  0  0  0  0  0  0  0
  1  2  1  0  0  0  0
  1 21  1  0  0  0  0
  1 22  1  0  0  0  0
  1 23  1  0  0  0  0
  2  3  1  0  0  0  0
  2 24  1  0  0  0  0
  2 25  1  0  0  0  0
  3 20  1  0  0  0  0
  3  4  1  0  0  0  0
  4  5  2  0  0  0  0
  4 26  1  0  0  0  0
  5  6  1  0  0  0  0
  5 19  1  0  0  0  0
  6  7  1  0  0  0  0
  6 27  1  0  0  0  0
  7  8  2  0  0  0  0
  7  9  1  0  0  0  0
  9 10  1  0  0  0  0
  9 28  1  0  0  0  0
 10 11  1  0  0  0  0
 10 29  1  0  0  0  0
 10 30  1  0  0  0  0
 11 12  1  0  0  0  0
 11 31  1  0  0  0  0
 11 32  1  0  0  0  0
 12 17  1  0  0  0  0
 12 13  1  0  0  0  0
 12 46  1  0  0  0  0
 13 14  1  0  0  0  0
 13 33  1  0  0  0  0
 13 34  1  0  0  0  0
 14 15  1  0  0  0  0
 14 35  1  0  0  0  0
 14 36  1  0  0  0  0
 15 16  1  0  0  0  0
 15 37  1  0  0  0  0
 15 38  1  0  0  0  0
 16 17  1  0  0  0  0
 16 39  1  0  0  0  0
 16 40  1  0  0  0  0
 17 18  1  0  0  0  0
 17 41  1  0  0  0  0
 18 42  1  0  0  0  0
 18 43  1  0  0  0  0
 18 44  1  0  0  0  0
 19 20  2  0  0  0  0
 19 45  1  0  0  0  0
M  CHG  1  12   1
M  END
> <s_m_source_file>
AV-unprocessed.smi

> <i_m_source_file_index>
1215

> <i_lp_mmshare_version>
43012

> <i_f3d_flags>
0

> <s_epik_input>
W0NIM11bQ0gyXW4xW2NIXWMoW2NIXW4xKVtOSF1DKD1PKVtOSF1bQ0gyXVtDSDJdTjJbQ0gyXVtDSDJdW0NIMl1bQ0gyXVtDQEhdMltDSDNd

> <s_epik_cmdline>
J2VwaWtfcHl0aG9uJywgJy1waCcsICc3LjAnLCAnLXRuJywgJzgnLCAnLW1hJywgJzIwMCcsICctbWV0YWxfYmluZGluZycsICctaW1hZScsICc8aW5maWxlLm1hZT4nLCAnLW9tYWUnLCAnPG91dGZpbGUubWFlPic=

> <r_lp_tautomer_probability>
1

> <r_epik_Ionization_Penalty>
0.00247187

> <r_epik_Ionization_Penalty_Charging>
0.00232067

> <r_epik_Ionization_Penalty_Neutral>
0.000151201

> <r_epik_State_Penalty>
0.00160128

> <r_epik_Charging_Adjusted_Penalty>
0.00392194

> <i_epik_Tot_Q>
1

> <i_epik_Tot_abs_Q>
1

> <r_epik_Metal_State_Penalty>
-0

> <b_epik_Metal_Only>
0

> <s_lp_Force_Field>
OPLS_2005

> <r_lp_Energy>
23.8911

> <b_lp_Chiralities_Consistent>
1

> <s_lp_Variant>
AV-unprocessed.smi:1215-2

> <Gold.Version>
5.8.1

> <Gold.Id.Protein>
6NUR|6NUR_protein|mol2

> <Gold.PLP.Fitness>
49.4408

> <Gold.PLP.PLP>
-36.5386

> <Gold.PLP.part.hbond>
-5.0000

> <Gold.PLP.part.metal>
0.0000

> <Gold.PLP.part.buried>
-1.8230

> <Gold.PLP.part.nonpolar>
-29.1871

> <Gold.PLP.part.repulsive>
0.2878

> <Gold.PLP.ligand.clash>
0.0000

> <Gold.PLP.ligand.torsion>
0.9641

> <Gold.PLP.Chemscore.Hbond>
4.9280

> <Gold.PLP.Chemscore.CHOScore>
0.0000

> <Gold.PLP.Chemscore.Metal>
0.0000

> <Gold.Chemscore.Hbonds>
donor molecule, donor type, donor heavy atom, donor atom, acceptor molecule, acceptor atom, score
      L1  H     6    27       P1  7957  1.00
      L1  H     9    28       P1  7957  1.00
      L1  H    12    46       P1  7948  1.92
      P1  H  7997  8008       L1    20  0.90

> <Gold.PLP.Chemscore.Internal.Correction>
0.0464

> <Gold.Rescore>
     Score         DG    S(hbond)    S(metal)    S(lipo)     H(rot)  DE(clash)    DE(int)     intcor
     20.29     -22.72       3.90        0.00      70.65       1.59       0.14       2.28       ----

> <Gold.Chemscore.Fitness>
20.2904

> <Gold.Chemscore.DG>
-22.7152

> <Gold.Chemscore.ZeroCoef>
-5.4800

> <Gold.Chemscore.Hbond>
3.9048

> <Gold.Chemscore.Metal>
0.0000

> <Gold.Chemscore.Lipo>
70.6474

> <Gold.Chemscore.Internal_Hbond>
0.0000

> <Gold.Chemscore.DEClash>
0.1416

> <Gold.Chemscore.DEInternal>
2.2831

> <Gold.Chemscore.Rot>
1.5909

> <Gold.Chemscore.Internal.Correction>
   9.000000E+99

> <Gold.Chemscore.Hbonds>
donor molecule, donor type, donor heavy atom, donor atom, acceptor molecule, acceptor atom, score
      L1  H     6    27       P1  7957  0.93
      L1  H     9    28       P1  7957  0.97
      L1  H    12    46       P1  7948  0.86
      P1  H  7997  8008       L1    20  0.17

> <Gold.Chemscore.Hbond.Weighted>
-13.0422

> <Gold.Chemscore.Metal.Weighted>
-0.0000

> <Gold.Chemscore.Lipo.Weighted>
-8.2657

> <Gold.Chemscore.Internal_Hbond.Weighted>
0.0000

> <Gold.Chemscore.DEClash.Weighted>
0.1416

> <Gold.Chemscore.DEInternal.Weighted>
2.2831

> <Gold.Chemscore.Rot.Weighted>
4.0728

> <Gold.Chemscore.Internal.Correction.Weighted>
   9.000000E+99

> <Gold.Protein.RotatedTorsions>
[ 6907 6896 6895 6894 ] final  -53.67 input  -60.11 | X-H torsion
[ 7974 7965 7964 7962 ] final  -84.93 input  175.53 | X-H torsion
[ 8008 7997 7996 7995 ] final  -26.47 input   59.86 | X-H torsion
[ 10167 10162 10161 10158 ] final -101.78 input  -65.29 | X-H torsion
[ 10718 10713 10712 10709 ] final   99.77 input   66.30 | X-H torsion
[ 10763 10752 10751 10750 ] final  161.08 input  -60.55 | X-H torsion
[ 11005 11000 10999 10996 ] final -113.16 input  -57.11 | X-H torsion

> <Gold.Protein.ActiveResidues>
 VAL166  LYS551  ARG553  GLY616  TRP617  ASP618  TYR619  PRO620  LYS621  CYS622 
 ASP623  PHE694  ASN695  SER759  ASP760  ASP761  ALA762  ILE779  LEU786  VAL792 
 PHE793  MET794  SER795  GLU796  ALA797  LYS798  CYS799  TRP800  GLU811  SER814 

> <Gold.Protein.RotatedAtoms>
  150.8406  134.7697  159.6928 H   0  0  0  0  0  0  0  0  0  0  0  0  # atno 6907 bound_to 6896
  152.4494  134.5422  159.9852 H   0  0  0  0  0  0  0  0  0  0  0  0  # atno 6908 bound_to 6896
  151.5563  133.3372  159.2998 H   0  0  0  0  0  0  0  0  0  0  0  0  # atno 6909 bound_to 6896
  145.5000  140.9547  143.1765 H   0  0  0  0  0  0  0  0  0  0  0  0  # atno 7974 bound_to 7965
  154.4423  140.1898  156.0781 H   0  0  0  0  0  0  0  0  0  0  0  0  # atno 8008 bound_to 7997
  156.0460  140.3314  155.7270 H   0  0  0  0  0  0  0  0  0  0  0  0  # atno 8009 bound_to 7997
  155.5629  140.0605  157.2815 H   0  0  0  0  0  0  0  0  0  0  0  0  # atno 8010 bound_to 7997
  140.2376  143.3561  152.0830 H   0  0  0  0  0  0  0  0  0  0  0  0  # atno 10167 bound_to 10162
  157.6869  131.0679  150.4999 H   0  0  0  0  0  0  0  0  0  0  0  0  # atno 10718 bound_to 10713
  154.2574  135.2769  155.2792 H   0  0  0  0  0  0  0  0  0  0  0  0  # atno 10763 bound_to 10752
  154.5413  135.5702  153.6845 H   0  0  0  0  0  0  0  0  0  0  0  0  # atno 10764 bound_to 10752
  152.9969  135.6252  154.2723 H   0  0  0  0  0  0  0  0  0  0  0  0  # atno 10765 bound_to 10752
  141.0631  133.9502  157.2629 H   0  0  0  0  0  0  0  0  0  0  0  0  # atno 11005 bound_to 11000
  144.7785  139.6577  143.7164 LP  0  0  0  0  0  0  0  0  0  0  0  0  # atno 17320 bound_to 7965
  146.2232  139.5673  142.9605 LP  0  0  0  0  0  0  0  0  0  0  0  0  # atno 17321 bound_to 7965
  139.5088  144.6856  151.5895 LP  0  0  0  0  0  0  0  0  0  0  0  0  # atno 17342 bound_to 10162
  140.6138  143.9387  150.6473 LP  0  0  0  0  0  0  0  0  0  0  0  0  # atno 17343 bound_to 10162
  156.5321  130.4187  149.6196 LP  0  0  0  0  0  0  0  0  0  0  0  0  # atno 17370 bound_to 10713
  156.3060  130.7203  151.2085 LP  0  0  0  0  0  0  0  0  0  0  0  0  # atno 17371 bound_to 10713
  139.9451  135.0185  156.8828 LP  0  0  0  0  0  0  0  0  0  0  0  0  # atno 17394 bound_to 11000
  140.5828  134.0336  155.7470 LP  0  0  0  0  0  0  0  0  0  0  0  0  # atno 17395 bound_to 11000

$$$$
