AV-unprocessed.smi:2002|AV-procd|sdf|8114|dock5
  -GOLD-   2272010343D 1   1.00000     0.00000
 Structure written by MMmdl.
 39 40  0  0  0  0  0  0  0  0  2 V2000
  143.5370  132.6980  148.1508 C   0  0  0  0  0  0  0  0  0  0  0  0
  144.1054  132.5994  149.5730 C   0  0  0  0  0  0  0  0  0  0  0  0
  145.0157  133.7251  149.8872 N   0  3  2  0  0  0  0  0  0  0  0  0
  146.1209  133.3706  150.8034 C   0  0  0  0  0  0  0  0  0  0  0  0
  146.4552  134.6582  151.5514 C   0  0  0  0  0  0  0  0  0  0  0  0
  145.0826  135.2984  151.7355 C   0  0  1  0  0  0  0  0  0  0  0  0
  145.1325  136.8023  152.0670 C   0  0  0  0  0  0  0  0  0  0  0  0
  146.4880  137.2510  152.3731 N   0  0  0  0  0  0  0  0  0  0  0  0
  146.8122  138.2129  153.2496 C   0  0  0  0  0  0  0  0  0  0  0  0
  145.9812  138.8324  153.9133 O   0  0  0  0  0  0  0  0  0  0  0  0
  148.1426  138.3934  153.3035 N   0  0  0  0  0  0  0  0  0  0  0  0
  148.8776  139.2951  154.1161 C   0  0  0  0  0  0  0  0  0  0  0  0
  150.1834  139.0820  154.6462 C   0  0  0  0  0  0  0  0  0  0  0  0
  150.4229  140.2333  155.3419 C   0  0  0  0  0  0  0  0  0  0  0  0
  151.5835  140.7084  156.1466 C   0  0  0  0  0  0  0  0  0  0  0  0
  149.3595  141.0758  155.2450 O   0  0  0  0  0  0  0  0  0  0  0  0
  148.3746  140.4668  154.4585 N   0  0  0  0  0  0  0  0  0  0  0  0
  144.3552  134.9375  150.4297 C   0  0  0  0  0  0  0  0  0  0  0  0
  142.9060  131.8376  147.9279 H   0  0  0  0  0  0  0  0  0  0  0  0
  144.3350  132.7238  147.4081 H   0  0  0  0  0  0  0  0  0  0  0  0
  142.9282  133.5926  148.0196 H   0  0  0  0  0  0  0  0  0  0  0  0
  143.2991  132.5564  150.3066 H   0  0  0  0  0  0  0  0  0  0  0  0
  144.6609  131.6646  149.6611 H   0  0  0  0  0  0  0  0  0  0  0  0
  145.7840  132.6154  151.5160 H   0  0  0  0  0  0  0  0  0  0  0  0
  146.9760  132.9643  150.2625 H   0  0  0  0  0  0  0  0  0  0  0  0
  146.9686  134.4759  152.4961 H   0  0  0  0  0  0  0  0  0  0  0  0
  147.0933  135.2939  150.9354 H   0  0  0  0  0  0  0  0  0  0  0  0
  144.5856  134.7755  152.5549 H   0  0  0  0  0  0  0  0  0  0  0  0
  144.7857  137.3746  151.2065 H   0  0  0  0  0  0  0  0  0  0  0  0
  144.4497  137.0412  152.8844 H   0  0  0  0  0  0  0  0  0  0  0  0
  147.2376  136.7982  151.8702 H   0  0  0  0  0  0  0  0  0  0  0  0
  148.7002  137.8116  152.6956 H   0  0  0  0  0  0  0  0  0  0  0  0
  150.8468  138.2365  154.5457 H   0  0  0  0  0  0  0  0  0  0  0  0
  152.3035  139.9050  156.3031 H   0  0  0  0  0  0  0  0  0  0  0  0
  151.2574  141.0647  157.1239 H   0  0  0  0  0  0  0  0  0  0  0  0
  152.0944  141.5272  155.6401 H   0  0  0  0  0  0  0  0  0  0  0  0
  144.4677  135.7278  149.6874 H   0  0  0  0  0  0  0  0  0  0  0  0
  143.2871  134.7992  150.6039 H   0  0  0  0  0  0  0  0  0  0  0  0
  145.4502  134.0054  149.0193 H   0  0  0  0  0  0  0  0  0  0  0  0
  1  2  1  0  0  0  0
  1 19  1  0  0  0  0
  1 20  1  0  0  0  0
  1 21  1  0  0  0  0
  2  3  1  0  0  0  0
  2 22  1  0  0  0  0
  2 23  1  0  0  0  0
  3 18  1  0  0  0  0
  3  4  1  0  0  0  0
  3 39  1  0  0  0  0
  4  5  1  0  0  0  0
  4 24  1  0  0  0  0
  4 25  1  0  0  0  0
  5  6  1  0  0  0  0
  5 26  1  0  0  0  0
  5 27  1  0  0  0  0
  6  7  1  0  0  0  0
  6 18  1  0  0  0  0
  6 28  1  0  0  0  0
  7  8  1  0  0  0  0
  7 29  1  0  0  0  0
  7 30  1  0  0  0  0
  8  9  1  0  0  0  0
  8 31  1  0  0  0  0
  9 10  2  0  0  0  0
  9 11  1  0  0  0  0
 11 12  1  0  0  0  0
 11 32  1  0  0  0  0
 12 17  2  0  0  0  0
 12 13  1  0  0  0  0
 13 14  2  0  0  0  0
 13 33  1  0  0  0  0
 14 15  1  0  0  0  0
 14 16  1  0  0  0  0
 15 34  1  0  0  0  0
 15 35  1  0  0  0  0
 15 36  1  0  0  0  0
 16 17  1  0  0  0  0
 18 37  1  0  0  0  0
 18 38  1  0  0  0  0
M  CHG  1   3   1
M  END
> <s_m_source_file>
AV-unprocessed.smi

> <i_m_source_file_index>
2002

> <i_lp_mmshare_version>
43012

> <i_f3d_flags>
0

> <s_epik_input>
W0NIM11bQ0gyXU4xW0NIMl1bQ0gyXVtDQEhdKFtDSDJdMSlbQ0gyXVtOSF1DKD1PKVtOSF1jMltjSF1jKFtDSDNdKW9uMg==

> <s_epik_cmdline>
J2VwaWtfcHl0aG9uJywgJy1waCcsICc3LjAnLCAnLXRuJywgJzgnLCAnLW1hJywgJzIwMCcsICctbWV0YWxfYmluZGluZycsICctaW1hZScsICc8aW5maWxlLm1hZT4nLCAnLW9tYWUnLCAnPG91dGZpbGUubWFlPic=

> <r_epik_Ionization_Penalty>
0.000632871

> <r_epik_Ionization_Penalty_Charging>
0.000610951

> <r_epik_Ionization_Penalty_Neutral>
2.19198e-05

> <r_epik_State_Penalty>
0.000385263

> <r_epik_Charging_Adjusted_Penalty>
0.000996214

> <i_epik_Tot_Q>
1

> <i_epik_Tot_abs_Q>
1

> <r_epik_Metal_State_Penalty>
-0

> <b_epik_Metal_Only>
0

> <s_lp_Force_Field>
OPLS_2005

> <r_lp_Energy>
27.554

> <b_lp_Chiralities_Consistent>
1

> <s_lp_Variant>
AV-unprocessed.smi:2002-2

> <Gold.Version>
5.8.1

> <Gold.Id.Protein>
6NUR|6NUR_protein|mol2

> <Gold.PLP.Fitness>
37.1356

> <Gold.PLP.PLP>
-32.1786

> <Gold.PLP.part.hbond>
-3.9248

> <Gold.PLP.part.metal>
0.0000

> <Gold.PLP.part.buried>
-0.8297

> <Gold.PLP.part.nonpolar>
-27.9816

> <Gold.PLP.part.repulsive>
0.5473

> <Gold.PLP.ligand.clash>
1.0816

> <Gold.PLP.ligand.torsion>
1.4737

> <Gold.PLP.Chemscore.Hbond>
2.9920

> <Gold.PLP.Chemscore.CHOScore>
0.0000

> <Gold.PLP.Chemscore.Metal>
0.0000

> <Gold.Chemscore.Hbonds>
donor molecule, donor type, donor heavy atom, donor atom, acceptor molecule, acceptor atom, score
      L1  H     3    39       P1  7921  1.00
      L1  H     8    31       P1  7948  0.99
      L1  H    11    32       P1  7948  1.00

> <Gold.PLP.Chemscore.Internal.Correction>
0.0101

> <Gold.Rescore>
     Score         DG    S(hbond)    S(metal)    S(lipo)     H(rot)  DE(clash)    DE(int)     intcor
     17.05     -19.86       2.87        0.00      74.31       1.52       0.04       2.77       ----

> <Gold.Chemscore.Fitness>
17.0462

> <Gold.Chemscore.DG>
-19.8561

> <Gold.Chemscore.ZeroCoef>
-5.4800

> <Gold.Chemscore.Hbond>
2.8680

> <Gold.Chemscore.Metal>
0.0000

> <Gold.Chemscore.Lipo>
74.3084

> <Gold.Chemscore.Internal_Hbond>
0.0000

> <Gold.Chemscore.DEClash>
0.0398

> <Gold.Chemscore.DEInternal>
2.7701

> <Gold.Chemscore.Rot>
1.5223

> <Gold.Chemscore.Internal.Correction>
   9.000000E+99

> <Gold.Chemscore.Hbonds>
donor molecule, donor type, donor heavy atom, donor atom, acceptor molecule, acceptor atom, score
      L1  H     3    39       P1  7921  0.78
      L1  H     8    31       P1  7948  0.93
      L1  H    11    32       P1  7948  0.95

> <Gold.Chemscore.Hbond.Weighted>
-9.5791

> <Gold.Chemscore.Metal.Weighted>
-0.0000

> <Gold.Chemscore.Lipo.Weighted>
-8.6941

> <Gold.Chemscore.Internal_Hbond.Weighted>
0.0000

> <Gold.Chemscore.DEClash.Weighted>
0.0398

> <Gold.Chemscore.DEInternal.Weighted>
2.7701

> <Gold.Chemscore.Rot.Weighted>
3.8971

> <Gold.Chemscore.Internal.Correction.Weighted>
   9.000000E+99

> <Gold.Protein.RotatedTorsions>
[ 6907 6896 6895 6894 ] final   79.05 input  -60.11 | X-H torsion
[ 7974 7965 7964 7962 ] final  153.74 input  175.53 | X-H torsion
[ 8008 7997 7996 7995 ] final  -90.97 input   59.86 | X-H torsion
[ 10167 10162 10161 10158 ] final   29.82 input  -65.29 | X-H torsion
[ 10718 10713 10712 10709 ] final   86.50 input   66.30 | X-H torsion
[ 10763 10752 10751 10750 ] final  -29.67 input  -60.55 | X-H torsion
[ 11005 11000 10999 10996 ] final   10.55 input  -57.11 | X-H torsion

> <Gold.Protein.ActiveResidues>
 VAL166  LYS551  ARG553  GLY616  TRP617  ASP618  TYR619  PRO620  LYS621  CYS622 
 ASP623  PHE694  ASN695  SER759  ASP760  ASP761  ALA762  ILE779  LEU786  VAL792 
 PHE793  MET794  SER795  GLU796  ALA797  LYS798  CYS799  TRP800  GLU811  SER814 

> <Gold.Protein.RotatedAtoms>
  152.5184  134.3570  159.9271 H   0  0  0  0  0  0  0  0  0  0  0  0  # atno 6907 bound_to 6896
  151.3522  133.3915  159.2689 H   0  0  0  0  0  0  0  0  0  0  0  0  # atno 6908 bound_to 6896
  150.9718  134.9108  159.7850 H   0  0  0  0  0  0  0  0  0  0  0  0  # atno 6909 bound_to 6896
  144.8135  139.6840  143.6131 H   0  0  0  0  0  0  0  0  0  0  0  0  # atno 7974 bound_to 7965
  154.7051  140.0524  157.0496 H   0  0  0  0  0  0  0  0  0  0  0  0  # atno 8008 bound_to 7997
  155.0631  140.3191  155.4635 H   0  0  0  0  0  0  0  0  0  0  0  0  # atno 8009 bound_to 7997
  156.2772  140.2095  156.5758 H   0  0  0  0  0  0  0  0  0  0  0  0  # atno 8010 bound_to 7997
  140.4732  144.0730  150.6243 H   0  0  0  0  0  0  0  0  0  0  0  0  # atno 10167 bound_to 10162
  157.6929  131.0218  150.2982 H   0  0  0  0  0  0  0  0  0  0  0  0  # atno 10718 bound_to 10713
  153.7684  135.6914  153.4911 H   0  0  0  0  0  0  0  0  0  0  0  0  # atno 10763 bound_to 10752
  153.1891  135.4478  155.0125 H   0  0  0  0  0  0  0  0  0  0  0  0  # atno 10764 bound_to 10752
  154.8127  135.3385  154.7195 H   0  0  0  0  0  0  0  0  0  0  0  0  # atno 10765 bound_to 10752
  140.5132  134.0632  155.7824 H   0  0  0  0  0  0  0  0  0  0  0  0  # atno 11005 bound_to 11000
  146.2436  139.6051  142.9475 LP  0  0  0  0  0  0  0  0  0  0  0  0  # atno 17320 bound_to 7965
  145.5269  141.0429  143.2404 LP  0  0  0  0  0  0  0  0  0  0  0  0  # atno 17321 bound_to 7965
  140.3951  143.2732  152.0014 LP  0  0  0  0  0  0  0  0  0  0  0  0  # atno 17342 bound_to 10162
  139.4821  144.6045  151.7546 LP  0  0  0  0  0  0  0  0  0  0  0  0  # atno 17343 bound_to 10162
  156.3502  130.3830  149.7335 LP  0  0  0  0  0  0  0  0  0  0  0  0  # atno 17370 bound_to 10713
  156.4815  130.8043  151.3057 LP  0  0  0  0  0  0  0  0  0  0  0  0  # atno 17371 bound_to 10713
  141.1374  133.9197  157.2402 LP  0  0  0  0  0  0  0  0  0  0  0  0  # atno 17394 bound_to 11000
  139.9647  135.0145  156.9356 LP  0  0  0  0  0  0  0  0  0  0  0  0  # atno 17395 bound_to 11000

$$$$
