AV-unprocessed.smi:3348|AV-procd|sdf|12917|dock10
  -GOLD-   2272019333D 1   1.00000     0.00000
 Structure written by MMmdl.
 47 48  0  0  0  0  0  0  0  0  2 V2000
  144.3120  135.8368  152.5823 C   0  0  0  0  0  0  0  0  0  0  0  0
  145.4988  136.6575  152.0593 C   0  0  2  0  0  0  0  0  0  0  0  0
  145.8684  136.2102  150.6265 C   0  0  0  0  0  0  0  0  0  0  0  0
  145.8173  134.7729  150.4295 N   0  0  0  0  0  0  0  0  0  0  0  0
  144.7800  134.0138  149.9288 C   0  0  0  0  0  0  0  0  0  0  0  0
  145.1982  132.7141  149.9142 C   0  0  0  0  0  0  0  0  0  0  0  0
  146.5264  132.7800  150.4205 C   0  0  0  0  0  0  0  0  0  0  0  0
  146.8958  134.0144  150.7230 N   0  0  0  0  0  0  0  0  0  0  0  0
  146.6378  136.5076  152.9952 N   0  3  0  0  0  0  0  0  0  0  0  0
  146.7427  137.5426  154.0461 C   0  0  0  0  0  0  0  0  0  0  0  0
  147.6952  137.0986  155.1594 C   0  0  0  0  0  0  0  0  0  0  0  0
  148.2890  138.2551  155.7284 O   0  0  0  0  0  0  0  0  0  0  0  0
  149.1599  138.9669  154.8555 C   0  0  1  0  0  0  0  0  0  0  0  0
  148.9699  140.4888  155.0329 C   0  0  0  0  0  0  0  0  0  0  0  0
  149.3795  140.9514  156.4408 C   0  0  0  0  0  0  0  0  0  0  0  0
  150.8234  140.5383  156.7636 C   0  0  0  0  0  0  0  0  0  0  0  0
  151.0253  139.0245  156.5882 C   0  0  0  0  0  0  0  0  0  0  0  0
  150.6147  138.5574  155.1769 C   0  0  1  0  0  0  0  0  0  0  0  0
  150.8462  137.0507  154.9822 C   0  0  0  0  0  0  0  0  0  0  0  0
  143.4368  135.9617  151.9439 H   0  0  0  0  0  0  0  0  0  0  0  0
  144.0295  136.1495  153.5883 H   0  0  0  0  0  0  0  0  0  0  0  0
  144.5480  134.7726  152.6177 H   0  0  0  0  0  0  0  0  0  0  0  0
  145.1811  137.7013  152.0480 H   0  0  0  0  0  0  0  0  0  0  0  0
  145.2113  136.6871  149.8979 H   0  0  0  0  0  0  0  0  0  0  0  0
  146.8813  136.5355  150.3848 H   0  0  0  0  0  0  0  0  0  0  0  0
  143.8405  134.4552  149.6302 H   0  0  0  0  0  0  0  0  0  0  0  0
  144.6417  131.8485  149.5864 H   0  0  0  0  0  0  0  0  0  0  0  0
  147.2286  131.9738  150.5743 H   0  0  0  0  0  0  0  0  0  0  0  0
  146.5173  135.6264  153.4745 H   0  0  0  0  0  0  0  0  0  0  0  0
  147.1093  138.4720  153.6139 H   0  0  0  0  0  0  0  0  0  0  0  0
  145.7568  137.7501  154.4640 H   0  0  0  0  0  0  0  0  0  0  0  0
  147.1577  136.5290  155.9191 H   0  0  0  0  0  0  0  0  0  0  0  0
  148.4599  136.4450  154.7397 H   0  0  0  0  0  0  0  0  0  0  0  0
  148.9487  138.6938  153.8199 H   0  0  0  0  0  0  0  0  0  0  0  0
  149.5779  141.0133  154.2948 H   0  0  0  0  0  0  0  0  0  0  0  0
  147.9398  140.7809  154.8310 H   0  0  0  0  0  0  0  0  0  0  0  0
  149.2771  142.0340  156.5209 H   0  0  0  0  0  0  0  0  0  0  0  0
  148.7019  140.5228  157.1802 H   0  0  0  0  0  0  0  0  0  0  0  0
  151.5114  141.0767  156.1105 H   0  0  0  0  0  0  0  0  0  0  0  0
  151.0735  140.8314  157.7836 H   0  0  0  0  0  0  0  0  0  0  0  0
  152.0705  138.7747  156.7744 H   0  0  0  0  0  0  0  0  0  0  0  0
  150.4439  138.4899  157.3406 H   0  0  0  0  0  0  0  0  0  0  0  0
  151.2617  139.0704  154.4634 H   0  0  0  0  0  0  0  0  0  0  0  0
  150.2532  136.4605  155.6816 H   0  0  0  0  0  0  0  0  0  0  0  0
  151.8942  136.7929  155.1379 H   0  0  0  0  0  0  0  0  0  0  0  0
  150.5778  136.7395  153.9723 H   0  0  0  0  0  0  0  0  0  0  0  0
  147.4983  136.4660  152.4683 H   0  0  0  0  0  0  0  0  0  0  0  0
  1  2  1  0  0  0  0
  1 20  1  0  0  0  0
  1 21  1  0  0  0  0
  1 22  1  0  0  0  0
  2  3  1  0  0  0  0
  2  9  1  0  0  0  0
  2 23  1  0  0  0  0
  3  4  1  0  0  0  0
  3 24  1  0  0  0  0
  3 25  1  0  0  0  0
  4  8  1  0  0  0  0
  4  5  1  0  0  0  0
  5  6  2  0  0  0  0
  5 26  1  0  0  0  0
  6  7  1  0  0  0  0
  6 27  1  0  0  0  0
  7  8  2  0  0  0  0
  7 28  1  0  0  0  0
  9 10  1  0  0  0  0
  9 29  1  0  0  0  0
  9 47  1  0  0  0  0
 10 11  1  0  0  0  0
 10 30  1  0  0  0  0
 10 31  1  0  0  0  0
 11 12  1  0  0  0  0
 11 32  1  0  0  0  0
 11 33  1  0  0  0  0
 12 13  1  0  0  0  0
 13 18  1  0  0  0  0
 13 14  1  0  0  0  0
 13 34  1  0  0  0  0
 14 15  1  0  0  0  0
 14 35  1  0  0  0  0
 14 36  1  0  0  0  0
 15 16  1  0  0  0  0
 15 37  1  0  0  0  0
 15 38  1  0  0  0  0
 16 17  1  0  0  0  0
 16 39  1  0  0  0  0
 16 40  1  0  0  0  0
 17 18  1  0  0  0  0
 17 41  1  0  0  0  0
 17 42  1  0  0  0  0
 18 19  1  0  0  0  0
 18 43  1  0  0  0  0
 19 44  1  0  0  0  0
 19 45  1  0  0  0  0
 19 46  1  0  0  0  0
M  CHG  1   9   1
M  END
> <s_m_source_file>
AV-unprocessed.smi

> <i_m_source_file_index>
3348

> <i_lp_mmshare_version>
43012

> <i_f3d_flags>
0

> <s_epik_input>
bjFbY0hdW2NIXVtjSF1uMVtDSDJdW0NAQEhdKFtDSDNdKVtOSF1bQ0gyXVtDSDJdT1tDQEBIXTJbQ0gyXVtDSDJdW0NIMl1bQ0gyXVtDQEhdMltDSDNd

> <s_epik_cmdline>
J2VwaWtfcHl0aG9uJywgJy1waCcsICc3LjAnLCAnLXRuJywgJzgnLCAnLW1hJywgJzIwMCcsICctbWV0YWxfYmluZGluZycsICctaW1hZScsICc8aW5maWxlLm1hZT4nLCAnLW9tYWUnLCAnPG91dGZpbGUubWFlPic=

> <r_lp_tautomer_probability>
1

> <r_epik_Ionization_Penalty>
0.00925088

> <r_epik_Ionization_Penalty_Charging>
0.00924645

> <r_epik_Ionization_Penalty_Neutral>
4.42413e-06

> <r_epik_State_Penalty>
0.0070118

> <r_epik_Charging_Adjusted_Penalty>
0.0162583

> <i_epik_Tot_Q>
1

> <i_epik_Tot_abs_Q>
1

> <r_epik_Metal_State_Penalty>
0.00701222

> <b_epik_Metal_Only>
0

> <s_lp_Force_Field>
OPLS_2005

> <r_lp_Energy>
17.627

> <b_lp_Chiralities_Consistent>
1

> <s_lp_Variant>
AV-unprocessed.smi:3348-3

> <Gold.Version>
5.8.1

> <Gold.Id.Protein>
6NUR|6NUR_protein|mol2

> <Gold.PLP.Fitness>
45.2946

> <Gold.PLP.PLP>
-36.7518

> <Gold.PLP.part.hbond>
-1.0000

> <Gold.PLP.part.metal>
0.0000

> <Gold.PLP.part.buried>
-4.8038

> <Gold.PLP.part.nonpolar>
-31.9420

> <Gold.PLP.part.repulsive>
0.2794

> <Gold.PLP.ligand.clash>
0.0000

> <Gold.PLP.ligand.torsion>
1.7984

> <Gold.PLP.Chemscore.Hbond>
2.0000

> <Gold.PLP.Chemscore.CHOScore>
2.0000

> <Gold.PLP.Chemscore.Metal>
0.0000

> <Gold.Chemscore.Hbonds>
donor molecule, donor type, donor heavy atom, donor atom, acceptor molecule, acceptor atom, score
      L1  H     9    47       P1  7948  2.00
      L1  C     5    26       P1 10186  0.26
      L1  C     7    28       P1 10747  1.00

> <Gold.PLP.Chemscore.Internal.Correction>
0.1397

> <Gold.Rescore>
     Score         DG    S(hbond)    S(metal)    S(lipo)     H(rot)  DE(clash)    DE(int)     intcor
     12.81     -14.49       1.00        0.00      88.22       1.82       0.00       1.68       ----

> <Gold.Chemscore.Fitness>
12.8086

> <Gold.Chemscore.DG>
-14.4911

> <Gold.Chemscore.ZeroCoef>
-5.4800

> <Gold.Chemscore.Hbond>
0.9997

> <Gold.Chemscore.Metal>
0.0000

> <Gold.Chemscore.Lipo>
88.2207

> <Gold.Chemscore.Internal_Hbond>
0.0000

> <Gold.Chemscore.DEClash>
0.0015

> <Gold.Chemscore.DEInternal>
1.6810

> <Gold.Chemscore.Rot>
1.8163

> <Gold.Chemscore.Internal.Correction>
   9.000000E+99

> <Gold.Chemscore.Hbonds>
donor molecule, donor type, donor heavy atom, donor atom, acceptor molecule, acceptor atom, score
      L1  H     9    47       P1  7948  0.98

> <Gold.Chemscore.Hbond.Weighted>
-3.3391

> <Gold.Chemscore.Metal.Weighted>
-0.0000

> <Gold.Chemscore.Lipo.Weighted>
-10.3218

> <Gold.Chemscore.Internal_Hbond.Weighted>
0.0000

> <Gold.Chemscore.DEClash.Weighted>
0.0015

> <Gold.Chemscore.DEInternal.Weighted>
1.6810

> <Gold.Chemscore.Rot.Weighted>
4.6497

> <Gold.Chemscore.Internal.Correction.Weighted>
   9.000000E+99

> <Gold.Protein.RotatedTorsions>
[ 6907 6896 6895 6894 ] final -115.53 input  -60.11 | X-H torsion
[ 7974 7965 7964 7962 ] final  112.17 input  175.53 | X-H torsion
[ 8008 7997 7996 7995 ] final   45.92 input   59.86 | X-H torsion
[ 10167 10162 10161 10158 ] final -145.21 input  -65.29 | X-H torsion
[ 10718 10713 10712 10709 ] final   37.32 input   66.30 | X-H torsion
[ 10763 10752 10751 10750 ] final   99.99 input  -60.55 | X-H torsion
[ 11005 11000 10999 10996 ] final   53.33 input  -57.11 | X-H torsion

> <Gold.Protein.ActiveResidues>
 VAL166  LYS551  ARG553  GLY616  TRP617  ASP618  TYR619  PRO620  LYS621  CYS622 
 ASP623  PHE694  ASN695  SER759  ASP760  ASP761  ALA762  ILE779  LEU786  VAL792 
 PHE793  MET794  SER795  GLU796  ALA797  LYS798  CYS799  TRP800  GLU811  SER814 

> <Gold.Protein.RotatedAtoms>
  150.7985  133.8645  159.3240 H   0  0  0  0  0  0  0  0  0  0  0  0  # atno 6907 bound_to 6896
  151.6463  135.1005  160.0161 H   0  0  0  0  0  0  0  0  0  0  0  0  # atno 6908 bound_to 6896
  152.4070  133.6865  159.6400 H   0  0  0  0  0  0  0  0  0  0  0  0  # atno 6909 bound_to 6896
  145.2329  139.2811  143.4158 H   0  0  0  0  0  0  0  0  0  0  0  0  # atno 7974 bound_to 7965
  155.3439  140.3409  155.4239 H   0  0  0  0  0  0  0  0  0  0  0  0  # atno 8008 bound_to 7997
  156.1799  140.1660  156.8329 H   0  0  0  0  0  0  0  0  0  0  0  0  # atno 8009 bound_to 7997
  154.5322  140.0743  156.8348 H   0  0  0  0  0  0  0  0  0  0  0  0  # atno 8010 bound_to 7997
  139.7826  143.8079  152.2640 H   0  0  0  0  0  0  0  0  0  0  0  0  # atno 10167 bound_to 10162
  157.3455  130.7571  149.6942 H   0  0  0  0  0  0  0  0  0  0  0  0  # atno 10718 bound_to 10713
  153.3083  135.4094  155.1313 H   0  0  0  0  0  0  0  0  0  0  0  0  # atno 10763 bound_to 10752
  154.8569  135.3558  154.5758 H   0  0  0  0  0  0  0  0  0  0  0  0  # atno 10764 bound_to 10752
  153.6186  135.7065  153.5378 H   0  0  0  0  0  0  0  0  0  0  0  0  # atno 10765 bound_to 10752
  140.0776  134.5383  155.8980 H   0  0  0  0  0  0  0  0  0  0  0  0  # atno 11005 bound_to 11000
  146.3348  140.2670  142.8604 LP  0  0  0  0  0  0  0  0  0  0  0  0  # atno 17320 bound_to 7965
  144.9659  140.8321  143.5485 LP  0  0  0  0  0  0  0  0  0  0  0  0  # atno 17321 bound_to 7965
  139.8146  144.7321  150.9652 LP  0  0  0  0  0  0  0  0  0  0  0  0  # atno 17342 bound_to 10162
  140.7819  143.4217  151.0830 LP  0  0  0  0  0  0  0  0  0  0  0  0  # atno 17343 bound_to 10162
  155.9714  130.4155  150.4186 LP  0  0  0  0  0  0  0  0  0  0  0  0  # atno 17370 bound_to 10713
  157.2240  131.0489  151.2530 LP  0  0  0  0  0  0  0  0  0  0  0  0  # atno 17371 bound_to 10713
  141.2035  133.6632  156.6067 LP  0  0  0  0  0  0  0  0  0  0  0  0  # atno 17394 bound_to 11000
  140.3535  134.7748  157.4483 LP  0  0  0  0  0  0  0  0  0  0  0  0  # atno 17395 bound_to 11000

$$$$
