AV-unprocessed.smi:1825|AV-procd|sdf|7414|dock3
  -GOLD-   22720 9 93D 1   1.00000     0.00000
 Structure written by MMmdl.
 33 34  0  0  0  0  0  0  0  0  2 V2000
  149.5906  136.0941  159.1059 O   0  0  0  0  0  0  0  0  0  0  0  0
  148.8238  137.0423  159.2901 C   0  0  0  0  0  0  0  0  0  0  0  0
  148.8334  138.0881  158.4500 N   0  0  0  0  0  0  0  0  0  0  0  0
  149.6852  138.2533  157.2720 C   0  0  0  0  0  0  0  0  0  0  0  0
  150.5059  139.5686  157.2847 C   0  0  0  0  0  0  0  0  0  0  0  0
  150.9442  139.7897  155.9556 O   0  0  0  0  0  0  0  0  0  0  0  0
  149.5806  140.7502  157.6658 C   0  0  0  0  0  0  0  0  0  0  0  0
  150.3247  142.0932  157.7784 C   0  0  0  0  0  0  0  0  0  0  0  0
  151.5046  141.9957  158.7544 C   0  0  0  0  0  0  0  0  0  0  0  0
  152.4644  140.8723  158.3408 C   0  0  0  0  0  0  0  0  0  0  0  0
  151.7363  139.5211  158.2276 C   0  0  0  0  0  0  0  0  0  0  0  0
  147.9172  137.1552  160.2875 N   0  5  0  0  0  0  0  0  0  0  0  0
  147.5261  136.0646  160.9665 C   0  0  0  0  0  0  0  0  0  0  0  0
  147.3922  134.8604  160.3989 N   0  0  0  0  0  0  0  0  0  0  0  0
  146.9830  133.8683  161.2919 C   0  0  0  0  0  0  0  0  0  0  0  0
  146.8096  134.3258  162.5712 C   0  0  0  0  0  0  0  0  0  0  0  0
  147.1555  136.0273  162.6929 S   0  0  0  0  0  0  0  0  0  0  0  0
  148.1801  138.8339  158.6394 H   0  0  0  0  0  0  0  0  0  0  0  0
  150.3525  137.3925  157.2121 H   0  0  0  0  0  0  0  0  0  0  0  0
  149.0753  138.2084  156.3684 H   0  0  0  0  0  0  0  0  0  0  0  0
  151.8806  139.6675  155.9274 H   0  0  0  0  0  0  0  0  0  0  0  0
  148.7669  140.8415  156.9448 H   0  0  0  0  0  0  0  0  0  0  0  0
  149.1076  140.5391  158.6259 H   0  0  0  0  0  0  0  0  0  0  0  0
  150.6848  142.4023  156.7963 H   0  0  0  0  0  0  0  0  0  0  0  0
  149.6353  142.8702  158.1097 H   0  0  0  0  0  0  0  0  0  0  0  0
  152.0377  142.9461  158.7911 H   0  0  0  0  0  0  0  0  0  0  0  0
  151.1331  141.8081  159.7627 H   0  0  0  0  0  0  0  0  0  0  0  0
  152.9307  141.1209  157.3869 H   0  0  0  0  0  0  0  0  0  0  0  0
  153.2750  140.7929  159.0656 H   0  0  0  0  0  0  0  0  0  0  0  0
  151.4111  139.2141  159.2224 H   0  0  0  0  0  0  0  0  0  0  0  0
  152.4484  138.7653  157.8945 H   0  0  0  0  0  0  0  0  0  0  0  0
  146.8417  132.8608  160.9301 H   0  0  0  0  0  0  0  0  0  0  0  0
  146.5026  133.7706  163.4445 H   0  0  0  0  0  0  0  0  0  0  0  0
  1  2  2  0  0  0  0
  2  3  1  0  0  0  0
  2 12  1  0  0  0  0
  3  4  1  0  0  0  0
  3 18  1  0  0  0  0
  4  5  1  0  0  0  0
  4 19  1  0  0  0  0
  4 20  1  0  0  0  0
  5 11  1  0  0  0  0
  5  6  1  0  0  0  0
  5  7  1  0  0  0  0
  6 21  1  0  0  0  0
  7  8  1  0  0  0  0
  7 22  1  0  0  0  0
  7 23  1  0  0  0  0
  8  9  1  0  0  0  0
  8 24  1  0  0  0  0
  8 25  1  0  0  0  0
  9 10  1  0  0  0  0
  9 26  1  0  0  0  0
  9 27  1  0  0  0  0
 10 11  1  0  0  0  0
 10 28  1  0  0  0  0
 10 29  1  0  0  0  0
 11 30  1  0  0  0  0
 11 31  1  0  0  0  0
 12 13  1  0  0  0  0
 13 17  1  0  0  0  0
 13 14  2  0  0  0  0
 14 15  1  0  0  0  0
 15 16  2  0  0  0  0
 15 32  1  0  0  0  0
 16 17  1  0  0  0  0
 16 33  1  0  0  0  0
M  CHG  1  12  -1
M  END
> <s_m_source_file>
AV-unprocessed.smi

> <i_m_source_file_index>
1825

> <i_lp_mmshare_version>
43012

> <i_f3d_flags>
0

> <s_epik_input>
czFbY0hdW2NIXW5jMVtOSF1DKD1PKVtOSF1bQ0gyXUMyKFtPSF0pW0NIMl1bQ0gyXVtDSDJdW0NIMl1bQ0gyXTI=

> <s_epik_cmdline>
J2VwaWtfcHl0aG9uJywgJy1waCcsICc3LjAnLCAnLXRuJywgJzgnLCAnLW1hJywgJzIwMCcsICctbWV0YWxfYmluZGluZycsICctaW1hZScsICc8aW5maWxlLm1hZT4nLCAnLW9tYWUnLCAnPG91dGZpbGUubWFlPic=

> <r_lp_tautomer_probability>
0.999

> <r_epik_Ionization_Penalty>
8.3436

> <r_epik_Ionization_Penalty_Charging>
6.70408

> <r_epik_Ionization_Penalty_Neutral>
1.63952

> <r_epik_State_Penalty>
6.70425

> <r_epik_Charging_Adjusted_Penalty>
13.4083

> <i_epik_Tot_Q>
-1

> <i_epik_Tot_abs_Q>
1

> <r_epik_Metal_State_Penalty>
2.62591

> <b_epik_Metal_Only>
1

> <s_lp_Force_Field>
OPLS_2005

> <r_lp_Energy>
9.48325

> <b_lp_Chiralities_Consistent>
1

> <s_lp_Variant>
AV-unprocessed.smi:1825-2

> <Gold.Version>
5.8.1

> <Gold.Id.Protein>
6NUR|6NUR_protein|mol2

> <Gold.PLP.Fitness>
39.4407

> <Gold.PLP.PLP>
-29.1276

> <Gold.PLP.part.hbond>
-3.0000

> <Gold.PLP.part.metal>
0.0000

> <Gold.PLP.part.buried>
-5.0197

> <Gold.PLP.part.nonpolar>
-21.9138

> <Gold.PLP.part.repulsive>
0.1756

> <Gold.PLP.ligand.clash>
0.0000

> <Gold.PLP.ligand.torsion>
0.5294

> <Gold.PLP.Chemscore.Hbond>
3.7824

> <Gold.PLP.Chemscore.CHOScore>
0.0000

> <Gold.PLP.Chemscore.Metal>
0.0000

> <Gold.Chemscore.Hbonds>
donor molecule, donor type, donor heavy atom, donor atom, acceptor molecule, acceptor atom, score
      P1  H  6896  6907       L1     1  1.00
      P1  H  6931  6943       L1    12  0.66
      P1  H  6934  6947       L1    12  1.33

> <Gold.PLP.Chemscore.Internal.Correction>
0.0246

> <Gold.Rescore>
     Score         DG    S(hbond)    S(metal)    S(lipo)     H(rot)  DE(clash)    DE(int)     intcor
     12.69     -14.53       1.95        0.00      61.58       1.83       0.01       1.84       ----

> <Gold.Chemscore.Fitness>
12.6875

> <Gold.Chemscore.DG>
-14.5318

> <Gold.Chemscore.ZeroCoef>
-5.4800

> <Gold.Chemscore.Hbond>
1.9535

> <Gold.Chemscore.Metal>
0.0000

> <Gold.Chemscore.Lipo>
61.5832

> <Gold.Chemscore.Internal_Hbond>
0.0000

> <Gold.Chemscore.DEClash>
0.0058

> <Gold.Chemscore.DEInternal>
1.8385

> <Gold.Chemscore.Rot>
1.8274

> <Gold.Chemscore.Internal.Correction>
   9.000000E+99

> <Gold.Chemscore.Hbonds>
donor molecule, donor type, donor heavy atom, donor atom, acceptor molecule, acceptor atom, score
      P1  H  6896  6907       L1     1  1.00
      P1  H  6931  6943       L1    12  0.04
      P1  H  6934  6947       L1    12  0.60

> <Gold.Chemscore.Hbond.Weighted>
-6.5247

> <Gold.Chemscore.Metal.Weighted>
-0.0000

> <Gold.Chemscore.Lipo.Weighted>
-7.2052

> <Gold.Chemscore.Internal_Hbond.Weighted>
0.0000

> <Gold.Chemscore.DEClash.Weighted>
0.0058

> <Gold.Chemscore.DEInternal.Weighted>
1.8385

> <Gold.Chemscore.Rot.Weighted>
4.6781

> <Gold.Chemscore.Internal.Correction.Weighted>
   9.000000E+99

> <Gold.Protein.RotatedTorsions>
[ 6907 6896 6895 6894 ] final  -51.42 input  -60.11 | X-H torsion
[ 7974 7965 7964 7962 ] final    9.20 input  175.53 | X-H torsion
[ 8008 7997 7996 7995 ] final   94.83 input   59.86 | X-H torsion
[ 10167 10162 10161 10158 ] final  159.29 input  -65.29 | X-H torsion
[ 10718 10713 10712 10709 ] final  104.67 input   66.30 | X-H torsion
[ 10763 10752 10751 10750 ] final   22.59 input  -60.55 | X-H torsion
[ 11005 11000 10999 10996 ] final  125.57 input  -57.11 | X-H torsion

> <Gold.Protein.ActiveResidues>
 VAL166  LYS551  ARG553  GLY616  TRP617  ASP618  TYR619  PRO620  LYS621  CYS622 
 ASP623  PHE694  ASN695  SER759  ASP760  ASP761  ALA762  ILE779  LEU786  VAL792 
 PHE793  MET794  SER795  GLU796  ALA797  LYS798  CYS799  TRP800  GLU811  SER814 

> <Gold.Protein.RotatedAtoms>
  150.8613  134.7965  159.7084 H   0  0  0  0  0  0  0  0  0  0  0  0  # atno 6907 bound_to 6896
  152.4649  134.5095  159.9759 H   0  0  0  0  0  0  0  0  0  0  0  0  # atno 6908 bound_to 6896
  151.5199  133.3430  159.2935 H   0  0  0  0  0  0  0  0  0  0  0  0  # atno 6909 bound_to 6896
  146.2406  139.9819  142.8435 H   0  0  0  0  0  0  0  0  0  0  0  0  # atno 7974 bound_to 7965
  156.0622  140.3294  155.7475 H   0  0  0  0  0  0  0  0  0  0  0  0  # atno 8008 bound_to 7997
  155.5437  140.0604  157.2882 H   0  0  0  0  0  0  0  0  0  0  0  0  # atno 8009 bound_to 7997
  154.4487  140.1906  156.0605 H   0  0  0  0  0  0  0  0  0  0  0  0  # atno 8010 bound_to 7997
  139.4831  144.4744  151.8532 H   0  0  0  0  0  0  0  0  0  0  0  0  # atno 10167 bound_to 10162
  157.6732  131.0809  150.5741 H   0  0  0  0  0  0  0  0  0  0  0  0  # atno 10718 bound_to 10713
  153.0903  135.6645  153.9866 H   0  0  0  0  0  0  0  0  0  0  0  0  # atno 10763 bound_to 10752
  153.9465  135.2988  155.3442 H   0  0  0  0  0  0  0  0  0  0  0  0  # atno 10764 bound_to 10752
  154.7317  135.5120  153.9048 H   0  0  0  0  0  0  0  0  0  0  0  0  # atno 10765 bound_to 10752
  139.9413  134.9635  156.8578 H   0  0  0  0  0  0  0  0  0  0  0  0  # atno 11005 bound_to 11000
  145.1584  140.9660  143.4391 LP  0  0  0  0  0  0  0  0  0  0  0  0  # atno 17320 bound_to 7965
  145.0139  139.3485  143.6106 LP  0  0  0  0  0  0  0  0  0  0  0  0  # atno 17321 bound_to 7965
  140.4215  144.2237  150.5887 LP  0  0  0  0  0  0  0  0  0  0  0  0  # atno 17342 bound_to 10162
  140.4869  143.2360  151.8874 LP  0  0  0  0  0  0  0  0  0  0  0  0  # atno 17343 bound_to 10162
  156.6042  130.4362  149.5885 LP  0  0  0  0  0  0  0  0  0  0  0  0  # atno 17370 bound_to 10713
  156.2482  130.6891  151.1620 LP  0  0  0  0  0  0  0  0  0  0  0  0  # atno 17371 bound_to 10713
  140.5945  134.0230  155.7512 LP  0  0  0  0  0  0  0  0  0  0  0  0  # atno 17394 bound_to 11000
  141.1048  133.9710  157.3015 LP  0  0  0  0  0  0  0  0  0  0  0  0  # atno 17395 bound_to 11000

$$$$
