AV-unprocessed.smi:1931|AV-procd|sdf|7811|dock3
  -GOLD-   22720 9553D 1   1.00000     0.00000
 Structure written by MMmdl.
 48 49  0  0  0  0  0  0  0  0  1 V2000
  144.0189  133.4145  150.9734 C   0  0  0  0  0  0  0  0  0  0  0  0
  144.4744  134.6869  150.5480 O   0  0  0  0  0  0  0  0  0  0  0  0
  145.0842  135.4232  151.5950 C   0  0  0  0  0  0  0  0  0  0  0  0
  145.9130  136.5617  150.9923 C   0  0  0  0  0  0  0  0  0  0  0  0
  146.2028  137.5121  152.0038 O   0  0  0  0  0  0  0  0  0  0  0  0
  146.8544  138.6670  151.4972 C   0  0  0  0  0  0  0  0  0  0  0  0
  147.4049  139.4873  152.6633 C   0  0  0  0  0  0  0  0  0  0  0  0
  146.8026  140.4962  153.0281 O   0  0  0  0  0  0  0  0  0  0  0  0
  148.5417  139.0274  153.2187 N   0  0  0  0  0  0  0  0  0  0  0  0
  149.2970  139.5754  154.2908 C   0  0  0  0  0  0  0  0  0  0  0  0
  150.4757  138.9978  154.8170 C   0  0  0  0  0  0  0  0  0  0  0  0
  151.1191  139.6272  155.8999 C   0  0  0  0  0  0  0  0  0  0  0  0
  150.5689  140.8138  156.4393 C   0  0  0  0  0  0  0  0  0  0  0  0
  151.1972  141.4559  157.5283 N   0  0  0  0  0  0  0  0  0  0  0  0
  151.4247  142.8892  157.3658 C   0  0  0  0  0  0  0  0  0  0  0  0
  151.8195  143.5282  158.7108 C   0  0  2  0  0  0  0  0  0  0  0  0
  152.1860  145.0083  158.5581 C   0  0  0  0  0  0  0  0  0  0  0  0
  152.9481  142.8407  159.2441 O   0  0  0  0  0  0  0  0  0  0  0  0
  152.6756  141.4662  159.5026 C   0  0  2  0  0  0  0  0  0  0  0  0
  153.9138  140.8454  160.1576 C   0  0  0  0  0  0  0  0  0  0  0  0
  152.3088  140.7668  158.1804 C   0  0  0  0  0  0  0  0  0  0  0  0
  149.4364  141.3621  155.9344 N   0  0  0  0  0  0  0  0  0  0  0  0
  148.8218  140.7546  154.8981 C   0  0  0  0  0  0  0  0  0  0  0  0
  143.5632  132.8891  150.1341 H   0  0  0  0  0  0  0  0  0  0  0  0
  143.2689  133.5070  151.7600 H   0  0  0  0  0  0  0  0  0  0  0  0
  144.8430  132.8042  151.3449 H   0  0  0  0  0  0  0  0  0  0  0  0
  144.3367  135.8176  152.2853 H   0  0  0  0  0  0  0  0  0  0  0  0
  145.7384  134.7604  152.1636 H   0  0  0  0  0  0  0  0  0  0  0  0
  146.8496  136.1614  150.6015 H   0  0  0  0  0  0  0  0  0  0  0  0
  145.3805  137.0228  150.1590 H   0  0  0  0  0  0  0  0  0  0  0  0
  147.6795  138.3861  150.8410 H   0  0  0  0  0  0  0  0  0  0  0  0
  146.1552  139.2712  150.9166 H   0  0  0  0  0  0  0  0  0  0  0  0
  148.8741  138.1426  152.8628 H   0  0  0  0  0  0  0  0  0  0  0  0
  150.8931  138.0836  154.4252 H   0  0  0  0  0  0  0  0  0  0  0  0
  152.0277  139.1988  156.2959 H   0  0  0  0  0  0  0  0  0  0  0  0
  152.2196  143.0349  156.6329 H   0  0  0  0  0  0  0  0  0  0  0  0
  150.5411  143.3944  156.9781 H   0  0  0  0  0  0  0  0  0  0  0  0
  150.9876  143.4486  159.4130 H   0  0  0  0  0  0  0  0  0  0  0  0
  151.3450  145.5822  158.1685 H   0  0  0  0  0  0  0  0  0  0  0  0
  153.0258  145.1388  157.8750 H   0  0  0  0  0  0  0  0  0  0  0  0
  152.4672  145.4413  159.5182 H   0  0  0  0  0  0  0  0  0  0  0  0
  151.8404  141.3922  160.2014 H   0  0  0  0  0  0  0  0  0  0  0  0
  153.7528  139.7901  160.3800 H   0  0  0  0  0  0  0  0  0  0  0  0
  154.1527  141.3499  161.0941 H   0  0  0  0  0  0  0  0  0  0  0  0
  154.7848  140.9216  159.5060 H   0  0  0  0  0  0  0  0  0  0  0  0
  152.0393  139.7292  158.3823 H   0  0  0  0  0  0  0  0  0  0  0  0
  153.1687  140.7563  157.5091 H   0  0  0  0  0  0  0  0  0  0  0  0
  147.9201  141.2303  154.5409 H   0  0  0  0  0  0  0  0  0  0  0  0
  1  2  1  0  0  0  0
  1 24  1  0  0  0  0
  1 25  1  0  0  0  0
  1 26  1  0  0  0  0
  2  3  1  0  0  0  0
  3  4  1  0  0  0  0
  3 27  1  0  0  0  0
  3 28  1  0  0  0  0
  4  5  1  0  0  0  0
  4 29  1  0  0  0  0
  4 30  1  0  0  0  0
  5  6  1  0  0  0  0
  6  7  1  0  0  0  0
  6 31  1  0  0  0  0
  6 32  1  0  0  0  0
  7  8  2  0  0  0  0
  7  9  1  0  0  0  0
  9 10  1  0  0  0  0
  9 33  1  0  0  0  0
 10 23  1  0  0  0  0
 10 11  2  0  0  0  0
 11 12  1  0  0  0  0
 11 34  1  0  0  0  0
 12 13  2  0  0  0  0
 12 35  1  0  0  0  0
 13 14  1  0  0  0  0
 13 22  1  0  0  0  0
 14 21  1  0  0  0  0
 14 15  1  0  0  0  0
 15 16  1  0  0  0  0
 15 36  1  0  0  0  0
 15 37  1  0  0  0  0
 16 17  1  0  0  0  0
 16 18  1  0  0  0  0
 16 38  1  0  0  0  0
 17 39  1  0  0  0  0
 17 40  1  0  0  0  0
 17 41  1  0  0  0  0
 18 19  1  0  0  0  0
 19 20  1  0  0  0  0
 19 21  1  0  0  0  0
 19 42  1  0  0  0  0
 20 43  1  0  0  0  0
 20 44  1  0  0  0  0
 20 45  1  0  0  0  0
 21 46  1  0  0  0  0
 21 47  1  0  0  0  0
 22 23  2  0  0  0  0
 23 48  1  0  0  0  0
M  END
> <s_m_source_file>
AV-unprocessed.smi

> <i_m_source_file_index>
1931

> <i_lp_mmshare_version>
43012

> <i_f3d_flags>
0

> <s_epik_input>
W0NIM11PW0NIMl1bQ0gyXU9bQ0gyXUMoPU8pW05IXWMxW2NIXVtjSF1jKG5bY0hdMSlOMltDSDJdW0NAQEhdKFtDSDNdKU9bQ0BASF0oW0NIM10pW0NIMl0y

> <s_epik_cmdline>
J2VwaWtfcHl0aG9uJywgJy1waCcsICc3LjAnLCAnLXRuJywgJzgnLCAnLW1hJywgJzIwMCcsICctbWV0YWxfYmluZGluZycsICctaW1hZScsICc8aW5maWxlLm1hZT4nLCAnLW9tYWUnLCAnPG91dGZpbGUubWFlPic=

> <r_lp_tautomer_probability>
1

> <r_epik_Ionization_Penalty>
0.000582342

> <r_epik_Ionization_Penalty_Charging>
0

> <r_epik_Ionization_Penalty_Neutral>
0.000582342

> <r_epik_State_Penalty>
0.00036524

> <r_epik_Charging_Adjusted_Penalty>
0.00036524

> <i_epik_Tot_Q>
0

> <i_epik_Tot_abs_Q>
0

> <r_epik_Metal_State_Penalty>
-0

> <b_epik_Metal_Only>
0

> <s_lp_Force_Field>
OPLS_2005

> <r_lp_Energy>
23.8066

> <b_lp_Chiralities_Consistent>
1

> <s_lp_Variant>
AV-unprocessed.smi:1931-1

> <Gold.Version>
5.8.1

> <Gold.Id.Protein>
6NUR|6NUR_protein|mol2

> <Gold.PLP.Fitness>
44.6663

> <Gold.PLP.PLP>
-43.1656

> <Gold.PLP.part.hbond>
-1.7433

> <Gold.PLP.part.metal>
0.0000

> <Gold.PLP.part.buried>
-1.5493

> <Gold.PLP.part.nonpolar>
-41.1065

> <Gold.PLP.part.repulsive>
1.3921

> <Gold.PLP.ligand.clash>
0.0000

> <Gold.PLP.ligand.torsion>
0.5849

> <Gold.PLP.Chemscore.Hbond>
0.7638

> <Gold.PLP.Chemscore.CHOScore>
0.0000

> <Gold.PLP.Chemscore.Metal>
0.0000

> <Gold.Chemscore.Hbonds>
donor molecule, donor type, donor heavy atom, donor atom, acceptor molecule, acceptor atom, score
      L1  H     9    33       P1  7948  0.75

> <Gold.PLP.Chemscore.Internal.Correction>
0.3792

> <Gold.Rescore>
     Score         DG    S(hbond)    S(metal)    S(lipo)     H(rot)  DE(clash)    DE(int)     intcor
     13.89     -16.72       0.84        0.00     114.47       1.93       0.61       2.22       ----

> <Gold.Chemscore.Fitness>
13.8913

> <Gold.Chemscore.DG>
-16.7216

> <Gold.Chemscore.ZeroCoef>
-5.4800

> <Gold.Chemscore.Hbond>
0.8388

> <Gold.Chemscore.Metal>
0.0000

> <Gold.Chemscore.Lipo>
114.4737

> <Gold.Chemscore.Internal_Hbond>
0.0000

> <Gold.Chemscore.DEClash>
0.6132

> <Gold.Chemscore.DEInternal>
2.2170

> <Gold.Chemscore.Rot>
1.9349

> <Gold.Chemscore.Internal.Correction>
   9.000000E+99

> <Gold.Chemscore.Hbonds>
donor molecule, donor type, donor heavy atom, donor atom, acceptor molecule, acceptor atom, score
      L1  H     9    33       P1  7948  0.75

> <Gold.Chemscore.Hbond.Weighted>
-2.8016

> <Gold.Chemscore.Metal.Weighted>
-0.0000

> <Gold.Chemscore.Lipo.Weighted>
-13.3934

> <Gold.Chemscore.Internal_Hbond.Weighted>
0.0000

> <Gold.Chemscore.DEClash.Weighted>
0.6132

> <Gold.Chemscore.DEInternal.Weighted>
2.2170

> <Gold.Chemscore.Rot.Weighted>
4.9534

> <Gold.Chemscore.Internal.Correction.Weighted>
   9.000000E+99

> <Gold.Protein.RotatedTorsions>
[ 6907 6896 6895 6894 ] final  137.40 input  -60.11 | X-H torsion
[ 7974 7965 7964 7962 ] final -124.50 input  175.53 | X-H torsion
[ 8008 7997 7996 7995 ] final   74.78 input   59.86 | X-H torsion
[ 10167 10162 10161 10158 ] final   76.00 input  -65.29 | X-H torsion
[ 10718 10713 10712 10709 ] final  105.31 input   66.30 | X-H torsion
[ 10763 10752 10751 10750 ] final  -16.44 input  -60.55 | X-H torsion
[ 11005 11000 10999 10996 ] final  -34.26 input  -57.11 | X-H torsion

> <Gold.Protein.ActiveResidues>
 VAL166  LYS551  ARG553  GLY616  TRP617  ASP618  TYR619  PRO620  LYS621  CYS622 
 ASP623  PHE694  ASN695  SER759  ASP760  ASP761  ALA762  ILE779  LEU786  VAL792 
 PHE793  MET794  SER795  GLU796  ALA797  LYS798  CYS799  TRP800  GLU811  SER814 

> <Gold.Protein.RotatedAtoms>
  152.2785  133.5448  159.5482 H   0  0  0  0  0  0  0  0  0  0  0  0  # atno 6907 bound_to 6896
  150.7186  134.0598  159.3836 H   0  0  0  0  0  0  0  0  0  0  0  0  # atno 6908 bound_to 6896
  151.8509  135.0558  160.0509 H   0  0  0  0  0  0  0  0  0  0  0  0  # atno 6909 bound_to 6896
  145.0074  140.7875  143.4459 H   0  0  0  0  0  0  0  0  0  0  0  0  # atno 7974 bound_to 7965
  155.8033  140.3475  155.5415 H   0  0  0  0  0  0  0  0  0  0  0  0  # atno 8008 bound_to 7997
  155.8515  140.0957  157.1692 H   0  0  0  0  0  0  0  0  0  0  0  0  # atno 8009 bound_to 7997
  154.4008  140.1375  156.3838 H   0  0  0  0  0  0  0  0  0  0  0  0  # atno 8010 bound_to 7997
  139.9969  144.5715  150.7770 H   0  0  0  0  0  0  0  0  0  0  0  0  # atno 10167 bound_to 10162
  157.6710  131.0825  150.5838 H   0  0  0  0  0  0  0  0  0  0  0  0  # atno 10718 bound_to 10713
  153.5586  135.7010  153.5558 H   0  0  0  0  0  0  0  0  0  0  0  0  # atno 10763 bound_to 10752
  153.3450  135.4010  155.1601 H   0  0  0  0  0  0  0  0  0  0  0  0  # atno 10764 bound_to 10752
  154.8651  135.3751  154.5101 H   0  0  0  0  0  0  0  0  0  0  0  0  # atno 10765 bound_to 10752
  140.9702  133.7114  156.1510 H   0  0  0  0  0  0  0  0  0  0  0  0  # atno 11005 bound_to 11000
  145.2069  139.2224  143.5163 LP  0  0  0  0  0  0  0  0  0  0  0  0  # atno 17320 bound_to 7965
  146.3463  140.1899  142.8589 LP  0  0  0  0  0  0  0  0  0  0  0  0  # atno 17321 bound_to 7965
  140.7434  143.2845  151.3503 LP  0  0  0  0  0  0  0  0  0  0  0  0  # atno 17342 bound_to 10162
  139.6300  144.0740  152.2467 LP  0  0  0  0  0  0  0  0  0  0  0  0  # atno 17343 bound_to 10162
  156.6138  130.4387  149.5848 LP  0  0  0  0  0  0  0  0  0  0  0  0  # atno 17370 bound_to 10713
  156.2409  130.6851  151.1555 LP  0  0  0  0  0  0  0  0  0  0  0  0  # atno 17371 bound_to 10713
  140.7341  134.4223  157.5562 LP  0  0  0  0  0  0  0  0  0  0  0  0  # atno 17394 bound_to 11000
  139.8909  134.8793  156.2346 LP  0  0  0  0  0  0  0  0  0  0  0  0  # atno 17395 bound_to 11000

$$$$
