AV-unprocessed.smi:431|AV-procd|sdf|2548|dock6
  -GOLD-   2262022513D 1   1.00000     0.00000
 Structure written by MMmdl.
 43 44  0  0  0  0  0  0  0  0  1 V2000
  149.4589  133.6522  154.0925 C   0  0  0  0  0  0  0  0  0  0  0  0
  149.8778  134.2496  155.4449 C   0  0  0  0  0  0  0  0  0  0  0  0
  149.4424  135.7172  155.6522 C   0  0  1  0  0  0  0  0  0  0  0  0
  149.0925  135.9847  157.1262 C   0  0  0  0  0  0  0  0  0  0  0  0
  150.5175  136.7088  155.1823 C   0  0  0  0  0  0  0  0  0  0  0  0
  151.5744  136.2957  154.7040 O   0  0  0  0  0  0  0  0  0  0  0  0
  150.2354  138.0124  155.3321 N   0  0  0  0  0  0  0  0  0  0  0  0
  151.1232  139.1200  154.9930 C   0  0  0  0  0  0  0  0  0  0  0  0
  151.2159  140.1601  156.0969 C   0  0  0  0  0  0  0  0  0  0  0  0
  150.7792  141.4817  155.8815 C   0  0  0  0  0  0  0  0  0  0  0  0
  150.8750  142.4136  156.9325 C   0  0  0  0  0  0  0  0  0  0  0  0
  151.4135  142.0017  158.1755 C   0  0  0  0  0  0  0  0  0  0  0  0
  151.5169  142.9168  159.2462 N   0  0  0  0  0  0  0  0  0  0  0  0
  152.4314  142.5935  160.3403 C   0  0  0  0  0  0  0  0  0  0  0  0
  152.1907  143.5307  161.5357 C   0  0  0  0  0  0  0  0  0  0  0  0
  152.2981  144.8855  161.1122 O   0  0  0  0  0  0  0  0  0  0  0  0
  151.3241  145.2100  160.1258 C   0  0  0  0  0  0  0  0  0  0  0  0
  151.5301  144.3313  158.8799 C   0  0  0  0  0  0  0  0  0  0  0  0
  151.8330  140.7279  158.3770 N   0  0  0  0  0  0  0  0  0  0  0  0
  151.7388  139.8385  157.3665 C   0  0  0  0  0  0  0  0  0  0  0  0
  149.7413  132.6011  154.0318 H   0  0  0  0  0  0  0  0  0  0  0  0
  149.9351  134.1672  153.2580 H   0  0  0  0  0  0  0  0  0  0  0  0
  148.3794  133.7134  153.9539 H   0  0  0  0  0  0  0  0  0  0  0  0
  149.4440  133.6375  156.2364 H   0  0  0  0  0  0  0  0  0  0  0  0
  150.9590  134.1591  155.5601 H   0  0  0  0  0  0  0  0  0  0  0  0
  148.5374  135.8862  155.0661 H   0  0  0  0  0  0  0  0  0  0  0  0
  148.7879  137.0209  157.2808 H   0  0  0  0  0  0  0  0  0  0  0  0
  149.9404  135.7852  157.7828 H   0  0  0  0  0  0  0  0  0  0  0  0
  148.2670  135.3516  157.4525 H   0  0  0  0  0  0  0  0  0  0  0  0
  149.3404  138.2563  155.7309 H   0  0  0  0  0  0  0  0  0  0  0  0
  152.1270  138.7636  154.7560 H   0  0  0  0  0  0  0  0  0  0  0  0
  150.7453  139.5851  154.0820 H   0  0  0  0  0  0  0  0  0  0  0  0
  150.3675  141.7800  154.9285 H   0  0  0  0  0  0  0  0  0  0  0  0
  150.5207  143.4214  156.7777 H   0  0  0  0  0  0  0  0  0  0  0  0
  152.2907  141.5601  160.6599 H   0  0  0  0  0  0  0  0  0  0  0  0
  153.4601  142.6904  159.9905 H   0  0  0  0  0  0  0  0  0  0  0  0
  151.2089  143.3528  161.9776 H   0  0  0  0  0  0  0  0  0  0  0  0
  152.9291  143.3426  162.3152 H   0  0  0  0  0  0  0  0  0  0  0  0
  150.3202  145.0776  160.5327 H   0  0  0  0  0  0  0  0  0  0  0  0
  151.4238  146.2630  159.8626 H   0  0  0  0  0  0  0  0  0  0  0  0
  152.4887  144.5642  158.4145 H   0  0  0  0  0  0  0  0  0  0  0  0
  150.7581  144.5695  158.1500 H   0  0  0  0  0  0  0  0  0  0  0  0
  152.0918  138.8411  157.5824 H   0  0  0  0  0  0  0  0  0  0  0  0
  1  2  1  0  0  0  0
  1 21  1  0  0  0  0
  1 22  1  0  0  0  0
  1 23  1  0  0  0  0
  2  3  1  0  0  0  0
  2 24  1  0  0  0  0
  2 25  1  0  0  0  0
  3  4  1  0  0  0  0
  3  5  1  0  0  0  0
  3 26  1  0  0  0  0
  4 27  1  0  0  0  0
  4 28  1  0  0  0  0
  4 29  1  0  0  0  0
  5  6  2  0  0  0  0
  5  7  1  0  0  0  0
  7  8  1  0  0  0  0
  7 30  1  0  0  0  0
  8  9  1  0  0  0  0
  8 31  1  0  0  0  0
  8 32  1  0  0  0  0
  9 20  1  0  0  0  0
  9 10  2  0  0  0  0
 10 11  1  0  0  0  0
 10 33  1  0  0  0  0
 11 12  2  0  0  0  0
 11 34  1  0  0  0  0
 12 13  1  0  0  0  0
 12 19  1  0  0  0  0
 13 18  1  0  0  0  0
 13 14  1  0  0  0  0
 14 15  1  0  0  0  0
 14 35  1  0  0  0  0
 14 36  1  0  0  0  0
 15 16  1  0  0  0  0
 15 37  1  0  0  0  0
 15 38  1  0  0  0  0
 16 17  1  0  0  0  0
 17 18  1  0  0  0  0
 17 39  1  0  0  0  0
 17 40  1  0  0  0  0
 18 41  1  0  0  0  0
 18 42  1  0  0  0  0
 19 20  2  0  0  0  0
 20 43  1  0  0  0  0
M  END
> <s_m_source_file>
AV-unprocessed.smi

> <i_m_source_file_index>
431

> <i_lp_mmshare_version>
43012

> <i_f3d_flags>
0

> <s_epik_input>
W0NIM11bQ0gyXVtDQEhdKFtDSDNdKUMoPU8pW05IXVtDSDJdYzFbY0hdW2NIXWMobltjSF0xKU4yW0NIMl1bQ0gyXU9bQ0gyXVtDSDJdMg==

> <s_epik_cmdline>
J2VwaWtfcHl0aG9uJywgJy1waCcsICc3LjAnLCAnLXRuJywgJzgnLCAnLW1hJywgJzIwMCcsICctbWV0YWxfYmluZGluZycsICctaW1hZScsICc8aW5maWxlLm1hZT4nLCAnLW9tYWUnLCAnPG91dGZpbGUubWFlPic=

> <r_lp_tautomer_probability>
1

> <r_epik_Ionization_Penalty>
0.00513882

> <r_epik_Ionization_Penalty_Charging>
0

> <r_epik_Ionization_Penalty_Neutral>
0.00513882

> <r_epik_State_Penalty>
0.00374265

> <r_epik_Charging_Adjusted_Penalty>
0.00374265

> <i_epik_Tot_Q>
0

> <i_epik_Tot_abs_Q>
0

> <r_epik_Metal_State_Penalty>
-0

> <b_epik_Metal_Only>
0

> <s_lp_Force_Field>
OPLS_2005

> <r_lp_Energy>
17.352

> <b_lp_Chiralities_Consistent>
1

> <s_lp_Variant>
AV-unprocessed.smi:431-2

> <Gold.Version>
5.8.1

> <Gold.Id.Protein>
6NUR|6NUR_protein|mol2

> <Gold.PLP.Fitness>
40.2098

> <Gold.PLP.PLP>
-39.0149

> <Gold.PLP.part.hbond>
-0.9444

> <Gold.PLP.part.metal>
0.0000

> <Gold.PLP.part.buried>
-4.3083

> <Gold.PLP.part.nonpolar>
-34.8452

> <Gold.PLP.part.repulsive>
0.3899

> <Gold.PLP.ligand.clash>
0.0000

> <Gold.PLP.ligand.torsion>
1.0987

> <Gold.PLP.Chemscore.Hbond>
1.0000

> <Gold.PLP.Chemscore.CHOScore>
0.0000

> <Gold.PLP.Chemscore.Metal>
0.0000

> <Gold.Chemscore.Hbonds>
donor molecule, donor type, donor heavy atom, donor atom, acceptor molecule, acceptor atom, score
      P1  H 10752 10763       L1     6  1.00

> <Gold.PLP.Chemscore.Internal.Correction>
0.3922

> <Gold.Rescore>
     Score         DG    S(hbond)    S(metal)    S(lipo)     H(rot)  DE(clash)    DE(int)     intcor
     14.73     -15.83       0.99        0.00      95.95       1.64       0.05       1.04       ----

> <Gold.Chemscore.Fitness>
14.7294

> <Gold.Chemscore.DG>
-15.8279

> <Gold.Chemscore.ZeroCoef>
-5.4800

> <Gold.Chemscore.Hbond>
0.9944

> <Gold.Chemscore.Metal>
0.0000

> <Gold.Chemscore.Lipo>
95.9548

> <Gold.Chemscore.Internal_Hbond>
0.0000

> <Gold.Chemscore.DEClash>
0.0544

> <Gold.Chemscore.DEInternal>
1.0442

> <Gold.Chemscore.Rot>
1.6407

> <Gold.Chemscore.Internal.Correction>
   9.000000E+99

> <Gold.Chemscore.Hbonds>
donor molecule, donor type, donor heavy atom, donor atom, acceptor molecule, acceptor atom, score
      P1  H 10752 10763       L1     6  0.96

> <Gold.Chemscore.Hbond.Weighted>
-3.3213

> <Gold.Chemscore.Metal.Weighted>
-0.0000

> <Gold.Chemscore.Lipo.Weighted>
-11.2267

> <Gold.Chemscore.Internal_Hbond.Weighted>
0.0000

> <Gold.Chemscore.DEClash.Weighted>
0.0544

> <Gold.Chemscore.DEInternal.Weighted>
1.0442

> <Gold.Chemscore.Rot.Weighted>
4.2001

> <Gold.Chemscore.Internal.Correction.Weighted>
   9.000000E+99

> <Gold.Protein.RotatedTorsions>
[ 6907 6896 6895 6894 ] final   43.98 input  -60.11 | X-H torsion
[ 7974 7965 7964 7962 ] final   95.51 input  175.53 | X-H torsion
[ 8008 7997 7996 7995 ] final  161.36 input   59.86 | X-H torsion
[ 10167 10162 10161 10158 ] final -104.58 input  -65.29 | X-H torsion
[ 10718 10713 10712 10709 ] final  -60.32 input   66.30 | X-H torsion
[ 10763 10752 10751 10750 ] final   66.19 input  -60.55 | X-H torsion
[ 11005 11000 10999 10996 ] final -161.21 input  -57.11 | X-H torsion

> <Gold.Protein.ActiveResidues>
 VAL166  LYS551  ARG553  GLY616  TRP617  ASP618  TYR619  PRO620  LYS621  CYS622 
 ASP623  PHE694  ASN695  SER759  ASP760  ASP761  ALA762  ILE779  LEU786  VAL792 
 PHE793  MET794  SER795  GLU796  ALA797  LYS798  CYS799  TRP800  GLU811  SER814 

> <Gold.Protein.RotatedAtoms>
  152.2269  134.8359  160.0478 H   0  0  0  0  0  0  0  0  0  0  0  0  # atno 6907 bound_to 6896
  151.9123  133.3559  159.3876 H   0  0  0  0  0  0  0  0  0  0  0  0  # atno 6908 bound_to 6896
  150.7015  134.4645  159.5440 H   0  0  0  0  0  0  0  0  0  0  0  0  # atno 6909 bound_to 6896
  145.4512  139.2293  143.3039 H   0  0  0  0  0  0  0  0  0  0  0  0  # atno 7974 bound_to 7965
  156.2108  140.1779  156.7698 H   0  0  0  0  0  0  0  0  0  0  0  0  # atno 8008 bound_to 7997
  154.5720  140.0681  156.9008 H   0  0  0  0  0  0  0  0  0  0  0  0  # atno 8009 bound_to 7997
  155.2655  140.3339  155.4272 H   0  0  0  0  0  0  0  0  0  0  0  0  # atno 8010 bound_to 7997
  140.2077  143.3770  152.1077 H   0  0  0  0  0  0  0  0  0  0  0  0  # atno 10167 bound_to 10162
  156.0999  130.4188  150.0838 H   0  0  0  0  0  0  0  0  0  0  0  0  # atno 10718 bound_to 10713
  153.0129  135.5329  154.6785 H   0  0  0  0  0  0  0  0  0  0  0  0  # atno 10763 bound_to 10752
  154.5951  135.2862  155.0596 H   0  0  0  0  0  0  0  0  0  0  0  0  # atno 10764 bound_to 10752
  154.1674  135.6537  153.5053 H   0  0  0  0  0  0  0  0  0  0  0  0  # atno 10765 bound_to 10752
  140.6229  134.4732  157.5225 H   0  0  0  0  0  0  0  0  0  0  0  0  # atno 11005 bound_to 11000
  146.2503  140.5271  142.8896 LP  0  0  0  0  0  0  0  0  0  0  0  0  # atno 17320 bound_to 7965
  144.8060  140.6301  143.6446 LP  0  0  0  0  0  0  0  0  0  0  0  0  # atno 17321 bound_to 7965
  139.5192  144.7016  151.5476 LP  0  0  0  0  0  0  0  0  0  0  0  0  # atno 17342 bound_to 10162
  140.6346  143.9010  150.6635 LP  0  0  0  0  0  0  0  0  0  0  0  0  # atno 17343 bound_to 10162
  156.8828  130.9562  151.3597 LP  0  0  0  0  0  0  0  0  0  0  0  0  # atno 17370 bound_to 10713
  157.6167  130.8624  149.9040 LP  0  0  0  0  0  0  0  0  0  0  0  0  # atno 17371 bound_to 10713
  139.9146  134.8273  156.1410 LP  0  0  0  0  0  0  0  0  0  0  0  0  # atno 17394 bound_to 11000
  141.0730  133.6788  156.2178 LP  0  0  0  0  0  0  0  0  0  0  0  0  # atno 17395 bound_to 11000

$$$$
