AV-unprocessed.smi:3338|AV-procd|sdf|12869|dock6
  -GOLD-   2272019273D 1   1.00000     0.00000
 Structure written by MMmdl.
 44 45  0  0  0  0  0  0  0  0  2 V2000
  153.1737  142.3171  161.0608 C   0  0  0  0  0  0  0  0  0  0  0  0
  152.8686  142.9198  159.6822 C   0  0  2  0  0  0  0  0  0  0  0  0
  152.4748  144.4022  159.7917 C   0  0  0  0  0  0  0  0  0  0  0  0
  152.1522  144.9696  158.4041 C   0  0  0  0  0  0  0  0  0  0  0  0
  151.0724  144.1299  157.7038 C   0  0  0  0  0  0  0  0  0  0  0  0
  151.4797  142.7040  157.6087 N   0  3  2  0  0  0  0  0  0  0  0  0
  150.5150  141.8986  156.8185 C   0  0  0  0  0  0  0  0  0  0  0  0
  149.1762  141.6929  157.5538 C   0  0  0  0  0  0  0  0  0  0  0  0
  148.0458  142.0347  156.6994 N   0  0  0  0  0  0  0  0  0  0  0  0
  147.0602  141.1905  156.3535 C   0  0  0  0  0  0  0  0  0  0  0  0
  147.0001  140.0313  156.7659 O   0  0  0  0  0  0  0  0  0  0  0  0
  145.9914  141.7456  155.3953 C   0  0  2  0  0  0  0  0  0  0  0  0
  146.5875  142.3444  154.1055 C   0  0  0  0  0  0  0  0  0  0  0  0
  145.1293  142.7023  156.0809 N   0  0  0  0  0  0  0  0  0  0  0  0
  144.0311  143.3693  155.5771 C   0  0  0  0  0  0  0  0  0  0  0  0
  143.5243  144.1435  156.5811 C   0  0  0  0  0  0  0  0  0  0  0  0
  144.3885  143.8801  157.6797 C   0  0  0  0  0  0  0  0  0  0  0  0
  145.3438  143.0154  157.3803 N   0  0  0  0  0  0  0  0  0  0  0  0
  151.7666  142.1273  158.9500 C   0  0  0  0  0  0  0  0  0  0  0  0
  152.2990  142.3492  161.7111 H   0  0  0  0  0  0  0  0  0  0  0  0
  153.9776  142.8607  161.5579 H   0  0  0  0  0  0  0  0  0  0  0  0
  153.4860  141.2758  160.9743 H   0  0  0  0  0  0  0  0  0  0  0  0
  153.7812  142.8556  159.0875 H   0  0  0  0  0  0  0  0  0  0  0  0
  151.6064  144.5109  160.4432 H   0  0  0  0  0  0  0  0  0  0  0  0
  153.2816  144.9766  160.2487 H   0  0  0  0  0  0  0  0  0  0  0  0
  151.8203  146.0044  158.4932 H   0  0  0  0  0  0  0  0  0  0  0  0
  153.0569  144.9863  157.7947 H   0  0  0  0  0  0  0  0  0  0  0  0
  150.1266  144.2046  158.2430 H   0  0  0  0  0  0  0  0  0  0  0  0
  150.9013  144.5338  156.7051 H   0  0  0  0  0  0  0  0  0  0  0  0
  150.3563  142.3610  155.8430 H   0  0  0  0  0  0  0  0  0  0  0  0
  150.9519  140.9179  156.6236 H   0  0  0  0  0  0  0  0  0  0  0  0
  149.0836  140.6624  157.9013 H   0  0  0  0  0  0  0  0  0  0  0  0
  149.1145  142.3261  158.4381 H   0  0  0  0  0  0  0  0  0  0  0  0
  148.0214  142.9718  156.3230 H   0  0  0  0  0  0  0  0  0  0  0  0
  145.3660  140.9012  155.1008 H   0  0  0  0  0  0  0  0  0  0  0  0
  147.1805  141.6061  153.5646 H   0  0  0  0  0  0  0  0  0  0  0  0
  147.2315  143.2001  154.3128 H   0  0  0  0  0  0  0  0  0  0  0  0
  145.7977  142.6819  153.4337 H   0  0  0  0  0  0  0  0  0  0  0  0
  143.7040  143.2393  154.5560 H   0  0  0  0  0  0  0  0  0  0  0  0
  142.6669  144.7990  156.5374 H   0  0  0  0  0  0  0  0  0  0  0  0
  144.3491  144.2868  158.6794 H   0  0  0  0  0  0  0  0  0  0  0  0
  152.0869  141.0907  158.8502 H   0  0  0  0  0  0  0  0  0  0  0  0
  150.8510  142.1171  159.5438 H   0  0  0  0  0  0  0  0  0  0  0  0
  152.3473  142.6963  157.0916 H   0  0  0  0  0  0  0  0  0  0  0  0
  1  2  1  0  0  0  0
  1 20  1  0  0  0  0
  1 21  1  0  0  0  0
  1 22  1  0  0  0  0
  2 19  1  0  0  0  0
  2  3  1  0  0  0  0
  2 23  1  0  0  0  0
  3  4  1  0  0  0  0
  3 24  1  0  0  0  0
  3 25  1  0  0  0  0
  4  5  1  0  0  0  0
  4 26  1  0  0  0  0
  4 27  1  0  0  0  0
  5  6  1  0  0  0  0
  5 28  1  0  0  0  0
  5 29  1  0  0  0  0
  6  7  1  0  0  0  0
  6 19  1  0  0  0  0
  6 44  1  0  0  0  0
  7  8  1  0  0  0  0
  7 30  1  0  0  0  0
  7 31  1  0  0  0  0
  8  9  1  0  0  0  0
  8 32  1  0  0  0  0
  8 33  1  0  0  0  0
  9 10  1  0  0  0  0
  9 34  1  0  0  0  0
 10 11  2  0  0  0  0
 10 12  1  0  0  0  0
 12 13  1  0  0  0  0
 12 14  1  0  0  0  0
 12 35  1  0  0  0  0
 13 36  1  0  0  0  0
 13 37  1  0  0  0  0
 13 38  1  0  0  0  0
 14 18  1  0  0  0  0
 14 15  1  0  0  0  0
 15 16  2  0  0  0  0
 15 39  1  0  0  0  0
 16 17  1  0  0  0  0
 16 40  1  0  0  0  0
 17 18  2  0  0  0  0
 17 41  1  0  0  0  0
 19 42  1  0  0  0  0
 19 43  1  0  0  0  0
M  CHG  1   6   1
M  END
> <s_m_source_file>
AV-unprocessed.smi

> <i_m_source_file_index>
3338

> <i_lp_mmshare_version>
43012

> <i_f3d_flags>
0

> <s_epik_input>
W0NIM11bQ0BASF0xW0NIMl1bQ0gyXVtDSDJdTihbQ0gyXTEpW0NIMl1bQ0gyXVtOSF1DKD1PKVtDQEhdKFtDSDNdKW4yW2NIXVtjSF1bY0hdbjI=

> <s_epik_cmdline>
J2VwaWtfcHl0aG9uJywgJy1waCcsICc3LjAnLCAnLXRuJywgJzgnLCAnLW1hJywgJzIwMCcsICctbWV0YWxfYmluZGluZycsICctaW1hZScsICc8aW5maWxlLm1hZT4nLCAnLW9tYWUnLCAnPG91dGZpbGUubWFlPic=

> <r_lp_tautomer_probability>
1

> <r_epik_Ionization_Penalty>
0.00225707

> <r_epik_Ionization_Penalty_Charging>
0.00223709

> <r_epik_Ionization_Penalty_Neutral>
1.99775e-05

> <r_epik_State_Penalty>
0.00153978

> <r_epik_Charging_Adjusted_Penalty>
0.00377687

> <i_epik_Tot_Q>
1

> <i_epik_Tot_abs_Q>
1

> <r_epik_Metal_State_Penalty>
-0

> <b_epik_Metal_Only>
0

> <s_lp_Force_Field>
OPLS_2005

> <r_lp_Energy>
19.7834

> <b_lp_Chiralities_Consistent>
1

> <s_lp_Variant>
AV-unprocessed.smi:3338-1

> <Gold.Version>
5.8.1

> <Gold.Id.Protein>
6NUR|6NUR_protein|mol2

> <Gold.PLP.Fitness>
44.0849

> <Gold.PLP.PLP>
-39.1108

> <Gold.PLP.part.hbond>
-1.0000

> <Gold.PLP.part.metal>
0.0000

> <Gold.PLP.part.buried>
-5.1571

> <Gold.PLP.part.nonpolar>
-33.2896

> <Gold.PLP.part.repulsive>
0.2079

> <Gold.PLP.ligand.clash>
0.0000

> <Gold.PLP.ligand.torsion>
0.5784

> <Gold.PLP.Chemscore.Hbond>
1.0000

> <Gold.PLP.Chemscore.CHOScore>
1.0000

> <Gold.PLP.Chemscore.Metal>
0.0000

> <Gold.Chemscore.Hbonds>
donor molecule, donor type, donor heavy atom, donor atom, acceptor molecule, acceptor atom, score
      L1  H     9    34       P1  8028  0.98
      L1  C    15    39       P1 10174  0.48

> <Gold.PLP.Chemscore.Internal.Correction>
0.1310

> <Gold.Rescore>
     Score         DG    S(hbond)    S(metal)    S(lipo)     H(rot)  DE(clash)    DE(int)     intcor
     14.65     -16.56       0.96        0.00     105.89       1.76       0.16       1.76       ----

> <Gold.Chemscore.Fitness>
14.6472

> <Gold.Chemscore.DG>
-16.5611

> <Gold.Chemscore.ZeroCoef>
-5.4800

> <Gold.Chemscore.Hbond>
0.9551

> <Gold.Chemscore.Metal>
0.0000

> <Gold.Chemscore.Lipo>
105.8887

> <Gold.Chemscore.Internal_Hbond>
0.0000

> <Gold.Chemscore.DEClash>
0.1580

> <Gold.Chemscore.DEInternal>
1.7559

> <Gold.Chemscore.Rot>
1.7570

> <Gold.Chemscore.Internal.Correction>
   9.000000E+99

> <Gold.Chemscore.Hbonds>
donor molecule, donor type, donor heavy atom, donor atom, acceptor molecule, acceptor atom, score
      L1  H     9    34       P1  8028  0.40

> <Gold.Chemscore.Hbond.Weighted>
-3.1900

> <Gold.Chemscore.Metal.Weighted>
-0.0000

> <Gold.Chemscore.Lipo.Weighted>
-12.3890

> <Gold.Chemscore.Internal_Hbond.Weighted>
0.0000

> <Gold.Chemscore.DEClash.Weighted>
0.1580

> <Gold.Chemscore.DEInternal.Weighted>
1.7559

> <Gold.Chemscore.Rot.Weighted>
4.4979

> <Gold.Chemscore.Internal.Correction.Weighted>
   9.000000E+99

> <Gold.Protein.RotatedTorsions>
[ 6907 6896 6895 6894 ] final  -40.70 input  -60.11 | X-H torsion
[ 7974 7965 7964 7962 ] final -101.77 input  175.53 | X-H torsion
[ 8008 7997 7996 7995 ] final  152.56 input   59.86 | X-H torsion
[ 10167 10162 10161 10158 ] final  104.28 input  -65.29 | X-H torsion
[ 10718 10713 10712 10709 ] final  156.02 input   66.30 | X-H torsion
[ 10763 10752 10751 10750 ] final   98.01 input  -60.55 | X-H torsion
[ 11005 11000 10999 10996 ] final  -46.52 input  -57.11 | X-H torsion

> <Gold.Protein.ActiveResidues>
 VAL166  LYS551  ARG553  GLY616  TRP617  ASP618  TYR619  PRO620  LYS621  CYS622 
 ASP623  PHE694  ASN695  SER759  ASP760  ASP761  ALA762  ILE779  LEU786  VAL792 
 PHE793  MET794  SER795  GLU796  ALA797  LYS798  CYS799  TRP800  GLU811  SER814 

> <Gold.Protein.RotatedAtoms>
  150.9754  134.9119  159.7812 H   0  0  0  0  0  0  0  0  0  0  0  0  # atno 6907 bound_to 6896
  152.5204  134.3483  159.9252 H   0  0  0  0  0  0  0  0  0  0  0  0  # atno 6908 bound_to 6896
  151.3492  133.3891  159.2713 H   0  0  0  0  0  0  0  0  0  0  0  0  # atno 6909 bound_to 6896
  145.2773  140.9316  143.2952 H   0  0  0  0  0  0  0  0  0  0  0  0  # atno 7974 bound_to 7965
  156.2623  140.2017  156.6353 H   0  0  0  0  0  0  0  0  0  0  0  0  # atno 8008 bound_to 7997
  154.6651  140.0556  157.0130 H   0  0  0  0  0  0  0  0  0  0  0  0  # atno 8009 bound_to 7997
  155.1218  140.3225  155.4498 H   0  0  0  0  0  0  0  0  0  0  0  0  # atno 8010 bound_to 7997
  139.7190  144.7062  151.0903 H   0  0  0  0  0  0  0  0  0  0  0  0  # atno 10167 bound_to 10162
  157.2106  131.0697  151.1971 H   0  0  0  0  0  0  0  0  0  0  0  0  # atno 10718 bound_to 10713
  153.2839  135.4163  155.1104 H   0  0  0  0  0  0  0  0  0  0  0  0  # atno 10763 bound_to 10752
  154.8498  135.3502  154.6075 H   0  0  0  0  0  0  0  0  0  0  0  0  # atno 10764 bound_to 10752
  153.6496  135.7053  153.5271 H   0  0  0  0  0  0  0  0  0  0  0  0  # atno 10765 bound_to 10752
  141.0584  133.6718  156.3166 H   0  0  0  0  0  0  0  0  0  0  0  0  # atno 11005 bound_to 11000
  144.9283  139.4328  143.6507 LP  0  0  0  0  0  0  0  0  0  0  0  0  # atno 17320 bound_to 7965
  146.3227  139.8181  142.8932 LP  0  0  0  0  0  0  0  0  0  0  0  0  # atno 17321 bound_to 7965
  140.7750  143.5191  150.9558 LP  0  0  0  0  0  0  0  0  0  0  0  0  # atno 17342 bound_to 10162
  139.8878  143.6992  152.3149 LP  0  0  0  0  0  0  0  0  0  0  0  0  # atno 17343 bound_to 10162
  157.3676  130.7164  149.6543 LP  0  0  0  0  0  0  0  0  0  0  0  0  # atno 17370 bound_to 10713
  155.9691  130.4208  150.4439 LP  0  0  0  0  0  0  0  0  0  0  0  0  # atno 17371 bound_to 10713
  140.5919  134.5642  157.5501 LP  0  0  0  0  0  0  0  0  0  0  0  0  # atno 17394 bound_to 11000
  139.9410  134.7787  156.0679 LP  0  0  0  0  0  0  0  0  0  0  0  0  # atno 17395 bound_to 11000

$$$$
