AV-unprocessed.smi:526|AV-procd|sdf|2813|dock1
  -GOLD-   2262023293D 1   1.00000     0.00000
 Structure written by MMmdl.
 30 30  0  0  0  0  0  0  0  0  2 V2000
  152.0286  144.6546  160.7817 C   0  0  0  0  0  0  0  0  0  0  0  0
  152.2162  143.7313  159.8244 C   0  0  0  0  0  0  0  0  0  0  0  0
  152.4448  144.1130  158.3741 C   0  0  0  0  0  0  0  0  0  0  0  0
  152.2116  142.2442  160.1268 C   0  0  0  0  0  0  0  0  0  0  0  0
  153.5094  141.3476  159.2214 S   0  0  0  0  0  0  0  0  0  0  0  0
  152.6107  140.0078  158.4541 C   0  0  0  0  0  0  0  0  0  0  0  0
  152.4622  140.1115  157.1339 N   0  0  0  0  0  0  0  0  0  0  0  0
  151.7879  139.1155  156.5179 C   0  0  0  0  0  0  0  0  0  0  0  0
  151.6277  139.2575  155.0151 C   0  0  0  0  0  0  0  0  0  0  0  0
  151.2687  138.0101  157.2396 C   0  0  0  0  0  0  0  0  0  0  0  0
  150.5020  136.8806  156.5554 C   0  0  0  0  0  0  0  0  0  0  0  0
  151.2780  135.5710  156.7323 C   0  0  0  0  0  0  0  0  0  0  0  0
  152.4694  135.5657  156.3526 O   0  0  0  0  0  0  0  0  0  0  0  0
  150.6775  134.6018  157.2474 O   0  5  0  0  0  0  0  0  0  0  0  0
  151.4937  138.0178  158.6391 C   0  0  0  0  0  0  0  0  0  0  0  0
  151.0352  137.0021  159.4270 O   0  0  0  0  0  0  0  0  0  0  0  0
  152.1690  139.0221  159.2382 N   0  0  0  0  0  0  0  0  0  0  0  0
  150.0985  136.8951  159.3726 H   0  0  0  0  0  0  0  0  0  0  0  0
  152.0346  145.7099  160.5514 H   0  0  0  0  0  0  0  0  0  0  0  0
  151.8652  144.3696  161.8108 H   0  0  0  0  0  0  0  0  0  0  0  0
  151.6548  143.7086  157.7411 H   0  0  0  0  0  0  0  0  0  0  0  0
  153.3998  143.7186  158.0255 H   0  0  0  0  0  0  0  0  0  0  0  0
  152.4585  145.1958  158.2453 H   0  0  0  0  0  0  0  0  0  0  0  0
  152.3453  142.1025  161.1997 H   0  0  0  0  0  0  0  0  0  0  0  0
  151.2429  141.8178  159.8625 H   0  0  0  0  0  0  0  0  0  0  0  0
  152.1534  138.4542  154.4990 H   0  0  0  0  0  0  0  0  0  0  0  0
  152.0320  140.2064  154.6603 H   0  0  0  0  0  0  0  0  0  0  0  0
  150.5748  139.2192  154.7360 H   0  0  0  0  0  0  0  0  0  0  0  0
  150.3722  137.0826  155.4922 H   0  0  0  0  0  0  0  0  0  0  0  0
  149.4995  136.7900  156.9744 H   0  0  0  0  0  0  0  0  0  0  0  0
  1  2  2  0  0  0  0
  1 19  1  0  0  0  0
  1 20  1  0  0  0  0
  2  3  1  0  0  0  0
  2  4  1  0  0  0  0
  3 21  1  0  0  0  0
  3 22  1  0  0  0  0
  3 23  1  0  0  0  0
  4 24  1  0  0  0  0
  4 25  1  0  0  0  0
  4  5  1  0  0  0  0
  5  6  1  0  0  0  0
  6 17  1  0  0  0  0
  6  7  2  0  0  0  0
  7  8  1  0  0  0  0
  8 10  2  0  0  0  0
  8  9  1  0  0  0  0
  9 26  1  0  0  0  0
  9 27  1  0  0  0  0
  9 28  1  0  0  0  0
 10 15  1  0  0  0  0
 10 11  1  0  0  0  0
 11 12  1  0  0  0  0
 11 29  1  0  0  0  0
 11 30  1  0  0  0  0
 12 13  2  0  0  0  0
 12 14  1  0  0  0  0
 15 17  2  0  0  0  0
 15 16  1  0  0  0  0
 16 18  1  0  0  0  0
M  CHG  1  14  -1
M  END
> <s_m_source_file>
AV-unprocessed.smi

> <i_m_source_file_index>
526

> <i_lp_mmshare_version>
43012

> <i_f3d_flags>
0

> <s_epik_input>
W0NIMl09QyhbQ0gzXSlbQ0gyXVNjMW5jKFtDSDNdKWMoYyg9TylbbkhdMSlbQ0gyXUMoPU8pW09IXQ==

> <s_epik_cmdline>
J2VwaWtfcHl0aG9uJywgJy1waCcsICc3LjAnLCAnLXRuJywgJzgnLCAnLW1hJywgJzIwMCcsICctbWV0YWxfYmluZGluZycsICctaW1hZScsICc8aW5maWxlLm1hZT4nLCAnLW9tYWUnLCAnPG91dGZpbGUubWFlPic=

> <r_lp_tautomer_probability>
0.0660145

> <r_epik_Ionization_Penalty>
2.37967

> <r_epik_Ionization_Penalty_Charging>
0.000421182

> <r_epik_Ionization_Penalty_Neutral>
2.37925

> <r_epik_State_Penalty>
1.68674

> <r_epik_Charging_Adjusted_Penalty>
1.68716

> <i_epik_Tot_Q>
-1

> <i_epik_Tot_abs_Q>
1

> <r_epik_Metal_State_Penalty>
1.80034

> <b_epik_Metal_Only>
0

> <s_lp_Force_Field>
OPLS_2005

> <r_lp_Energy>
-7.53164

> <b_lp_Chiralities_Consistent>
1

> <s_lp_Variant>
AV-unprocessed.smi:526-3

> <Gold.Version>
5.8.1

> <Gold.Id.Protein>
6NUR|6NUR_protein|mol2

> <Gold.PLP.Fitness>
44.5239

> <Gold.PLP.PLP>
-31.0498

> <Gold.PLP.part.hbond>
-4.0000

> <Gold.PLP.part.metal>
0.0000

> <Gold.PLP.part.buried>
-3.6588

> <Gold.PLP.part.nonpolar>
-23.8377

> <Gold.PLP.part.repulsive>
0.0000

> <Gold.PLP.ligand.clash>
0.0000

> <Gold.PLP.ligand.torsion>
0.7744

> <Gold.PLP.Chemscore.Hbond>
4.9990

> <Gold.PLP.Chemscore.CHOScore>
0.0000

> <Gold.PLP.Chemscore.Metal>
0.0000

> <Gold.Chemscore.Hbonds>
donor molecule, donor type, donor heavy atom, donor atom, acceptor molecule, acceptor atom, score
      P1  H  6896  6907       L1    16  1.00
      P1  H  6896  6909       L1    14  0.69
      P1  H  7997  8009       L1     7  1.00
      P1  H 10752 10765       L1    13  1.50

> <Gold.PLP.Chemscore.Internal.Correction>
0.0259

> <Gold.Rescore>
     Score         DG    S(hbond)    S(metal)    S(lipo)     H(rot)  DE(clash)    DE(int)     intcor
     16.87     -17.72       3.24        0.00      75.99       2.92       0.05       0.80       ----

> <Gold.Chemscore.Fitness>
16.8689

> <Gold.Chemscore.DG>
-17.7188

> <Gold.Chemscore.ZeroCoef>
-5.4800

> <Gold.Chemscore.Hbond>
3.2394

> <Gold.Chemscore.Metal>
0.0000

> <Gold.Chemscore.Lipo>
75.9931

> <Gold.Chemscore.Internal_Hbond>
0.0000

> <Gold.Chemscore.DEClash>
0.0515

> <Gold.Chemscore.DEInternal>
0.7984

> <Gold.Chemscore.Rot>
2.9187

> <Gold.Chemscore.Internal.Correction>
   9.000000E+99

> <Gold.Chemscore.Hbonds>
donor molecule, donor type, donor heavy atom, donor atom, acceptor molecule, acceptor atom, score
      P1  H  6896  6907       L1    16  0.31
      P1  H  6896  6909       L1    14  0.35
      P1  H  7997  8009       L1     7  0.19
      P1  H 10752 10765       L1    13  0.75

> <Gold.Chemscore.Hbond.Weighted>
-10.8196

> <Gold.Chemscore.Metal.Weighted>
-0.0000

> <Gold.Chemscore.Lipo.Weighted>
-8.8912

> <Gold.Chemscore.Internal_Hbond.Weighted>
0.0000

> <Gold.Chemscore.DEClash.Weighted>
0.0515

> <Gold.Chemscore.DEInternal.Weighted>
0.7984

> <Gold.Chemscore.Rot.Weighted>
7.4720

> <Gold.Chemscore.Internal.Correction.Weighted>
   9.000000E+99

> <Gold.Protein.RotatedTorsions>
[ 6907 6896 6895 6894 ] final    4.23 input  -60.11 | X-H torsion
[ 7974 7965 7964 7962 ] final   98.01 input  175.53 | X-H torsion
[ 8008 7997 7996 7995 ] final -175.84 input   59.86 | X-H torsion
[ 10167 10162 10161 10158 ] final   84.08 input  -65.29 | X-H torsion
[ 10718 10713 10712 10709 ] final   69.21 input   66.30 | X-H torsion
[ 10763 10752 10751 10750 ] final -132.19 input  -60.55 | X-H torsion
[ 11005 11000 10999 10996 ] final  163.66 input  -57.11 | X-H torsion

> <Gold.Protein.ActiveResidues>
 VAL166  LYS551  ARG553  GLY616  TRP617  ASP618  TYR619  PRO620  LYS621  CYS622 
 ASP623  PHE694  ASN695  SER759  ASP760  ASP761  ALA762  ILE779  LEU786  VAL792 
 PHE793  MET794  SER795  GLU796  ALA797  LYS798  CYS799  TRP800  GLU811  SER814 

> <Gold.Protein.RotatedAtoms>
  151.6379  135.1016  160.0135 H   0  0  0  0  0  0  0  0  0  0  0  0  # atno 6907 bound_to 6896
  152.4070  133.6901  159.6373 H   0  0  0  0  0  0  0  0  0  0  0  0  # atno 6908 bound_to 6896
  150.7964  133.8608  159.3272 H   0  0  0  0  0  0  0  0  0  0  0  0  # atno 6909 bound_to 6896
  145.4179  139.2325  143.3212 H   0  0  0  0  0  0  0  0  0  0  0  0  # atno 7974 bound_to 7965
  155.9875  140.1194  157.0669 H   0  0  0  0  0  0  0  0  0  0  0  0  # atno 8008 bound_to 7997
  154.4201  140.1132  156.5588 H   0  0  0  0  0  0  0  0  0  0  0  0  # atno 8009 bound_to 7997
  155.6387  140.3473  155.4710 H   0  0  0  0  0  0  0  0  0  0  0  0  # atno 8010 bound_to 7997
  139.9117  144.6267  150.8530 H   0  0  0  0  0  0  0  0  0  0  0  0  # atno 10167 bound_to 10162
  157.6333  130.9414  150.0482 H   0  0  0  0  0  0  0  0  0  0  0  0  # atno 10718 bound_to 10713
  154.8745  135.3806  154.4370 H   0  0  0  0  0  0  0  0  0  0  0  0  # atno 10763 bound_to 10752
  153.5058  135.7030  153.5812 H   0  0  0  0  0  0  0  0  0  0  0  0  # atno 10764 bound_to 10752
  153.4124  135.3921  155.2025 H   0  0  0  0  0  0  0  0  0  0  0  0  # atno 10765 bound_to 10752
  140.2381  134.8072  157.3383 H   0  0  0  0  0  0  0  0  0  0  0  0  # atno 11005 bound_to 11000
  146.2672  140.4899  142.8829 LP  0  0  0  0  0  0  0  0  0  0  0  0  # atno 17320 bound_to 7965
  144.8265  140.6637  143.6319 LP  0  0  0  0  0  0  0  0  0  0  0  0  # atno 17321 bound_to 7965
  140.7684  143.3361  151.2307 LP  0  0  0  0  0  0  0  0  0  0  0  0  # atno 17342 bound_to 10162
  139.6937  143.9649  152.2872 LP  0  0  0  0  0  0  0  0  0  0  0  0  # atno 17343 bound_to 10162
  156.1553  130.3643  149.9379 LP  0  0  0  0  0  0  0  0  0  0  0  0  # atno 17370 bound_to 10713
  156.7389  130.9072  151.3631 LP  0  0  0  0  0  0  0  0  0  0  0  0  # atno 17371 bound_to 10713
  140.1681  134.4643  155.7849 LP  0  0  0  0  0  0  0  0  0  0  0  0  # atno 17394 bound_to 11000
  141.2213  133.6930  156.7661 LP  0  0  0  0  0  0  0  0  0  0  0  0  # atno 17395 bound_to 11000

$$$$
