AV-unprocessed.smi:280|AV-procd|sdf|2097|dock6
  -GOLD-   2262021383D 1   1.00000     0.00000
 Structure written by MMmdl.
 59 62  0  0  0  0  0  0  0  0  2 V2000
  147.6013  138.9929  153.5642 C   0  0  0  0  0  0  0  0  0  0  0  0
  148.6687  138.4417  154.5314 C   0  0  2  0  0  0  0  0  0  0  0  0
  150.0450  139.0050  154.0964 C   0  0  0  0  0  0  0  0  0  0  0  0
  151.1565  138.4272  154.8464 N   0  0  0  0  0  0  0  0  0  0  0  0
  151.5421  139.0029  156.0167 C   0  0  0  0  0  0  0  0  0  0  0  0
  152.5342  138.4380  156.7554 N   0  0  0  0  0  0  0  0  0  0  0  0
  152.9333  139.0016  157.8989 C   0  0  0  0  0  0  0  0  0  0  0  0
  152.4836  140.1140  158.4808 N   0  0  0  0  0  0  0  0  0  0  0  0
  151.4820  140.6840  157.7518 C   0  0  0  0  0  0  0  0  0  0  0  0
  150.9500  140.1945  156.5249 C   0  0  0  0  0  0  0  0  0  0  0  0
  149.9201  141.0225  156.0954 N   0  0  0  0  0  0  0  0  0  0  0  0
  149.8562  141.9534  157.0073 C   0  0  0  0  0  0  0  0  0  0  0  0
  150.7728  141.8407  158.0287 N   0  0  0  0  0  0  0  0  0  0  0  0
  150.9277  142.7340  159.1690 C   0  0  0  0  0  0  0  0  0  0  0  0
  152.2332  143.5669  159.1701 C   0  0  0  0  0  0  0  0  0  0  0  0
  153.3992  142.6224  159.4921 C   0  0  0  0  0  0  0  0  0  0  0  0
  153.2577  142.0523  160.7774 O   0  0  0  0  0  0  0  0  0  0  0  0
  152.4547  144.5470  158.0047 C   0  0  0  0  0  0  0  0  0  0  0  0
  152.0209  145.6707  158.7994 O   0  0  0  0  0  0  0  0  0  0  0  0
  152.2032  144.8706  159.9863 C   0  0  0  0  0  0  0  0  0  0  0  0
  151.1811  136.9716  154.8053 C   0  0  0  0  0  0  0  0  0  0  0  0
  149.8555  136.4075  155.3330 C   0  0  0  0  0  0  0  0  0  0  0  0
  148.6840  136.9445  154.5858 N   0  3  1  0  0  0  0  0  0  0  0  0
  147.4131  136.3265  155.0653 C   0  0  0  0  0  0  0  0  0  0  0  0
  147.0868  134.9890  154.3567 C   0  0  0  0  0  0  0  0  0  0  0  0
  148.2451  133.9952  154.5480 C   0  0  0  0  0  0  0  0  0  0  0  0
  145.7669  134.3607  154.8394 C   0  0  0  0  0  0  0  0  0  0  0  0
  146.9804  135.2198  152.9660 O   0  0  0  0  0  0  0  0  0  0  0  0
  147.6564  140.0807  153.5127 H   0  0  0  0  0  0  0  0  0  0  0  0
  146.5832  138.7515  153.8647 H   0  0  0  0  0  0  0  0  0  0  0  0
  147.7500  138.6135  152.5529 H   0  0  0  0  0  0  0  0  0  0  0  0
  148.4432  138.8034  155.5354 H   0  0  0  0  0  0  0  0  0  0  0  0
  150.2132  138.7779  153.0427 H   0  0  0  0  0  0  0  0  0  0  0  0
  150.0586  140.0934  154.1693 H   0  0  0  0  0  0  0  0  0  0  0  0
  153.7278  138.4893  158.4212 H   0  0  0  0  0  0  0  0  0  0  0  0
  149.1331  142.7542  156.9561 H   0  0  0  0  0  0  0  0  0  0  0  0
  150.0602  143.3950  159.1895 H   0  0  0  0  0  0  0  0  0  0  0  0
  150.8556  142.1260  160.0712 H   0  0  0  0  0  0  0  0  0  0  0  0
  153.4522  141.8068  158.7700 H   0  0  0  0  0  0  0  0  0  0  0  0
  154.3550  143.1448  159.4410 H   0  0  0  0  0  0  0  0  0  0  0  0
  152.4640  141.5396  160.7934 H   0  0  0  0  0  0  0  0  0  0  0  0
  153.4998  144.6467  157.7063 H   0  0  0  0  0  0  0  0  0  0  0  0
  151.8264  144.3729  157.1330 H   0  0  0  0  0  0  0  0  0  0  0  0
  151.3751  144.9523  160.6885 H   0  0  0  0  0  0  0  0  0  0  0  0
  153.1459  145.1040  160.4842 H   0  0  0  0  0  0  0  0  0  0  0  0
  151.3370  136.6547  153.7734 H   0  0  0  0  0  0  0  0  0  0  0  0
  152.0095  136.5590  155.3793 H   0  0  0  0  0  0  0  0  0  0  0  0
  149.8762  135.3201  155.2631 H   0  0  0  0  0  0  0  0  0  0  0  0
  149.7529  136.6525  156.3916 H   0  0  0  0  0  0  0  0  0  0  0  0
  147.4593  136.1677  156.1444 H   0  0  0  0  0  0  0  0  0  0  0  0
  146.5739  137.0083  154.9379 H   0  0  0  0  0  0  0  0  0  0  0  0
  148.3884  133.7563  155.6025 H   0  0  0  0  0  0  0  0  0  0  0  0
  149.1858  134.3996  154.1720 H   0  0  0  0  0  0  0  0  0  0  0  0
  148.0583  133.0576  154.0232 H   0  0  0  0  0  0  0  0  0  0  0  0
  145.7950  134.1579  155.9103 H   0  0  0  0  0  0  0  0  0  0  0  0
  145.5718  133.4140  154.3339 H   0  0  0  0  0  0  0  0  0  0  0  0
  144.9130  135.0106  154.6461 H   0  0  0  0  0  0  0  0  0  0  0  0
  147.8355  135.4443  152.6310 H   0  0  0  0  0  0  0  0  0  0  0  0
  148.7994  136.6387  153.6303 H   0  0  0  0  0  0  0  0  0  0  0  0
  1  2  1  0  0  0  0
  1 29  1  0  0  0  0
  1 30  1  0  0  0  0
  1 31  1  0  0  0  0
  2 23  1  0  0  0  0
  2  3  1  0  0  0  0
  2 32  1  0  0  0  0
  3  4  1  0  0  0  0
  3 33  1  0  0  0  0
  3 34  1  0  0  0  0
  4  5  1  0  0  0  0
  4 21  1  0  0  0  0
  5 10  1  0  0  0  0
  5  6  2  0  0  0  0
  6  7  1  0  0  0  0
  7  8  2  0  0  0  0
  7 35  1  0  0  0  0
  8  9  1  0  0  0  0
  9 13  1  0  0  0  0
  9 10  2  0  0  0  0
 10 11  1  0  0  0  0
 11 12  2  0  0  0  0
 12 13  1  0  0  0  0
 12 36  1  0  0  0  0
 13 14  1  0  0  0  0
 14 15  1  0  0  0  0
 14 37  1  0  0  0  0
 14 38  1  0  0  0  0
 15 20  1  0  0  0  0
 15 16  1  0  0  0  0
 15 18  1  0  0  0  0
 16 17  1  0  0  0  0
 16 39  1  0  0  0  0
 16 40  1  0  0  0  0
 17 41  1  0  0  0  0
 18 19  1  0  0  0  0
 18 42  1  0  0  0  0
 18 43  1  0  0  0  0
 19 20  1  0  0  0  0
 20 44  1  0  0  0  0
 20 45  1  0  0  0  0
 21 22  1  0  0  0  0
 21 46  1  0  0  0  0
 21 47  1  0  0  0  0
 22 23  1  0  0  0  0
 22 48  1  0  0  0  0
 22 49  1  0  0  0  0
 23 24  1  0  0  0  0
 23 59  1  0  0  0  0
 24 25  1  0  0  0  0
 24 50  1  0  0  0  0
 24 51  1  0  0  0  0
 25 26  1  0  0  0  0
 25 27  1  0  0  0  0
 25 28  1  0  0  0  0
 26 52  1  0  0  0  0
 26 53  1  0  0  0  0
 26 54  1  0  0  0  0
 27 55  1  0  0  0  0
 27 56  1  0  0  0  0
 27 57  1  0  0  0  0
 28 58  1  0  0  0  0
M  CHG  1  23   1
M  END
> <s_m_source_file>
AV-unprocessed.smi

> <i_m_source_file_index>
280

> <i_lp_mmshare_version>
43012

> <i_f3d_flags>
0

> <s_epik_input>
W0NIM11DKFtDSDNdKShbT0hdKVtDSDJdTjFbQ0gyXVtDSDJdTihbQ0gyXVtDQEhdMVtDSDNdKWMobltjSF1uMiljKGMyMyluW2NIXW4zW0NIMl1DNChbQ0gyXVtPSF0pW0NIMl1PW0NIMl00

> <s_epik_cmdline>
J2VwaWtfcHl0aG9uJywgJy1waCcsICc3LjAnLCAnLXRuJywgJzgnLCAnLW1hJywgJzIwMCcsICctbWV0YWxfYmluZGluZycsICctaW1hZScsICc8aW5maWxlLm1hZT4nLCAnLW9tYWUnLCAnPG91dGZpbGUubWFlPic=

> <r_lp_tautomer_probability>
1

> <r_epik_Ionization_Penalty>
0.00179402

> <r_epik_Ionization_Penalty_Charging>
0.00173996

> <r_epik_Ionization_Penalty_Neutral>
5.40607e-05

> <r_epik_State_Penalty>
-0

> <r_epik_Charging_Adjusted_Penalty>
0.00173996

> <i_epik_Tot_Q>
1

> <i_epik_Tot_abs_Q>
1

> <r_epik_Metal_State_Penalty>
-0

> <b_epik_Metal_Only>
0

> <s_lp_Force_Field>
OPLS_2005

> <r_lp_Energy>
49.5757

> <b_lp_Chiralities_Consistent>
1

> <s_lp_Variant>
AV-unprocessed.smi:280-1

> <Gold.Version>
5.8.1

> <Gold.Id.Protein>
6NUR|6NUR_protein|mol2

> <Gold.PLP.Fitness>
53.1929

> <Gold.PLP.PLP>
-42.1743

> <Gold.PLP.part.hbond>
-2.6938

> <Gold.PLP.part.metal>
0.0000

> <Gold.PLP.part.buried>
-3.9714

> <Gold.PLP.part.nonpolar>
-36.0008

> <Gold.PLP.part.repulsive>
0.2683

> <Gold.PLP.ligand.clash>
0.0000

> <Gold.PLP.ligand.torsion>
1.0900

> <Gold.PLP.Chemscore.Hbond>
2.9913

> <Gold.PLP.Chemscore.CHOScore>
1.0000

> <Gold.PLP.Chemscore.Metal>
0.0000

> <Gold.Chemscore.Hbonds>
donor molecule, donor type, donor heavy atom, donor atom, acceptor molecule, acceptor atom, score
      L1  H    23    59       P1  7948  2.00
      L1  H    28    58       P1  7948  1.00
      L1  C    12    36       P1  8028  1.00

> <Gold.PLP.Chemscore.Internal.Correction>
1.2248

> <Gold.Rescore>
     Score         DG    S(hbond)    S(metal)    S(lipo)     H(rot)  DE(clash)    DE(int)     intcor
      9.52     -14.41       1.98        0.00      99.05       3.63       0.18       4.71       ----

> <Gold.Chemscore.Fitness>
9.5242

> <Gold.Chemscore.DG>
-14.4137

> <Gold.Chemscore.ZeroCoef>
-5.4800

> <Gold.Chemscore.Hbond>
1.9842

> <Gold.Chemscore.Metal>
0.0000

> <Gold.Chemscore.Lipo>
99.0492

> <Gold.Chemscore.Internal_Hbond>
0.0000

> <Gold.Chemscore.DEClash>
0.1817

> <Gold.Chemscore.DEInternal>
4.7078

> <Gold.Chemscore.Rot>
3.6260

> <Gold.Chemscore.Internal.Correction>
   9.000000E+99

> <Gold.Chemscore.Hbonds>
donor molecule, donor type, donor heavy atom, donor atom, acceptor molecule, acceptor atom, score
      L1  H    23    59       P1  7948  1.00
      L1  H    28    58       P1  7948  0.95

> <Gold.Chemscore.Hbond.Weighted>
-6.6274

> <Gold.Chemscore.Metal.Weighted>
-0.0000

> <Gold.Chemscore.Lipo.Weighted>
-11.5888

> <Gold.Chemscore.Internal_Hbond.Weighted>
0.0000

> <Gold.Chemscore.DEClash.Weighted>
0.1817

> <Gold.Chemscore.DEInternal.Weighted>
4.7078

> <Gold.Chemscore.Rot.Weighted>
9.2825

> <Gold.Chemscore.Internal.Correction.Weighted>
   9.000000E+99

> <Gold.Protein.RotatedTorsions>
[ 6907 6896 6895 6894 ] final  139.61 input  -60.11 | X-H torsion
[ 7974 7965 7964 7962 ] final  -72.25 input  175.53 | X-H torsion
[ 8008 7997 7996 7995 ] final   17.18 input   59.86 | X-H torsion
[ 10167 10162 10161 10158 ] final  165.20 input  -65.29 | X-H torsion
[ 10718 10713 10712 10709 ] final  -28.00 input   66.30 | X-H torsion
[ 10763 10752 10751 10750 ] final -118.55 input  -60.55 | X-H torsion
[ 11005 11000 10999 10996 ] final  -53.74 input  -57.11 | X-H torsion

> <Gold.Protein.ActiveResidues>
 VAL166  LYS551  ARG553  GLY616  TRP617  ASP618  TYR619  PRO620  LYS621  CYS622 
 ASP623  PHE694  ASN695  SER759  ASP760  ASP761  ALA762  ILE779  LEU786  VAL792 
 PHE793  MET794  SER795  GLU796  ALA797  LYS798  CYS799  TRP800  GLU811  SER814 

> <Gold.Protein.RotatedAtoms>
  152.2529  133.5230  159.5335 H   0  0  0  0  0  0  0  0  0  0  0  0  # atno 6907 bound_to 6896
  150.7099  134.0936  159.3949 H   0  0  0  0  0  0  0  0  0  0  0  0  # atno 6908 bound_to 6896
  151.8855  135.0437  160.0543 H   0  0  0  0  0  0  0  0  0  0  0  0  # atno 6909 bound_to 6896
  145.6675  140.9232  143.0900 H   0  0  0  0  0  0  0  0  0  0  0  0  # atno 7974 bound_to 7965
  154.8876  140.2982  155.5389 H   0  0  0  0  0  0  0  0  0  0  0  0  # atno 8008 bound_to 7997
  156.3021  140.2430  156.3822 H   0  0  0  0  0  0  0  0  0  0  0  0  # atno 8009 bound_to 7997
  154.8652  140.0403  157.1679 H   0  0  0  0  0  0  0  0  0  0  0  0  # atno 8010 bound_to 7997
  139.4902  144.4156  151.9247 H   0  0  0  0  0  0  0  0  0  0  0  0  # atno 10167 bound_to 10162
  156.4309  130.4445  149.7118 H   0  0  0  0  0  0  0  0  0  0  0  0  # atno 10718 bound_to 10713
  154.8591  135.4270  154.2156 H   0  0  0  0  0  0  0  0  0  0  0  0  # atno 10763 bound_to 10752
  153.3172  135.6980  153.7068 H   0  0  0  0  0  0  0  0  0  0  0  0  # atno 10764 bound_to 10752
  153.6137  135.3514  155.2961 H   0  0  0  0  0  0  0  0  0  0  0  0  # atno 10765 bound_to 10752
  141.0991  133.6620  156.4217 H   0  0  0  0  0  0  0  0  0  0  0  0  # atno 11005 bound_to 11000
  144.7068  139.8529  143.7427 LP  0  0  0  0  0  0  0  0  0  0  0  0  # atno 17320 bound_to 7965
  146.1073  139.4074  143.0309 LP  0  0  0  0  0  0  0  0  0  0  0  0  # atno 17321 bound_to 7965
  140.3599  144.2986  150.5935 LP  0  0  0  0  0  0  0  0  0  0  0  0  # atno 17342 bound_to 10162
  140.5412  143.2223  151.8081 LP  0  0  0  0  0  0  0  0  0  0  0  0  # atno 17343 bound_to 10162
  156.4021  130.7680  151.2688 LP  0  0  0  0  0  0  0  0  0  0  0  0  # atno 17370 bound_to 10713
  157.7508  131.0236  150.3843 LP  0  0  0  0  0  0  0  0  0  0  0  0  # atno 17371 bound_to 10713
  140.5067  134.6434  157.5269 LP  0  0  0  0  0  0  0  0  0  0  0  0  # atno 17394 bound_to 11000
  139.9836  134.7097  155.9813 LP  0  0  0  0  0  0  0  0  0  0  0  0  # atno 17395 bound_to 11000

$$$$
