AV-unprocessed.smi:1056|AV-procd|sdf|4633|dock3
  -GOLD-   22720 3133D 1   1.00000     0.00000
 Structure written by MMmdl.
 45 47  0  0  0  0  0  0  0  0  2 V2000
  153.4914  142.6543  161.9097 C   0  0  0  0  0  0  0  0  0  0  0  0
  152.9218  142.2498  160.5615 C   0  0  0  0  0  0  0  0  0  0  0  0
  153.3021  141.0101  159.9995 C   0  0  0  0  0  0  0  0  0  0  0  0
  152.7965  140.5970  158.7476 C   0  0  0  0  0  0  0  0  0  0  0  0
  153.0292  139.4432  158.0188 N   0  0  0  0  0  0  0  0  0  0  0  0
  152.2727  139.6463  156.9442 C   0  0  0  0  0  0  0  0  0  0  0  0
  151.5803  140.8005  156.8883 N   0  0  0  0  0  0  0  0  0  0  0  0
  150.6937  141.2445  155.8292 C   0  0  0  0  0  0  0  0  0  0  0  0
  149.2346  141.3871  156.3085 C   0  0  1  0  0  0  0  0  0  0  0  0
  149.0550  142.6687  156.8764 O   0  0  0  0  0  0  0  0  0  0  0  0
  148.2110  141.2233  155.1673 C   0  0  0  0  0  0  0  0  0  0  0  0
  147.1849  142.2965  155.1560 N   0  3  1  0  0  0  0  0  0  0  0  0
  146.5506  142.5067  153.8323 C   0  0  0  0  0  0  0  0  0  0  0  0
  145.6717  143.7694  153.8613 C   0  0  0  0  0  0  0  0  0  0  0  0
  144.8620  143.8748  155.0730 N   0  0  0  0  0  0  0  0  0  0  0  0
  145.0423  143.1580  156.1944 C   0  0  0  0  0  0  0  0  0  0  0  0
  144.3276  143.3104  157.1812 O   0  0  0  0  0  0  0  0  0  0  0  0
  146.1743  142.1201  156.2302 C   0  0  0  0  0  0  0  0  0  0  0  0
  151.8930  141.4654  158.0686 C   0  0  0  0  0  0  0  0  0  0  0  0
  151.5057  142.7008  158.6173 C   0  0  0  0  0  0  0  0  0  0  0  0
  152.0220  143.0988  159.8681 C   0  0  0  0  0  0  0  0  0  0  0  0
  151.6023  144.4366  160.4510 C   0  0  0  0  0  0  0  0  0  0  0  0
  154.1039  141.8599  162.3377 H   0  0  0  0  0  0  0  0  0  0  0  0
  152.6904  142.8735  162.6160 H   0  0  0  0  0  0  0  0  0  0  0  0
  154.1163  143.5417  161.8073 H   0  0  0  0  0  0  0  0  0  0  0  0
  153.9884  140.3639  160.5272 H   0  0  0  0  0  0  0  0  0  0  0  0
  152.2215  138.9158  156.1499 H   0  0  0  0  0  0  0  0  0  0  0  0
  151.0629  142.1920  155.4337 H   0  0  0  0  0  0  0  0  0  0  0  0
  150.7613  140.5202  155.0168 H   0  0  0  0  0  0  0  0  0  0  0  0
  149.0350  140.6644  157.0989 H   0  0  0  0  0  0  0  0  0  0  0  0
  149.1456  143.3170  156.1942 H   0  0  0  0  0  0  0  0  0  0  0  0
  148.7130  141.1978  154.1986 H   0  0  0  0  0  0  0  0  0  0  0  0
  147.7197  140.2555  155.2817 H   0  0  0  0  0  0  0  0  0  0  0  0
  147.2958  142.6099  153.0446 H   0  0  0  0  0  0  0  0  0  0  0  0
  145.9460  141.6331  153.5828 H   0  0  0  0  0  0  0  0  0  0  0  0
  146.3051  144.6559  153.8115 H   0  0  0  0  0  0  0  0  0  0  0  0
  145.0212  143.8000  152.9870 H   0  0  0  0  0  0  0  0  0  0  0  0
  144.1098  144.5494  155.0621 H   0  0  0  0  0  0  0  0  0  0  0  0
  145.7266  141.1284  156.1485 H   0  0  0  0  0  0  0  0  0  0  0  0
  146.6669  142.1706  157.2023 H   0  0  0  0  0  0  0  0  0  0  0  0
  150.8190  143.3373  158.0798 H   0  0  0  0  0  0  0  0  0  0  0  0
  150.9441  144.9784  159.7710 H   0  0  0  0  0  0  0  0  0  0  0  0
  152.4750  145.0622  160.6398 H   0  0  0  0  0  0  0  0  0  0  0  0
  151.0688  144.2930  161.3907 H   0  0  0  0  0  0  0  0  0  0  0  0
  147.6699  143.1542  155.3777 H   0  0  0  0  0  0  0  0  0  0  0  0
  1  2  1  0  0  0  0
  1 23  1  0  0  0  0
  1 24  1  0  0  0  0
  1 25  1  0  0  0  0
  2 21  1  0  0  0  0
  2  3  2  0  0  0  0
  3  4  1  0  0  0  0
  3 26  1  0  0  0  0
  4 19  2  0  0  0  0
  4  5  1  0  0  0  0
  5  6  2  0  0  0  0
  6  7  1  0  0  0  0
  6 27  1  0  0  0  0
  7  8  1  0  0  0  0
  7 19  1  0  0  0  0
  8  9  1  0  0  0  0
  8 28  1  0  0  0  0
  8 29  1  0  0  0  0
  9 10  1  0  0  0  0
  9 11  1  0  0  0  0
  9 30  1  0  0  0  0
 10 31  1  0  0  0  0
 11 12  1  0  0  0  0
 11 32  1  0  0  0  0
 11 33  1  0  0  0  0
 12 18  1  0  0  0  0
 12 13  1  0  0  0  0
 12 45  1  0  0  0  0
 13 14  1  0  0  0  0
 13 34  1  0  0  0  0
 13 35  1  0  0  0  0
 14 15  1  0  0  0  0
 14 36  1  0  0  0  0
 14 37  1  0  0  0  0
 15 16  1  0  0  0  0
 15 38  1  0  0  0  0
 16 17  2  0  0  0  0
 16 18  1  0  0  0  0
 18 39  1  0  0  0  0
 18 40  1  0  0  0  0
 19 20  1  0  0  0  0
 20 21  2  0  0  0  0
 20 41  1  0  0  0  0
 21 22  1  0  0  0  0
 22 42  1  0  0  0  0
 22 43  1  0  0  0  0
 22 44  1  0  0  0  0
M  CHG  1  12   1
M  END
> <s_m_source_file>
AV-unprocessed.smi

> <i_m_source_file_index>
1056

> <i_lp_mmshare_version>
43012

> <i_f3d_flags>
0

> <s_epik_input>
W0NIM11jKFtjSF0xKWMoW0NIM10pW2NIXWMoYzEyKW4oW2NIXW4yKVtDSDJdW0NASF0oW09IXSlbQ0gyXU4zW0NIMl1bQ0gyXVtOSF1DKD1PKVtDSDJdMw==

> <s_epik_cmdline>
J2VwaWtfcHl0aG9uJywgJy1waCcsICc3LjAnLCAnLXRuJywgJzgnLCAnLW1hJywgJzIwMCcsICctbWV0YWxfYmluZGluZycsICctaW1hZScsICc8aW5maWxlLm1hZT4nLCAnLW9tYWUnLCAnPG91dGZpbGUubWFlPic=

> <r_epik_Ionization_Penalty>
0.153633

> <r_epik_Ionization_Penalty_Charging>
0.0674887

> <r_epik_Ionization_Penalty_Neutral>
0.0861443

> <r_epik_State_Penalty>
0.135155

> <r_epik_Charging_Adjusted_Penalty>
0.202644

> <i_epik_Tot_Q>
1

> <i_epik_Tot_abs_Q>
1

> <r_epik_Metal_State_Penalty>
0.190685

> <b_epik_Metal_Only>
0

> <s_lp_Force_Field>
OPLS_2005

> <r_lp_Energy>
24.5126

> <b_lp_Chiralities_Consistent>
1

> <s_lp_Variant>
AV-unprocessed.smi:1056-4

> <Gold.Version>
5.8.1

> <Gold.Id.Protein>
6NUR|6NUR_protein|mol2

> <Gold.PLP.Fitness>
53.8382

> <Gold.PLP.PLP>
-44.5390

> <Gold.PLP.part.hbond>
-2.6879

> <Gold.PLP.part.metal>
0.0000

> <Gold.PLP.part.buried>
-5.8334

> <Gold.PLP.part.nonpolar>
-34.6811

> <Gold.PLP.part.repulsive>
0.1214

> <Gold.PLP.ligand.clash>
0.0000

> <Gold.PLP.ligand.torsion>
1.1764

> <Gold.PLP.Chemscore.Hbond>
3.8432

> <Gold.PLP.Chemscore.CHOScore>
0.0000

> <Gold.PLP.Chemscore.Metal>
0.0000

> <Gold.Chemscore.Hbonds>
donor molecule, donor type, donor heavy atom, donor atom, acceptor molecule, acceptor atom, score
      L1  H    10    31       P1  8028  0.97
      L1  H    12    45       P1  8028  2.00
      P1  H  7997  8010       L1     5  0.68

> <Gold.PLP.Chemscore.Internal.Correction>
0.1224

> <Gold.Rescore>
     Score         DG    S(hbond)    S(metal)    S(lipo)     H(rot)  DE(clash)    DE(int)     intcor
     15.24     -17.81       1.59        0.00     111.97       2.38       0.16       2.40       ----

> <Gold.Chemscore.Fitness>
15.2435

> <Gold.Chemscore.DG>
-17.8082

> <Gold.Chemscore.ZeroCoef>
-5.4800

> <Gold.Chemscore.Hbond>
1.5916

> <Gold.Chemscore.Metal>
0.0000

> <Gold.Chemscore.Lipo>
111.9719

> <Gold.Chemscore.Internal_Hbond>
0.0000

> <Gold.Chemscore.DEClash>
0.1644

> <Gold.Chemscore.DEInternal>
2.4003

> <Gold.Chemscore.Rot>
2.3783

> <Gold.Chemscore.Internal.Correction>
   9.000000E+99

> <Gold.Chemscore.Hbonds>
donor molecule, donor type, donor heavy atom, donor atom, acceptor molecule, acceptor atom, score
      L1  H    10    31       P1  8028  0.87
      L1  H    12    45       P1  8028  0.39
      P1  H  7997  8010       L1     5  0.02

> <Gold.Chemscore.Hbond.Weighted>
-5.3158

> <Gold.Chemscore.Metal.Weighted>
-0.0000

> <Gold.Chemscore.Lipo.Weighted>
-13.1007

> <Gold.Chemscore.Internal_Hbond.Weighted>
0.0000

> <Gold.Chemscore.DEClash.Weighted>
0.1644

> <Gold.Chemscore.DEInternal.Weighted>
2.4003

> <Gold.Chemscore.Rot.Weighted>
6.0884

> <Gold.Chemscore.Internal.Correction.Weighted>
   9.000000E+99

> <Gold.Protein.RotatedTorsions>
[ 6907 6896 6895 6894 ] final -168.00 input  -60.11 | X-H torsion
[ 7974 7965 7964 7962 ] final   41.39 input  175.53 | X-H torsion
[ 8008 7997 7996 7995 ] final   19.63 input   59.86 | X-H torsion
[ 10167 10162 10161 10158 ] final -148.68 input  -65.29 | X-H torsion
[ 10718 10713 10712 10709 ] final   17.98 input   66.30 | X-H torsion
[ 10763 10752 10751 10750 ] final    4.19 input  -60.55 | X-H torsion
[ 11005 11000 10999 10996 ] final -148.43 input  -57.11 | X-H torsion

> <Gold.Protein.ActiveResidues>
 VAL166  LYS551  ARG553  GLY616  TRP617  ASP618  TYR619  PRO620  LYS621  CYS622 
 ASP623  PHE694  ASN695  SER759  ASP760  ASP761  ALA762  ILE779  LEU786  VAL792 
 PHE793  MET794  SER795  GLU796  ALA797  LYS798  CYS799  TRP800  GLU811  SER814 

> <Gold.Protein.RotatedAtoms>
  151.4685  133.3575  159.2819 H   0  0  0  0  0  0  0  0  0  0  0  0  # atno 6907 bound_to 6896
  150.8977  134.8388  159.7349 H   0  0  0  0  0  0  0  0  0  0  0  0  # atno 6908 bound_to 6896
  152.4861  134.4602  159.9654 H   0  0  0  0  0  0  0  0  0  0  0  0  # atno 6909 bound_to 6896
  146.0828  139.5422  142.9526 H   0  0  0  0  0  0  0  0  0  0  0  0  # atno 7974 bound_to 7965
  154.9236  140.3030  155.5203 H   0  0  0  0  0  0  0  0  0  0  0  0  # atno 8008 bound_to 7997
  156.3008  140.2367  156.4225 H   0  0  0  0  0  0  0  0  0  0  0  0  # atno 8009 bound_to 7997
  154.8306  140.0418  157.1463 H   0  0  0  0  0  0  0  0  0  0  0  0  # atno 8010 bound_to 7997
  139.7509  143.8519  152.2586 H   0  0  0  0  0  0  0  0  0  0  0  0  # atno 10167 bound_to 10162
  157.0898  130.6423  149.5846 H   0  0  0  0  0  0  0  0  0  0  0  0  # atno 10718 bound_to 10713
  153.2742  135.6935  153.7450 H   0  0  0  0  0  0  0  0  0  0  0  0  # atno 10763 bound_to 10752
  153.6461  135.3385  155.3087 H   0  0  0  0  0  0  0  0  0  0  0  0  # atno 10764 bound_to 10752
  154.8474  135.4443  154.1775 H   0  0  0  0  0  0  0  0  0  0  0  0  # atno 10765 bound_to 10752
  140.7613  134.3295  157.5101 H   0  0  0  0  0  0  0  0  0  0  0  0  # atno 11005 bound_to 11000
  145.6187  141.0326  143.1927 LP  0  0  0  0  0  0  0  0  0  0  0  0  # atno 17320 bound_to 7965
  144.7305  139.7742  143.7349 LP  0  0  0  0  0  0  0  0  0  0  0  0  # atno 17321 bound_to 7965
  139.8497  144.7170  150.9229 LP  0  0  0  0  0  0  0  0  0  0  0  0  # atno 17342 bound_to 10162
  140.7797  143.3910  151.1310 LP  0  0  0  0  0  0  0  0  0  0  0  0  # atno 17343 bound_to 10162
  155.9901  130.4951  150.7243 LP  0  0  0  0  0  0  0  0  0  0  0  0  # atno 17370 bound_to 10713
  157.4731  131.0895  151.0621 LP  0  0  0  0  0  0  0  0  0  0  0  0  # atno 17371 bound_to 10713
  139.8770  134.9204  156.3249 LP  0  0  0  0  0  0  0  0  0  0  0  0  # atno 17394 bound_to 11000
  140.9660  133.7357  156.0468 LP  0  0  0  0  0  0  0  0  0  0  0  0  # atno 17395 bound_to 11000

$$$$
