AV-unprocessed.smi:11|AV-procd|sdf|56|dock10
  -GOLD-   2262015173D 1   1.00000     0.00000
 Structure written by MMmdl.
 33 35  0  0  0  0  0  0  0  0  1 V2000
  148.4647  139.4229  156.7777 C   0  0  0  0  0  0  0  0  0  0  0  0
  148.2256  140.0975  155.4158 C   0  0  0  0  0  0  0  0  0  0  0  0
  149.4889  140.6801  154.7343 C   0  0  2  0  0  0  0  0  0  0  0  0
  149.1057  141.2930  153.5186 O   0  0  0  0  0  0  0  0  0  0  0  0
  150.5312  139.5883  154.4554 C   0  0  0  0  0  0  0  0  0  0  0  0
  151.3358  139.5311  155.7523 C   0  0  0  0  0  0  0  0  0  0  0  0
  151.3393  140.9008  156.2447 N   0  0  0  0  0  0  0  0  0  0  0  0
  151.7842  141.2069  157.5470 C   0  0  0  0  0  0  0  0  0  0  0  0
  152.2737  140.1944  158.3086 N   0  0  0  0  0  0  0  0  0  0  0  0
  152.7005  140.4390  159.5506 C   0  0  0  0  0  0  0  0  0  0  0  0
  152.7306  141.5994  160.2096 N   0  0  0  0  0  0  0  0  0  0  0  0
  152.2541  142.6185  159.4410 C   0  0  0  0  0  0  0  0  0  0  0  0
  152.1488  143.9472  159.7952 N   0  0  0  0  0  0  0  0  0  0  0  0
  151.6305  144.6848  158.7456 C   0  0  0  0  0  0  0  0  0  0  0  0
  151.3870  143.8459  157.6881 C   0  0  0  0  0  0  0  0  0  0  0  0
  151.7658  142.5186  158.1057 C   0  0  0  0  0  0  0  0  0  0  0  0
  150.2656  141.6675  155.6273 C   0  0  0  0  0  0  0  0  0  0  0  0
  152.4103  144.3503  160.6835 H   0  0  0  0  0  0  0  0  0  0  0  0
  147.5234  139.0675  157.1969 H   0  0  0  0  0  0  0  0  0  0  0  0
  148.8996  140.1160  157.4978 H   0  0  0  0  0  0  0  0  0  0  0  0
  149.1274  138.5622  156.6975 H   0  0  0  0  0  0  0  0  0  0  0  0
  147.7511  139.3752  154.7505 H   0  0  0  0  0  0  0  0  0  0  0  0
  147.4955  140.8961  155.5548 H   0  0  0  0  0  0  0  0  0  0  0  0
  149.4577  140.7852  152.8037 H   0  0  0  0  0  0  0  0  0  0  0  0
  150.0962  138.6266  154.1816 H   0  0  0  0  0  0  0  0  0  0  0  0
  151.1924  139.8945  153.6428 H   0  0  0  0  0  0  0  0  0  0  0  0
  150.8464  138.8767  156.4749 H   0  0  0  0  0  0  0  0  0  0  0  0
  152.3483  139.1627  155.5844 H   0  0  0  0  0  0  0  0  0  0  0  0
  153.0699  139.5824  160.0948 H   0  0  0  0  0  0  0  0  0  0  0  0
  151.4792  145.7506  158.8357 H   0  0  0  0  0  0  0  0  0  0  0  0
  150.9873  144.1256  156.7252 H   0  0  0  0  0  0  0  0  0  0  0  0
  150.7208  142.4574  155.0284 H   0  0  0  0  0  0  0  0  0  0  0  0
  149.6241  142.1394  156.3703 H   0  0  0  0  0  0  0  0  0  0  0  0
  1  2  1  0  0  0  0
  1 19  1  0  0  0  0
  1 20  1  0  0  0  0
  1 21  1  0  0  0  0
  2  3  1  0  0  0  0
  2 22  1  0  0  0  0
  2 23  1  0  0  0  0
  3 17  1  0  0  0  0
  3  4  1  0  0  0  0
  3  5  1  0  0  0  0
  4 24  1  0  0  0  0
  5  6  1  0  0  0  0
  5 25  1  0  0  0  0
  5 26  1  0  0  0  0
  6  7  1  0  0  0  0
  6 27  1  0  0  0  0
  6 28  1  0  0  0  0
  7  8  1  0  0  0  0
  7 17  1  0  0  0  0
  8 16  1  0  0  0  0
  8  9  2  0  0  0  0
  9 10  1  0  0  0  0
 10 11  2  0  0  0  0
 10 29  1  0  0  0  0
 11 12  1  0  0  0  0
 12 16  2  0  0  0  0
 12 13  1  0  0  0  0
 13 18  1  0  0  0  0
 13 14  1  0  0  0  0
 14 15  2  0  0  0  0
 14 30  1  0  0  0  0
 15 16  1  0  0  0  0
 15 31  1  0  0  0  0
 17 32  1  0  0  0  0
 17 33  1  0  0  0  0
M  END
> <s_m_source_file>
AV-unprocessed.smi

> <i_m_source_file_index>
11

> <i_lp_mmshare_version>
43012

> <i_f3d_flags>
0

> <s_epik_input>
W0NIM11bQ0gyXVtDQEBdMShbT0hdKVtDSDJdW0NIMl1OKFtDSDJdMSljKG5bY0hdbjIpYyhjMjMpW2NIXVtjSF1bbkhdMw==

> <s_epik_cmdline>
J2VwaWtfcHl0aG9uJywgJy1waCcsICc3LjAnLCAnLXRuJywgJzgnLCAnLW1hJywgJzIwMCcsICctbWV0YWxfYmluZGluZycsICctaW1hZScsICc8aW5maWxlLm1hZT4nLCAnLW9tYWUnLCAnPG91dGZpbGUubWFlPic=

> <r_lp_tautomer_probability>
0.999998

> <r_epik_Ionization_Penalty>
0.0511253

> <r_epik_Ionization_Penalty_Charging>
0

> <r_epik_Ionization_Penalty_Neutral>
0.0511253

> <r_epik_State_Penalty>
0.0394181

> <r_epik_Charging_Adjusted_Penalty>
0.0394181

> <i_epik_Tot_Q>
0

> <i_epik_Tot_abs_Q>
0

> <r_epik_Metal_State_Penalty>
0.0367127

> <b_epik_Metal_Only>
0

> <s_lp_Force_Field>
OPLS_2005

> <r_lp_Energy>
27.4112

> <b_lp_Chiralities_Consistent>
1

> <s_lp_Variant>
AV-unprocessed.smi:11-2

> <Gold.Version>
5.8.1

> <Gold.Id.Protein>
6NUR|6NUR_protein|mol2

> <Gold.PLP.Fitness>
39.3307

> <Gold.PLP.PLP>
-36.4869

> <Gold.PLP.part.hbond>
-3.0000

> <Gold.PLP.part.metal>
0.0000

> <Gold.PLP.part.buried>
-4.4146

> <Gold.PLP.part.nonpolar>
-27.9563

> <Gold.PLP.part.repulsive>
0.0266

> <Gold.PLP.ligand.clash>
0.0000

> <Gold.PLP.ligand.torsion>
0.2059

> <Gold.PLP.Chemscore.Hbond>
1.0000

> <Gold.PLP.Chemscore.CHOScore>
0.0000

> <Gold.PLP.Chemscore.Metal>
0.0000

> <Gold.Chemscore.Hbonds>
donor molecule, donor type, donor heavy atom, donor atom, acceptor molecule, acceptor atom, score
      L1  H     4    24       P1  7957  1.00

> <Gold.PLP.Chemscore.Internal.Correction>
0.2555

> <Gold.Rescore>
     Score         DG    S(hbond)    S(metal)    S(lipo)     H(rot)  DE(clash)    DE(int)     intcor
     12.98     -13.24       1.00        0.00      69.15       1.43       0.03       0.23       ----

> <Gold.Chemscore.Fitness>
12.9789

> <Gold.Chemscore.DG>
-13.2426

> <Gold.Chemscore.ZeroCoef>
-5.4800

> <Gold.Chemscore.Hbond>
0.9964

> <Gold.Chemscore.Metal>
0.0000

> <Gold.Chemscore.Lipo>
69.1549

> <Gold.Chemscore.Internal_Hbond>
0.0000

> <Gold.Chemscore.DEClash>
0.0332

> <Gold.Chemscore.DEInternal>
0.2304

> <Gold.Chemscore.Rot>
1.4283

> <Gold.Chemscore.Internal.Correction>
   9.000000E+99

> <Gold.Chemscore.Hbonds>
donor molecule, donor type, donor heavy atom, donor atom, acceptor molecule, acceptor atom, score
      L1  H     4    24       P1  7957  1.00

> <Gold.Chemscore.Hbond.Weighted>
-3.3280

> <Gold.Chemscore.Metal.Weighted>
-0.0000

> <Gold.Chemscore.Lipo.Weighted>
-8.0911

> <Gold.Chemscore.Internal_Hbond.Weighted>
0.0000

> <Gold.Chemscore.DEClash.Weighted>
0.0332

> <Gold.Chemscore.DEInternal.Weighted>
0.2304

> <Gold.Chemscore.Rot.Weighted>
3.6566

> <Gold.Chemscore.Internal.Correction.Weighted>
   9.000000E+99

> <Gold.Protein.RotatedTorsions>
[ 6907 6896 6895 6894 ] final    3.52 input  -60.11 | X-H torsion
[ 7974 7965 7964 7962 ] final  177.54 input  175.53 | X-H torsion
[ 8008 7997 7996 7995 ] final   59.01 input   59.86 | X-H torsion
[ 10167 10162 10161 10158 ] final  -67.98 input  -65.29 | X-H torsion
[ 10718 10713 10712 10709 ] final  121.95 input   66.30 | X-H torsion
[ 10763 10752 10751 10750 ] final  -26.44 input  -60.55 | X-H torsion
[ 11005 11000 10999 10996 ] final  -80.61 input  -57.11 | X-H torsion

> <Gold.Protein.ActiveResidues>
 VAL166  LYS551  ARG553  GLY616  TRP617  ASP618  TYR619  PRO620  LYS621  CYS622 
 ASP623  PHE694  ASN695  SER759  ASP760  ASP761  ALA762  ILE779  LEU786  VAL792 
 PHE793  MET794  SER795  GLU796  ALA797  LYS798  CYS799  TRP800  GLU811  SER814 

> <Gold.Protein.RotatedAtoms>
  151.6264  135.1027  160.0112 H   0  0  0  0  0  0  0  0  0  0  0  0  # atno 6907 bound_to 6896
  152.4130  133.6989  159.6423 H   0  0  0  0  0  0  0  0  0  0  0  0  # atno 6908 bound_to 6896
  150.8019  133.8508  159.3245 H   0  0  0  0  0  0  0  0  0  0  0  0  # atno 6909 bound_to 6896
  144.7168  140.0262  143.6439 H   0  0  0  0  0  0  0  0  0  0  0  0  # atno 7974 bound_to 7965
  155.5592  140.3488  155.4487 H   0  0  0  0  0  0  0  0  0  0  0  0  # atno 8008 bound_to 7997
  156.0526  140.1321  157.0058 H   0  0  0  0  0  0  0  0  0  0  0  0  # atno 8009 bound_to 7997
  154.4441  140.1001  156.6384 H   0  0  0  0  0  0  0  0  0  0  0  0  # atno 8010 bound_to 7997
  140.5542  143.2312  151.6853 H   0  0  0  0  0  0  0  0  0  0  0  0  # atno 10167 bound_to 10162
  157.5779  131.1077  150.8243 H   0  0  0  0  0  0  0  0  0  0  0  0  # atno 10718 bound_to 10713
  153.7160  135.6948  153.5025 H   0  0  0  0  0  0  0  0  0  0  0  0  # atno 10763 bound_to 10752
  153.2238  135.4361  155.0518 H   0  0  0  0  0  0  0  0  0  0  0  0  # atno 10764 bound_to 10752
  154.8300  135.3467  154.6695 H   0  0  0  0  0  0  0  0  0  0  0  0  # atno 10765 bound_to 10752
  141.1668  133.7158  156.8299 H   0  0  0  0  0  0  0  0  0  0  0  0  # atno 11005 bound_to 11000
  146.0140  139.3194  143.0853 LP  0  0  0  0  0  0  0  0  0  0  0  0  # atno 17320 bound_to 7965
  145.8648  140.9454  143.0681 LP  0  0  0  0  0  0  0  0  0  0  0  0  # atno 17321 bound_to 7965
  139.5040  144.3768  152.0415 LP  0  0  0  0  0  0  0  0  0  0  0  0  # atno 17342 bound_to 10162
  140.2888  144.3777  150.6095 LP  0  0  0  0  0  0  0  0  0  0  0  0  # atno 17343 bound_to 10162
  156.8697  130.5142  149.5297 LP  0  0  0  0  0  0  0  0  0  0  0  0  # atno 17370 bound_to 10713
  156.0824  130.5831  150.9588 LP  0  0  0  0  0  0  0  0  0  0  0  0  # atno 17371 bound_to 10713
  140.2058  134.8863  157.3220 LP  0  0  0  0  0  0  0  0  0  0  0  0  # atno 17394 bound_to 11000
  140.2138  134.4106  155.7599 LP  0  0  0  0  0  0  0  0  0  0  0  0  # atno 17395 bound_to 11000

$$$$
