AV-unprocessed.smi:3324|AV-procd|sdf|12781|dock4
  -GOLD-   2272019123D 1   1.00000     0.00000
 Structure written by MMmdl.
 31 31  0  0  0  0  0  0  0  0  2 V2000
  146.1965  136.5732  153.3461 O   0  0  0  0  0  0  0  0  0  0  0  0
  145.7101  137.3587  152.5319 C   0  0  0  0  0  0  0  0  0  0  0  0
  146.5350  138.5227  151.9787 C   0  0  0  0  0  0  0  0  0  0  0  0
  147.9038  138.5555  152.5342 N   0  3  0  0  0  0  0  0  0  0  0  0
  147.9677  138.9443  153.9558 C   0  0  0  0  0  0  0  0  0  0  0  0
  149.0430  140.0162  154.1858 C   0  0  0  0  0  0  0  0  0  0  0  0
  150.3528  139.4285  154.3902 N   0  0  0  0  0  0  0  0  0  0  0  0
  150.8207  138.2023  153.9666 C   0  0  0  0  0  0  0  0  0  0  0  0
  152.1108  138.0890  154.3995 C   0  0  0  0  0  0  0  0  0  0  0  0
  152.3449  139.3111  155.0898 C   0  0  0  0  0  0  0  0  0  0  0  0
  151.2902  140.1108  155.0824 N   0  0  0  0  0  0  0  0  0  0  0  0
  144.4526  137.2609  152.0757 N   0  0  0  0  0  0  0  0  0  0  0  0
  143.4861  136.2453  152.4833 C   0  0  0  0  0  0  0  0  0  0  0  0
  142.7247  136.6530  153.7562 C   0  0  0  0  0  0  0  0  0  0  0  0
  141.7564  135.7681  153.9885 F   0  0  0  0  0  0  0  0  0  0  0  0
  143.5400  136.6788  154.8105 F   0  0  0  0  0  0  0  0  0  0  0  0
  142.1750  137.8572  153.5974 F   0  0  0  0  0  0  0  0  0  0  0  0
  146.5859  138.4374  150.8924 H   0  0  0  0  0  0  0  0  0  0  0  0
  146.0277  139.4601  152.2114 H   0  0  0  0  0  0  0  0  0  0  0  0
  148.3096  137.6358  152.4325 H   0  0  0  0  0  0  0  0  0  0  0  0
  146.9934  139.3197  154.2713 H   0  0  0  0  0  0  0  0  0  0  0  0
  148.1832  138.0594  154.5562 H   0  0  0  0  0  0  0  0  0  0  0  0
  149.0979  140.6940  153.3324 H   0  0  0  0  0  0  0  0  0  0  0  0
  148.7949  140.6233  155.0577 H   0  0  0  0  0  0  0  0  0  0  0  0
  150.2051  137.5198  153.3989 H   0  0  0  0  0  0  0  0  0  0  0  0
  152.7850  137.2590  154.2478 H   0  0  0  0  0  0  0  0  0  0  0  0
  153.2430  139.6388  155.5924 H   0  0  0  0  0  0  0  0  0  0  0  0
  144.1314  137.9483  151.4089 H   0  0  0  0  0  0  0  0  0  0  0  0
  142.7802  136.1093  151.6633 H   0  0  0  0  0  0  0  0  0  0  0  0
  143.9775  135.2813  152.6260 H   0  0  0  0  0  0  0  0  0  0  0  0
  148.4520  139.2081  151.9921 H   0  0  0  0  0  0  0  0  0  0  0  0
  1  2  2  0  0  0  0
  2  3  1  0  0  0  0
  2 12  1  0  0  0  0
  3  4  1  0  0  0  0
  3 18  1  0  0  0  0
  3 19  1  0  0  0  0
  4  5  1  0  0  0  0
  4 20  1  0  0  0  0
  4 31  1  0  0  0  0
  5  6  1  0  0  0  0
  5 21  1  0  0  0  0
  5 22  1  0  0  0  0
  6  7  1  0  0  0  0
  6 23  1  0  0  0  0
  6 24  1  0  0  0  0
  7 11  1  0  0  0  0
  7  8  1  0  0  0  0
  8  9  2  0  0  0  0
  8 25  1  0  0  0  0
  9 10  1  0  0  0  0
  9 26  1  0  0  0  0
 10 11  2  0  0  0  0
 10 27  1  0  0  0  0
 12 13  1  0  0  0  0
 12 28  1  0  0  0  0
 13 14  1  0  0  0  0
 13 29  1  0  0  0  0
 13 30  1  0  0  0  0
 14 15  1  0  0  0  0
 14 16  1  0  0  0  0
 14 17  1  0  0  0  0
M  CHG  1   4   1
M  END
> <s_m_source_file>
AV-unprocessed.smi

> <i_m_source_file_index>
3324

> <i_lp_mmshare_version>
43012

> <i_f3d_flags>
0

> <s_epik_input>
RkMoRikoRilbQ0gyXVtOSF1DKD1PKVtDSDJdW05IXVtDSDJdW0NIMl1uMVtjSF1bY0hdW2NIXW4x

> <s_epik_cmdline>
J2VwaWtfcHl0aG9uJywgJy1waCcsICc3LjAnLCAnLXRuJywgJzgnLCAnLW1hJywgJzIwMCcsICctbWV0YWxfYmluZGluZycsICctaW1hZScsICc8aW5maWxlLm1hZT4nLCAnLW9tYWUnLCAnPG91dGZpbGUubWFlPic=

> <r_lp_tautomer_probability>
1

> <r_epik_Ionization_Penalty>
0.310414

> <r_epik_Ionization_Penalty_Charging>
0.310394

> <r_epik_Ionization_Penalty_Neutral>
2.02819e-05

> <r_epik_State_Penalty>
0.304907

> <r_epik_Charging_Adjusted_Penalty>
0.6153

> <i_epik_Tot_Q>
1

> <i_epik_Tot_abs_Q>
1

> <r_epik_Metal_State_Penalty>
0.315528

> <b_epik_Metal_Only>
0

> <s_lp_Force_Field>
OPLS_2005

> <r_lp_Energy>
1.82642

> <b_lp_Chiralities_Consistent>
1

> <s_lp_Variant>
AV-unprocessed.smi:3324-1

> <Gold.Version>
5.8.1

> <Gold.Id.Protein>
6NUR|6NUR_protein|mol2

> <Gold.PLP.Fitness>
49.4819

> <Gold.PLP.PLP>
-35.9746

> <Gold.PLP.part.hbond>
-4.0000

> <Gold.PLP.part.metal>
0.0000

> <Gold.PLP.part.buried>
-3.9675

> <Gold.PLP.part.nonpolar>
-28.9828

> <Gold.PLP.part.repulsive>
0.4524

> <Gold.PLP.ligand.clash>
0.0000

> <Gold.PLP.ligand.torsion>
1.0766

> <Gold.PLP.Chemscore.Hbond>
4.1100

> <Gold.PLP.Chemscore.CHOScore>
1.0808

> <Gold.PLP.Chemscore.Metal>
0.0000

> <Gold.Chemscore.Hbonds>
donor molecule, donor type, donor heavy atom, donor atom, acceptor molecule, acceptor atom, score
      L1  H     4    20       P1  7948  2.00
      L1  H     4    31       P1  7957  1.00
      L1  H    12    28       P1 10171  1.00
      P1  H  7989  7998       L1    11  0.16
      L1  C     8    25       P1  7948  0.94
      L1  C     8    25       P1  7949  0.15

> <Gold.PLP.Chemscore.Internal.Correction>
0.0880

> <Gold.Rescore>
     Score         DG    S(hbond)    S(metal)    S(lipo)     H(rot)  DE(clash)    DE(int)     intcor
     12.99     -14.30       2.99        0.00      53.78       2.91       0.33       0.98       ----

> <Gold.Chemscore.Fitness>
12.9855

> <Gold.Chemscore.DG>
-14.3004

> <Gold.Chemscore.ZeroCoef>
-5.4800

> <Gold.Chemscore.Hbond>
2.9866

> <Gold.Chemscore.Metal>
0.0000

> <Gold.Chemscore.Lipo>
53.7797

> <Gold.Chemscore.Internal_Hbond>
0.0000

> <Gold.Chemscore.DEClash>
0.3350

> <Gold.Chemscore.DEInternal>
0.9800

> <Gold.Chemscore.Rot>
2.9091

> <Gold.Chemscore.Internal.Correction>
   9.000000E+99

> <Gold.Chemscore.Hbonds>
donor molecule, donor type, donor heavy atom, donor atom, acceptor molecule, acceptor atom, score
      L1  H     4    20       P1  7948  0.99
      L1  H     4    31       P1  7957  0.99
      L1  H    12    28       P1 10171  0.98

> <Gold.Chemscore.Hbond.Weighted>
-9.9754

> <Gold.Chemscore.Metal.Weighted>
-0.0000

> <Gold.Chemscore.Lipo.Weighted>
-6.2922

> <Gold.Chemscore.Internal_Hbond.Weighted>
0.0000

> <Gold.Chemscore.DEClash.Weighted>
0.3350

> <Gold.Chemscore.DEInternal.Weighted>
0.9800

> <Gold.Chemscore.Rot.Weighted>
7.4472

> <Gold.Chemscore.Internal.Correction.Weighted>
   9.000000E+99

> <Gold.Protein.RotatedTorsions>
[ 6907 6896 6895 6894 ] final -120.57 input  -60.11 | X-H torsion
[ 7974 7965 7964 7962 ] final    8.63 input  175.53 | X-H torsion
[ 8008 7997 7996 7995 ] final  -77.61 input   59.86 | X-H torsion
[ 10167 10162 10161 10158 ] final  -29.58 input  -65.29 | X-H torsion
[ 10718 10713 10712 10709 ] final   56.54 input   66.30 | X-H torsion
[ 10763 10752 10751 10750 ] final -140.61 input  -60.55 | X-H torsion
[ 11005 11000 10999 10996 ] final  -20.70 input  -57.11 | X-H torsion

> <Gold.Protein.ActiveResidues>
 VAL166  LYS551  ARG553  GLY616  TRP617  ASP618  TYR619  PRO620  LYS621  CYS622 
 ASP623  PHE694  ASN695  SER759  ASP760  ASP761  ALA762  ILE779  LEU786  VAL792 
 PHE793  MET794  SER795  GLU796  ALA797  LYS798  CYS799  TRP800  GLU811  SER814 

> <Gold.Protein.RotatedAtoms>
  150.8405  133.7944  159.3062 H   0  0  0  0  0  0  0  0  0  0  0  0  # atno 6907 bound_to 6896
  151.5647  135.1063  159.9990 H   0  0  0  0  0  0  0  0  0  0  0  0  # atno 6908 bound_to 6896
  152.4469  133.7512  159.6751 H   0  0  0  0  0  0  0  0  0  0  0  0  # atno 6909 bound_to 6896
  146.2414  139.9905  142.8426 H   0  0  0  0  0  0  0  0  0  0  0  0  # atno 7974 bound_to 7965
  154.5612  140.0708  156.8821 H   0  0  0  0  0  0  0  0  0  0  0  0  # atno 8008 bound_to 7997
  155.2808  140.3371  155.4240 H   0  0  0  0  0  0  0  0  0  0  0  0  # atno 8009 bound_to 7997
  156.2043  140.1734  156.7818 H   0  0  0  0  0  0  0  0  0  0  0  0  # atno 8010 bound_to 7997
  140.7259  143.3917  151.1419 H   0  0  0  0  0  0  0  0  0  0  0  0  # atno 10167 bound_to 10162
  157.5439  130.8717  149.8862 H   0  0  0  0  0  0  0  0  0  0  0  0  # atno 10718 bound_to 10713
  154.8573  135.3548  154.5736 H   0  0  0  0  0  0  0  0  0  0  0  0  # atno 10763 bound_to 10752
  153.6348  135.7001  153.5267 H   0  0  0  0  0  0  0  0  0  0  0  0  # atno 10764 bound_to 10752
  153.3019  135.4204  155.1220 H   0  0  0  0  0  0  0  0  0  0  0  0  # atno 10765 bound_to 10752
  140.8490  133.7870  155.9945 H   0  0  0  0  0  0  0  0  0  0  0  0  # atno 11005 bound_to 11000
  145.1508  140.9622  143.4434 LP  0  0  0  0  0  0  0  0  0  0  0  0  # atno 17320 bound_to 7965
  145.0207  139.3427  143.6074 LP  0  0  0  0  0  0  0  0  0  0  0  0  # atno 17321 bound_to 7965
  139.7523  143.8760  152.3080 LP  0  0  0  0  0  0  0  0  0  0  0  0  # atno 17342 bound_to 10162
  139.8618  144.7113  150.9090 LP  0  0  0  0  0  0  0  0  0  0  0  0  # atno 17343 bound_to 10162
  156.0519  130.3716  150.1180 LP  0  0  0  0  0  0  0  0  0  0  0  0  # atno 17370 bound_to 10713
  156.9358  130.9728  151.3525 LP  0  0  0  0  0  0  0  0  0  0  0  0  # atno 17371 bound_to 10713
  140.8811  134.2610  157.5143 LP  0  0  0  0  0  0  0  0  0  0  0  0  # atno 17394 bound_to 11000
  139.8704  134.9615  156.4400 LP  0  0  0  0  0  0  0  0  0  0  0  0  # atno 17395 bound_to 11000

$$$$
