AV-unprocessed.smi:2526|AV-procd|sdf|9939|dock4
  -GOLD-   2272013583D 1   1.00000     0.00000
 Structure written by MMmdl.
 28 29  0  0  0  0  0  0  0  0  1 V2000
  152.2828  138.7627  155.4142 C   0  0  0  0  0  0  0  0  0  0  0  0
  151.2280  139.7408  155.2563 N   0  0  0  0  0  0  0  0  0  0  0  0
  150.1322  139.6974  154.4225 C   0  0  0  0  0  0  0  0  0  0  0  0
  149.4104  140.8427  154.6243 C   0  0  0  0  0  0  0  0  0  0  0  0
  148.1191  141.3000  153.9729 C   0  0  1  0  0  0  0  0  0  0  0  0
  147.7363  140.3908  152.8891 N   0  0  0  0  0  0  0  0  0  0  0  0
  146.8355  139.3923  152.9588 C   0  0  0  0  0  0  0  0  0  0  0  0
  146.6728  138.6115  152.0242 O   0  0  0  0  0  0  0  0  0  0  0  0
  145.9561  139.2573  154.2141 C   0  0  0  0  0  0  0  0  0  0  0  0
  146.4472  140.0735  155.4232 C   0  0  0  0  0  0  0  0  0  0  0  0
  146.9523  141.4522  154.9797 C   0  0  1  0  0  0  0  0  0  0  0  0
  147.3086  142.2675  156.1271 N   0  0  0  0  0  0  0  0  0  0  0  0
  150.1706  141.5305  155.6145 C   0  0  0  0  0  0  0  0  0  0  0  0
  151.2541  140.8711  155.9900 N   0  0  0  0  0  0  0  0  0  0  0  0
  152.0957  137.9035  154.7695 H   0  0  0  0  0  0  0  0  0  0  0  0
  152.3217  138.4257  156.4504 H   0  0  0  0  0  0  0  0  0  0  0  0
  153.2415  139.2065  155.1443 H   0  0  0  0  0  0  0  0  0  0  0  0
  149.9542  138.8604  153.7634 H   0  0  0  0  0  0  0  0  0  0  0  0
  148.2812  142.2723  153.5063 H   0  0  0  0  0  0  0  0  0  0  0  0
  148.2629  140.4755  152.0315 H   0  0  0  0  0  0  0  0  0  0  0  0
  144.9552  139.5922  153.9405 H   0  0  0  0  0  0  0  0  0  0  0  0
  145.8664  138.2052  154.4856 H   0  0  0  0  0  0  0  0  0  0  0  0
  145.6317  140.1829  156.1389 H   0  0  0  0  0  0  0  0  0  0  0  0
  147.2366  139.5275  155.9417 H   0  0  0  0  0  0  0  0  0  0  0  0
  146.1303  141.9641  154.4773 H   0  0  0  0  0  0  0  0  0  0  0  0
  148.1042  142.8468  155.9005 H   0  0  0  0  0  0  0  0  0  0  0  0
  146.5481  142.8937  156.3501 H   0  0  0  0  0  0  0  0  0  0  0  0
  149.9640  142.4872  156.0711 H   0  0  0  0  0  0  0  0  0  0  0  0
  1  2  1  0  0  0  0
  1 15  1  0  0  0  0
  1 16  1  0  0  0  0
  1 17  1  0  0  0  0
  2 14  1  0  0  0  0
  2  3  1  0  0  0  0
  3  4  2  0  0  0  0
  3 18  1  0  0  0  0
  4  5  1  0  0  0  0
  4 13  1  0  0  0  0
  5 11  1  0  0  0  0
  5  6  1  0  0  0  0
  5 19  1  0  0  0  0
  6  7  1  0  0  0  0
  6 20  1  0  0  0  0
  7  8  2  0  0  0  0
  7  9  1  0  0  0  0
  9 10  1  0  0  0  0
  9 21  1  0  0  0  0
  9 22  1  0  0  0  0
 10 11  1  0  0  0  0
 10 23  1  0  0  0  0
 10 24  1  0  0  0  0
 11 12  1  0  0  0  0
 11 25  1  0  0  0  0
 12 26  1  0  0  0  0
 12 27  1  0  0  0  0
 13 14  2  0  0  0  0
 13 28  1  0  0  0  0
M  END
> <s_m_source_file>
AV-unprocessed.smi

> <i_m_source_file_index>
2526

> <i_lp_mmshare_version>
43012

> <i_f3d_flags>
0

> <s_epik_input>
W0NIM11uMVtjSF1jKFtjSF1uMSlbQ0BASF0yW05IXUMoPU8pW0NIMl1bQ0gyXVtDQEhdMltOSDJd

> <s_epik_cmdline>
J2VwaWtfcHl0aG9uJywgJy1waCcsICc3LjAnLCAnLXRuJywgJzgnLCAnLW1hJywgJzIwMCcsICctbWV0YWxfYmluZGluZycsICctaW1hZScsICc8aW5maWxlLm1hZT4nLCAnLW9tYWUnLCAnPG91dGZpbGUubWFlPic=

> <r_lp_tautomer_probability>
1

> <r_epik_Ionization_Penalty>
2.50279

> <r_epik_Ionization_Penalty_Charging>
0

> <r_epik_Ionization_Penalty_Neutral>
2.50279

> <r_epik_State_Penalty>
2.66754

> <r_epik_Charging_Adjusted_Penalty>
2.66754

> <i_epik_Tot_Q>
0

> <i_epik_Tot_abs_Q>
0

> <r_epik_Metal_State_Penalty>
2.66721

> <b_epik_Metal_Only>
0

> <s_lp_Force_Field>
OPLS_2005

> <r_lp_Energy>
9.07018

> <b_lp_Chiralities_Consistent>
1

> <s_lp_Variant>
AV-unprocessed.smi:2526-6

> <Gold.Version>
5.8.1

> <Gold.Id.Protein>
6NUR|6NUR_protein|mol2

> <Gold.PLP.Fitness>
33.7586

> <Gold.PLP.PLP>
-24.7282

> <Gold.PLP.part.hbond>
-2.1586

> <Gold.PLP.part.metal>
0.0000

> <Gold.PLP.part.buried>
-1.2161

> <Gold.PLP.part.nonpolar>
-22.3256

> <Gold.PLP.part.repulsive>
0.4658

> <Gold.PLP.ligand.clash>
0.0178

> <Gold.PLP.ligand.torsion>
0.0526

> <Gold.PLP.Chemscore.Hbond>
1.9920

> <Gold.PLP.Chemscore.CHOScore>
1.0532

> <Gold.PLP.Chemscore.Metal>
0.0000

> <Gold.Chemscore.Hbonds>
donor molecule, donor type, donor heavy atom, donor atom, acceptor molecule, acceptor atom, score
      L1  H     6    20       P1  7957  0.99
      L1  H    12    26       P1  8028  0.94
      L1  C     3    18       P1  7957  0.08
      L1  C    13    28       P1  8028  1.00

> <Gold.PLP.Chemscore.Internal.Correction>
0.0179

> <Gold.Rescore>
     Score         DG    S(hbond)    S(metal)    S(lipo)     H(rot)  DE(clash)    DE(int)     intcor
     13.19     -14.31       1.77        0.00      46.73       1.00       0.03       1.09       ----

> <Gold.Chemscore.Fitness>
13.1874

> <Gold.Chemscore.DG>
-14.3065

> <Gold.Chemscore.ZeroCoef>
-5.4800

> <Gold.Chemscore.Hbond>
1.7722

> <Gold.Chemscore.Metal>
0.0000

> <Gold.Chemscore.Lipo>
46.7301

> <Gold.Chemscore.Internal_Hbond>
0.0000

> <Gold.Chemscore.DEClash>
0.0328

> <Gold.Chemscore.DEInternal>
1.0863

> <Gold.Chemscore.Rot>
1.0000

> <Gold.Chemscore.Internal.Correction>
   9.000000E+99

> <Gold.Chemscore.Hbonds>
donor molecule, donor type, donor heavy atom, donor atom, acceptor molecule, acceptor atom, score
      L1  H     6    20       P1  7957  0.93
      L1  H    12    26       P1  8028  0.70

> <Gold.Chemscore.Hbond.Weighted>
-5.9191

> <Gold.Chemscore.Metal.Weighted>
-0.0000

> <Gold.Chemscore.Lipo.Weighted>
-5.4674

> <Gold.Chemscore.Internal_Hbond.Weighted>
0.0000

> <Gold.Chemscore.DEClash.Weighted>
0.0328

> <Gold.Chemscore.DEInternal.Weighted>
1.0863

> <Gold.Chemscore.Rot.Weighted>
2.5600

> <Gold.Chemscore.Internal.Correction.Weighted>
   9.000000E+99

> <Gold.Protein.RotatedTorsions>
[ 6907 6896 6895 6894 ] final  142.60 input  -60.11 | X-H torsion
[ 7974 7965 7964 7962 ] final   54.99 input  175.53 | X-H torsion
[ 8008 7997 7996 7995 ] final  157.55 input   59.86 | X-H torsion
[ 10167 10162 10161 10158 ] final  -32.84 input  -65.29 | X-H torsion
[ 10718 10713 10712 10709 ] final  -25.52 input   66.30 | X-H torsion
[ 10763 10752 10751 10750 ] final  -56.40 input  -60.55 | X-H torsion
[ 11005 11000 10999 10996 ] final   39.22 input  -57.11 | X-H torsion

> <Gold.Protein.ActiveResidues>
 VAL166  LYS551  ARG553  GLY616  TRP617  ASP618  TYR619  PRO620  LYS621  CYS622 
 ASP623  PHE694  ASN695  SER759  ASP760  ASP761  ALA762  ILE779  LEU786  VAL792 
 PHE793  MET794  SER795  GLU796  ALA797  LYS798  CYS799  TRP800  GLU811  SER814 

> <Gold.Protein.RotatedAtoms>
  152.2167  133.4952  159.5139 H   0  0  0  0  0  0  0  0  0  0  0  0  # atno 6907 bound_to 6896
  150.7003  134.1396  159.4109 H   0  0  0  0  0  0  0  0  0  0  0  0  # atno 6908 bound_to 6896
  151.9316  135.0253  160.0580 H   0  0  0  0  0  0  0  0  0  0  0  0  # atno 6909 bound_to 6896
  145.9551  139.4007  143.0282 H   0  0  0  0  0  0  0  0  0  0  0  0  # atno 7974 bound_to 7965
  156.2357  140.1882  156.7125 H   0  0  0  0  0  0  0  0  0  0  0  0  # atno 8008 bound_to 7997
  154.6102  140.0623  156.9511 H   0  0  0  0  0  0  0  0  0  0  0  0  # atno 8009 bound_to 7997
  155.2028  140.3293  155.4343 H   0  0  0  0  0  0  0  0  0  0  0  0  # atno 8010 bound_to 7997
  140.7214  143.3665  151.1861 H   0  0  0  0  0  0  0  0  0  0  0  0  # atno 10167 bound_to 10162
  156.4632  130.4508  149.6915 H   0  0  0  0  0  0  0  0  0  0  0  0  # atno 10718 bound_to 10713
  154.2060  135.6403  153.5101 H   0  0  0  0  0  0  0  0  0  0  0  0  # atno 10763 bound_to 10752
  153.0001  135.5462  154.6265 H   0  0  0  0  0  0  0  0  0  0  0  0  # atno 10764 bound_to 10752
  154.5690  135.2915  155.0819 H   0  0  0  0  0  0  0  0  0  0  0  0  # atno 10765 bound_to 10752
  140.2049  134.3825  155.8077 H   0  0  0  0  0  0  0  0  0  0  0  0  # atno 11005 bound_to 11000
  145.8117  140.9722  143.0945 LP  0  0  0  0  0  0  0  0  0  0  0  0  # atno 17320 bound_to 7965
  144.6803  139.9930  143.7484 LP  0  0  0  0  0  0  0  0  0  0  0  0  # atno 17321 bound_to 7965
  139.7227  143.9197  152.2991 LP  0  0  0  0  0  0  0  0  0  0  0  0  # atno 17342 bound_to 10162
  139.8960  144.6939  150.8718 LP  0  0  0  0  0  0  0  0  0  0  0  0  # atno 17343 bound_to 10162
  156.3694  130.7523  151.2504 LP  0  0  0  0  0  0  0  0  0  0  0  0  # atno 17370 bound_to 10713
  157.7496  131.0327  150.4239 LP  0  0  0  0  0  0  0  0  0  0  0  0  # atno 17371 bound_to 10713
  141.2227  133.7113  156.8320 LP  0  0  0  0  0  0  0  0  0  0  0  0  # atno 17394 bound_to 11000
  140.2014  134.8894  157.3173 LP  0  0  0  0  0  0  0  0  0  0  0  0  # atno 17395 bound_to 11000

$$$$
