AV-unprocessed.smi:1701|AV-procd|sdf|6839|dock1
  -GOLD-   22720 8 13D 1   1.00000     0.00000
 Structure written by MMmdl.
 54 56  0  0  0  0  0  0  0  0  4 V2000
  151.5283  144.9347  159.4703 C   0  0  0  0  0  0  0  0  0  0  0  0
  152.5786  144.0301  158.8125 C   0  0  0  0  0  0  0  0  0  0  0  0
  152.6653  142.7226  159.4612 N   0  0  0  0  0  0  0  0  0  0  0  0
  153.3034  142.6229  160.7713 C   0  0  0  0  0  0  0  0  0  0  0  0
  152.4871  143.3203  161.8668 C   0  0  0  0  0  0  0  0  0  0  0  0
  152.2108  141.5606  158.7955 C   0  0  0  0  0  0  0  0  0  0  0  0
  151.6073  141.5827  157.5145 C   0  0  0  0  0  0  0  0  0  0  0  0
  151.1749  140.3796  156.9212 C   0  0  0  0  0  0  0  0  0  0  0  0
  151.3403  139.1559  157.6019 C   0  0  0  0  0  0  0  0  0  0  0  0
  150.8680  137.9853  156.9440 N   0  0  0  0  0  0  0  0  0  0  0  0
  150.5997  136.7433  157.4202 C   0  0  0  0  0  0  0  0  0  0  0  0
  150.8192  136.4869  158.6013 O   0  0  0  0  0  0  0  0  0  0  0  0
  150.0905  135.7930  156.5780 N   0  5  0  0  0  0  0  0  0  0  0  0
  149.4734  135.9595  155.2541 C   0  0  2  0  0  0  0  0  0  0  0  0
  148.1704  136.7793  155.3253 C   0  0  0  0  0  0  0  0  0  0  0  0
  147.2314  136.1549  154.2756 C   0  0  0  0  0  0  0  0  0  0  0  0
  147.9824  135.0256  153.6934 N   0  3  2  0  0  0  0  0  0  0  0  0
  147.1963  133.8871  153.1691 C   0  0  0  0  0  0  0  0  0  0  0  0
  148.1509  132.8728  152.5064 C   0  0  0  0  0  0  0  0  0  0  0  0
  149.2916  132.4514  153.4560 C   0  0  0  0  0  0  0  0  0  0  0  0
  150.0184  133.6813  154.0358 C   0  0  0  0  0  0  0  0  0  0  0  0
  148.9844  134.6194  154.6920 C   0  0  1  0  0  0  0  0  0  0  0  0
  151.9534  139.1843  158.8776 C   0  0  0  0  0  0  0  0  0  0  0  0
  152.3549  140.3599  159.4076 N   0  3  0  0  0  0  0  0  0  0  0  0
  151.4729  145.8961  158.9593 H   0  0  0  0  0  0  0  0  0  0  0  0
  151.7691  145.1289  160.5158 H   0  0  0  0  0  0  0  0  0  0  0  0
  150.5368  144.4830  159.4334 H   0  0  0  0  0  0  0  0  0  0  0  0
  152.3148  143.8794  157.7652 H   0  0  0  0  0  0  0  0  0  0  0  0
  153.5514  144.5223  158.8008 H   0  0  0  0  0  0  0  0  0  0  0  0
  153.4937  141.5824  161.0336 H   0  0  0  0  0  0  0  0  0  0  0  0
  154.2871  143.0896  160.7136 H   0  0  0  0  0  0  0  0  0  0  0  0
  152.9889  143.2397  162.8312 H   0  0  0  0  0  0  0  0  0  0  0  0
  151.4963  142.8769  161.9703 H   0  0  0  0  0  0  0  0  0  0  0  0
  152.3579  144.3808  161.6491 H   0  0  0  0  0  0  0  0  0  0  0  0
  151.4735  142.5034  156.9676 H   0  0  0  0  0  0  0  0  0  0  0  0
  150.7156  140.4005  155.9436 H   0  0  0  0  0  0  0  0  0  0  0  0
  150.6794  138.1033  155.9597 H   0  0  0  0  0  0  0  0  0  0  0  0
  150.1459  136.4215  154.5288 H   0  0  0  0  0  0  0  0  0  0  0  0
  147.7073  136.7054  156.3111 H   0  0  0  0  0  0  0  0  0  0  0  0
  148.3544  137.8366  155.1320 H   0  0  0  0  0  0  0  0  0  0  0  0
  146.3159  135.8007  154.7529 H   0  0  0  0  0  0  0  0  0  0  0  0
  146.9516  136.8646  153.4962 H   0  0  0  0  0  0  0  0  0  0  0  0
  146.6399  133.4158  153.9807 H   0  0  0  0  0  0  0  0  0  0  0  0
  146.4670  134.2485  152.4432 H   0  0  0  0  0  0  0  0  0  0  0  0
  147.5938  131.9944  152.1792 H   0  0  0  0  0  0  0  0  0  0  0  0
  148.5800  133.3174  151.6076 H   0  0  0  0  0  0  0  0  0  0  0  0
  148.8815  131.8544  154.2715 H   0  0  0  0  0  0  0  0  0  0  0  0
  150.0002  131.8104  152.9307 H   0  0  0  0  0  0  0  0  0  0  0  0
  150.7651  133.3569  154.7629 H   0  0  0  0  0  0  0  0  0  0  0  0
  150.5595  134.1919  153.2366 H   0  0  0  0  0  0  0  0  0  0  0  0
  148.4664  134.0746  155.4856 H   0  0  0  0  0  0  0  0  0  0  0  0
  152.1428  138.3295  159.5073 H   0  0  0  0  0  0  0  0  0  0  0  0
  148.5077  135.4086  152.9207 H   0  0  0  0  0  0  0  0  0  0  0  0
  152.7902  140.3407  160.3298 H   0  0  0  0  0  0  0  0  0  0  0  0
  1  2  1  0  0  0  0
  1 25  1  0  0  0  0
  1 26  1  0  0  0  0
  1 27  1  0  0  0  0
  2  3  1  0  0  0  0
  2 28  1  0  0  0  0
  2 29  1  0  0  0  0
  3  4  1  0  0  0  0
  3  6  1  0  0  0  0
  4  5  1  0  0  0  0
  4 30  1  0  0  0  0
  4 31  1  0  0  0  0
  5 32  1  0  0  0  0
  5 33  1  0  0  0  0
  5 34  1  0  0  0  0
  6 24  1  0  0  0  0
  6  7  2  0  0  0  0
  7  8  1  0  0  0  0
  7 35  1  0  0  0  0
  8  9  2  0  0  0  0
  8 36  1  0  0  0  0
  9 10  1  0  0  0  0
  9 23  1  0  0  0  0
 10 11  1  0  0  0  0
 10 37  1  0  0  0  0
 11 12  2  0  0  0  0
 11 13  1  0  0  0  0
 13 14  1  0  0  0  0
 14 22  1  0  0  0  0
 14 15  1  0  0  0  0
 14 38  1  0  0  0  0
 15 16  1  0  0  0  0
 15 39  1  0  0  0  0
 15 40  1  0  0  0  0
 16 17  1  0  0  0  0
 16 41  1  0  0  0  0
 16 42  1  0  0  0  0
 17 22  1  0  0  0  0
 17 18  1  0  0  0  0
 17 53  1  0  0  0  0
 18 19  1  0  0  0  0
 18 43  1  0  0  0  0
 18 44  1  0  0  0  0
 19 20  1  0  0  0  0
 19 45  1  0  0  0  0
 19 46  1  0  0  0  0
 20 21  1  0  0  0  0
 20 47  1  0  0  0  0
 20 48  1  0  0  0  0
 21 22  1  0  0  0  0
 21 49  1  0  0  0  0
 21 50  1  0  0  0  0
 22 51  1  0  0  0  0
 23 24  2  0  0  0  0
 23 52  1  0  0  0  0
 24 54  1  0  0  0  0
M  CHG  1  13  -1
M  CHG  1  17   1
M  CHG  1  24   1
M  END
> <s_m_source_file>
AV-unprocessed.smi

> <i_m_source_file_index>
1701

> <i_lp_mmshare_version>
43012

> <i_f3d_flags>
0

> <s_epik_input>
W0NIM11bQ0gyXU4oW0NIMl1bQ0gzXSljMVtjSF1bY0hdYyhbY0hdbjEpW05IXUMoPU8pW05IXVtDQEhdKFtDSDJdW0NIMl0yKVtDQEBIXShOMjMpW0NIMl1bQ0gyXVtDSDJdW0NIMl0z

> <s_epik_cmdline>
J2VwaWtfcHl0aG9uJywgJy1waCcsICc3LjAnLCAnLXRuJywgJzgnLCAnLW1hJywgJzIwMCcsICctbWV0YWxfYmluZGluZycsICctaW1hZScsICc8aW5maWxlLm1hZT4nLCAnLW9tYWUnLCAnPG91dGZpbGUubWFlPic=

> <r_lp_tautomer_probability>
0.999994

> <r_epik_Ionization_Penalty>
7.37095

> <r_epik_Ionization_Penalty_Charging>
7.37095

> <r_epik_Ionization_Penalty_Neutral>
3.78969e-06

> <r_epik_State_Penalty>
6.83842

> <r_epik_Charging_Adjusted_Penalty>
14.2094

> <i_epik_Tot_Q>
1

> <i_epik_Tot_abs_Q>
3

> <r_epik_Metal_State_Penalty>
2.78552

> <b_epik_Metal_Only>
1

> <s_lp_Force_Field>
OPLS_2005

> <r_lp_Energy>
47.8926

> <b_lp_Chiralities_Consistent>
1

> <s_lp_Variant>
AV-unprocessed.smi:1701-19

> <Gold.Version>
5.8.1

> <Gold.Id.Protein>
6NUR|6NUR_protein|mol2

> <Gold.PLP.Fitness>
53.6997

> <Gold.PLP.PLP>
-45.0477

> <Gold.PLP.part.hbond>
-2.0000

> <Gold.PLP.part.metal>
0.0000

> <Gold.PLP.part.buried>
-5.2518

> <Gold.PLP.part.nonpolar>
-37.4515

> <Gold.PLP.part.repulsive>
0.1488

> <Gold.PLP.ligand.clash>
0.0000

> <Gold.PLP.ligand.torsion>
0.2951

> <Gold.PLP.Chemscore.Hbond>
2.9920

> <Gold.PLP.Chemscore.CHOScore>
0.0000

> <Gold.PLP.Chemscore.Metal>
0.0000

> <Gold.Chemscore.Hbonds>
donor molecule, donor type, donor heavy atom, donor atom, acceptor molecule, acceptor atom, score
      L1  H    17    53       P1  7948  1.30
      P1  H  6896  6908       L1    12  0.90

> <Gold.PLP.Chemscore.Internal.Correction>
0.2661

> <Gold.Rescore>
     Score         DG    S(hbond)    S(metal)    S(lipo)     H(rot)  DE(clash)    DE(int)     intcor
     18.96     -20.57       1.95        0.00     101.43       1.28       0.00       1.60       ----

> <Gold.Chemscore.Fitness>
18.9593

> <Gold.Chemscore.DG>
-20.5686

> <Gold.Chemscore.ZeroCoef>
-5.4800

> <Gold.Chemscore.Hbond>
1.9484

> <Gold.Chemscore.Metal>
0.0000

> <Gold.Chemscore.Lipo>
101.4328

> <Gold.Chemscore.Internal_Hbond>
0.0000

> <Gold.Chemscore.DEClash>
0.0048

> <Gold.Chemscore.DEInternal>
1.6045

> <Gold.Chemscore.Rot>
1.2838

> <Gold.Chemscore.Internal.Correction>
   9.000000E+99

> <Gold.Chemscore.Hbonds>
donor molecule, donor type, donor heavy atom, donor atom, acceptor molecule, acceptor atom, score
      L1  H    17    53       P1  7948  0.61
      P1  H  6896  6908       L1    12  0.86

> <Gold.Chemscore.Hbond.Weighted>
-6.5075

> <Gold.Chemscore.Metal.Weighted>
-0.0000

> <Gold.Chemscore.Lipo.Weighted>
-11.8676

> <Gold.Chemscore.Internal_Hbond.Weighted>
0.0000

> <Gold.Chemscore.DEClash.Weighted>
0.0048

> <Gold.Chemscore.DEInternal.Weighted>
1.6045

> <Gold.Chemscore.Rot.Weighted>
3.2865

> <Gold.Chemscore.Internal.Correction.Weighted>
   9.000000E+99

> <Gold.Protein.RotatedTorsions>
[ 6907 6896 6895 6894 ] final -154.74 input  -60.11 | X-H torsion
[ 7974 7965 7964 7962 ] final  115.06 input  175.53 | X-H torsion
[ 8008 7997 7996 7995 ] final   81.72 input   59.86 | X-H torsion
[ 10167 10162 10161 10158 ] final -158.27 input  -65.29 | X-H torsion
[ 10718 10713 10712 10709 ] final  -86.99 input   66.30 | X-H torsion
[ 10763 10752 10751 10750 ] final  -22.08 input  -60.55 | X-H torsion
[ 11005 11000 10999 10996 ] final  -50.32 input  -57.11 | X-H torsion

> <Gold.Protein.ActiveResidues>
 VAL166  LYS551  ARG553  GLY616  TRP617  ASP618  TYR619  PRO620  LYS621  CYS622 
 ASP623  PHE694  ASN695  SER759  ASP760  ASP761  ALA762  ILE779  LEU786  VAL792 
 PHE793  MET794  SER795  GLU796  ALA797  LYS798  CYS799  TRP800  GLU811  SER814 

> <Gold.Protein.RotatedAtoms>
  151.2621  133.4297  159.2616 H   0  0  0  0  0  0  0  0  0  0  0  0  # atno 6907 bound_to 6896
  151.0521  134.9680  159.8227 H   0  0  0  0  0  0  0  0  0  0  0  0  # atno 6908 bound_to 6896
  152.5384  134.2575  159.8975 H   0  0  0  0  0  0  0  0  0  0  0  0  # atno 6909 bound_to 6896
  145.1967  139.2973  143.4340 H   0  0  0  0  0  0  0  0  0  0  0  0  # atno 7974 bound_to 7965
  155.9009  140.3433  155.6025 H   0  0  0  0  0  0  0  0  0  0  0  0  # atno 8008 bound_to 7997
  155.7501  140.0819  157.2224 H   0  0  0  0  0  0  0  0  0  0  0  0  # atno 8009 bound_to 7997
  154.4043  140.1555  156.2702 H   0  0  0  0  0  0  0  0  0  0  0  0  # atno 8010 bound_to 7997
  139.6705  143.9753  152.2281 H   0  0  0  0  0  0  0  0  0  0  0  0  # atno 10167 bound_to 10162
  155.9987  130.4784  150.4798 H   0  0  0  0  0  0  0  0  0  0  0  0  # atno 10718 bound_to 10713
  153.6463  135.6983  153.5224 H   0  0  0  0  0  0  0  0  0  0  0  0  # atno 10763 bound_to 10752
  153.2742  135.4205  155.1016 H   0  0  0  0  0  0  0  0  0  0  0  0  # atno 10764 bound_to 10752
  154.8487  135.3586  154.6008 H   0  0  0  0  0  0  0  0  0  0  0  0  # atno 10765 bound_to 10752
  141.0809  133.6654  156.3713 H   0  0  0  0  0  0  0  0  0  0  0  0  # atno 11005 bound_to 11000
  146.3426  140.2197  142.8591 LP  0  0  0  0  0  0  0  0  0  0  0  0  # atno 17320 bound_to 7965
  144.9988  140.8613  143.5294 LP  0  0  0  0  0  0  0  0  0  0  0  0  # atno 17321 bound_to 7965
  139.9516  144.6616  150.8166 LP  0  0  0  0  0  0  0  0  0  0  0  0  # atno 17342 bound_to 10162
  140.7616  143.3179  151.2691 LP  0  0  0  0  0  0  0  0  0  0  0  0  # atno 17343 bound_to 10162
  157.2805  131.0606  151.2201 LP  0  0  0  0  0  0  0  0  0  0  0  0  # atno 17370 bound_to 10713
  157.3249  130.6956  149.6290 LP  0  0  0  0  0  0  0  0  0  0  0  0  # atno 17371 bound_to 10713
  140.5470  134.6064  157.5397 LP  0  0  0  0  0  0  0  0  0  0  0  0  # atno 17394 bound_to 11000
  139.9623  134.7432  156.0211 LP  0  0  0  0  0  0  0  0  0  0  0  0  # atno 17395 bound_to 11000

$$$$
