AV-unprocessed.smi:1888|AV-procd|sdf|7658|dock1
  -GOLD-   22720 9393D 1   1.00000     0.00000
 Structure written by MMmdl.
 43 45  0  0  0  0  0  0  0  0  2 V2000
  152.0241  139.5975  155.5936 C   0  0  0  0  0  0  0  0  0  0  0  0
  151.8940  138.3912  154.6609 C   0  0  0  0  0  0  0  0  0  0  0  0
  150.5781  137.8740  154.7596 O   0  0  0  0  0  0  0  0  0  0  0  0
  150.3296  137.2488  156.0071 C   0  0  0  0  0  0  0  0  0  0  0  0
  148.8729  136.7688  156.0376 C   0  0  0  0  0  0  0  0  0  0  0  0
  148.6511  135.7726  157.0804 N   0  0  0  0  0  0  0  0  0  0  0  0
  148.6504  134.4215  156.9488 C   0  0  0  0  0  0  0  0  0  0  0  0
  148.8756  133.8039  155.7003 N   0  0  0  0  0  0  0  0  0  0  0  0
  147.9771  133.9427  154.7013 N   0  0  0  0  0  0  0  0  0  0  0  0
  148.4814  133.2527  153.6920 C   0  0  0  0  0  0  0  0  0  0  0  0
  147.7363  133.1984  152.3913 C   0  0  0  0  0  0  0  0  0  0  0  0
  149.7209  132.6383  154.0255 C   0  0  0  0  0  0  0  0  0  0  0  0
  149.9425  133.0100  155.3218 C   0  0  0  0  0  0  0  0  0  0  0  0
  151.0774  132.6905  156.2386 C   0  0  0  0  0  0  0  0  0  0  0  0
  148.4449  133.7446  158.0804 N   0  0  0  0  0  0  0  0  0  0  0  0
  148.2866  134.7586  159.0151 C   0  0  0  0  0  0  0  0  0  0  0  0
  148.4032  135.9855  158.4385 C   0  0  0  0  0  0  0  0  0  0  0  0
  148.2818  137.2602  159.1776 C   0  0  0  0  0  0  0  0  0  0  0  0
  148.3919  138.3401  158.6008 O   0  0  0  0  0  0  0  0  0  0  0  0
  148.0419  137.0613  160.5125 N   0  5  0  0  0  0  0  0  0  0  0  0
  147.9187  135.8401  161.1405 C   0  0  0  0  0  0  0  0  0  0  0  0
  147.7019  135.7501  162.3497 O   0  0  0  0  0  0  0  0  0  0  0  0
  148.0383  134.6846  160.4131 N   0  0  0  0  0  0  0  0  0  0  0  0
  147.9146  133.3728  161.0551 C   0  0  0  0  0  0  0  0  0  0  0  0
  153.0282  140.0192  155.5470 H   0  0  0  0  0  0  0  0  0  0  0  0
  151.8267  139.3153  156.6280 H   0  0  0  0  0  0  0  0  0  0  0  0
  151.3183  140.3815  155.3186 H   0  0  0  0  0  0  0  0  0  0  0  0
  152.1054  138.6912  153.6332 H   0  0  0  0  0  0  0  0  0  0  0  0
  152.6204  137.6260  154.9386 H   0  0  0  0  0  0  0  0  0  0  0  0
  151.0103  136.4079  156.1465 H   0  0  0  0  0  0  0  0  0  0  0  0
  150.5115  137.9545  156.8187 H   0  0  0  0  0  0  0  0  0  0  0  0
  148.2052  137.6151  156.1993 H   0  0  0  0  0  0  0  0  0  0  0  0
  148.5832  136.3492  155.0747 H   0  0  0  0  0  0  0  0  0  0  0  0
  148.3080  132.6655  151.6316 H   0  0  0  0  0  0  0  0  0  0  0  0
  147.5345  134.2005  152.0117 H   0  0  0  0  0  0  0  0  0  0  0  0
  146.7809  132.6866  152.5081 H   0  0  0  0  0  0  0  0  0  0  0  0
  150.3524  132.0193  153.4057 H   0  0  0  0  0  0  0  0  0  0  0  0
  151.8724  132.1669  155.7076 H   0  0  0  0  0  0  0  0  0  0  0  0
  150.7445  132.0545  157.0589 H   0  0  0  0  0  0  0  0  0  0  0  0
  151.5009  133.6001  156.6652 H   0  0  0  0  0  0  0  0  0  0  0  0
  146.9327  133.2659  161.5172 H   0  0  0  0  0  0  0  0  0  0  0  0
  148.6722  133.2545  161.8307 H   0  0  0  0  0  0  0  0  0  0  0  0
  148.0348  132.5474  160.3540 H   0  0  0  0  0  0  0  0  0  0  0  0
  1  2  1  0  0  0  0
  1 25  1  0  0  0  0
  1 26  1  0  0  0  0
  1 27  1  0  0  0  0
  2  3  1  0  0  0  0
  2 28  1  0  0  0  0
  2 29  1  0  0  0  0
  3  4  1  0  0  0  0
  4  5  1  0  0  0  0
  4 30  1  0  0  0  0
  4 31  1  0  0  0  0
  5  6  1  0  0  0  0
  5 32  1  0  0  0  0
  5 33  1  0  0  0  0
  6 17  1  0  0  0  0
  6  7  1  0  0  0  0
  7  8  1  0  0  0  0
  7 15  2  0  0  0  0
  8 13  1  0  0  0  0
  8  9  1  0  0  0  0
  9 10  2  0  0  0  0
 10 11  1  0  0  0  0
 10 12  1  0  0  0  0
 11 34  1  0  0  0  0
 11 35  1  0  0  0  0
 11 36  1  0  0  0  0
 12 13  2  0  0  0  0
 12 37  1  0  0  0  0
 13 14  1  0  0  0  0
 14 38  1  0  0  0  0
 14 39  1  0  0  0  0
 14 40  1  0  0  0  0
 15 16  1  0  0  0  0
 16 23  1  0  0  0  0
 16 17  2  0  0  0  0
 17 18  1  0  0  0  0
 18 19  2  0  0  0  0
 18 20  1  0  0  0  0
 20 21  1  0  0  0  0
 21 22  2  0  0  0  0
 21 23  1  0  0  0  0
 23 24  1  0  0  0  0
 24 41  1  0  0  0  0
 24 42  1  0  0  0  0
 24 43  1  0  0  0  0
M  CHG  1  20  -1
M  END
> <s_m_source_file>
AV-unprocessed.smi

> <i_m_source_file_index>
1888

> <i_lp_mmshare_version>
43012

> <i_f3d_flags>
0

> <s_epik_input>
W0NIM11uMWMoPU8pW25IXWMoPU8pYyhjMTIpbihbQ0gyXVtDSDJdT1tDSDJdW0NIM10pYyhuMiktbjNuYyhbQ0gzXSlbY0hdYzNbQ0gzXQ==

> <s_epik_cmdline>
J2VwaWtfcHl0aG9uJywgJy1waCcsICc3LjAnLCAnLXRuJywgJzgnLCAnLW1hJywgJzIwMCcsICctbWV0YWxfYmluZGluZycsICctaW1hZScsICc8aW5maWxlLm1hZT4nLCAnLW9tYWUnLCAnPG91dGZpbGUubWFlPic=

> <r_lp_tautomer_probability>
1

> <r_epik_Ionization_Penalty>
3.99912

> <r_epik_Ionization_Penalty_Charging>
0.0169474

> <r_epik_Ionization_Penalty_Neutral>
3.98217

> <r_epik_State_Penalty>
3.98062

> <r_epik_Charging_Adjusted_Penalty>
3.99756

> <i_epik_Tot_Q>
-1

> <i_epik_Tot_abs_Q>
1

> <r_epik_Metal_State_Penalty>
0.61592

> <b_epik_Metal_Only>
1

> <s_lp_Force_Field>
OPLS_2005

> <r_lp_Energy>
30.4579

> <b_lp_Chiralities_Consistent>
1

> <s_lp_Variant>
AV-unprocessed.smi:1888-2

> <Gold.Version>
5.8.1

> <Gold.Id.Protein>
6NUR|6NUR_protein|mol2

> <Gold.PLP.Fitness>
40.1199

> <Gold.PLP.PLP>
-33.7571

> <Gold.PLP.part.hbond>
-3.0000

> <Gold.PLP.part.metal>
0.0000

> <Gold.PLP.part.buried>
-4.9365

> <Gold.PLP.part.nonpolar>
-26.1745

> <Gold.PLP.part.repulsive>
0.2312

> <Gold.PLP.ligand.clash>
0.0000

> <Gold.PLP.ligand.torsion>
1.6768

> <Gold.PLP.Chemscore.Hbond>
3.0080

> <Gold.PLP.Chemscore.CHOScore>
0.0000

> <Gold.PLP.Chemscore.Metal>
0.0000

> <Gold.Chemscore.Hbonds>
donor molecule, donor type, donor heavy atom, donor atom, acceptor molecule, acceptor atom, score
      P1  H  6931  6943       L1    20  1.43
      P1  H  6934  6947       L1    20  0.83

> <Gold.PLP.Chemscore.Internal.Correction>
0.6924

> <Gold.Rescore>
     Score         DG    S(hbond)    S(metal)    S(lipo)     H(rot)  DE(clash)    DE(int)     intcor
      8.32     -10.17       0.72        0.00      56.05       1.67       0.14       1.70       ----

> <Gold.Chemscore.Fitness>
8.3232

> <Gold.Chemscore.DG>
-10.1723

> <Gold.Chemscore.ZeroCoef>
-5.4800

> <Gold.Chemscore.Hbond>
0.7194

> <Gold.Chemscore.Metal>
0.0000

> <Gold.Chemscore.Lipo>
56.0545

> <Gold.Chemscore.Internal_Hbond>
0.0000

> <Gold.Chemscore.DEClash>
0.1442

> <Gold.Chemscore.DEInternal>
1.7048

> <Gold.Chemscore.Rot>
1.6675

> <Gold.Chemscore.Internal.Correction>
   9.000000E+99

> <Gold.Chemscore.Hbonds>
donor molecule, donor type, donor heavy atom, donor atom, acceptor molecule, acceptor atom, score
      P1  H  6931  6943       L1    20  0.33
      P1  H  6934  6947       L1    20  0.07

> <Gold.Chemscore.Hbond.Weighted>
-2.4028

> <Gold.Chemscore.Metal.Weighted>
-0.0000

> <Gold.Chemscore.Lipo.Weighted>
-6.5584

> <Gold.Chemscore.Internal_Hbond.Weighted>
0.0000

> <Gold.Chemscore.DEClash.Weighted>
0.1442

> <Gold.Chemscore.DEInternal.Weighted>
1.7048

> <Gold.Chemscore.Rot.Weighted>
4.2689

> <Gold.Chemscore.Internal.Correction.Weighted>
   9.000000E+99

> <Gold.Protein.RotatedTorsions>
[ 6907 6896 6895 6894 ] final   -7.12 input  -60.11 | X-H torsion
[ 7974 7965 7964 7962 ] final -115.47 input  175.53 | X-H torsion
[ 8008 7997 7996 7995 ] final  155.32 input   59.86 | X-H torsion
[ 10167 10162 10161 10158 ] final  -51.69 input  -65.29 | X-H torsion
[ 10718 10713 10712 10709 ] final -112.43 input   66.30 | X-H torsion
[ 10763 10752 10751 10750 ] final    6.52 input  -60.55 | X-H torsion
[ 11005 11000 10999 10996 ] final   62.99 input  -57.11 | X-H torsion

> <Gold.Protein.ActiveResidues>
 VAL166  LYS551  ARG553  GLY616  TRP617  ASP618  TYR619  PRO620  LYS621  CYS622 
 ASP623  PHE694  ASN695  SER759  ASP760  ASP761  ALA762  ILE779  LEU786  VAL792 
 PHE793  MET794  SER795  GLU796  ALA797  LYS798  CYS799  TRP800  GLU811  SER814 

> <Gold.Protein.RotatedAtoms>
  151.4546  135.1033  159.9707 H   0  0  0  0  0  0  0  0  0  0  0  0  # atno 6907 bound_to 6896
  152.4875  133.8408  159.7162 H   0  0  0  0  0  0  0  0  0  0  0  0  # atno 6908 bound_to 6896
  150.8998  133.7073  159.2909 H   0  0  0  0  0  0  0  0  0  0  0  0  # atno 6909 bound_to 6896
  145.1081  140.8594  143.3886 H   0  0  0  0  0  0  0  0  0  0  0  0  # atno 7974 bound_to 7965
  156.2484  140.1942  156.6783 H   0  0  0  0  0  0  0  0  0  0  0  0  # atno 8008 bound_to 7997
  154.6341  140.0592  156.9793 H   0  0  0  0  0  0  0  0  0  0  0  0  # atno 8009 bound_to 7997
  155.1665  140.3264  155.4403 H   0  0  0  0  0  0  0  0  0  0  0  0  # atno 8010 bound_to 7997
  140.6575  143.2610  151.4540 H   0  0  0  0  0  0  0  0  0  0  0  0  # atno 10167 bound_to 10162
  156.0705  130.5920  150.8508 H   0  0  0  0  0  0  0  0  0  0  0  0  # atno 10718 bound_to 10713
  153.2467  135.6909  153.7723 H   0  0  0  0  0  0  0  0  0  0  0  0  # atno 10763 bound_to 10752
  153.6833  135.3325  155.3184 H   0  0  0  0  0  0  0  0  0  0  0  0  # atno 10764 bound_to 10752
  154.8378  135.4527  154.1409 H   0  0  0  0  0  0  0  0  0  0  0  0  # atno 10765 bound_to 10752
  140.0055  134.6377  155.9863 H   0  0  0  0  0  0  0  0  0  0  0  0  # atno 11005 bound_to 11000
  145.0879  139.2912  143.5750 LP  0  0  0  0  0  0  0  0  0  0  0  0  # atno 17320 bound_to 7965
  146.3527  140.0406  142.8643 LP  0  0  0  0  0  0  0  0  0  0  0  0  # atno 17321 bound_to 7965
  139.5801  144.1729  152.1957 LP  0  0  0  0  0  0  0  0  0  0  0  0  # atno 17342 bound_to 10162
  140.1051  144.5505  150.6962 LP  0  0  0  0  0  0  0  0  0  0  0  0  # atno 17343 bound_to 10162
  157.5774  131.0946  150.9325 LP  0  0  0  0  0  0  0  0  0  0  0  0  # atno 17370 bound_to 10713
  156.9528  130.5426  149.5283 LP  0  0  0  0  0  0  0  0  0  0  0  0  # atno 17371 bound_to 10713
  141.1673  133.6537  156.4526 LP  0  0  0  0  0  0  0  0  0  0  0  0  # atno 17394 bound_to 11000
  140.4650  134.6806  157.5103 LP  0  0  0  0  0  0  0  0  0  0  0  0  # atno 17395 bound_to 11000

$$$$
