AV-unprocessed.smi:2591|AV-procd|sdf|10154|dock2
  -GOLD-   2272014163D 1   1.00000     0.00000
 Structure written by MMmdl.
 35 36  0  0  0  0  0  0  0  0  2 V2000
  148.2981  136.5116  155.0215 C   0  0  0  0  0  0  0  0  0  0  0  0
  149.1985  137.6760  155.1565 N   0  3  2  0  0  0  0  0  0  0  0  0
  148.6683  138.8899  154.4957 C   0  0  0  0  0  0  0  0  0  0  0  0
  149.6089  140.0819  154.7349 C   0  0  0  0  0  0  0  0  0  0  0  0
  150.9234  139.7583  154.2810 O   0  0  0  0  0  0  0  0  0  0  0  0
  151.5066  138.6103  154.9061 C   0  0  1  0  0  0  0  0  0  0  0  0
  151.8620  138.9117  156.3750 C   0  0  0  0  0  0  0  0  0  0  0  0
  152.0707  137.9895  157.1646 O   0  0  0  0  0  0  0  0  0  0  0  0
  151.9190  140.2184  156.6956 N   0  0  0  0  0  0  0  0  0  0  0  0
  152.2062  140.8038  157.9570 C   0  0  0  0  0  0  0  0  0  0  0  0
  151.7963  142.1480  158.1001 C   0  0  0  0  0  0  0  0  0  0  0  0
  152.0288  142.8253  159.3162 C   0  0  0  0  0  0  0  0  0  0  0  0
  151.6003  144.2750  159.4831 C   0  0  0  0  0  0  0  0  0  0  0  0
  151.8496  144.7191  160.7154 F   0  0  0  0  0  0  0  0  0  0  0  0
  152.2652  145.0327  158.6117 F   0  0  0  0  0  0  0  0  0  0  0  0
  150.2934  144.3969  159.2494 F   0  0  0  0  0  0  0  0  0  0  0  0
  152.6779  142.1276  160.3556 C   0  0  0  0  0  0  0  0  0  0  0  0
  153.0537  140.7909  160.1299 C   0  0  0  0  0  0  0  0  0  0  0  0
  152.8243  140.1449  158.9677 N   0  0  0  0  0  0  0  0  0  0  0  0
  150.5790  137.3883  154.6995 C   0  0  0  0  0  0  0  0  0  0  0  0
  148.1814  136.2246  153.9757 H   0  0  0  0  0  0  0  0  0  0  0  0
  147.3118  136.7401  155.4265 H   0  0  0  0  0  0  0  0  0  0  0  0
  148.6932  135.6556  155.5699 H   0  0  0  0  0  0  0  0  0  0  0  0
  148.5607  138.7077  153.4252 H   0  0  0  0  0  0  0  0  0  0  0  0
  147.6752  139.1189  154.8840 H   0  0  0  0  0  0  0  0  0  0  0  0
  149.2548  140.9521  154.1822 H   0  0  0  0  0  0  0  0  0  0  0  0
  149.6155  140.3663  155.7879 H   0  0  0  0  0  0  0  0  0  0  0  0
  152.4488  138.4094  154.3946 H   0  0  0  0  0  0  0  0  0  0  0  0
  151.7293  140.8702  155.9481 H   0  0  0  0  0  0  0  0  0  0  0  0
  151.3078  142.6615  157.2844 H   0  0  0  0  0  0  0  0  0  0  0  0
  152.8882  142.5987  161.3044 H   0  0  0  0  0  0  0  0  0  0  0  0
  153.5530  140.2251  160.9023 H   0  0  0  0  0  0  0  0  0  0  0  0
  150.9706  136.5182  155.2287 H   0  0  0  0  0  0  0  0  0  0  0  0
  150.5580  137.1222  153.6415 H   0  0  0  0  0  0  0  0  0  0  0  0
  149.2582  137.8824  156.1440 H   0  0  0  0  0  0  0  0  0  0  0  0
  1  2  1  0  0  0  0
  1 21  1  0  0  0  0
  1 22  1  0  0  0  0
  1 23  1  0  0  0  0
  2 20  1  0  0  0  0
  2  3  1  0  0  0  0
  2 35  1  0  0  0  0
  3  4  1  0  0  0  0
  3 24  1  0  0  0  0
  3 25  1  0  0  0  0
  4  5  1  0  0  0  0
  4 26  1  0  0  0  0
  4 27  1  0  0  0  0
  5  6  1  0  0  0  0
  6  7  1  0  0  0  0
  6 20  1  0  0  0  0
  6 28  1  0  0  0  0
  7  8  2  0  0  0  0
  7  9  1  0  0  0  0
  9 10  1  0  0  0  0
  9 29  1  0  0  0  0
 10 19  1  0  0  0  0
 10 11  2  0  0  0  0
 11 12  1  0  0  0  0
 11 30  1  0  0  0  0
 12 13  1  0  0  0  0
 12 17  2  0  0  0  0
 13 14  1  0  0  0  0
 13 15  1  0  0  0  0
 13 16  1  0  0  0  0
 17 18  1  0  0  0  0
 17 31  1  0  0  0  0
 18 19  2  0  0  0  0
 18 32  1  0  0  0  0
 20 33  1  0  0  0  0
 20 34  1  0  0  0  0
M  CHG  1   2   1
M  END
> <s_m_source_file>
AV-unprocessed.smi

> <i_m_source_file_index>
2591

> <i_lp_mmshare_version>
43012

> <i_f3d_flags>
0

> <s_epik_input>
W0NIM11OMVtDSDJdW0NIMl1PW0NASF0oW0NIMl0xKUMoPU8pW05IXWMyW2NIXWMoQyhGKShGKUYpW2NIXVtjSF1uMg==

> <s_epik_cmdline>
J2VwaWtfcHl0aG9uJywgJy1waCcsICc3LjAnLCAnLXRuJywgJzgnLCAnLW1hJywgJzIwMCcsICctbWV0YWxfYmluZGluZycsICctaW1hZScsICc8aW5maWxlLm1hZT4nLCAnLW9tYWUnLCAnPG91dGZpbGUubWFlPic=

> <r_epik_Ionization_Penalty>
0.314028

> <r_epik_Ionization_Penalty_Charging>
0.314023

> <r_epik_Ionization_Penalty_Neutral>
5.2303e-06

> <r_epik_State_Penalty>
0.308208

> <r_epik_Charging_Adjusted_Penalty>
0.62223

> <i_epik_Tot_Q>
1

> <i_epik_Tot_abs_Q>
1

> <r_epik_Metal_State_Penalty>
0.308209

> <b_epik_Metal_Only>
0

> <s_lp_Force_Field>
OPLS_2005

> <r_lp_Energy>
16.4571

> <b_lp_Chiralities_Consistent>
1

> <s_lp_Variant>
AV-unprocessed.smi:2591-2

> <Gold.Version>
5.8.1

> <Gold.Id.Protein>
6NUR|6NUR_protein|mol2

> <Gold.PLP.Fitness>
42.2641

> <Gold.PLP.PLP>
-40.5128

> <Gold.PLP.part.hbond>
-1.0000

> <Gold.PLP.part.metal>
0.0000

> <Gold.PLP.part.buried>
-5.7701

> <Gold.PLP.part.nonpolar>
-34.5052

> <Gold.PLP.part.repulsive>
0.2757

> <Gold.PLP.ligand.clash>
0.2063

> <Gold.PLP.ligand.torsion>
0.6541

> <Gold.PLP.Chemscore.Hbond>
1.0000

> <Gold.PLP.Chemscore.CHOScore>
0.0000

> <Gold.PLP.Chemscore.Metal>
0.0000

> <Gold.Chemscore.Hbonds>
donor molecule, donor type, donor heavy atom, donor atom, acceptor molecule, acceptor atom, score
      P1  H  7989  7998       L1     5  0.99

> <Gold.PLP.Chemscore.Internal.Correction>
0.2657

> <Gold.Rescore>
     Score         DG    S(hbond)    S(metal)    S(lipo)     H(rot)  DE(clash)    DE(int)     intcor
     13.35     -15.37       0.97        0.00      78.74       1.00       0.00       2.02       ----

> <Gold.Chemscore.Fitness>
13.3452

> <Gold.Chemscore.DG>
-15.3694

> <Gold.Chemscore.ZeroCoef>
-5.4800

> <Gold.Chemscore.Hbond>
0.9690

> <Gold.Chemscore.Metal>
0.0000

> <Gold.Chemscore.Lipo>
78.7437

> <Gold.Chemscore.Internal_Hbond>
0.0000

> <Gold.Chemscore.DEClash>
0.0015

> <Gold.Chemscore.DEInternal>
2.0227

> <Gold.Chemscore.Rot>
1.0000

> <Gold.Chemscore.Internal.Correction>
   9.000000E+99

> <Gold.Chemscore.Hbonds>
donor molecule, donor type, donor heavy atom, donor atom, acceptor molecule, acceptor atom, score
      P1  H  7989  7998       L1     5  0.84

> <Gold.Chemscore.Hbond.Weighted>
-3.2363

> <Gold.Chemscore.Metal.Weighted>
-0.0000

> <Gold.Chemscore.Lipo.Weighted>
-9.2130

> <Gold.Chemscore.Internal_Hbond.Weighted>
0.0000

> <Gold.Chemscore.DEClash.Weighted>
0.0015

> <Gold.Chemscore.DEInternal.Weighted>
2.0227

> <Gold.Chemscore.Rot.Weighted>
2.5600

> <Gold.Chemscore.Internal.Correction.Weighted>
   9.000000E+99

> <Gold.Protein.RotatedTorsions>
[ 6907 6896 6895 6894 ] final  101.20 input  -60.11 | X-H torsion
[ 7974 7965 7964 7962 ] final  -72.12 input  175.53 | X-H torsion
[ 8008 7997 7996 7995 ] final   82.69 input   59.86 | X-H torsion
[ 10167 10162 10161 10158 ] final  134.84 input  -65.29 | X-H torsion
[ 10718 10713 10712 10709 ] final   45.86 input   66.30 | X-H torsion
[ 10763 10752 10751 10750 ] final -120.47 input  -60.55 | X-H torsion
[ 11005 11000 10999 10996 ] final   39.17 input  -57.11 | X-H torsion

> <Gold.Protein.ActiveResidues>
 VAL166  LYS551  ARG553  GLY616  TRP617  ASP618  TYR619  PRO620  LYS621  CYS622 
 ASP623  PHE694  ASN695  SER759  ASP760  ASP761  ALA762  ILE779  LEU786  VAL792 
 PHE793  MET794  SER795  GLU796  ALA797  LYS798  CYS799  TRP800  GLU811  SER814 

> <Gold.Protein.RotatedAtoms>
  152.5355  134.0161  159.7960 H   0  0  0  0  0  0  0  0  0  0  0  0  # atno 6907 bound_to 6896
  151.0355  133.5744  159.2663 H   0  0  0  0  0  0  0  0  0  0  0  0  # atno 6908 bound_to 6896
  151.2733  135.0698  159.9196 H   0  0  0  0  0  0  0  0  0  0  0  0  # atno 6909 bound_to 6896
  145.6693  140.9226  143.0892 H   0  0  0  0  0  0  0  0  0  0  0  0  # atno 7974 bound_to 7965
  155.9140  140.3425  155.6120 H   0  0  0  0  0  0  0  0  0  0  0  0  # atno 8008 bound_to 7997
  155.7354  140.0801  157.2289 H   0  0  0  0  0  0  0  0  0  0  0  0  # atno 8009 bound_to 7997
  154.4060  140.1580  156.2543 H   0  0  0  0  0  0  0  0  0  0  0  0  # atno 8010 bound_to 7997
  139.5240  144.6547  151.5198 H   0  0  0  0  0  0  0  0  0  0  0  0  # atno 10167 bound_to 10162
  157.4420  130.8087  149.7703 H   0  0  0  0  0  0  0  0  0  0  0  0  # atno 10718 bound_to 10713
  154.8645  135.4202  154.2465 H   0  0  0  0  0  0  0  0  0  0  0  0  # atno 10763 bound_to 10752
  153.3420  135.6994  153.6865 H   0  0  0  0  0  0  0  0  0  0  0  0  # atno 10764 bound_to 10752
  153.5840  135.3567  155.2858 H   0  0  0  0  0  0  0  0  0  0  0  0  # atno 10765 bound_to 10752
  140.2055  134.3819  155.8075 H   0  0  0  0  0  0  0  0  0  0  0  0  # atno 11005 bound_to 11000
  144.7062  139.8551  143.7429 LP  0  0  0  0  0  0  0  0  0  0  0  0  # atno 17320 bound_to 7965
  146.1059  139.4059  143.0318 LP  0  0  0  0  0  0  0  0  0  0  0  0  # atno 17321 bound_to 7965
  140.6367  143.8969  150.6654 LP  0  0  0  0  0  0  0  0  0  0  0  0  # atno 17342 bound_to 10162
  140.2291  143.3749  152.1580 LP  0  0  0  0  0  0  0  0  0  0  0  0  # atno 17343 bound_to 10162
  155.9952  130.3913  150.2827 LP  0  0  0  0  0  0  0  0  0  0  0  0  # atno 17370 bound_to 10713
  157.0992  131.0191  151.3092 LP  0  0  0  0  0  0  0  0  0  0  0  0  # atno 17371 bound_to 10713
  141.2227  133.7116  156.8329 LP  0  0  0  0  0  0  0  0  0  0  0  0  # atno 17394 bound_to 11000
  140.2008  134.8898  157.3166 LP  0  0  0  0  0  0  0  0  0  0  0  0  # atno 17395 bound_to 11000

$$$$
