AV-unprocessed.smi:910|AV-procd|sdf|4123|dock8
  -GOLD-   22720 2 23D 1   1.00000     0.00000
 Structure written by MMmdl.
 46 47  0  0  0  0  0  0  0  0  1 V2000
  143.5720  145.2963  154.3999 C   0  0  0  0  0  0  0  0  0  0  0  0
  144.6619  144.3078  154.7524 C   0  0  0  0  0  0  0  0  0  0  0  0
  145.5934  143.8987  153.8373 N   0  0  0  0  0  0  0  0  0  0  0  0
  146.4425  142.9950  154.4571 C   0  0  0  0  0  0  0  0  0  0  0  0
  147.4565  142.3761  153.9363 N   0  0  0  0  0  0  0  0  0  0  0  0
  148.1883  141.4895  154.7125 C   0  0  0  0  0  0  0  0  0  0  0  0
  148.2878  140.2641  154.5927 O   0  0  0  0  0  0  0  0  0  0  0  0
  148.8121  142.1499  155.6992 N   0  0  0  0  0  0  0  0  0  0  0  0
  149.6389  141.5430  156.7377 C   0  0  0  0  0  0  0  0  0  0  0  0
  151.0868  142.0504  156.6755 C   0  0  0  0  0  0  0  0  0  0  0  0
  151.2669  143.0370  157.6808 O   0  0  0  0  0  0  0  0  0  0  0  0
  151.5471  142.5204  158.9755 C   0  0  1  0  0  0  0  0  0  0  0  0
  152.7432  141.5486  158.8993 C   0  0  0  0  0  0  0  0  0  0  0  0
  153.1747  141.0747  160.2951 C   0  0  0  0  0  0  0  0  0  0  0  0
  153.4944  142.2668  161.2076 C   0  0  0  0  0  0  0  0  0  0  0  0
  152.3011  143.2305  161.2943 C   0  0  0  0  0  0  0  0  0  0  0  0
  151.8571  143.7188  159.9005 C   0  0  2  0  0  0  0  0  0  0  0  0
  150.6561  144.6727  160.0158 C   0  0  0  0  0  0  0  0  0  0  0  0
  146.0034  142.8785  155.7561 O   0  0  0  0  0  0  0  0  0  0  0  0
  144.9189  143.6887  155.9021 C   0  0  0  0  0  0  0  0  0  0  0  0
  144.2308  143.7428  157.2475 C   0  0  0  0  0  0  0  0  0  0  0  0
  142.5910  144.8467  154.5552 H   0  0  0  0  0  0  0  0  0  0  0  0
  143.6468  145.6074  153.3575 H   0  0  0  0  0  0  0  0  0  0  0  0
  143.6487  146.1825  155.0302 H   0  0  0  0  0  0  0  0  0  0  0  0
  145.6166  144.2234  152.8817 H   0  0  0  0  0  0  0  0  0  0  0  0
  148.6854  143.1504  155.7488 H   0  0  0  0  0  0  0  0  0  0  0  0
  149.2096  141.7438  157.7206 H   0  0  0  0  0  0  0  0  0  0  0  0
  149.6190  140.4611  156.6057 H   0  0  0  0  0  0  0  0  0  0  0  0
  151.7823  141.2221  156.8199 H   0  0  0  0  0  0  0  0  0  0  0  0
  151.2857  142.4734  155.6909 H   0  0  0  0  0  0  0  0  0  0  0  0
  150.6749  141.9975  159.3729 H   0  0  0  0  0  0  0  0  0  0  0  0
  152.4937  140.6821  158.2877 H   0  0  0  0  0  0  0  0  0  0  0  0
  153.5835  142.0412  158.4081 H   0  0  0  0  0  0  0  0  0  0  0  0
  152.3795  140.4747  160.7397 H   0  0  0  0  0  0  0  0  0  0  0  0
  154.0459  140.4239  160.2144 H   0  0  0  0  0  0  0  0  0  0  0  0
  153.7594  141.9120  162.2039 H   0  0  0  0  0  0  0  0  0  0  0  0
  154.3673  142.7976  160.8253 H   0  0  0  0  0  0  0  0  0  0  0  0
  151.4686  142.7309  161.7923 H   0  0  0  0  0  0  0  0  0  0  0  0
  152.5669  144.0829  161.9206 H   0  0  0  0  0  0  0  0  0  0  0  0
  152.6851  144.2792  159.4635 H   0  0  0  0  0  0  0  0  0  0  0  0
  149.7858  144.1663  160.4341 H   0  0  0  0  0  0  0  0  0  0  0  0
  150.3700  145.0727  159.0426 H   0  0  0  0  0  0  0  0  0  0  0  0
  150.8893  145.5206  160.6603 H   0  0  0  0  0  0  0  0  0  0  0  0
  143.5896  144.6216  157.3197 H   0  0  0  0  0  0  0  0  0  0  0  0
  144.9694  143.7878  158.0478 H   0  0  0  0  0  0  0  0  0  0  0  0
  143.6176  142.8533  157.3915 H   0  0  0  0  0  0  0  0  0  0  0  0
  1 22  1  0  0  0  0
  1 23  1  0  0  0  0
  1 24  1  0  0  0  0
  1  2  1  0  0  0  0
  2  3  1  0  0  0  0
  2 20  2  0  0  0  0
  3 25  1  0  0  0  0
  3  4  1  0  0  0  0
  4 19  1  0  0  0  0
  4  5  2  0  0  0  0
  5  6  1  0  0  0  0
  6  8  1  0  0  0  0
  6  7  2  0  0  0  0
  8  9  1  0  0  0  0
  8 26  1  0  0  0  0
  9 10  1  0  0  0  0
  9 27  1  0  0  0  0
  9 28  1  0  0  0  0
 10 11  1  0  0  0  0
 10 29  1  0  0  0  0
 10 30  1  0  0  0  0
 11 12  1  0  0  0  0
 12 17  1  0  0  0  0
 12 13  1  0  0  0  0
 12 31  1  0  0  0  0
 13 14  1  0  0  0  0
 13 32  1  0  0  0  0
 13 33  1  0  0  0  0
 14 15  1  0  0  0  0
 14 34  1  0  0  0  0
 14 35  1  0  0  0  0
 15 16  1  0  0  0  0
 15 36  1  0  0  0  0
 15 37  1  0  0  0  0
 16 17  1  0  0  0  0
 16 38  1  0  0  0  0
 16 39  1  0  0  0  0
 17 18  1  0  0  0  0
 17 40  1  0  0  0  0
 18 41  1  0  0  0  0
 18 42  1  0  0  0  0
 18 43  1  0  0  0  0
 19 20  1  0  0  0  0
 20 21  1  0  0  0  0
 21 44  1  0  0  0  0
 21 45  1  0  0  0  0
 21 46  1  0  0  0  0
M  END
> <s_m_source_file>
AV-unprocessed.smi

> <i_m_source_file_index>
910

> <i_lp_mmshare_version>
43012

> <i_f3d_flags>
0

> <s_epik_input>
W0NIM11jMW5jKG9jMVtDSDNdKVtOSF1DKD1PKVtOSF1bQ0gyXVtDSDJdT1tDQEBIXTJbQ0gyXVtDSDJdW0NIMl1bQ0gyXVtDQEhdMltDSDNd

> <s_epik_cmdline>
J2VwaWtfcHl0aG9uJywgJy1waCcsICc3LjAnLCAnLXRuJywgJzgnLCAnLW1hJywgJzIwMCcsICctbWV0YWxfYmluZGluZycsICctaW1hZScsICc8aW5maWxlLm1hZT4nLCAnLW9tYWUnLCAnPG91dGZpbGUubWFlPic=

> <r_lp_tautomer_probability>
0.107061

> <r_epik_Ionization_Penalty>
0.727192

> <r_epik_Ionization_Penalty_Charging>
0.726719

> <r_epik_Ionization_Penalty_Neutral>
0.000473387

> <r_epik_State_Penalty>
2.53712

> <r_epik_Charging_Adjusted_Penalty>
3.26383

> <i_epik_Tot_Q>
0

> <i_epik_Tot_abs_Q>
0

> <r_epik_Metal_State_Penalty>
3.71015

> <b_epik_Metal_Only>
0

> <s_lp_Force_Field>
OPLS_2005

> <r_lp_Energy>
30.8064

> <b_lp_Chiralities_Consistent>
1

> <s_lp_Variant>
AV-unprocessed.smi:910-8

> <Gold.Version>
5.8.1

> <Gold.Id.Protein>
6NUR|6NUR_protein|mol2

> <Gold.PLP.Fitness>
42.7041

> <Gold.PLP.PLP>
-41.7818

> <Gold.PLP.part.hbond>
-1.0369

> <Gold.PLP.part.metal>
0.0000

> <Gold.PLP.part.buried>
-7.5767

> <Gold.PLP.part.nonpolar>
-33.1123

> <Gold.PLP.part.repulsive>
0.7620

> <Gold.PLP.ligand.clash>
0.0000

> <Gold.PLP.ligand.torsion>
1.0611

> <Gold.PLP.Chemscore.Hbond>
1.0000

> <Gold.PLP.Chemscore.CHOScore>
0.0000

> <Gold.PLP.Chemscore.Metal>
0.0000

> <Gold.Chemscore.Hbonds>
donor molecule, donor type, donor heavy atom, donor atom, acceptor molecule, acceptor atom, score
      L1  H     8    26       P1  8028  1.00

> <Gold.PLP.Chemscore.Internal.Correction>
0.0445

> <Gold.Rescore>
     Score         DG    S(hbond)    S(metal)    S(lipo)     H(rot)  DE(clash)    DE(int)     intcor
     14.92     -16.14       1.00        0.00      98.98       1.66       0.06       1.16       ----

> <Gold.Chemscore.Fitness>
14.9175

> <Gold.Chemscore.DG>
-16.1408

> <Gold.Chemscore.ZeroCoef>
-5.4800

> <Gold.Chemscore.Hbond>
0.9950

> <Gold.Chemscore.Metal>
0.0000

> <Gold.Chemscore.Lipo>
98.9830

> <Gold.Chemscore.Internal_Hbond>
0.0000

> <Gold.Chemscore.DEClash>
0.0630

> <Gold.Chemscore.DEInternal>
1.1602

> <Gold.Chemscore.Rot>
1.6576

> <Gold.Chemscore.Internal.Correction>
   9.000000E+99

> <Gold.Chemscore.Hbonds>
donor molecule, donor type, donor heavy atom, donor atom, acceptor molecule, acceptor atom, score
      L1  H     8    26       P1  8028  0.97

> <Gold.Chemscore.Hbond.Weighted>
-3.3233

> <Gold.Chemscore.Metal.Weighted>
-0.0000

> <Gold.Chemscore.Lipo.Weighted>
-11.5810

> <Gold.Chemscore.Internal_Hbond.Weighted>
0.0000

> <Gold.Chemscore.DEClash.Weighted>
0.0630

> <Gold.Chemscore.DEInternal.Weighted>
1.1602

> <Gold.Chemscore.Rot.Weighted>
4.2436

> <Gold.Chemscore.Internal.Correction.Weighted>
   9.000000E+99

> <Gold.Protein.RotatedTorsions>
[ 6907 6896 6895 6894 ] final   99.52 input  -60.11 | X-H torsion
[ 7974 7965 7964 7962 ] final  -30.01 input  175.53 | X-H torsion
[ 8008 7997 7996 7995 ] final   51.33 input   59.86 | X-H torsion
[ 10167 10162 10161 10158 ] final  150.90 input  -65.29 | X-H torsion
[ 10718 10713 10712 10709 ] final   74.03 input   66.30 | X-H torsion
[ 10763 10752 10751 10750 ] final   51.89 input  -60.55 | X-H torsion
[ 11005 11000 10999 10996 ] final  121.42 input  -57.11 | X-H torsion

> <Gold.Protein.ActiveResidues>
 VAL166  LYS551  ARG553  GLY616  TRP617  ASP618  TYR619  PRO620  LYS621  CYS622 
 ASP623  PHE694  ASN695  SER759  ASP760  ASP761  ALA762  ILE779  LEU786  VAL792 
 PHE793  MET794  SER795  GLU796  ALA797  LYS798  CYS799  TRP800  GLU811  SER814 

> <Gold.Protein.RotatedAtoms>
  152.5390  134.0416  159.8069 H   0  0  0  0  0  0  0  0  0  0  0  0  # atno 6907 bound_to 6896
  151.0571  133.5567  159.2644 H   0  0  0  0  0  0  0  0  0  0  0  0  # atno 6908 bound_to 6896
  151.2480  135.0620  159.9105 H   0  0  0  0  0  0  0  0  0  0  0  0  # atno 6909 bound_to 6896
  146.1175  140.5485  142.8750 H   0  0  0  0  0  0  0  0  0  0  0  0  # atno 7974 bound_to 7965
  155.4335  140.3451  155.4282 H   0  0  0  0  0  0  0  0  0  0  0  0  # atno 8008 bound_to 7997
  156.1322  140.1517  156.9079 H   0  0  0  0  0  0  0  0  0  0  0  0  # atno 8009 bound_to 7997
  154.4903  140.0843  156.7560 H   0  0  0  0  0  0  0  0  0  0  0  0  # atno 8010 bound_to 7997
  139.4845  144.5484  151.7443 H   0  0  0  0  0  0  0  0  0  0  0  0  # atno 10167 bound_to 10162
  157.6574  130.9658  150.1153 H   0  0  0  0  0  0  0  0  0  0  0  0  # atno 10718 bound_to 10713
  152.9786  135.5831  154.4489 H   0  0  0  0  0  0  0  0  0  0  0  0  # atno 10763 bound_to 10752
  154.4081  135.2769  155.2056 H   0  0  0  0  0  0  0  0  0  0  0  0  # atno 10764 bound_to 10752
  154.3858  135.6136  153.5870 H   0  0  0  0  0  0  0  0  0  0  0  0  # atno 10765 bound_to 10752
  139.9225  134.9639  156.7956 H   0  0  0  0  0  0  0  0  0  0  0  0  # atno 11005 bound_to 11000
  144.7566  140.5322  143.6764 LP  0  0  0  0  0  0  0  0  0  0  0  0  # atno 17320 bound_to 7965
  145.5536  139.1477  143.3380 LP  0  0  0  0  0  0  0  0  0  0  0  0  # atno 17321 bound_to 7965
  140.5034  144.1134  150.5976 LP  0  0  0  0  0  0  0  0  0  0  0  0  # atno 17342 bound_to 10162
  140.4035  143.2692  151.9919 LP  0  0  0  0  0  0  0  0  0  0  0  0  # atno 17343 bound_to 10162
  156.2039  130.3662  149.8754 LP  0  0  0  0  0  0  0  0  0  0  0  0  # atno 17370 bound_to 10713
  156.6651  130.8797  151.3553 LP  0  0  0  0  0  0  0  0  0  0  0  0  # atno 17371 bound_to 10713
  140.6431  133.9800  155.7717 LP  0  0  0  0  0  0  0  0  0  0  0  0  # atno 17394 bound_to 11000
  141.0758  134.0137  157.3460 LP  0  0  0  0  0  0  0  0  0  0  0  0  # atno 17395 bound_to 11000

$$$$
