AV-unprocessed.smi:418|AV-procd|sdf|2528|dock5
  -GOLD-   2262022483D 1   1.00000     0.00000
 Structure written by MMmdl.
 40 42  0  0  0  0  0  0  0  0  1 V2000
  153.6732  140.4126  160.2801 C   0  0  0  0  0  0  0  0  0  0  0  0
  152.8612  141.2950  159.4508 N   0  0  0  0  0  0  0  0  0  0  0  0
  152.3926  141.0427  158.2062 C   0  0  0  0  0  0  0  0  0  0  0  0
  152.5776  140.0140  157.5563 O   0  0  0  0  0  0  0  0  0  0  0  0
  151.6882  142.1246  157.7965 N   0  0  0  0  0  0  0  0  0  0  0  0
  151.0088  142.2839  156.5123 C   0  0  0  0  0  0  0  0  0  0  0  0
  150.3621  140.9653  156.0414 C   0  0  2  0  0  0  0  0  0  0  0  0
  151.2957  140.2632  155.2457 O   0  0  0  0  0  0  0  0  0  0  0  0
  149.1168  141.2092  155.1756 C   0  0  0  0  0  0  0  0  0  0  0  0
  148.0295  141.5496  156.0257 O   0  0  0  0  0  0  0  0  0  0  0  0
  146.9708  142.2498  155.4882 C   0  0  0  0  0  0  0  0  0  0  0  0
  146.8423  142.5639  154.1110 C   0  0  0  0  0  0  0  0  0  0  0  0
  145.7281  143.2895  153.6458 C   0  0  0  0  0  0  0  0  0  0  0  0
  144.7309  143.7077  154.5458 C   0  0  0  0  0  0  0  0  0  0  0  0
  144.8481  143.3979  155.9131 C   0  0  0  0  0  0  0  0  0  0  0  0
  145.9616  142.6726  156.3797 C   0  0  0  0  0  0  0  0  0  0  0  0
  146.0626  142.3817  157.6989 F   0  0  0  0  0  0  0  0  0  0  0  0
  151.7138  143.0987  158.8049 C   0  0  0  0  0  0  0  0  0  0  0  0
  151.1517  144.3860  158.8662 C   0  0  0  0  0  0  0  0  0  0  0  0
  151.3687  145.1303  160.0495 C   0  0  0  0  0  0  0  0  0  0  0  0
  152.1239  144.5880  161.1218 C   0  0  0  0  0  0  0  0  0  0  0  0
  152.6804  143.2903  161.0330 C   0  0  0  0  0  0  0  0  0  0  0  0
  152.4506  142.5743  159.8460 C   0  0  0  0  0  0  0  0  0  0  0  0
  153.9016  139.4717  159.7779 H   0  0  0  0  0  0  0  0  0  0  0  0
  153.1491  140.1813  161.2077 H   0  0  0  0  0  0  0  0  0  0  0  0
  154.6172  140.8962  160.5322 H   0  0  0  0  0  0  0  0  0  0  0  0
  150.2385  143.0457  156.6421 H   0  0  0  0  0  0  0  0  0  0  0  0
  151.6853  142.6844  155.7562 H   0  0  0  0  0  0  0  0  0  0  0  0
  150.0860  140.3390  156.8908 H   0  0  0  0  0  0  0  0  0  0  0  0
  152.1452  140.3276  155.6545 H   0  0  0  0  0  0  0  0  0  0  0  0
  149.3132  142.0056  154.4555 H   0  0  0  0  0  0  0  0  0  0  0  0
  148.8683  140.3025  154.6208 H   0  0  0  0  0  0  0  0  0  0  0  0
  147.5850  142.2590  153.3899 H   0  0  0  0  0  0  0  0  0  0  0  0
  145.6396  143.5254  152.5955 H   0  0  0  0  0  0  0  0  0  0  0  0
  143.8774  144.2646  154.1882 H   0  0  0  0  0  0  0  0  0  0  0  0
  144.0839  143.7178  156.6062 H   0  0  0  0  0  0  0  0  0  0  0  0
  150.5790  144.7955  158.0473 H   0  0  0  0  0  0  0  0  0  0  0  0
  150.9545  146.1238  160.1376 H   0  0  0  0  0  0  0  0  0  0  0  0
  152.2765  145.1734  162.0165 H   0  0  0  0  0  0  0  0  0  0  0  0
  153.2577  142.8709  161.8439 H   0  0  0  0  0  0  0  0  0  0  0  0
  1  2  1  0  0  0  0
  1 24  1  0  0  0  0
  1 25  1  0  0  0  0
  1 26  1  0  0  0  0
  2 23  1  0  0  0  0
  2  3  1  0  0  0  0
  3  4  2  0  0  0  0
  3  5  1  0  0  0  0
  5  6  1  0  0  0  0
  5 18  1  0  0  0  0
  6  7  1  0  0  0  0
  6 27  1  0  0  0  0
  6 28  1  0  0  0  0
  7  8  1  0  0  0  0
  7  9  1  0  0  0  0
  7 29  1  0  0  0  0
  8 30  1  0  0  0  0
  9 10  1  0  0  0  0
  9 31  1  0  0  0  0
  9 32  1  0  0  0  0
 10 11  1  0  0  0  0
 11 16  1  0  0  0  0
 11 12  2  0  0  0  0
 12 13  1  0  0  0  0
 12 33  1  0  0  0  0
 13 14  2  0  0  0  0
 13 34  1  0  0  0  0
 14 15  1  0  0  0  0
 14 35  1  0  0  0  0
 15 16  2  0  0  0  0
 15 36  1  0  0  0  0
 16 17  1  0  0  0  0
 18 23  2  0  0  0  0
 18 19  1  0  0  0  0
 19 20  2  0  0  0  0
 19 37  1  0  0  0  0
 20 21  1  0  0  0  0
 20 38  1  0  0  0  0
 21 22  2  0  0  0  0
 21 39  1  0  0  0  0
 22 23  1  0  0  0  0
 22 40  1  0  0  0  0
M  END
> <s_m_source_file>
AV-unprocessed.smi

> <i_m_source_file_index>
418

> <i_lp_mmshare_version>
43012

> <i_f3d_flags>
0

> <s_epik_input>
W2NIXTFbY0hdW2NIXVtjSF1jKGMxMiluKFtDSDNdKWMoPU8pbjJbQ0gyXVtDQEhdKFtPSF0pW0NIMl1PYzNbY0hdW2NIXVtjSF1bY0hdYzNG

> <s_epik_cmdline>
J2VwaWtfcHl0aG9uJywgJy1waCcsICc3LjAnLCAnLXRuJywgJzgnLCAnLW1hJywgJzIwMCcsICctbWV0YWxfYmluZGluZycsICctaW1hZScsICc8aW5maWxlLm1hZT4nLCAnLW9tYWUnLCAnPG91dGZpbGUubWFlPic=

> <r_lp_tautomer_probability>
1

> <r_epik_Ionization_Penalty>
2.40171e-06

> <r_epik_Ionization_Penalty_Charging>
2.41238e-09

> <r_epik_Ionization_Penalty_Neutral>
2.3993e-06

> <r_epik_State_Penalty>
-0

> <r_epik_Charging_Adjusted_Penalty>
2.41238e-09

> <i_epik_Tot_Q>
0

> <i_epik_Tot_abs_Q>
0

> <r_epik_Metal_State_Penalty>
-0

> <b_epik_Metal_Only>
0

> <s_lp_Force_Field>
OPLS_2005

> <r_lp_Energy>
46.4637

> <b_lp_Chiralities_Consistent>
1

> <s_lp_Variant>
AV-unprocessed.smi:418-1

> <Gold.Version>
5.8.1

> <Gold.Id.Protein>
6NUR|6NUR_protein|mol2

> <Gold.PLP.Fitness>
57.1929

> <Gold.PLP.PLP>
-53.1341

> <Gold.PLP.part.hbond>
-2.0000

> <Gold.PLP.part.metal>
0.0000

> <Gold.PLP.part.buried>
-7.4113

> <Gold.PLP.part.nonpolar>
-43.8101

> <Gold.PLP.part.repulsive>
0.1173

> <Gold.PLP.ligand.clash>
0.0000

> <Gold.PLP.ligand.torsion>
0.9880

> <Gold.PLP.Chemscore.Hbond>
2.0000

> <Gold.PLP.Chemscore.CHOScore>
0.0000

> <Gold.PLP.Chemscore.Metal>
0.0000

> <Gold.Chemscore.Hbonds>
donor molecule, donor type, donor heavy atom, donor atom, acceptor molecule, acceptor atom, score
      P1  H  7989  7998       L1     8  1.00
      P1  H  7997  8010       L1     4  1.00

> <Gold.PLP.Chemscore.Internal.Correction>
0.0348

> <Gold.Rescore>
     Score         DG    S(hbond)    S(metal)    S(lipo)     H(rot)  DE(clash)    DE(int)     intcor
     17.87     -20.28       1.64        0.00     129.32       2.27       0.13       2.28       ----

> <Gold.Chemscore.Fitness>
17.8739

> <Gold.Chemscore.DG>
-20.2835

> <Gold.Chemscore.ZeroCoef>
-5.4800

> <Gold.Chemscore.Hbond>
1.6426

> <Gold.Chemscore.Metal>
0.0000

> <Gold.Chemscore.Lipo>
129.3155

> <Gold.Chemscore.Internal_Hbond>
0.0000

> <Gold.Chemscore.DEClash>
0.1313

> <Gold.Chemscore.DEInternal>
2.2783

> <Gold.Chemscore.Rot>
2.2706

> <Gold.Chemscore.Internal.Correction>
   9.000000E+99

> <Gold.Chemscore.Hbonds>
donor molecule, donor type, donor heavy atom, donor atom, acceptor molecule, acceptor atom, score
      P1  H  7989  7998       L1     8  0.32
      P1  H  7997  8010       L1     4  0.66

> <Gold.Chemscore.Hbond.Weighted>
-5.4864

> <Gold.Chemscore.Metal.Weighted>
-0.0000

> <Gold.Chemscore.Lipo.Weighted>
-15.1299

> <Gold.Chemscore.Internal_Hbond.Weighted>
0.0000

> <Gold.Chemscore.DEClash.Weighted>
0.1313

> <Gold.Chemscore.DEInternal.Weighted>
2.2783

> <Gold.Chemscore.Rot.Weighted>
5.8128

> <Gold.Chemscore.Internal.Correction.Weighted>
   9.000000E+99

> <Gold.Protein.RotatedTorsions>
[ 6907 6896 6895 6894 ] final  -16.83 input  -60.11 | X-H torsion
[ 7974 7965 7964 7962 ] final  108.73 input  175.53 | X-H torsion
[ 8008 7997 7996 7995 ] final   56.20 input   59.86 | X-H torsion
[ 10167 10162 10161 10158 ] final -139.44 input  -65.29 | X-H torsion
[ 10718 10713 10712 10709 ] final   40.84 input   66.30 | X-H torsion
[ 10763 10752 10751 10750 ] final  107.39 input  -60.55 | X-H torsion
[ 11005 11000 10999 10996 ] final   10.17 input  -57.11 | X-H torsion

> <Gold.Protein.ActiveResidues>
 VAL166  LYS551  ARG553  GLY616  TRP617  ASP618  TYR619  PRO620  LYS621  CYS622 
 ASP623  PHE694  ASN695  SER759  ASP760  ASP761  ALA762  ILE779  LEU786  VAL792 
 PHE793  MET794  SER795  GLU796  ALA797  LYS798  CYS799  TRP800  GLU811  SER814 

> <Gold.Protein.RotatedAtoms>
  151.3026  135.0773  159.9243 H   0  0  0  0  0  0  0  0  0  0  0  0  # atno 6907 bound_to 6896
  152.5294  133.9818  159.7820 H   0  0  0  0  0  0  0  0  0  0  0  0  # atno 6908 bound_to 6896
  151.0107  133.5916  159.2713 H   0  0  0  0  0  0  0  0  0  0  0  0  # atno 6909 bound_to 6896
  145.2769  139.2646  143.3936 H   0  0  0  0  0  0  0  0  0  0  0  0  # atno 7974 bound_to 7965
  155.5135  140.3478  155.4393 H   0  0  0  0  0  0  0  0  0  0  0  0  # atno 8008 bound_to 7997
  156.0833  140.1392  156.9712 H   0  0  0  0  0  0  0  0  0  0  0  0  # atno 8009 bound_to 7997
  154.4592  140.0941  156.6821 H   0  0  0  0  0  0  0  0  0  0  0  0  # atno 8010 bound_to 7997
  139.8379  143.7360  152.2664 H   0  0  0  0  0  0  0  0  0  0  0  0  # atno 10167 bound_to 10162
  157.3867  130.7784  149.7236 H   0  0  0  0  0  0  0  0  0  0  0  0  # atno 10718 bound_to 10713
  153.4061  135.3846  155.2020 H   0  0  0  0  0  0  0  0  0  0  0  0  # atno 10763 bound_to 10752
  154.8734  135.3783  154.4558 H   0  0  0  0  0  0  0  0  0  0  0  0  # atno 10764 bound_to 10752
  153.5061  135.7088  153.5868 H   0  0  0  0  0  0  0  0  0  0  0  0  # atno 10765 bound_to 10752
  140.5175  134.0592  155.7835 H   0  0  0  0  0  0  0  0  0  0  0  0  # atno 11005 bound_to 11000
  146.3229  140.3227  142.8634 LP  0  0  0  0  0  0  0  0  0  0  0  0  # atno 17320 bound_to 7965
  144.9286  140.7950  143.5703 LP  0  0  0  0  0  0  0  0  0  0  0  0  # atno 17321 bound_to 7965
  139.7588  144.7513  151.0395 LP  0  0  0  0  0  0  0  0  0  0  0  0  # atno 17342 bound_to 10162
  140.7801  143.4775  151.0063 LP  0  0  0  0  0  0  0  0  0  0  0  0  # atno 17343 bound_to 10162
  155.9788  130.4047  150.3624 LP  0  0  0  0  0  0  0  0  0  0  0  0  # atno 17370 bound_to 10713
  157.1735  131.0374  151.2784 LP  0  0  0  0  0  0  0  0  0  0  0  0  # atno 17371 bound_to 10713
  141.1352  133.9233  157.2448 LP  0  0  0  0  0  0  0  0  0  0  0  0  # atno 17394 bound_to 11000
  139.9624  135.0150  156.9297 LP  0  0  0  0  0  0  0  0  0  0  0  0  # atno 17395 bound_to 11000

$$$$
