AV-unprocessed.smi:3018|AV-procd|sdf|11481|dock1
  -GOLD-   2272016423D 1   1.00000     0.00000
 Structure written by MMmdl.
 44 45  0  0  0  0  0  0  0  0  2 V2000
  149.5876  132.5810  154.2806 C   0  0  0  0  0  0  0  0  0  0  0  0
  148.6324  133.4210  153.4231 C   0  0  0  0  0  0  0  0  0  0  0  0
  147.4246  133.9442  154.2230 C   0  0  2  0  0  0  0  0  0  0  0  0
  146.4537  134.4181  153.2922 O   0  0  0  0  0  0  0  0  0  0  0  0
  145.7210  133.4214  152.5845 C   0  0  0  0  0  0  0  0  0  0  0  0
  146.4656  133.0485  151.2869 C   0  0  0  0  0  0  0  0  0  0  0  0
  145.6421  132.0737  150.4300 C   0  0  0  0  0  0  0  0  0  0  0  0
  144.2441  132.6363  150.1263 C   0  0  0  0  0  0  0  0  0  0  0  0
  143.5033  133.0210  151.4169 C   0  0  0  0  0  0  0  0  0  0  0  0
  144.3322  133.9992  152.2641 C   0  0  0  0  0  0  0  0  0  0  0  0
  147.8168  135.0880  155.1715 C   0  0  0  0  0  0  0  0  0  0  0  0
  147.6191  134.9918  156.3831 O   0  0  0  0  0  0  0  0  0  0  0  0
  148.3932  136.1565  154.6037 N   0  0  0  0  0  0  0  0  0  0  0  0
  148.9440  137.2931  155.3319 C   0  0  0  0  0  0  0  0  0  0  0  0
  149.4450  138.3846  154.3700 C   0  0  0  0  0  0  0  0  0  0  0  0
  150.8979  138.7658  154.5985 C   0  0  0  0  0  0  0  0  0  0  0  0
  151.3993  139.9193  154.8474 N   0  0  0  0  0  0  0  0  0  0  0  0
  152.8071  139.6850  154.9756 N   0  5  0  0  0  0  0  0  0  0  0  0
  153.0092  138.3590  154.7802 C   0  0  0  0  0  0  0  0  0  0  0  0
  154.0664  137.7326  154.7981 O   0  0  0  0  0  0  0  0  0  0  0  0
  151.8373  137.7764  154.5498 N   0  0  0  0  0  0  0  0  0  0  0  0
  151.6651  136.7993  154.3660 H   0  0  0  0  0  0  0  0  0  0  0  0
  150.4327  132.2285  153.6890 H   0  0  0  0  0  0  0  0  0  0  0  0
  149.0828  131.7071  154.6931 H   0  0  0  0  0  0  0  0  0  0  0  0
  149.9833  133.1626  155.1136 H   0  0  0  0  0  0  0  0  0  0  0  0
  149.1887  134.2603  153.0032 H   0  0  0  0  0  0  0  0  0  0  0  0
  148.2903  132.8245  152.5763 H   0  0  0  0  0  0  0  0  0  0  0  0
  147.0215  133.1175  154.8101 H   0  0  0  0  0  0  0  0  0  0  0  0
  145.5794  132.5273  153.1927 H   0  0  0  0  0  0  0  0  0  0  0  0
  146.6730  133.9522  150.7125 H   0  0  0  0  0  0  0  0  0  0  0  0
  147.4323  132.6005  151.5152 H   0  0  0  0  0  0  0  0  0  0  0  0
  146.1677  131.8618  149.4985 H   0  0  0  0  0  0  0  0  0  0  0  0
  145.5481  131.1223  150.9537 H   0  0  0  0  0  0  0  0  0  0  0  0
  144.3354  133.5128  149.4838 H   0  0  0  0  0  0  0  0  0  0  0  0
  143.6617  131.9023  149.5686 H   0  0  0  0  0  0  0  0  0  0  0  0
  142.5371  133.4637  151.1744 H   0  0  0  0  0  0  0  0  0  0  0  0
  143.2921  132.1238  151.9987 H   0  0  0  0  0  0  0  0  0  0  0  0
  143.8030  134.2253  153.1905 H   0  0  0  0  0  0  0  0  0  0  0  0
  144.4398  134.9437  151.7292 H   0  0  0  0  0  0  0  0  0  0  0  0
  148.5210  136.1497  153.6022 H   0  0  0  0  0  0  0  0  0  0  0  0
  148.1670  137.7005  155.9795 H   0  0  0  0  0  0  0  0  0  0  0  0
  149.7592  136.9686  155.9817 H   0  0  0  0  0  0  0  0  0  0  0  0
  149.3104  138.0559  153.3384 H   0  0  0  0  0  0  0  0  0  0  0  0
  148.8338  139.2800  154.4851 H   0  0  0  0  0  0  0  0  0  0  0  0
  1  2  1  0  0  0  0
  1 23  1  0  0  0  0
  1 24  1  0  0  0  0
  1 25  1  0  0  0  0
  2  3  1  0  0  0  0
  2 26  1  0  0  0  0
  2 27  1  0  0  0  0
  3  4  1  0  0  0  0
  3 11  1  0  0  0  0
  3 28  1  0  0  0  0
  4  5  1  0  0  0  0
  5 10  1  0  0  0  0
  5  6  1  0  0  0  0
  5 29  1  0  0  0  0
  6  7  1  0  0  0  0
  6 30  1  0  0  0  0
  6 31  1  0  0  0  0
  7  8  1  0  0  0  0
  7 32  1  0  0  0  0
  7 33  1  0  0  0  0
  8  9  1  0  0  0  0
  8 34  1  0  0  0  0
  8 35  1  0  0  0  0
  9 10  1  0  0  0  0
  9 36  1  0  0  0  0
  9 37  1  0  0  0  0
 10 38  1  0  0  0  0
 10 39  1  0  0  0  0
 11 12  2  0  0  0  0
 11 13  1  0  0  0  0
 13 14  1  0  0  0  0
 13 40  1  0  0  0  0
 14 15  1  0  0  0  0
 14 41  1  0  0  0  0
 14 42  1  0  0  0  0
 15 16  1  0  0  0  0
 15 43  1  0  0  0  0
 15 44  1  0  0  0  0
 16 21  1  0  0  0  0
 16 17  2  0  0  0  0
 17 18  1  0  0  0  0
 18 19  1  0  0  0  0
 19 20  2  0  0  0  0
 19 21  1  0  0  0  0
 21 22  1  0  0  0  0
M  CHG  1  18  -1
M  END
> <s_m_source_file>
AV-unprocessed.smi

> <i_m_source_file_index>
3018

> <i_lp_mmshare_version>
43012

> <i_f3d_flags>
0

> <s_epik_input>
W0NIMl0xW0NIMl1bQ0gyXVtDSDJdW0NIMl1bQ0hdMU9bQ0BASF0oW0NIMl1bQ0gzXSlDKD1PKVtOSF1bQ0gyXVtDSDJdYzJuW25IXWMoPU8pW25IXTI=

> <s_epik_cmdline>
J2VwaWtfcHl0aG9uJywgJy1waCcsICc3LjAnLCAnLXRuJywgJzgnLCAnLW1hJywgJzIwMCcsICctbWV0YWxfYmluZGluZycsICctaW1hZScsICc8aW5maWxlLm1hZT4nLCAnLW9tYWUnLCAnPG91dGZpbGUubWFlPic=

> <r_lp_tautomer_probability>
1

> <r_epik_Ionization_Penalty>
14.1812

> <r_epik_Ionization_Penalty_Charging>
13.7758

> <r_epik_Ionization_Penalty_Neutral>
0.405355

> <r_epik_State_Penalty>
4.92413

> <r_epik_Charging_Adjusted_Penalty>
18.7

> <i_epik_Tot_Q>
-1

> <i_epik_Tot_abs_Q>
1

> <r_epik_Metal_State_Penalty>
1.32654

> <b_epik_Metal_Only>
1

> <s_lp_Force_Field>
OPLS_2005

> <r_lp_Energy>
19.863

> <b_lp_Chiralities_Consistent>
1

> <s_lp_Variant>
AV-unprocessed.smi:3018-3

> <Gold.Version>
5.8.1

> <Gold.Id.Protein>
6NUR|6NUR_protein|mol2

> <Gold.PLP.Fitness>
46.7333

> <Gold.PLP.PLP>
-37.3066

> <Gold.PLP.part.hbond>
-5.0000

> <Gold.PLP.part.metal>
0.0000

> <Gold.PLP.part.buried>
-6.6210

> <Gold.PLP.part.nonpolar>
-26.8334

> <Gold.PLP.part.repulsive>
0.3311

> <Gold.PLP.ligand.clash>
0.0000

> <Gold.PLP.ligand.torsion>
0.9800

> <Gold.PLP.Chemscore.Hbond>
3.5500

> <Gold.PLP.Chemscore.CHOScore>
0.0000

> <Gold.PLP.Chemscore.Metal>
0.0000

> <Gold.Chemscore.Hbonds>
donor molecule, donor type, donor heavy atom, donor atom, acceptor molecule, acceptor atom, score
      L1  H    13    40       P1  7948  1.00
      P1  H  7989  7998       L1    17  0.55
      P1  H  7997  8008       L1    18  2.00

> <Gold.PLP.Chemscore.Internal.Correction>
0.7367

> <Gold.Rescore>
     Score         DG    S(hbond)    S(metal)    S(lipo)     H(rot)  DE(clash)    DE(int)     intcor
     14.28     -15.88       2.94        0.00      70.21       2.98       0.50       1.10       ----

> <Gold.Chemscore.Fitness>
14.2850

> <Gold.Chemscore.DG>
-15.8805

> <Gold.Chemscore.ZeroCoef>
-5.4800

> <Gold.Chemscore.Hbond>
2.9365

> <Gold.Chemscore.Metal>
0.0000

> <Gold.Chemscore.Lipo>
70.2063

> <Gold.Chemscore.Internal_Hbond>
0.0000

> <Gold.Chemscore.DEClash>
0.4965

> <Gold.Chemscore.DEInternal>
1.0990

> <Gold.Chemscore.Rot>
2.9772

> <Gold.Chemscore.Internal.Correction>
   9.000000E+99

> <Gold.Chemscore.Hbonds>
donor molecule, donor type, donor heavy atom, donor atom, acceptor molecule, acceptor atom, score
      L1  H    13    40       P1  7948  1.00
      P1  H  7989  7998       L1    17  0.03
      P1  H  7997  8008       L1    18  0.34

> <Gold.Chemscore.Hbond.Weighted>
-9.8080

> <Gold.Chemscore.Metal.Weighted>
-0.0000

> <Gold.Chemscore.Lipo.Weighted>
-8.2141

> <Gold.Chemscore.Internal_Hbond.Weighted>
0.0000

> <Gold.Chemscore.DEClash.Weighted>
0.4965

> <Gold.Chemscore.DEInternal.Weighted>
1.0990

> <Gold.Chemscore.Rot.Weighted>
7.6216

> <Gold.Chemscore.Internal.Correction.Weighted>
   9.000000E+99

> <Gold.Protein.RotatedTorsions>
[ 6907 6896 6895 6894 ] final  128.74 input  -60.11 | X-H torsion
[ 7974 7965 7964 7962 ] final    3.67 input  175.53 | X-H torsion
[ 8008 7997 7996 7995 ] final  -29.02 input   59.86 | X-H torsion
[ 10167 10162 10161 10158 ] final   51.49 input  -65.29 | X-H torsion
[ 10718 10713 10712 10709 ] final  130.15 input   66.30 | X-H torsion
[ 10763 10752 10751 10750 ] final   -1.22 input  -60.55 | X-H torsion
[ 11005 11000 10999 10996 ] final   44.34 input  -57.11 | X-H torsion

> <Gold.Protein.ActiveResidues>
 VAL166  LYS551  ARG553  GLY616  TRP617  ASP618  TYR619  PRO620  LYS621  CYS622 
 ASP623  PHE694  ASN695  SER759  ASP760  ASP761  ALA762  ILE779  LEU786  VAL792 
 PHE793  MET794  SER795  GLU796  ALA797  LYS798  CYS799  TRP800  GLU811  SER814 

> <Gold.Protein.RotatedAtoms>
  152.3691  133.6395  159.6072 H   0  0  0  0  0  0  0  0  0  0  0  0  # atno 6907 bound_to 6896
  150.7655  133.9300  159.3433 H   0  0  0  0  0  0  0  0  0  0  0  0  # atno 6908 bound_to 6896
  151.7125  135.0911  160.0321 H   0  0  0  0  0  0  0  0  0  0  0  0  # atno 6909 bound_to 6896
  146.2445  140.0651  142.8366 H   0  0  0  0  0  0  0  0  0  0  0  0  # atno 7974 bound_to 7965
  154.4307  140.1829  156.1182 H   0  0  0  0  0  0  0  0  0  0  0  0  # atno 8008 bound_to 7997
  156.0164  140.3345  155.6968 H   0  0  0  0  0  0  0  0  0  0  0  0  # atno 8009 bound_to 7997
  155.6038  140.0643  157.2716 H   0  0  0  0  0  0  0  0  0  0  0  0  # atno 8010 bound_to 7997
  140.2614  144.3369  150.6317 H   0  0  0  0  0  0  0  0  0  0  0  0  # atno 10167 bound_to 10162
  157.5088  131.1096  150.9322 H   0  0  0  0  0  0  0  0  0  0  0  0  # atno 10718 bound_to 10713
  153.3421  135.6981  153.6859 H   0  0  0  0  0  0  0  0  0  0  0  0  # atno 10763 bound_to 10752
  153.5619  135.3533  155.2803 H   0  0  0  0  0  0  0  0  0  0  0  0  # atno 10764 bound_to 10752
  154.8638  135.4251  154.2636 H   0  0  0  0  0  0  0  0  0  0  0  0  # atno 10765 bound_to 10752
  140.1561  134.4400  155.8349 H   0  0  0  0  0  0  0  0  0  0  0  0  # atno 11005 bound_to 11000
  145.0866  140.9256  143.4794 LP  0  0  0  0  0  0  0  0  0  0  0  0  # atno 17320 bound_to 7965
  145.0815  139.2956  143.5781 LP  0  0  0  0  0  0  0  0  0  0  0  0  # atno 17321 bound_to 7965
  140.5963  143.2167  151.7158 LP  0  0  0  0  0  0  0  0  0  0  0  0  # atno 17342 bound_to 10162
  139.5016  144.3862  152.0326 LP  0  0  0  0  0  0  0  0  0  0  0  0  # atno 17343 bound_to 10162
  156.9969  130.5585  149.5308 LP  0  0  0  0  0  0  0  0  0  0  0  0  # atno 17370 bound_to 10713
  156.0276  130.5369  150.8448 LP  0  0  0  0  0  0  0  0  0  0  0  0  # atno 17371 bound_to 10713
  141.2204  133.6893  156.7510 LP  0  0  0  0  0  0  0  0  0  0  0  0  # atno 17394 bound_to 11000
  140.2546  134.8514  157.3700 LP  0  0  0  0  0  0  0  0  0  0  0  0  # atno 17395 bound_to 11000

$$$$
