AV-unprocessed.smi:784|AV-procd|sdf|3719|dock8
  -GOLD-   22720 1143D 1   1.00000     0.00000
 Structure written by MMmdl.
 37 38  0  0  0  0  0  0  0  0  2 V2000
  146.7628  140.7939  154.6173 C   0  0  0  0  0  0  0  0  0  0  0  0
  148.1465  140.2224  154.7133 C   0  0  0  0  0  0  0  0  0  0  0  0
  148.5343  138.8573  154.7914 C   0  0  0  0  0  0  0  0  0  0  0  0
  149.8972  138.9122  154.8701 C   0  0  0  0  0  0  0  0  0  0  0  0
  150.9542  137.8622  154.9770 C   0  0  0  0  0  0  0  0  0  0  0  0
  152.4899  138.5653  155.7213 S   0  0  0  0  0  0  0  0  0  0  0  0
  153.4091  137.4283  155.8908 O   0  0  0  0  0  0  0  0  0  0  0  0
  152.9258  139.6541  154.8306 O   0  0  0  0  0  0  0  0  0  0  0  0
  151.9195  139.1020  157.1431 N   0  5  0  0  0  0  0  0  0  0  0  0
  152.2962  140.4262  157.6183 C   0  0  0  0  0  0  0  0  0  0  0  0
  153.0302  140.2662  158.9718 C   0  0  0  0  0  0  0  0  0  0  0  0
  153.6579  141.5419  159.5767 C   0  0  0  0  0  0  0  0  0  0  0  0
  152.6803  142.6889  159.9086 C   0  0  0  0  0  0  0  0  0  0  0  0
  152.2670  143.4885  158.6620 C   0  0  0  0  0  0  0  0  0  0  0  0
  151.2012  142.8332  157.7519 C   0  0  0  0  0  0  0  0  0  0  0  0
  151.0232  141.2944  157.7799 C   0  0  0  0  0  0  0  0  0  0  0  0
  150.3155  140.2042  154.8354 O   0  0  0  0  0  0  0  0  0  0  0  0
  149.1918  141.0325  154.7354 N   0  0  0  0  0  0  0  0  0  0  0  0
  146.0444  140.0335  154.3111 H   0  0  0  0  0  0  0  0  0  0  0  0
  146.7176  141.6037  153.8886 H   0  0  0  0  0  0  0  0  0  0  0  0
  146.4374  141.1903  155.5793 H   0  0  0  0  0  0  0  0  0  0  0  0
  147.9127  137.9743  154.7991 H   0  0  0  0  0  0  0  0  0  0  0  0
  150.6206  137.0181  155.5797 H   0  0  0  0  0  0  0  0  0  0  0  0
  151.2083  137.4845  153.9868 H   0  0  0  0  0  0  0  0  0  0  0  0
  152.9715  140.9169  156.9161 H   0  0  0  0  0  0  0  0  0  0  0  0
  152.3509  139.8280  159.7045 H   0  0  0  0  0  0  0  0  0  0  0  0
  153.8334  139.5380  158.8491 H   0  0  0  0  0  0  0  0  0  0  0  0
  154.1502  141.2490  160.5045 H   0  0  0  0  0  0  0  0  0  0  0  0
  154.4613  141.9108  158.9362 H   0  0  0  0  0  0  0  0  0  0  0  0
  151.8070  142.3209  160.4484 H   0  0  0  0  0  0  0  0  0  0  0  0
  153.1872  143.3720  160.5908 H   0  0  0  0  0  0  0  0  0  0  0  0
  151.8953  144.4654  158.9733 H   0  0  0  0  0  0  0  0  0  0  0  0
  153.1586  143.7012  158.0707 H   0  0  0  0  0  0  0  0  0  0  0  0
  150.2337  143.2657  158.0093 H   0  0  0  0  0  0  0  0  0  0  0  0
  151.3842  143.1559  156.7256 H   0  0  0  0  0  0  0  0  0  0  0  0
  150.3176  141.0558  156.9826 H   0  0  0  0  0  0  0  0  0  0  0  0
  150.5083  141.0087  158.6982 H   0  0  0  0  0  0  0  0  0  0  0  0
  1  2  1  0  0  0  0
  1 19  1  0  0  0  0
  1 20  1  0  0  0  0
  1 21  1  0  0  0  0
  2 18  2  0  0  0  0
  2  3  1  0  0  0  0
  3  4  2  0  0  0  0
  3 22  1  0  0  0  0
  4  5  1  0  0  0  0
  4 17  1  0  0  0  0
  5  6  1  0  0  0  0
  5 23  1  0  0  0  0
  5 24  1  0  0  0  0
  6  7  2  0  0  0  0
  6  8  2  0  0  0  0
  6  9  1  0  0  0  0
  9 10  1  0  0  0  0
 10 16  1  0  0  0  0
 10 11  1  0  0  0  0
 10 25  1  0  0  0  0
 11 12  1  0  0  0  0
 11 26  1  0  0  0  0
 11 27  1  0  0  0  0
 12 13  1  0  0  0  0
 12 28  1  0  0  0  0
 12 29  1  0  0  0  0
 13 14  1  0  0  0  0
 13 30  1  0  0  0  0
 13 31  1  0  0  0  0
 14 15  1  0  0  0  0
 14 32  1  0  0  0  0
 14 33  1  0  0  0  0
 15 16  1  0  0  0  0
 15 34  1  0  0  0  0
 15 35  1  0  0  0  0
 16 36  1  0  0  0  0
 16 37  1  0  0  0  0
 17 18  1  0  0  0  0
M  CHG  1   9  -1
M  END
> <s_m_source_file>
AV-unprocessed.smi

> <i_m_source_file_index>
784

> <i_lp_mmshare_version>
43012

> <i_f3d_flags>
0

> <s_epik_input>
W0NIM11jMVtjSF1jKG9uMSlbQ0gyXVMoPU8pKD1PKVtOSF1bQ0hdMltDSDJdW0NIMl1bQ0gyXVtDSDJdW0NIMl1bQ0gyXTI=

> <s_epik_cmdline>
J2VwaWtfcHl0aG9uJywgJy1waCcsICc3LjAnLCAnLXRuJywgJzgnLCAnLW1hJywgJzIwMCcsICctbWV0YWxfYmluZGluZycsICctaW1hZScsICc8aW5maWxlLm1hZT4nLCAnLW9tYWUnLCAnPG91dGZpbGUubWFlPic=

> <r_lp_tautomer_probability>
1

> <r_epik_Ionization_Penalty>
5.56674

> <r_epik_Ionization_Penalty_Charging>
5.56674

> <r_epik_Ionization_Penalty_Neutral>
9.19761e-10

> <r_epik_State_Penalty>
5.56669

> <r_epik_Charging_Adjusted_Penalty>
11.1334

> <i_epik_Tot_Q>
-1

> <i_epik_Tot_abs_Q>
1

> <r_epik_Metal_State_Penalty>
1.56499

> <b_epik_Metal_Only>
1

> <s_lp_Force_Field>
OPLS_2005

> <r_lp_Energy>
11.8728

> <b_lp_Chiralities_Consistent>
1

> <s_lp_Variant>
AV-unprocessed.smi:784-2

> <Gold.Version>
5.8.1

> <Gold.Id.Protein>
6NUR|6NUR_protein|mol2

> <Gold.PLP.Fitness>
49.9124

> <Gold.PLP.PLP>
-41.5482

> <Gold.PLP.part.hbond>
-5.7689

> <Gold.PLP.part.metal>
0.0000

> <Gold.PLP.part.buried>
-3.8677

> <Gold.PLP.part.nonpolar>
-31.6171

> <Gold.PLP.part.repulsive>
0.3258

> <Gold.PLP.ligand.clash>
0.0000

> <Gold.PLP.ligand.torsion>
0.9015

> <Gold.PLP.Chemscore.Hbond>
3.0585

> <Gold.PLP.Chemscore.CHOScore>
0.0000

> <Gold.PLP.Chemscore.Metal>
0.0000

> <Gold.Chemscore.Hbonds>
donor molecule, donor type, donor heavy atom, donor atom, acceptor molecule, acceptor atom, score
      P1  H  7989  7998       L1    17  1.00
      P1  H  7997  8008       L1     8  0.85
      P1  H 10752 10763       L1     7  0.31

> <Gold.PLP.Chemscore.Internal.Correction>
0.9918

> <Gold.Rescore>
     Score         DG    S(hbond)    S(metal)    S(lipo)     H(rot)  DE(clash)    DE(int)     intcor
     17.76     -20.48       2.28        0.00      92.41       1.34       0.13       2.59       ----

> <Gold.Chemscore.Fitness>
17.7566

> <Gold.Chemscore.DG>
-20.4770

> <Gold.Chemscore.ZeroCoef>
-5.4800

> <Gold.Chemscore.Hbond>
2.2803

> <Gold.Chemscore.Metal>
0.0000

> <Gold.Chemscore.Lipo>
92.4139

> <Gold.Chemscore.Internal_Hbond>
0.0000

> <Gold.Chemscore.DEClash>
0.1342

> <Gold.Chemscore.DEInternal>
2.5862

> <Gold.Chemscore.Rot>
1.3405

> <Gold.Chemscore.Internal.Correction>
   9.000000E+99

> <Gold.Chemscore.Hbonds>
donor molecule, donor type, donor heavy atom, donor atom, acceptor molecule, acceptor atom, score
      P1  H  7989  7998       L1    17  0.53
      P1  H  7997  8008       L1     8  0.15
      P1  H 10752 10763       L1     7  0.30

> <Gold.Chemscore.Hbond.Weighted>
-7.6164

> <Gold.Chemscore.Metal.Weighted>
-0.0000

> <Gold.Chemscore.Lipo.Weighted>
-10.8124

> <Gold.Chemscore.Internal_Hbond.Weighted>
0.0000

> <Gold.Chemscore.DEClash.Weighted>
0.1342

> <Gold.Chemscore.DEInternal.Weighted>
2.5862

> <Gold.Chemscore.Rot.Weighted>
3.4318

> <Gold.Chemscore.Internal.Correction.Weighted>
   9.000000E+99

> <Gold.Protein.RotatedTorsions>
[ 6907 6896 6895 6894 ] final -156.79 input  -60.11 | X-H torsion
[ 7974 7965 7964 7962 ] final -114.91 input  175.53 | X-H torsion
[ 8008 7997 7996 7995 ] final  -15.60 input   59.86 | X-H torsion
[ 10167 10162 10161 10158 ] final  105.61 input  -65.29 | X-H torsion
[ 10718 10713 10712 10709 ] final -157.93 input   66.30 | X-H torsion
[ 10763 10752 10751 10750 ] final   99.29 input  -60.55 | X-H torsion
[ 11005 11000 10999 10996 ] final -154.56 input  -57.11 | X-H torsion

> <Gold.Protein.ActiveResidues>
 VAL166  LYS551  ARG553  GLY616  TRP617  ASP618  TYR619  PRO620  LYS621  CYS622 
 ASP623  PHE694  ASN695  SER759  ASP760  ASP761  ALA762  ILE779  LEU786  VAL792 
 PHE793  MET794  SER795  GLU796  ALA797  LYS798  CYS799  TRP800  GLU811  SER814 

> <Gold.Protein.RotatedAtoms>
  151.2929  133.4157  159.2634 H   0  0  0  0  0  0  0  0  0  0  0  0  # atno 6907 bound_to 6896
  151.0261  134.9506  159.8096 H   0  0  0  0  0  0  0  0  0  0  0  0  # atno 6908 bound_to 6896
  152.5335  134.2891  159.9089 H   0  0  0  0  0  0  0  0  0  0  0  0  # atno 6909 bound_to 6896
  145.1146  140.8632  143.3850 H   0  0  0  0  0  0  0  0  0  0  0  0  # atno 7974 bound_to 7965
  154.5118  140.2192  155.9142 H   0  0  0  0  0  0  0  0  0  0  0  0  # atno 8008 bound_to 7997
  156.1561  140.3151  155.8694 H   0  0  0  0  0  0  0  0  0  0  0  0  # atno 8009 bound_to 7997
  155.3844  140.0474  157.3033 H   0  0  0  0  0  0  0  0  0  0  0  0  # atno 8010 bound_to 7997
  139.7078  144.7083  151.1077 H   0  0  0  0  0  0  0  0  0  0  0  0  # atno 10167 bound_to 10162
  156.5472  130.8589  151.2768 H   0  0  0  0  0  0  0  0  0  0  0  0  # atno 10718 bound_to 10713
  153.2996  135.4118  155.1240 H   0  0  0  0  0  0  0  0  0  0  0  0  # atno 10763 bound_to 10752
  154.8545  135.3538  154.5870 H   0  0  0  0  0  0  0  0  0  0  0  0  # atno 10764 bound_to 10752
  153.6295  135.7061  153.5339 H   0  0  0  0  0  0  0  0  0  0  0  0  # atno 10765 bound_to 10752
  140.6960  134.3989  157.5214 H   0  0  0  0  0  0  0  0  0  0  0  0  # atno 11005 bound_to 11000
  145.0809  139.2960  143.5784 LP  0  0  0  0  0  0  0  0  0  0  0  0  # atno 17320 bound_to 7965
  146.3524  140.0315  142.8650 LP  0  0  0  0  0  0  0  0  0  0  0  0  # atno 17321 bound_to 7965
  140.7726  143.5334  150.9396 LP  0  0  0  0  0  0  0  0  0  0  0  0  # atno 17342 bound_to 10162
  139.9018  143.6827  152.3130 LP  0  0  0  0  0  0  0  0  0  0  0  0  # atno 17343 bound_to 10162
  157.7394  130.9831  150.2314 LP  0  0  0  0  0  0  0  0  0  0  0  0  # atno 17370 bound_to 10713
  156.2918  130.3746  149.7834 LP  0  0  0  0  0  0  0  0  0  0  0  0  # atno 17371 bound_to 10713
  139.8910  134.8791  156.2342 LP  0  0  0  0  0  0  0  0  0  0  0  0  # atno 17394 bound_to 11000
  141.0203  133.7045  156.1256 LP  0  0  0  0  0  0  0  0  0  0  0  0  # atno 17395 bound_to 11000

$$$$
