AV-unprocessed.smi:15|AV-procd|sdf|85|dock2
  -GOLD-   2262015223D 1   1.00000     0.00000
 Structure written by MMmdl.
 53 56  0  0  0  0  0  0  0  0  1 V2000
  153.9800  137.9136  161.0861 C   0  0  0  0  0  0  0  0  0  0  0  0
  153.8936  139.3473  160.5385 C   0  0  0  0  0  0  0  0  0  0  0  0
  152.8941  139.5059  159.4815 N   0  0  0  0  0  0  0  0  0  0  0  0
  152.7037  140.8492  158.9409 C   0  0  0  0  0  0  0  0  0  0  0  0
  152.1488  141.8265  159.9890 C   0  0  2  0  0  0  0  0  0  0  0  0
  152.0437  143.2722  159.5036 C   0  0  0  0  0  0  0  0  0  0  0  0
  152.1549  144.0895  160.7817 C   0  0  0  0  0  0  0  0  0  0  0  0
  152.6668  143.0899  161.8229 C   0  0  0  0  0  0  0  0  0  0  0  0
  153.0479  141.9406  161.0795 O   0  0  0  0  0  0  0  0  0  0  0  0
  152.9341  138.5713  158.5070 C   0  0  0  0  0  0  0  0  0  0  0  0
  154.0565  138.5134  157.7492 N   0  0  0  0  0  0  0  0  0  0  0  0
  154.1521  137.6105  156.7686 C   0  0  0  0  0  0  0  0  0  0  0  0
  153.2623  136.6897  156.3909 N   0  0  0  0  0  0  0  0  0  0  0  0
  152.1374  136.7397  157.1612 C   0  0  0  0  0  0  0  0  0  0  0  0
  151.8914  137.6426  158.2333 C   0  0  0  0  0  0  0  0  0  0  0  0
  150.6414  137.3943  158.7867 N   0  0  0  0  0  0  0  0  0  0  0  0
  150.1722  136.4040  158.0775 C   0  0  0  0  0  0  0  0  0  0  0  0
  151.0071  135.9448  157.0833 N   0  0  0  0  0  0  0  0  0  0  0  0
  150.7383  134.8594  156.1516 C   0  0  0  0  0  0  0  0  0  0  0  0
  149.5455  135.1432  155.2014 C   0  0  2  0  0  0  0  0  0  0  0  0
  149.8798  136.2735  154.4126 O   0  0  0  0  0  0  0  0  0  0  0  0
  148.2400  135.4495  155.9287 C   0  0  0  0  0  0  0  0  0  0  0  0
  147.1830  135.0217  154.9223 C   0  0  0  0  0  0  0  0  0  0  0  0
  147.7355  133.8349  154.3800 O   0  0  0  0  0  0  0  0  0  0  0  0
  149.1446  133.9970  154.2302 C   0  0  2  0  0  0  0  0  0  0  0  0
  149.7906  132.6249  154.4791 C   0  0  0  0  0  0  0  0  0  0  0  0
  154.6876  137.8612  161.9135 H   0  0  0  0  0  0  0  0  0  0  0  0
  154.3150  137.2075  160.3258 H   0  0  0  0  0  0  0  0  0  0  0  0
  153.0114  137.5766  161.4562 H   0  0  0  0  0  0  0  0  0  0  0  0
  153.6452  140.0168  161.3612 H   0  0  0  0  0  0  0  0  0  0  0  0
  154.8708  139.6660  160.1756 H   0  0  0  0  0  0  0  0  0  0  0  0
  153.6620  141.2165  158.5714 H   0  0  0  0  0  0  0  0  0  0  0  0
  152.0320  140.8271  158.0804 H   0  0  0  0  0  0  0  0  0  0  0  0
  151.1864  141.4863  160.3743 H   0  0  0  0  0  0  0  0  0  0  0  0
  152.8797  143.5105  158.8446 H   0  0  0  0  0  0  0  0  0  0  0  0
  151.1205  143.4628  158.9553 H   0  0  0  0  0  0  0  0  0  0  0  0
  152.8468  144.9220  160.6492 H   0  0  0  0  0  0  0  0  0  0  0  0
  151.1901  144.4991  161.0824 H   0  0  0  0  0  0  0  0  0  0  0  0
  153.5045  143.4793  162.4018 H   0  0  0  0  0  0  0  0  0  0  0  0
  151.8700  142.8189  162.5172 H   0  0  0  0  0  0  0  0  0  0  0  0
  155.0736  137.6286  156.2054 H   0  0  0  0  0  0  0  0  0  0  0  0
  149.1990  135.9736  158.2647 H   0  0  0  0  0  0  0  0  0  0  0  0
  151.6466  134.6726  155.5771 H   0  0  0  0  0  0  0  0  0  0  0  0
  150.5549  133.9597  156.7392 H   0  0  0  0  0  0  0  0  0  0  0  0
  149.6918  136.0730  153.5084 H   0  0  0  0  0  0  0  0  0  0  0  0
  148.1499  134.8234  156.8170 H   0  0  0  0  0  0  0  0  0  0  0  0
  148.1412  136.4897  156.2428 H   0  0  0  0  0  0  0  0  0  0  0  0
  146.2107  134.8405  155.3807 H   0  0  0  0  0  0  0  0  0  0  0  0
  147.0631  135.7673  154.1348 H   0  0  0  0  0  0  0  0  0  0  0  0
  149.3401  134.2861  153.1958 H   0  0  0  0  0  0  0  0  0  0  0  0
  150.8743  132.6675  154.3699 H   0  0  0  0  0  0  0  0  0  0  0  0
  149.4203  131.8909  153.7631 H   0  0  0  0  0  0  0  0  0  0  0  0
  149.5612  132.2506  155.4770 H   0  0  0  0  0  0  0  0  0  0  0  0
  1  2  1  0  0  0  0
  1 27  1  0  0  0  0
  1 28  1  0  0  0  0
  1 29  1  0  0  0  0
  2  3  1  0  0  0  0
  2 30  1  0  0  0  0
  2 31  1  0  0  0  0
  3  4  1  0  0  0  0
  3 10  1  0  0  0  0
  4  5  1  0  0  0  0
  4 32  1  0  0  0  0
  4 33  1  0  0  0  0
  5  9  1  0  0  0  0
  5  6  1  0  0  0  0
  5 34  1  0  0  0  0
  6  7  1  0  0  0  0
  6 35  1  0  0  0  0
  6 36  1  0  0  0  0
  7  8  1  0  0  0  0
  7 37  1  0  0  0  0
  7 38  1  0  0  0  0
  8  9  1  0  0  0  0
  8 39  1  0  0  0  0
  8 40  1  0  0  0  0
 10 15  1  0  0  0  0
 10 11  2  0  0  0  0
 11 12  1  0  0  0  0
 12 13  2  0  0  0  0
 12 41  1  0  0  0  0
 13 14  1  0  0  0  0
 14 18  1  0  0  0  0
 14 15  2  0  0  0  0
 15 16  1  0  0  0  0
 16 17  2  0  0  0  0
 17 18  1  0  0  0  0
 17 42  1  0  0  0  0
 18 19  1  0  0  0  0
 19 20  1  0  0  0  0
 19 43  1  0  0  0  0
 19 44  1  0  0  0  0
 20 25  1  0  0  0  0
 20 21  1  0  0  0  0
 20 22  1  0  0  0  0
 21 45  1  0  0  0  0
 22 23  1  0  0  0  0
 22 46  1  0  0  0  0
 22 47  1  0  0  0  0
 23 24  1  0  0  0  0
 23 48  1  0  0  0  0
 23 49  1  0  0  0  0
 24 25  1  0  0  0  0
 25 26  1  0  0  0  0
 25 50  1  0  0  0  0
 26 51  1  0  0  0  0
 26 52  1  0  0  0  0
 26 53  1  0  0  0  0
M  END
> <s_m_source_file>
AV-unprocessed.smi

> <i_m_source_file_index>
15

> <i_lp_mmshare_version>
43012

> <i_f3d_flags>
0

> <s_epik_input>
TzFbQ0gyXVtDSDJdW0NIMl1bQ0BIXTFbQ0gyXU4oW0NIMl1bQ0gzXSljKG5bY0hdbjIpYyhjMjMpbltjSF1uM1tDSDJdW0NAQF00KFtPSF0pW0NIMl1bQ0gyXU9bQ0BIXTRbQ0gzXQ==

> <s_epik_cmdline>
J2VwaWtfcHl0aG9uJywgJy1waCcsICc3LjAnLCAnLXRuJywgJzgnLCAnLW1hJywgJzIwMCcsICctbWV0YWxfYmluZGluZycsICctaW1hZScsICc8aW5maWxlLm1hZT4nLCAnLW9tYWUnLCAnPG91dGZpbGUubWFlPic=

> <r_lp_tautomer_probability>
1

> <r_epik_Ionization_Penalty>
0.00360814

> <r_epik_Ionization_Penalty_Charging>
0

> <r_epik_Ionization_Penalty_Neutral>
0.00360814

> <r_epik_State_Penalty>
0.00237482

> <r_epik_Charging_Adjusted_Penalty>
0.00237482

> <i_epik_Tot_Q>
0

> <i_epik_Tot_abs_Q>
0

> <r_epik_Metal_State_Penalty>
-0

> <b_epik_Metal_Only>
0

> <s_lp_Force_Field>
OPLS_2005

> <r_lp_Energy>
47.4065

> <b_lp_Chiralities_Consistent>
1

> <s_lp_Variant>
AV-unprocessed.smi:15-7

> <Gold.Version>
5.8.1

> <Gold.Id.Protein>
6NUR|6NUR_protein|mol2

> <Gold.PLP.Fitness>
45.8515

> <Gold.PLP.PLP>
-37.3444

> <Gold.PLP.part.hbond>
-3.4655

> <Gold.PLP.part.metal>
0.0000

> <Gold.PLP.part.buried>
-4.5681

> <Gold.PLP.part.nonpolar>
-29.7891

> <Gold.PLP.part.repulsive>
0.0931

> <Gold.PLP.ligand.clash>
0.0000

> <Gold.PLP.ligand.torsion>
0.3499

> <Gold.PLP.Chemscore.Hbond>
2.8560

> <Gold.PLP.Chemscore.CHOScore>
0.0000

> <Gold.PLP.Chemscore.Metal>
0.0000

> <Gold.Chemscore.Hbonds>
donor molecule, donor type, donor heavy atom, donor atom, acceptor molecule, acceptor atom, score
      L1  H    21    45       P1  7948  0.95
      P1  H  7997  8009       L1    11  0.98
      P1  H 10752 10765       L1    13  0.78

> <Gold.PLP.Chemscore.Internal.Correction>
0.6389

> <Gold.Rescore>
     Score         DG    S(hbond)    S(metal)    S(lipo)     H(rot)  DE(clash)    DE(int)     intcor
     14.98     -17.69       2.57        0.00      90.19       2.71       0.00       2.70       ----

> <Gold.Chemscore.Fitness>
14.9809

> <Gold.Chemscore.DG>
-17.6890

> <Gold.Chemscore.ZeroCoef>
-5.4800

> <Gold.Chemscore.Hbond>
2.5711

> <Gold.Chemscore.Metal>
0.0000

> <Gold.Chemscore.Lipo>
90.1909

> <Gold.Chemscore.Internal_Hbond>
0.0000

> <Gold.Chemscore.DEClash>
0.0038

> <Gold.Chemscore.DEInternal>
2.7043

> <Gold.Chemscore.Rot>
2.7074

> <Gold.Chemscore.Internal.Correction>
   9.000000E+99

> <Gold.Chemscore.Hbonds>
donor molecule, donor type, donor heavy atom, donor atom, acceptor molecule, acceptor atom, score
      L1  H    21    45       P1  7948  0.21
      P1  H  7997  8009       L1    11  0.45
      P1  H 10752 10765       L1    13  0.73

> <Gold.Chemscore.Hbond.Weighted>
-8.5875

> <Gold.Chemscore.Metal.Weighted>
-0.0000

> <Gold.Chemscore.Lipo.Weighted>
-10.5523

> <Gold.Chemscore.Internal_Hbond.Weighted>
0.0000

> <Gold.Chemscore.DEClash.Weighted>
0.0038

> <Gold.Chemscore.DEInternal.Weighted>
2.7043

> <Gold.Chemscore.Rot.Weighted>
6.9308

> <Gold.Chemscore.Internal.Correction.Weighted>
   9.000000E+99

> <Gold.Protein.RotatedTorsions>
[ 6907 6896 6895 6894 ] final -165.57 input  -60.11 | X-H torsion
[ 7974 7965 7964 7962 ] final   42.29 input  175.53 | X-H torsion
[ 8008 7997 7996 7995 ] final  152.52 input   59.86 | X-H torsion
[ 10167 10162 10161 10158 ] final  -27.29 input  -65.29 | X-H torsion
[ 10718 10713 10712 10709 ] final  -88.61 input   66.30 | X-H torsion
[ 10763 10752 10751 10750 ] final -137.38 input  -60.55 | X-H torsion
[ 11005 11000 10999 10996 ] final  -12.63 input  -57.11 | X-H torsion

> <Gold.Protein.ActiveResidues>
 VAL166  LYS551  ARG553  GLY616  TRP617  ASP618  TYR619  PRO620  LYS621  CYS622 
 ASP623  PHE694  ASN695  SER759  ASP760  ASP761  ALA762  ILE779  LEU786  VAL792 
 PHE793  MET794  SER795  GLU796  ALA797  LYS798  CYS799  TRP800  GLU811  SER814 

> <Gold.Protein.RotatedAtoms>
  151.4297  133.3674  159.2766 H   0  0  0  0  0  0  0  0  0  0  0  0  # atno 6907 bound_to 6896
  150.9234  134.8652  159.7514 H   0  0  0  0  0  0  0  0  0  0  0  0  # atno 6908 bound_to 6896
  152.4993  134.4236  159.9541 H   0  0  0  0  0  0  0  0  0  0  0  0  # atno 6909 bound_to 6896
  146.0753  139.5318  142.9572 H   0  0  0  0  0  0  0  0  0  0  0  0  # atno 7974 bound_to 7965
  156.2625  140.2018  156.6346 H   0  0  0  0  0  0  0  0  0  0  0  0  # atno 8008 bound_to 7997
  154.6656  140.0556  157.0135 H   0  0  0  0  0  0  0  0  0  0  0  0  # atno 8009 bound_to 7997
  155.1211  140.3225  155.4500 H   0  0  0  0  0  0  0  0  0  0  0  0  # atno 8010 bound_to 7997
  140.7278  143.4106  151.1112 H   0  0  0  0  0  0  0  0  0  0  0  0  # atno 10167 bound_to 10162
  155.9983  130.4842  150.5046 H   0  0  0  0  0  0  0  0  0  0  0  0  # atno 10718 bound_to 10713
  154.8663  135.3644  154.5214 H   0  0  0  0  0  0  0  0  0  0  0  0  # atno 10763 bound_to 10752
  153.5844  135.7017  153.5454 H   0  0  0  0  0  0  0  0  0  0  0  0  # atno 10764 bound_to 10752
  153.3429  135.4093  155.1548 H   0  0  0  0  0  0  0  0  0  0  0  0  # atno 10765 bound_to 10752
  140.7677  133.8463  155.9180 H   0  0  0  0  0  0  0  0  0  0  0  0  # atno 11005 bound_to 11000
  145.6318  141.0302  143.1859 LP  0  0  0  0  0  0  0  0  0  0  0  0  # atno 17320 bound_to 7965
  144.7257  139.7882  143.7365 LP  0  0  0  0  0  0  0  0  0  0  0  0  # atno 17321 bound_to 7965
  139.7739  143.8454  152.3125 LP  0  0  0  0  0  0  0  0  0  0  0  0  # atno 17342 bound_to 10162
  139.8382  144.7222  150.9364 LP  0  0  0  0  0  0  0  0  0  0  0  0  # atno 17343 bound_to 10162
  157.3026  131.0648  151.2057 LP  0  0  0  0  0  0  0  0  0  0  0  0  # atno 17370 bound_to 10713
  157.3031  130.6853  149.6175 LP  0  0  0  0  0  0  0  0  0  0  0  0  # atno 17371 bound_to 10713
  140.9603  134.1664  157.4659 LP  0  0  0  0  0  0  0  0  0  0  0  0  # atno 17394 bound_to 11000
  139.8760  134.9942  156.5683 LP  0  0  0  0  0  0  0  0  0  0  0  0  # atno 17395 bound_to 11000

$$$$
