AV-unprocessed.smi:2919|AV-procd|sdf|11194|dock5
  -GOLD-   2272016 83D 1   1.00000     0.00000
 Structure written by MMmdl.
 34 36  0  0  0  0  0  0  0  0  1 V2000
  151.9021  145.0085  160.3797 C   0  0  0  0  0  0  0  0  0  0  0  0
  151.9849  143.6646  159.6778 C   0  0  0  0  0  0  0  0  0  0  0  0
  151.4204  143.6264  158.4509 N   0  0  0  0  0  0  0  0  0  0  0  0
  151.4288  142.4997  157.7374 N   0  0  0  0  0  0  0  0  0  0  0  0
  152.0029  141.3723  158.2221 C   0  0  0  0  0  0  0  0  0  0  0  0
  151.9707  140.2233  157.4108 N   0  0  0  0  0  0  0  0  0  0  0  0
  151.7838  140.3312  155.9669 C   0  0  2  0  0  0  0  0  0  0  0  0
  150.4676  141.0127  155.5855 C   0  0  0  0  0  0  0  0  0  0  0  0
  149.8398  139.9803  154.6387 C   0  0  2  0  0  0  0  0  0  0  0  0
  149.2877  138.7729  155.4077 C   0  0  0  0  0  0  0  0  0  0  0  0
  150.5712  138.0569  155.8232 C   0  0  0  0  0  0  0  0  0  0  0  0
  151.6544  138.9788  155.2367 C   0  0  1  0  0  0  0  0  0  0  0  0
  150.9985  139.4077  154.0554 O   0  0  0  0  0  0  0  0  0  0  0  0
  152.6120  141.3398  159.5034 C   0  0  0  0  0  0  0  0  0  0  0  0
  153.2302  140.1204  160.0203 C   0  0  0  0  0  0  0  0  0  0  0  0
  153.7199  139.1550  160.4292 N   0  0  0  0  0  0  0  0  0  0  0  0
  152.6060  142.5355  160.2650 C   0  0  0  0  0  0  0  0  0  0  0  0
  153.2407  142.5949  161.6522 C   0  0  0  0  0  0  0  0  0  0  0  0
  151.3657  144.9133  161.3240 H   0  0  0  0  0  0  0  0  0  0  0  0
  151.3769  145.7462  159.7714 H   0  0  0  0  0  0  0  0  0  0  0  0
  152.9013  145.3950  160.5819 H   0  0  0  0  0  0  0  0  0  0  0  0
  152.4086  139.3830  157.7601 H   0  0  0  0  0  0  0  0  0  0  0  0
  152.6063  140.9034  155.5350 H   0  0  0  0  0  0  0  0  0  0  0  0
  149.8210  141.2315  156.4365 H   0  0  0  0  0  0  0  0  0  0  0  0
  150.6659  141.9496  155.0635 H   0  0  0  0  0  0  0  0  0  0  0  0
  149.1375  140.4063  153.9217 H   0  0  0  0  0  0  0  0  0  0  0  0
  148.6720  139.0677  156.2581 H   0  0  0  0  0  0  0  0  0  0  0  0
  148.6887  138.1363  154.7557 H   0  0  0  0  0  0  0  0  0  0  0  0
  150.6564  137.9255  156.9020 H   0  0  0  0  0  0  0  0  0  0  0  0
  150.6192  137.0700  155.3615 H   0  0  0  0  0  0  0  0  0  0  0  0
  152.6069  138.4789  155.0579 H   0  0  0  0  0  0  0  0  0  0  0  0
  154.2926  142.3124  161.5983 H   0  0  0  0  0  0  0  0  0  0  0  0
  152.7354  141.9026  162.3264 H   0  0  0  0  0  0  0  0  0  0  0  0
  153.1959  143.5830  162.1062 H   0  0  0  0  0  0  0  0  0  0  0  0
  1  2  1  0  0  0  0
  1 19  1  0  0  0  0
  1 20  1  0  0  0  0
  1 21  1  0  0  0  0
  2 17  1  0  0  0  0
  2  3  2  0  0  0  0
  3  4  1  0  0  0  0
  4  5  2  0  0  0  0
  5  6  1  0  0  0  0
  5 14  1  0  0  0  0
  6  7  1  0  0  0  0
  6 22  1  0  0  0  0
  7 12  1  0  0  0  0
  7  8  1  0  0  0  0
  7 23  1  0  0  0  0
  8  9  1  0  0  0  0
  8 24  1  0  0  0  0
  8 25  1  0  0  0  0
  9 13  1  0  0  0  0
  9 10  1  0  0  0  0
  9 26  1  0  0  0  0
 10 11  1  0  0  0  0
 10 27  1  0  0  0  0
 10 28  1  0  0  0  0
 11 12  1  0  0  0  0
 11 29  1  0  0  0  0
 11 30  1  0  0  0  0
 12 13  1  0  0  0  0
 12 31  1  0  0  0  0
 14 15  1  0  0  0  0
 14 17  2  0  0  0  0
 15 16  3  0  0  0  0
 17 18  1  0  0  0  0
 18 32  1  0  0  0  0
 18 33  1  0  0  0  0
 18 34  1  0  0  0  0
M  END
> <s_m_source_file>
AV-unprocessed.smi

> <i_m_source_file_index>
2919

> <i_lp_mmshare_version>
43012

> <i_f3d_flags>
0

> <s_epik_input>
W0NIM11jMW5uYyhjKEMjTiljMVtDSDNdKVtOSF1bQ0BIXShbQ0gyXVtDQEBIXTIzKVtDQEBIXShPMylbQ0gyXVtDSDJdMg==

> <s_epik_cmdline>
J2VwaWtfcHl0aG9uJywgJy1waCcsICc3LjAnLCAnLXRuJywgJzgnLCAnLW1hJywgJzIwMCcsICctbWV0YWxfYmluZGluZycsICctaW1hZScsICc8aW5maWxlLm1hZT4nLCAnLW9tYWUnLCAnPG91dGZpbGUubWFlPic=

> <r_lp_tautomer_probability>
1

> <r_epik_Ionization_Penalty>
0.00143865

> <r_epik_Ionization_Penalty_Charging>
0

> <r_epik_Ionization_Penalty_Neutral>
0.00143865

> <r_epik_State_Penalty>
-0

> <r_epik_Charging_Adjusted_Penalty>
0

> <i_epik_Tot_Q>
0

> <i_epik_Tot_abs_Q>
0

> <r_epik_Metal_State_Penalty>
-0

> <b_epik_Metal_Only>
0

> <s_lp_Force_Field>
OPLS_2005

> <r_lp_Energy>
49.1594

> <b_lp_Chiralities_Consistent>
1

> <s_lp_Variant>
AV-unprocessed.smi:2919-3

> <Gold.Version>
5.8.1

> <Gold.Id.Protein>
6NUR|6NUR_protein|mol2

> <Gold.PLP.Fitness>
38.2942

> <Gold.PLP.PLP>
-35.5079

> <Gold.PLP.part.hbond>
-1.0000

> <Gold.PLP.part.metal>
0.0000

> <Gold.PLP.part.buried>
-4.1404

> <Gold.PLP.part.nonpolar>
-30.1772

> <Gold.PLP.part.repulsive>
0.4281

> <Gold.PLP.ligand.clash>
0.0000

> <Gold.PLP.ligand.torsion>
0.1120

> <Gold.PLP.Chemscore.Hbond>
1.0000

> <Gold.PLP.Chemscore.CHOScore>
0.0000

> <Gold.PLP.Chemscore.Metal>
0.0000

> <Gold.Chemscore.Hbonds>
donor molecule, donor type, donor heavy atom, donor atom, acceptor molecule, acceptor atom, score
      P1  H  7989  7998       L1    13  0.80

> <Gold.PLP.Chemscore.Internal.Correction>
0.0103

> <Gold.Rescore>
     Score         DG    S(hbond)    S(metal)    S(lipo)     H(rot)  DE(clash)    DE(int)     intcor
     14.70     -16.10       0.81        0.00      89.44       1.00       0.06       1.34       ----

> <Gold.Chemscore.Fitness>
14.7034

> <Gold.Chemscore.DG>
-16.1048

> <Gold.Chemscore.ZeroCoef>
-5.4800

> <Gold.Chemscore.Hbond>
0.8144

> <Gold.Chemscore.Metal>
0.0000

> <Gold.Chemscore.Lipo>
89.4406

> <Gold.Chemscore.Internal_Hbond>
0.0000

> <Gold.Chemscore.DEClash>
0.0609

> <Gold.Chemscore.DEInternal>
1.3406

> <Gold.Chemscore.Rot>
1.0000

> <Gold.Chemscore.Internal.Correction>
   9.000000E+99

> <Gold.Chemscore.Hbonds>
donor molecule, donor type, donor heavy atom, donor atom, acceptor molecule, acceptor atom, score
      P1  H  7989  7998       L1    13  0.10

> <Gold.Chemscore.Hbond.Weighted>
-2.7202

> <Gold.Chemscore.Metal.Weighted>
-0.0000

> <Gold.Chemscore.Lipo.Weighted>
-10.4645

> <Gold.Chemscore.Internal_Hbond.Weighted>
0.0000

> <Gold.Chemscore.DEClash.Weighted>
0.0609

> <Gold.Chemscore.DEInternal.Weighted>
1.3406

> <Gold.Chemscore.Rot.Weighted>
2.5600

> <Gold.Chemscore.Internal.Correction.Weighted>
   9.000000E+99

> <Gold.Protein.RotatedTorsions>
[ 6907 6896 6895 6894 ] final -109.88 input  -60.11 | X-H torsion
[ 7974 7965 7964 7962 ] final -146.08 input  175.53 | X-H torsion
[ 8008 7997 7996 7995 ] final   26.32 input   59.86 | X-H torsion
[ 10167 10162 10161 10158 ] final -100.12 input  -65.29 | X-H torsion
[ 10718 10713 10712 10709 ] final  154.90 input   66.30 | X-H torsion
[ 10763 10752 10751 10750 ] final   -3.89 input  -60.55 | X-H torsion
[ 11005 11000 10999 10996 ] final  -33.89 input  -57.11 | X-H torsion

> <Gold.Protein.ActiveResidues>
 VAL166  LYS551  ARG553  GLY616  TRP617  ASP618  TYR619  PRO620  LYS621  CYS622 
 ASP623  PHE694  ASN695  SER759  ASP760  ASP761  ALA762  ILE779  LEU786  VAL792 
 PHE793  MET794  SER795  GLU796  ALA797  LYS798  CYS799  TRP800  GLU811  SER814 

> <Gold.Protein.RotatedAtoms>
  150.7589  133.9464  159.3471 H   0  0  0  0  0  0  0  0  0  0  0  0  # atno 6907 bound_to 6896
  151.7378  135.0859  160.0320 H   0  0  0  0  0  0  0  0  0  0  0  0  # atno 6908 bound_to 6896
  152.3548  133.6186  159.6007 H   0  0  0  0  0  0  0  0  0  0  0  0  # atno 6909 bound_to 6896
  144.8184  140.5502  143.5595 H   0  0  0  0  0  0  0  0  0  0  0  0  # atno 7974 bound_to 7965
  155.0255  140.3152  155.4777 H   0  0  0  0  0  0  0  0  0  0  0  0  # atno 8008 bound_to 7997
  156.2884  140.2189  156.5317 H   0  0  0  0  0  0  0  0  0  0  0  0  # atno 8009 bound_to 7997
  154.7415  140.0473  157.0803 H   0  0  0  0  0  0  0  0  0  0  0  0  # atno 8010 bound_to 7997
  140.2552  143.3445  152.0677 H   0  0  0  0  0  0  0  0  0  0  0  0  # atno 10167 bound_to 10162
  157.2255  131.0728  151.1885 H   0  0  0  0  0  0  0  0  0  0  0  0  # atno 10718 bound_to 10713
  153.3774  135.6997  153.6591 H   0  0  0  0  0  0  0  0  0  0  0  0  # atno 10763 bound_to 10752
  153.5216  135.3610  155.2635 H   0  0  0  0  0  0  0  0  0  0  0  0  # atno 10764 bound_to 10752
  154.8688  135.4159  154.3065 H   0  0  0  0  0  0  0  0  0  0  0  0  # atno 10765 bound_to 10752
  140.9672  133.7130  156.1464 H   0  0  0  0  0  0  0  0  0  0  0  0  # atno 11005 bound_to 11000
  145.5162  139.1478  143.3577 LP  0  0  0  0  0  0  0  0  0  0  0  0  # atno 17320 bound_to 7965
  146.2488  140.5303  142.8902 LP  0  0  0  0  0  0  0  0  0  0  0  0  # atno 17321 bound_to 7965
  139.5033  144.6754  151.6142 LP  0  0  0  0  0  0  0  0  0  0  0  0  # atno 17342 bound_to 10162
  140.6009  143.9611  150.6385 LP  0  0  0  0  0  0  0  0  0  0  0  0  # atno 17343 bound_to 10162
  157.3532  130.7093  149.6454 LP  0  0  0  0  0  0  0  0  0  0  0  0  # atno 17370 bound_to 10713
  155.9679  130.4246  150.4618 LP  0  0  0  0  0  0  0  0  0  0  0  0  # atno 17371 bound_to 10713
  140.7382  134.4179  157.5558 LP  0  0  0  0  0  0  0  0  0  0  0  0  # atno 17394 bound_to 11000
  139.8899  134.8819  156.2399 LP  0  0  0  0  0  0  0  0  0  0  0  0  # atno 17395 bound_to 11000

$$$$
