AV-unprocessed.smi:2928|AV-procd|sdf|11232|dock9
  -GOLD-   2272016123D 1   1.00000     0.00000
 Structure written by MMmdl.
 55 58  0  0  0  0  0  0  0  0  2 V2000
  152.6471  138.3863  154.7436 C   0  0  0  0  0  0  0  0  0  0  0  0
  151.6495  139.4700  154.9122 N   0  3  2  0  0  0  0  0  0  0  0  0
  151.6575  140.1238  156.2436 C   0  0  1  0  0  0  0  0  0  0  0  0
  150.9127  141.4752  156.1414 C   0  0  0  0  0  0  0  0  0  0  0  0
  149.4941  141.3600  155.5476 C   0  0  0  0  0  0  0  0  0  0  0  0
  149.4379  140.4008  154.3408 C   0  0  0  0  0  0  0  0  0  0  0  0
  150.2632  139.1062  154.5307 C   0  0  2  0  0  0  0  0  0  0  0  0
  149.6552  138.0891  155.5277 C   0  0  0  0  0  0  0  0  0  0  0  0
  149.7727  138.4942  157.0149 C   0  0  1  0  0  0  0  0  0  0  0  0
  149.6147  137.3017  157.8450 N   0  0  0  0  0  0  0  0  0  0  0  0
  148.7567  137.1578  158.8652 C   0  0  0  0  0  0  0  0  0  0  0  0
  147.9832  138.0391  159.2394 O   0  0  0  0  0  0  0  0  0  0  0  0
  148.8764  135.9426  159.4241 N   0  0  0  0  0  0  0  0  0  0  0  0
  148.1399  135.3910  160.5101 C   0  0  0  0  0  0  0  0  0  0  0  0
  147.7782  136.1444  161.6533 C   0  0  0  0  0  0  0  0  0  0  0  0
  147.0250  135.5286  162.6696 C   0  0  0  0  0  0  0  0  0  0  0  0
  146.6517  134.1830  162.5029 C   0  0  0  0  0  0  0  0  0  0  0  0
  146.9749  133.4562  161.4138 N   0  0  0  0  0  0  0  0  0  0  0  0
  147.7009  134.0445  160.4319 C   0  0  0  0  0  0  0  0  0  0  0  0
  148.0281  133.2674  159.3061 N   0  0  0  0  0  0  0  0  0  0  0  0
  148.7396  132.0313  159.5855 C   0  0  0  0  0  0  0  0  0  0  0  0
  148.6468  131.2092  158.2975 C   0  0  0  0  0  0  0  0  0  0  0  0
  147.4358  131.7817  157.5504 C   0  0  0  0  0  0  0  0  0  0  0  0
  146.9113  132.9040  158.4501 C   0  0  0  0  0  0  0  0  0  0  0  0
  151.1251  139.1704  157.3430 C   0  0  0  0  0  0  0  0  0  0  0  0
  152.4587  137.5423  155.4067 H   0  0  0  0  0  0  0  0  0  0  0  0
  153.6507  138.7590  154.9497 H   0  0  0  0  0  0  0  0  0  0  0  0
  152.6373  138.0176  153.7177 H   0  0  0  0  0  0  0  0  0  0  0  0
  152.6933  140.3601  156.4921 H   0  0  0  0  0  0  0  0  0  0  0  0
  150.8723  141.9637  157.1156 H   0  0  0  0  0  0  0  0  0  0  0  0
  151.4965  142.1379  155.5009 H   0  0  0  0  0  0  0  0  0  0  0  0
  148.7874  141.0500  156.3128 H   0  0  0  0  0  0  0  0  0  0  0  0
  149.1476  142.3479  155.2420 H   0  0  0  0  0  0  0  0  0  0  0  0
  148.4013  140.1611  154.1017 H   0  0  0  0  0  0  0  0  0  0  0  0
  149.8290  140.9281  153.4697 H   0  0  0  0  0  0  0  0  0  0  0  0
  150.3029  138.6194  153.5550 H   0  0  0  0  0  0  0  0  0  0  0  0
  148.6098  137.9020  155.2794 H   0  0  0  0  0  0  0  0  0  0  0  0
  150.1586  137.1327  155.3808 H   0  0  0  0  0  0  0  0  0  0  0  0
  148.9679  139.1887  157.2424 H   0  0  0  0  0  0  0  0  0  0  0  0
  150.2102  136.5170  157.6242 H   0  0  0  0  0  0  0  0  0  0  0  0
  149.6298  135.3650  159.0805 H   0  0  0  0  0  0  0  0  0  0  0  0
  148.0496  137.1832  161.7615 H   0  0  0  0  0  0  0  0  0  0  0  0
  146.7359  136.0773  163.5535 H   0  0  0  0  0  0  0  0  0  0  0  0
  146.0725  133.6777  163.2616 H   0  0  0  0  0  0  0  0  0  0  0  0
  149.7753  132.2284  159.8637 H   0  0  0  0  0  0  0  0  0  0  0  0
  148.2665  131.4925  160.4078 H   0  0  0  0  0  0  0  0  0  0  0  0
  149.5487  131.3401  157.6982 H   0  0  0  0  0  0  0  0  0  0  0  0
  148.5399  130.1448  158.5085 H   0  0  0  0  0  0  0  0  0  0  0  0
  147.7504  132.1830  156.5863 H   0  0  0  0  0  0  0  0  0  0  0  0
  146.6701  131.0282  157.3633 H   0  0  0  0  0  0  0  0  0  0  0  0
  146.0715  132.5452  159.0466 H   0  0  0  0  0  0  0  0  0  0  0  0
  146.5694  133.7596  157.8672 H   0  0  0  0  0  0  0  0  0  0  0  0
  151.8761  138.3964  157.5071 H   0  0  0  0  0  0  0  0  0  0  0  0
  151.0507  139.7008  158.2931 H   0  0  0  0  0  0  0  0  0  0  0  0
  151.9331  140.1840  154.2566 H   0  0  0  0  0  0  0  0  0  0  0  0
  1  2  1  0  0  0  0
  1 26  1  0  0  0  0
  1 27  1  0  0  0  0
  1 28  1  0  0  0  0
  2  7  1  0  0  0  0
  2  3  1  0  0  0  0
  2 55  1  0  0  0  0
  3 25  1  0  0  0  0
  3  4  1  0  0  0  0
  3 29  1  0  0  0  0
  4  5  1  0  0  0  0
  4 30  1  0  0  0  0
  4 31  1  0  0  0  0
  5  6  1  0  0  0  0
  5 32  1  0  0  0  0
  5 33  1  0  0  0  0
  6  7  1  0  0  0  0
  6 34  1  0  0  0  0
  6 35  1  0  0  0  0
  7  8  1  0  0  0  0
  7 36  1  0  0  0  0
  8  9  1  0  0  0  0
  8 37  1  0  0  0  0
  8 38  1  0  0  0  0
  9 10  1  0  0  0  0
  9 25  1  0  0  0  0
  9 39  1  0  0  0  0
 10 11  1  0  0  0  0
 10 40  1  0  0  0  0
 11 12  2  0  0  0  0
 11 13  1  0  0  0  0
 13 14  1  0  0  0  0
 13 41  1  0  0  0  0
 14 19  1  0  0  0  0
 14 15  2  0  0  0  0
 15 16  1  0  0  0  0
 15 42  1  0  0  0  0
 16 17  2  0  0  0  0
 16 43  1  0  0  0  0
 17 18  1  0  0  0  0
 17 44  1  0  0  0  0
 18 19  2  0  0  0  0
 19 20  1  0  0  0  0
 20 24  1  0  0  0  0
 20 21  1  0  0  0  0
 21 22  1  0  0  0  0
 21 45  1  0  0  0  0
 21 46  1  0  0  0  0
 22 23  1  0  0  0  0
 22 47  1  0  0  0  0
 22 48  1  0  0  0  0
 23 24  1  0  0  0  0
 23 49  1  0  0  0  0
 23 50  1  0  0  0  0
 24 51  1  0  0  0  0
 24 52  1  0  0  0  0
 25 53  1  0  0  0  0
 25 54  1  0  0  0  0
M  CHG  1   2   1
M  END
> <s_m_source_file>
AV-unprocessed.smi

> <i_m_source_file_index>
2928

> <i_lp_mmshare_version>
43012

> <i_f3d_flags>
0

> <s_epik_input>
W0NIMl0xW0NIMl1bQ0gyXVtDQEhdKE4oW0NIM10pW0NIXTEyKVtDSDJdW0NASF0oW0NIMl0yKVtOSF1DKD1PKVtOSF1jM1tjSF1bY0hdW2NIXW5jM040W0NIMl1bQ0gyXVtDSDJdW0NIMl00

> <s_epik_cmdline>
J2VwaWtfcHl0aG9uJywgJy1waCcsICc3LjAnLCAnLXRuJywgJzgnLCAnLW1hJywgJzIwMCcsICctbWV0YWxfYmluZGluZycsICctaW1hZScsICc8aW5maWxlLm1hZT4nLCAnLW9tYWUnLCAnPG91dGZpbGUubWFlPic=

> <r_lp_tautomer_probability>
1

> <r_epik_Ionization_Penalty>
0.07954

> <r_epik_Ionization_Penalty_Charging>
0.00089841

> <r_epik_Ionization_Penalty_Neutral>
0.0786416

> <r_epik_State_Penalty>
0.0689917

> <r_epik_Charging_Adjusted_Penalty>
0.0698901

> <i_epik_Tot_Q>
1

> <i_epik_Tot_abs_Q>
1

> <r_epik_Metal_State_Penalty>
0.0608947

> <b_epik_Metal_Only>
0

> <s_lp_Force_Field>
OPLS_2005

> <r_lp_Energy>
65.7965

> <b_lp_Chiralities_Consistent>
1

> <s_lp_Variant>
AV-unprocessed.smi:2928-2

> <Gold.Version>
5.8.1

> <Gold.Id.Protein>
6NUR|6NUR_protein|mol2

> <Gold.PLP.Fitness>
38.1046

> <Gold.PLP.PLP>
-38.1343

> <Gold.PLP.part.hbond>
-1.2612

> <Gold.PLP.part.metal>
0.0000

> <Gold.PLP.part.buried>
-5.0800

> <Gold.PLP.part.nonpolar>
-33.1594

> <Gold.PLP.part.repulsive>
1.6014

> <Gold.PLP.ligand.clash>
0.0000

> <Gold.PLP.ligand.torsion>
0.4823

> <Gold.PLP.Chemscore.Hbond>
0.3016

> <Gold.PLP.Chemscore.CHOScore>
0.0000

> <Gold.PLP.Chemscore.Metal>
0.0000

> <Gold.Chemscore.Hbonds>
donor molecule, donor type, donor heavy atom, donor atom, acceptor molecule, acceptor atom, score
      P1  H  6934  6947       L1    12  0.28

> <Gold.PLP.Chemscore.Internal.Correction>
0.0301

> <Gold.Rescore>
     Score         DG    S(hbond)    S(metal)    S(lipo)     H(rot)  DE(clash)    DE(int)     intcor
     13.37     -14.64       0.39        0.00      92.89       1.18       0.04       1.23       ----

> <Gold.Chemscore.Fitness>
13.3705

> <Gold.Chemscore.DG>
-14.6403

> <Gold.Chemscore.ZeroCoef>
-5.4800

> <Gold.Chemscore.Hbond>
0.3914

> <Gold.Chemscore.Metal>
0.0000

> <Gold.Chemscore.Lipo>
92.8873

> <Gold.Chemscore.Internal_Hbond>
0.0000

> <Gold.Chemscore.DEClash>
0.0434

> <Gold.Chemscore.DEInternal>
1.2264

> <Gold.Chemscore.Rot>
1.1776

> <Gold.Chemscore.Internal.Correction>
   9.000000E+99

> <Gold.Chemscore.Hbonds>
donor molecule, donor type, donor heavy atom, donor atom, acceptor molecule, acceptor atom, score
      P1  H  6934  6947       L1    12  0.27

> <Gold.Chemscore.Hbond.Weighted>
-1.3072

> <Gold.Chemscore.Metal.Weighted>
-0.0000

> <Gold.Chemscore.Lipo.Weighted>
-10.8678

> <Gold.Chemscore.Internal_Hbond.Weighted>
0.0000

> <Gold.Chemscore.DEClash.Weighted>
0.0434

> <Gold.Chemscore.DEInternal.Weighted>
1.2264

> <Gold.Chemscore.Rot.Weighted>
3.0147

> <Gold.Chemscore.Internal.Correction.Weighted>
   9.000000E+99

> <Gold.Protein.RotatedTorsions>
[ 6907 6896 6895 6894 ] final   89.31 input  -60.11 | X-H torsion
[ 7974 7965 7964 7962 ] final  -44.08 input  175.53 | X-H torsion
[ 8008 7997 7996 7995 ] final -108.72 input   59.86 | X-H torsion
[ 10167 10162 10161 10158 ] final    9.24 input  -65.29 | X-H torsion
[ 10718 10713 10712 10709 ] final   22.57 input   66.30 | X-H torsion
[ 10763 10752 10751 10750 ] final -103.35 input  -60.55 | X-H torsion
[ 11005 11000 10999 10996 ] final  -93.77 input  -57.11 | X-H torsion

> <Gold.Protein.ActiveResidues>
 VAL166  LYS551  ARG553  GLY616  TRP617  ASP618  TYR619  PRO620  LYS621  CYS622 
 ASP623  PHE694  ASN695  SER759  ASP760  ASP761  ALA762  ILE779  LEU786  VAL792 
 PHE793  MET794  SER795  GLU796  ALA797  LYS798  CYS799  TRP800  GLU811  SER814 

> <Gold.Protein.RotatedAtoms>
  152.5435  134.1986  159.8702 H   0  0  0  0  0  0  0  0  0  0  0  0  # atno 6907 bound_to 6896
  151.1976  133.4623  159.2603 H   0  0  0  0  0  0  0  0  0  0  0  0  # atno 6908 bound_to 6896
  151.1021  134.9990  159.8509 H   0  0  0  0  0  0  0  0  0  0  0  0  # atno 6909 bound_to 6896
  145.9956  140.7132  142.9295 H   0  0  0  0  0  0  0  0  0  0  0  0  # atno 7974 bound_to 7965
  154.9485  140.0401  157.2132 H   0  0  0  0  0  0  0  0  0  0  0  0  # atno 8008 bound_to 7997
  154.8001  140.2850  155.5906 H   0  0  0  0  0  0  0  0  0  0  0  0  # atno 8009 bound_to 7997
  156.2960  140.2557  156.2867 H   0  0  0  0  0  0  0  0  0  0  0  0  # atno 8010 bound_to 7997
  140.6267  143.8085  150.7242 H   0  0  0  0  0  0  0  0  0  0  0  0  # atno 10167 bound_to 10162
  157.1541  130.6687  149.6021 H   0  0  0  0  0  0  0  0  0  0  0  0  # atno 10718 bound_to 10713
  154.7801  135.4826  153.9826 H   0  0  0  0  0  0  0  0  0  0  0  0  # atno 10763 bound_to 10752
  153.1482  135.6786  153.8930 H   0  0  0  0  0  0  0  0  0  0  0  0  # atno 10764 bound_to 10752
  153.8583  135.3158  155.3414 H   0  0  0  0  0  0  0  0  0  0  0  0  # atno 10765 bound_to 10752
  141.1488  133.7910  157.0206 H   0  0  0  0  0  0  0  0  0  0  0  0  # atno 11005 bound_to 11000
  144.6902  140.3144  143.7242 LP  0  0  0  0  0  0  0  0  0  0  0  0  # atno 17320 bound_to 7965
  145.7565  139.1810  143.2291 LP  0  0  0  0  0  0  0  0  0  0  0  0  # atno 17321 bound_to 7965
  140.1688  143.4212  152.2016 LP  0  0  0  0  0  0  0  0  0  0  0  0  # atno 17342 bound_to 10162
  139.5486  144.7319  151.4505 LP  0  0  0  0  0  0  0  0  0  0  0  0  # atno 17343 bound_to 10162
  155.9765  130.4734  150.6533 LP  0  0  0  0  0  0  0  0  0  0  0  0  # atno 17370 bound_to 10713
  157.4193  131.0834  151.1146 LP  0  0  0  0  0  0  0  0  0  0  0  0  # atno 17371 bound_to 10713
  140.0818  134.9644  157.1636 LP  0  0  0  0  0  0  0  0  0  0  0  0  # atno 17394 bound_to 11000
  140.3566  134.2540  155.7192 LP  0  0  0  0  0  0  0  0  0  0  0  0  # atno 17395 bound_to 11000

$$$$
