AV-unprocessed.smi:1433|AV-procd|sdf|5847|dock2
  -GOLD-   22720 5513D 1   1.00000     0.00000
 Structure written by MMmdl.
 45 46  0  0  0  0  0  0  0  0  2 V2000
  148.9743  140.8262  154.4458 C   0  0  0  0  0  0  0  0  0  0  0  0
  149.5778  139.4446  154.1690 C   0  0  2  0  0  0  0  0  0  0  0  0
  148.8563  138.3290  154.9465 C   0  0  0  0  0  0  0  0  0  0  0  0
  149.4961  137.0060  154.7104 N   0  3  2  0  0  0  0  0  0  0  0  0
  148.7588  135.8836  155.3789 C   0  0  1  0  0  0  0  0  0  0  0  0
  149.1437  135.8074  156.8752 C   0  0  0  0  0  0  0  0  0  0  0  0
  147.2131  135.9676  155.2228 C   0  0  0  0  0  0  0  0  0  0  0  0
  146.7726  135.7639  153.8469 N   0  0  0  0  0  0  0  0  0  0  0  0
  145.4953  135.7778  153.4355 C   0  0  0  0  0  0  0  0  0  0  0  0
  144.5383  135.9100  154.1981 O   0  0  0  0  0  0  0  0  0  0  0  0
  145.2653  135.6434  151.9304 C   0  0  0  0  0  0  0  0  0  0  0  0
  145.1142  134.2487  151.5544 N   0  0  0  0  0  0  0  0  0  0  0  0
  144.8264  133.7233  150.3119 C   0  0  0  0  0  0  0  0  0  0  0  0
  144.7992  132.3643  150.4417 C   0  0  0  0  0  0  0  0  0  0  0  0
  145.0861  132.1500  151.8187 C   0  0  0  0  0  0  0  0  0  0  0  0
  145.2770  133.2792  152.4819 N   0  0  0  0  0  0  0  0  0  0  0  0
  150.9491  137.0975  155.0224 C   0  0  0  0  0  0  0  0  0  0  0  0
  151.6140  138.2584  154.2578 C   0  0  2  0  0  0  0  0  0  0  0  0
  153.0911  138.4238  154.6326 C   0  0  0  0  0  0  0  0  0  0  0  0
  150.9418  139.4718  154.5653 O   0  0  0  0  0  0  0  0  0  0  0  0
  147.9251  140.8631  154.1516 H   0  0  0  0  0  0  0  0  0  0  0  0
  149.5022  141.6004  153.8884 H   0  0  0  0  0  0  0  0  0  0  0  0
  149.0344  141.0793  155.5047 H   0  0  0  0  0  0  0  0  0  0  0  0
  149.5148  139.2485  153.0972 H   0  0  0  0  0  0  0  0  0  0  0  0
  148.8701  138.5517  156.0148 H   0  0  0  0  0  0  0  0  0  0  0  0
  147.8118  138.3174  154.6411 H   0  0  0  0  0  0  0  0  0  0  0  0
  149.0778  134.9572  154.8986 H   0  0  0  0  0  0  0  0  0  0  0  0
  148.6474  134.9798  157.3822 H   0  0  0  0  0  0  0  0  0  0  0  0
  148.8689  136.7239  157.3982 H   0  0  0  0  0  0  0  0  0  0  0  0
  150.2096  135.6477  157.0271 H   0  0  0  0  0  0  0  0  0  0  0  0
  146.7302  135.2130  155.8445 H   0  0  0  0  0  0  0  0  0  0  0  0
  146.8291  136.9364  155.5451 H   0  0  0  0  0  0  0  0  0  0  0  0
  147.4921  135.6508  153.1469 H   0  0  0  0  0  0  0  0  0  0  0  0
  144.3761  136.2015  151.6322 H   0  0  0  0  0  0  0  0  0  0  0  0
  146.1095  136.0664  151.3842 H   0  0  0  0  0  0  0  0  0  0  0  0
  144.6686  134.3534  149.4488 H   0  0  0  0  0  0  0  0  0  0  0  0
  144.6037  131.6340  149.6704 H   0  0  0  0  0  0  0  0  0  0  0  0
  145.1624  131.2137  152.3519 H   0  0  0  0  0  0  0  0  0  0  0  0
  151.0828  137.2241  156.0982 H   0  0  0  0  0  0  0  0  0  0  0  0
  151.4636  136.1826  154.7308 H   0  0  0  0  0  0  0  0  0  0  0  0
  151.5494  138.0747  153.1838 H   0  0  0  0  0  0  0  0  0  0  0  0
  153.6578  137.5202  154.4066 H   0  0  0  0  0  0  0  0  0  0  0  0
  153.2080  138.6350  155.6960 H   0  0  0  0  0  0  0  0  0  0  0  0
  153.5443  139.2460  154.0783 H   0  0  0  0  0  0  0  0  0  0  0  0
  149.4408  136.8266  153.7180 H   0  0  0  0  0  0  0  0  0  0  0  0
  1  2  1  0  0  0  0
  1 21  1  0  0  0  0
  1 22  1  0  0  0  0
  1 23  1  0  0  0  0
  2 20  1  0  0  0  0
  2  3  1  0  0  0  0
  2 24  1  0  0  0  0
  3  4  1  0  0  0  0
  3 25  1  0  0  0  0
  3 26  1  0  0  0  0
  4  5  1  0  0  0  0
  4 17  1  0  0  0  0
  4 45  1  0  0  0  0
  5  6  1  0  0  0  0
  5  7  1  0  0  0  0
  5 27  1  0  0  0  0
  6 28  1  0  0  0  0
  6 29  1  0  0  0  0
  6 30  1  0  0  0  0
  7  8  1  0  0  0  0
  7 31  1  0  0  0  0
  7 32  1  0  0  0  0
  8  9  1  0  0  0  0
  8 33  1  0  0  0  0
  9 10  2  0  0  0  0
  9 11  1  0  0  0  0
 11 12  1  0  0  0  0
 11 34  1  0  0  0  0
 11 35  1  0  0  0  0
 12 16  1  0  0  0  0
 12 13  1  0  0  0  0
 13 14  2  0  0  0  0
 13 36  1  0  0  0  0
 14 15  1  0  0  0  0
 14 37  1  0  0  0  0
 15 16  2  0  0  0  0
 15 38  1  0  0  0  0
 17 18  1  0  0  0  0
 17 39  1  0  0  0  0
 17 40  1  0  0  0  0
 18 19  1  0  0  0  0
 18 20  1  0  0  0  0
 18 41  1  0  0  0  0
 19 42  1  0  0  0  0
 19 43  1  0  0  0  0
 19 44  1  0  0  0  0
M  CHG  1   4   1
M  END
> <s_m_source_file>
AV-unprocessed.smi

> <i_m_source_file_index>
1433

> <i_lp_mmshare_version>
43012

> <i_f3d_flags>
0

> <s_epik_input>
W0NIM11bQ0BASF0xW0NIMl1OKFtDSDJdW0NASF0oTzEpW0NIM10pW0NASF0oW0NIM10pW0NIMl1bTkhdQyg9TylbQ0gyXW4yW2NIXVtjSF1bY0hdbjI=

> <s_epik_cmdline>
J2VwaWtfcHl0aG9uJywgJy1waCcsICc3LjAnLCAnLXRuJywgJzgnLCAnLW1hJywgJzIwMCcsICctbWV0YWxfYmluZGluZycsICctaW1hZScsICc8aW5maWxlLm1hZT4nLCAnLW9tYWUnLCAnPG91dGZpbGUubWFlPic=

> <r_lp_tautomer_probability>
1

> <r_epik_Ionization_Penalty>
0.748405

> <r_epik_Ionization_Penalty_Charging>
0.748396

> <r_epik_Ionization_Penalty_Neutral>
8.54426e-06

> <r_epik_State_Penalty>
0.775162

> <r_epik_Charging_Adjusted_Penalty>
1.52356

> <i_epik_Tot_Q>
1

> <i_epik_Tot_abs_Q>
1

> <r_epik_Metal_State_Penalty>
0.775167

> <b_epik_Metal_Only>
0

> <s_lp_Force_Field>
OPLS_2005

> <r_lp_Energy>
17.7412

> <b_lp_Chiralities_Consistent>
1

> <s_lp_Variant>
AV-unprocessed.smi:1433-13

> <Gold.Version>
5.8.1

> <Gold.Id.Protein>
6NUR|6NUR_protein|mol2

> <Gold.PLP.Fitness>
45.0518

> <Gold.PLP.PLP>
-31.3281

> <Gold.PLP.part.hbond>
-3.0000

> <Gold.PLP.part.metal>
0.0000

> <Gold.PLP.part.buried>
-4.1218

> <Gold.PLP.part.nonpolar>
-24.6838

> <Gold.PLP.part.repulsive>
0.2918

> <Gold.PLP.ligand.clash>
0.0000

> <Gold.PLP.ligand.torsion>
0.6828

> <Gold.PLP.Chemscore.Hbond>
4.0000

> <Gold.PLP.Chemscore.CHOScore>
1.0000

> <Gold.PLP.Chemscore.Metal>
0.0000

> <Gold.Chemscore.Hbonds>
donor molecule, donor type, donor heavy atom, donor atom, acceptor molecule, acceptor atom, score
      L1  H     4    45       P1  7948  2.00
      L1  H     8    33       P1  7948  1.00
      P1  H  7989  7998       L1    20  1.00
      L1  C    13    36       P1  7921  0.99

> <Gold.PLP.Chemscore.Internal.Correction>
0.0893

> <Gold.Rescore>
     Score         DG    S(hbond)    S(metal)    S(lipo)     H(rot)  DE(clash)    DE(int)     intcor
     16.45     -17.17       2.14        0.00      79.54       1.87       0.17       0.54       ----

> <Gold.Chemscore.Fitness>
16.4515

> <Gold.Chemscore.DG>
-17.1651

> <Gold.Chemscore.ZeroCoef>
-5.4800

> <Gold.Chemscore.Hbond>
2.1422

> <Gold.Chemscore.Metal>
0.0000

> <Gold.Chemscore.Lipo>
79.5411

> <Gold.Chemscore.Internal_Hbond>
0.0000

> <Gold.Chemscore.DEClash>
0.1724

> <Gold.Chemscore.DEInternal>
0.5411

> <Gold.Chemscore.Rot>
1.8657

> <Gold.Chemscore.Internal.Correction>
   9.000000E+99

> <Gold.Chemscore.Hbonds>
donor molecule, donor type, donor heavy atom, donor atom, acceptor molecule, acceptor atom, score
      L1  H     4    45       P1  7948  0.88
      L1  H     8    33       P1  7948  0.94
      P1  H  7989  7998       L1    20  0.24

> <Gold.Chemscore.Hbond.Weighted>
-7.1549

> <Gold.Chemscore.Metal.Weighted>
-0.0000

> <Gold.Chemscore.Lipo.Weighted>
-9.3063

> <Gold.Chemscore.Internal_Hbond.Weighted>
0.0000

> <Gold.Chemscore.DEClash.Weighted>
0.1724

> <Gold.Chemscore.DEInternal.Weighted>
0.5411

> <Gold.Chemscore.Rot.Weighted>
4.7761

> <Gold.Chemscore.Internal.Correction.Weighted>
   9.000000E+99

> <Gold.Protein.RotatedTorsions>
[ 6907 6896 6895 6894 ] final -177.96 input  -60.11 | X-H torsion
[ 7974 7965 7964 7962 ] final -102.98 input  175.53 | X-H torsion
[ 8008 7997 7996 7995 ] final  137.91 input   59.86 | X-H torsion
[ 10167 10162 10161 10158 ] final  -20.38 input  -65.29 | X-H torsion
[ 10718 10713 10712 10709 ] final  120.68 input   66.30 | X-H torsion
[ 10763 10752 10751 10750 ] final -151.61 input  -60.55 | X-H torsion
[ 11005 11000 10999 10996 ] final -109.57 input  -57.11 | X-H torsion

> <Gold.Protein.ActiveResidues>
 VAL166  LYS551  ARG553  GLY616  TRP617  ASP618  TYR619  PRO620  LYS621  CYS622 
 ASP623  PHE694  ASN695  SER759  ASP760  ASP761  ALA762  ILE779  LEU786  VAL792 
 PHE793  MET794  SER795  GLU796  ALA797  LYS798  CYS799  TRP800  GLU811  SER814 

> <Gold.Protein.RotatedAtoms>
  151.6294  133.3333  159.3105 H   0  0  0  0  0  0  0  0  0  0  0  0  # atno 6907 bound_to 6896
  150.8064  134.7196  159.6660 H   0  0  0  0  0  0  0  0  0  0  0  0  # atno 6908 bound_to 6896
  152.4160  134.6046  160.0061 H   0  0  0  0  0  0  0  0  0  0  0  0  # atno 6909 bound_to 6896
  145.2617  140.9271  143.3037 H   0  0  0  0  0  0  0  0  0  0  0  0  # atno 7974 bound_to 7965
  156.3000  140.2407  156.3987 H   0  0  0  0  0  0  0  0  0  0  0  0  # atno 8008 bound_to 7997
  154.8547  140.0422  157.1646 H   0  0  0  0  0  0  0  0  0  0  0  0  # atno 8009 bound_to 7997
  154.8961  140.2970  155.5347 H   0  0  0  0  0  0  0  0  0  0  0  0  # atno 8010 bound_to 7997
  140.7275  143.4728  151.0223 H   0  0  0  0  0  0  0  0  0  0  0  0  # atno 10167 bound_to 10162
  157.5873  131.1068  150.8069 H   0  0  0  0  0  0  0  0  0  0  0  0  # atno 10718 bound_to 10713
  154.8047  135.3256  154.7461 H   0  0  0  0  0  0  0  0  0  0  0  0  # atno 10763 bound_to 10752
  153.8122  135.6894  153.4843 H   0  0  0  0  0  0  0  0  0  0  0  0  # atno 10764 bound_to 10752
  153.1785  135.4595  154.9941 H   0  0  0  0  0  0  0  0  0  0  0  0  # atno 10765 bound_to 10752
  141.0840  133.9171  157.2227 H   0  0  0  0  0  0  0  0  0  0  0  0  # atno 11005 bound_to 11000
  144.9412  139.4186  143.6448 LP  0  0  0  0  0  0  0  0  0  0  0  0  # atno 17320 bound_to 7965
  146.3273  139.8373  142.8897 LP  0  0  0  0  0  0  0  0  0  0  0  0  # atno 17321 bound_to 7965
  139.8421  143.7549  152.3180 LP  0  0  0  0  0  0  0  0  0  0  0  0  # atno 17342 bound_to 10162
  139.7702  144.7479  151.0236 LP  0  0  0  0  0  0  0  0  0  0  0  0  # atno 17343 bound_to 10162
  156.8500  130.5077  149.5313 LP  0  0  0  0  0  0  0  0  0  0  0  0  # atno 17370 bound_to 10713
  156.0923  130.5906  150.9755 LP  0  0  0  0  0  0  0  0  0  0  0  0  # atno 17371 bound_to 10713
  139.9656  135.0143  156.9378 LP  0  0  0  0  0  0  0  0  0  0  0  0  # atno 17394 bound_to 11000
  140.5405  134.0725  155.7340 LP  0  0  0  0  0  0  0  0  0  0  0  0  # atno 17395 bound_to 11000

$$$$
