AV-unprocessed.smi:2004|AV-procd|sdf|8122|dock6
  -GOLD-   2272010353D 1   1.00000     0.00000
 Structure written by MMmdl.
 39 41  0  0  0  0  0  0  0  0  1 V2000
  151.5345  136.2036  155.8130 O   0  0  0  0  0  0  0  0  0  0  0  0
  151.5645  137.6080  155.9792 C   0  0  1  0  0  0  0  0  0  0  0  0
  152.9884  138.0183  156.3845 C   0  0  0  0  0  0  0  0  0  0  0  0
  152.9471  139.3173  156.9514 O   0  0  0  0  0  0  0  0  0  0  0  0
  152.4061  139.3313  158.2623 C   0  0  0  0  0  0  0  0  0  0  0  0
  152.5356  140.6974  158.9080 C   0  0  0  0  0  0  0  0  0  0  0  0
  151.9121  141.8193  158.3217 C   0  0  0  0  0  0  0  0  0  0  0  0
  152.0430  143.0916  158.9120 C   0  0  0  0  0  0  0  0  0  0  0  0
  152.8019  143.2482  160.0879 C   0  0  0  0  0  0  0  0  0  0  0  0
  153.4327  142.1324  160.6716 C   0  0  0  0  0  0  0  0  0  0  0  0
  153.3023  140.8598  160.0814 C   0  0  0  0  0  0  0  0  0  0  0  0
  151.1248  138.2765  154.6622 C   0  0  0  0  0  0  0  0  0  0  0  0
  150.4669  139.5523  154.8807 N   0  0  0  0  0  0  0  0  0  0  0  0
  150.9374  140.6020  155.5821 C   0  0  0  0  0  0  0  0  0  0  0  0
  150.1645  141.6821  155.6543 N   0  0  0  0  0  0  0  0  0  0  0  0
  149.0636  141.2876  154.9130 C   0  0  0  0  0  0  0  0  0  0  0  0
  147.8726  141.9810  154.5993 C   0  0  0  0  0  0  0  0  0  0  0  0
  146.8735  141.3665  153.8155 C   0  0  0  0  0  0  0  0  0  0  0  0
  147.0489  140.0527  153.3340 C   0  0  0  0  0  0  0  0  0  0  0  0
  148.2270  139.3419  153.6336 C   0  0  0  0  0  0  0  0  0  0  0  0
  149.2213  139.9585  154.4159 C   0  0  0  0  0  0  0  0  0  0  0  0
  150.8327  135.8564  156.3426 H   0  0  0  0  0  0  0  0  0  0  0  0
  150.8659  137.8861  156.7695 H   0  0  0  0  0  0  0  0  0  0  0  0
  153.4273  137.2941  157.0735 H   0  0  0  0  0  0  0  0  0  0  0  0
  153.6270  138.0521  155.5003 H   0  0  0  0  0  0  0  0  0  0  0  0
  151.3553  139.0390  158.2282 H   0  0  0  0  0  0  0  0  0  0  0  0
  152.9260  138.6052  158.8891 H   0  0  0  0  0  0  0  0  0  0  0  0
  151.3311  141.7067  157.4178 H   0  0  0  0  0  0  0  0  0  0  0  0
  151.5618  143.9473  158.4618 H   0  0  0  0  0  0  0  0  0  0  0  0
  152.9027  144.2236  160.5407 H   0  0  0  0  0  0  0  0  0  0  0  0
  154.0178  142.2525  161.5715 H   0  0  0  0  0  0  0  0  0  0  0  0
  153.7918  140.0100  160.5344 H   0  0  0  0  0  0  0  0  0  0  0  0
  151.9887  138.4484  154.0191 H   0  0  0  0  0  0  0  0  0  0  0  0
  150.4487  137.6229  154.1083 H   0  0  0  0  0  0  0  0  0  0  0  0
  151.9035  140.5723  156.0645 H   0  0  0  0  0  0  0  0  0  0  0  0
  147.7279  142.9877  154.9624 H   0  0  0  0  0  0  0  0  0  0  0  0
  145.9677  141.9065  153.5820 H   0  0  0  0  0  0  0  0  0  0  0  0
  146.2782  139.5911  152.7340 H   0  0  0  0  0  0  0  0  0  0  0  0
  148.3657  138.3359  153.2664 H   0  0  0  0  0  0  0  0  0  0  0  0
  1  2  1  0  0  0  0
  1 22  1  0  0  0  0
  2  3  1  0  0  0  0
  2 12  1  0  0  0  0
  2 23  1  0  0  0  0
  3  4  1  0  0  0  0
  3 24  1  0  0  0  0
  3 25  1  0  0  0  0
  4  5  1  0  0  0  0
  5  6  1  0  0  0  0
  5 26  1  0  0  0  0
  5 27  1  0  0  0  0
  6 11  1  0  0  0  0
  6  7  2  0  0  0  0
  7  8  1  0  0  0  0
  7 28  1  0  0  0  0
  8  9  2  0  0  0  0
  8 29  1  0  0  0  0
  9 10  1  0  0  0  0
  9 30  1  0  0  0  0
 10 11  2  0  0  0  0
 10 31  1  0  0  0  0
 11 32  1  0  0  0  0
 12 13  1  0  0  0  0
 12 33  1  0  0  0  0
 12 34  1  0  0  0  0
 13 21  1  0  0  0  0
 13 14  1  0  0  0  0
 14 15  2  0  0  0  0
 14 35  1  0  0  0  0
 15 16  1  0  0  0  0
 16 21  2  0  0  0  0
 16 17  1  0  0  0  0
 17 18  2  0  0  0  0
 17 36  1  0  0  0  0
 18 19  1  0  0  0  0
 18 37  1  0  0  0  0
 19 20  2  0  0  0  0
 19 38  1  0  0  0  0
 20 21  1  0  0  0  0
 20 39  1  0  0  0  0
M  END
> <s_m_source_file>
AV-unprocessed.smi

> <i_m_source_file_index>
2004

> <i_lp_mmshare_version>
43012

> <i_f3d_flags>
0

> <s_epik_input>
W2NIXTFbY0hdW2NIXVtjSF1jKGMxMiluKFtjSF1uMilbQ0gyXVtDQEhdKFtPSF0pW0NIMl1PW0NIMl1jM1tjSF1bY0hdW2NIXVtjSF1bY0hdMw==

> <s_epik_cmdline>
J2VwaWtfcHl0aG9uJywgJy1waCcsICc3LjAnLCAnLXRuJywgJzgnLCAnLW1hJywgJzIwMCcsICctbWV0YWxfYmluZGluZycsICctaW1hZScsICc8aW5maWxlLm1hZT4nLCAnLW9tYWUnLCAnPG91dGZpbGUubWFlPic=

> <r_epik_Ionization_Penalty>
0.0713119

> <r_epik_Ionization_Penalty_Charging>
0

> <r_epik_Ionization_Penalty_Neutral>
0.0713119

> <r_epik_State_Penalty>
0.06259

> <r_epik_Charging_Adjusted_Penalty>
0.06259

> <i_epik_Tot_Q>
0

> <i_epik_Tot_abs_Q>
0

> <r_epik_Metal_State_Penalty>
6.60119e-05

> <b_epik_Metal_Only>
0

> <s_lp_Force_Field>
OPLS_2005

> <r_lp_Energy>
14.5219

> <b_lp_Chiralities_Consistent>
1

> <s_lp_Variant>
AV-unprocessed.smi:2004-2

> <Gold.Version>
5.8.1

> <Gold.Id.Protein>
6NUR|6NUR_protein|mol2

> <Gold.PLP.Fitness>
50.7973

> <Gold.PLP.PLP>
-45.9454

> <Gold.PLP.part.hbond>
-2.0449

> <Gold.PLP.part.metal>
0.0000

> <Gold.PLP.part.buried>
0.3429

> <Gold.PLP.part.nonpolar>
-42.8504

> <Gold.PLP.part.repulsive>
0.1018

> <Gold.PLP.ligand.clash>
0.0000

> <Gold.PLP.ligand.torsion>
0.6395

> <Gold.PLP.Chemscore.Hbond>
1.9920

> <Gold.PLP.Chemscore.CHOScore>
0.0000

> <Gold.PLP.Chemscore.Metal>
0.0000

> <Gold.Chemscore.Hbonds>
donor molecule, donor type, donor heavy atom, donor atom, acceptor molecule, acceptor atom, score
      P1  H  7997  8008       L1     4  0.98
      P1  H 10752 10765       L1     1  0.96

> <Gold.PLP.Chemscore.Internal.Correction>
0.1550

> <Gold.Rescore>
     Score         DG    S(hbond)    S(metal)    S(lipo)     H(rot)  DE(clash)    DE(int)     intcor
     16.96     -19.02       1.53        0.00     122.94       2.33       0.09       1.98       ----

> <Gold.Chemscore.Fitness>
16.9558

> <Gold.Chemscore.DG>
-19.0242

> <Gold.Chemscore.ZeroCoef>
-5.4800

> <Gold.Chemscore.Hbond>
1.5334

> <Gold.Chemscore.Metal>
0.0000

> <Gold.Chemscore.Lipo>
122.9422

> <Gold.Chemscore.Internal_Hbond>
0.0000

> <Gold.Chemscore.DEClash>
0.0918

> <Gold.Chemscore.DEInternal>
1.9766

> <Gold.Chemscore.Rot>
2.3288

> <Gold.Chemscore.Internal.Correction>
   9.000000E+99

> <Gold.Chemscore.Hbonds>
donor molecule, donor type, donor heavy atom, donor atom, acceptor molecule, acceptor atom, score
      P1  H  7997  8008       L1     4  0.55
      P1  H 10752 10765       L1     1  0.79

> <Gold.Chemscore.Hbond.Weighted>
-5.1216

> <Gold.Chemscore.Metal.Weighted>
-0.0000

> <Gold.Chemscore.Lipo.Weighted>
-14.3842

> <Gold.Chemscore.Internal_Hbond.Weighted>
0.0000

> <Gold.Chemscore.DEClash.Weighted>
0.0918

> <Gold.Chemscore.DEInternal.Weighted>
1.9766

> <Gold.Chemscore.Rot.Weighted>
5.9616

> <Gold.Chemscore.Internal.Correction.Weighted>
   9.000000E+99

> <Gold.Protein.RotatedTorsions>
[ 6907 6896 6895 6894 ] final   10.22 input  -60.11 | X-H torsion
[ 7974 7965 7964 7962 ] final  -92.59 input  175.53 | X-H torsion
[ 8008 7997 7996 7995 ] final  -81.64 input   59.86 | X-H torsion
[ 10167 10162 10161 10158 ] final  -87.23 input  -65.29 | X-H torsion
[ 10718 10713 10712 10709 ] final  -67.94 input   66.30 | X-H torsion
[ 10763 10752 10751 10750 ] final -139.95 input  -60.55 | X-H torsion
[ 11005 11000 10999 10996 ] final   16.37 input  -57.11 | X-H torsion

> <Gold.Protein.ActiveResidues>
 VAL166  LYS551  ARG553  GLY616  TRP617  ASP618  TYR619  PRO620  LYS621  CYS622 
 ASP623  PHE694  ASN695  SER759  ASP760  ASP761  ALA762  ILE779  LEU786  VAL792 
 PHE793  MET794  SER795  GLU796  ALA797  LYS798  CYS799  TRP800  GLU811  SER814 

> <Gold.Protein.RotatedAtoms>
  151.7348  135.0867  160.0305 H   0  0  0  0  0  0  0  0  0  0  0  0  # atno 6907 bound_to 6896
  152.3518  133.6184  159.5959 H   0  0  0  0  0  0  0  0  0  0  0  0  # atno 6908 bound_to 6896
  150.7545  133.9479  159.3518 H   0  0  0  0  0  0  0  0  0  0  0  0  # atno 6909 bound_to 6896
  145.3978  140.9534  143.2304 H   0  0  0  0  0  0  0  0  0  0  0  0  # atno 7974 bound_to 7965
  154.6004  140.0645  156.9360 H   0  0  0  0  0  0  0  0  0  0  0  0  # atno 8008 bound_to 7997
  155.2142  140.3325  155.4306 H   0  0  0  0  0  0  0  0  0  0  0  0  # atno 8009 bound_to 7997
  156.2314  140.1843  156.7215 H   0  0  0  0  0  0  0  0  0  0  0  0  # atno 8010 bound_to 7997
  140.3864  143.2724  151.9319 H   0  0  0  0  0  0  0  0  0  0  0  0  # atno 10167 bound_to 10162
  156.0531  130.4286  150.1928 H   0  0  0  0  0  0  0  0  0  0  0  0  # atno 10718 bound_to 10713
  154.8594  135.3567  154.5629 H   0  0  0  0  0  0  0  0  0  0  0  0  # atno 10763 bound_to 10752
  153.6244  135.7004  153.5303 H   0  0  0  0  0  0  0  0  0  0  0  0  # atno 10764 bound_to 10752
  153.3102  135.4181  155.1289 H   0  0  0  0  0  0  0  0  0  0  0  0  # atno 10765 bound_to 10752
  140.4478  134.1255  155.7698 H   0  0  0  0  0  0  0  0  0  0  0  0  # atno 11005 bound_to 11000
  144.8395  139.5496  143.6907 LP  0  0  0  0  0  0  0  0  0  0  0  0  # atno 17320 bound_to 7965
  146.2766  139.6769  142.9258 LP  0  0  0  0  0  0  0  0  0  0  0  0  # atno 17321 bound_to 7965
  139.4792  144.5769  151.7997 LP  0  0  0  0  0  0  0  0  0  0  0  0  # atno 17342 bound_to 10162
  140.4884  144.1346  150.5945 LP  0  0  0  0  0  0  0  0  0  0  0  0  # atno 17343 bound_to 10162
  157.0009  130.9922  151.3391 LP  0  0  0  0  0  0  0  0  0  0  0  0  # atno 17370 bound_to 10713
  157.5476  130.8161  149.8105 LP  0  0  0  0  0  0  0  0  0  0  0  0  # atno 17371 bound_to 10713
  141.1677  133.8670  157.1664 LP  0  0  0  0  0  0  0  0  0  0  0  0  # atno 17394 bound_to 11000
  140.0027  135.0021  157.0224 LP  0  0  0  0  0  0  0  0  0  0  0  0  # atno 17395 bound_to 11000

$$$$
