AV-unprocessed.smi:1561|AV-procd|sdf|6286|dock5
  -GOLD-   22720 6483D 1   1.00000     0.00000
 Structure written by MMmdl.
 33 34  0  0  0  0  0  0  0  0  1 V2000
  151.2475  137.8813  154.2313 C   0  0  0  0  0  0  0  0  0  0  0  0
  150.6332  138.7700  155.3322 C   0  0  1  0  0  0  0  0  0  0  0  0
  151.6983  139.4482  156.2081 C   0  0  0  0  0  0  0  0  0  0  0  0
  152.8939  139.3577  155.9269 O   0  0  0  0  0  0  0  0  0  0  0  0
  151.2442  140.1257  157.2747 N   0  0  0  0  0  0  0  0  0  0  0  0
  152.0690  140.8529  158.2343 C   0  0  0  0  0  0  0  0  0  0  0  0
  151.4359  142.1984  158.6360 C   0  0  1  0  0  0  0  0  0  0  0  0
  152.2678  143.0509  159.5756 C   0  0  0  0  0  0  0  0  0  0  0  0
  151.6565  144.4359  159.3811 C   0  0  0  0  0  0  0  0  0  0  0  0
  151.1396  144.4566  158.0531 O   0  0  0  0  0  0  0  0  0  0  0  0
  151.2501  143.1638  157.4669 C   0  0  0  0  0  0  0  0  0  0  0  0
  149.7134  139.7651  154.7928 N   0  0  0  0  0  0  0  0  0  0  0  0
  148.5261  139.5471  154.1231 C   0  0  0  0  0  0  0  0  0  0  0  0
  147.9829  140.7674  153.8401 C   0  0  0  0  0  0  0  0  0  0  0  0
  148.9152  141.6881  154.3932 C   0  0  0  0  0  0  0  0  0  0  0  0
  149.9430  141.0873  154.9693 N   0  0  0  0  0  0  0  0  0  0  0  0
  151.8832  137.1070  154.6625 H   0  0  0  0  0  0  0  0  0  0  0  0
  151.8562  138.4547  153.5309 H   0  0  0  0  0  0  0  0  0  0  0  0
  150.4676  137.3803  153.6573 H   0  0  0  0  0  0  0  0  0  0  0  0
  150.0489  138.1140  155.9796 H   0  0  0  0  0  0  0  0  0  0  0  0
  150.2466  140.1466  157.4287 H   0  0  0  0  0  0  0  0  0  0  0  0
  152.2708  140.2414  159.1157 H   0  0  0  0  0  0  0  0  0  0  0  0
  153.0357  141.0340  157.7640 H   0  0  0  0  0  0  0  0  0  0  0  0
  150.4616  142.0200  159.0944 H   0  0  0  0  0  0  0  0  0  0  0  0
  152.2298  142.7141  160.6119 H   0  0  0  0  0  0  0  0  0  0  0  0
  153.3116  143.0570  159.2577 H   0  0  0  0  0  0  0  0  0  0  0  0
  150.8300  144.5895  160.0756 H   0  0  0  0  0  0  0  0  0  0  0  0
  152.3833  145.2334  159.5377 H   0  0  0  0  0  0  0  0  0  0  0  0
  152.1252  143.1548  156.8154 H   0  0  0  0  0  0  0  0  0  0  0  0
  150.3756  142.9253  156.8609 H   0  0  0  0  0  0  0  0  0  0  0  0
  148.1698  138.5509  153.9055 H   0  0  0  0  0  0  0  0  0  0  0  0
  147.0581  140.9715  153.3212 H   0  0  0  0  0  0  0  0  0  0  0  0
  148.8738  142.7673  154.3974 H   0  0  0  0  0  0  0  0  0  0  0  0
  1  2  1  0  0  0  0
  1 17  1  0  0  0  0
  1 18  1  0  0  0  0
  1 19  1  0  0  0  0
  2  3  1  0  0  0  0
  2 12  1  0  0  0  0
  2 20  1  0  0  0  0
  3  4  2  0  0  0  0
  3  5  1  0  0  0  0
  5  6  1  0  0  0  0
  5 21  1  0  0  0  0
  6  7  1  0  0  0  0
  6 22  1  0  0  0  0
  6 23  1  0  0  0  0
  7 11  1  0  0  0  0
  7  8  1  0  0  0  0
  7 24  1  0  0  0  0
  8  9  1  0  0  0  0
  8 25  1  0  0  0  0
  8 26  1  0  0  0  0
  9 10  1  0  0  0  0
  9 27  1  0  0  0  0
  9 28  1  0  0  0  0
 10 11  1  0  0  0  0
 11 29  1  0  0  0  0
 11 30  1  0  0  0  0
 12 16  1  0  0  0  0
 12 13  1  0  0  0  0
 13 14  2  0  0  0  0
 13 31  1  0  0  0  0
 14 15  1  0  0  0  0
 14 32  1  0  0  0  0
 15 16  2  0  0  0  0
 15 33  1  0  0  0  0
M  END
> <s_m_source_file>
AV-unprocessed.smi

> <i_m_source_file_index>
1561

> <i_lp_mmshare_version>
43012

> <i_f3d_flags>
0

> <s_epik_input>
bjFbY0hdW2NIXVtjSF1uMVtDQEhdKFtDSDNdKUMoPU8pW05IXVtDSDJdW0NAQEhdMltDSDJdW0NIMl1PW0NIMl0y

> <s_epik_cmdline>
J2VwaWtfcHl0aG9uJywgJy1waCcsICc3LjAnLCAnLXRuJywgJzgnLCAnLW1hJywgJzIwMCcsICctbWV0YWxfYmluZGluZycsICctaW1hZScsICc8aW5maWxlLm1hZT4nLCAnLW9tYWUnLCAnPG91dGZpbGUubWFlPic=

> <r_lp_tautomer_probability>
1

> <r_epik_Ionization_Penalty>
3.82077e-05

> <r_epik_Ionization_Penalty_Charging>
0

> <r_epik_Ionization_Penalty_Neutral>
3.82077e-05

> <r_epik_State_Penalty>
-0

> <r_epik_Charging_Adjusted_Penalty>
0

> <i_epik_Tot_Q>
0

> <i_epik_Tot_abs_Q>
0

> <r_epik_Metal_State_Penalty>
-0

> <b_epik_Metal_Only>
0

> <s_lp_Force_Field>
OPLS_2005

> <r_lp_Energy>
22.4357

> <b_lp_Chiralities_Consistent>
1

> <s_lp_Variant>
AV-unprocessed.smi:1561-4

> <Gold.Version>
5.8.1

> <Gold.Id.Protein>
6NUR|6NUR_protein|mol2

> <Gold.PLP.Fitness>
40.0623

> <Gold.PLP.PLP>
-33.9570

> <Gold.PLP.part.hbond>
-2.0000

> <Gold.PLP.part.metal>
0.0000

> <Gold.PLP.part.buried>
-2.3702

> <Gold.PLP.part.nonpolar>
-30.3540

> <Gold.PLP.part.repulsive>
0.3425

> <Gold.PLP.ligand.clash>
0.0000

> <Gold.PLP.ligand.torsion>
0.2525

> <Gold.PLP.Chemscore.Hbond>
1.1685

> <Gold.PLP.Chemscore.CHOScore>
1.0000

> <Gold.PLP.Chemscore.Metal>
0.0000

> <Gold.Chemscore.Hbonds>
donor molecule, donor type, donor heavy atom, donor atom, acceptor molecule, acceptor atom, score
      P1  H  7989  7998       L1    16  0.12
      P1  H  7997  8010       L1     4  1.00
      L1  C    15    33       P1  8028  1.00

> <Gold.PLP.Chemscore.Internal.Correction>
0.1049

> <Gold.Rescore>
     Score         DG    S(hbond)    S(metal)    S(lipo)     H(rot)  DE(clash)    DE(int)     intcor
     13.33     -14.96       1.00        0.00      87.66       1.61       0.01       1.62       ----

> <Gold.Chemscore.Fitness>
13.3269

> <Gold.Chemscore.DG>
-14.9574

> <Gold.Chemscore.ZeroCoef>
-5.4800

> <Gold.Chemscore.Hbond>
1.0003

> <Gold.Chemscore.Metal>
0.0000

> <Gold.Chemscore.Lipo>
87.6629

> <Gold.Chemscore.Internal_Hbond>
0.0000

> <Gold.Chemscore.DEClash>
0.0102

> <Gold.Chemscore.DEInternal>
1.6204

> <Gold.Chemscore.Rot>
1.6094

> <Gold.Chemscore.Internal.Correction>
   9.000000E+99

> <Gold.Chemscore.Hbonds>
donor molecule, donor type, donor heavy atom, donor atom, acceptor molecule, acceptor atom, score
      P1  H  7997  8010       L1     4  1.00

> <Gold.Chemscore.Hbond.Weighted>
-3.3409

> <Gold.Chemscore.Metal.Weighted>
-0.0000

> <Gold.Chemscore.Lipo.Weighted>
-10.2566

> <Gold.Chemscore.Internal_Hbond.Weighted>
0.0000

> <Gold.Chemscore.DEClash.Weighted>
0.0102

> <Gold.Chemscore.DEInternal.Weighted>
1.6204

> <Gold.Chemscore.Rot.Weighted>
4.1201

> <Gold.Chemscore.Internal.Correction.Weighted>
   9.000000E+99

> <Gold.Protein.RotatedTorsions>
[ 6907 6896 6895 6894 ] final   37.62 input  -60.11 | X-H torsion
[ 7974 7965 7964 7962 ] final -146.82 input  175.53 | X-H torsion
[ 8008 7997 7996 7995 ] final   79.74 input   59.86 | X-H torsion
[ 10167 10162 10161 10158 ] final  143.40 input  -65.29 | X-H torsion
[ 10718 10713 10712 10709 ] final  -49.60 input   66.30 | X-H torsion
[ 10763 10752 10751 10750 ] final   -0.86 input  -60.55 | X-H torsion
[ 11005 11000 10999 10996 ] final -150.64 input  -57.11 | X-H torsion

> <Gold.Protein.ActiveResidues>
 VAL166  LYS551  ARG553  GLY616  TRP617  ASP618  TYR619  PRO620  LYS621  CYS622 
 ASP623  PHE694  ASN695  SER759  ASP760  ASP761  ALA762  ILE779  LEU786  VAL792 
 PHE793  MET794  SER795  GLU796  ALA797  LYS798  CYS799  TRP800  GLU811  SER814 

> <Gold.Protein.RotatedAtoms>
  152.1456  134.9029  160.0550 H   0  0  0  0  0  0  0  0  0  0  0  0  # atno 6907 bound_to 6896
  152.0080  133.3845  159.4216 H   0  0  0  0  0  0  0  0  0  0  0  0  # atno 6908 bound_to 6896
  150.6870  134.3683  159.5024 H   0  0  0  0  0  0  0  0  0  0  0  0  # atno 6909 bound_to 6896
  144.8134  140.5407  143.5627 H   0  0  0  0  0  0  0  0  0  0  0  0  # atno 7974 bound_to 7965
  155.8738  140.3447  155.5840 H   0  0  0  0  0  0  0  0  0  0  0  0  # atno 8008 bound_to 7997
  155.7797  140.0856  157.2085 H   0  0  0  0  0  0  0  0  0  0  0  0  # atno 8009 bound_to 7997
  154.4019  140.1503  156.3025 H   0  0  0  0  0  0  0  0  0  0  0  0  # atno 8010 bound_to 7997
  139.4971  144.6043  151.6413 H   0  0  0  0  0  0  0  0  0  0  0  0  # atno 10167 bound_to 10162
  156.1878  130.4152  149.9414 H   0  0  0  0  0  0  0  0  0  0  0  0  # atno 10718 bound_to 10713
  153.3373  135.6978  153.6897 H   0  0  0  0  0  0  0  0  0  0  0  0  # atno 10763 bound_to 10752
  153.5675  135.3523  155.2825 H   0  0  0  0  0  0  0  0  0  0  0  0  # atno 10764 bound_to 10752
  154.8630  135.4264  154.2577 H   0  0  0  0  0  0  0  0  0  0  0  0  # atno 10765 bound_to 10752
  140.7381  134.3545  157.5153 H   0  0  0  0  0  0  0  0  0  0  0  0  # atno 11005 bound_to 11000
  145.5271  139.1476  143.3520 LP  0  0  0  0  0  0  0  0  0  0  0  0  # atno 17320 bound_to 7965
  146.2435  140.5411  142.8924 LP  0  0  0  0  0  0  0  0  0  0  0  0  # atno 17321 bound_to 7965
  140.5701  144.0124  150.6212 LP  0  0  0  0  0  0  0  0  0  0  0  0  # atno 17342 bound_to 10162
  140.3238  143.3120  152.0757 LP  0  0  0  0  0  0  0  0  0  0  0  0  # atno 17343 bound_to 10162
  156.7164  130.8990  151.3614 LP  0  0  0  0  0  0  0  0  0  0  0  0  # atno 17370 bound_to 10713
  157.6910  130.9233  150.0514 LP  0  0  0  0  0  0  0  0  0  0  0  0  # atno 17371 bound_to 10713
  139.8812  134.9062  156.2918 LP  0  0  0  0  0  0  0  0  0  0  0  0  # atno 17394 bound_to 11000
  140.9861  133.7237  156.0744 LP  0  0  0  0  0  0  0  0  0  0  0  0  # atno 17395 bound_to 11000

$$$$
