AV-unprocessed.smi:2010|AV-procd|sdf|8150|dock2
  -GOLD-   2272010393D 1   1.00000     0.00000
 Structure written by MMmdl.
 41 42  0  0  0  0  0  0  0  0  1 V2000
  151.7253  144.9399  160.3864 C   0  0  0  0  0  0  0  0  0  0  0  0
  152.0610  143.9758  159.2400 C   0  0  0  0  0  0  0  0  0  0  0  0
  150.8277  143.6567  158.3840 C   0  0  0  0  0  0  0  0  0  0  0  0
  151.1700  142.6957  157.2334 C   0  0  0  0  0  0  0  0  0  0  0  0
  151.8231  141.4669  157.7272 N   0  0  0  0  0  0  0  0  0  0  0  0
  151.8784  140.0967  156.6670 S   0  0  0  0  0  0  0  0  0  0  0  0
  151.1476  140.4167  155.4311 O   0  0  0  0  0  0  0  0  0  0  0  0
  153.2511  139.5701  156.6226 O   0  0  0  0  0  0  0  0  0  0  0  0
  150.9148  139.0111  157.5933 N   0  0  0  0  0  0  0  0  0  0  0  0
  151.1643  137.5705  157.5116 C   0  0  1  0  0  0  0  0  0  0  0  0
  150.4443  136.8597  158.6677 C   0  0  0  0  0  0  0  0  0  0  0  0
  150.7836  137.0529  156.1085 C   0  0  0  0  0  0  0  0  0  0  0  0
  151.0781  135.6430  155.9091 N   0  0  0  0  0  0  0  0  0  0  0  0
  150.6813  134.8259  154.8712 C   0  0  0  0  0  0  0  0  0  0  0  0
  151.1935  133.5835  155.1122 C   0  0  0  0  0  0  0  0  0  0  0  0
  151.9041  133.7428  156.3346 C   0  0  0  0  0  0  0  0  0  0  0  0
  151.8349  134.9765  156.8083 N   0  0  0  0  0  0  0  0  0  0  0  0
  152.9864  141.6977  158.6070 C   0  0  0  0  0  0  0  0  0  0  0  0
  152.6438  142.6548  159.7599 C   0  0  0  0  0  0  0  0  0  0  0  0
  150.9804  144.5126  161.0586 H   0  0  0  0  0  0  0  0  0  0  0  0
  151.3289  145.8807  160.0039 H   0  0  0  0  0  0  0  0  0  0  0  0
  152.6124  145.1716  160.9763 H   0  0  0  0  0  0  0  0  0  0  0  0
  152.8070  144.4563  158.6054 H   0  0  0  0  0  0  0  0  0  0  0  0
  150.0497  143.2132  159.0073 H   0  0  0  0  0  0  0  0  0  0  0  0
  150.4073  144.5764  157.9764 H   0  0  0  0  0  0  0  0  0  0  0  0
  150.2572  142.4371  156.6969 H   0  0  0  0  0  0  0  0  0  0  0  0
  151.8307  143.1847  156.5166 H   0  0  0  0  0  0  0  0  0  0  0  0
  150.7589  139.3387  158.5460 H   0  0  0  0  0  0  0  0  0  0  0  0
  152.2351  137.4049  157.6375 H   0  0  0  0  0  0  0  0  0  0  0  0
  150.6105  135.7830  158.6262 H   0  0  0  0  0  0  0  0  0  0  0  0
  149.3681  137.0319  158.6420 H   0  0  0  0  0  0  0  0  0  0  0  0
  150.8120  137.2129  159.6314 H   0  0  0  0  0  0  0  0  0  0  0  0
  149.7199  137.2106  155.9249 H   0  0  0  0  0  0  0  0  0  0  0  0
  151.3116  137.6292  155.3473 H   0  0  0  0  0  0  0  0  0  0  0  0
  150.0710  135.1931  154.0593 H   0  0  0  0  0  0  0  0  0  0  0  0
  151.0794  132.6965  154.5069 H   0  0  0  0  0  0  0  0  0  0  0  0
  152.4650  133.0041  156.8880 H   0  0  0  0  0  0  0  0  0  0  0  0
  153.3325  140.7490  159.0170 H   0  0  0  0  0  0  0  0  0  0  0  0
  153.8060  142.1022  158.0116 H   0  0  0  0  0  0  0  0  0  0  0  0
  153.5400  142.8475  160.3506 H   0  0  0  0  0  0  0  0  0  0  0  0
  151.9306  142.1738  160.4311 H   0  0  0  0  0  0  0  0  0  0  0  0
  1  2  1  0  0  0  0
  1 20  1  0  0  0  0
  1 21  1  0  0  0  0
  1 22  1  0  0  0  0
  2 19  1  0  0  0  0
  2  3  1  0  0  0  0
  2 23  1  0  0  0  0
  3  4  1  0  0  0  0
  3 24  1  0  0  0  0
  3 25  1  0  0  0  0
  4  5  1  0  0  0  0
  4 26  1  0  0  0  0
  4 27  1  0  0  0  0
  5  6  1  0  0  0  0
  5 18  1  0  0  0  0
  6  7  2  0  0  0  0
  6  8  2  0  0  0  0
  6  9  1  0  0  0  0
  9 10  1  0  0  0  0
  9 28  1  0  0  0  0
 10 11  1  0  0  0  0
 10 12  1  0  0  0  0
 10 29  1  0  0  0  0
 11 30  1  0  0  0  0
 11 31  1  0  0  0  0
 11 32  1  0  0  0  0
 12 13  1  0  0  0  0
 12 33  1  0  0  0  0
 12 34  1  0  0  0  0
 13 17  1  0  0  0  0
 13 14  1  0  0  0  0
 14 15  2  0  0  0  0
 14 35  1  0  0  0  0
 15 16  1  0  0  0  0
 15 36  1  0  0  0  0
 16 17  2  0  0  0  0
 16 37  1  0  0  0  0
 18 19  1  0  0  0  0
 18 38  1  0  0  0  0
 18 39  1  0  0  0  0
 19 40  1  0  0  0  0
 19 41  1  0  0  0  0
M  END
> <s_m_source_file>
AV-unprocessed.smi

> <i_m_source_file_index>
2010

> <i_lp_mmshare_version>
43012

> <i_f3d_flags>
0

> <s_epik_input>
W0NIM11bQ0hdMVtDSDJdW0NIMl1OKFtDSDJdW0NIMl0xKVMoPU8pKD1PKVtOSF1bQ0BIXShbQ0gzXSlbQ0gyXW4yW2NIXVtjSF1bY0hdbjI=

> <s_epik_cmdline>
J2VwaWtfcHl0aG9uJywgJy1waCcsICc3LjAnLCAnLXRuJywgJzgnLCAnLW1hJywgJzIwMCcsICctbWV0YWxfYmluZGluZycsICctaW1hZScsICc8aW5maWxlLm1hZT4nLCAnLW9tYWUnLCAnPG91dGZpbGUubWFlPic=

> <r_lp_tautomer_probability>
1

> <r_epik_Ionization_Penalty>
0.0313937

> <r_epik_Ionization_Penalty_Charging>
0

> <r_epik_Ionization_Penalty_Neutral>
0.0313937

> <r_epik_State_Penalty>
0.0259441

> <r_epik_Charging_Adjusted_Penalty>
0.0259441

> <i_epik_Tot_Q>
0

> <i_epik_Tot_abs_Q>
0

> <r_epik_Metal_State_Penalty>
0.365037

> <b_epik_Metal_Only>
0

> <s_lp_Force_Field>
OPLS_2005

> <r_lp_Energy>
7.16397

> <b_lp_Chiralities_Consistent>
1

> <s_lp_Variant>
AV-unprocessed.smi:2010-2

> <Gold.Version>
5.8.1

> <Gold.Id.Protein>
6NUR|6NUR_protein|mol2

> <Gold.PLP.Fitness>
43.4818

> <Gold.PLP.PLP>
-35.8977

> <Gold.PLP.part.hbond>
-2.6361

> <Gold.PLP.part.metal>
0.0000

> <Gold.PLP.part.buried>
-6.1908

> <Gold.PLP.part.nonpolar>
-27.2594

> <Gold.PLP.part.repulsive>
0.0250

> <Gold.PLP.ligand.clash>
0.0000

> <Gold.PLP.ligand.torsion>
1.7170

> <Gold.PLP.Chemscore.Hbond>
1.9600

> <Gold.PLP.Chemscore.CHOScore>
1.0000

> <Gold.PLP.Chemscore.Metal>
0.0000

> <Gold.Chemscore.Hbonds>
donor molecule, donor type, donor heavy atom, donor atom, acceptor molecule, acceptor atom, score
      P1  H  7989  7998       L1     7  0.94
      P1  H  7997  8010       L1     8  0.23
      P1  H 10752 10763       L1    17  0.01
      L1  C    14    35       P1  7948  0.35

> <Gold.PLP.Chemscore.Internal.Correction>
2.1380

> <Gold.Rescore>
     Score         DG    S(hbond)    S(metal)    S(lipo)     H(rot)  DE(clash)    DE(int)     intcor
     15.13     -17.96       1.96        0.00      85.67       1.59       0.00       2.84       ----

> <Gold.Chemscore.Fitness>
15.1259

> <Gold.Chemscore.DG>
-17.9628

> <Gold.Chemscore.ZeroCoef>
-5.4800

> <Gold.Chemscore.Hbond>
1.9551

> <Gold.Chemscore.Metal>
0.0000

> <Gold.Chemscore.Lipo>
85.6694

> <Gold.Chemscore.Internal_Hbond>
0.0000

> <Gold.Chemscore.DEClash>
0.0000

> <Gold.Chemscore.DEInternal>
2.8369

> <Gold.Chemscore.Rot>
1.5901

> <Gold.Chemscore.Internal.Correction>
   9.000000E+99

> <Gold.Chemscore.Hbonds>
donor molecule, donor type, donor heavy atom, donor atom, acceptor molecule, acceptor atom, score
      P1  H  7989  7998       L1     7  0.85
      P1  H  7997  8010       L1     8  0.23

> <Gold.Chemscore.Hbond.Weighted>
-6.5301

> <Gold.Chemscore.Metal.Weighted>
-0.0000

> <Gold.Chemscore.Lipo.Weighted>
-10.0233

> <Gold.Chemscore.Internal_Hbond.Weighted>
0.0000

> <Gold.Chemscore.DEClash.Weighted>
0.0000

> <Gold.Chemscore.DEInternal.Weighted>
2.8369

> <Gold.Chemscore.Rot.Weighted>
4.0707

> <Gold.Chemscore.Internal.Correction.Weighted>
   9.000000E+99

> <Gold.Protein.RotatedTorsions>
[ 6907 6896 6895 6894 ] final  -79.11 input  -60.11 | X-H torsion
[ 7974 7965 7964 7962 ] final -169.09 input  175.53 | X-H torsion
[ 8008 7997 7996 7995 ] final   64.16 input   59.86 | X-H torsion
[ 10167 10162 10161 10158 ] final -112.77 input  -65.29 | X-H torsion
[ 10718 10713 10712 10709 ] final    5.62 input   66.30 | X-H torsion
[ 10763 10752 10751 10750 ] final  114.90 input  -60.55 | X-H torsion
[ 11005 11000 10999 10996 ] final   18.52 input  -57.11 | X-H torsion

> <Gold.Protein.ActiveResidues>
 VAL166  LYS551  ARG553  GLY616  TRP617  ASP618  TYR619  PRO620  LYS621  CYS622 
 ASP623  PHE694  ASN695  SER759  ASP760  ASP761  ALA762  ILE779  LEU786  VAL792 
 PHE793  MET794  SER795  GLU796  ALA797  LYS798  CYS799  TRP800  GLU811  SER814 

> <Gold.Protein.RotatedAtoms>
  150.6957  134.4170  159.5187 H   0  0  0  0  0  0  0  0  0  0  0  0  # atno 6907 bound_to 6896
  152.1919  134.8661  160.0526 H   0  0  0  0  0  0  0  0  0  0  0  0  # atno 6908 bound_to 6896
  151.9614  133.3661  159.4073 H   0  0  0  0  0  0  0  0  0  0  0  0  # atno 6909 bound_to 6896
  144.7191  140.2273  143.6308 H   0  0  0  0  0  0  0  0  0  0  0  0  # atno 7974 bound_to 7965
  155.6416  140.3497  155.4717 H   0  0  0  0  0  0  0  0  0  0  0  0  # atno 8008 bound_to 7997
  155.9921  140.1196  157.0652 H   0  0  0  0  0  0  0  0  0  0  0  0  # atno 8009 bound_to 7997
  154.4222  140.1117  156.5566 H   0  0  0  0  0  0  0  0  0  0  0  0  # atno 8010 bound_to 7997
  140.1191  143.4459  152.1702 H   0  0  0  0  0  0  0  0  0  0  0  0  # atno 10167 bound_to 10162
  156.9100  130.5753  149.5647 H   0  0  0  0  0  0  0  0  0  0  0  0  # atno 10718 bound_to 10713
  153.5142  135.3611  155.2601 H   0  0  0  0  0  0  0  0  0  0  0  0  # atno 10763 bound_to 10752
  154.8740  135.4030  154.3333 H   0  0  0  0  0  0  0  0  0  0  0  0  # atno 10764 bound_to 10752
  153.3992  135.7074  153.6505 H   0  0  0  0  0  0  0  0  0  0  0  0  # atno 10765 bound_to 10752
  140.4239  134.1490  155.7675 H   0  0  0  0  0  0  0  0  0  0  0  0  # atno 11005 bound_to 11000
  145.8444  139.2145  143.1809 LP  0  0  0  0  0  0  0  0  0  0  0  0  # atno 17320 bound_to 7965
  146.0318  140.8251  142.9872 LP  0  0  0  0  0  0  0  0  0  0  0  0  # atno 17321 bound_to 7965
  139.5578  144.7385  151.4243 LP  0  0  0  0  0  0  0  0  0  0  0  0  # atno 17342 bound_to 10162
  140.6882  143.7924  150.7216 LP  0  0  0  0  0  0  0  0  0  0  0  0  # atno 17343 bound_to 10162
  156.0540  130.5605  150.9052 LP  0  0  0  0  0  0  0  0  0  0  0  0  # atno 17370 bound_to 10713
  157.5973  131.0942  150.9019 LP  0  0  0  0  0  0  0  0  0  0  0  0  # atno 17371 bound_to 10713
  141.1773  133.8488  157.1378 LP  0  0  0  0  0  0  0  0  0  0  0  0  # atno 17394 bound_to 11000
  140.0181  134.9958  157.0535 LP  0  0  0  0  0  0  0  0  0  0  0  0  # atno 17395 bound_to 11000

$$$$
