AV-unprocessed.smi:3181|AV-procd|sdf|12148|dock3
  -GOLD-   2272017583D 1   1.00000     0.00000
 Structure written by MMmdl.
 42 43  0  0  0  0  0  0  0  0  2 V2000
  148.6808  140.2659  157.1481 C   0  0  0  0  0  0  0  0  0  0  0  0
  149.8746  141.0436  156.5701 C   0  0  1  0  0  0  0  0  0  0  0  0
  149.8943  141.0250  155.0258 C   0  0  0  0  0  0  0  0  0  0  0  0
  148.5725  141.1614  154.4432 N   0  0  0  0  0  0  0  0  0  0  0  0
  147.7209  142.1885  154.4480 C   0  0  0  0  0  0  0  0  0  0  0  0
  146.5915  141.9493  153.7966 N   0  0  0  0  0  0  0  0  0  0  0  0
  146.8340  140.6709  153.3791 C   0  0  0  0  0  0  0  0  0  0  0  0
  148.0095  140.1532  153.7370 N   0  0  0  0  0  0  0  0  0  0  0  0
  149.8408  142.4391  157.0641 N   0  3  0  0  0  0  0  0  0  0  0  0
  151.0988  142.9565  157.6516 C   0  0  2  0  0  0  0  0  0  0  0  0
  151.8280  141.8202  158.3903 C   0  0  0  0  0  0  0  0  0  0  0  0
  153.1291  142.3126  159.0458 C   0  0  0  0  0  0  0  0  0  0  0  0
  152.8889  143.4961  160.0049 C   0  0  2  0  0  0  0  0  0  0  0  0
  152.1952  143.0438  161.3057 C   0  0  0  0  0  0  0  0  0  0  0  0
  152.1555  144.6398  159.2593 C   0  0  2  0  0  0  0  0  0  0  0  0
  151.9224  145.8836  160.1328 C   0  0  0  0  0  0  0  0  0  0  0  0
  150.8500  144.1496  158.5999 C   0  0  0  0  0  0  0  0  0  0  0  0
  148.7127  139.2137  156.8643 H   0  0  0  0  0  0  0  0  0  0  0  0
  147.7325  140.6758  156.7988 H   0  0  0  0  0  0  0  0  0  0  0  0
  148.6789  140.3051  158.2379 H   0  0  0  0  0  0  0  0  0  0  0  0
  150.7805  140.5600  156.9391 H   0  0  0  0  0  0  0  0  0  0  0  0
  150.5203  141.8348  154.6482 H   0  0  0  0  0  0  0  0  0  0  0  0
  150.3307  140.0987  154.6518 H   0  0  0  0  0  0  0  0  0  0  0  0
  147.9282  143.1274  154.9405 H   0  0  0  0  0  0  0  0  0  0  0  0
  146.1238  140.1052  152.7940 H   0  0  0  0  0  0  0  0  0  0  0  0
  149.5433  143.0501  156.3169 H   0  0  0  0  0  0  0  0  0  0  0  0
  151.7405  143.2854  156.8323 H   0  0  0  0  0  0  0  0  0  0  0  0
  151.1742  141.3886  159.1491 H   0  0  0  0  0  0  0  0  0  0  0  0
  152.0581  141.0129  157.6938 H   0  0  0  0  0  0  0  0  0  0  0  0
  153.6146  141.4909  159.5735 H   0  0  0  0  0  0  0  0  0  0  0  0
  153.8256  142.6201  158.2645 H   0  0  0  0  0  0  0  0  0  0  0  0
  153.8708  143.8718  160.2966 H   0  0  0  0  0  0  0  0  0  0  0  0
  151.1730  142.7085  161.1339 H   0  0  0  0  0  0  0  0  0  0  0  0
  152.1603  143.8485  162.0397 H   0  0  0  0  0  0  0  0  0  0  0  0
  152.7372  142.2186  161.7681 H   0  0  0  0  0  0  0  0  0  0  0  0
  152.8160  144.9587  158.4512 H   0  0  0  0  0  0  0  0  0  0  0  0
  151.1967  145.6927  160.9236 H   0  0  0  0  0  0  0  0  0  0  0  0
  151.5425  146.7130  159.5357 H   0  0  0  0  0  0  0  0  0  0  0  0
  152.8498  146.2150  160.6007 H   0  0  0  0  0  0  0  0  0  0  0  0
  150.4087  144.9779  158.0453 H   0  0  0  0  0  0  0  0  0  0  0  0
  150.1237  143.8735  159.3653 H   0  0  0  0  0  0  0  0  0  0  0  0
  149.1443  142.4745  157.7947 H   0  0  0  0  0  0  0  0  0  0  0  0
  1  2  1  0  0  0  0
  1 18  1  0  0  0  0
  1 19  1  0  0  0  0
  1 20  1  0  0  0  0
  2  3  1  0  0  0  0
  2  9  1  0  0  0  0
  2 21  1  0  0  0  0
  3  4  1  0  0  0  0
  3 22  1  0  0  0  0
  3 23  1  0  0  0  0
  4  8  1  0  0  0  0
  4  5  1  0  0  0  0
  5  6  2  0  0  0  0
  5 24  1  0  0  0  0
  6  7  1  0  0  0  0
  7  8  2  0  0  0  0
  7 25  1  0  0  0  0
  9 10  1  0  0  0  0
  9 26  1  0  0  0  0
  9 42  1  0  0  0  0
 10 17  1  0  0  0  0
 10 11  1  0  0  0  0
 10 27  1  0  0  0  0
 11 12  1  0  0  0  0
 11 28  1  0  0  0  0
 11 29  1  0  0  0  0
 12 13  1  0  0  0  0
 12 30  1  0  0  0  0
 12 31  1  0  0  0  0
 13 14  1  0  0  0  0
 13 15  1  0  0  0  0
 13 32  1  0  0  0  0
 14 33  1  0  0  0  0
 14 34  1  0  0  0  0
 14 35  1  0  0  0  0
 15 16  1  0  0  0  0
 15 17  1  0  0  0  0
 15 36  1  0  0  0  0
 16 37  1  0  0  0  0
 16 38  1  0  0  0  0
 16 39  1  0  0  0  0
 17 40  1  0  0  0  0
 17 41  1  0  0  0  0
M  CHG  1   9   1
M  END
> <s_m_source_file>
AV-unprocessed.smi

> <i_m_source_file_index>
3181

> <i_lp_mmshare_version>
43012

> <i_f3d_flags>
0

> <s_epik_input>
bjFbY0hdbltjSF1uMVtDSDJdW0NAQEhdKFtDSDNdKVtOSF1bQ0BASF0yW0NIMl1bQ0gyXVtDQEBIXShbQ0gzXSlbQ0BASF0oW0NIM10pW0NIMl0y

> <s_epik_cmdline>
J2VwaWtfcHl0aG9uJywgJy1waCcsICc3LjAnLCAnLXRuJywgJzgnLCAnLW1hJywgJzIwMCcsICctbWV0YWxfYmluZGluZycsICctaW1hZScsICc8aW5maWxlLm1hZT4nLCAnLW9tYWUnLCAnPG91dGZpbGUubWFlPic=

> <r_lp_tautomer_probability>
1

> <r_epik_Ionization_Penalty>
0.000617007

> <r_epik_Ionization_Penalty_Charging>
0.000616215

> <r_epik_Ionization_Penalty_Neutral>
7.92544e-07

> <r_epik_State_Penalty>
0.000388807

> <r_epik_Charging_Adjusted_Penalty>
0.00100502

> <i_epik_Tot_Q>
1

> <i_epik_Tot_abs_Q>
1

> <r_epik_Metal_State_Penalty>
-0

> <b_epik_Metal_Only>
0

> <s_lp_Force_Field>
OPLS_2005

> <r_lp_Energy>
20.8152

> <b_lp_Chiralities_Consistent>
1

> <s_lp_Variant>
AV-unprocessed.smi:3181-14

> <Gold.Version>
5.8.1

> <Gold.Id.Protein>
6NUR|6NUR_protein|mol2

> <Gold.PLP.Fitness>
49.1904

> <Gold.PLP.PLP>
-39.6984

> <Gold.PLP.part.hbond>
-1.0000

> <Gold.PLP.part.metal>
0.0000

> <Gold.PLP.part.buried>
-3.4065

> <Gold.PLP.part.nonpolar>
-35.8677

> <Gold.PLP.part.repulsive>
0.6913

> <Gold.PLP.ligand.clash>
0.0000

> <Gold.PLP.ligand.torsion>
1.1888

> <Gold.PLP.Chemscore.Hbond>
2.0000

> <Gold.PLP.Chemscore.CHOScore>
1.9415

> <Gold.PLP.Chemscore.Metal>
0.0000

> <Gold.Chemscore.Hbonds>
donor molecule, donor type, donor heavy atom, donor atom, acceptor molecule, acceptor atom, score
      L1  H     9    26       P1  8028  2.00
      L1  C     5    24       P1  8028  0.82
      L1  C     7    25       P1 10175  0.99

> <Gold.PLP.Chemscore.Internal.Correction>
0.0451

> <Gold.Rescore>
     Score         DG    S(hbond)    S(metal)    S(lipo)     H(rot)  DE(clash)    DE(int)     intcor
     14.19     -15.72       0.97        0.00     105.87       2.11       0.38       1.15       ----

> <Gold.Chemscore.Fitness>
14.1886

> <Gold.Chemscore.DG>
-15.7219

> <Gold.Chemscore.ZeroCoef>
-5.4800

> <Gold.Chemscore.Hbond>
0.9746

> <Gold.Chemscore.Metal>
0.0000

> <Gold.Chemscore.Lipo>
105.8732

> <Gold.Chemscore.Internal_Hbond>
0.0000

> <Gold.Chemscore.DEClash>
0.3822

> <Gold.Chemscore.DEInternal>
1.1511

> <Gold.Chemscore.Rot>
2.1095

> <Gold.Chemscore.Internal.Correction>
   9.000000E+99

> <Gold.Chemscore.Hbonds>
donor molecule, donor type, donor heavy atom, donor atom, acceptor molecule, acceptor atom, score
      L1  H     9    26       P1  8028  0.96

> <Gold.Chemscore.Hbond.Weighted>
-3.2550

> <Gold.Chemscore.Metal.Weighted>
-0.0000

> <Gold.Chemscore.Lipo.Weighted>
-12.3872

> <Gold.Chemscore.Internal_Hbond.Weighted>
0.0000

> <Gold.Chemscore.DEClash.Weighted>
0.3822

> <Gold.Chemscore.DEInternal.Weighted>
1.1511

> <Gold.Chemscore.Rot.Weighted>
5.4003

> <Gold.Chemscore.Internal.Correction.Weighted>
   9.000000E+99

> <Gold.Protein.RotatedTorsions>
[ 6907 6896 6895 6894 ] final   10.86 input  -60.11 | X-H torsion
[ 7974 7965 7964 7962 ] final  -73.41 input  175.53 | X-H torsion
[ 8008 7997 7996 7995 ] final  112.71 input   59.86 | X-H torsion
[ 10167 10162 10161 10158 ] final  -36.29 input  -65.29 | X-H torsion
[ 10718 10713 10712 10709 ] final -122.88 input   66.30 | X-H torsion
[ 10763 10752 10751 10750 ] final -145.83 input  -60.55 | X-H torsion
[ 11005 11000 10999 10996 ] final   91.89 input  -57.11 | X-H torsion

> <Gold.Protein.ActiveResidues>
 VAL166  LYS551  ARG553  GLY616  TRP617  ASP618  TYR619  PRO620  LYS621  CYS622 
 ASP623  PHE694  ASN695  SER759  ASP760  ASP761  ALA762  ILE779  LEU786  VAL792 
 PHE793  MET794  SER795  GLU796  ALA797  LYS798  CYS799  TRP800  GLU811  SER814 

> <Gold.Protein.RotatedAtoms>
  151.7450  135.0846  160.0321 H   0  0  0  0  0  0  0  0  0  0  0  0  # atno 6907 bound_to 6896
  152.3455  133.6112  159.5915 H   0  0  0  0  0  0  0  0  0  0  0  0  # atno 6908 bound_to 6896
  150.7506  133.9573  159.3546 H   0  0  0  0  0  0  0  0  0  0  0  0  # atno 6909 bound_to 6896
  145.6526  140.9278  143.0977 H   0  0  0  0  0  0  0  0  0  0  0  0  # atno 7974 bound_to 7965
  156.2210  140.2994  155.9953 H   0  0  0  0  0  0  0  0  0  0  0  0  # atno 8008 bound_to 7997
  155.2481  140.0425  157.3000 H   0  0  0  0  0  0  0  0  0  0  0  0  # atno 8009 bound_to 7997
  154.5841  140.2383  155.8020 H   0  0  0  0  0  0  0  0  0  0  0  0  # atno 8010 bound_to 7997
  140.7146  143.3419  151.2339 H   0  0  0  0  0  0  0  0  0  0  0  0  # atno 10167 bound_to 10162
  156.1455  130.6497  150.9836 H   0  0  0  0  0  0  0  0  0  0  0  0  # atno 10718 bound_to 10713
  154.8365  135.3403  154.6566 H   0  0  0  0  0  0  0  0  0  0  0  0  # atno 10763 bound_to 10752
  153.7180  135.6960  153.5024 H   0  0  0  0  0  0  0  0  0  0  0  0  # atno 10764 bound_to 10752
  153.2402  135.4387  155.0643 H   0  0  0  0  0  0  0  0  0  0  0  0  # atno 10765 bound_to 10752
  139.8831  134.8701  156.3493 H   0  0  0  0  0  0  0  0  0  0  0  0  # atno 11005 bound_to 11000
  144.7117  139.8345  143.7412 LP  0  0  0  0  0  0  0  0  0  0  0  0  # atno 17320 bound_to 7965
  146.1191  139.4207  143.0239 LP  0  0  0  0  0  0  0  0  0  0  0  0  # atno 17321 bound_to 7965
  139.6928  143.9663  152.2868 LP  0  0  0  0  0  0  0  0  0  0  0  0  # atno 17342 bound_to 10162
  139.9330  144.6729  150.8343 LP  0  0  0  0  0  0  0  0  0  0  0  0  # atno 17343 bound_to 10162
  157.6613  131.0880  150.7832 LP  0  0  0  0  0  0  0  0  0  0  0  0  # atno 17370 bound_to 10713
  156.7903  130.4888  149.5386 LP  0  0  0  0  0  0  0  0  0  0  0  0  # atno 17371 bound_to 10713
  140.9605  133.7392  156.0395 LP  0  0  0  0  0  0  0  0  0  0  0  0  # atno 17394 bound_to 11000
  140.7995  134.3525  157.5443 LP  0  0  0  0  0  0  0  0  0  0  0  0  # atno 17395 bound_to 11000

$$$$
