AV-unprocessed.smi:1492|AV-procd|sdf|6043|dock10
  -GOLD-   22720 6153D 1   1.00000     0.00000
 Structure written by MMmdl.
 53 54  0  0  0  0  0  0  0  0  2 V2000
  150.2993  130.8965  155.0498 C   0  0  0  0  0  0  0  0  0  0  0  0
  149.2299  130.8575  153.9451 C   0  0  0  0  0  0  0  0  0  0  0  0
  148.3339  132.1330  153.8326 C   0  0  2  0  0  0  0  0  0  0  0  0
  149.2656  133.3688  153.9216 C   0  0  0  0  0  0  0  0  0  0  0  0
  147.3378  132.1831  155.0359 C   0  0  0  0  0  0  0  0  0  0  0  0
  148.0086  132.3601  156.3202 N   0  0  0  0  0  0  0  0  0  0  0  0
  147.4019  132.5370  157.5028 C   0  0  0  0  0  0  0  0  0  0  0  0
  146.1957  132.7429  157.6301 O   0  0  0  0  0  0  0  0  0  0  0  0
  148.2963  132.4087  158.7346 C   0  0  0  0  0  0  0  0  0  0  0  0
  147.9384  133.3651  159.8719 C   0  0  0  0  0  0  0  0  0  0  0  0
  147.6076  132.9360  161.1165 C   0  0  0  0  0  0  0  0  0  0  0  0
  147.5380  131.4762  161.5294 C   0  0  0  0  0  0  0  0  0  0  0  0
  147.3151  133.8326  162.1287 N   0  0  0  0  0  0  0  0  0  0  0  0
  147.3780  135.1846  161.8358 C   0  0  0  0  0  0  0  0  0  0  0  0
  147.0478  136.0766  163.0126 C   0  0  0  0  0  0  0  0  0  0  0  0
  147.6890  135.6920  160.6820 N   0  0  0  0  0  0  0  0  0  0  0  0
  147.9922  134.8251  159.6201 C   0  0  0  0  0  0  0  0  0  0  0  0
  148.3083  135.2771  158.5203 O   0  0  0  0  0  0  0  0  0  0  0  0
  147.5744  132.1270  152.5260 N   0  3  0  0  0  0  0  0  0  0  0  0
  146.5273  131.0747  152.3791 C   0  0  0  0  0  0  0  0  0  0  0  0
  145.9536  131.0676  150.9515 C   0  0  0  0  0  0  0  0  0  0  0  0
  145.4335  132.3492  150.6315 O   0  0  0  0  0  0  0  0  0  0  0  0
  146.4452  133.3444  150.6667 C   0  0  0  0  0  0  0  0  0  0  0  0
  147.0198  133.4413  152.0887 C   0  0  0  0  0  0  0  0  0  0  0  0
  147.0712  133.4704  163.0395 H   0  0  0  0  0  0  0  0  0  0  0  0
  150.8768  129.9719  155.0519 H   0  0  0  0  0  0  0  0  0  0  0  0
  149.8548  131.0051  156.0391 H   0  0  0  0  0  0  0  0  0  0  0  0
  151.0037  131.7148  154.9046 H   0  0  0  0  0  0  0  0  0  0  0  0
  149.7325  130.6673  152.9969 H   0  0  0  0  0  0  0  0  0  0  0  0
  148.6182  129.9666  154.0798 H   0  0  0  0  0  0  0  0  0  0  0  0
  149.8233  133.3800  154.8586 H   0  0  0  0  0  0  0  0  0  0  0  0
  148.7099  134.3051  153.8740 H   0  0  0  0  0  0  0  0  0  0  0  0
  150.0102  133.3843  153.1266 H   0  0  0  0  0  0  0  0  0  0  0  0
  146.6658  133.0363  154.9492 H   0  0  0  0  0  0  0  0  0  0  0  0
  146.7043  131.2948  155.0390 H   0  0  0  0  0  0  0  0  0  0  0  0
  149.0092  132.2230  156.3278 H   0  0  0  0  0  0  0  0  0  0  0  0
  148.2822  131.3728  159.0757 H   0  0  0  0  0  0  0  0  0  0  0  0
  149.3290  132.5879  158.4347 H   0  0  0  0  0  0  0  0  0  0  0  0
  146.8035  130.9417  160.9266 H   0  0  0  0  0  0  0  0  0  0  0  0
  147.2528  131.3678  162.5767 H   0  0  0  0  0  0  0  0  0  0  0  0
  148.5084  130.9970  161.3987 H   0  0  0  0  0  0  0  0  0  0  0  0
  146.9901  137.1218  162.7062 H   0  0  0  0  0  0  0  0  0  0  0  0
  147.8157  135.9880  163.7816 H   0  0  0  0  0  0  0  0  0  0  0  0
  146.0875  135.7966  163.4469 H   0  0  0  0  0  0  0  0  0  0  0  0
  146.9257  130.0792  152.5628 H   0  0  0  0  0  0  0  0  0  0  0  0
  145.7232  131.2409  153.0962 H   0  0  0  0  0  0  0  0  0  0  0  0
  146.7171  130.7793  150.2271 H   0  0  0  0  0  0  0  0  0  0  0  0
  145.1512  130.3337  150.8743 H   0  0  0  0  0  0  0  0  0  0  0  0
  147.2291  133.1165  149.9426 H   0  0  0  0  0  0  0  0  0  0  0  0
  146.0092  134.2996  150.3730 H   0  0  0  0  0  0  0  0  0  0  0  0
  146.2327  133.7665  152.7692 H   0  0  0  0  0  0  0  0  0  0  0  0
  147.7799  134.2192  152.0795 H   0  0  0  0  0  0  0  0  0  0  0  0
  148.2726  131.8946  151.8340 H   0  0  0  0  0  0  0  0  0  0  0  0
  1  2  1  0  0  0  0
  1 26  1  0  0  0  0
  1 27  1  0  0  0  0
  1 28  1  0  0  0  0
  2  3  1  0  0  0  0
  2 29  1  0  0  0  0
  2 30  1  0  0  0  0
  3  4  1  0  0  0  0
  3  5  1  0  0  0  0
  3 19  1  0  0  0  0
  4 31  1  0  0  0  0
  4 32  1  0  0  0  0
  4 33  1  0  0  0  0
  5  6  1  0  0  0  0
  5 34  1  0  0  0  0
  5 35  1  0  0  0  0
  6  7  1  0  0  0  0
  6 36  1  0  0  0  0
  7  8  2  0  0  0  0
  7  9  1  0  0  0  0
  9 37  1  0  0  0  0
  9 38  1  0  0  0  0
  9 10  1  0  0  0  0
 10 17  1  0  0  0  0
 10 11  2  0  0  0  0
 11 12  1  0  0  0  0
 11 13  1  0  0  0  0
 12 39  1  0  0  0  0
 12 40  1  0  0  0  0
 12 41  1  0  0  0  0
 13 25  1  0  0  0  0
 13 14  1  0  0  0  0
 14 15  1  0  0  0  0
 14 16  2  0  0  0  0
 15 42  1  0  0  0  0
 15 43  1  0  0  0  0
 15 44  1  0  0  0  0
 16 17  1  0  0  0  0
 17 18  2  0  0  0  0
 19 24  1  0  0  0  0
 19 20  1  0  0  0  0
 19 53  1  0  0  0  0
 20 21  1  0  0  0  0
 20 45  1  0  0  0  0
 20 46  1  0  0  0  0
 21 22  1  0  0  0  0
 21 47  1  0  0  0  0
 21 48  1  0  0  0  0
 22 23  1  0  0  0  0
 23 24  1  0  0  0  0
 23 49  1  0  0  0  0
 23 50  1  0  0  0  0
 24 51  1  0  0  0  0
 24 52  1  0  0  0  0
M  CHG  1  19   1
M  END
> <s_m_source_file>
AV-unprocessed.smi

> <i_m_source_file_index>
1492

> <i_lp_mmshare_version>
43012

> <i_f3d_flags>
0

> <s_epik_input>
W0NIMl0xW0NIMl1PW0NIMl1bQ0gyXU4xW0NAQF0oW0NIM10pKFtDSDJdW0NIM10pW0NIMl1bTkhdQyg9TylbQ0gyXWMyYyhbQ0gzXSluYyhbQ0gzXSlbbkhdYzI9Tw==

> <s_epik_cmdline>
J2VwaWtfcHl0aG9uJywgJy1waCcsICc3LjAnLCAnLXRuJywgJzgnLCAnLW1hJywgJzIwMCcsICctbWV0YWxfYmluZGluZycsICctaW1hZScsICc8aW5maWxlLm1hZT4nLCAnLW9tYWUnLCAnPG91dGZpbGUubWFlPic=

> <r_lp_tautomer_probability>
0.156392

> <r_epik_Ionization_Penalty>
0.523233

> <r_epik_Ionization_Penalty_Charging>
0.523147

> <r_epik_Ionization_Penalty_Neutral>
8.52784e-05

> <r_epik_State_Penalty>
1.66677

> <r_epik_Charging_Adjusted_Penalty>
2.18991

> <i_epik_Tot_Q>
1

> <i_epik_Tot_abs_Q>
1

> <r_epik_Metal_State_Penalty>
1.84524

> <b_epik_Metal_Only>
0

> <s_lp_Force_Field>
OPLS_2005

> <r_lp_Energy>
32.5308

> <b_lp_Chiralities_Consistent>
1

> <s_lp_Variant>
AV-unprocessed.smi:1492-8

> <Gold.Version>
5.8.1

> <Gold.Id.Protein>
6NUR|6NUR_protein|mol2

> <Gold.PLP.Fitness>
38.9026

> <Gold.PLP.PLP>
-37.2406

> <Gold.PLP.part.hbond>
-1.0000

> <Gold.PLP.part.metal>
0.0000

> <Gold.PLP.part.buried>
-5.5894

> <Gold.PLP.part.nonpolar>
-31.1136

> <Gold.PLP.part.repulsive>
0.2277

> <Gold.PLP.ligand.clash>
0.0000

> <Gold.PLP.ligand.torsion>
0.7771

> <Gold.PLP.Chemscore.Hbond>
1.0000

> <Gold.PLP.Chemscore.CHOScore>
0.0000

> <Gold.PLP.Chemscore.Metal>
0.0000

> <Gold.Chemscore.Hbonds>
donor molecule, donor type, donor heavy atom, donor atom, acceptor molecule, acceptor atom, score
      L1  H    19    53       P1 10747  1.00

> <Gold.PLP.Chemscore.Internal.Correction>
0.2162

> <Gold.Rescore>
     Score         DG    S(hbond)    S(metal)    S(lipo)     H(rot)  DE(clash)    DE(int)     intcor
     11.71     -13.36       1.00        0.00      86.79       2.19       0.02       1.62       ----

> <Gold.Chemscore.Fitness>
11.7124

> <Gold.Chemscore.DG>
-13.3592

> <Gold.Chemscore.ZeroCoef>
-5.4800

> <Gold.Chemscore.Hbond>
0.9994

> <Gold.Chemscore.Metal>
0.0000

> <Gold.Chemscore.Lipo>
86.7879

> <Gold.Chemscore.Internal_Hbond>
0.0000

> <Gold.Chemscore.DEClash>
0.0232

> <Gold.Chemscore.DEInternal>
1.6235

> <Gold.Chemscore.Rot>
2.1926

> <Gold.Chemscore.Internal.Correction>
   9.000000E+99

> <Gold.Chemscore.Hbonds>
donor molecule, donor type, donor heavy atom, donor atom, acceptor molecule, acceptor atom, score
      L1  H    19    53       P1 10747  0.95

> <Gold.Chemscore.Hbond.Weighted>
-3.3379

> <Gold.Chemscore.Metal.Weighted>
-0.0000

> <Gold.Chemscore.Lipo.Weighted>
-10.1542

> <Gold.Chemscore.Internal_Hbond.Weighted>
0.0000

> <Gold.Chemscore.DEClash.Weighted>
0.0232

> <Gold.Chemscore.DEInternal.Weighted>
1.6235

> <Gold.Chemscore.Rot.Weighted>
5.6129

> <Gold.Chemscore.Internal.Correction.Weighted>
   9.000000E+99

> <Gold.Protein.RotatedTorsions>
[ 6907 6896 6895 6894 ] final -103.84 input  -60.11 | X-H torsion
[ 7974 7965 7964 7962 ] final   75.73 input  175.53 | X-H torsion
[ 8008 7997 7996 7995 ] final -127.40 input   59.86 | X-H torsion
[ 10167 10162 10161 10158 ] final -177.73 input  -65.29 | X-H torsion
[ 10718 10713 10712 10709 ] final  -92.76 input   66.30 | X-H torsion
[ 10763 10752 10751 10750 ] final -176.54 input  -60.55 | X-H torsion
[ 11005 11000 10999 10996 ] final  143.36 input  -57.11 | X-H torsion

> <Gold.Protein.ActiveResidues>
 VAL166  LYS551  ARG553  GLY616  TRP617  ASP618  TYR619  PRO620  LYS621  CYS622 
 ASP623  PHE694  ASN695  SER759  ASP760  ASP761  ALA762  ILE779  LEU786  VAL792 
 PHE793  MET794  SER795  GLU796  ALA797  LYS798  CYS799  TRP800  GLU811  SER814 

> <Gold.Protein.RotatedAtoms>
  150.7259  134.0369  159.3752 H   0  0  0  0  0  0  0  0  0  0  0  0  # atno 6907 bound_to 6896
  151.8340  135.0610  160.0449 H   0  0  0  0  0  0  0  0  0  0  0  0  # atno 6908 bound_to 6896
  152.2912  133.5527  159.5595 H   0  0  0  0  0  0  0  0  0  0  0  0  # atno 6909 bound_to 6896
  145.7119  139.2618  143.1646 H   0  0  0  0  0  0  0  0  0  0  0  0  # atno 7974 bound_to 7965
  155.2455  140.0430  157.2980 H   0  0  0  0  0  0  0  0  0  0  0  0  # atno 8008 bound_to 7997
  154.5801  140.2398  155.8035 H   0  0  0  0  0  0  0  0  0  0  0  0  # atno 8009 bound_to 7997
  156.2187  140.2976  155.9908 H   0  0  0  0  0  0  0  0  0  0  0  0  # atno 8010 bound_to 7997
  139.5466  144.2219  152.0999 H   0  0  0  0  0  0  0  0  0  0  0  0  # atno 10167 bound_to 10162
  156.0005  130.5000  150.5674 H   0  0  0  0  0  0  0  0  0  0  0  0  # atno 10718 bound_to 10713
  154.5711  135.2828  155.0826 H   0  0  0  0  0  0  0  0  0  0  0  0  # atno 10763 bound_to 10752
  154.2198  135.6393  153.5145 H   0  0  0  0  0  0  0  0  0  0  0  0  # atno 10764 bound_to 10752
  153.0058  135.5512  154.6335 H   0  0  0  0  0  0  0  0  0  0  0  0  # atno 10765 bound_to 10752
  140.0547  134.9237  157.1080 H   0  0  0  0  0  0  0  0  0  0  0  0  # atno 11005 bound_to 11000
  146.0704  140.7874  142.9690 LP  0  0  0  0  0  0  0  0  0  0  0  0  # atno 17320 bound_to 7965
  144.6939  140.3334  143.7212 LP  0  0  0  0  0  0  0  0  0  0  0  0  # atno 17321 bound_to 7965
  140.1707  144.4939  150.6581 LP  0  0  0  0  0  0  0  0  0  0  0  0  # atno 17342 bound_to 10162
  140.6716  143.2288  151.5611 LP  0  0  0  0  0  0  0  0  0  0  0  0  # atno 17343 bound_to 10162
  157.3574  131.0744  151.1664 LP  0  0  0  0  0  0  0  0  0  0  0  0  # atno 17370 bound_to 10713
  157.2460  130.6591  149.5910 LP  0  0  0  0  0  0  0  0  0  0  0  0  # atno 17371 bound_to 10713
  140.3862  134.2234  155.7168 LP  0  0  0  0  0  0  0  0  0  0  0  0  # atno 17394 bound_to 11000
  141.1947  133.8123  157.0747 LP  0  0  0  0  0  0  0  0  0  0  0  0  # atno 17395 bound_to 11000

$$$$
