AV-unprocessed.smi:3261|AV-procd|sdf|12483|dock4
  -GOLD-   2272018383D 1   1.00000     0.00000
 Structure written by MMmdl.
 30 31  0  0  0  0  0  0  0  0  3 V2000
  147.2376  132.9893  153.9241 O   0  0  0  0  0  0  0  0  0  0  0  0
  147.8615  132.2750  153.1409 C   0  0  0  0  0  0  0  0  0  0  0  0
  147.3689  132.0861  151.8917 N   0  0  0  0  0  0  0  0  0  0  0  0
  146.1540  132.5617  151.3288 C   0  0  0  0  0  0  0  0  0  0  0  0
  145.7026  131.9602  150.1334 C   0  0  0  0  0  0  0  0  0  0  0  0
  144.4915  132.3905  149.5543 C   0  0  0  0  0  0  0  0  0  0  0  0
  143.7675  133.3612  150.1522 N   0  3  0  0  0  0  0  0  0  0  0  0
  144.1485  133.9507  151.3060 C   0  0  0  0  0  0  0  0  0  0  0  0
  145.3505  133.5621  151.9313 C   0  0  0  0  0  0  0  0  0  0  0  0
  149.0456  131.6926  153.5011 N   0  5  0  0  0  0  0  0  0  0  0  0
  150.1626  132.2539  154.2818 C   0  0  1  0  0  0  0  0  0  0  0  0
  149.7537  133.6401  154.8273 C   0  0  0  0  0  0  0  0  0  0  0  0
  148.8814  133.4630  156.0775 C   0  0  0  0  0  0  0  0  0  0  0  0
  149.5504  131.9865  156.9267 S   0  0  0  0  0  0  0  0  0  0  0  0
  150.5108  132.4151  157.9558 O   0  0  0  0  0  0  0  0  0  0  0  0
  148.4456  131.0750  157.2629 O   0  0  0  0  0  0  0  0  0  0  0  0
  150.4831  131.3383  155.4813 C   0  0  0  0  0  0  0  0  0  0  0  0
  147.9800  131.5932  151.2574 H   0  0  0  0  0  0  0  0  0  0  0  0
  146.2824  131.1819  149.6584 H   0  0  0  0  0  0  0  0  0  0  0  0
  144.0825  131.9885  148.6391 H   0  0  0  0  0  0  0  0  0  0  0  0
  143.4823  134.7060  151.6963 H   0  0  0  0  0  0  0  0  0  0  0  0
  145.6315  134.0265  152.8647 H   0  0  0  0  0  0  0  0  0  0  0  0
  151.0555  132.3661  153.6647 H   0  0  0  0  0  0  0  0  0  0  0  0
  150.6594  134.1750  155.1156 H   0  0  0  0  0  0  0  0  0  0  0  0
  149.2591  134.2547  154.0738 H   0  0  0  0  0  0  0  0  0  0  0  0
  148.9057  134.3257  156.7428 H   0  0  0  0  0  0  0  0  0  0  0  0
  147.8434  133.2607  155.8077 H   0  0  0  0  0  0  0  0  0  0  0  0
  150.2303  130.2908  155.3145 H   0  0  0  0  0  0  0  0  0  0  0  0
  151.5438  131.3924  155.7259 H   0  0  0  0  0  0  0  0  0  0  0  0
  142.8932  133.6572  149.7177 H   0  0  0  0  0  0  0  0  0  0  0  0
  1  2  2  0  0  0  0
  2  3  1  0  0  0  0
  2 10  1  0  0  0  0
  3  4  1  0  0  0  0
  3 18  1  0  0  0  0
  4  9  1  0  0  0  0
  4  5  2  0  0  0  0
  5  6  1  0  0  0  0
  5 19  1  0  0  0  0
  6  7  2  0  0  0  0
  6 20  1  0  0  0  0
  7  8  1  0  0  0  0
  7 30  1  0  0  0  0
  8  9  2  0  0  0  0
  8 21  1  0  0  0  0
  9 22  1  0  0  0  0
 10 11  1  0  0  0  0
 11 17  1  0  0  0  0
 11 12  1  0  0  0  0
 11 23  1  0  0  0  0
 12 13  1  0  0  0  0
 12 24  1  0  0  0  0
 12 25  1  0  0  0  0
 13 14  1  0  0  0  0
 13 26  1  0  0  0  0
 13 27  1  0  0  0  0
 14 15  2  0  0  0  0
 14 16  2  0  0  0  0
 14 17  1  0  0  0  0
 17 28  1  0  0  0  0
 17 29  1  0  0  0  0
M  CHG  1   7   1
M  CHG  1  10  -1
M  END
> <s_m_source_file>
AV-unprocessed.smi

> <i_m_source_file_index>
3261

> <i_lp_mmshare_version>
43012

> <i_f3d_flags>
0

> <s_epik_input>
Tz1TMSg9TylbQ0gyXVtDSDJdW0NASF0oW0NIMl0xKVtOSF1DKD1PKVtOSF1jMltjSF1bY0hdbltjSF1bY0hdMg==

> <s_epik_cmdline>
J2VwaWtfcHl0aG9uJywgJy1waCcsICc3LjAnLCAnLXRuJywgJzgnLCAnLW1hJywgJzIwMCcsICctbWV0YWxfYmluZGluZycsICctaW1hZScsICc8aW5maWxlLm1hZT4nLCAnLW9tYWUnLCAnPG91dGZpbGUubWFlPic=

> <r_epik_Ionization_Penalty>
8.1176

> <r_epik_Ionization_Penalty_Charging>
8.1176

> <r_epik_Ionization_Penalty_Neutral>
3.03687e-06

> <r_epik_State_Penalty>
7.79629

> <r_epik_Charging_Adjusted_Penalty>
15.9139

> <i_epik_Tot_Q>
0

> <i_epik_Tot_abs_Q>
2

> <r_epik_Metal_State_Penalty>
3.7997

> <b_epik_Metal_Only>
1

> <s_lp_Force_Field>
OPLS_2005

> <r_lp_Energy>
21.8236

> <b_lp_Chiralities_Consistent>
1

> <s_lp_Variant>
AV-unprocessed.smi:3261-6

> <Gold.Version>
5.8.1

> <Gold.Id.Protein>
6NUR|6NUR_protein|mol2

> <Gold.PLP.Fitness>
37.4335

> <Gold.PLP.PLP>
-26.2430

> <Gold.PLP.part.hbond>
-3.0000

> <Gold.PLP.part.metal>
0.0000

> <Gold.PLP.part.buried>
-5.7072

> <Gold.PLP.part.nonpolar>
-17.7923

> <Gold.PLP.part.repulsive>
0.2091

> <Gold.PLP.ligand.clash>
0.0000

> <Gold.PLP.ligand.torsion>
0.4066

> <Gold.PLP.Chemscore.Hbond>
4.0000

> <Gold.PLP.Chemscore.CHOScore>
0.0000

> <Gold.PLP.Chemscore.Metal>
0.0000

> <Gold.Chemscore.Hbonds>
donor molecule, donor type, donor heavy atom, donor atom, acceptor molecule, acceptor atom, score
      L1  H     3    18       P1 10747  1.00
      L1  H     7    30       P1 10186  1.95
      P1  H  6896  6909       L1    15  1.00

> <Gold.PLP.Chemscore.Internal.Correction>
0.0036

> <Gold.Rescore>
     Score         DG    S(hbond)    S(metal)    S(lipo)     H(rot)  DE(clash)    DE(int)     intcor
     15.21     -19.95       2.97        0.00      60.84       1.00       0.04       4.70       ----

> <Gold.Chemscore.Fitness>
15.2067

> <Gold.Chemscore.DG>
-19.9513

> <Gold.Chemscore.ZeroCoef>
-5.4800

> <Gold.Chemscore.Hbond>
2.9679

> <Gold.Chemscore.Metal>
0.0000

> <Gold.Chemscore.Lipo>
60.8426

> <Gold.Chemscore.Internal_Hbond>
0.0000

> <Gold.Chemscore.DEClash>
0.0419

> <Gold.Chemscore.DEInternal>
4.7027

> <Gold.Chemscore.Rot>
1.0000

> <Gold.Chemscore.Internal.Correction>
   9.000000E+99

> <Gold.Chemscore.Hbonds>
donor molecule, donor type, donor heavy atom, donor atom, acceptor molecule, acceptor atom, score
      L1  H     3    18       P1 10747  0.97
      L1  H     7    30       P1 10186  0.91
      P1  H  6896  6909       L1    15  1.00

> <Gold.Chemscore.Hbond.Weighted>
-9.9127

> <Gold.Chemscore.Metal.Weighted>
-0.0000

> <Gold.Chemscore.Lipo.Weighted>
-7.1186

> <Gold.Chemscore.Internal_Hbond.Weighted>
0.0000

> <Gold.Chemscore.DEClash.Weighted>
0.0419

> <Gold.Chemscore.DEInternal.Weighted>
4.7027

> <Gold.Chemscore.Rot.Weighted>
2.5600

> <Gold.Chemscore.Internal.Correction.Weighted>
   9.000000E+99

> <Gold.Protein.RotatedTorsions>
[ 6907 6896 6895 6894 ] final  -39.17 input  -60.11 | X-H torsion
[ 7974 7965 7964 7962 ] final   -2.90 input  175.53 | X-H torsion
[ 8008 7997 7996 7995 ] final  115.44 input   59.86 | X-H torsion
[ 10167 10162 10161 10158 ] final  141.43 input  -65.29 | X-H torsion
[ 10718 10713 10712 10709 ] final    9.24 input   66.30 | X-H torsion
[ 10763 10752 10751 10750 ] final  100.96 input  -60.55 | X-H torsion
[ 11005 11000 10999 10996 ] final  -52.86 input  -57.11 | X-H torsion

> <Gold.Protein.ActiveResidues>
 VAL166  LYS551  ARG553  GLY616  TRP617  ASP618  TYR619  PRO620  LYS621  CYS622 
 ASP623  PHE694  ASN695  SER759  ASP760  ASP761  ALA762  ILE779  LEU786  VAL792 
 PHE793  MET794  SER795  GLU796  ALA797  LYS798  CYS799  TRP800  GLU811  SER814 

> <Gold.Protein.RotatedAtoms>
  150.9935  134.9264  159.7912 H   0  0  0  0  0  0  0  0  0  0  0  0  # atno 6907 bound_to 6896
  152.5258  134.3249  159.9172 H   0  0  0  0  0  0  0  0  0  0  0  0  # atno 6908 bound_to 6896
  151.3255  133.3981  159.2692 H   0  0  0  0  0  0  0  0  0  0  0  0  # atno 6909 bound_to 6896
  146.2398  140.1641  142.8332 H   0  0  0  0  0  0  0  0  0  0  0  0  # atno 7974 bound_to 7965
  156.2381  140.2938  156.0369 H   0  0  0  0  0  0  0  0  0  0  0  0  # atno 8008 bound_to 7997
  155.2032  140.0410  157.2938 H   0  0  0  0  0  0  0  0  0  0  0  0  # atno 8009 bound_to 7997
  154.6117  140.2453  155.7668 H   0  0  0  0  0  0  0  0  0  0  0  0  # atno 8010 bound_to 7997
  139.5021  144.6171  151.6137 H   0  0  0  0  0  0  0  0  0  0  0  0  # atno 10167 bound_to 10162
  156.9635  130.5942  149.5663 H   0  0  0  0  0  0  0  0  0  0  0  0  # atno 10718 bound_to 10713
  153.3206  135.4061  155.1413 H   0  0  0  0  0  0  0  0  0  0  0  0  # atno 10763 bound_to 10752
  154.8599  135.3586  154.5602 H   0  0  0  0  0  0  0  0  0  0  0  0  # atno 10764 bound_to 10752
  153.6035  135.7070  153.5434 H   0  0  0  0  0  0  0  0  0  0  0  0  # atno 10765 bound_to 10752
  141.0946  133.6627  156.4086 H   0  0  0  0  0  0  0  0  0  0  0  0  # atno 11005 bound_to 11000
  145.0065  140.8677  143.5250 LP  0  0  0  0  0  0  0  0  0  0  0  0  # atno 17320 bound_to 7965
  145.1668  139.2427  143.5363 LP  0  0  0  0  0  0  0  0  0  0  0  0  # atno 17321 bound_to 7965
  140.5863  143.9859  150.6297 LP  0  0  0  0  0  0  0  0  0  0  0  0  # atno 17342 bound_to 10162
  140.3024  143.3251  152.0959 LP  0  0  0  0  0  0  0  0  0  0  0  0  # atno 17343 bound_to 10162
  156.0312  130.5403  150.8539 LP  0  0  0  0  0  0  0  0  0  0  0  0  # atno 17370 bound_to 10713
  157.5642  131.0946  150.9515 LP  0  0  0  0  0  0  0  0  0  0  0  0  # atno 17371 bound_to 10713
  140.5170  134.6340  157.5305 LP  0  0  0  0  0  0  0  0  0  0  0  0  # atno 17394 bound_to 11000
  139.9780  134.7184  155.9913 LP  0  0  0  0  0  0  0  0  0  0  0  0  # atno 17395 bound_to 11000

$$$$
