AV-unprocessed.smi:3034|AV-procd|sdf|11577|dock10
  -GOLD-   2272016543D 1   1.00000     0.00000
 Structure written by MMmdl.
 32 32  0  0  0  0  0  0  0  0  1 V2000
  151.1380  135.2963  155.8778 C   0  0  0  0  0  0  0  0  0  0  0  0
  151.4638  136.7816  156.0660 C   0  0  0  0  0  0  0  0  0  0  0  0
  150.7027  137.6813  155.0838 C   0  0  0  0  0  0  0  0  0  0  0  0
  151.0437  139.4581  155.4236 S   0  0  0  0  0  0  0  0  0  0  0  0
  152.4806  139.7131  155.2407 O   0  0  0  0  0  0  0  0  0  0  0  0
  150.0567  140.2719  154.6975 O   0  0  0  0  0  0  0  0  0  0  0  0
  150.7019  139.5937  157.1059 N   0  0  0  0  0  0  0  0  0  0  0  0
  150.6779  140.9363  157.6869 C   0  0  0  0  0  0  0  0  0  0  0  0
  152.0928  141.3868  158.0905 C   0  0  2  0  0  0  0  0  0  0  0  0
  152.7040  140.3489  158.8341 O   0  0  0  0  0  0  0  0  0  0  0  0
  152.0458  142.6895  158.8779 C   0  0  0  0  0  0  0  0  0  0  0  0
  151.5839  143.8749  158.2656 C   0  0  0  0  0  0  0  0  0  0  0  0
  151.5375  145.0554  159.0320 C   0  0  0  0  0  0  0  0  0  0  0  0
  151.9517  145.0082  160.3766 C   0  0  0  0  0  0  0  0  0  0  0  0
  152.3957  143.7768  160.8975 C   0  0  0  0  0  0  0  0  0  0  0  0
  152.4433  142.6394  160.1713 N   0  0  0  0  0  0  0  0  0  0  0  0
  151.7075  134.6832  156.5768 H   0  0  0  0  0  0  0  0  0  0  0  0
  151.3817  134.9637  154.8684 H   0  0  0  0  0  0  0  0  0  0  0  0
  150.0793  135.1008  156.0503 H   0  0  0  0  0  0  0  0  0  0  0  0
  151.2254  137.0747  157.0889 H   0  0  0  0  0  0  0  0  0  0  0  0
  152.5364  136.9347  155.9429 H   0  0  0  0  0  0  0  0  0  0  0  0
  150.9997  137.4686  154.0566 H   0  0  0  0  0  0  0  0  0  0  0  0
  149.6270  137.5210  155.1603 H   0  0  0  0  0  0  0  0  0  0  0  0
  151.3035  138.9746  157.6483 H   0  0  0  0  0  0  0  0  0  0  0  0
  150.2830  141.6179  156.9322 H   0  0  0  0  0  0  0  0  0  0  0  0
  149.9914  140.9661  158.5343 H   0  0  0  0  0  0  0  0  0  0  0  0
  152.6936  141.5499  157.1944 H   0  0  0  0  0  0  0  0  0  0  0  0
  152.3321  140.3453  159.7027 H   0  0  0  0  0  0  0  0  0  0  0  0
  151.2671  143.8816  157.2330 H   0  0  0  0  0  0  0  0  0  0  0  0
  151.1882  145.9799  158.5967 H   0  0  0  0  0  0  0  0  0  0  0  0
  151.9284  145.8937  160.9945 H   0  0  0  0  0  0  0  0  0  0  0  0
  152.7199  143.7033  161.9251 H   0  0  0  0  0  0  0  0  0  0  0  0
  1  2  1  0  0  0  0
  1 17  1  0  0  0  0
  1 18  1  0  0  0  0
  1 19  1  0  0  0  0
  2  3  1  0  0  0  0
  2 20  1  0  0  0  0
  2 21  1  0  0  0  0
  3  4  1  0  0  0  0
  3 22  1  0  0  0  0
  3 23  1  0  0  0  0
  4  5  2  0  0  0  0
  4  6  2  0  0  0  0
  4  7  1  0  0  0  0
  7  8  1  0  0  0  0
  7 24  1  0  0  0  0
  8  9  1  0  0  0  0
  8 25  1  0  0  0  0
  8 26  1  0  0  0  0
  9 10  1  0  0  0  0
  9 11  1  0  0  0  0
  9 27  1  0  0  0  0
 10 28  1  0  0  0  0
 11 16  1  0  0  0  0
 11 12  2  0  0  0  0
 12 13  1  0  0  0  0
 12 29  1  0  0  0  0
 13 14  2  0  0  0  0
 13 30  1  0  0  0  0
 14 15  1  0  0  0  0
 14 31  1  0  0  0  0
 15 16  2  0  0  0  0
 15 32  1  0  0  0  0
M  END
> <s_m_source_file>
AV-unprocessed.smi

> <i_m_source_file_index>
3034

> <i_lp_mmshare_version>
43012

> <i_f3d_flags>
0

> <s_epik_input>
W0NIM11bQ0gyXVtDSDJdUyg9TykoPU8pW05IXVtDSDJdW0NASF0oW09IXSljMVtjSF1bY0hdW2NIXVtjSF1uMQ==

> <s_epik_cmdline>
J2VwaWtfcHl0aG9uJywgJy1waCcsICc3LjAnLCAnLXRuJywgJzgnLCAnLW1hJywgJzIwMCcsICctbWV0YWxfYmluZGluZycsICctaW1hZScsICc8aW5maWxlLm1hZT4nLCAnLW9tYWUnLCAnPG91dGZpbGUubWFlPic=

> <r_epik_Ionization_Penalty>
0.00187371

> <r_epik_Ionization_Penalty_Charging>
0

> <r_epik_Ionization_Penalty_Neutral>
0.00187371

> <r_epik_State_Penalty>
0.0012608

> <r_epik_Charging_Adjusted_Penalty>
0.0012608

> <i_epik_Tot_Q>
0

> <i_epik_Tot_abs_Q>
0

> <r_epik_Metal_State_Penalty>
0.0168387

> <b_epik_Metal_Only>
0

> <s_lp_Force_Field>
OPLS_2005

> <r_lp_Energy>
4.86563

> <b_lp_Chiralities_Consistent>
1

> <s_lp_Variant>
AV-unprocessed.smi:3034-1

> <Gold.Version>
5.8.1

> <Gold.Id.Protein>
6NUR|6NUR_protein|mol2

> <Gold.PLP.Fitness>
39.9533

> <Gold.PLP.PLP>
-34.7712

> <Gold.PLP.part.hbond>
-2.2120

> <Gold.PLP.part.metal>
0.0000

> <Gold.PLP.part.buried>
-5.6629

> <Gold.PLP.part.nonpolar>
-27.0980

> <Gold.PLP.part.repulsive>
0.1222

> <Gold.PLP.ligand.clash>
0.0000

> <Gold.PLP.ligand.torsion>
0.5007

> <Gold.PLP.Chemscore.Hbond>
2.0000

> <Gold.PLP.Chemscore.CHOScore>
0.0000

> <Gold.PLP.Chemscore.Metal>
0.0000

> <Gold.Chemscore.Hbonds>
donor molecule, donor type, donor heavy atom, donor atom, acceptor molecule, acceptor atom, score
      P1  H  7989  7998       L1     6  0.32
      P1  H  7997  8009       L1     5  0.78

> <Gold.PLP.Chemscore.Internal.Correction>
0.1835

> <Gold.Rescore>
     Score         DG    S(hbond)    S(metal)    S(lipo)     H(rot)  DE(clash)    DE(int)     intcor
     15.23     -15.53       1.99        0.00      86.66       2.63       0.00       0.29       ----

> <Gold.Chemscore.Fitness>
15.2297

> <Gold.Chemscore.DG>
-15.5255

> <Gold.Chemscore.ZeroCoef>
-5.4800

> <Gold.Chemscore.Hbond>
1.9860

> <Gold.Chemscore.Metal>
0.0000

> <Gold.Chemscore.Lipo>
86.6552

> <Gold.Chemscore.Internal_Hbond>
0.0000

> <Gold.Chemscore.DEClash>
0.0048

> <Gold.Chemscore.DEInternal>
0.2910

> <Gold.Chemscore.Rot>
2.6275

> <Gold.Chemscore.Internal.Correction>
   9.000000E+99

> <Gold.Chemscore.Hbonds>
donor molecule, donor type, donor heavy atom, donor atom, acceptor molecule, acceptor atom, score
      P1  H  7989  7998       L1     6  0.01
      P1  H  7997  8009       L1     5  0.77

> <Gold.Chemscore.Hbond.Weighted>
-6.6333

> <Gold.Chemscore.Metal.Weighted>
-0.0000

> <Gold.Chemscore.Lipo.Weighted>
-10.1387

> <Gold.Chemscore.Internal_Hbond.Weighted>
0.0000

> <Gold.Chemscore.DEClash.Weighted>
0.0048

> <Gold.Chemscore.DEInternal.Weighted>
0.2910

> <Gold.Chemscore.Rot.Weighted>
6.7265

> <Gold.Chemscore.Internal.Correction.Weighted>
   9.000000E+99

> <Gold.Protein.RotatedTorsions>
[ 6907 6896 6895 6894 ] final -113.27 input  -60.11 | X-H torsion
[ 7974 7965 7964 7962 ] final   27.41 input  175.53 | X-H torsion
[ 8008 7997 7996 7995 ] final -139.61 input   59.86 | X-H torsion
[ 10167 10162 10161 10158 ] final   -4.86 input  -65.29 | X-H torsion
[ 10718 10713 10712 10709 ] final    2.45 input   66.30 | X-H torsion
[ 10763 10752 10751 10750 ] final -130.41 input  -60.55 | X-H torsion
[ 11005 11000 10999 10996 ] final    2.11 input  -57.11 | X-H torsion

> <Gold.Protein.ActiveResidues>
 VAL166  LYS551  ARG553  GLY616  TRP617  ASP618  TYR619  PRO620  LYS621  CYS622 
 ASP623  PHE694  ASN695  SER759  ASP760  ASP761  ALA762  ILE779  LEU786  VAL792 
 PHE793  MET794  SER795  GLU796  ALA797  LYS798  CYS799  TRP800  GLU811  SER814 

> <Gold.Protein.RotatedAtoms>
  150.7817  133.8969  159.3329 H   0  0  0  0  0  0  0  0  0  0  0  0  # atno 6907 bound_to 6896
  151.6830  135.0957  160.0229 H   0  0  0  0  0  0  0  0  0  0  0  0  # atno 6908 bound_to 6896
  152.3870  133.6586  159.6242 H   0  0  0  0  0  0  0  0  0  0  0  0  # atno 6909 bound_to 6896
  146.1786  139.7195  142.8917 H   0  0  0  0  0  0  0  0  0  0  0  0  # atno 7974 bound_to 7965
  155.4477  140.0536  157.3004 H   0  0  0  0  0  0  0  0  0  0  0  0  # atno 8008 bound_to 7997
  154.4790  140.2073  155.9764 H   0  0  0  0  0  0  0  0  0  0  0  0  # atno 8009 bound_to 7997
  156.1177  140.3193  155.8168 H   0  0  0  0  0  0  0  0  0  0  0  0  # atno 8010 bound_to 7997
  140.6942  143.6375  150.8466 H   0  0  0  0  0  0  0  0  0  0  0  0  # atno 10167 bound_to 10162
  156.8632  130.5594  149.5661 H   0  0  0  0  0  0  0  0  0  0  0  0  # atno 10718 bound_to 10713
  154.8755  135.3863  154.4079 H   0  0  0  0  0  0  0  0  0  0  0  0  # atno 10763 bound_to 10752
  153.4796  135.7030  153.5951 H   0  0  0  0  0  0  0  0  0  0  0  0  # atno 10764 bound_to 10752
  153.4372  135.3864  155.2174 H   0  0  0  0  0  0  0  0  0  0  0  0  # atno 10765 bound_to 10752
  140.6079  133.9775  155.8163 H   0  0  0  0  0  0  0  0  0  0  0  0  # atno 11005 bound_to 11000
  145.4142  141.0400  143.3000 LP  0  0  0  0  0  0  0  0  0  0  0  0  # atno 17320 bound_to 7965
  144.8276  139.5683  143.6958 LP  0  0  0  0  0  0  0  0  0  0  0  0  # atno 17321 bound_to 7965
  140.0091  143.5662  152.2846 LP  0  0  0  0  0  0  0  0  0  0  0  0  # atno 17342 bound_to 10162
  139.6379  144.7652  151.2400 LP  0  0  0  0  0  0  0  0  0  0  0  0  # atno 17343 bound_to 10162
  156.0765  130.5786  150.9484 LP  0  0  0  0  0  0  0  0  0  0  0  0  # atno 17370 bound_to 10713
  157.6238  131.0927  150.8572 LP  0  0  0  0  0  0  0  0  0  0  0  0  # atno 17371 bound_to 10713
  141.0828  134.0037  157.3360 LP  0  0  0  0  0  0  0  0  0  0  0  0  # atno 17394 bound_to 11000
  139.9204  135.0200  156.8043 LP  0  0  0  0  0  0  0  0  0  0  0  0  # atno 17395 bound_to 11000

$$$$
