AV-unprocessed.smi:3191|AV-procd|sdf|12196|dock2
  -GOLD-   2272018 33D 1   1.00000     0.00000
 Structure written by MMmdl.
 36 37  0  0  0  0  0  0  0  0  2 V2000
  152.2683  139.3373  155.4358 C   0  0  0  0  0  0  0  0  0  0  0  0
  150.9724  139.1556  154.7759 N   0  0  0  0  0  0  0  0  0  0  0  0
  150.8052  138.2932  153.7652 C   0  0  0  0  0  0  0  0  0  0  0  0
  149.5263  138.3777  153.3911 N   0  3  0  0  0  0  0  0  0  0  0  0
  148.8716  139.2971  154.1638 C   0  0  0  0  0  0  0  0  0  0  0  0
  149.7874  139.7994  155.0550 C   0  0  0  0  0  0  0  0  0  0  0  0
  149.6351  140.8187  156.1375 C   0  0  0  0  0  0  0  0  0  0  0  0
  150.6524  141.9620  155.9828 C   0  0  0  0  0  0  0  0  0  0  0  0
  150.8637  142.6610  157.2445 N   0  0  0  0  0  0  0  0  0  0  0  0
  151.3332  142.0916  158.3654 C   0  0  0  0  0  0  0  0  0  0  0  0
  151.6252  140.8965  158.4313 O   0  0  0  0  0  0  0  0  0  0  0  0
  151.4646  143.0421  159.5151 C   0  0  1  0  0  0  0  0  0  0  0  0
  152.8382  143.2367  160.1239 C   0  0  0  0  0  0  0  0  0  0  0  0
  152.2066  144.3655  159.3401 C   0  0  0  0  0  0  0  0  0  0  0  0
  152.8279  144.7973  158.0172 C   0  0  0  0  0  0  0  0  0  0  0  0
  151.6731  145.5823  160.0759 C   0  0  0  0  0  0  0  0  0  0  0  0
  150.6194  143.0603  160.2019 H   0  0  0  0  0  0  0  0  0  0  0  0
  153.0004  138.6388  155.0288 H   0  0  0  0  0  0  0  0  0  0  0  0
  152.1575  139.1589  156.5053 H   0  0  0  0  0  0  0  0  0  0  0  0
  152.6129  140.3584  155.2695 H   0  0  0  0  0  0  0  0  0  0  0  0
  151.5549  137.6539  153.3336 H   0  0  0  0  0  0  0  0  0  0  0  0
  147.8235  139.5213  154.0284 H   0  0  0  0  0  0  0  0  0  0  0  0
  148.6148  141.2032  156.1255 H   0  0  0  0  0  0  0  0  0  0  0  0
  149.7685  140.3286  157.1028 H   0  0  0  0  0  0  0  0  0  0  0  0
  151.6105  141.5657  155.6456 H   0  0  0  0  0  0  0  0  0  0  0  0
  150.3267  142.6715  155.2204 H   0  0  0  0  0  0  0  0  0  0  0  0
  150.6415  143.6458  157.2676 H   0  0  0  0  0  0  0  0  0  0  0  0
  152.8859  143.3274  161.2073 H   0  0  0  0  0  0  0  0  0  0  0  0
  153.6864  142.7226  159.6751 H   0  0  0  0  0  0  0  0  0  0  0  0
  153.5006  145.6417  158.1704 H   0  0  0  0  0  0  0  0  0  0  0  0
  152.0501  145.0987  157.3151 H   0  0  0  0  0  0  0  0  0  0  0  0
  153.4120  143.9963  157.5657 H   0  0  0  0  0  0  0  0  0  0  0  0
  152.4792  146.2868  160.2826 H   0  0  0  0  0  0  0  0  0  0  0  0
  151.2233  145.2944  161.0267 H   0  0  0  0  0  0  0  0  0  0  0  0
  150.9144  146.0858  159.4760 H   0  0  0  0  0  0  0  0  0  0  0  0
  149.1057  137.8386  152.6445 H   0  0  0  0  0  0  0  0  0  0  0  0
  1  2  1  0  0  0  0
  1 18  1  0  0  0  0
  1 19  1  0  0  0  0
  1 20  1  0  0  0  0
  2  6  1  0  0  0  0
  2  3  1  0  0  0  0
  3  4  2  0  0  0  0
  3 21  1  0  0  0  0
  4  5  1  0  0  0  0
  4 36  1  0  0  0  0
  5  6  2  0  0  0  0
  5 22  1  0  0  0  0
  6  7  1  0  0  0  0
  7  8  1  0  0  0  0
  7 23  1  0  0  0  0
  7 24  1  0  0  0  0
  8  9  1  0  0  0  0
  8 25  1  0  0  0  0
  8 26  1  0  0  0  0
  9 10  1  0  0  0  0
  9 27  1  0  0  0  0
 10 11  2  0  0  0  0
 10 12  1  0  0  0  0
 12 17  1  0  0  0  0
 12 14  1  0  0  0  0
 12 13  1  0  0  0  0
 13 14  1  0  0  0  0
 13 28  1  0  0  0  0
 13 29  1  0  0  0  0
 14 15  1  0  0  0  0
 14 16  1  0  0  0  0
 15 30  1  0  0  0  0
 15 31  1  0  0  0  0
 15 32  1  0  0  0  0
 16 33  1  0  0  0  0
 16 34  1  0  0  0  0
 16 35  1  0  0  0  0
M  CHG  1   4   1
M  END
> <s_m_source_file>
AV-unprocessed.smi

> <i_m_source_file_index>
3191

> <i_lp_mmshare_version>
43012

> <i_f3d_flags>
0

> <s_epik_input>
W0NIM11uMVtjSF1uW2NIXWMxW0NIMl1bQ0gyXVtOSF1DKD1PKVtDQEBIXShbQ0gyXTIpQzIoW0NIM10pW0NIM10=

> <s_epik_cmdline>
J2VwaWtfcHl0aG9uJywgJy1waCcsICc3LjAnLCAnLXRuJywgJzgnLCAnLW1hJywgJzIwMCcsICctbWV0YWxfYmluZGluZycsICctaW1hZScsICc8aW5maWxlLm1hZT4nLCAnLW9tYWUnLCAnPG91dGZpbGUubWFlPic=

> <r_lp_tautomer_probability>
1

> <r_epik_Ionization_Penalty>
0.153817

> <r_epik_Ionization_Penalty_Charging>
0

> <r_epik_Ionization_Penalty_Neutral>
0.153817

> <r_epik_State_Penalty>
0.14311

> <r_epik_Charging_Adjusted_Penalty>
0.14311

> <i_epik_Tot_Q>
1

> <i_epik_Tot_abs_Q>
1

> <r_epik_Metal_State_Penalty>
0.464688

> <b_epik_Metal_Only>
0

> <s_lp_Force_Field>
OPLS_2005

> <r_lp_Energy>
13.4151

> <b_lp_Chiralities_Consistent>
1

> <s_lp_Variant>
AV-unprocessed.smi:3191-1

> <Gold.Version>
5.8.1

> <Gold.Id.Protein>
6NUR|6NUR_protein|mol2

> <Gold.PLP.Fitness>
48.7575

> <Gold.PLP.PLP>
-40.4441

> <Gold.PLP.part.hbond>
-2.2295

> <Gold.PLP.part.metal>
0.0000

> <Gold.PLP.part.buried>
-4.9287

> <Gold.PLP.part.nonpolar>
-33.9742

> <Gold.PLP.part.repulsive>
0.0904

> <Gold.PLP.ligand.clash>
0.0000

> <Gold.PLP.ligand.torsion>
0.2107

> <Gold.PLP.Chemscore.Hbond>
1.9840

> <Gold.PLP.Chemscore.CHOScore>
0.8958

> <Gold.PLP.Chemscore.Metal>
0.0000

> <Gold.Chemscore.Hbonds>
donor molecule, donor type, donor heavy atom, donor atom, acceptor molecule, acceptor atom, score
      L1  H     4    36       P1  7948  1.86
      L1  C     3    21       P1  7949  0.91

> <Gold.PLP.Chemscore.Internal.Correction>
0.0954

> <Gold.Rescore>
     Score         DG    S(hbond)    S(metal)    S(lipo)     H(rot)  DE(clash)    DE(int)     intcor
     15.25     -15.48       0.96        0.00      96.49       1.76       0.02       0.21       ----

> <Gold.Chemscore.Fitness>
15.2517

> <Gold.Chemscore.DG>
-15.4842

> <Gold.Chemscore.ZeroCoef>
-5.4800

> <Gold.Chemscore.Hbond>
0.9613

> <Gold.Chemscore.Metal>
0.0000

> <Gold.Chemscore.Lipo>
96.4875

> <Gold.Chemscore.Internal_Hbond>
0.0000

> <Gold.Chemscore.DEClash>
0.0211

> <Gold.Chemscore.DEInternal>
0.2113

> <Gold.Chemscore.Rot>
1.7561

> <Gold.Chemscore.Internal.Correction>
   9.000000E+99

> <Gold.Chemscore.Hbonds>
donor molecule, donor type, donor heavy atom, donor atom, acceptor molecule, acceptor atom, score
      L1  H     4    36       P1  7948  0.89

> <Gold.Chemscore.Hbond.Weighted>
-3.2107

> <Gold.Chemscore.Metal.Weighted>
-0.0000

> <Gold.Chemscore.Lipo.Weighted>
-11.2890

> <Gold.Chemscore.Internal_Hbond.Weighted>
0.0000

> <Gold.Chemscore.DEClash.Weighted>
0.0211

> <Gold.Chemscore.DEInternal.Weighted>
0.2113

> <Gold.Chemscore.Rot.Weighted>
4.4956

> <Gold.Chemscore.Internal.Correction.Weighted>
   9.000000E+99

> <Gold.Protein.RotatedTorsions>
[ 6907 6896 6895 6894 ] final  110.98 input  -60.11 | X-H torsion
[ 7974 7965 7964 7962 ] final  -52.57 input  175.53 | X-H torsion
[ 8008 7997 7996 7995 ] final   21.57 input   59.86 | X-H torsion
[ 10167 10162 10161 10158 ] final -140.07 input  -65.29 | X-H torsion
[ 10718 10713 10712 10709 ] final  -68.80 input   66.30 | X-H torsion
[ 10763 10752 10751 10750 ] final   53.87 input  -60.55 | X-H torsion
[ 11005 11000 10999 10996 ] final   20.04 input  -57.11 | X-H torsion

> <Gold.Protein.ActiveResidues>
 VAL166  LYS551  ARG553  GLY616  TRP617  ASP618  TYR619  PRO620  LYS621  CYS622 
 ASP623  PHE694  ASN695  SER759  ASP760  ASP761  ALA762  ILE779  LEU786  VAL792 
 PHE793  MET794  SER795  GLU796  ALA797  LYS798  CYS799  TRP800  GLU811  SER814 

> <Gold.Protein.RotatedAtoms>
  152.4992  133.8723  159.7304 H   0  0  0  0  0  0  0  0  0  0  0  0  # atno 6907 bound_to 6896
  150.9206  133.6876  159.2839 H   0  0  0  0  0  0  0  0  0  0  0  0  # atno 6908 bound_to 6896
  151.4254  135.1007  159.9679 H   0  0  0  0  0  0  0  0  0  0  0  0  # atno 6909 bound_to 6896
  145.9064  140.7951  142.9717 H   0  0  0  0  0  0  0  0  0  0  0  0  # atno 7974 bound_to 7965
  154.9526  140.3067  155.5068 H   0  0  0  0  0  0  0  0  0  0  0  0  # atno 8008 bound_to 7997
  156.2985  140.2316  156.4542 H   0  0  0  0  0  0  0  0  0  0  0  0  # atno 8009 bound_to 7997
  154.8040  140.0432  157.1282 H   0  0  0  0  0  0  0  0  0  0  0  0  # atno 8010 bound_to 7997
  139.8317  143.7438  152.2666 H   0  0  0  0  0  0  0  0  0  0  0  0  # atno 10167 bound_to 10162
  156.0487  130.4301  150.2054 H   0  0  0  0  0  0  0  0  0  0  0  0  # atno 10718 bound_to 10713
  152.9799  135.5764  154.4812 H   0  0  0  0  0  0  0  0  0  0  0  0  # atno 10763 bound_to 10752
  154.4360  135.2774  155.1882 H   0  0  0  0  0  0  0  0  0  0  0  0  # atno 10764 bound_to 10752
  154.3570  135.6197  153.5725 H   0  0  0  0  0  0  0  0  0  0  0  0  # atno 10765 bound_to 10752
  140.4070  134.1658  155.7665 H   0  0  0  0  0  0  0  0  0  0  0  0  # atno 11005 bound_to 11000
  144.6739  140.1758  143.7410 LP  0  0  0  0  0  0  0  0  0  0  0  0  # atno 17320 bound_to 7965
  145.8726  139.2280  143.1652 LP  0  0  0  0  0  0  0  0  0  0  0  0  # atno 17321 bound_to 7965
  139.7648  144.7495  151.0311 LP  0  0  0  0  0  0  0  0  0  0  0  0  # atno 17342 bound_to 10162
  140.7806  143.4711  151.0145 LP  0  0  0  0  0  0  0  0  0  0  0  0  # atno 17343 bound_to 10162
  157.0140  130.9959  151.3358 LP  0  0  0  0  0  0  0  0  0  0  0  0  # atno 17370 bound_to 10713
  157.5390  130.8107  149.8006 LP  0  0  0  0  0  0  0  0  0  0  0  0  # atno 17371 bound_to 10713
  141.1835  133.8362  157.1171 LP  0  0  0  0  0  0  0  0  0  0  0  0  # atno 17394 bound_to 11000
  140.0295  134.9908  157.0752 LP  0  0  0  0  0  0  0  0  0  0  0  0  # atno 17395 bound_to 11000

$$$$
