AV-unprocessed.smi:975|AV-procd|sdf|4301|dock8
  -GOLD-   22720 2203D 1   1.00000     0.00000
 Structure written by MMmdl.
 44 45  0  0  0  0  0  0  0  0  1 V2000
  145.0803  136.5635  153.0611 C   0  0  0  0  0  0  0  0  0  0  0  0
  145.6971  137.8435  153.5865 C   0  0  0  0  0  0  0  0  0  0  0  0
  146.5993  138.6229  152.7645 C   0  0  0  0  0  0  0  0  0  0  0  0
  147.1308  139.7490  153.2646 C   0  0  0  0  0  0  0  0  0  0  0  0
  146.8352  140.1972  154.5647 N   0  0  0  0  0  0  0  0  0  0  0  0
  147.4672  141.4565  154.9988 C   0  0  0  0  0  0  0  0  0  0  0  0
  148.9888  141.3759  155.2140 C   0  0  0  0  0  0  0  0  0  0  0  0
  149.6936  140.9050  154.3222 O   0  0  0  0  0  0  0  0  0  0  0  0
  149.4901  141.8331  156.3748 N   0  0  0  0  0  0  0  0  0  0  0  0
  150.8984  141.8475  156.7607 C   0  0  0  0  0  0  0  0  0  0  0  0
  151.0783  140.8894  157.9606 C   0  0  0  0  0  0  0  0  0  0  0  0
  152.4733  140.8626  158.6111 C   0  0  0  0  0  0  0  0  0  0  0  0
  152.6498  141.7925  159.8330 C   0  0  0  0  0  0  0  0  0  0  0  0
  153.1137  143.2258  159.5141 C   0  0  0  0  0  0  0  0  0  0  0  0
  152.0042  144.2790  159.3065 C   0  0  0  0  0  0  0  0  0  0  0  0
  150.8841  143.9307  158.3093 C   0  0  0  0  0  0  0  0  0  0  0  0
  151.3708  143.3005  156.9895 C   0  0  0  0  0  0  0  0  0  0  0  0
  145.9848  139.5132  155.3884 C   0  0  0  0  0  0  0  0  0  0  0  0
  145.7082  139.9101  156.5203 O   0  0  0  0  0  0  0  0  0  0  0  0
  145.4144  138.2801  154.8337 C   0  0  0  0  0  0  0  0  0  0  0  0
  145.3963  136.3645  152.0366 H   0  0  0  0  0  0  0  0  0  0  0  0
  143.9924  136.6335  153.0742 H   0  0  0  0  0  0  0  0  0  0  0  0
  145.3787  135.7170  153.6801 H   0  0  0  0  0  0  0  0  0  0  0  0
  146.8423  138.3068  151.7603 H   0  0  0  0  0  0  0  0  0  0  0  0
  147.8054  140.3795  152.7032 H   0  0  0  0  0  0  0  0  0  0  0  0
  147.2620  142.2532  154.2816 H   0  0  0  0  0  0  0  0  0  0  0  0
  147.0134  141.7970  155.9308 H   0  0  0  0  0  0  0  0  0  0  0  0
  148.8376  142.2058  157.0492 H   0  0  0  0  0  0  0  0  0  0  0  0
  151.4844  141.4413  155.9339 H   0  0  0  0  0  0  0  0  0  0  0  0
  150.3215  141.0677  158.7253 H   0  0  0  0  0  0  0  0  0  0  0  0
  150.8645  139.8832  157.5969 H   0  0  0  0  0  0  0  0  0  0  0  0
  152.6307  139.8447  158.9701 H   0  0  0  0  0  0  0  0  0  0  0  0
  153.2562  141.0250  157.8692 H   0  0  0  0  0  0  0  0  0  0  0  0
  151.7574  141.8006  160.4599 H   0  0  0  0  0  0  0  0  0  0  0  0
  153.4275  141.3450  160.4532 H   0  0  0  0  0  0  0  0  0  0  0  0
  153.7210  143.5730  160.3510 H   0  0  0  0  0  0  0  0  0  0  0  0
  153.8008  143.2142  158.6683 H   0  0  0  0  0  0  0  0  0  0  0  0
  151.5457  144.5067  160.2694 H   0  0  0  0  0  0  0  0  0  0  0  0
  152.4804  145.2058  158.9844 H   0  0  0  0  0  0  0  0  0  0  0  0
  150.1483  143.2941  158.7985 H   0  0  0  0  0  0  0  0  0  0  0  0
  150.3372  144.8461  158.0805 H   0  0  0  0  0  0  0  0  0  0  0  0
  152.4559  143.3428  156.9140 H   0  0  0  0  0  0  0  0  0  0  0  0
  151.0304  143.9200  156.1586 H   0  0  0  0  0  0  0  0  0  0  0  0
  144.7418  137.7033  155.4521 H   0  0  0  0  0  0  0  0  0  0  0  0
  1  2  1  0  0  0  0
  1 21  1  0  0  0  0
  1 22  1  0  0  0  0
  1 23  1  0  0  0  0
  2 20  2  0  0  0  0
  2  3  1  0  0  0  0
  3  4  2  0  0  0  0
  3 24  1  0  0  0  0
  4  5  1  0  0  0  0
  4 25  1  0  0  0  0
  5  6  1  0  0  0  0
  5 18  1  0  0  0  0
  6  7  1  0  0  0  0
  6 26  1  0  0  0  0
  6 27  1  0  0  0  0
  7  8  2  0  0  0  0
  7  9  1  0  0  0  0
  9 10  1  0  0  0  0
  9 28  1  0  0  0  0
 10 17  1  0  0  0  0
 10 11  1  0  0  0  0
 10 29  1  0  0  0  0
 11 12  1  0  0  0  0
 11 30  1  0  0  0  0
 11 31  1  0  0  0  0
 12 13  1  0  0  0  0
 12 32  1  0  0  0  0
 12 33  1  0  0  0  0
 13 14  1  0  0  0  0
 13 34  1  0  0  0  0
 13 35  1  0  0  0  0
 14 15  1  0  0  0  0
 14 36  1  0  0  0  0
 14 37  1  0  0  0  0
 15 16  1  0  0  0  0
 15 38  1  0  0  0  0
 15 39  1  0  0  0  0
 16 17  1  0  0  0  0
 16 40  1  0  0  0  0
 16 41  1  0  0  0  0
 17 42  1  0  0  0  0
 17 43  1  0  0  0  0
 18 19  2  0  0  0  0
 18 20  1  0  0  0  0
 20 44  1  0  0  0  0
M  END
> <s_m_source_file>
AV-unprocessed.smi

> <i_m_source_file_index>
975

> <i_lp_mmshare_version>
43012

> <i_f3d_flags>
0

> <s_epik_input>
W0NIM11jMVtjSF1bY0hdbihjKD1PKVtjSF0xKVtDSDJdQyg9TylbTkhdW0NIXTJbQ0gyXVtDSDJdW0NIMl1bQ0gyXVtDSDJdW0NIMl1bQ0gyXTI=

> <s_epik_cmdline>
J2VwaWtfcHl0aG9uJywgJy1waCcsICc3LjAnLCAnLXRuJywgJzgnLCAnLW1hJywgJzIwMCcsICctbWV0YWxfYmluZGluZycsICctaW1hZScsICc8aW5maWxlLm1hZT4nLCAnLW9tYWUnLCAnPG91dGZpbGUubWFlPic=

> <r_lp_tautomer_probability>
1

> <r_epik_Ionization_Penalty>
5.54847e-07

> <r_epik_Ionization_Penalty_Charging>
5.34632e-07

> <r_epik_Ionization_Penalty_Neutral>
2.02148e-08

> <r_epik_State_Penalty>
-0

> <r_epik_Charging_Adjusted_Penalty>
5.34632e-07

> <i_epik_Tot_Q>
0

> <i_epik_Tot_abs_Q>
0

> <r_epik_Metal_State_Penalty>
-0

> <b_epik_Metal_Only>
0

> <s_lp_Force_Field>
OPLS_2005

> <r_lp_Energy>
31.8723

> <b_lp_Chiralities_Consistent>
1

> <s_lp_Variant>
AV-unprocessed.smi:975-1

> <Gold.Version>
5.8.1

> <Gold.Id.Protein>
6NUR|6NUR_protein|mol2

> <Gold.PLP.Fitness>
43.0546

> <Gold.PLP.PLP>
-37.7612

> <Gold.PLP.part.hbond>
-2.9868

> <Gold.PLP.part.metal>
0.0000

> <Gold.PLP.part.buried>
0.7176

> <Gold.PLP.part.nonpolar>
-35.9634

> <Gold.PLP.part.repulsive>
0.3094

> <Gold.PLP.ligand.clash>
0.0000

> <Gold.PLP.ligand.torsion>
0.1666

> <Gold.PLP.Chemscore.Hbond>
0.8848

> <Gold.PLP.Chemscore.CHOScore>
0.9818

> <Gold.PLP.Chemscore.Metal>
0.0000

> <Gold.Chemscore.Hbonds>
donor molecule, donor type, donor heavy atom, donor atom, acceptor molecule, acceptor atom, score
      P1  H  7989  7998       L1     8  0.50
      L1  C     4    25       P1  7957  1.00

> <Gold.PLP.Chemscore.Internal.Correction>
0.0268

> <Gold.Rescore>
     Score         DG    S(hbond)    S(metal)    S(lipo)     H(rot)  DE(clash)    DE(int)     intcor
     15.80     -17.27       0.86        0.00     105.44       1.34       1.18       0.29       ----

> <Gold.Chemscore.Fitness>
15.7973

> <Gold.Chemscore.DG>
-17.2726

> <Gold.Chemscore.ZeroCoef>
-5.4800

> <Gold.Chemscore.Hbond>
0.8606

> <Gold.Chemscore.Metal>
0.0000

> <Gold.Chemscore.Lipo>
105.4368

> <Gold.Chemscore.Internal_Hbond>
0.0000

> <Gold.Chemscore.DEClash>
1.1823

> <Gold.Chemscore.DEInternal>
0.2930

> <Gold.Chemscore.Rot>
1.3352

> <Gold.Chemscore.Internal.Correction>
   9.000000E+99

> <Gold.Chemscore.Hbonds>
donor molecule, donor type, donor heavy atom, donor atom, acceptor molecule, acceptor atom, score
      P1  H  7989  7998       L1     8  0.49
      P1  H  8011  8017       L1     8  0.01

> <Gold.Chemscore.Hbond.Weighted>
-2.8746

> <Gold.Chemscore.Metal.Weighted>
-0.0000

> <Gold.Chemscore.Lipo.Weighted>
-12.3361

> <Gold.Chemscore.Internal_Hbond.Weighted>
0.0000

> <Gold.Chemscore.DEClash.Weighted>
1.1823

> <Gold.Chemscore.DEInternal.Weighted>
0.2930

> <Gold.Chemscore.Rot.Weighted>
3.4181

> <Gold.Chemscore.Internal.Correction.Weighted>
   9.000000E+99

> <Gold.Protein.RotatedTorsions>
[ 6907 6896 6895 6894 ] final   28.54 input  -60.11 | X-H torsion
[ 7974 7965 7964 7962 ] final   85.01 input  175.53 | X-H torsion
[ 8008 7997 7996 7995 ] final   83.06 input   59.86 | X-H torsion
[ 10167 10162 10161 10158 ] final  165.10 input  -65.29 | X-H torsion
[ 10718 10713 10712 10709 ] final -132.91 input   66.30 | X-H torsion
[ 10763 10752 10751 10750 ] final  152.69 input  -60.55 | X-H torsion
[ 11005 11000 10999 10996 ] final  -12.72 input  -57.11 | X-H torsion

> <Gold.Protein.ActiveResidues>
 VAL166  LYS551  ARG553  GLY616  TRP617  ASP618  TYR619  PRO620  LYS621  CYS622 
 ASP623  PHE694  ASN695  SER759  ASP760  ASP761  ALA762  ILE779  LEU786  VAL792 
 PHE793  MET794  SER795  GLU796  ALA797  LYS798  CYS799  TRP800  GLU811  SER814 

> <Gold.Protein.RotatedAtoms>
  152.0185  134.9836  160.0569 H   0  0  0  0  0  0  0  0  0  0  0  0  # atno 6907 bound_to 6896
  152.1360  133.4431  159.4752 H   0  0  0  0  0  0  0  0  0  0  0  0  # atno 6908 bound_to 6896
  150.6860  134.2281  159.4466 H   0  0  0  0  0  0  0  0  0  0  0  0  # atno 6909 bound_to 6896
  145.5912  139.2338  143.2298 H   0  0  0  0  0  0  0  0  0  0  0  0  # atno 7974 bound_to 7965
  155.9189  140.3422  155.6157 H   0  0  0  0  0  0  0  0  0  0  0  0  # atno 8008 bound_to 7997
  155.7298  140.0794  157.2313 H   0  0  0  0  0  0  0  0  0  0  0  0  # atno 8009 bound_to 7997
  154.4066  140.1590  156.2483 H   0  0  0  0  0  0  0  0  0  0  0  0  # atno 8010 bound_to 7997
  139.4900  144.4166  151.9236 H   0  0  0  0  0  0  0  0  0  0  0  0  # atno 10167 bound_to 10162
  156.2395  130.7087  151.0942 H   0  0  0  0  0  0  0  0  0  0  0  0  # atno 10718 bound_to 10713
  154.1241  135.2831  155.3201 H   0  0  0  0  0  0  0  0  0  0  0  0  # atno 10763 bound_to 10752
  154.6402  135.5405  153.7783 H   0  0  0  0  0  0  0  0  0  0  0  0  # atno 10764 bound_to 10752
  153.0303  135.6484  154.1394 H   0  0  0  0  0  0  0  0  0  0  0  0  # atno 10765 bound_to 10752
  140.7687  133.8456  155.9188 H   0  0  0  0  0  0  0  0  0  0  0  0  # atno 11005 bound_to 11000
  146.1645  140.6738  142.9262 LP  0  0  0  0  0  0  0  0  0  0  0  0  # atno 17320 bound_to 7965
  144.7350  140.4783  143.6910 LP  0  0  0  0  0  0  0  0  0  0  0  0  # atno 17321 bound_to 7965
  140.3609  144.2974  150.5933 LP  0  0  0  0  0  0  0  0  0  0  0  0  # atno 17342 bound_to 10162
  140.5403  143.2225  151.8095 LP  0  0  0  0  0  0  0  0  0  0  0  0  # atno 17343 bound_to 10162
  157.7169  131.0704  150.6292 LP  0  0  0  0  0  0  0  0  0  0  0  0  # atno 17370 bound_to 10713
  156.6365  130.4446  149.5768 LP  0  0  0  0  0  0  0  0  0  0  0  0  # atno 17371 bound_to 10713
  140.9594  134.1675  157.4666 LP  0  0  0  0  0  0  0  0  0  0  0  0  # atno 17394 bound_to 11000
  139.8759  134.9939  156.5668 LP  0  0  0  0  0  0  0  0  0  0  0  0  # atno 17395 bound_to 11000

$$$$
