AV-unprocessed.smi:437|AV-procd|sdf|2559|dock8
  -GOLD-   2262022523D 1   1.00000     0.00000
 Structure written by MMmdl.
 48 49  0  0  0  0  0  0  0  0  1 V2000
  147.3890  139.0816  153.3417 C   0  0  0  0  0  0  0  0  0  0  0  0
  148.6775  139.2852  154.0923 C   0  0  0  0  0  0  0  0  0  0  0  0
  149.4741  138.2699  154.1631 N   0  0  0  0  0  0  0  0  0  0  0  0
  150.6795  138.3463  154.8335 N   0  0  0  0  0  0  0  0  0  0  0  0
  151.4485  137.0931  154.8269 C   0  0  0  0  0  0  0  0  0  0  0  0
  150.6179  135.8722  155.2522 C   0  0  0  0  0  0  0  0  0  0  0  0
  150.8810  135.2786  156.3015 O   0  0  0  0  0  0  0  0  0  0  0  0
  149.6186  135.5429  154.4087 N   0  0  0  0  0  0  0  0  0  0  0  0
  148.7399  134.5295  154.5319 C   0  0  0  0  0  0  0  0  0  0  0  0
  148.4864  133.9195  155.5729 O   0  0  0  0  0  0  0  0  0  0  0  0
  148.1546  134.2571  153.3563 N   0  0  0  0  0  0  0  0  0  0  0  0
  147.0285  133.3459  153.1600 C   0  0  2  0  0  0  0  0  0  0  0  0
  147.5013  131.8892  153.3489 C   0  0  0  0  0  0  0  0  0  0  0  0
  146.3681  130.8865  153.0880 C   0  0  0  0  0  0  0  0  0  0  0  0
  145.7652  131.0893  151.6916 C   0  0  0  0  0  0  0  0  0  0  0  0
  145.2760  132.5337  151.5073 C   0  0  0  0  0  0  0  0  0  0  0  0
  146.4005  133.5585  151.7596 C   0  0  1  0  0  0  0  0  0  0  0  0
  145.8792  134.9931  151.5596 C   0  0  0  0  0  0  0  0  0  0  0  0
  151.1504  139.4628  155.4601 C   0  0  0  0  0  0  0  0  0  0  0  0
  152.2372  139.4879  156.0399 O   0  0  0  0  0  0  0  0  0  0  0  0
  150.2428  140.6092  155.3765 C   0  0  0  0  0  0  0  0  0  0  0  0
  150.6928  141.7961  156.0288 C   0  0  0  0  0  0  0  0  0  0  0  0
  151.0457  142.7548  156.5733 N   0  0  0  0  0  0  0  0  0  0  0  0
  149.0545  140.5452  154.7249 C   0  0  0  0  0  0  0  0  0  0  0  0
  148.0770  141.7068  154.6097 C   0  0  0  0  0  0  0  0  0  0  0  0
  147.3487  139.7249  152.4625 H   0  0  0  0  0  0  0  0  0  0  0  0
  146.5311  139.3149  153.9729 H   0  0  0  0  0  0  0  0  0  0  0  0
  147.2748  138.0512  153.0013 H   0  0  0  0  0  0  0  0  0  0  0  0
  151.8452  136.9004  153.8285 H   0  0  0  0  0  0  0  0  0  0  0  0
  152.3225  137.1853  155.4745 H   0  0  0  0  0  0  0  0  0  0  0  0
  149.5163  136.1267  153.5921 H   0  0  0  0  0  0  0  0  0  0  0  0
  148.5037  134.7243  152.5325 H   0  0  0  0  0  0  0  0  0  0  0  0
  146.2600  133.5585  153.9061 H   0  0  0  0  0  0  0  0  0  0  0  0
  148.3304  131.6788  152.6716 H   0  0  0  0  0  0  0  0  0  0  0  0
  147.8863  131.7474  154.3596 H   0  0  0  0  0  0  0  0  0  0  0  0
  146.7426  129.8672  153.1876 H   0  0  0  0  0  0  0  0  0  0  0  0
  145.5915  131.0068  153.8444 H   0  0  0  0  0  0  0  0  0  0  0  0
  146.5118  130.8548  150.9319 H   0  0  0  0  0  0  0  0  0  0  0  0
  144.9387  130.3945  151.5391 H   0  0  0  0  0  0  0  0  0  0  0  0
  144.8804  132.6556  150.4985 H   0  0  0  0  0  0  0  0  0  0  0  0
  144.4449  132.7237  152.1881 H   0  0  0  0  0  0  0  0  0  0  0  0
  147.1755  133.3856  151.0111 H   0  0  0  0  0  0  0  0  0  0  0  0
  145.1192  135.2439  152.3004 H   0  0  0  0  0  0  0  0  0  0  0  0
  145.4323  135.1130  150.5723 H   0  0  0  0  0  0  0  0  0  0  0  0
  146.6792  135.7290  151.6420 H   0  0  0  0  0  0  0  0  0  0  0  0
  148.4807  142.6288  155.0267 H   0  0  0  0  0  0  0  0  0  0  0  0
  147.1530  141.4800  155.1423 H   0  0  0  0  0  0  0  0  0  0  0  0
  147.8327  141.9039  153.5655 H   0  0  0  0  0  0  0  0  0  0  0  0
  1  2  1  0  0  0  0
  1 26  1  0  0  0  0
  1 27  1  0  0  0  0
  1 28  1  0  0  0  0
  2 24  1  0  0  0  0
  2  3  2  0  0  0  0
  3  4  1  0  0  0  0
  4  5  1  0  0  0  0
  4 19  1  0  0  0  0
  5  6  1  0  0  0  0
  5 29  1  0  0  0  0
  5 30  1  0  0  0  0
  6  7  2  0  0  0  0
  6  8  1  0  0  0  0
  8  9  1  0  0  0  0
  8 31  1  0  0  0  0
  9 10  2  0  0  0  0
  9 11  1  0  0  0  0
 11 12  1  0  0  0  0
 11 32  1  0  0  0  0
 12 17  1  0  0  0  0
 12 13  1  0  0  0  0
 12 33  1  0  0  0  0
 13 14  1  0  0  0  0
 13 34  1  0  0  0  0
 13 35  1  0  0  0  0
 14 15  1  0  0  0  0
 14 36  1  0  0  0  0
 14 37  1  0  0  0  0
 15 16  1  0  0  0  0
 15 38  1  0  0  0  0
 15 39  1  0  0  0  0
 16 17  1  0  0  0  0
 16 40  1  0  0  0  0
 16 41  1  0  0  0  0
 17 18  1  0  0  0  0
 17 42  1  0  0  0  0
 18 43  1  0  0  0  0
 18 44  1  0  0  0  0
 18 45  1  0  0  0  0
 19 20  2  0  0  0  0
 19 21  1  0  0  0  0
 21 22  1  0  0  0  0
 21 24  2  0  0  0  0
 22 23  3  0  0  0  0
 24 25  1  0  0  0  0
 25 46  1  0  0  0  0
 25 47  1  0  0  0  0
 25 48  1  0  0  0  0
M  END
> <s_m_source_file>
AV-unprocessed.smi

> <i_m_source_file_index>
437

> <i_lp_mmshare_version>
43012

> <i_f3d_flags>
0

> <s_epik_input>
TiNDYyhjMVtDSDNdKWMoPU8pbihuYzFbQ0gzXSlbQ0gyXUMoPU8pW05IXUMoPU8pW05IXVtDQEBIXTJbQ0gyXVtDSDJdW0NIMl1bQ0gyXVtDQEhdMltDSDNd

> <s_epik_cmdline>
J2VwaWtfcHl0aG9uJywgJy1waCcsICc3LjAnLCAnLXRuJywgJzgnLCAnLW1hJywgJzIwMCcsICctbWV0YWxfYmluZGluZycsICctaW1hZScsICc8aW5maWxlLm1hZT4nLCAnLW9tYWUnLCAnPG91dGZpbGUubWFlPic=

> <r_lp_tautomer_probability>
1

> <r_epik_Ionization_Penalty>
3.27035e-05

> <r_epik_Ionization_Penalty_Charging>
1.6965e-11

> <r_epik_Ionization_Penalty_Neutral>
3.27035e-05

> <r_epik_State_Penalty>
-0

> <r_epik_Charging_Adjusted_Penalty>
1.6965e-11

> <i_epik_Tot_Q>
0

> <i_epik_Tot_abs_Q>
0

> <r_epik_Metal_State_Penalty>
-0

> <b_epik_Metal_Only>
0

> <s_lp_Force_Field>
OPLS_2005

> <r_lp_Energy>
27.1353

> <b_lp_Chiralities_Consistent>
1

> <s_lp_Variant>
AV-unprocessed.smi:437-1

> <Gold.Version>
5.8.1

> <Gold.Id.Protein>
6NUR|6NUR_protein|mol2

> <Gold.PLP.Fitness>
45.3902

> <Gold.PLP.PLP>
-39.1632

> <Gold.PLP.part.hbond>
-2.6052

> <Gold.PLP.part.metal>
0.0000

> <Gold.PLP.part.buried>
-1.2431

> <Gold.PLP.part.nonpolar>
-35.2049

> <Gold.PLP.part.repulsive>
1.2303

> <Gold.PLP.ligand.clash>
0.0000

> <Gold.PLP.ligand.torsion>
0.3712

> <Gold.PLP.Chemscore.Hbond>
2.3154

> <Gold.PLP.Chemscore.CHOScore>
0.0000

> <Gold.PLP.Chemscore.Metal>
0.0000

> <Gold.Chemscore.Hbonds>
donor molecule, donor type, donor heavy atom, donor atom, acceptor molecule, acceptor atom, score
      L1  H     8    31       P1  7948  0.93
      L1  H    11    32       P1  7948  0.80
      P1  H  7997  8010       L1    20  0.54

> <Gold.PLP.Chemscore.Internal.Correction>
0.0232

> <Gold.Rescore>
     Score         DG    S(hbond)    S(metal)    S(lipo)     H(rot)  DE(clash)    DE(int)     intcor
     16.06     -17.93       2.32        0.00      74.53       1.57       0.31       1.56       ----

> <Gold.Chemscore.Fitness>
16.0623

> <Gold.Chemscore.DG>
-17.9324

> <Gold.Chemscore.ZeroCoef>
-5.4800

> <Gold.Chemscore.Hbond>
2.3174

> <Gold.Chemscore.Metal>
0.0000

> <Gold.Chemscore.Lipo>
74.5309

> <Gold.Chemscore.Internal_Hbond>
0.0000

> <Gold.Chemscore.DEClash>
0.3052

> <Gold.Chemscore.DEInternal>
1.5648

> <Gold.Chemscore.Rot>
1.5656

> <Gold.Chemscore.Internal.Correction>
   9.000000E+99

> <Gold.Chemscore.Hbonds>
donor molecule, donor type, donor heavy atom, donor atom, acceptor molecule, acceptor atom, score
      L1  H     8    31       P1  7948  0.45
      L1  H    11    32       P1  7948  0.13
      P1  H  7997  8010       L1    20  0.54

> <Gold.Chemscore.Hbond.Weighted>
-7.7402

> <Gold.Chemscore.Metal.Weighted>
-0.0000

> <Gold.Chemscore.Lipo.Weighted>
-8.7201

> <Gold.Chemscore.Internal_Hbond.Weighted>
0.0000

> <Gold.Chemscore.DEClash.Weighted>
0.3052

> <Gold.Chemscore.DEInternal.Weighted>
1.5648

> <Gold.Chemscore.Rot.Weighted>
4.0079

> <Gold.Chemscore.Internal.Correction.Weighted>
   9.000000E+99

> <Gold.Protein.RotatedTorsions>
[ 6907 6896 6895 6894 ] final  -50.89 input  -60.11 | X-H torsion
[ 7974 7965 7964 7962 ] final -146.07 input  175.53 | X-H torsion
[ 8008 7997 7996 7995 ] final   74.29 input   59.86 | X-H torsion
[ 10167 10162 10161 10158 ] final  135.27 input  -65.29 | X-H torsion
[ 10718 10713 10712 10709 ] final   96.51 input   66.30 | X-H torsion
[ 10763 10752 10751 10750 ] final   77.71 input  -60.55 | X-H torsion
[ 11005 11000 10999 10996 ] final -111.66 input  -57.11 | X-H torsion

> <Gold.Protein.ActiveResidues>
 VAL166  LYS551  ARG553  GLY616  TRP617  ASP618  TYR619  PRO620  LYS621  CYS622 
 ASP623  PHE694  ASN695  SER759  ASP760  ASP761  ALA762  ILE779  LEU786  VAL792 
 PHE793  MET794  SER795  GLU796  ALA797  LYS798  CYS799  TRP800  GLU811  SER814 

> <Gold.Protein.RotatedAtoms>
  150.8664  134.8028  159.7121 H   0  0  0  0  0  0  0  0  0  0  0  0  # atno 6907 bound_to 6896
  152.4684  134.5017  159.9736 H   0  0  0  0  0  0  0  0  0  0  0  0  # atno 6908 bound_to 6896
  151.5113  133.3446  159.2921 H   0  0  0  0  0  0  0  0  0  0  0  0  # atno 6909 bound_to 6896
  144.8184  140.5503  143.5595 H   0  0  0  0  0  0  0  0  0  0  0  0  # atno 7974 bound_to 7965
  155.7962  140.3478  155.5377 H   0  0  0  0  0  0  0  0  0  0  0  0  # atno 8008 bound_to 7997
  155.8584  140.0967  157.1650 H   0  0  0  0  0  0  0  0  0  0  0  0  # atno 8009 bound_to 7997
  154.4011  140.1363  156.3918 H   0  0  0  0  0  0  0  0  0  0  0  0  # atno 8010 bound_to 7997
  139.5224  144.6526  151.5259 H   0  0  0  0  0  0  0  0  0  0  0  0  # atno 10167 bound_to 10162
  157.6926  131.0580  150.4502 H   0  0  0  0  0  0  0  0  0  0  0  0  # atno 10718 bound_to 10713
  153.0819  135.4904  154.8520 H   0  0  0  0  0  0  0  0  0  0  0  0  # atno 10763 bound_to 10752
  154.7162  135.3030  154.9123 H   0  0  0  0  0  0  0  0  0  0  0  0  # atno 10764 bound_to 10752
  153.9801  135.6791  153.4803 H   0  0  0  0  0  0  0  0  0  0  0  0  # atno 10765 bound_to 10752
  141.0721  133.9362  157.2464 H   0  0  0  0  0  0  0  0  0  0  0  0  # atno 11005 bound_to 11000
  145.5160  139.1478  143.3578 LP  0  0  0  0  0  0  0  0  0  0  0  0  # atno 17320 bound_to 7965
  146.2489  140.5301  142.8902 LP  0  0  0  0  0  0  0  0  0  0  0  0  # atno 17321 bound_to 7965
  140.6337  143.9026  150.6628 LP  0  0  0  0  0  0  0  0  0  0  0  0  # atno 17342 bound_to 10162
  140.2339  143.3715  152.1543 LP  0  0  0  0  0  0  0  0  0  0  0  0  # atno 17343 bound_to 10162
  156.4854  130.4083  149.6437 LP  0  0  0  0  0  0  0  0  0  0  0  0  # atno 17370 bound_to 10713
  156.3467  130.7410  151.2364 LP  0  0  0  0  0  0  0  0  0  0  0  0  # atno 17371 bound_to 10713
  139.9534  135.0171  156.9059 LP  0  0  0  0  0  0  0  0  0  0  0  0  # atno 17394 bound_to 11000
  140.5651  134.0497  155.7411 LP  0  0  0  0  0  0  0  0  0  0  0  0  # atno 17395 bound_to 11000

$$$$
