AV-unprocessed.smi:34|AV-procd|sdf|242|dock8
  -GOLD-   2262015593D 1   1.00000     0.00000
 Structure written by MMmdl.
 54 58  0  0  0  0  0  0  0  0  2 V2000
  152.7523  140.1942  158.0813 O   0  0  0  0  0  0  0  0  0  0  0  0
  151.9592  141.0741  157.7395 C   0  0  0  0  0  0  0  0  0  0  0  0
  151.0286  141.0192  156.7531 N   0  5  0  0  0  0  0  0  0  0  0  0
  150.8369  139.8732  156.0821 C   0  0  0  0  0  0  0  0  0  0  0  0
  150.8899  139.8541  154.7255 N   0  0  0  0  0  0  0  0  0  0  0  0
  150.7064  138.7090  154.0571 C   0  0  0  0  0  0  0  0  0  0  0  0
  150.4553  137.4866  154.5366 N   0  0  0  0  0  0  0  0  0  0  0  0
  150.3858  137.4972  155.8993 C   0  0  0  0  0  0  0  0  0  0  0  0
  150.5611  138.6393  156.7326 C   0  0  0  0  0  0  0  0  0  0  0  0
  150.4319  138.2953  158.0699 N   0  0  0  0  0  0  0  0  0  0  0  0
  150.1964  136.9873  157.9895 C   0  0  0  0  0  0  0  0  0  0  0  0
  150.1407  136.4389  156.7568 N   0  0  0  0  0  0  0  0  0  0  0  0
  149.9216  135.0110  156.3576 C   0  0  1  0  0  0  0  0  0  0  0  0
  149.6633  134.2635  157.5090 O   0  0  0  0  0  0  0  0  0  0  0  0
  148.2578  134.1894  157.7048 C   0  0  2  0  0  0  0  0  0  0  0  0
  147.9180  133.0444  158.6648 C   0  0  0  0  0  0  0  0  0  0  0  0
  146.6889  133.3203  159.3158 O   0  0  0  0  0  0  0  0  0  0  0  0
  146.5983  133.2165  160.6560 C   0  0  0  0  0  0  0  0  0  0  0  0
  147.5226  132.8289  161.3736 O   0  0  0  0  0  0  0  0  0  0  0  0
  145.2631  133.6226  161.1815 C   0  0  0  0  0  0  0  0  0  0  0  0
  145.1793  134.2605  162.4415 C   0  0  0  0  0  0  0  0  0  0  0  0
  143.9329  134.6583  162.9628 C   0  0  0  0  0  0  0  0  0  0  0  0
  142.7545  134.4214  162.2317 C   0  0  0  0  0  0  0  0  0  0  0  0
  142.8241  133.7854  160.9783 C   0  0  0  0  0  0  0  0  0  0  0  0
  144.0699  133.3876  160.4546 C   0  0  0  0  0  0  0  0  0  0  0  0
  147.7540  133.9929  156.2777 C   0  0  1  0  0  0  0  0  0  0  0  0
  146.4752  134.3485  156.1480 F   0  0  0  0  0  0  0  0  0  0  0  0
  148.6721  134.8935  155.4611 C   0  0  2  0  0  0  0  0  0  0  0  0
  148.9604  134.3015  154.2111 O   0  0  0  0  0  0  0  0  0  0  0  0
  152.0270  142.4141  158.4212 C   0  0  0  0  0  0  0  0  0  0  0  0
  152.4814  142.4973  159.7572 C   0  0  0  0  0  0  0  0  0  0  0  0
  152.5256  143.7378  160.4228 C   0  0  0  0  0  0  0  0  0  0  0  0
  152.1061  144.9075  159.7623 C   0  0  0  0  0  0  0  0  0  0  0  0
  151.6392  144.8353  158.4364 C   0  0  0  0  0  0  0  0  0  0  0  0
  151.5955  143.5953  157.7696 C   0  0  0  0  0  0  0  0  0  0  0  0
  150.7715  138.7829  152.9818 H   0  0  0  0  0  0  0  0  0  0  0  0
  150.0593  136.3976  158.8838 H   0  0  0  0  0  0  0  0  0  0  0  0
  150.8591  134.7140  155.8851 H   0  0  0  0  0  0  0  0  0  0  0  0
  147.9019  135.1398  158.1062 H   0  0  0  0  0  0  0  0  0  0  0  0
  147.8560  132.1000  158.1221 H   0  0  0  0  0  0  0  0  0  0  0  0
  148.7056  132.9423  159.4125 H   0  0  0  0  0  0  0  0  0  0  0  0
  146.0706  134.4534  163.0214 H   0  0  0  0  0  0  0  0  0  0  0  0
  143.8819  135.1464  163.9250 H   0  0  0  0  0  0  0  0  0  0  0  0
  141.7988  134.7266  162.6315 H   0  0  0  0  0  0  0  0  0  0  0  0
  141.9200  133.6025  160.4165 H   0  0  0  0  0  0  0  0  0  0  0  0
  144.0874  132.9009  159.4903 H   0  0  0  0  0  0  0  0  0  0  0  0
  147.8490  132.9474  155.9799 H   0  0  0  0  0  0  0  0  0  0  0  0
  148.2195  135.8753  155.3117 H   0  0  0  0  0  0  0  0  0  0  0  0
  148.8890  134.9640  153.5412 H   0  0  0  0  0  0  0  0  0  0  0  0
  152.8048  141.6081  160.2790 H   0  0  0  0  0  0  0  0  0  0  0  0
  152.8795  143.7902  161.4416 H   0  0  0  0  0  0  0  0  0  0  0  0
  152.1384  145.8584  160.2732 H   0  0  0  0  0  0  0  0  0  0  0  0
  151.3100  145.7309  157.9305 H   0  0  0  0  0  0  0  0  0  0  0  0
  151.2228  143.5598  156.7559 H   0  0  0  0  0  0  0  0  0  0  0  0
  1  2  2  0  0  0  0
  2  3  1  0  0  0  0
  2 30  1  0  0  0  0
  3  4  1  0  0  0  0
  4  9  1  0  0  0  0
  4  5  2  0  0  0  0
  5  6  1  0  0  0  0
  6  7  2  0  0  0  0
  6 36  1  0  0  0  0
  7  8  1  0  0  0  0
  8 12  1  0  0  0  0
  8  9  2  0  0  0  0
  9 10  1  0  0  0  0
 10 11  2  0  0  0  0
 11 12  1  0  0  0  0
 11 37  1  0  0  0  0
 12 13  1  0  0  0  0
 13 28  1  0  0  0  0
 13 14  1  0  0  0  0
 13 38  1  0  0  0  0
 14 15  1  0  0  0  0
 15 16  1  0  0  0  0
 15 26  1  0  0  0  0
 15 39  1  0  0  0  0
 16 17  1  0  0  0  0
 16 40  1  0  0  0  0
 16 41  1  0  0  0  0
 17 18  1  0  0  0  0
 18 19  2  0  0  0  0
 18 20  1  0  0  0  0
 20 25  1  0  0  0  0
 20 21  2  0  0  0  0
 21 22  1  0  0  0  0
 21 42  1  0  0  0  0
 22 23  2  0  0  0  0
 22 43  1  0  0  0  0
 23 24  1  0  0  0  0
 23 44  1  0  0  0  0
 24 25  2  0  0  0  0
 24 45  1  0  0  0  0
 25 46  1  0  0  0  0
 26 27  1  0  0  0  0
 26 28  1  0  0  0  0
 26 47  1  0  0  0  0
 28 29  1  0  0  0  0
 28 48  1  0  0  0  0
 29 49  1  0  0  0  0
 30 35  1  0  0  0  0
 30 31  2  0  0  0  0
 31 32  1  0  0  0  0
 31 50  1  0  0  0  0
 32 33  2  0  0  0  0
 32 51  1  0  0  0  0
 33 34  1  0  0  0  0
 33 52  1  0  0  0  0
 34 35  2  0  0  0  0
 34 53  1  0  0  0  0
 35 54  1  0  0  0  0
M  CHG  1   3  -1
M  END
> <s_m_source_file>
AV-unprocessed.smi

> <i_m_source_file_index>
34

> <i_lp_mmshare_version>
43012

> <i_f3d_flags>
0

> <s_epik_input>
W2NIXTFbY0hdW2NIXVtjSF1bY0hdYzFDKD1PKVtOSF1jKG5bY0hdbjIpYyhjMjMpbltjSF1uM1tDQEBIXTRPW0NASF0oW0NAQEhdKEYpW0NASF00W09IXSlbQ0gyXU9DKD1PKWM1W2NIXVtjSF1bY0hdW2NIXVtjSF01

> <s_epik_cmdline>
J2VwaWtfcHl0aG9uJywgJy1waCcsICc3LjAnLCAnLXRuJywgJzgnLCAnLW1hJywgJzIwMCcsICctbWV0YWxfYmluZGluZycsICctaW1hZScsICc8aW5maWxlLm1hZT4nLCAnLW9tYWUnLCAnPG91dGZpbGUubWFlPic=

> <r_lp_tautomer_probability>
1

> <r_epik_Ionization_Penalty>
4.33227

> <r_epik_Ionization_Penalty_Charging>
3.41027

> <r_epik_Ionization_Penalty_Neutral>
0.922001

> <r_epik_State_Penalty>
3.41358

> <r_epik_Charging_Adjusted_Penalty>
6.82385

> <i_epik_Tot_Q>
-1

> <i_epik_Tot_abs_Q>
1

> <r_epik_Metal_State_Penalty>
0.496292

> <b_epik_Metal_Only>
1

> <s_epik_Chemistry_Notes>
This compound has an ester and may undergo hydrolysis at high or low pH. This compound contains an acetal/aminal-like group ( X-CH(R)-Y where X, Y are N, S, or O) that may be acid/base labile, releasing an aldehyde.

> <s_lp_Force_Field>
OPLS_2005

> <r_lp_Energy>
39.213

> <b_lp_Chiralities_Consistent>
1

> <s_lp_Variant>
AV-unprocessed.smi:34-28

> <Gold.Version>
5.8.1

> <Gold.Id.Protein>
6NUR|6NUR_protein|mol2

> <Gold.PLP.Fitness>
62.5716

> <Gold.PLP.PLP>
-51.4756

> <Gold.PLP.part.hbond>
-4.0000

> <Gold.PLP.part.metal>
0.0000

> <Gold.PLP.part.buried>
-9.3740

> <Gold.PLP.part.nonpolar>
-38.4587

> <Gold.PLP.part.repulsive>
0.3097

> <Gold.PLP.ligand.clash>
0.0000

> <Gold.PLP.ligand.torsion>
1.9940

> <Gold.PLP.Chemscore.Hbond>
3.8304

> <Gold.PLP.Chemscore.CHOScore>
1.0000

> <Gold.PLP.Chemscore.Metal>
0.0000

> <Gold.Chemscore.Hbonds>
donor molecule, donor type, donor heavy atom, donor atom, acceptor molecule, acceptor atom, score
      L1  H    29    49       P1  7948  0.89
      P1  H  6896  6909       L1    14  0.81
      P1  H  7989  7998       L1     5  1.00
      P1  H  7997  8010       L1     1  0.79
      L1  C     6    36       P1  7957  0.95

> <Gold.PLP.Chemscore.Internal.Correction>
0.5928

> <Gold.Rescore>
     Score         DG    S(hbond)    S(metal)    S(lipo)     H(rot)  DE(clash)    DE(int)     intcor
     19.09     -21.85       2.65        0.00     123.13       2.69       0.11       2.65       ----

> <Gold.Chemscore.Fitness>
19.0934

> <Gold.Chemscore.DG>
-21.8546

> <Gold.Chemscore.ZeroCoef>
-5.4800

> <Gold.Chemscore.Hbond>
2.6545

> <Gold.Chemscore.Metal>
0.0000

> <Gold.Chemscore.Lipo>
123.1289

> <Gold.Chemscore.Internal_Hbond>
0.0000

> <Gold.Chemscore.DEClash>
0.1074

> <Gold.Chemscore.DEInternal>
2.6538

> <Gold.Chemscore.Rot>
2.6944

> <Gold.Chemscore.Internal.Correction>
   9.000000E+99

> <Gold.Chemscore.Hbonds>
donor molecule, donor type, donor heavy atom, donor atom, acceptor molecule, acceptor atom, score
      L1  H    29    49       P1  7948  0.39
      P1  H  6896  6909       L1    14  0.65
      P1  H  7989  7998       L1     5  0.35
      P1  H  7997  8010       L1     1  0.65

> <Gold.Chemscore.Hbond.Weighted>
-8.8661

> <Gold.Chemscore.Metal.Weighted>
-0.0000

> <Gold.Chemscore.Lipo.Weighted>
-14.4061

> <Gold.Chemscore.Internal_Hbond.Weighted>
0.0000

> <Gold.Chemscore.DEClash.Weighted>
0.1074

> <Gold.Chemscore.DEInternal.Weighted>
2.6538

> <Gold.Chemscore.Rot.Weighted>
6.8975

> <Gold.Chemscore.Internal.Correction.Weighted>
   9.000000E+99

> <Gold.Protein.RotatedTorsions>
[ 6907 6896 6895 6894 ] final    5.89 input  -60.11 | X-H torsion
[ 7974 7965 7964 7962 ] final   26.31 input  175.53 | X-H torsion
[ 8008 7997 7996 7995 ] final   47.00 input   59.86 | X-H torsion
[ 10167 10162 10161 10158 ] final   -3.30 input  -65.29 | X-H torsion
[ 10718 10713 10712 10709 ] final  168.64 input   66.30 | X-H torsion
[ 10763 10752 10751 10750 ] final   60.97 input  -60.55 | X-H torsion
[ 11005 11000 10999 10996 ] final -105.72 input  -57.11 | X-H torsion

> <Gold.Protein.ActiveResidues>
 VAL166  LYS551  ARG553  GLY616  TRP617  ASP618  TYR619  PRO620  LYS621  CYS622 
 ASP623  PHE694  ASN695  SER759  ASP760  ASP761  ALA762  ILE779  LEU786  VAL792 
 PHE793  MET794  SER795  GLU796  ALA797  LYS798  CYS799  TRP800  GLU811  SER814 

> <Gold.Protein.RotatedAtoms>
  151.6649  135.0984  160.0186 H   0  0  0  0  0  0  0  0  0  0  0  0  # atno 6907 bound_to 6896
  152.3925  133.6695  159.6258 H   0  0  0  0  0  0  0  0  0  0  0  0  # atno 6908 bound_to 6896
  150.7838  133.8846  159.3337 H   0  0  0  0  0  0  0  0  0  0  0  0  # atno 6909 bound_to 6896
  146.1844  139.7345  142.8877 H   0  0  0  0  0  0  0  0  0  0  0  0  # atno 7974 bound_to 7965
  155.3617  140.3419  155.4241 H   0  0  0  0  0  0  0  0  0  0  0  0  # atno 8008 bound_to 7997
  156.1710  140.1631  156.8482 H   0  0  0  0  0  0  0  0  0  0  0  0  # atno 8009 bound_to 7997
  154.5233  140.0762  156.8194 H   0  0  0  0  0  0  0  0  0  0  0  0  # atno 8010 bound_to 7997
  140.6885  143.6556  150.8311 H   0  0  0  0  0  0  0  0  0  0  0  0  # atno 10167 bound_to 10162
  157.0342  131.0268  151.2734 H   0  0  0  0  0  0  0  0  0  0  0  0  # atno 10718 bound_to 10713
  152.9936  135.5517  154.5959 H   0  0  0  0  0  0  0  0  0  0  0  0  # atno 10763 bound_to 10752
  154.5311  135.2813  155.1182 H   0  0  0  0  0  0  0  0  0  0  0  0  # atno 10764 bound_to 10752
  154.2497  135.6401  153.5288 H   0  0  0  0  0  0  0  0  0  0  0  0  # atno 10765 bound_to 10752
  141.1040  133.8832  157.1768 H   0  0  0  0  0  0  0  0  0  0  0  0  # atno 11005 bound_to 11000
  145.3983  141.0382  143.3085 LP  0  0  0  0  0  0  0  0  0  0  0  0  # atno 17320 bound_to 7965
  144.8371  139.5533  143.6917 LP  0  0  0  0  0  0  0  0  0  0  0  0  # atno 17321 bound_to 7965
  140.0266  143.5487  152.2778 LP  0  0  0  0  0  0  0  0  0  0  0  0  # atno 17342 bound_to 10162
  139.6264  144.7638  151.2629 LP  0  0  0  0  0  0  0  0  0  0  0  0  # atno 17343 bound_to 10162
  157.5154  130.7964  149.7750 LP  0  0  0  0  0  0  0  0  0  0  0  0  # atno 17370 bound_to 10713
  156.0059  130.3856  150.2433 LP  0  0  0  0  0  0  0  0  0  0  0  0  # atno 17371 bound_to 10713
  139.9902  135.0067  156.9957 LP  0  0  0  0  0  0  0  0  0  0  0  0  # atno 17394 bound_to 11000
  140.4950  134.1154  155.7239 LP  0  0  0  0  0  0  0  0  0  0  0  0  # atno 17395 bound_to 11000

$$$$
