AV-unprocessed.smi:34|AV-procd|sdf|237|dock1
  -GOLD-   2262015583D 1   1.00000     0.00000
 Structure written by MMmdl.
 54 58  0  0  0  0  0  0  0  0  2 V2000
  152.5539  139.4978  159.1583 O   0  0  0  0  0  0  0  0  0  0  0  0
  152.3739  140.3953  158.3323 C   0  0  0  0  0  0  0  0  0  0  0  0
  152.2937  140.2817  156.9824 N   0  5  0  0  0  0  0  0  0  0  0  0
  151.5249  139.3282  156.4354 C   0  0  0  0  0  0  0  0  0  0  0  0
  151.5837  139.0797  155.1021 N   0  0  0  0  0  0  0  0  0  0  0  0
  150.8234  138.1219  154.5588 C   0  0  0  0  0  0  0  0  0  0  0  0
  149.9526  137.3019  155.1546 N   0  0  0  0  0  0  0  0  0  0  0  0
  149.8896  137.5367  156.4974 C   0  0  0  0  0  0  0  0  0  0  0  0
  150.6407  138.5213  157.2028 C   0  0  0  0  0  0  0  0  0  0  0  0
  150.3418  138.4915  158.5571 N   0  0  0  0  0  0  0  0  0  0  0  0
  149.4424  137.5118  158.6123 C   0  0  0  0  0  0  0  0  0  0  0  0
  149.1165  136.9014  157.4557 N   0  0  0  0  0  0  0  0  0  0  0  0
  148.1504  135.7802  157.2609 C   0  0  2  0  0  0  0  0  0  0  0  0
  148.6917  134.9111  156.3164 O   0  0  0  0  0  0  0  0  0  0  0  0
  147.6271  134.3555  155.5630 C   0  0  2  0  0  0  0  0  0  0  0  0
  148.1426  133.7518  154.2505 C   0  0  0  0  0  0  0  0  0  0  0  0
  147.0410  133.4420  153.4125 O   0  0  0  0  0  0  0  0  0  0  0  0
  147.1525  132.4758  152.4802 C   0  0  0  0  0  0  0  0  0  0  0  0
  148.0811  131.6656  152.4449 O   0  0  0  0  0  0  0  0  0  0  0  0
  146.0361  132.4927  151.4913 C   0  0  0  0  0  0  0  0  0  0  0  0
  146.3087  132.2071  150.1331 C   0  0  0  0  0  0  0  0  0  0  0  0
  145.2753  132.2181  149.1762 C   0  0  0  0  0  0  0  0  0  0  0  0
  143.9563  132.5145  149.5657 C   0  0  0  0  0  0  0  0  0  0  0  0
  143.6717  132.7998  150.9139 C   0  0  0  0  0  0  0  0  0  0  0  0
  144.7040  132.7896  151.8723 C   0  0  0  0  0  0  0  0  0  0  0  0
  146.6519  135.5245  155.4050 C   0  0  2  0  0  0  0  0  0  0  0  0
  147.0053  136.3092  154.3857 F   0  0  0  0  0  0  0  0  0  0  0  0
  146.8041  136.2914  156.7138 C   0  0  1  0  0  0  0  0  0  0  0  0
  145.7312  135.9759  157.5779 O   0  0  0  0  0  0  0  0  0  0  0  0
  152.1472  141.7997  158.8249 C   0  0  0  0  0  0  0  0  0  0  0  0
  151.5371  142.7504  157.9750 C   0  0  0  0  0  0  0  0  0  0  0  0
  151.2929  144.0622  158.4259 C   0  0  0  0  0  0  0  0  0  0  0  0
  151.6477  144.4354  159.7359 C   0  0  0  0  0  0  0  0  0  0  0  0
  152.2427  143.4938  160.5962 C   0  0  0  0  0  0  0  0  0  0  0  0
  152.4869  142.1815  160.1461 C   0  0  0  0  0  0  0  0  0  0  0  0
  150.9290  137.9932  153.4920 H   0  0  0  0  0  0  0  0  0  0  0  0
  148.9934  137.2210  159.5506 H   0  0  0  0  0  0  0  0  0  0  0  0
  148.0734  135.2918  158.2339 H   0  0  0  0  0  0  0  0  0  0  0  0
  147.1644  133.5761  156.1715 H   0  0  0  0  0  0  0  0  0  0  0  0
  148.8214  134.4458  153.7526 H   0  0  0  0  0  0  0  0  0  0  0  0
  148.7038  132.8394  154.4556 H   0  0  0  0  0  0  0  0  0  0  0  0
  147.3144  131.9787  149.8103 H   0  0  0  0  0  0  0  0  0  0  0  0
  145.4958  131.9991  148.1417 H   0  0  0  0  0  0  0  0  0  0  0  0
  143.1640  132.5233  148.8317 H   0  0  0  0  0  0  0  0  0  0  0  0
  142.6594  133.0267  151.2145 H   0  0  0  0  0  0  0  0  0  0  0  0
  144.4505  133.0120  152.8986 H   0  0  0  0  0  0  0  0  0  0  0  0
  145.6315  135.1960  155.2034 H   0  0  0  0  0  0  0  0  0  0  0  0
  146.8245  137.3701  156.5496 H   0  0  0  0  0  0  0  0  0  0  0  0
  145.2474  136.7683  157.7559 H   0  0  0  0  0  0  0  0  0  0  0  0
  151.2571  142.4796  156.9671 H   0  0  0  0  0  0  0  0  0  0  0  0
  150.8316  144.7817  157.7659 H   0  0  0  0  0  0  0  0  0  0  0  0
  151.4600  145.4409  160.0819 H   0  0  0  0  0  0  0  0  0  0  0  0
  152.5090  143.7756  161.6041 H   0  0  0  0  0  0  0  0  0  0  0  0
  152.9338  141.4710  160.8264 H   0  0  0  0  0  0  0  0  0  0  0  0
  1  2  2  0  0  0  0
  2  3  1  0  0  0  0
  2 30  1  0  0  0  0
  3  4  1  0  0  0  0
  4  9  1  0  0  0  0
  4  5  2  0  0  0  0
  5  6  1  0  0  0  0
  6  7  2  0  0  0  0
  6 36  1  0  0  0  0
  7  8  1  0  0  0  0
  8 12  1  0  0  0  0
  8  9  2  0  0  0  0
  9 10  1  0  0  0  0
 10 11  2  0  0  0  0
 11 12  1  0  0  0  0
 11 37  1  0  0  0  0
 12 13  1  0  0  0  0
 13 28  1  0  0  0  0
 13 14  1  0  0  0  0
 13 38  1  0  0  0  0
 14 15  1  0  0  0  0
 15 16  1  0  0  0  0
 15 26  1  0  0  0  0
 15 39  1  0  0  0  0
 16 17  1  0  0  0  0
 16 40  1  0  0  0  0
 16 41  1  0  0  0  0
 17 18  1  0  0  0  0
 18 19  2  0  0  0  0
 18 20  1  0  0  0  0
 20 25  1  0  0  0  0
 20 21  2  0  0  0  0
 21 22  1  0  0  0  0
 21 42  1  0  0  0  0
 22 23  2  0  0  0  0
 22 43  1  0  0  0  0
 23 24  1  0  0  0  0
 23 44  1  0  0  0  0
 24 25  2  0  0  0  0
 24 45  1  0  0  0  0
 25 46  1  0  0  0  0
 26 27  1  0  0  0  0
 26 28  1  0  0  0  0
 26 47  1  0  0  0  0
 28 29  1  0  0  0  0
 28 48  1  0  0  0  0
 29 49  1  0  0  0  0
 30 35  1  0  0  0  0
 30 31  2  0  0  0  0
 31 32  1  0  0  0  0
 31 50  1  0  0  0  0
 32 33  2  0  0  0  0
 32 51  1  0  0  0  0
 33 34  1  0  0  0  0
 33 52  1  0  0  0  0
 34 35  2  0  0  0  0
 34 53  1  0  0  0  0
 35 54  1  0  0  0  0
M  CHG  1   3  -1
M  END
> <s_m_source_file>
AV-unprocessed.smi

> <i_m_source_file_index>
34

> <i_lp_mmshare_version>
43012

> <i_f3d_flags>
0

> <s_epik_input>
W2NIXTFbY0hdW2NIXVtjSF1bY0hdYzFDKD1PKVtOSF1jKG5bY0hdbjIpYyhjMjMpbltjSF1uM1tDQEBIXTRPW0NASF0oW0NAQEhdKEYpW0NASF00W09IXSlbQ0gyXU9DKD1PKWM1W2NIXVtjSF1bY0hdW2NIXVtjSF01

> <s_epik_cmdline>
J2VwaWtfcHl0aG9uJywgJy1waCcsICc3LjAnLCAnLXRuJywgJzgnLCAnLW1hJywgJzIwMCcsICctbWV0YWxfYmluZGluZycsICctaW1hZScsICc8aW5maWxlLm1hZT4nLCAnLW9tYWUnLCAnPG91dGZpbGUubWFlPic=

> <r_lp_tautomer_probability>
1

> <r_epik_Ionization_Penalty>
4.33227

> <r_epik_Ionization_Penalty_Charging>
3.41027

> <r_epik_Ionization_Penalty_Neutral>
0.922001

> <r_epik_State_Penalty>
3.41358

> <r_epik_Charging_Adjusted_Penalty>
6.82385

> <i_epik_Tot_Q>
-1

> <i_epik_Tot_abs_Q>
1

> <r_epik_Metal_State_Penalty>
0.496292

> <b_epik_Metal_Only>
1

> <s_epik_Chemistry_Notes>
This compound has an ester and may undergo hydrolysis at high or low pH. This compound contains an acetal/aminal-like group ( X-CH(R)-Y where X, Y are N, S, or O) that may be acid/base labile, releasing an aldehyde.

> <s_lp_Force_Field>
OPLS_2005

> <r_lp_Energy>
44.3344

> <b_lp_Chiralities_Consistent>
1

> <s_lp_Variant>
AV-unprocessed.smi:34-23

> <Gold.Version>
5.8.1

> <Gold.Id.Protein>
6NUR|6NUR_protein|mol2

> <Gold.PLP.Fitness>
52.8768

> <Gold.PLP.PLP>
-48.8273

> <Gold.PLP.part.hbond>
-1.0000

> <Gold.PLP.part.metal>
0.0000

> <Gold.PLP.part.buried>
-5.4329

> <Gold.PLP.part.nonpolar>
-42.7462

> <Gold.PLP.part.repulsive>
1.4404

> <Gold.PLP.ligand.clash>
0.0000

> <Gold.PLP.ligand.torsion>
2.0348

> <Gold.PLP.Chemscore.Hbond>
2.0000

> <Gold.PLP.Chemscore.CHOScore>
0.4219

> <Gold.PLP.Chemscore.Metal>
0.0000

> <Gold.Chemscore.Hbonds>
donor molecule, donor type, donor heavy atom, donor atom, acceptor molecule, acceptor atom, score
      P1  H  7989  7998       L1     5  0.08
      P1  H  7997  8010       L1     3  1.46
      L1  C     6    36       P1  7949  0.23

> <Gold.PLP.Chemscore.Internal.Correction>
0.8533

> <Gold.Rescore>
     Score         DG    S(hbond)    S(metal)    S(lipo)     H(rot)  DE(clash)    DE(int)     intcor
      7.74     -15.95       0.89        0.00     123.11       2.69       0.06       8.15       ----

> <Gold.Chemscore.Fitness>
7.7384

> <Gold.Chemscore.DG>
-15.9533

> <Gold.Chemscore.ZeroCoef>
-5.4800

> <Gold.Chemscore.Hbond>
0.8884

> <Gold.Chemscore.Metal>
0.0000

> <Gold.Chemscore.Lipo>
123.1081

> <Gold.Chemscore.Internal_Hbond>
0.0000

> <Gold.Chemscore.DEClash>
0.0644

> <Gold.Chemscore.DEInternal>
8.1504

> <Gold.Chemscore.Rot>
2.6944

> <Gold.Chemscore.Internal.Correction>
   9.000000E+99

> <Gold.Chemscore.Hbonds>
donor molecule, donor type, donor heavy atom, donor atom, acceptor molecule, acceptor atom, score
      P1  H  7989  7998       L1     5  0.07
      P1  H  7997  8010       L1     3  0.12

> <Gold.Chemscore.Hbond.Weighted>
-2.9672

> <Gold.Chemscore.Metal.Weighted>
-0.0000

> <Gold.Chemscore.Lipo.Weighted>
-14.4037

> <Gold.Chemscore.Internal_Hbond.Weighted>
0.0000

> <Gold.Chemscore.DEClash.Weighted>
0.0644

> <Gold.Chemscore.DEInternal.Weighted>
8.1504

> <Gold.Chemscore.Rot.Weighted>
6.8975

> <Gold.Chemscore.Internal.Correction.Weighted>
   9.000000E+99

> <Gold.Protein.RotatedTorsions>
[ 6907 6896 6895 6894 ] final  -52.81 input  -60.11 | X-H torsion
[ 7974 7965 7964 7962 ] final  -32.03 input  175.53 | X-H torsion
[ 8008 7997 7996 7995 ] final   64.40 input   59.86 | X-H torsion
[ 10167 10162 10161 10158 ] final  -16.65 input  -65.29 | X-H torsion
[ 10718 10713 10712 10709 ] final   45.76 input   66.30 | X-H torsion
[ 10763 10752 10751 10750 ] final   63.92 input  -60.55 | X-H torsion
[ 11005 11000 10999 10996 ] final  -89.05 input  -57.11 | X-H torsion

> <Gold.Protein.ActiveResidues>
 VAL166  LYS551  ARG553  GLY616  TRP617  ASP618  TYR619  PRO620  LYS621  CYS622 
 ASP623  PHE694  ASN695  SER759  ASP760  ASP761  ALA762  ILE779  LEU786  VAL792 
 PHE793  MET794  SER795  GLU796  ALA797  LYS798  CYS799  TRP800  GLU811  SER814 

> <Gold.Protein.RotatedAtoms>
  150.8484  134.7800  159.6988 H   0  0  0  0  0  0  0  0  0  0  0  0  # atno 6907 bound_to 6896
  152.4555  134.5298  159.9817 H   0  0  0  0  0  0  0  0  0  0  0  0  # atno 6908 bound_to 6896
  151.5424  133.3392  159.2973 H   0  0  0  0  0  0  0  0  0  0  0  0  # atno 6909 bound_to 6896
  146.1021  140.5742  142.8816 H   0  0  0  0  0  0  0  0  0  0  0  0  # atno 7974 bound_to 7965
  155.6454  140.3497  155.4729 H   0  0  0  0  0  0  0  0  0  0  0  0  # atno 8008 bound_to 7997
  155.9891  140.1190  157.0678 H   0  0  0  0  0  0  0  0  0  0  0  0  # atno 8009 bound_to 7997
  154.4214  140.1123  156.5527 H   0  0  0  0  0  0  0  0  0  0  0  0  # atno 8010 bound_to 7997
  140.7236  143.5095  150.9768 H   0  0  0  0  0  0  0  0  0  0  0  0  # atno 10167 bound_to 10162
  157.4410  130.8081  149.7694 H   0  0  0  0  0  0  0  0  0  0  0  0  # atno 10718 bound_to 10713
  153.0036  135.5411  154.6428 H   0  0  0  0  0  0  0  0  0  0  0  0  # atno 10763 bound_to 10752
  154.5679  135.2839  155.0858 H   0  0  0  0  0  0  0  0  0  0  0  0  # atno 10764 bound_to 10752
  154.2035  135.6480  153.5146 H   0  0  0  0  0  0  0  0  0  0  0  0  # atno 10765 bound_to 10752
  141.1591  133.7607  156.9540 H   0  0  0  0  0  0  0  0  0  0  0  0  # atno 11005 bound_to 11000
  144.7441  140.5021  143.6848 LP  0  0  0  0  0  0  0  0  0  0  0  0  # atno 17320 bound_to 7965
  145.5833  139.1490  143.3223 LP  0  0  0  0  0  0  0  0  0  0  0  0  # atno 17321 bound_to 7965
  139.8808  143.7074  152.3157 LP  0  0  0  0  0  0  0  0  0  0  0  0  # atno 17342 bound_to 10162
  139.7356  144.7572  151.0733 LP  0  0  0  0  0  0  0  0  0  0  0  0  # atno 17343 bound_to 10162
  155.9949  130.3915  150.2842 LP  0  0  0  0  0  0  0  0  0  0  0  0  # atno 17370 bound_to 10713
  157.1006  131.0194  151.3087 LP  0  0  0  0  0  0  0  0  0  0  0  0  # atno 17371 bound_to 10713
  140.1238  134.9400  157.2241 LP  0  0  0  0  0  0  0  0  0  0  0  0  # atno 17394 bound_to 11000
  140.3038  134.3101  155.7283 LP  0  0  0  0  0  0  0  0  0  0  0  0  # atno 17395 bound_to 11000

$$$$
